
     RDKit          3D

 93 90  0  0  0  0  0  0  0  0999 V2000
   44.1644    4.8084   11.7138 O   0  0  0  0  0  0  0  0  0  0  0  0
   43.9020    5.0416   11.7720 C   0  0  0  0  0  0  0  0  0  0  0  0
   44.2956    6.3901   12.3888 C   0  0  0  0  0  0  0  0  0  0  0  0
   44.7805    4.6474   10.5801 C   0  0  0  0  0  0  0  0  0  0  0  0
   43.9882    4.0227   12.9165 C   0  0  0  0  0  0  0  0  0  0  0  0
   44.5746    3.2265   10.1282 C   0  0  0  0  0  0  0  0  0  0  0  0
   44.3048    7.5215   11.4043 C   0  0  0  0  0  0  0  0  0  0  0  0
   43.0342    3.6333   13.5744 O   0  0  0  0  0  0  0  0  0  0  0  0
   43.4211    8.3431   11.2287 O   0  0  0  0  0  0  0  0  0  0  0  0
   43.9370    2.3467   10.6783 O   0  0  0  0  0  0  0  0  0  0  0  0
   42.5417    5.1413   11.3213 O   0  0  0  0  0  0  0  0  0  0  0  0
   45.2394    3.6205   13.2084 O   0  0  0  0  0  0  0  0  0  0  0  0
   45.4510    7.5896   10.7012 O   0  0  0  0  0  0  0  0  0  0  0  0
   45.2305    2.9714    8.9763 O   0  0  0  0  0  0  0  0  0  0  0  0
   43.2664    4.4302   12.1889 N   0  0  0  0  0  0  0  0  0  0  0  0
   45.3568    5.7749   10.5678 N   0  0  0  0  0  0  0  0  0  0  0  0
   44.1157    5.4963   12.7390 C   0  0  0  0  0  0  0  0  0  0  0  0
   44.6406    6.4651   11.6570 C   0  0  0  0  0  0  0  0  0  0  0  0
   43.9466    3.7547   11.0752 C   0  0  0  0  0  0  0  0  0  0  0  0
   44.4718    4.7373   10.0067 C   0  0  0  0  0  0  0  0  0  0  0  0
   43.8218    4.7959   11.9207 C   0  0  0  0  0  0  0  0  0  0  0  0
   43.3022    4.8558   10.4836 C   0  0  0  0  0  0  0  0  0  0  0  0
   45.0215    5.6803   12.2723 C   0  0  0  0  0  0  0  0  0  0  0  0
   44.1498    3.3344   12.2583 C   0  0  0  0  0  0  0  0  0  0  0  0
   44.7665    7.1511   12.1009 C   0  0  0  0  0  0  0  0  0  0  0  0
   44.2812    4.3535    9.4661 C   0  0  0  0  0  0  0  0  0  0  0  0
   43.3874    2.5653   12.8273 O   0  0  0  0  0  0  0  0  0  0  0  0
   44.2186    3.2823    8.8856 O   0  0  0  0  0  0  0  0  0  0  0  0
   44.0914    7.7009   11.2485 O   0  0  0  0  0  0  0  0  0  0  0  0
   42.7345    5.1762   12.7983 O   0  0  0  0  0  0  0  0  0  0  0  0
   45.3565    2.9161   11.8376 O   0  0  0  0  0  0  0  0  0  0  0  0
   45.2884    5.2106    9.2243 O   0  0  0  0  0  0  0  0  0  0  0  0
   45.4513    7.8908   12.9990 O   0  0  0  0  0  0  0  0  0  0  0  0
   45.4781    5.1044   10.5689 N   0  0  0  0  0  0  0  0  0  0  0  0
   43.2058    4.8969   12.4669 N   0  0  0  0  0  0  0  0  0  0  0  0
   44.3661    4.1676   10.3565 C   0  0  0  0  0  0  0  0  0  0  0  0
   43.6736    3.7462   11.6710 C   0  0  0  0  0  0  0  0  0  0  0  0
   45.0426    6.2398   11.3935 C   0  0  0  0  0  0  0  0  0  0  0  0
   44.3478    5.8010   12.7011 C   0  0  0  0  0  0  0  0  0  0  0  0
   43.1174    4.8752   12.3575 N   0  0  0  0  0  0  0  0  0  0  0  0
   45.5512    5.1193   10.6762 N   0  0  0  0  0  0  0  0  0  0  0  0
   44.2424    5.7560   12.7237 C   0  0  0  0  0  0  0  0  0  0  0  0
   45.0559    6.2307   11.5000 C   0  0  0  0  0  0  0  0  0  0  0  0
   43.6436    3.7480   11.5649 C   0  0  0  0  0  0  0  0  0  0  0  0
   44.4526    4.2061   10.3322 C   0  0  0  0  0  0  0  0  0  0  0  0
   44.4999    5.7107   11.8242 H   0  0  0  0  0  0  0  0  0  0  0  0
   44.3354    4.6069   10.7817 H   0  0  0  0  0  0  0  0  0  0  0  0
   45.2819    6.3470   12.8694 H   0  0  0  0  0  0  0  0  0  0  0  0
   43.5879    6.6700   13.1818 H   0  0  0  0  0  0  0  0  0  0  0  0
   45.8419    4.7554   10.8322 H   0  0  0  0  0  0  0  0  0  0  0  0
   44.5451    5.2856    9.7201 H   0  0  0  0  0  0  0  0  0  0  0  0
   41.9703    4.8180   12.0485 H   0  0  0  0  0  0  0  0  0  0  0  0
   45.1136    2.9535   13.9184 H   0  0  0  0  0  0  0  0  0  0  0  0
   45.3228    8.3665   10.1137 H   0  0  0  0  0  0  0  0  0  0  0  0
   45.0123    2.0365    8.7775 H   0  0  0  0  0  0  0  0  0  0  0  0
   43.0503    3.7537   12.9186 H   0  0  0  0  0  0  0  0  0  0  0  0
   46.1681    5.3089   10.9728 H   0  0  0  0  0  0  0  0  0  0  0  0
   44.9642    5.0470   13.2709 H   0  0  0  0  0  0  0  0  0  0  0  0
   43.5363    6.0625   13.4765 H   0  0  0  0  0  0  0  0  0  0  0  0
   45.3220    7.1882   12.1193 H   0  0  0  0  0  0  0  0  0  0  0  0
   43.8078    7.0418   11.2349 H   0  0  0  0  0  0  0  0  0  0  0  0
   44.7818    3.1601   11.4662 H   0  0  0  0  0  0  0  0  0  0  0  0
   43.2469    3.0548   10.6061 H   0  0  0  0  0  0  0  0  0  0  0  0
   45.0269    4.1790    9.2448 H   0  0  0  0  0  0  0  0  0  0  0  0
   43.6292    5.2174    9.4936 H   0  0  0  0  0  0  0  0  0  0  0  0
   42.3997    4.2342   10.3938 H   0  0  0  0  0  0  0  0  0  0  0  0
   42.9611    5.8542   10.1946 H   0  0  0  0  0  0  0  0  0  0  0  0
   45.9155    5.4270   11.6937 H   0  0  0  0  0  0  0  0  0  0  0  0
   45.2680    5.5169   13.3309 H   0  0  0  0  0  0  0  0  0  0  0  0
   42.1671    4.3870   12.9147 H   0  0  0  0  0  0  0  0  0  0  0  0
   45.3871    1.9642   12.0763 H   0  0  0  0  0  0  0  0  0  0  0  0
   45.8240    4.7713    8.5311 H   0  0  0  0  0  0  0  0  0  0  0  0
   45.2035    8.8139   12.7802 H   0  0  0  0  0  0  0  0  0  0  0  0
   45.8183    5.4430    9.6706 H   0  0  0  0  0  0  0  0  0  0  0  0
   42.5154    5.4014   11.9117 H   0  0  0  0  0  0  0  0  0  0  0  0
   44.7488    3.2748    9.8502 H   0  0  0  0  0  0  0  0  0  0  0  0
   43.6285    4.6263    9.6858 H   0  0  0  0  0  0  0  0  0  0  0  0
   44.3585    3.1403   12.2778 H   0  0  0  0  0  0  0  0  0  0  0  0
   42.8125    3.1096   11.4375 H   0  0  0  0  0  0  0  0  0  0  0  0
   44.3596    6.8708   10.8105 H   0  0  0  0  0  0  0  0  0  0  0  0
   45.9165    6.8527   11.6399 H   0  0  0  0  0  0  0  0  0  0  0  0
   43.9876    6.6886   13.2332 H   0  0  0  0  0  0  0  0  0  0  0  0
   45.0714    5.3083   13.3631 H   0  0  0  0  0  0  0  0  0  0  0  0
   42.4834    5.4077   11.7630 H   0  0  0  0  0  0  0  0  0  0  0  0
   45.9744    5.4848    9.8248 H   0  0  0  0  0  0  0  0  0  0  0  0
   43.8451    6.6293   13.2533 H   0  0  0  0  0  0  0  0  0  0  0  0
   44.8993    5.2322   13.4292 H   0  0  0  0  0  0  0  0  0  0  0  0
   45.9108    6.8224   11.8446 H   0  0  0  0  0  0  0  0  0  0  0  0
   44.4349    6.8918   10.8824 H   0  0  0  0  0  0  0  0  0  0  0  0
   42.8013    3.1302   11.2339 H   0  0  0  0  0  0  0  0  0  0  0  0
   44.2669    3.1128   12.2067 H   0  0  0  0  0  0  0  0  0  0  0  0
   44.8701    3.3268    9.8294 H   0  0  0  0  0  0  0  0  0  0  0  0
   43.7819    4.6985    9.6166 H   0  0  0  0  0  0  0  0  0  0  0  0
  3  2  1  0
  4  2  1  0
  5  2  1  0
  6  4  1  0
  7  3  1  0
  8  5  2  0
  9  7  2  0
 10  6  2  0
 11  2  1  0
 12  5  1  0
 13  7  1  0
 14  6  1  0
 16 20  1  0
 17 15  1  0
 18 17  1  0
 19 15  1  0
 20 19  1  0
 16 18  1  0
 22 21  1  0
 23 21  1  0
 24 21  1  0
 25 23  1  0
 26 22  1  0
 27 24  2  0
 28 26  2  0
 29 25  2  0
 30 21  1  0
 31 24  1  0
 32 26  1  0
 33 25  1  0
 35 39  1  0
 36 34  1  0
 37 36  1  0
 38 34  1  0
 39 38  1  0
 35 37  1  0
 41 45  1  0
 42 40  1  0
 43 42  1  0
 44 40  1  0
 45 44  1  0
 41 43  1  0
  1 46  1  0
  1 47  1  0
  3 48  1  0
  3 49  1  0
  4 50  1  0
  4 51  1  0
 11 52  1  0
 12 53  1  0
 13 54  1  0
 14 55  1  0
 15 56  1  0
 16 57  1  0
 17 58  1  0
 17 59  1  0
 18 60  1  0
 18 61  1  0
 19 62  1  0
 19 63  1  0
 20 64  1  0
 20 65  1  0
 22 66  1  0
 22 67  1  0
 23 68  1  0
 23 69  1  0
 30 70  1  0
 31 71  1  0
 32 72  1  0
 33 73  1  0
 34 74  1  0
 35 75  1  0
 36 76  1  0
 36 77  1  0
 37 78  1  0
 37 79  1  0
 38 80  1  0
 38 81  1  0
 39 82  1  0
 39 83  1  0
 40 84  1  0
 41 85  1  0
 42 86  1  0
 42 87  1  0
 43 88  1  0
 43 89  1  0
 44 90  1  0
 44 91  1  0
 45 92  1  0
 45 93  1  0
M  END
> <Uni-Dock RESULT> 
ENERGY=  -11.043  LOWER_BOUND=    0.000  UPPER_BOUND=    0.000
INTER + INTRA:         -11.043
INTER:                 -11.043
INTRA:                   0.000
UNBOUND:                 0.000

$$$$

     RDKit          3D

 93 90  0  0  0  0  0  0  0  0999 V2000
   44.3684    5.4220   12.0646 O   0  0  0  0  0  0  0  0  0  0  0  0
   44.5309    5.6362   11.8316 C   0  0  0  0  0  0  0  0  0  0  0  0
   45.5020    6.6765   12.4049 C   0  0  0  0  0  0  0  0  0  0  0  0
   44.7681    4.2261   12.3823 C   0  0  0  0  0  0  0  0  0  0  0  0
   43.1254    6.1572   12.1608 C   0  0  0  0  0  0  0  0  0  0  0  0
   43.6753    3.2532   12.0287 C   0  0  0  0  0  0  0  0  0  0  0  0
   46.9462    6.3219   12.2105 C   0  0  0  0  0  0  0  0  0  0  0  0
   42.4128    6.7752   11.3830 O   0  0  0  0  0  0  0  0  0  0  0  0
   47.6883    6.7373   11.3367 O   0  0  0  0  0  0  0  0  0  0  0  0
   42.5957    3.4878   11.5162 O   0  0  0  0  0  0  0  0  0  0  0  0
   44.7079    5.6038   10.4064 O   0  0  0  0  0  0  0  0  0  0  0  0
   42.7378    5.9433   13.4322 O   0  0  0  0  0  0  0  0  0  0  0  0
   47.4059    5.4781   13.1537 O   0  0  0  0  0  0  0  0  0  0  0  0
   44.0019    1.9908   12.3775 O   0  0  0  0  0  0  0  0  0  0  0  0
   43.7501    5.8736   11.2972 N   0  0  0  0  0  0  0  0  0  0  0  0
   45.8302    4.5813   12.9733 N   0  0  0  0  0  0  0  0  0  0  0  0
   44.5337    6.6259   12.2874 C   0  0  0  0  0  0  0  0  0  0  0  0
   45.9161    5.9958   12.5644 C   0  0  0  0  0  0  0  0  0  0  0  0
   43.6852    4.4526   11.6658 C   0  0  0  0  0  0  0  0  0  0  0  0
   45.0742    3.8402   11.9467 C   0  0  0  0  0  0  0  0  0  0  0  0
   44.2394    5.6748   11.7822 C   0  0  0  0  0  0  0  0  0  0  0  0
   44.8784    4.5759   10.9319 C   0  0  0  0  0  0  0  0  0  0  0  0
   44.9748    6.0939   13.0584 C   0  0  0  0  0  0  0  0  0  0  0  0
   42.8086    5.2449   12.1364 C   0  0  0  0  0  0  0  0  0  0  0  0
   46.3474    6.6550   12.8155 C   0  0  0  0  0  0  0  0  0  0  0  0
   44.9507    3.2460   11.6189 C   0  0  0  0  0  0  0  0  0  0  0  0
   41.8099    5.5736   11.5111 O   0  0  0  0  0  0  0  0  0  0  0  0
   44.2389    2.2833   11.3840 O   0  0  0  0  0  0  0  0  0  0  0  0
   47.1579    6.3155   11.9714 O   0  0  0  0  0  0  0  0  0  0  0  0
   44.1102    6.8546   10.9525 O   0  0  0  0  0  0  0  0  0  0  0  0
   42.7141    4.4166   13.1915 O   0  0  0  0  0  0  0  0  0  0  0  0
   45.9052    3.1831   12.5637 O   0  0  0  0  0  0  0  0  0  0  0  0
   46.6734    7.6025   13.7203 O   0  0  0  0  0  0  0  0  0  0  0  0
   45.2385    4.2575   13.0703 N   0  0  0  0  0  0  0  0  0  0  0  0
   44.0423    6.3350   11.3205 N   0  0  0  0  0  0  0  0  0  0  0  0
   44.4025    3.9157   11.9112 C   0  0  0  0  0  0  0  0  0  0  0  0
   43.3957    5.0281   11.5452 C   0  0  0  0  0  0  0  0  0  0  0  0
   45.8614    5.5750   12.8832 C   0  0  0  0  0  0  0  0  0  0  0  0
   44.8419    6.6743   12.5128 C   0  0  0  0  0  0  0  0  0  0  0  0
   44.0634    6.2510   11.2075 N   0  0  0  0  0  0  0  0  0  0  0  0
   45.2109    4.3402   13.1676 N   0  0  0  0  0  0  0  0  0  0  0  0
   44.7833    6.6984   12.4147 C   0  0  0  0  0  0  0  0  0  0  0  0
   45.8079    5.6602   12.9217 C   0  0  0  0  0  0  0  0  0  0  0  0
   43.4412    4.9439   11.4905 C   0  0  0  0  0  0  0  0  0  0  0  0
   44.4545    3.8917   11.9905 C   0  0  0  0  0  0  0  0  0  0  0  0
   45.1558    5.8395   12.4449 H   0  0  0  0  0  0  0  0  0  0  0  0
   44.6082    4.4856   11.9982 H   0  0  0  0  0  0  0  0  0  0  0  0
   45.3327    6.8462   13.4764 H   0  0  0  0  0  0  0  0  0  0  0  0
   45.3501    7.6509   11.9196 H   0  0  0  0  0  0  0  0  0  0  0  0
   44.8400    4.2473   13.4759 H   0  0  0  0  0  0  0  0  0  0  0  0
   45.6964    3.8176   11.9655 H   0  0  0  0  0  0  0  0  0  0  0  0
   44.0550    6.2228   10.0185 H   0  0  0  0  0  0  0  0  0  0  0  0
   41.8202    6.2924   13.4615 H   0  0  0  0  0  0  0  0  0  0  0  0
   48.3482    5.3424   12.9112 H   0  0  0  0  0  0  0  0  0  0  0  0
   43.2332    1.4551   12.0885 H   0  0  0  0  0  0  0  0  0  0  0  0
   42.8081    6.2564   11.2434 H   0  0  0  0  0  0  0  0  0  0  0  0
   45.3009    4.5387   13.8436 H   0  0  0  0  0  0  0  0  0  0  0  0
   43.9670    6.6922   13.2251 H   0  0  0  0  0  0  0  0  0  0  0  0
   44.6729    7.6494   11.9220 H   0  0  0  0  0  0  0  0  0  0  0  0
   46.4172    6.5591   13.3597 H   0  0  0  0  0  0  0  0  0  0  0  0
   46.5504    6.0775   11.6725 H   0  0  0  0  0  0  0  0  0  0  0  0
   43.0486    4.3355   12.5518 H   0  0  0  0  0  0  0  0  0  0  0  0
   43.2064    3.8979   10.8517 H   0  0  0  0  0  0  0  0  0  0  0  0
   44.9507    2.8049   12.2829 H   0  0  0  0  0  0  0  0  0  0  0  0
   45.6607    3.8025   11.0203 H   0  0  0  0  0  0  0  0  0  0  0  0
   44.2882    4.4314   10.0156 H   0  0  0  0  0  0  0  0  0  0  0  0
   45.8720    4.8461   10.5623 H   0  0  0  0  0  0  0  0  0  0  0  0
   45.0720    5.2740   13.7771 H   0  0  0  0  0  0  0  0  0  0  0  0
   44.3863    6.8820   13.5489 H   0  0  0  0  0  0  0  0  0  0  0  0
   43.3066    6.7372   10.4059 H   0  0  0  0  0  0  0  0  0  0  0  0
   41.7593    4.1952   13.2492 H   0  0  0  0  0  0  0  0  0  0  0  0
   45.8568    2.2644   12.9013 H   0  0  0  0  0  0  0  0  0  0  0  0
   47.5763    7.8785   13.4558 H   0  0  0  0  0  0  0  0  0  0  0  0
   45.9612    3.5504   13.1930 H   0  0  0  0  0  0  0  0  0  0  0  0
   44.6813    6.2366   10.5322 H   0  0  0  0  0  0  0  0  0  0  0  0
   43.8539    2.9935   12.1317 H   0  0  0  0  0  0  0  0  0  0  0  0
   45.0470    3.7077   11.0478 H   0  0  0  0  0  0  0  0  0  0  0  0
   42.6429    5.1277   12.3374 H   0  0  0  0  0  0  0  0  0  0  0  0
   42.8580    4.7430   10.6337 H   0  0  0  0  0  0  0  0  0  0  0  0
   46.6265    5.5067   12.0994 H   0  0  0  0  0  0  0  0  0  0  0  0
   46.3733    5.8580   13.8095 H   0  0  0  0  0  0  0  0  0  0  0  0
   45.3764    7.6113   12.3202 H   0  0  0  0  0  0  0  0  0  0  0  0
   44.1696    6.8629   13.3595 H   0  0  0  0  0  0  0  0  0  0  0  0
   44.7492    6.1179   10.4652 H   0  0  0  0  0  0  0  0  0  0  0  0
   45.9439    3.6665   13.3830 H   0  0  0  0  0  0  0  0  0  0  0  0
   45.3031    7.6354   12.1850 H   0  0  0  0  0  0  0  0  0  0  0  0
   44.0587    6.9263   13.2063 H   0  0  0  0  0  0  0  0  0  0  0  0
   46.2564    6.0233   13.8527 H   0  0  0  0  0  0  0  0  0  0  0  0
   46.6200    5.5609   12.1905 H   0  0  0  0  0  0  0  0  0  0  0  0
   42.9644    4.5782   10.5741 H   0  0  0  0  0  0  0  0  0  0  0  0
   42.6419    5.0751   12.2306 H   0  0  0  0  0  0  0  0  0  0  0  0
   43.9193    2.9705   12.2459 H   0  0  0  0  0  0  0  0  0  0  0  0
   45.1542    3.6443   11.1819 H   0  0  0  0  0  0  0  0  0  0  0  0
  3  2  1  0
  4  2  1  0
  5  2  1  0
  6  4  1  0
  7  3  1  0
  8  5  2  0
  9  7  2  0
 10  6  2  0
 11  2  1  0
 12  5  1  0
 13  7  1  0
 14  6  1  0
 16 20  1  0
 17 15  1  0
 18 17  1  0
 19 15  1  0
 20 19  1  0
 16 18  1  0
 22 21  1  0
 23 21  1  0
 24 21  1  0
 25 23  1  0
 26 22  1  0
 27 24  2  0
 28 26  2  0
 29 25  2  0
 30 21  1  0
 31 24  1  0
 32 26  1  0
 33 25  1  0
 35 39  1  0
 36 34  1  0
 37 36  1  0
 38 34  1  0
 39 38  1  0
 35 37  1  0
 41 45  1  0
 42 40  1  0
 43 42  1  0
 44 40  1  0
 45 44  1  0
 41 43  1  0
  1 46  1  0
  1 47  1  0
  3 48  1  0
  3 49  1  0
  4 50  1  0
  4 51  1  0
 11 52  1  0
 12 53  1  0
 13 54  1  0
 14 55  1  0
 15 56  1  0
 16 57  1  0
 17 58  1  0
 17 59  1  0
 18 60  1  0
 18 61  1  0
 19 62  1  0
 19 63  1  0
 20 64  1  0
 20 65  1  0
 22 66  1  0
 22 67  1  0
 23 68  1  0
 23 69  1  0
 30 70  1  0
 31 71  1  0
 32 72  1  0
 33 73  1  0
 34 74  1  0
 35 75  1  0
 36 76  1  0
 36 77  1  0
 37 78  1  0
 37 79  1  0
 38 80  1  0
 38 81  1  0
 39 82  1  0
 39 83  1  0
 40 84  1  0
 41 85  1  0
 42 86  1  0
 42 87  1  0
 43 88  1  0
 43 89  1  0
 44 90  1  0
 44 91  1  0
 45 92  1  0
 45 93  1  0
M  END
> <Uni-Dock RESULT> 
ENERGY=   -9.450  LOWER_BOUND=    1.336  UPPER_BOUND=    2.403
INTER + INTRA:          -9.450
INTER:                  -9.450
INTRA:                   0.000
UNBOUND:                 0.000

$$$$

     RDKit          3D

 93 90  0  0  0  0  0  0  0  0999 V2000
   44.5175    4.2472   11.2325 O   0  0  0  0  0  0  0  0  0  0  0  0
   44.6792    3.9468   11.1313 C   0  0  0  0  0  0  0  0  0  0  0  0
   44.4684    3.5008    9.6785 C   0  0  0  0  0  0  0  0  0  0  0  0
   45.0742    5.4222   11.2549 C   0  0  0  0  0  0  0  0  0  0  0  0
   43.3608    3.6383   11.8537 C   0  0  0  0  0  0  0  0  0  0  0  0
   45.0368    5.9358   12.6692 C   0  0  0  0  0  0  0  0  0  0  0  0
   45.6519    3.7566    8.7936 C   0  0  0  0  0  0  0  0  0  0  0  0
   43.1553    2.6410   12.5304 O   0  0  0  0  0  0  0  0  0  0  0  0
   46.5074    2.9509    8.4681 O   0  0  0  0  0  0  0  0  0  0  0  0
   44.5931    5.3826   13.6593 O   0  0  0  0  0  0  0  0  0  0  0  0
   45.7313    3.1456   11.6920 O   0  0  0  0  0  0  0  0  0  0  0  0
   42.3823    4.5357   11.6306 O   0  0  0  0  0  0  0  0  0  0  0  0
   45.6882    5.0186    8.3256 O   0  0  0  0  0  0  0  0  0  0  0  0
   45.5559    7.1785   12.7605 O   0  0  0  0  0  0  0  0  0  0  0  0
   44.4358    3.3958   11.8985 N   0  0  0  0  0  0  0  0  0  0  0  0
   45.2028    5.5447   10.0011 N   0  0  0  0  0  0  0  0  0  0  0  0
   43.9598    3.4163   10.5080 C   0  0  0  0  0  0  0  0  0  0  0  0
   44.9161    4.1678    9.5564 C   0  0  0  0  0  0  0  0  0  0  0  0
   44.7647    4.7553   12.3489 C   0  0  0  0  0  0  0  0  0  0  0  0
   45.7149    5.4953   11.3831 C   0  0  0  0  0  0  0  0  0  0  0  0
   44.5121    3.8697   11.3659 C   0  0  0  0  0  0  0  0  0  0  0  0
   45.9371    4.2937   11.7243 C   0  0  0  0  0  0  0  0  0  0  0  0
   43.9627    4.3244   10.0107 C   0  0  0  0  0  0  0  0  0  0  0  0
   43.5694    4.3417   12.4822 C   0  0  0  0  0  0  0  0  0  0  0  0
   44.7402    3.8086    8.8328 C   0  0  0  0  0  0  0  0  0  0  0  0
   46.1057    5.7749   11.8780 C   0  0  0  0  0  0  0  0  0  0  0  0
   43.2095    3.6508   13.4254 O   0  0  0  0  0  0  0  0  0  0  0  0
   46.2254    6.3723   12.9350 O   0  0  0  0  0  0  0  0  0  0  0  0
   45.9429    3.6335    8.7465 O   0  0  0  0  0  0  0  0  0  0  0  0
   44.4650    2.4225   11.3860 O   0  0  0  0  0  0  0  0  0  0  0  0
   43.1789    5.6247   12.3848 O   0  0  0  0  0  0  0  0  0  0  0  0
   46.1159    6.4364   10.7075 O   0  0  0  0  0  0  0  0  0  0  0  0
   43.9493    3.5949    7.7597 O   0  0  0  0  0  0  0  0  0  0  0  0
   44.9078    5.8285   10.5458 N   0  0  0  0  0  0  0  0  0  0  0  0
   44.4058    3.0541   11.4729 N   0  0  0  0  0  0  0  0  0  0  0  0
   45.2848    5.3745   11.8916 C   0  0  0  0  0  0  0  0  0  0  0  0
   44.4150    4.2032   12.3981 C   0  0  0  0  0  0  0  0  0  0  0  0
   44.8547    4.6917    9.6166 C   0  0  0  0  0  0  0  0  0  0  0  0
   43.9855    3.5276   10.1405 C   0  0  0  0  0  0  0  0  0  0  0  0
   44.5286    3.0568   11.5449 N   0  0  0  0  0  0  0  0  0  0  0  0
   44.7917    5.8174   10.4869 N   0  0  0  0  0  0  0  0  0  0  0  0
   44.0023    3.4472   10.2234 C   0  0  0  0  0  0  0  0  0  0  0  0
   44.7597    4.6424    9.6051 C   0  0  0  0  0  0  0  0  0  0  0  0
   44.5152    4.2416   12.4233 C   0  0  0  0  0  0  0  0  0  0  0  0
   45.2761    5.4435   11.8228 C   0  0  0  0  0  0  0  0  0  0  0  0
   44.5844    4.1796   10.2683 H   0  0  0  0  0  0  0  0  0  0  0  0
   45.1126    4.9777   11.4584 H   0  0  0  0  0  0  0  0  0  0  0  0
   43.5923    3.9839    9.2260 H   0  0  0  0  0  0  0  0  0  0  0  0
   44.2711    2.4205    9.6341 H   0  0  0  0  0  0  0  0  0  0  0  0
   44.3985    6.0521   10.6647 H   0  0  0  0  0  0  0  0  0  0  0  0
   46.1023    5.5607   10.8996 H   0  0  0  0  0  0  0  0  0  0  0  0
   45.3091    2.3801   12.1344 H   0  0  0  0  0  0  0  0  0  0  0  0
   41.6386    4.2179   12.1879 H   0  0  0  0  0  0  0  0  0  0  0  0
   46.4946    5.0403    7.7649 H   0  0  0  0  0  0  0  0  0  0  0  0
   45.4920    7.3962   13.7143 H   0  0  0  0  0  0  0  0  0  0  0  0
   43.7164    3.0005   12.5010 H   0  0  0  0  0  0  0  0  0  0  0  0
   44.3231    6.0598   10.0113 H   0  0  0  0  0  0  0  0  0  0  0  0
   42.9662    3.8811   10.4707 H   0  0  0  0  0  0  0  0  0  0  0  0
   43.8458    2.3838   10.1598 H   0  0  0  0  0  0  0  0  0  0  0  0
   44.4709    4.2099    8.5559 H   0  0  0  0  0  0  0  0  0  0  0  0
   45.8588    3.6146    9.4590 H   0  0  0  0  0  0  0  0  0  0  0  0
   43.8395    5.3336   12.4653 H   0  0  0  0  0  0  0  0  0  0  0  0
   45.2323    4.6965   13.3376 H   0  0  0  0  0  0  0  0  0  0  0  0
   45.8628    6.5212   11.7380 H   0  0  0  0  0  0  0  0  0  0  0  0
   46.7014    5.0152   11.3879 H   0  0  0  0  0  0  0  0  0  0  0  0
   46.2254    3.8374   12.6821 H   0  0  0  0  0  0  0  0  0  0  0  0
   46.6843    3.9162   11.0200 H   0  0  0  0  0  0  0  0  0  0  0  0
   43.9076    5.4142    9.9227 H   0  0  0  0  0  0  0  0  0  0  0  0
   42.9368    3.9426    9.9121 H   0  0  0  0  0  0  0  0  0  0  0  0
   44.3675    2.1492   12.3209 H   0  0  0  0  0  0  0  0  0  0  0  0
   42.6379    5.7819   13.1890 H   0  0  0  0  0  0  0  0  0  0  0  0
   46.2600    7.3734   10.9559 H   0  0  0  0  0  0  0  0  0  0  0  0
   44.5688    3.2691    7.0731 H   0  0  0  0  0  0  0  0  0  0  0  0
   45.5840    6.5132   10.2123 H   0  0  0  0  0  0  0  0  0  0  0  0
   45.3614    2.7073   11.3952 H   0  0  0  0  0  0  0  0  0  0  0  0
   45.1931    6.2163   12.5864 H   0  0  0  0  0  0  0  0  0  0  0  0
   46.3397    5.0722   11.8901 H   0  0  0  0  0  0  0  0  0  0  0  0
   43.3850    4.5448   12.5619 H   0  0  0  0  0  0  0  0  0  0  0  0
   44.7934    3.8663   13.3699 H   0  0  0  0  0  0  0  0  0  0  0  0
   45.8735    4.3305    9.4264 H   0  0  0  0  0  0  0  0  0  0  0  0
   44.4514    5.0376    8.6585 H   0  0  0  0  0  0  0  0  0  0  0  0
   44.0438    2.6894    9.4371 H   0  0  0  0  0  0  0  0  0  0  0  0
   42.9324    3.8341   10.1793 H   0  0  0  0  0  0  0  0  0  0  0  0
   45.4984    2.7677   11.4228 H   0  0  0  0  0  0  0  0  0  0  0  0
   45.3998    6.5302   10.0873 H   0  0  0  0  0  0  0  0  0  0  0  0
   44.0756    2.5862    9.5493 H   0  0  0  0  0  0  0  0  0  0  0  0
   42.9354    3.6865   10.3134 H   0  0  0  0  0  0  0  0  0  0  0  0
   44.2792    4.9228    8.6615 H   0  0  0  0  0  0  0  0  0  0  0  0
   45.7869    4.3399    9.3657 H   0  0  0  0  0  0  0  0  0  0  0  0
   44.9696    3.9704   13.3828 H   0  0  0  0  0  0  0  0  0  0  0  0
   43.4765    4.5244   12.6354 H   0  0  0  0  0  0  0  0  0  0  0  0
   45.1696    6.3059   12.4901 H   0  0  0  0  0  0  0  0  0  0  0  0
   46.3467    5.2085   11.7681 H   0  0  0  0  0  0  0  0  0  0  0  0
  3  2  1  0
  4  2  1  0
  5  2  1  0
  6  4  1  0
  7  3  1  0
  8  5  2  0
  9  7  2  0
 10  6  2  0
 11  2  1  0
 12  5  1  0
 13  7  1  0
 14  6  1  0
 16 20  1  0
 17 15  1  0
 18 17  1  0
 19 15  1  0
 20 19  1  0
 16 18  1  0
 22 21  1  0
 23 21  1  0
 24 21  1  0
 25 23  1  0
 26 22  1  0
 27 24  2  0
 28 26  2  0
 29 25  2  0
 30 21  1  0
 31 24  1  0
 32 26  1  0
 33 25  1  0
 35 39  1  0
 36 34  1  0
 37 36  1  0
 38 34  1  0
 39 38  1  0
 35 37  1  0
 41 45  1  0
 42 40  1  0
 43 42  1  0
 44 40  1  0
 45 44  1  0
 41 43  1  0
  1 46  1  0
  1 47  1  0
  3 48  1  0
  3 49  1  0
  4 50  1  0
  4 51  1  0
 11 52  1  0
 12 53  1  0
 13 54  1  0
 14 55  1  0
 15 56  1  0
 16 57  1  0
 17 58  1  0
 17 59  1  0
 18 60  1  0
 18 61  1  0
 19 62  1  0
 19 63  1  0
 20 64  1  0
 20 65  1  0
 22 66  1  0
 22 67  1  0
 23 68  1  0
 23 69  1  0
 30 70  1  0
 31 71  1  0
 32 72  1  0
 33 73  1  0
 34 74  1  0
 35 75  1  0
 36 76  1  0
 36 77  1  0
 37 78  1  0
 37 79  1  0
 38 80  1  0
 38 81  1  0
 39 82  1  0
 39 83  1  0
 40 84  1  0
 41 85  1  0
 42 86  1  0
 42 87  1  0
 43 88  1  0
 43 89  1  0
 44 90  1  0
 44 91  1  0
 45 92  1  0
 45 93  1  0
M  END
> <Uni-Dock RESULT> 
ENERGY=   -8.892  LOWER_BOUND=    1.120  UPPER_BOUND=    3.245
INTER + INTRA:          -8.892
INTER:                  -8.892
INTRA:                   0.000
UNBOUND:                 0.000

$$$$

     RDKit          3D

 93 90  0  0  0  0  0  0  0  0999 V2000
   44.3792    4.2104   12.2941 O   0  0  0  0  0  0  0  0  0  0  0  0
   44.3973    4.0460   12.6092 C   0  0  0  0  0  0  0  0  0  0  0  0
   45.7975    3.6999   13.1323 C   0  0  0  0  0  0  0  0  0  0  0  0
   44.2775    5.4962   12.1290 C   0  0  0  0  0  0  0  0  0  0  0  0
   44.1153    3.0393   11.4857 C   0  0  0  0  0  0  0  0  0  0  0  0
   42.9993    5.7774   11.3856 C   0  0  0  0  0  0  0  0  0  0  0  0
   46.2717    4.6088   14.2270 C   0  0  0  0  0  0  0  0  0  0  0  0
   43.4597    2.0158   11.6172 O   0  0  0  0  0  0  0  0  0  0  0  0
   46.2349    4.3882   15.4257 O   0  0  0  0  0  0  0  0  0  0  0  0
   42.1623    4.9813   10.9998 O   0  0  0  0  0  0  0  0  0  0  0  0
   43.4620    3.8426   13.6802 O   0  0  0  0  0  0  0  0  0  0  0  0
   44.7167    3.3293   10.3166 O   0  0  0  0  0  0  0  0  0  0  0  0
   46.8074    5.7517   13.7584 O   0  0  0  0  0  0  0  0  0  0  0  0
   42.8505    7.0951   11.1338 O   0  0  0  0  0  0  0  0  0  0  0  0
   43.7060    3.3757   12.4531 N   0  0  0  0  0  0  0  0  0  0  0  0
   45.4285    5.7895   12.5681 N   0  0  0  0  0  0  0  0  0  0  0  0
   45.1722    3.2870   12.5058 C   0  0  0  0  0  0  0  0  0  0  0  0
   45.8244    4.5102   13.1865 C   0  0  0  0  0  0  0  0  0  0  0  0
   43.2897    4.6612   11.8754 C   0  0  0  0  0  0  0  0  0  0  0  0
   43.9562    5.8728   12.5617 C   0  0  0  0  0  0  0  0  0  0  0  0
   44.2235    3.8720   12.4407 C   0  0  0  0  0  0  0  0  0  0  0  0
   43.4618    4.9257   13.2458 C   0  0  0  0  0  0  0  0  0  0  0  0
   45.7167    4.1134   12.2013 C   0  0  0  0  0  0  0  0  0  0  0  0
   43.5147    3.6852   11.0915 C   0  0  0  0  0  0  0  0  0  0  0  0
   46.5330    4.1845   13.4607 C   0  0  0  0  0  0  0  0  0  0  0  0
   43.3871    6.2625   12.5726 C   0  0  0  0  0  0  0  0  0  0  0  0
   42.6833    2.8187   10.8581 O   0  0  0  0  0  0  0  0  0  0  0  0
   42.4021    6.7303   12.0253 O   0  0  0  0  0  0  0  0  0  0  0  0
   46.2119    4.6565   14.5371 O   0  0  0  0  0  0  0  0  0  0  0  0
   44.0980    2.6091   13.1382 O   0  0  0  0  0  0  0  0  0  0  0  0
   43.8404    4.5921   10.1538 O   0  0  0  0  0  0  0  0  0  0  0  0
   44.5430    6.9479   12.6145 O   0  0  0  0  0  0  0  0  0  0  0  0
   47.7819    3.7039   13.2813 O   0  0  0  0  0  0  0  0  0  0  0  0
   45.0339    5.8282   12.0140 N   0  0  0  0  0  0  0  0  0  0  0  0
   44.0882    3.1102   12.7398 N   0  0  0  0  0  0  0  0  0  0  0  0
   43.6053    5.5004   12.1186 C   0  0  0  0  0  0  0  0  0  0  0  0
   43.3096    4.0061   11.8637 C   0  0  0  0  0  0  0  0  0  0  0  0
   45.8315    4.9207   12.8501 C   0  0  0  0  0  0  0  0  0  0  0  0
   45.5199    3.4313   12.5863 C   0  0  0  0  0  0  0  0  0  0  0  0
   43.9810    3.1680   12.8134 N   0  0  0  0  0  0  0  0  0  0  0  0
   45.1259    5.7653   11.9459 N   0  0  0  0  0  0  0  0  0  0  0  0
   45.4295    3.3630   12.6145 C   0  0  0  0  0  0  0  0  0  0  0  0
   45.8688    4.8313   12.8031 C   0  0  0  0  0  0  0  0  0  0  0  0
   43.2568    4.0876   11.9159 C   0  0  0  0  0  0  0  0  0  0  0  0
   43.6788    5.5616   12.0983 C   0  0  0  0  0  0  0  0  0  0  0  0
   45.2611    4.2813   12.6893 H   0  0  0  0  0  0  0  0  0  0  0  0
   44.0359    5.1160   12.3225 H   0  0  0  0  0  0  0  0  0  0  0  0
   46.5472    3.7105   12.3302 H   0  0  0  0  0  0  0  0  0  0  0  0
   45.8120    2.6804   13.5426 H   0  0  0  0  0  0  0  0  0  0  0  0
   45.1048    5.7480   11.4554 H   0  0  0  0  0  0  0  0  0  0  0  0
   44.2926    6.1736   12.9912 H   0  0  0  0  0  0  0  0  0  0  0  0
   43.1165    2.9298   13.5948 H   0  0  0  0  0  0  0  0  0  0  0  0
   44.4044    2.6238    9.7088 H   0  0  0  0  0  0  0  0  0  0  0  0
   47.0778    6.2364   14.5690 H   0  0  0  0  0  0  0  0  0  0  0  0
   41.9900    7.1551   10.6675 H   0  0  0  0  0  0  0  0  0  0  0  0
   43.3367    2.6120   11.8899 H   0  0  0  0  0  0  0  0  0  0  0  0
   45.7458    5.7802   11.5994 H   0  0  0  0  0  0  0  0  0  0  0  0
   45.5669    3.1813   11.4871 H   0  0  0  0  0  0  0  0  0  0  0  0
   45.4504    2.3806   13.0548 H   0  0  0  0  0  0  0  0  0  0  0  0
   46.9147    4.4173   13.1285 H   0  0  0  0  0  0  0  0  0  0  0  0
   45.5656    4.5275   14.2528 H   0  0  0  0  0  0  0  0  0  0  0  0
   43.5270    4.6723   10.8042 H   0  0  0  0  0  0  0  0  0  0  0  0
   42.2018    4.7523   11.9636 H   0  0  0  0  0  0  0  0  0  0  0  0
   43.6602    6.7902   12.0411 H   0  0  0  0  0  0  0  0  0  0  0  0
   43.5931    5.9650   13.5929 H   0  0  0  0  0  0  0  0  0  0  0  0
   42.4273    4.5888   13.4045 H   0  0  0  0  0  0  0  0  0  0  0  0
   43.8530    5.0531   14.2595 H   0  0  0  0  0  0  0  0  0  0  0  0
   45.9091    5.0253   11.6270 H   0  0  0  0  0  0  0  0  0  0  0  0
   46.1083    3.2737   11.6100 H   0  0  0  0  0  0  0  0  0  0  0  0
   43.2249    2.2341   12.9027 H   0  0  0  0  0  0  0  0  0  0  0  0
   43.2698    4.3718    9.3857 H   0  0  0  0  0  0  0  0  0  0  0  0
   44.3412    7.7978   12.1703 H   0  0  0  0  0  0  0  0  0  0  0  0
   48.2021    3.8087   14.1609 H   0  0  0  0  0  0  0  0  0  0  0  0
   45.1879    6.7909   12.3087 H   0  0  0  0  0  0  0  0  0  0  0  0
   43.8242    3.3086   13.7043 H   0  0  0  0  0  0  0  0  0  0  0  0
   43.0506    6.1049   11.3929 H   0  0  0  0  0  0  0  0  0  0  0  0
   43.2411    5.7800   13.1153 H   0  0  0  0  0  0  0  0  0  0  0  0
   43.5161    3.7569   10.8151 H   0  0  0  0  0  0  0  0  0  0  0  0
   42.2430    3.8159   12.0286 H   0  0  0  0  0  0  0  0  0  0  0  0
   45.6518    5.1501   13.9082 H   0  0  0  0  0  0  0  0  0  0  0  0
   46.8939    5.1047   12.6563 H   0  0  0  0  0  0  0  0  0  0  0  0
   46.0937    2.8137   13.2863 H   0  0  0  0  0  0  0  0  0  0  0  0
   45.8486    3.1525   11.5770 H   0  0  0  0  0  0  0  0  0  0  0  0
   43.7590    3.4274   13.7738 H   0  0  0  0  0  0  0  0  0  0  0  0
   45.3666    6.7237   12.1929 H   0  0  0  0  0  0  0  0  0  0  0  0
   45.9690    2.7306   13.3287 H   0  0  0  0  0  0  0  0  0  0  0  0
   45.7088    3.0147   11.6124 H   0  0  0  0  0  0  0  0  0  0  0  0
   46.9370    4.9185   12.5768 H   0  0  0  0  0  0  0  0  0  0  0  0
   45.7378    5.1200   13.8536 H   0  0  0  0  0  0  0  0  0  0  0  0
   42.1828    3.9934   12.1116 H   0  0  0  0  0  0  0  0  0  0  0  0
   43.4156    3.7789   10.8751 H   0  0  0  0  0  0  0  0  0  0  0  0
   43.1565    6.1789   11.3590 H   0  0  0  0  0  0  0  0  0  0  0  0
   43.3653    5.9120   13.0900 H   0  0  0  0  0  0  0  0  0  0  0  0
  3  2  1  0
  4  2  1  0
  5  2  1  0
  6  4  1  0
  7  3  1  0
  8  5  2  0
  9  7  2  0
 10  6  2  0
 11  2  1  0
 12  5  1  0
 13  7  1  0
 14  6  1  0
 16 20  1  0
 17 15  1  0
 18 17  1  0
 19 15  1  0
 20 19  1  0
 16 18  1  0
 22 21  1  0
 23 21  1  0
 24 21  1  0
 25 23  1  0
 26 22  1  0
 27 24  2  0
 28 26  2  0
 29 25  2  0
 30 21  1  0
 31 24  1  0
 32 26  1  0
 33 25  1  0
 35 39  1  0
 36 34  1  0
 37 36  1  0
 38 34  1  0
 39 38  1  0
 35 37  1  0
 41 45  1  0
 42 40  1  0
 43 42  1  0
 44 40  1  0
 45 44  1  0
 41 43  1  0
  1 46  1  0
  1 47  1  0
  3 48  1  0
  3 49  1  0
  4 50  1  0
  4 51  1  0
 11 52  1  0
 12 53  1  0
 13 54  1  0
 14 55  1  0
 15 56  1  0
 16 57  1  0
 17 58  1  0
 17 59  1  0
 18 60  1  0
 18 61  1  0
 19 62  1  0
 19 63  1  0
 20 64  1  0
 20 65  1  0
 22 66  1  0
 22 67  1  0
 23 68  1  0
 23 69  1  0
 30 70  1  0
 31 71  1  0
 32 72  1  0
 33 73  1  0
 34 74  1  0
 35 75  1  0
 36 76  1  0
 36 77  1  0
 37 78  1  0
 37 79  1  0
 38 80  1  0
 38 81  1  0
 39 82  1  0
 39 83  1  0
 40 84  1  0
 41 85  1  0
 42 86  1  0
 42 87  1  0
 43 88  1  0
 43 89  1  0
 44 90  1  0
 44 91  1  0
 45 92  1  0
 45 93  1  0
M  END
> <Uni-Dock RESULT> 
ENERGY=   -8.683  LOWER_BOUND=    1.425  UPPER_BOUND=    2.957
INTER + INTRA:          -8.683
INTER:                  -8.683
INTRA:                   0.000
UNBOUND:                 0.000

$$$$

     RDKit          3D

 93 90  0  0  0  0  0  0  0  0999 V2000
   44.3861    5.3261   11.7622 O   0  0  0  0  0  0  0  0  0  0  0  0
   44.0656    5.1765   11.8014 C   0  0  0  0  0  0  0  0  0  0  0  0
   43.6608    4.1209   10.7642 C   0  0  0  0  0  0  0  0  0  0  0  0
   45.4665    4.9455   12.3776 C   0  0  0  0  0  0  0  0  0  0  0  0
   43.9512    6.5276   11.0823 C   0  0  0  0  0  0  0  0  0  0  0  0
   45.9749    6.1006   13.1978 C   0  0  0  0  0  0  0  0  0  0  0  0
   43.7434    2.7134   11.2755 C   0  0  0  0  0  0  0  0  0  0  0  0
   42.9924    7.2813   11.1666 O   0  0  0  0  0  0  0  0  0  0  0  0
   42.8221    2.0350   11.6971 O   0  0  0  0  0  0  0  0  0  0  0  0
   45.4891    7.2112   13.3160 O   0  0  0  0  0  0  0  0  0  0  0  0
   43.1165    5.1255   12.8784 O   0  0  0  0  0  0  0  0  0  0  0  0
   44.9834    6.8109   10.2657 O   0  0  0  0  0  0  0  0  0  0  0  0
   44.9881    2.2055   11.2012 O   0  0  0  0  0  0  0  0  0  0  0  0
   47.1275    5.7926   13.8291 O   0  0  0  0  0  0  0  0  0  0  0  0
   43.5534    5.9914   11.9603 N   0  0  0  0  0  0  0  0  0  0  0  0
   45.5735    3.8234   11.8004 N   0  0  0  0  0  0  0  0  0  0  0  0
   43.6487    5.0970   10.7977 C   0  0  0  0  0  0  0  0  0  0  0  0
   44.2553    3.7203   11.1467 C   0  0  0  0  0  0  0  0  0  0  0  0
   44.8483    6.0774   12.6497 C   0  0  0  0  0  0  0  0  0  0  0  0
   45.4443    4.6932   12.9843 C   0  0  0  0  0  0  0  0  0  0  0  0
   44.0130    5.4696   11.7852 C   0  0  0  0  0  0  0  0  0  0  0  0
   44.2219    4.9487   13.2078 C   0  0  0  0  0  0  0  0  0  0  0  0
   44.5485    4.6108   10.6359 C   0  0  0  0  0  0  0  0  0  0  0  0
   44.6141    6.8793   11.6907 C   0  0  0  0  0  0  0  0  0  0  0  0
   43.9285    3.2445   10.5548 C   0  0  0  0  0  0  0  0  0  0  0  0
   45.6617    4.8669   13.6155 C   0  0  0  0  0  0  0  0  0  0  0  0
   43.9800    7.9155   11.8346 O   0  0  0  0  0  0  0  0  0  0  0  0
   46.2311    5.6321   14.3763 O   0  0  0  0  0  0  0  0  0  0  0  0
   43.5791    2.5237   11.4730 O   0  0  0  0  0  0  0  0  0  0  0  0
   42.5883    5.6261   11.5782 O   0  0  0  0  0  0  0  0  0  0  0  0
   45.9408    6.9128   11.4748 O   0  0  0  0  0  0  0  0  0  0  0  0
   46.3190    3.8369   13.0543 O   0  0  0  0  0  0  0  0  0  0  0  0
   43.8371    2.8056    9.2813 O   0  0  0  0  0  0  0  0  0  0  0  0
   45.8955    4.4162   11.8965 N   0  0  0  0  0  0  0  0  0  0  0  0
   43.2214    5.6812   11.6563 N   0  0  0  0  0  0  0  0  0  0  0  0
   45.3861    5.3621   12.8991 C   0  0  0  0  0  0  0  0  0  0  0  0
   44.3532    6.3544   12.3214 C   0  0  0  0  0  0  0  0  0  0  0  0
   44.7822    3.7629   11.1947 C   0  0  0  0  0  0  0  0  0  0  0  0
   43.7565    4.7688   10.6280 C   0  0  0  0  0  0  0  0  0  0  0  0
   43.2058    5.6731   11.7976 N   0  0  0  0  0  0  0  0  0  0  0  0
   45.9018    4.4321   11.7670 N   0  0  0  0  0  0  0  0  0  0  0  0
   43.6741    4.8347   10.6781 C   0  0  0  0  0  0  0  0  0  0  0  0
   44.7475    3.8097   11.1041 C   0  0  0  0  0  0  0  0  0  0  0  0
   44.3765    6.3170   12.4224 C   0  0  0  0  0  0  0  0  0  0  0  0
   45.4558    5.3043   12.8622 C   0  0  0  0  0  0  0  0  0  0  0  0
   44.3130    4.4935   11.2720 H   0  0  0  0  0  0  0  0  0  0  0  0
   45.0205    5.1284   12.4673 H   0  0  0  0  0  0  0  0  0  0  0  0
   44.2689    4.1899    9.8526 H   0  0  0  0  0  0  0  0  0  0  0  0
   42.6213    4.2778   10.4435 H   0  0  0  0  0  0  0  0  0  0  0  0
   46.1910    4.7780   11.5721 H   0  0  0  0  0  0  0  0  0  0  0  0
   45.4540    4.0729   13.0415 H   0  0  0  0  0  0  0  0  0  0  0  0
   42.4197    5.7859   12.6831 H   0  0  0  0  0  0  0  0  0  0  0  0
   44.7761    7.7087    9.9256 H   0  0  0  0  0  0  0  0  0  0  0  0
   44.8933    1.2936   11.5542 H   0  0  0  0  0  0  0  0  0  0  0  0
   47.3487    6.6031   14.3346 H   0  0  0  0  0  0  0  0  0  0  0  0
   43.2658    6.9195   11.6557 H   0  0  0  0  0  0  0  0  0  0  0  0
   46.2121    4.2763   11.1474 H   0  0  0  0  0  0  0  0  0  0  0  0
   44.2545    5.5771   10.0184 H   0  0  0  0  0  0  0  0  0  0  0  0
   42.6454    4.9517   10.3823 H   0  0  0  0  0  0  0  0  0  0  0  0
   44.3660    3.1313   10.2292 H   0  0  0  0  0  0  0  0  0  0  0  0
   43.5701    3.1634   11.7982 H   0  0  0  0  0  0  0  0  0  0  0  0
   45.5557    6.6384   12.0262 H   0  0  0  0  0  0  0  0  0  0  0  0
   44.7178    6.6456   13.5769 H   0  0  0  0  0  0  0  0  0  0  0  0
   46.4361    4.8258   13.4305 H   0  0  0  0  0  0  0  0  0  0  0  0
   44.8247    4.1913   13.7378 H   0  0  0  0  0  0  0  0  0  0  0  0
   43.7247    5.6213   13.9213 H   0  0  0  0  0  0  0  0  0  0  0  0
   43.7415    3.9815   13.3827 H   0  0  0  0  0  0  0  0  0  0  0  0
   45.6348    4.4824   10.6766 H   0  0  0  0  0  0  0  0  0  0  0  0
   44.3218    5.1244    9.6909 H   0  0  0  0  0  0  0  0  0  0  0  0
   42.3288    6.4780   11.9848 H   0  0  0  0  0  0  0  0  0  0  0  0
   46.1727    7.8666   11.4977 H   0  0  0  0  0  0  0  0  0  0  0  0
   47.2237    3.8902   13.4271 H   0  0  0  0  0  0  0  0  0  0  0  0
   43.4266    1.9195    9.3676 H   0  0  0  0  0  0  0  0  0  0  0  0
   46.4748    3.7126   12.3513 H   0  0  0  0  0  0  0  0  0  0  0  0
   42.7384    5.1173   12.3550 H   0  0  0  0  0  0  0  0  0  0  0  0
   46.2297    5.9237   13.3149 H   0  0  0  0  0  0  0  0  0  0  0  0
   44.9323    4.8033   13.7273 H   0  0  0  0  0  0  0  0  0  0  0  0
   44.8417    7.0312   11.6089 H   0  0  0  0  0  0  0  0  0  0  0  0
   43.9609    6.9796   13.1315 H   0  0  0  0  0  0  0  0  0  0  0  0
   44.2762    3.0719   11.8810 H   0  0  0  0  0  0  0  0  0  0  0  0
   45.1871    3.1622   10.3730 H   0  0  0  0  0  0  0  0  0  0  0  0
   42.9214    4.2182   10.1805 H   0  0  0  0  0  0  0  0  0  0  0  0
   44.2140    5.3573    9.8226 H   0  0  0  0  0  0  0  0  0  0  0  0
   42.7780    5.0600   12.4904 H   0  0  0  0  0  0  0  0  0  0  0  0
   46.5191    3.7090   12.1324 H   0  0  0  0  0  0  0  0  0  0  0  0
   42.8142    4.3021   10.2562 H   0  0  0  0  0  0  0  0  0  0  0  0
   44.0670    5.4786    9.8815 H   0  0  0  0  0  0  0  0  0  0  0  0
   45.0989    3.2686   10.2189 H   0  0  0  0  0  0  0  0  0  0  0  0
   44.2984    3.0685   11.7771 H   0  0  0  0  0  0  0  0  0  0  0  0
   44.0380    6.8851   13.2962 H   0  0  0  0  0  0  0  0  0  0  0  0
   44.8078    7.0434   11.7224 H   0  0  0  0  0  0  0  0  0  0  0  0
   46.3221    5.8495   13.2531 H   0  0  0  0  0  0  0  0  0  0  0  0
   45.0665    4.6873   13.6820 H   0  0  0  0  0  0  0  0  0  0  0  0
  3  2  1  0
  4  2  1  0
  5  2  1  0
  6  4  1  0
  7  3  1  0
  8  5  2  0
  9  7  2  0
 10  6  2  0
 11  2  1  0
 12  5  1  0
 13  7  1  0
 14  6  1  0
 16 20  1  0
 17 15  1  0
 18 17  1  0
 19 15  1  0
 20 19  1  0
 16 18  1  0
 22 21  1  0
 23 21  1  0
 24 21  1  0
 25 23  1  0
 26 22  1  0
 27 24  2  0
 28 26  2  0
 29 25  2  0
 30 21  1  0
 31 24  1  0
 32 26  1  0
 33 25  1  0
 35 39  1  0
 36 34  1  0
 37 36  1  0
 38 34  1  0
 39 38  1  0
 35 37  1  0
 41 45  1  0
 42 40  1  0
 43 42  1  0
 44 40  1  0
 45 44  1  0
 41 43  1  0
  1 46  1  0
  1 47  1  0
  3 48  1  0
  3 49  1  0
  4 50  1  0
  4 51  1  0
 11 52  1  0
 12 53  1  0
 13 54  1  0
 14 55  1  0
 15 56  1  0
 16 57  1  0
 17 58  1  0
 17 59  1  0
 18 60  1  0
 18 61  1  0
 19 62  1  0
 19 63  1  0
 20 64  1  0
 20 65  1  0
 22 66  1  0
 22 67  1  0
 23 68  1  0
 23 69  1  0
 30 70  1  0
 31 71  1  0
 32 72  1  0
 33 73  1  0
 34 74  1  0
 35 75  1  0
 36 76  1  0
 36 77  1  0
 37 78  1  0
 37 79  1  0
 38 80  1  0
 38 81  1  0
 39 82  1  0
 39 83  1  0
 40 84  1  0
 41 85  1  0
 42 86  1  0
 42 87  1  0
 43 88  1  0
 43 89  1  0
 44 90  1  0
 44 91  1  0
 45 92  1  0
 45 93  1  0
M  END
> <Uni-Dock RESULT> 
ENERGY=   -8.418  LOWER_BOUND=    1.059  UPPER_BOUND=    3.602
INTER + INTRA:          -8.418
INTER:                  -8.418
INTRA:                   0.000
UNBOUND:                 0.000

$$$$
