
     RDKit          3D

 93 90  0  0  0  0  0  0  0  0999 V2000
   44.2971    3.6944   11.0903 O   0  0  0  0  0  0  0  0  0  0  0  0
   44.1367    3.6657   10.9865 C   0  0  0  0  0  0  0  0  0  0  0  0
   45.3290    2.9271   10.3606 C   0  0  0  0  0  0  0  0  0  0  0  0
   44.0577    5.1467   10.5911 C   0  0  0  0  0  0  0  0  0  0  0  0
   44.3495    3.5656   12.5100 C   0  0  0  0  0  0  0  0  0  0  0  0
   43.1086    5.9130   11.4704 C   0  0  0  0  0  0  0  0  0  0  0  0
   45.3517    2.9525    8.8583 C   0  0  0  0  0  0  0  0  0  0  0  0
   45.2571    4.0821   13.1417 O   0  0  0  0  0  0  0  0  0  0  0  0
   45.0408    3.8753    8.1245 O   0  0  0  0  0  0  0  0  0  0  0  0
   42.1145    5.4679   12.0203 O   0  0  0  0  0  0  0  0  0  0  0  0
   42.9455    2.9876   10.5711 O   0  0  0  0  0  0  0  0  0  0  0  0
   43.4029    2.8390   13.1378 O   0  0  0  0  0  0  0  0  0  0  0  0
   45.8722    1.8226    8.3375 O   0  0  0  0  0  0  0  0  0  0  0  0
   43.4384    7.2121   11.5764 O   0  0  0  0  0  0  0  0  0  0  0  0
   44.8807    5.3901   10.7371 N   0  0  0  0  0  0  0  0  0  0  0  0
   43.7386    2.6576   10.9832 N   0  0  0  0  0  0  0  0  0  0  0  0
   43.9636    5.0159   11.8286 C   0  0  0  0  0  0  0  0  0  0  0  0
   44.0020    3.5079   12.1573 C   0  0  0  0  0  0  0  0  0  0  0  0
   44.6157    4.5401    9.5629 C   0  0  0  0  0  0  0  0  0  0  0  0
   44.6534    3.0321    9.8918 C   0  0  0  0  0  0  0  0  0  0  0  0
   44.8636    4.1650   11.0208 C   0  0  0  0  0  0  0  0  0  0  0  0
   43.7219    5.1352   10.6913 C   0  0  0  0  0  0  0  0  0  0  0  0
   45.5648    3.6371    9.7659 C   0  0  0  0  0  0  0  0  0  0  0  0
   44.3179    2.9782   11.8368 C   0  0  0  0  0  0  0  0  0  0  0  0
   44.7581    2.6429    8.9845 C   0  0  0  0  0  0  0  0  0  0  0  0
   43.0025    5.5924   11.9335 C   0  0  0  0  0  0  0  0  0  0  0  0
   43.2835    2.3660   11.6282 O   0  0  0  0  0  0  0  0  0  0  0  0
   43.3326    5.3980   13.0922 O   0  0  0  0  0  0  0  0  0  0  0  0
   44.8420    1.4308    9.0672 O   0  0  0  0  0  0  0  0  0  0  0  0
   45.8721    4.9019   11.7348 O   0  0  0  0  0  0  0  0  0  0  0  0
   45.1084    2.6662   12.8870 O   0  0  0  0  0  0  0  0  0  0  0  0
   41.8828    6.2793   11.6433 O   0  0  0  0  0  0  0  0  0  0  0  0
   43.8783    3.2196    8.1470 O   0  0  0  0  0  0  0  0  0  0  0  0
   44.7730    5.3697   10.5545 N   0  0  0  0  0  0  0  0  0  0  0  0
   43.7236    2.6583   11.1669 N   0  0  0  0  0  0  0  0  0  0  0  0
   43.9811    5.0884   11.7646 C   0  0  0  0  0  0  0  0  0  0  0  0
   44.0847    3.6182   12.2243 C   0  0  0  0  0  0  0  0  0  0  0  0
   44.4056    4.4117    9.4967 C   0  0  0  0  0  0  0  0  0  0  0  0
   44.5131    2.9409    9.9557 C   0  0  0  0  0  0  0  0  0  0  0  0
   43.8792    5.4484   10.9994 N   0  0  0  0  0  0  0  0  0  0  0  0
   44.6125    2.5818   10.7233 N   0  0  0  0  0  0  0  0  0  0  0  0
   44.0881    4.5738   12.1670 C   0  0  0  0  0  0  0  0  0  0  0  0
   45.0416    3.3947   11.8749 C   0  0  0  0  0  0  0  0  0  0  0  0
   43.4519    4.6345    9.8469 C   0  0  0  0  0  0  0  0  0  0  0  0
   44.4036    3.4540    9.5547 C   0  0  0  0  0  0  0  0  0  0  0  0
   44.2824    3.7367   10.1222 H   0  0  0  0  0  0  0  0  0  0  0  0
   44.1594    4.6114   11.3699 H   0  0  0  0  0  0  0  0  0  0  0  0
   46.2842    3.3393   10.7071 H   0  0  0  0  0  0  0  0  0  0  0  0
   45.2925    1.8748   10.6743 H   0  0  0  0  0  0  0  0  0  0  0  0
   45.0495    5.6066   10.6741 H   0  0  0  0  0  0  0  0  0  0  0  0
   43.6869    5.2766    9.5705 H   0  0  0  0  0  0  0  0  0  0  0  0
   42.2349    3.2811   11.1801 H   0  0  0  0  0  0  0  0  0  0  0  0
   43.6409    2.8696   14.0905 H   0  0  0  0  0  0  0  0  0  0  0  0
   45.8426    1.9768    7.3679 H   0  0  0  0  0  0  0  0  0  0  0  0
   42.7365    7.6159   12.1271 H   0  0  0  0  0  0  0  0  0  0  0  0
   45.8322    5.1975   11.0524 H   0  0  0  0  0  0  0  0  0  0  0  0
   42.7872    2.8499   10.6679 H   0  0  0  0  0  0  0  0  0  0  0  0
   44.2323    5.5874   12.7234 H   0  0  0  0  0  0  0  0  0  0  0  0
   42.9424    5.3145   11.5601 H   0  0  0  0  0  0  0  0  0  0  0  0
   44.9787    3.2445   12.5827 H   0  0  0  0  0  0  0  0  0  0  0  0
   43.2531    3.2840   12.9248 H   0  0  0  0  0  0  0  0  0  0  0  0
   45.3622    4.7622    8.7921 H   0  0  0  0  0  0  0  0  0  0  0  0
   43.6375    4.8036    9.1415 H   0  0  0  0  0  0  0  0  0  0  0  0
   45.6740    2.7344   10.1613 H   0  0  0  0  0  0  0  0  0  0  0  0
   44.3854    2.4579    8.9980 H   0  0  0  0  0  0  0  0  0  0  0  0
   42.9764    4.6539   10.0502 H   0  0  0  0  0  0  0  0  0  0  0  0
   44.1122    6.0284   10.1915 H   0  0  0  0  0  0  0  0  0  0  0  0
   45.8789    4.4546    9.1032 H   0  0  0  0  0  0  0  0  0  0  0  0
   46.5018    3.1315   10.0439 H   0  0  0  0  0  0  0  0  0  0  0  0
   45.7129    4.7241   12.6885 H   0  0  0  0  0  0  0  0  0  0  0  0
   44.6471    1.9175   13.3252 H   0  0  0  0  0  0  0  0  0  0  0  0
   41.5003    6.5124   12.5138 H   0  0  0  0  0  0  0  0  0  0  0  0
   43.4145    2.4628    7.7289 H   0  0  0  0  0  0  0  0  0  0  0  0
   45.7555    5.2159   10.7852 H   0  0  0  0  0  0  0  0  0  0  0  0
   42.7401    2.8059   10.9376 H   0  0  0  0  0  0  0  0  0  0  0  0
   42.9319    5.3482   11.5773 H   0  0  0  0  0  0  0  0  0  0  0  0
   44.3266    5.7446   12.5703 H   0  0  0  0  0  0  0  0  0  0  0  0
   45.1047    3.4054   12.5683 H   0  0  0  0  0  0  0  0  0  0  0  0
   43.4239    3.4582   13.0831 H   0  0  0  0  0  0  0  0  0  0  0  0
   45.0641    4.5715    8.6353 H   0  0  0  0  0  0  0  0  0  0  0  0
   43.3826    4.6237    9.1596 H   0  0  0  0  0  0  0  0  0  0  0  0
   45.5625    2.6830   10.1445 H   0  0  0  0  0  0  0  0  0  0  0  0
   44.1682    2.2836    9.1494 H   0  0  0  0  0  0  0  0  0  0  0  0
   44.7790    5.8682   10.7638 H   0  0  0  0  0  0  0  0  0  0  0  0
   43.7123    2.1624   10.9587 H   0  0  0  0  0  0  0  0  0  0  0  0
   43.1166    4.1942   12.5068 H   0  0  0  0  0  0  0  0  0  0  0  0
   44.4963    5.1739   12.9879 H   0  0  0  0  0  0  0  0  0  0  0  0
   45.1017    2.7485   12.7581 H   0  0  0  0  0  0  0  0  0  0  0  0
   46.0556    3.7714   11.6897 H   0  0  0  0  0  0  0  0  0  0  0  0
   42.4388    4.2570   10.0325 H   0  0  0  0  0  0  0  0  0  0  0  0
   43.3939    5.2786    8.9623 H   0  0  0  0  0  0  0  0  0  0  0  0
   43.9960    2.8514    8.7352 H   0  0  0  0  0  0  0  0  0  0  0  0
   45.3737    3.8341    9.2123 H   0  0  0  0  0  0  0  0  0  0  0  0
  3  2  1  0
  4  2  1  0
  5  2  1  0
  6  4  1  0
  7  3  1  0
  8  5  2  0
  9  7  2  0
 10  6  2  0
 11  2  1  0
 12  5  1  0
 13  7  1  0
 14  6  1  0
 16 20  1  0
 17 15  1  0
 18 17  1  0
 19 15  1  0
 20 19  1  0
 16 18  1  0
 22 21  1  0
 23 21  1  0
 24 21  1  0
 25 23  1  0
 26 22  1  0
 27 24  2  0
 28 26  2  0
 29 25  2  0
 30 21  1  0
 31 24  1  0
 32 26  1  0
 33 25  1  0
 35 39  1  0
 36 34  1  0
 37 36  1  0
 38 34  1  0
 39 38  1  0
 35 37  1  0
 41 45  1  0
 42 40  1  0
 43 42  1  0
 44 40  1  0
 45 44  1  0
 41 43  1  0
  1 46  1  0
  1 47  1  0
  3 48  1  0
  3 49  1  0
  4 50  1  0
  4 51  1  0
 11 52  1  0
 12 53  1  0
 13 54  1  0
 14 55  1  0
 15 56  1  0
 16 57  1  0
 17 58  1  0
 17 59  1  0
 18 60  1  0
 18 61  1  0
 19 62  1  0
 19 63  1  0
 20 64  1  0
 20 65  1  0
 22 66  1  0
 22 67  1  0
 23 68  1  0
 23 69  1  0
 30 70  1  0
 31 71  1  0
 32 72  1  0
 33 73  1  0
 34 74  1  0
 35 75  1  0
 36 76  1  0
 36 77  1  0
 37 78  1  0
 37 79  1  0
 38 80  1  0
 38 81  1  0
 39 82  1  0
 39 83  1  0
 40 84  1  0
 41 85  1  0
 42 86  1  0
 42 87  1  0
 43 88  1  0
 43 89  1  0
 44 90  1  0
 44 91  1  0
 45 92  1  0
 45 93  1  0
M  END
> <Uni-Dock RESULT> 
ENERGY=  -10.839  LOWER_BOUND=    0.000  UPPER_BOUND=    0.000
INTER + INTRA:         -10.839
INTER:                 -10.839
INTRA:                   0.000
UNBOUND:                 0.000

$$$$

     RDKit          3D

 93 90  0  0  0  0  0  0  0  0999 V2000
   44.3920    5.3101   12.0743 O   0  0  0  0  0  0  0  0  0  0  0  0
   44.5677    5.2341   12.1005 C   0  0  0  0  0  0  0  0  0  0  0  0
   44.5569    6.7220   12.4808 C   0  0  0  0  0  0  0  0  0  0  0  0
   44.7493    4.9876   10.5964 C   0  0  0  0  0  0  0  0  0  0  0  0
   43.1906    4.6928   12.5332 C   0  0  0  0  0  0  0  0  0  0  0  0
   44.4152    3.5720   10.2148 C   0  0  0  0  0  0  0  0  0  0  0  0
   45.8012    7.4684   12.0900 C   0  0  0  0  0  0  0  0  0  0  0  0
   42.1136    5.0122   12.0559 O   0  0  0  0  0  0  0  0  0  0  0  0
   46.4616    7.3343   11.0738 O   0  0  0  0  0  0  0  0  0  0  0  0
   44.5380    2.5853   10.9220 O   0  0  0  0  0  0  0  0  0  0  0  0
   45.6344    4.6129   12.8270 O   0  0  0  0  0  0  0  0  0  0  0  0
   43.2594    3.7788   13.5220 O   0  0  0  0  0  0  0  0  0  0  0  0
   46.1086    8.4425   12.9704 O   0  0  0  0  0  0  0  0  0  0  0  0
   43.9836    3.4680    8.9457 O   0  0  0  0  0  0  0  0  0  0  0  0
   44.1597    5.5423   10.2763 N   0  0  0  0  0  0  0  0  0  0  0  0
   44.9117    5.1574   13.1255 N   0  0  0  0  0  0  0  0  0  0  0  0
   43.7784    4.3375   11.0349 C   0  0  0  0  0  0  0  0  0  0  0  0
   43.6778    4.5895   12.5548 C   0  0  0  0  0  0  0  0  0  0  0  0
   45.3945    6.1090   10.8469 C   0  0  0  0  0  0  0  0  0  0  0  0
   45.2941    6.3602   12.3669 C   0  0  0  0  0  0  0  0  0  0  0  0
   44.0895    5.6985   11.5222 C   0  0  0  0  0  0  0  0  0  0  0  0
   44.8445    4.6611   10.6815 C   0  0  0  0  0  0  0  0  0  0  0  0
   44.8388    7.0304   11.6212 C   0  0  0  0  0  0  0  0  0  0  0  0
   43.8478    5.1435   12.9384 C   0  0  0  0  0  0  0  0  0  0  0  0
   46.0497    6.9890   12.5053 C   0  0  0  0  0  0  0  0  0  0  0  0
   44.1246    3.3380   10.6500 C   0  0  0  0  0  0  0  0  0  0  0  0
   44.6496    4.5357   13.6285 O   0  0  0  0  0  0  0  0  0  0  0  0
   43.0035    3.0968   11.0675 O   0  0  0  0  0  0  0  0  0  0  0  0
   46.0929    7.3245   13.6752 O   0  0  0  0  0  0  0  0  0  0  0  0
   42.8615    6.0063   10.8386 O   0  0  0  0  0  0  0  0  0  0  0  0
   42.5893    5.3696   13.3742 O   0  0  0  0  0  0  0  0  0  0  0  0
   44.8718    2.3711   10.0871 O   0  0  0  0  0  0  0  0  0  0  0  0
   47.1430    6.5177   11.8803 O   0  0  0  0  0  0  0  0  0  0  0  0
   44.3725    5.5467   10.2677 N   0  0  0  0  0  0  0  0  0  0  0  0
   44.7656    5.0549   13.1714 N   0  0  0  0  0  0  0  0  0  0  0  0
   43.8134    4.3651   10.9473 C   0  0  0  0  0  0  0  0  0  0  0  0
   43.5635    4.5980   12.4529 C   0  0  0  0  0  0  0  0  0  0  0  0
   45.5779    5.9981   10.9852 C   0  0  0  0  0  0  0  0  0  0  0  0
   45.3265    6.2348   12.4906 C   0  0  0  0  0  0  0  0  0  0  0  0
   44.4624    4.5630   10.4323 N   0  0  0  0  0  0  0  0  0  0  0  0
   44.6768    6.0335   13.0058 N   0  0  0  0  0  0  0  0  0  0  0  0
   43.4860    4.3877   11.5222 C   0  0  0  0  0  0  0  0  0  0  0  0
   43.3788    5.6244   12.4409 C   0  0  0  0  0  0  0  0  0  0  0  0
   45.7602    4.9742   10.9975 C   0  0  0  0  0  0  0  0  0  0  0  0
   45.6543    6.2097   11.9179 C   0  0  0  0  0  0  0  0  0  0  0  0
   45.2060    5.7600   11.8019 H   0  0  0  0  0  0  0  0  0  0  0  0
   44.1117    4.8271   11.2829 H   0  0  0  0  0  0  0  0  0  0  0  0
   43.7074    7.2467   12.0276 H   0  0  0  0  0  0  0  0  0  0  0  0
   44.4495    6.8038   13.5711 H   0  0  0  0  0  0  0  0  0  0  0  0
   44.0951    5.6595   10.0285 H   0  0  0  0  0  0  0  0  0  0  0  0
   45.7845    5.1436   10.2802 H   0  0  0  0  0  0  0  0  0  0  0  0
   45.4619    3.6478   12.7981 H   0  0  0  0  0  0  0  0  0  0  0  0
   42.3306    3.5045   13.6876 H   0  0  0  0  0  0  0  0  0  0  0  0
   46.9173    8.8526   12.5926 H   0  0  0  0  0  0  0  0  0  0  0  0
   43.8412    2.5108    8.7957 H   0  0  0  0  0  0  0  0  0  0  0  0
   43.4165    6.2318   10.3961 H   0  0  0  0  0  0  0  0  0  0  0  0
   45.6549    4.4682   13.0060 H   0  0  0  0  0  0  0  0  0  0  0  0
   42.8120    3.9807   10.6633 H   0  0  0  0  0  0  0  0  0  0  0  0
   44.5055    3.5403   10.8351 H   0  0  0  0  0  0  0  0  0  0  0  0
   42.8381    5.2640   12.7653 H   0  0  0  0  0  0  0  0  0  0  0  0
   43.4597    3.6454   13.0660 H   0  0  0  0  0  0  0  0  0  0  0  0
   45.6168    7.0530   10.3369 H   0  0  0  0  0  0  0  0  0  0  0  0
   46.2316    5.4312   10.6374 H   0  0  0  0  0  0  0  0  0  0  0  0
   44.5664    7.1561   12.5662 H   0  0  0  0  0  0  0  0  0  0  0  0
   46.2597    6.7178   12.7413 H   0  0  0  0  0  0  0  0  0  0  0  0
   45.8390    4.4728   11.0986 H   0  0  0  0  0  0  0  0  0  0  0  0
   44.9413    5.0059    9.6462 H   0  0  0  0  0  0  0  0  0  0  0  0
   45.1223    7.4103   10.6305 H   0  0  0  0  0  0  0  0  0  0  0  0
   44.1751    7.8049   12.0343 H   0  0  0  0  0  0  0  0  0  0  0  0
   42.1692    5.4524   11.2633 H   0  0  0  0  0  0  0  0  0  0  0  0
   42.5630    4.9590   14.2666 H   0  0  0  0  0  0  0  0  0  0  0  0
   44.3142    1.5676   10.1306 H   0  0  0  0  0  0  0  0  0  0  0  0
   47.8371    6.5254   12.5738 H   0  0  0  0  0  0  0  0  0  0  0  0
   43.6788    6.2936   10.3252 H   0  0  0  0  0  0  0  0  0  0  0  0
   45.4593    4.3082   13.1203 H   0  0  0  0  0  0  0  0  0  0  0  0
   44.4923    3.5147   10.8085 H   0  0  0  0  0  0  0  0  0  0  0  0
   42.8700    4.0947   10.4616 H   0  0  0  0  0  0  0  0  0  0  0  0
   42.7627    5.3356   12.5889 H   0  0  0  0  0  0  0  0  0  0  0  0
   43.2140    3.6668   12.9119 H   0  0  0  0  0  0  0  0  0  0  0  0
   45.9308    6.9287   10.5261 H   0  0  0  0  0  0  0  0  0  0  0  0
   46.3746    5.2548   10.8521 H   0  0  0  0  0  0  0  0  0  0  0  0
   44.6461    7.0842   12.6280 H   0  0  0  0  0  0  0  0  0  0  0  0
   46.2703    6.5064   12.9772 H   0  0  0  0  0  0  0  0  0  0  0  0
   44.1292    5.3237    9.8393 H   0  0  0  0  0  0  0  0  0  0  0  0
   45.0103    5.2723   13.5983 H   0  0  0  0  0  0  0  0  0  0  0  0
   43.7645    3.5060   12.1124 H   0  0  0  0  0  0  0  0  0  0  0  0
   42.5040    4.1763   11.0847 H   0  0  0  0  0  0  0  0  0  0  0  0
   42.6902    5.4062   13.2651 H   0  0  0  0  0  0  0  0  0  0  0  0
   42.9486    6.4669   11.8846 H   0  0  0  0  0  0  0  0  0  0  0  0
   46.1899    4.1326   11.5547 H   0  0  0  0  0  0  0  0  0  0  0  0
   46.4493    5.1954   10.1747 H   0  0  0  0  0  0  0  0  0  0  0  0
   46.6352    6.4216   12.3582 H   0  0  0  0  0  0  0  0  0  0  0  0
   45.3787    7.0914   11.3268 H   0  0  0  0  0  0  0  0  0  0  0  0
  3  2  1  0
  4  2  1  0
  5  2  1  0
  6  4  1  0
  7  3  1  0
  8  5  2  0
  9  7  2  0
 10  6  2  0
 11  2  1  0
 12  5  1  0
 13  7  1  0
 14  6  1  0
 16 20  1  0
 17 15  1  0
 18 17  1  0
 19 15  1  0
 20 19  1  0
 16 18  1  0
 22 21  1  0
 23 21  1  0
 24 21  1  0
 25 23  1  0
 26 22  1  0
 27 24  2  0
 28 26  2  0
 29 25  2  0
 30 21  1  0
 31 24  1  0
 32 26  1  0
 33 25  1  0
 35 39  1  0
 36 34  1  0
 37 36  1  0
 38 34  1  0
 39 38  1  0
 35 37  1  0
 41 45  1  0
 42 40  1  0
 43 42  1  0
 44 40  1  0
 45 44  1  0
 41 43  1  0
  1 46  1  0
  1 47  1  0
  3 48  1  0
  3 49  1  0
  4 50  1  0
  4 51  1  0
 11 52  1  0
 12 53  1  0
 13 54  1  0
 14 55  1  0
 15 56  1  0
 16 57  1  0
 17 58  1  0
 17 59  1  0
 18 60  1  0
 18 61  1  0
 19 62  1  0
 19 63  1  0
 20 64  1  0
 20 65  1  0
 22 66  1  0
 22 67  1  0
 23 68  1  0
 23 69  1  0
 30 70  1  0
 31 71  1  0
 32 72  1  0
 33 73  1  0
 34 74  1  0
 35 75  1  0
 36 76  1  0
 36 77  1  0
 37 78  1  0
 37 79  1  0
 38 80  1  0
 38 81  1  0
 39 82  1  0
 39 83  1  0
 40 84  1  0
 41 85  1  0
 42 86  1  0
 42 87  1  0
 43 88  1  0
 43 89  1  0
 44 90  1  0
 44 91  1  0
 45 92  1  0
 45 93  1  0
M  END
> <Uni-Dock RESULT> 
ENERGY=   -9.828  LOWER_BOUND=    1.577  UPPER_BOUND=    3.587
INTER + INTRA:          -9.828
INTER:                  -9.828
INTRA:                   0.000
UNBOUND:                 0.000

$$$$

     RDKit          3D

 93 90  0  0  0  0  0  0  0  0999 V2000
   44.3059    5.5321   12.0078 O   0  0  0  0  0  0  0  0  0  0  0  0
   44.3448    5.4750   12.1882 C   0  0  0  0  0  0  0  0  0  0  0  0
   45.0897    6.7766   11.8570 C   0  0  0  0  0  0  0  0  0  0  0  0
   45.0674    4.2136   11.6958 C   0  0  0  0  0  0  0  0  0  0  0  0
   42.9872    5.5874   11.4667 C   0  0  0  0  0  0  0  0  0  0  0  0
   44.1715    3.0062   11.7231 C   0  0  0  0  0  0  0  0  0  0  0  0
   46.4802    6.8534   12.4217 C   0  0  0  0  0  0  0  0  0  0  0  0
   42.8185    5.6110   10.2581 O   0  0  0  0  0  0  0  0  0  0  0  0
   47.2975    5.9532   12.5127 O   0  0  0  0  0  0  0  0  0  0  0  0
   43.2494    2.8085   12.4973 O   0  0  0  0  0  0  0  0  0  0  0  0
   44.1871    5.4207   13.6108 O   0  0  0  0  0  0  0  0  0  0  0  0
   41.9352    5.6469   12.3080 O   0  0  0  0  0  0  0  0  0  0  0  0
   46.8227    8.1124   12.7626 O   0  0  0  0  0  0  0  0  0  0  0  0
   44.5117    2.0904   10.7994 O   0  0  0  0  0  0  0  0  0  0  0  0
   45.2472    4.4477   10.8769 N   0  0  0  0  0  0  0  0  0  0  0  0
   43.9652    6.1041   12.9851 N   0  0  0  0  0  0  0  0  0  0  0  0
   43.8706    4.2015   11.3425 C   0  0  0  0  0  0  0  0  0  0  0  0
   43.1898    5.4674   11.9061 C   0  0  0  0  0  0  0  0  0  0  0  0
   46.0222    5.0834   11.9570 C   0  0  0  0  0  0  0  0  0  0  0  0
   45.3411    6.3488   12.5211 C   0  0  0  0  0  0  0  0  0  0  0  0
   44.6642    5.4490   11.3660 C   0  0  0  0  0  0  0  0  0  0  0  0
   44.8704    4.0353   11.9246 C   0  0  0  0  0  0  0  0  0  0  0  0
   45.8907    6.3435   11.5671 C   0  0  0  0  0  0  0  0  0  0  0  0
   43.4422    6.1010   12.0398 C   0  0  0  0  0  0  0  0  0  0  0  0
   46.1035    6.7836   12.9851 C   0  0  0  0  0  0  0  0  0  0  0  0
   43.6315    3.1909   11.7767 C   0  0  0  0  0  0  0  0  0  0  0  0
   43.1598    6.0647   13.2261 O   0  0  0  0  0  0  0  0  0  0  0  0
   42.6195    3.4668   11.1529 O   0  0  0  0  0  0  0  0  0  0  0  0
   45.7388    7.8402   13.4684 O   0  0  0  0  0  0  0  0  0  0  0  0
   44.5078    5.3379    9.9401 O   0  0  0  0  0  0  0  0  0  0  0  0
   42.6394    6.7315   11.1550 O   0  0  0  0  0  0  0  0  0  0  0  0
   43.7349    2.0243   12.4386 O   0  0  0  0  0  0  0  0  0  0  0  0
   46.7530    5.8707   13.7286 O   0  0  0  0  0  0  0  0  0  0  0  0
   45.3765    4.4168   11.0433 N   0  0  0  0  0  0  0  0  0  0  0  0
   43.7924    6.0849   12.9239 N   0  0  0  0  0  0  0  0  0  0  0  0
   43.9534    4.1538   11.3193 C   0  0  0  0  0  0  0  0  0  0  0  0
   43.1821    5.4160   11.7619 C   0  0  0  0  0  0  0  0  0  0  0  0
   45.9856    5.0807   12.2094 C   0  0  0  0  0  0  0  0  0  0  0  0
   45.2161    6.3455   12.6494 C   0  0  0  0  0  0  0  0  0  0  0  0
   44.7171    3.8406   11.5292 N   0  0  0  0  0  0  0  0  0  0  0  0
   44.4496    6.6566   12.4402 N   0  0  0  0  0  0  0  0  0  0  0  0
   43.4836    4.6202   11.3232 C   0  0  0  0  0  0  0  0  0  0  0  0
   43.7356    6.1424   11.2582 C   0  0  0  0  0  0  0  0  0  0  0  0
   45.4322    4.3565   12.7105 C   0  0  0  0  0  0  0  0  0  0  0  0
   45.6835    5.8789   12.6477 C   0  0  0  0  0  0  0  0  0  0  0  0
   45.1998    5.5439   12.3822 H   0  0  0  0  0  0  0  0  0  0  0  0
   44.2456    4.6729   11.5649 H   0  0  0  0  0  0  0  0  0  0  0  0
   45.1698    6.9297   10.7742 H   0  0  0  0  0  0  0  0  0  0  0  0
   44.5181    7.6209   12.2665 H   0  0  0  0  0  0  0  0  0  0  0  0
   45.4125    4.3615   10.6658 H   0  0  0  0  0  0  0  0  0  0  0  0
   45.9237    3.9617   12.3278 H   0  0  0  0  0  0  0  0  0  0  0  0
   43.4888    4.7544   13.7852 H   0  0  0  0  0  0  0  0  0  0  0  0
   41.1424    5.6961   11.7299 H   0  0  0  0  0  0  0  0  0  0  0  0
   47.7425    8.0225   13.0955 H   0  0  0  0  0  0  0  0  0  0  0  0
   43.8981    1.3397   10.9372 H   0  0  0  0  0  0  0  0  0  0  0  0
   45.1978    5.1075   10.0995 H   0  0  0  0  0  0  0  0  0  0  0  0
   44.0145    5.4447   13.7626 H   0  0  0  0  0  0  0  0  0  0  0  0
   43.2805    3.8173   10.5037 H   0  0  0  0  0  0  0  0  0  0  0  0
   43.8833    3.4125   12.1050 H   0  0  0  0  0  0  0  0  0  0  0  0
   43.0288    6.1938   11.0994 H   0  0  0  0  0  0  0  0  0  0  0  0
   42.2003    5.2048   12.2961 H   0  0  0  0  0  0  0  0  0  0  0  0
   47.0135    5.3462   11.5711 H   0  0  0  0  0  0  0  0  0  0  0  0
   46.1791    4.3558   12.7633 H   0  0  0  0  0  0  0  0  0  0  0  0
   45.3274    7.1367   11.7583 H   0  0  0  0  0  0  0  0  0  0  0  0
   45.9298    6.7357   13.3603 H   0  0  0  0  0  0  0  0  0  0  0  0
   45.1062    4.0707   12.9930 H   0  0  0  0  0  0  0  0  0  0  0  0
   45.6790    3.5270   11.3881 H   0  0  0  0  0  0  0  0  0  0  0  0
   46.8058    5.8666   11.1910 H   0  0  0  0  0  0  0  0  0  0  0  0
   45.7900    7.2598   10.9660 H   0  0  0  0  0  0  0  0  0  0  0  0
   43.5391    5.3462    9.7726 H   0  0  0  0  0  0  0  0  0  0  0  0
   41.9031    7.0836   11.7021 H   0  0  0  0  0  0  0  0  0  0  0  0
   42.8812    1.5717   12.2817 H   0  0  0  0  0  0  0  0  0  0  0  0
   46.7987    6.2772   14.6204 H   0  0  0  0  0  0  0  0  0  0  0  0
   45.4241    5.0657   10.2565 H   0  0  0  0  0  0  0  0  0  0  0  0
   43.7416    5.4406   13.7137 H   0  0  0  0  0  0  0  0  0  0  0  0
   43.8731    3.3776   12.0902 H   0  0  0  0  0  0  0  0  0  0  0  0
   43.4903    3.7455   10.4149 H   0  0  0  0  0  0  0  0  0  0  0  0
   43.1220    6.1281   10.9292 H   0  0  0  0  0  0  0  0  0  0  0  0
   42.1523    5.1425   12.0161 H   0  0  0  0  0  0  0  0  0  0  0  0
   47.0170    5.3532   11.9581 H   0  0  0  0  0  0  0  0  0  0  0  0
   46.0383    4.3673   13.0420 H   0  0  0  0  0  0  0  0  0  0  0  0
   45.2955    7.1203   11.8769 H   0  0  0  0  0  0  0  0  0  0  0  0
   45.6796    6.7553   13.5541 H   0  0  0  0  0  0  0  0  0  0  0  0
   45.3158    3.9904   10.7164 H   0  0  0  0  0  0  0  0  0  0  0  0
   43.8512    6.5061   13.2531 H   0  0  0  0  0  0  0  0  0  0  0  0
   42.7780    4.3919   12.1315 H   0  0  0  0  0  0  0  0  0  0  0  0
   43.0111    4.2920   10.3907 H   0  0  0  0  0  0  0  0  0  0  0  0
   42.7768    6.6662   11.1717 H   0  0  0  0  0  0  0  0  0  0  0  0
   44.3117    6.3875   10.3568 H   0  0  0  0  0  0  0  0  0  0  0  0
   44.8559    4.1127   13.6115 H   0  0  0  0  0  0  0  0  0  0  0  0
   46.3925    3.8358   12.7969 H   0  0  0  0  0  0  0  0  0  0  0  0
   46.1542    6.2096   13.5803 H   0  0  0  0  0  0  0  0  0  0  0  0
   46.3911    6.1063   11.8413 H   0  0  0  0  0  0  0  0  0  0  0  0
  3  2  1  0
  4  2  1  0
  5  2  1  0
  6  4  1  0
  7  3  1  0
  8  5  2  0
  9  7  2  0
 10  6  2  0
 11  2  1  0
 12  5  1  0
 13  7  1  0
 14  6  1  0
 16 20  1  0
 17 15  1  0
 18 17  1  0
 19 15  1  0
 20 19  1  0
 16 18  1  0
 22 21  1  0
 23 21  1  0
 24 21  1  0
 25 23  1  0
 26 22  1  0
 27 24  2  0
 28 26  2  0
 29 25  2  0
 30 21  1  0
 31 24  1  0
 32 26  1  0
 33 25  1  0
 35 39  1  0
 36 34  1  0
 37 36  1  0
 38 34  1  0
 39 38  1  0
 35 37  1  0
 41 45  1  0
 42 40  1  0
 43 42  1  0
 44 40  1  0
 45 44  1  0
 41 43  1  0
  1 46  1  0
  1 47  1  0
  3 48  1  0
  3 49  1  0
  4 50  1  0
  4 51  1  0
 11 52  1  0
 12 53  1  0
 13 54  1  0
 14 55  1  0
 15 56  1  0
 16 57  1  0
 17 58  1  0
 17 59  1  0
 18 60  1  0
 18 61  1  0
 19 62  1  0
 19 63  1  0
 20 64  1  0
 20 65  1  0
 22 66  1  0
 22 67  1  0
 23 68  1  0
 23 69  1  0
 30 70  1  0
 31 71  1  0
 32 72  1  0
 33 73  1  0
 34 74  1  0
 35 75  1  0
 36 76  1  0
 36 77  1  0
 37 78  1  0
 37 79  1  0
 38 80  1  0
 38 81  1  0
 39 82  1  0
 39 83  1  0
 40 84  1  0
 41 85  1  0
 42 86  1  0
 42 87  1  0
 43 88  1  0
 43 89  1  0
 44 90  1  0
 44 91  1  0
 45 92  1  0
 45 93  1  0
M  END
> <Uni-Dock RESULT> 
ENERGY=   -8.706  LOWER_BOUND=    1.621  UPPER_BOUND=    3.832
INTER + INTRA:          -8.706
INTER:                  -8.706
INTRA:                   0.000
UNBOUND:                 0.000

$$$$

     RDKit          3D

 93 90  0  0  0  0  0  0  0  0999 V2000
   43.8609    5.0568   11.7535 O   0  0  0  0  0  0  0  0  0  0  0  0
   43.9932    5.0119   11.6201 C   0  0  0  0  0  0  0  0  0  0  0  0
   43.1664    3.7756   12.0028 C   0  0  0  0  0  0  0  0  0  0  0  0
   45.1502    5.2983   12.5871 C   0  0  0  0  0  0  0  0  0  0  0  0
   43.0033    6.1930   11.6611 C   0  0  0  0  0  0  0  0  0  0  0  0
   45.7162    6.6779   12.3930 C   0  0  0  0  0  0  0  0  0  0  0  0
   43.9600    2.5020   12.0817 C   0  0  0  0  0  0  0  0  0  0  0  0
   42.4468    6.6265   12.6571 O   0  0  0  0  0  0  0  0  0  0  0  0
   45.0930    2.3560   12.5081 O   0  0  0  0  0  0  0  0  0  0  0  0
   45.7448    7.3062   11.3474 O   0  0  0  0  0  0  0  0  0  0  0  0
   44.5055    4.7942   10.3003 O   0  0  0  0  0  0  0  0  0  0  0  0
   42.7913    6.7580   10.4554 O   0  0  0  0  0  0  0  0  0  0  0  0
   43.2378    1.4275   11.7040 O   0  0  0  0  0  0  0  0  0  0  0  0
   46.2559    7.1772   13.5186 O   0  0  0  0  0  0  0  0  0  0  0  0
   44.7336    5.2386   13.3491 N   0  0  0  0  0  0  0  0  0  0  0  0
   43.6171    4.7402   10.6405 N   0  0  0  0  0  0  0  0  0  0  0  0
   44.4743    6.3291   12.3920 C   0  0  0  0  0  0  0  0  0  0  0  0
   43.3600    5.9890   11.3789 C   0  0  0  0  0  0  0  0  0  0  0  0
   44.9918    3.9903   12.6098 C   0  0  0  0  0  0  0  0  0  0  0  0
   43.8779    3.6507   11.5962 C   0  0  0  0  0  0  0  0  0  0  0  0
   43.8483    4.9931   12.4904 C   0  0  0  0  0  0  0  0  0  0  0  0
   45.2895    5.4937   12.3315 C   0  0  0  0  0  0  0  0  0  0  0  0
   43.7723    3.4751   12.6780 C   0  0  0  0  0  0  0  0  0  0  0  0
   43.0191    5.3959   11.2565 C   0  0  0  0  0  0  0  0  0  0  0  0
   44.0570    2.6879   11.4335 C   0  0  0  0  0  0  0  0  0  0  0  0
   45.3398    6.9787   12.0825 C   0  0  0  0  0  0  0  0  0  0  0  0
   43.3695    5.3266   10.0900 O   0  0  0  0  0  0  0  0  0  0  0  0
   44.4152    7.7718   12.1555 O   0  0  0  0  0  0  0  0  0  0  0  0
   43.2255    2.2423   10.6632 O   0  0  0  0  0  0  0  0  0  0  0  0
   43.3228    5.5506   13.7081 O   0  0  0  0  0  0  0  0  0  0  0  0
   41.8070    5.8920   11.5880 O   0  0  0  0  0  0  0  0  0  0  0  0
   46.5750    7.3914   11.7446 O   0  0  0  0  0  0  0  0  0  0  0  0
   45.3710    2.5093   11.2116 O   0  0  0  0  0  0  0  0  0  0  0  0
   44.8813    5.1122   13.2621 N   0  0  0  0  0  0  0  0  0  0  0  0
   43.5296    4.9017   10.6245 N   0  0  0  0  0  0  0  0  0  0  0  0
   44.5418    6.2979   12.4563 C   0  0  0  0  0  0  0  0  0  0  0  0
   43.3429    6.0620   11.5126 C   0  0  0  0  0  0  0  0  0  0  0  0
   45.0731    3.9544   12.3708 C   0  0  0  0  0  0  0  0  0  0  0  0
   43.8719    3.7164   11.4296 C   0  0  0  0  0  0  0  0  0  0  0  0
   45.2246    5.8274   12.6511 N   0  0  0  0  0  0  0  0  0  0  0  0
   43.1898    4.1900   11.2335 N   0  0  0  0  0  0  0  0  0  0  0  0
   43.9529    6.3963   12.1703 C   0  0  0  0  0  0  0  0  0  0  0  0
   42.8236    5.3480   12.0678 C   0  0  0  0  0  0  0  0  0  0  0  0
   45.5897    4.6677   11.8175 C   0  0  0  0  0  0  0  0  0  0  0  0
   44.4606    3.6194   11.7127 C   0  0  0  0  0  0  0  0  0  0  0  0
   44.4055    4.2565   11.8007 H   0  0  0  0  0  0  0  0  0  0  0  0
   44.3536    5.7099   12.2718 H   0  0  0  0  0  0  0  0  0  0  0  0
   42.6685    3.9087   12.9707 H   0  0  0  0  0  0  0  0  0  0  0  0
   42.3819    3.6315   11.2472 H   0  0  0  0  0  0  0  0  0  0  0  0
   44.7985    5.2143   13.6221 H   0  0  0  0  0  0  0  0  0  0  0  0
   45.9870    4.6106   12.4362 H   0  0  0  0  0  0  0  0  0  0  0  0
   44.7846    5.6726    9.9648 H   0  0  0  0  0  0  0  0  0  0  0  0
   42.1667    7.4981   10.6213 H   0  0  0  0  0  0  0  0  0  0  0  0
   43.8602    0.6760   11.8169 H   0  0  0  0  0  0  0  0  0  0  0  0
   46.6278    8.0473   13.2666 H   0  0  0  0  0  0  0  0  0  0  0  0
   43.8860    5.1034   13.9017 H   0  0  0  0  0  0  0  0  0  0  0  0
   44.4644    4.8752   10.0878 H   0  0  0  0  0  0  0  0  0  0  0  0
   44.1915    7.2268   12.9519 H   0  0  0  0  0  0  0  0  0  0  0  0
   45.4030    6.5704   11.8598 H   0  0  0  0  0  0  0  0  0  0  0  0
   42.3964    5.9104   11.8981 H   0  0  0  0  0  0  0  0  0  0  0  0
   43.2633    6.8072   10.6569 H   0  0  0  0  0  0  0  0  0  0  0  0
   45.0907    3.1695   13.3290 H   0  0  0  0  0  0  0  0  0  0  0  0
   45.9543    4.0730   12.0895 H   0  0  0  0  0  0  0  0  0  0  0  0
   42.9496    3.4108   12.1285 H   0  0  0  0  0  0  0  0  0  0  0  0
   44.1581    2.7525   11.0349 H   0  0  0  0  0  0  0  0  0  0  0  0
   45.7763    5.0109   11.4780 H   0  0  0  0  0  0  0  0  0  0  0  0
   45.8654    5.2946   13.2418 H   0  0  0  0  0  0  0  0  0  0  0  0
   44.4330    3.1333   13.4860 H   0  0  0  0  0  0  0  0  0  0  0  0
   42.7624    3.1875   13.0071 H   0  0  0  0  0  0  0  0  0  0  0  0
   42.8063    6.3437   13.4419 H   0  0  0  0  0  0  0  0  0  0  0  0
   41.3937    6.1211   10.7265 H   0  0  0  0  0  0  0  0  0  0  0  0
   46.4850    8.3553   11.5992 H   0  0  0  0  0  0  0  0  0  0  0  0
   45.4055    2.0088   10.3684 H   0  0  0  0  0  0  0  0  0  0  0  0
   44.0835    4.9101   13.8663 H   0  0  0  0  0  0  0  0  0  0  0  0
   44.3235    5.1027   10.0154 H   0  0  0  0  0  0  0  0  0  0  0  0
   45.4207    6.6021   11.8747 H   0  0  0  0  0  0  0  0  0  0  0  0
   44.3119    7.1277   13.1328 H   0  0  0  0  0  0  0  0  0  0  0  0
   42.4273    5.9198   12.1003 H   0  0  0  0  0  0  0  0  0  0  0  0
   43.1847    6.9533   10.8957 H   0  0  0  0  0  0  0  0  0  0  0  0
   45.2339    3.0617   12.9859 H   0  0  0  0  0  0  0  0  0  0  0  0
   45.9864    4.1033   11.7802 H   0  0  0  0  0  0  0  0  0  0  0  0
   42.9932    3.4140   12.0126 H   0  0  0  0  0  0  0  0  0  0  0  0
   44.1009    2.8853   10.7528 H   0  0  0  0  0  0  0  0  0  0  0  0
   45.0710    5.4882   13.6012 H   0  0  0  0  0  0  0  0  0  0  0  0
   43.3441    4.5294   10.2834 H   0  0  0  0  0  0  0  0  0  0  0  0
   44.1187    6.8647   11.1923 H   0  0  0  0  0  0  0  0  0  0  0  0
   43.6437    7.1950   12.8537 H   0  0  0  0  0  0  0  0  0  0  0  0
   41.9290    5.8180   11.6433 H   0  0  0  0  0  0  0  0  0  0  0  0
   42.5493    4.9952   13.0702 H   0  0  0  0  0  0  0  0  0  0  0  0
   45.8627    5.0202   10.8152 H   0  0  0  0  0  0  0  0  0  0  0  0
   46.4824    4.1950   12.2421 H   0  0  0  0  0  0  0  0  0  0  0  0
   44.7671    2.8206   11.0280 H   0  0  0  0  0  0  0  0  0  0  0  0
   44.2973    3.1495   12.6900 H   0  0  0  0  0  0  0  0  0  0  0  0
  3  2  1  0
  4  2  1  0
  5  2  1  0
  6  4  1  0
  7  3  1  0
  8  5  2  0
  9  7  2  0
 10  6  2  0
 11  2  1  0
 12  5  1  0
 13  7  1  0
 14  6  1  0
 16 20  1  0
 17 15  1  0
 18 17  1  0
 19 15  1  0
 20 19  1  0
 16 18  1  0
 22 21  1  0
 23 21  1  0
 24 21  1  0
 25 23  1  0
 26 22  1  0
 27 24  2  0
 28 26  2  0
 29 25  2  0
 30 21  1  0
 31 24  1  0
 32 26  1  0
 33 25  1  0
 35 39  1  0
 36 34  1  0
 37 36  1  0
 38 34  1  0
 39 38  1  0
 35 37  1  0
 41 45  1  0
 42 40  1  0
 43 42  1  0
 44 40  1  0
 45 44  1  0
 41 43  1  0
  1 46  1  0
  1 47  1  0
  3 48  1  0
  3 49  1  0
  4 50  1  0
  4 51  1  0
 11 52  1  0
 12 53  1  0
 13 54  1  0
 14 55  1  0
 15 56  1  0
 16 57  1  0
 17 58  1  0
 17 59  1  0
 18 60  1  0
 18 61  1  0
 19 62  1  0
 19 63  1  0
 20 64  1  0
 20 65  1  0
 22 66  1  0
 22 67  1  0
 23 68  1  0
 23 69  1  0
 30 70  1  0
 31 71  1  0
 32 72  1  0
 33 73  1  0
 34 74  1  0
 35 75  1  0
 36 76  1  0
 36 77  1  0
 37 78  1  0
 37 79  1  0
 38 80  1  0
 38 81  1  0
 39 82  1  0
 39 83  1  0
 40 84  1  0
 41 85  1  0
 42 86  1  0
 42 87  1  0
 43 88  1  0
 43 89  1  0
 44 90  1  0
 44 91  1  0
 45 92  1  0
 45 93  1  0
M  END
> <Uni-Dock RESULT> 
ENERGY=   -8.401  LOWER_BOUND=    1.558  UPPER_BOUND=    2.982
INTER + INTRA:          -8.401
INTER:                  -8.401
INTRA:                   0.000
UNBOUND:                 0.000

$$$$

     RDKit          3D

 93 90  0  0  0  0  0  0  0  0999 V2000
   44.0315    4.6970   11.3839 O   0  0  0  0  0  0  0  0  0  0  0  0
   44.1747    4.7633   11.2724 C   0  0  0  0  0  0  0  0  0  0  0  0
   43.4929    3.5525   10.6185 C   0  0  0  0  0  0  0  0  0  0  0  0
   45.2388    4.3804   12.3102 C   0  0  0  0  0  0  0  0  0  0  0  0
   43.0431    5.5363   11.9784 C   0  0  0  0  0  0  0  0  0  0  0  0
   45.6351    5.5512   13.1666 C   0  0  0  0  0  0  0  0  0  0  0  0
   44.4359    2.6186    9.9138 C   0  0  0  0  0  0  0  0  0  0  0  0
   42.3894    5.1387   12.9293 O   0  0  0  0  0  0  0  0  0  0  0  0
   45.5565    2.2886   10.2632 O   0  0  0  0  0  0  0  0  0  0  0  0
   45.6343    6.7244   12.8312 O   0  0  0  0  0  0  0  0  0  0  0  0
   44.7729    5.5365   10.2255 O   0  0  0  0  0  0  0  0  0  0  0  0
   42.8195    6.7584   11.4545 O   0  0  0  0  0  0  0  0  0  0  0  0
   43.8738    2.0511    8.8272 O   0  0  0  0  0  0  0  0  0  0  0  0
   46.0531    5.1783   14.3888 O   0  0  0  0  0  0  0  0  0  0  0  0
   44.7971    3.7918   12.7751 N   0  0  0  0  0  0  0  0  0  0  0  0
   43.8832    5.2120   10.3297 N   0  0  0  0  0  0  0  0  0  0  0  0
   44.4486    5.2239   12.7808 C   0  0  0  0  0  0  0  0  0  0  0  0
   43.4357    5.6017   11.6784 C   0  0  0  0  0  0  0  0  0  0  0  0
   45.2455    3.4031   11.4263 C   0  0  0  0  0  0  0  0  0  0  0  0
   44.2331    3.7816   10.3239 C   0  0  0  0  0  0  0  0  0  0  0  0
   43.9918    4.1467   11.8766 C   0  0  0  0  0  0  0  0  0  0  0  0
   45.3644    4.7056   12.2723 C   0  0  0  0  0  0  0  0  0  0  0  0
   44.0988    2.9087   10.9815 C   0  0  0  0  0  0  0  0  0  0  0  0
   43.1785    5.2331   11.1484 C   0  0  0  0  0  0  0  0  0  0  0  0
   44.5396    3.2023    9.5782 C   0  0  0  0  0  0  0  0  0  0  0  0
   45.2392    5.9598   13.0974 C   0  0  0  0  0  0  0  0  0  0  0  0
   43.5903    6.0001   10.2936 O   0  0  0  0  0  0  0  0  0  0  0  0
   44.2195    6.4324   13.5732 O   0  0  0  0  0  0  0  0  0  0  0  0
   43.8087    3.3543    8.6160 O   0  0  0  0  0  0  0  0  0  0  0  0
   43.3426    3.6898   13.0765 O   0  0  0  0  0  0  0  0  0  0  0  0
   41.8991    5.2958   11.5777 O   0  0  0  0  0  0  0  0  0  0  0  0
   46.4272    6.5646   13.2785 O   0  0  0  0  0  0  0  0  0  0  0  0
   45.8748    3.3021    9.4550 O   0  0  0  0  0  0  0  0  0  0  0  0
   44.9635    3.7679   12.6443 N   0  0  0  0  0  0  0  0  0  0  0  0
   43.7769    5.3352   10.4163 N   0  0  0  0  0  0  0  0  0  0  0  0
   44.5163    5.1614   12.8147 C   0  0  0  0  0  0  0  0  0  0  0  0
   43.4032    5.5626   11.8229 C   0  0  0  0  0  0  0  0  0  0  0  0
   45.3421    3.5450   11.2377 C   0  0  0  0  0  0  0  0  0  0  0  0
   44.2268    3.9428   10.2460 C   0  0  0  0  0  0  0  0  0  0  0  0
   45.2428    4.7264   12.7223 N   0  0  0  0  0  0  0  0  0  0  0  0
   43.5006    4.3809   10.3397 N   0  0  0  0  0  0  0  0  0  0  0  0
   43.9341    5.3932   12.6014 C   0  0  0  0  0  0  0  0  0  0  0  0
   42.9520    4.6326   11.6839 C   0  0  0  0  0  0  0  0  0  0  0  0
   45.7906    4.4730   11.3774 C   0  0  0  0  0  0  0  0  0  0  0  0
   44.8088    3.7140   10.4582 C   0  0  0  0  0  0  0  0  0  0  0  0
   44.6698    4.1145   10.9449 H   0  0  0  0  0  0  0  0  0  0  0  0
   44.4127    4.8480   12.2614 H   0  0  0  0  0  0  0  0  0  0  0  0
   42.9364    2.9588   11.3535 H   0  0  0  0  0  0  0  0  0  0  0  0
   42.7699    3.9168    9.8757 H   0  0  0  0  0  0  0  0  0  0  0  0
   44.8514    3.5916   12.9656 H   0  0  0  0  0  0  0  0  0  0  0  0
   46.1618    4.0326   11.8379 H   0  0  0  0  0  0  0  0  0  0  0  0
   44.9549    6.4218   10.6065 H   0  0  0  0  0  0  0  0  0  0  0  0
   42.0995    7.1468   11.9986 H   0  0  0  0  0  0  0  0  0  0  0  0
   44.5797    1.4639    8.4785 H   0  0  0  0  0  0  0  0  0  0  0  0
   46.3240    6.0062   14.8363 H   0  0  0  0  0  0  0  0  0  0  0  0
   43.9478    3.2656   12.9843 H   0  0  0  0  0  0  0  0  0  0  0  0
   44.7322    5.7381   10.1202 H   0  0  0  0  0  0  0  0  0  0  0  0
   44.0284    5.4784   13.7595 H   0  0  0  0  0  0  0  0  0  0  0  0
   45.3639    5.8184   12.6676 H   0  0  0  0  0  0  0  0  0  0  0  0
   42.4660    5.1326   11.8874 H   0  0  0  0  0  0  0  0  0  0  0  0
   43.2714    6.6847   11.6916 H   0  0  0  0  0  0  0  0  0  0  0  0
   45.4125    2.3203   11.4095 H   0  0  0  0  0  0  0  0  0  0  0  0
   46.2138    3.8760   11.2190 H   0  0  0  0  0  0  0  0  0  0  0  0
   43.3179    3.1881   10.4381 H   0  0  0  0  0  0  0  0  0  0  0  0
   44.6508    3.5275    9.3434 H   0  0  0  0  0  0  0  0  0  0  0  0
   45.9485    4.9658   11.3837 H   0  0  0  0  0  0  0  0  0  0  0  0
   45.9166    3.9733   12.8714 H   0  0  0  0  0  0  0  0  0  0  0  0
   44.7579    2.1475   11.4201 H   0  0  0  0  0  0  0  0  0  0  0  0
   43.1186    2.4144   10.9055 H   0  0  0  0  0  0  0  0  0  0  0  0
   42.7437    4.4182   13.3543 H   0  0  0  0  0  0  0  0  0  0  0  0
   41.5020    6.0262   11.0541 H   0  0  0  0  0  0  0  0  0  0  0  0
   46.2236    7.3604   13.8110 H   0  0  0  0  0  0  0  0  0  0  0  0
   46.0124    3.5155    8.5072 H   0  0  0  0  0  0  0  0  0  0  0  0
   44.1695    3.1607   12.8522 H   0  0  0  0  0  0  0  0  0  0  0  0
   44.5673    5.9448   10.2037 H   0  0  0  0  0  0  0  0  0  0  0  0
   45.3767    5.8324   12.7020 H   0  0  0  0  0  0  0  0  0  0  0  0
   44.1516    5.2899   13.8392 H   0  0  0  0  0  0  0  0  0  0  0  0
   42.4857    5.0031   12.0449 H   0  0  0  0  0  0  0  0  0  0  0  0
   43.1637    6.6233   11.9546 H   0  0  0  0  0  0  0  0  0  0  0  0
   45.5844    2.4845   11.1040 H   0  0  0  0  0  0  0  0  0  0  0  0
   46.2565    4.1111   11.0178 H   0  0  0  0  0  0  0  0  0  0  0  0
   43.3663    3.2722   10.3611 H   0  0  0  0  0  0  0  0  0  0  0  0
   44.5909    3.8135    9.2204 H   0  0  0  0  0  0  0  0  0  0  0  0
   45.0878    3.8215   13.1678 H   0  0  0  0  0  0  0  0  0  0  0  0
   43.6563    5.2860    9.8944 H   0  0  0  0  0  0  0  0  0  0  0  0
   44.0861    6.4119   12.2241 H   0  0  0  0  0  0  0  0  0  0  0  0
   43.4944    5.4897   13.6003 H   0  0  0  0  0  0  0  0  0  0  0  0
   42.0267    5.2114   11.5829 H   0  0  0  0  0  0  0  0  0  0  0  0
   42.6767    3.6749   12.1437 H   0  0  0  0  0  0  0  0  0  0  0  0
   46.0646    5.4303   10.9172 H   0  0  0  0  0  0  0  0  0  0  0  0
   46.7144    3.8920   11.4764 H   0  0  0  0  0  0  0  0  0  0  0  0
   45.2459    3.6182    9.4579 H   0  0  0  0  0  0  0  0  0  0  0  0
   44.6595    2.6947   10.8343 H   0  0  0  0  0  0  0  0  0  0  0  0
  3  2  1  0
  4  2  1  0
  5  2  1  0
  6  4  1  0
  7  3  1  0
  8  5  2  0
  9  7  2  0
 10  6  2  0
 11  2  1  0
 12  5  1  0
 13  7  1  0
 14  6  1  0
 16 20  1  0
 17 15  1  0
 18 17  1  0
 19 15  1  0
 20 19  1  0
 16 18  1  0
 22 21  1  0
 23 21  1  0
 24 21  1  0
 25 23  1  0
 26 22  1  0
 27 24  2  0
 28 26  2  0
 29 25  2  0
 30 21  1  0
 31 24  1  0
 32 26  1  0
 33 25  1  0
 35 39  1  0
 36 34  1  0
 37 36  1  0
 38 34  1  0
 39 38  1  0
 35 37  1  0
 41 45  1  0
 42 40  1  0
 43 42  1  0
 44 40  1  0
 45 44  1  0
 41 43  1  0
  1 46  1  0
  1 47  1  0
  3 48  1  0
  3 49  1  0
  4 50  1  0
  4 51  1  0
 11 52  1  0
 12 53  1  0
 13 54  1  0
 14 55  1  0
 15 56  1  0
 16 57  1  0
 17 58  1  0
 17 59  1  0
 18 60  1  0
 18 61  1  0
 19 62  1  0
 19 63  1  0
 20 64  1  0
 20 65  1  0
 22 66  1  0
 22 67  1  0
 23 68  1  0
 23 69  1  0
 30 70  1  0
 31 71  1  0
 32 72  1  0
 33 73  1  0
 34 74  1  0
 35 75  1  0
 36 76  1  0
 36 77  1  0
 37 78  1  0
 37 79  1  0
 38 80  1  0
 38 81  1  0
 39 82  1  0
 39 83  1  0
 40 84  1  0
 41 85  1  0
 42 86  1  0
 42 87  1  0
 43 88  1  0
 43 89  1  0
 44 90  1  0
 44 91  1  0
 45 92  1  0
 45 93  1  0
M  END
> <Uni-Dock RESULT> 
ENERGY=   -8.181  LOWER_BOUND=    1.263  UPPER_BOUND=    2.558
INTER + INTRA:          -8.181
INTER:                  -8.181
INTRA:                   0.000
UNBOUND:                 0.000

$$$$

     RDKit          3D

 93 90  0  0  0  0  0  0  0  0999 V2000
   44.3415    4.8062   10.7845 O   0  0  0  0  0  0  0  0  0  0  0  0
   44.5225    4.7427   10.8070 C   0  0  0  0  0  0  0  0  0  0  0  0
   44.0704    4.5892    9.3473 C   0  0  0  0  0  0  0  0  0  0  0  0
   44.0677    3.5906   11.7134 C   0  0  0  0  0  0  0  0  0  0  0  0
   43.8741    6.0519   11.2991 C   0  0  0  0  0  0  0  0  0  0  0  0
   44.2198    3.9287   13.1707 C   0  0  0  0  0  0  0  0  0  0  0  0
   44.5490    3.3299    8.6816 C   0  0  0  0  0  0  0  0  0  0  0  0
   42.6780    6.2497   11.4396 O   0  0  0  0  0  0  0  0  0  0  0  0
   44.6481    2.2189    9.1740 O   0  0  0  0  0  0  0  0  0  0  0  0
   45.0561    4.6730   13.6559 O   0  0  0  0  0  0  0  0  0  0  0  0
   45.9525    4.8257   10.8071 O   0  0  0  0  0  0  0  0  0  0  0  0
   44.7690    7.0161   11.5951 O   0  0  0  0  0  0  0  0  0  0  0  0
   44.7922    3.5093    7.3673 O   0  0  0  0  0  0  0  0  0  0  0  0
   43.3360    3.2770   13.9465 O   0  0  0  0  0  0  0  0  0  0  0  0
   43.2271    3.5423   11.4925 N   0  0  0  0  0  0  0  0  0  0  0  0
   45.2999    5.3195   10.3192 N   0  0  0  0  0  0  0  0  0  0  0  0
   43.7847    4.6924   12.2266 C   0  0  0  0  0  0  0  0  0  0  0  0
   44.3077    5.8060   11.2939 C   0  0  0  0  0  0  0  0  0  0  0  0
   44.2203    3.0557   10.5188 C   0  0  0  0  0  0  0  0  0  0  0  0
   44.7440    4.1694    9.5867 C   0  0  0  0  0  0  0  0  0  0  0  0
   43.6865    4.4627   10.7691 C   0  0  0  0  0  0  0  0  0  0  0  0
   44.3178    3.6935   11.9365 C   0  0  0  0  0  0  0  0  0  0  0  0
   43.7622    3.6903    9.4490 C   0  0  0  0  0  0  0  0  0  0  0  0
   44.3879    5.8240   10.6038 C   0  0  0  0  0  0  0  0  0  0  0  0
   45.1362    3.6314    8.8503 C   0  0  0  0  0  0  0  0  0  0  0  0
   44.2928    4.4957   13.2115 C   0  0  0  0  0  0  0  0  0  0  0  0
   45.5883    6.0351   10.6554 O   0  0  0  0  0  0  0  0  0  0  0  0
   43.7121    5.5507   13.4093 O   0  0  0  0  0  0  0  0  0  0  0  0
   45.5740    4.3741    7.9902 O   0  0  0  0  0  0  0  0  0  0  0  0
   42.2814    4.6016   11.0451 O   0  0  0  0  0  0  0  0  0  0  0  0
   43.5134    6.8363   10.4149 O   0  0  0  0  0  0  0  0  0  0  0  0
   45.0178    3.9165   14.1856 O   0  0  0  0  0  0  0  0  0  0  0  0
   45.8958    2.6509    9.3694 O   0  0  0  0  0  0  0  0  0  0  0  0
   43.3874    3.4068   11.4565 N   0  0  0  0  0  0  0  0  0  0  0  0
   45.2498    5.4719   10.4101 N   0  0  0  0  0  0  0  0  0  0  0  0
   43.7597    4.5981   12.2392 C   0  0  0  0  0  0  0  0  0  0  0  0
   44.1676    5.7965   11.3554 C   0  0  0  0  0  0  0  0  0  0  0  0
   44.4741    3.0811   10.5159 C   0  0  0  0  0  0  0  0  0  0  0  0
   44.8792    4.2790    9.6292 C   0  0  0  0  0  0  0  0  0  0  0  0
   43.9445    3.7673   12.2065 N   0  0  0  0  0  0  0  0  0  0  0  0
   44.6954    5.1115    9.6648 N   0  0  0  0  0  0  0  0  0  0  0  0
   43.7619    5.2148   11.9984 C   0  0  0  0  0  0  0  0  0  0  0  0
   43.5897    5.5935   10.5112 C   0  0  0  0  0  0  0  0  0  0  0  0
   45.0493    3.2850   11.3581 C   0  0  0  0  0  0  0  0  0  0  0  0
   44.8793    3.6645    9.8709 C   0  0  0  0  0  0  0  0  0  0  0  0
   44.6628    3.9814   10.3900 H   0  0  0  0  0  0  0  0  0  0  0  0
   43.9561    4.5307   11.6292 H   0  0  0  0  0  0  0  0  0  0  0  0
   42.9774    4.6073    9.2609 H   0  0  0  0  0  0  0  0  0  0  0  0
   44.4594    5.4387    8.7693 H   0  0  0  0  0  0  0  0  0  0  0  0
   43.0125    3.3623   11.5225 H   0  0  0  0  0  0  0  0  0  0  0  0
   44.6640    2.6876   11.5547 H   0  0  0  0  0  0  0  0  0  0  0  0
   46.2069    5.1946   11.6796 H   0  0  0  0  0  0  0  0  0  0  0  0
   44.2351    7.7784   11.9099 H   0  0  0  0  0  0  0  0  0  0  0  0
   45.0770    2.6212    7.0589 H   0  0  0  0  0  0  0  0  0  0  0  0
   43.5542    3.5356   14.8654 H   0  0  0  0  0  0  0  0  0  0  0  0
   42.4149    3.8727   10.9699 H   0  0  0  0  0  0  0  0  0  0  0  0
   46.1121    4.9893   10.8416 H   0  0  0  0  0  0  0  0  0  0  0  0
   43.0060    5.1031   12.8779 H   0  0  0  0  0  0  0  0  0  0  0  0
   44.5920    4.3443   12.8832 H   0  0  0  0  0  0  0  0  0  0  0  0
   43.4686    6.2662   10.7569 H   0  0  0  0  0  0  0  0  0  0  0  0
   44.7689    6.5969   11.8954 H   0  0  0  0  0  0  0  0  0  0  0  0
   43.7631    2.2631    9.9160 H   0  0  0  0  0  0  0  0  0  0  0  0
   45.0593    2.5988   11.0587 H   0  0  0  0  0  0  0  0  0  0  0  0
   43.9364    4.5180    8.9316 H   0  0  0  0  0  0  0  0  0  0  0  0
   45.5230    3.7610    8.9334 H   0  0  0  0  0  0  0  0  0  0  0  0
   45.3669    3.4617   11.7265 H   0  0  0  0  0  0  0  0  0  0  0  0
   43.7682    2.7645   12.1234 H   0  0  0  0  0  0  0  0  0  0  0  0
   43.3644    2.6719    9.5522 H   0  0  0  0  0  0  0  0  0  0  0  0
   43.1130    4.1654    8.6981 H   0  0  0  0  0  0  0  0  0  0  0  0
   42.1692    5.4972   11.4346 H   0  0  0  0  0  0  0  0  0  0  0  0
   44.0791    7.6363   10.3414 H   0  0  0  0  0  0  0  0  0  0  0  0
   44.9378    4.5225   14.9502 H   0  0  0  0  0  0  0  0  0  0  0  0
   46.7571    2.7464    8.9092 H   0  0  0  0  0  0  0  0  0  0  0  0
   42.5610    3.6443   10.9060 H   0  0  0  0  0  0  0  0  0  0  0  0
   46.0792    5.2391   10.9573 H   0  0  0  0  0  0  0  0  0  0  0  0
   44.5800    4.3401   12.9203 H   0  0  0  0  0  0  0  0  0  0  0  0
   42.9100    4.8847   12.8675 H   0  0  0  0  0  0  0  0  0  0  0  0
   43.2978    6.1593   10.7934 H   0  0  0  0  0  0  0  0  0  0  0  0
   44.4965    6.6239   11.9935 H   0  0  0  0  0  0  0  0  0  0  0  0
   44.1481    2.2518    9.8777 H   0  0  0  0  0  0  0  0  0  0  0  0
   45.3443    2.7245   11.0820 H   0  0  0  0  0  0  0  0  0  0  0  0
   44.0574    4.5373    8.9499 H   0  0  0  0  0  0  0  0  0  0  0  0
   45.7291    3.9926    8.9993 H   0  0  0  0  0  0  0  0  0  0  0  0
   43.0913    3.3012   11.8964 H   0  0  0  0  0  0  0  0  0  0  0  0
   45.5488    5.5771    9.9755 H   0  0  0  0  0  0  0  0  0  0  0  0
   44.6217    5.7475   12.4232 H   0  0  0  0  0  0  0  0  0  0  0  0
   42.8798    5.5428   12.5594 H   0  0  0  0  0  0  0  0  0  0  0  0
   43.5262    6.6838   10.4189 H   0  0  0  0  0  0  0  0  0  0  0  0
   42.6436    5.1887   10.1298 H   0  0  0  0  0  0  0  0  0  0  0  0
   45.9949    3.6905   11.7385 H   0  0  0  0  0  0  0  0  0  0  0  0
   45.1124    2.1946   11.4472 H   0  0  0  0  0  0  0  0  0  0  0  0
   45.7616    3.3391    9.3084 H   0  0  0  0  0  0  0  0  0  0  0  0
   44.0214    3.1294    9.4461 H   0  0  0  0  0  0  0  0  0  0  0  0
  3  2  1  0
  4  2  1  0
  5  2  1  0
  6  4  1  0
  7  3  1  0
  8  5  2  0
  9  7  2  0
 10  6  2  0
 11  2  1  0
 12  5  1  0
 13  7  1  0
 14  6  1  0
 16 20  1  0
 17 15  1  0
 18 17  1  0
 19 15  1  0
 20 19  1  0
 16 18  1  0
 22 21  1  0
 23 21  1  0
 24 21  1  0
 25 23  1  0
 26 22  1  0
 27 24  2  0
 28 26  2  0
 29 25  2  0
 30 21  1  0
 31 24  1  0
 32 26  1  0
 33 25  1  0
 35 39  1  0
 36 34  1  0
 37 36  1  0
 38 34  1  0
 39 38  1  0
 35 37  1  0
 41 45  1  0
 42 40  1  0
 43 42  1  0
 44 40  1  0
 45 44  1  0
 41 43  1  0
  1 46  1  0
  1 47  1  0
  3 48  1  0
  3 49  1  0
  4 50  1  0
  4 51  1  0
 11 52  1  0
 12 53  1  0
 13 54  1  0
 14 55  1  0
 15 56  1  0
 16 57  1  0
 17 58  1  0
 17 59  1  0
 18 60  1  0
 18 61  1  0
 19 62  1  0
 19 63  1  0
 20 64  1  0
 20 65  1  0
 22 66  1  0
 22 67  1  0
 23 68  1  0
 23 69  1  0
 30 70  1  0
 31 71  1  0
 32 72  1  0
 33 73  1  0
 34 74  1  0
 35 75  1  0
 36 76  1  0
 36 77  1  0
 37 78  1  0
 37 79  1  0
 38 80  1  0
 38 81  1  0
 39 82  1  0
 39 83  1  0
 40 84  1  0
 41 85  1  0
 42 86  1  0
 42 87  1  0
 43 88  1  0
 43 89  1  0
 44 90  1  0
 44 91  1  0
 45 92  1  0
 45 93  1  0
M  END
> <Uni-Dock RESULT> 
ENERGY=   -8.053  LOWER_BOUND=    0.955  UPPER_BOUND=    2.687
INTER + INTRA:          -8.053
INTER:                  -8.053
INTRA:                   0.000
UNBOUND:                 0.000

$$$$
