
     RDKit          3D

 93 90  0  0  0  0  0  0  0  0999 V2000
   44.6467    4.9605   11.1355 O   0  0  0  0  0  0  0  0  0  0  0  0
   43.9991    4.5888   11.7854 C   0  0  0  0  0  0  0  0  0  0  0  0
   43.5759    4.9396   10.3502 C   0  0  0  0  0  0  0  0  0  0  0  0
   43.7448    5.7533   12.7491 C   0  0  0  0  0  0  0  0  0  0  0  0
   45.4930    4.2080   11.8103 C   0  0  0  0  0  0  0  0  0  0  0  0
   44.8158    6.8026   12.7378 C   0  0  0  0  0  0  0  0  0  0  0  0
   43.9577    3.9064    9.3228 C   0  0  0  0  0  0  0  0  0  0  0  0
   46.3851    4.7565   11.1826 O   0  0  0  0  0  0  0  0  0  0  0  0
   44.1285    4.1189    8.1342 O   0  0  0  0  0  0  0  0  0  0  0  0
   45.7384    6.8924   13.5294 O   0  0  0  0  0  0  0  0  0  0  0  0
   43.1464    3.5247   12.2459 O   0  0  0  0  0  0  0  0  0  0  0  0
   45.7620    3.1579   12.6110 O   0  0  0  0  0  0  0  0  0  0  0  0
   44.0274    2.6469    9.7963 O   0  0  0  0  0  0  0  0  0  0  0  0
   44.6818    7.6767   11.7263 O   0  0  0  0  0  0  0  0  0  0  0  0
   43.2283    4.4111   12.2324 N   0  0  0  0  0  0  0  0  0  0  0  0
   45.5650    5.2723   10.6104 N   0  0  0  0  0  0  0  0  0  0  0  0
   44.0525    3.4557   11.4712 C   0  0  0  0  0  0  0  0  0  0  0  0
   44.7496    4.0984   10.2530 C   0  0  0  0  0  0  0  0  0  0  0  0
   44.0439    5.5851   12.5898 C   0  0  0  0  0  0  0  0  0  0  0  0
   44.7412    6.2277   11.3715 C   0  0  0  0  0  0  0  0  0  0  0  0
   44.1533    4.6311   11.6154 C   0  0  0  0  0  0  0  0  0  0  0  0
   45.2210    5.6488   11.1941 C   0  0  0  0  0  0  0  0  0  0  0  0
   43.6603    3.7500   10.4607 C   0  0  0  0  0  0  0  0  0  0  0  0
   42.9036    5.3738   12.1237 C   0  0  0  0  0  0  0  0  0  0  0  0
   44.7621    3.0005    9.7724 C   0  0  0  0  0  0  0  0  0  0  0  0
   45.4664    6.7039   12.2392 C   0  0  0  0  0  0  0  0  0  0  0  0
   42.2615    6.2145   11.5151 O   0  0  0  0  0  0  0  0  0  0  0  0
   45.0902    6.6997   13.3986 O   0  0  0  0  0  0  0  0  0  0  0  0
   45.7129    3.4913    9.1863 O   0  0  0  0  0  0  0  0  0  0  0  0
   44.6997    3.7629   12.6177 O   0  0  0  0  0  0  0  0  0  0  0  0
   42.5542    5.0035   13.3761 O   0  0  0  0  0  0  0  0  0  0  0  0
   46.2108    7.7210   11.7641 O   0  0  0  0  0  0  0  0  0  0  0  0
   44.5916    1.6653    9.8026 O   0  0  0  0  0  0  0  0  0  0  0  0
   44.7343    3.8926   10.2679 N   0  0  0  0  0  0  0  0  0  0  0  0
   43.9701    5.7876   12.4193 N   0  0  0  0  0  0  0  0  0  0  0  0
   43.5238    3.7045   11.0886 C   0  0  0  0  0  0  0  0  0  0  0  0
   43.6357    4.3580   12.4832 C   0  0  0  0  0  0  0  0  0  0  0  0
   45.0297    5.3349   10.1872 C   0  0  0  0  0  0  0  0  0  0  0  0
   45.1537    6.0010   11.5748 C   0  0  0  0  0  0  0  0  0  0  0  0
   43.2562    5.1785   12.2561 N   0  0  0  0  0  0  0  0  0  0  0  0
   44.9426    4.8388   10.0754 N   0  0  0  0  0  0  0  0  0  0  0  0
   44.5510    5.8723   12.3690 C   0  0  0  0  0  0  0  0  0  0  0  0
   45.3542    5.8740   11.0446 C   0  0  0  0  0  0  0  0  0  0  0  0
   43.4924    3.7799   11.8433 C   0  0  0  0  0  0  0  0  0  0  0  0
   44.6233    3.5976   10.8008 C   0  0  0  0  0  0  0  0  0  0  0  0
   44.1982    4.1054   11.2184 H   0  0  0  0  0  0  0  0  0  0  0  0
   44.3458    5.4590   11.9101 H   0  0  0  0  0  0  0  0  0  0  0  0
   44.0500    5.8738   10.0304 H   0  0  0  0  0  0  0  0  0  0  0  0
   42.4880    5.0604   10.2911 H   0  0  0  0  0  0  0  0  0  0  0  0
   42.7713    6.2243   12.5650 H   0  0  0  0  0  0  0  0  0  0  0  0
   43.6794    5.3808   13.7806 H   0  0  0  0  0  0  0  0  0  0  0  0
   43.4729    2.7102   11.8124 H   0  0  0  0  0  0  0  0  0  0  0  0
   46.7371    3.0602   12.5751 H   0  0  0  0  0  0  0  0  0  0  0  0
   44.2264    2.1148    8.9936 H   0  0  0  0  0  0  0  0  0  0  0  0
   45.4534    8.2772   11.8183 H   0  0  0  0  0  0  0  0  0  0  0  0
   42.4773    4.7302   11.6193 H   0  0  0  0  0  0  0  0  0  0  0  0
   46.3165    4.9532   11.2234 H   0  0  0  0  0  0  0  0  0  0  0  0
   44.8025    3.0150   12.1396 H   0  0  0  0  0  0  0  0  0  0  0  0
   43.4136    2.6336   11.1305 H   0  0  0  0  0  0  0  0  0  0  0  0
   44.0003    4.3943    9.5083 H   0  0  0  0  0  0  0  0  0  0  0  0
   45.3950    3.3554    9.7716 H   0  0  0  0  0  0  0  0  0  0  0  0
   43.3984    6.3280   13.0711 H   0  0  0  0  0  0  0  0  0  0  0  0
   44.7935    5.2892   13.3340 H   0  0  0  0  0  0  0  0  0  0  0  0
   43.9914    6.6678   10.7026 H   0  0  0  0  0  0  0  0  0  0  0  0
   45.3809    7.0494   11.7125 H   0  0  0  0  0  0  0  0  0  0  0  0
   44.9061    6.1610   10.2767 H   0  0  0  0  0  0  0  0  0  0  0  0
   46.1840    5.1544   11.0283 H   0  0  0  0  0  0  0  0  0  0  0  0
   42.9330    3.0195   10.8415 H   0  0  0  0  0  0  0  0  0  0  0  0
   43.1377    4.3358    9.6946 H   0  0  0  0  0  0  0  0  0  0  0  0
   44.3993    4.1215   13.4808 H   0  0  0  0  0  0  0  0  0  0  0  0
   41.7906    5.5775   13.5990 H   0  0  0  0  0  0  0  0  0  0  0  0
   46.3207    8.3298   12.5253 H   0  0  0  0  0  0  0  0  0  0  0  0
   45.3755    1.3086    9.3352 H   0  0  0  0  0  0  0  0  0  0  0  0
   45.5120    3.4384   10.7460 H   0  0  0  0  0  0  0  0  0  0  0  0
   44.1498    6.1406   13.3577 H   0  0  0  0  0  0  0  0  0  0  0  0
   42.6567    4.1111   10.5533 H   0  0  0  0  0  0  0  0  0  0  0  0
   43.3444    2.6301   11.2069 H   0  0  0  0  0  0  0  0  0  0  0  0
   42.6830    4.2424   13.0111 H   0  0  0  0  0  0  0  0  0  0  0  0
   44.3968    3.8326   13.0739 H   0  0  0  0  0  0  0  0  0  0  0  0
   45.9677    5.4696    9.6371 H   0  0  0  0  0  0  0  0  0  0  0  0
   44.2469    5.8333    9.6020 H   0  0  0  0  0  0  0  0  0  0  0  0
   46.0414    5.6116   12.0889 H   0  0  0  0  0  0  0  0  0  0  0  0
   45.3042    7.0781   11.4432 H   0  0  0  0  0  0  0  0  0  0  0  0
   42.7304    5.6362   11.5122 H   0  0  0  0  0  0  0  0  0  0  0  0
   44.0841    5.1574    9.6269 H   0  0  0  0  0  0  0  0  0  0  0  0
   45.1421    5.3926   13.1592 H   0  0  0  0  0  0  0  0  0  0  0  0
   44.3760    6.9047   12.6917 H   0  0  0  0  0  0  0  0  0  0  0  0
   46.4208    5.7547   11.2685 H   0  0  0  0  0  0  0  0  0  0  0  0
   45.2427    6.8485   10.5548 H   0  0  0  0  0  0  0  0  0  0  0  0
   42.5529    3.3935   11.4306 H   0  0  0  0  0  0  0  0  0  0  0  0
   43.7178    3.1758   12.7299 H   0  0  0  0  0  0  0  0  0  0  0  0
   44.3326    2.8270   10.0784 H   0  0  0  0  0  0  0  0  0  0  0  0
   45.5309    3.2345   11.2993 H   0  0  0  0  0  0  0  0  0  0  0  0
  3  2  1  0
  4  2  1  0
  5  2  1  0
  6  4  1  0
  7  3  1  0
  8  5  2  0
  9  7  2  0
 10  6  2  0
 11  2  1  0
 12  5  1  0
 13  7  1  0
 14  6  1  0
 16 20  1  0
 17 15  1  0
 18 17  1  0
 19 15  1  0
 20 19  1  0
 16 18  1  0
 22 21  1  0
 23 21  1  0
 24 21  1  0
 25 23  1  0
 26 22  1  0
 27 24  2  0
 28 26  2  0
 29 25  2  0
 30 21  1  0
 31 24  1  0
 32 26  1  0
 33 25  1  0
 35 39  1  0
 36 34  1  0
 37 36  1  0
 38 34  1  0
 39 38  1  0
 35 37  1  0
 41 45  1  0
 42 40  1  0
 43 42  1  0
 44 40  1  0
 45 44  1  0
 41 43  1  0
  1 46  1  0
  1 47  1  0
  3 48  1  0
  3 49  1  0
  4 50  1  0
  4 51  1  0
 11 52  1  0
 12 53  1  0
 13 54  1  0
 14 55  1  0
 15 56  1  0
 16 57  1  0
 17 58  1  0
 17 59  1  0
 18 60  1  0
 18 61  1  0
 19 62  1  0
 19 63  1  0
 20 64  1  0
 20 65  1  0
 22 66  1  0
 22 67  1  0
 23 68  1  0
 23 69  1  0
 30 70  1  0
 31 71  1  0
 32 72  1  0
 33 73  1  0
 34 74  1  0
 35 75  1  0
 36 76  1  0
 36 77  1  0
 37 78  1  0
 37 79  1  0
 38 80  1  0
 38 81  1  0
 39 82  1  0
 39 83  1  0
 40 84  1  0
 41 85  1  0
 42 86  1  0
 42 87  1  0
 43 88  1  0
 43 89  1  0
 44 90  1  0
 44 91  1  0
 45 92  1  0
 45 93  1  0
M  END
> <Uni-Dock RESULT> 
ENERGY=   -9.057  LOWER_BOUND=    0.000  UPPER_BOUND=    0.000
INTER + INTRA:          -9.057
INTER:                  -9.057
INTRA:                   0.000
UNBOUND:                 0.000

$$$$

     RDKit          3D

 93 90  0  0  0  0  0  0  0  0999 V2000
   44.8415    5.1263   12.0902 O   0  0  0  0  0  0  0  0  0  0  0  0
   44.0938    5.6691   11.7347 C   0  0  0  0  0  0  0  0  0  0  0  0
   44.6672    5.9238   13.1377 C   0  0  0  0  0  0  0  0  0  0  0  0
   42.8981    4.7111   11.7793 C   0  0  0  0  0  0  0  0  0  0  0  0
   45.1918    5.0905   10.8198 C   0  0  0  0  0  0  0  0  0  0  0  0
   43.2767    3.2615   11.8387 C   0  0  0  0  0  0  0  0  0  0  0  0
   45.9479    6.7166   13.1478 C   0  0  0  0  0  0  0  0  0  0  0  0
   46.0295    4.2613   11.1382 O   0  0  0  0  0  0  0  0  0  0  0  0
   46.7939    6.6842   14.0255 O   0  0  0  0  0  0  0  0  0  0  0  0
   43.3261    2.4952   10.8920 O   0  0  0  0  0  0  0  0  0  0  0  0
   43.5620    6.9140   11.2460 O   0  0  0  0  0  0  0  0  0  0  0  0
   45.1705    5.6014    9.5730 O   0  0  0  0  0  0  0  0  0  0  0  0
   46.0828    7.5735   12.1168 O   0  0  0  0  0  0  0  0  0  0  0  0
   43.5869    2.8517   13.0802 O   0  0  0  0  0  0  0  0  0  0  0  0
   43.3385    6.1713   11.6830 N   0  0  0  0  0  0  0  0  0  0  0  0
   45.7041    4.4478   12.1991 N   0  0  0  0  0  0  0  0  0  0  0  0
   44.7081    6.5915   11.3382 C   0  0  0  0  0  0  0  0  0  0  0  0
   45.7841    5.9188   12.2173 C   0  0  0  0  0  0  0  0  0  0  0  0
   43.2586    4.7001   11.6648 C   0  0  0  0  0  0  0  0  0  0  0  0
   44.3348    4.0273   12.5438 C   0  0  0  0  0  0  0  0  0  0  0  0
   44.2971    5.5792   11.8060 C   0  0  0  0  0  0  0  0  0  0  0  0
   44.9603    4.2374   12.1420 C   0  0  0  0  0  0  0  0  0  0  0  0
   45.0339    6.7888   12.3948 C   0  0  0  0  0  0  0  0  0  0  0  0
   42.8845    5.6250   12.4176 C   0  0  0  0  0  0  0  0  0  0  0  0
   46.4720    6.8704   11.9767 C   0  0  0  0  0  0  0  0  0  0  0  0
   44.0767    3.0573   11.8381 C   0  0  0  0  0  0  0  0  0  0  0  0
   42.5965    5.4590   13.5919 O   0  0  0  0  0  0  0  0  0  0  0  0
   43.0466    3.0516   11.1864 O   0  0  0  0  0  0  0  0  0  0  0  0
   47.3392    6.0441   12.2079 O   0  0  0  0  0  0  0  0  0  0  0  0
   44.2650    5.7451   10.3817 O   0  0  0  0  0  0  0  0  0  0  0  0
   41.9280    5.8733   11.4950 O   0  0  0  0  0  0  0  0  0  0  0  0
   44.5617    1.9156   12.3630 O   0  0  0  0  0  0  0  0  0  0  0  0
   46.7708    8.0148   11.3335 O   0  0  0  0  0  0  0  0  0  0  0  0
   45.8305    6.0868   12.1057 N   0  0  0  0  0  0  0  0  0  0  0  0
   43.2590    4.6175   11.9269 N   0  0  0  0  0  0  0  0  0  0  0  0
   44.5347    6.7804   11.9878 C   0  0  0  0  0  0  0  0  0  0  0  0
   43.4569    5.9254   11.2866 C   0  0  0  0  0  0  0  0  0  0  0  0
   45.6139    4.7951   12.7829 C   0  0  0  0  0  0  0  0  0  0  0  0
   44.5448    3.9244   12.0876 C   0  0  0  0  0  0  0  0  0  0  0  0
   43.0925    5.5464   12.0562 N   0  0  0  0  0  0  0  0  0  0  0  0
   45.7922    5.2584   12.6425 N   0  0  0  0  0  0  0  0  0  0  0  0
   43.6509    4.2212   11.7361 C   0  0  0  0  0  0  0  0  0  0  0  0
   45.0765    4.0118   12.3045 C   0  0  0  0  0  0  0  0  0  0  0  0
   43.9805    6.5904   11.5051 C   0  0  0  0  0  0  0  0  0  0  0  0
   45.4930    6.2786   11.6234 C   0  0  0  0  0  0  0  0  0  0  0  0
   44.7649    6.0451   11.7914 H   0  0  0  0  0  0  0  0  0  0  0  0
   43.9581    4.7570   11.9413 H   0  0  0  0  0  0  0  0  0  0  0  0
   44.8949    4.9747   13.6347 H   0  0  0  0  0  0  0  0  0  0  0  0
   43.9459    6.4765   13.7509 H   0  0  0  0  0  0  0  0  0  0  0  0
   42.2237    4.9459   12.6121 H   0  0  0  0  0  0  0  0  0  0  0  0
   42.2798    4.8388   10.8802 H   0  0  0  0  0  0  0  0  0  0  0  0
   44.3348    7.4496   10.9743 H   0  0  0  0  0  0  0  0  0  0  0  0
   45.8734    5.1153    9.0922 H   0  0  0  0  0  0  0  0  0  0  0  0
   46.9284    8.0343   12.3157 H   0  0  0  0  0  0  0  0  0  0  0  0
   43.8424    1.9099   12.9700 H   0  0  0  0  0  0  0  0  0  0  0  0
   43.1502    6.4803   12.6374 H   0  0  0  0  0  0  0  0  0  0  0  0
   45.8928    4.1385   11.2446 H   0  0  0  0  0  0  0  0  0  0  0  0
   44.8978    6.3679   10.2811 H   0  0  0  0  0  0  0  0  0  0  0  0
   44.7801    7.6793   11.4469 H   0  0  0  0  0  0  0  0  0  0  0  0
   45.6932    6.2711   13.2523 H   0  0  0  0  0  0  0  0  0  0  0  0
   46.7776    6.2213   11.8684 H   0  0  0  0  0  0  0  0  0  0  0  0
   42.2650    4.3978   12.0138 H   0  0  0  0  0  0  0  0  0  0  0  0
   43.3500    4.3477   10.6300 H   0  0  0  0  0  0  0  0  0  0  0  0
   44.1456    4.2514   13.6009 H   0  0  0  0  0  0  0  0  0  0  0  0
   44.2632    2.9394   12.4342 H   0  0  0  0  0  0  0  0  0  0  0  0
   45.2039    4.1996   13.2108 H   0  0  0  0  0  0  0  0  0  0  0  0
   45.8712    4.0961   11.5509 H   0  0  0  0  0  0  0  0  0  0  0  0
   44.5310    7.7136   12.0796 H   0  0  0  0  0  0  0  0  0  0  0  0
   45.0140    6.7846   13.4916 H   0  0  0  0  0  0  0  0  0  0  0  0
   43.3676    5.4681   10.0961 H   0  0  0  0  0  0  0  0  0  0  0  0
   41.0851    5.8241   11.9943 H   0  0  0  0  0  0  0  0  0  0  0  0
   43.9242    1.2219   12.0898 H   0  0  0  0  0  0  0  0  0  0  0  0
   47.7218    7.9295   11.1129 H   0  0  0  0  0  0  0  0  0  0  0  0
   46.1713    5.8952   11.1641 H   0  0  0  0  0  0  0  0  0  0  0  0
   42.6311    4.0494   11.3607 H   0  0  0  0  0  0  0  0  0  0  0  0
   44.1884    7.0731   12.9870 H   0  0  0  0  0  0  0  0  0  0  0  0
   44.6837    7.7074   11.4230 H   0  0  0  0  0  0  0  0  0  0  0  0
   42.5061    6.4691   11.2948 H   0  0  0  0  0  0  0  0  0  0  0  0
   43.7338    5.7773   10.2350 H   0  0  0  0  0  0  0  0  0  0  0  0
   46.5637    4.2494   12.8072 H   0  0  0  0  0  0  0  0  0  0  0  0
   45.3276    4.9761   13.8264 H   0  0  0  0  0  0  0  0  0  0  0  0
   44.9134    3.6103   11.1029 H   0  0  0  0  0  0  0  0  0  0  0  0
   44.3846    3.0148   12.6767 H   0  0  0  0  0  0  0  0  0  0  0  0
   43.0969    5.6405   13.0713 H   0  0  0  0  0  0  0  0  0  0  0  0
   45.4216    5.5982   13.5296 H   0  0  0  0  0  0  0  0  0  0  0  0
   43.6657    4.0971   10.6460 H   0  0  0  0  0  0  0  0  0  0  0  0
   42.9829    3.4474   12.1304 H   0  0  0  0  0  0  0  0  0  0  0  0
   45.6720    3.4379   11.5847 H   0  0  0  0  0  0  0  0  0  0  0  0
   45.0172    3.4068   13.2169 H   0  0  0  0  0  0  0  0  0  0  0  0
   43.7604    7.5252   12.0342 H   0  0  0  0  0  0  0  0  0  0  0  0
   43.7278    6.7589   10.4517 H   0  0  0  0  0  0  0  0  0  0  0  0
   46.0368    7.1976   11.8683 H   0  0  0  0  0  0  0  0  0  0  0  0
   45.8768    5.9353   10.6544 H   0  0  0  0  0  0  0  0  0  0  0  0
  3  2  1  0
  4  2  1  0
  5  2  1  0
  6  4  1  0
  7  3  1  0
  8  5  2  0
  9  7  2  0
 10  6  2  0
 11  2  1  0
 12  5  1  0
 13  7  1  0
 14  6  1  0
 16 20  1  0
 17 15  1  0
 18 17  1  0
 19 15  1  0
 20 19  1  0
 16 18  1  0
 22 21  1  0
 23 21  1  0
 24 21  1  0
 25 23  1  0
 26 22  1  0
 27 24  2  0
 28 26  2  0
 29 25  2  0
 30 21  1  0
 31 24  1  0
 32 26  1  0
 33 25  1  0
 35 39  1  0
 36 34  1  0
 37 36  1  0
 38 34  1  0
 39 38  1  0
 35 37  1  0
 41 45  1  0
 42 40  1  0
 43 42  1  0
 44 40  1  0
 45 44  1  0
 41 43  1  0
  1 46  1  0
  1 47  1  0
  3 48  1  0
  3 49  1  0
  4 50  1  0
  4 51  1  0
 11 52  1  0
 12 53  1  0
 13 54  1  0
 14 55  1  0
 15 56  1  0
 16 57  1  0
 17 58  1  0
 17 59  1  0
 18 60  1  0
 18 61  1  0
 19 62  1  0
 19 63  1  0
 20 64  1  0
 20 65  1  0
 22 66  1  0
 22 67  1  0
 23 68  1  0
 23 69  1  0
 30 70  1  0
 31 71  1  0
 32 72  1  0
 33 73  1  0
 34 74  1  0
 35 75  1  0
 36 76  1  0
 36 77  1  0
 37 78  1  0
 37 79  1  0
 38 80  1  0
 38 81  1  0
 39 82  1  0
 39 83  1  0
 40 84  1  0
 41 85  1  0
 42 86  1  0
 42 87  1  0
 43 88  1  0
 43 89  1  0
 44 90  1  0
 44 91  1  0
 45 92  1  0
 45 93  1  0
M  END
> <Uni-Dock RESULT> 
ENERGY=   -7.975  LOWER_BOUND=    1.237  UPPER_BOUND=    3.449
INTER + INTRA:          -7.975
INTER:                  -7.975
INTRA:                   0.000
UNBOUND:                 0.000

$$$$

     RDKit          3D

 93 90  0  0  0  0  0  0  0  0999 V2000
   44.4603    4.9868   11.4248 O   0  0  0  0  0  0  0  0  0  0  0  0
   43.9942    4.8853   12.2922 C   0  0  0  0  0  0  0  0  0  0  0  0
   45.4613    5.3378   12.2237 C   0  0  0  0  0  0  0  0  0  0  0  0
   43.8797    3.3667   12.4659 C   0  0  0  0  0  0  0  0  0  0  0  0
   43.2539    5.3211   11.0118 C   0  0  0  0  0  0  0  0  0  0  0  0
   44.0119    2.5925   11.1887 C   0  0  0  0  0  0  0  0  0  0  0  0
   45.6445    6.7929   11.8804 C   0  0  0  0  0  0  0  0  0  0  0  0
   43.7000    5.2846    9.8759 O   0  0  0  0  0  0  0  0  0  0  0  0
   46.6346    7.2787   11.3601 O   0  0  0  0  0  0  0  0  0  0  0  0
   43.0923    2.1676   10.5106 O   0  0  0  0  0  0  0  0  0  0  0  0
   43.4179    5.4463   13.4858 O   0  0  0  0  0  0  0  0  0  0  0  0
   42.0102    5.7839   11.2467 O   0  0  0  0  0  0  0  0  0  0  0  0
   44.6322    7.5911   12.2722 O   0  0  0  0  0  0  0  0  0  0  0  0
   45.2903    2.4033   10.8210 O   0  0  0  0  0  0  0  0  0  0  0  0
   43.8282    4.7219   13.1703 N   0  0  0  0  0  0  0  0  0  0  0  0
   44.7007    5.0941   10.3538 N   0  0  0  0  0  0  0  0  0  0  0  0
   43.6776    6.0060   12.4634 C   0  0  0  0  0  0  0  0  0  0  0  0
   44.7107    6.1957   11.3321 C   0  0  0  0  0  0  0  0  0  0  0  0
   43.8181    3.6202   12.1918 C   0  0  0  0  0  0  0  0  0  0  0  0
   44.8511    3.8101   11.0603 C   0  0  0  0  0  0  0  0  0  0  0  0
   44.0950    4.9563   12.0940 C   0  0  0  0  0  0  0  0  0  0  0  0
   44.5403    4.4317   10.7230 C   0  0  0  0  0  0  0  0  0  0  0  0
   44.7673    6.2769   12.4903 C   0  0  0  0  0  0  0  0  0  0  0  0
   44.4972    3.9498   13.1880 C   0  0  0  0  0  0  0  0  0  0  0  0
   44.5586    7.3741   11.4893 C   0  0  0  0  0  0  0  0  0  0  0  0
   44.1286    3.0040   10.4825 C   0  0  0  0  0  0  0  0  0  0  0  0
   45.6202    3.5240   13.4047 O   0  0  0  0  0  0  0  0  0  0  0  0
   43.3362    2.3424   11.1307 O   0  0  0  0  0  0  0  0  0  0  0  0
   44.9226    7.3683   10.3249 O   0  0  0  0  0  0  0  0  0  0  0  0
   42.6788    5.1821   12.0745 O   0  0  0  0  0  0  0  0  0  0  0  0
   43.4439    3.5450   13.9325 O   0  0  0  0  0  0  0  0  0  0  0  0
   44.7327    2.4807    9.3982 O   0  0  0  0  0  0  0  0  0  0  0  0
   43.9497    8.4558   12.0108 O   0  0  0  0  0  0  0  0  0  0  0  0
   44.6047    6.3578   11.4049 N   0  0  0  0  0  0  0  0  0  0  0  0
   44.0786    3.5378   12.1628 N   0  0  0  0  0  0  0  0  0  0  0  0
   44.2931    5.9605   12.7903 C   0  0  0  0  0  0  0  0  0  0  0  0
   43.4560    4.6654   12.8703 C   0  0  0  0  0  0  0  0  0  0  0  0
   45.2608    5.2253   10.7259 C   0  0  0  0  0  0  0  0  0  0  0  0
   44.4311    3.9246   10.7895 C   0  0  0  0  0  0  0  0  0  0  0  0
   44.1705    4.0716   12.9463 N   0  0  0  0  0  0  0  0  0  0  0  0
   45.1414    5.6922   10.9102 N   0  0  0  0  0  0  0  0  0  0  0  0
   43.9513    3.5458   11.5876 C   0  0  0  0  0  0  0  0  0  0  0  0
   44.7209    4.3372   10.5010 C   0  0  0  0  0  0  0  0  0  0  0  0
   43.7385    5.4835   12.9931 C   0  0  0  0  0  0  0  0  0  0  0  0
   44.0765    6.3035   11.7233 C   0  0  0  0  0  0  0  0  0  0  0  0
   44.1415    5.6150   12.0903 H   0  0  0  0  0  0  0  0  0  0  0  0
   44.1912    4.1225   11.7705 H   0  0  0  0  0  0  0  0  0  0  0  0
   45.9984    4.7751   11.4526 H   0  0  0  0  0  0  0  0  0  0  0  0
   45.9576    5.1733   13.1873 H   0  0  0  0  0  0  0  0  0  0  0  0
   44.6040    2.9885   13.1978 H   0  0  0  0  0  0  0  0  0  0  0  0
   42.8996    3.1093   12.8905 H   0  0  0  0  0  0  0  0  0  0  0  0
   43.2527    6.3905   13.2878 H   0  0  0  0  0  0  0  0  0  0  0  0
   41.6415    5.9709   10.3575 H   0  0  0  0  0  0  0  0  0  0  0  0
   44.9440    8.4898   12.0229 H   0  0  0  0  0  0  0  0  0  0  0  0
   45.2304    1.9205    9.9678 H   0  0  0  0  0  0  0  0  0  0  0  0
   44.7415    4.7238   13.6259 H   0  0  0  0  0  0  0  0  0  0  0  0
   43.7872    5.0923    9.8978 H   0  0  0  0  0  0  0  0  0  0  0  0
   42.6617    6.0753   12.0553 H   0  0  0  0  0  0  0  0  0  0  0  0
   43.7811    6.8208   13.1884 H   0  0  0  0  0  0  0  0  0  0  0  0
   45.7172    6.2888   11.7585 H   0  0  0  0  0  0  0  0  0  0  0  0
   44.5038    7.1345   10.8066 H   0  0  0  0  0  0  0  0  0  0  0  0
   44.0251    2.6815   12.7174 H   0  0  0  0  0  0  0  0  0  0  0  0
   42.8119    3.5274   11.7650 H   0  0  0  0  0  0  0  0  0  0  0  0
   45.8671    3.7415   11.4683 H   0  0  0  0  0  0  0  0  0  0  0  0
   44.7468    2.9955   10.3348 H   0  0  0  0  0  0  0  0  0  0  0  0
   45.6335    4.4768   10.6440 H   0  0  0  0  0  0  0  0  0  0  0  0
   44.0878    5.0192    9.9172 H   0  0  0  0  0  0  0  0  0  0  0  0
   44.3710    6.6141   13.4581 H   0  0  0  0  0  0  0  0  0  0  0  0
   45.8498    6.1599   12.6234 H   0  0  0  0  0  0  0  0  0  0  0  0
   42.2712    4.3862   12.4797 H   0  0  0  0  0  0  0  0  0  0  0  0
   43.8178    2.8776   14.5465 H   0  0  0  0  0  0  0  0  0  0  0  0
   44.3802    1.5679    9.3295 H   0  0  0  0  0  0  0  0  0  0  0  0
   43.8688    9.0772   11.2574 H   0  0  0  0  0  0  0  0  0  0  0  0
   43.7242    6.5445   10.9258 H   0  0  0  0  0  0  0  0  0  0  0  0
   43.4359    2.7478   12.1427 H   0  0  0  0  0  0  0  0  0  0  0  0
   45.2284    5.8367   13.3505 H   0  0  0  0  0  0  0  0  0  0  0  0
   43.7433    6.7759   13.2733 H   0  0  0  0  0  0  0  0  0  0  0  0
   43.3207    4.3899   13.9218 H   0  0  0  0  0  0  0  0  0  0  0  0
   42.4571    4.8486   12.4545 H   0  0  0  0  0  0  0  0  0  0  0  0
   45.4283    5.4957    9.6774 H   0  0  0  0  0  0  0  0  0  0  0  0
   46.2501    5.0597   11.1705 H   0  0  0  0  0  0  0  0  0  0  0  0
   43.5137    4.0474   10.2002 H   0  0  0  0  0  0  0  0  0  0  0  0
   45.0032    3.1116   10.3293 H   0  0  0  0  0  0  0  0  0  0  0  0
   45.1744    4.0490   13.1222 H   0  0  0  0  0  0  0  0  0  0  0  0
   45.9617    5.5953   11.5081 H   0  0  0  0  0  0  0  0  0  0  0  0
   42.8763    3.5673   11.3688 H   0  0  0  0  0  0  0  0  0  0  0  0
   44.2560    2.4938   11.5583 H   0  0  0  0  0  0  0  0  0  0  0  0
   44.1015    4.4087    9.5991 H   0  0  0  0  0  0  0  0  0  0  0  0
   45.6233    3.7818   10.2196 H   0  0  0  0  0  0  0  0  0  0  0  0
   44.2182    5.9477   13.8629 H   0  0  0  0  0  0  0  0  0  0  0  0
   42.6577    5.5237   13.1719 H   0  0  0  0  0  0  0  0  0  0  0  0
   44.3846    7.3141   12.0130 H   0  0  0  0  0  0  0  0  0  0  0  0
   43.1771    6.4146   11.1044 H   0  0  0  0  0  0  0  0  0  0  0  0
  3  2  1  0
  4  2  1  0
  5  2  1  0
  6  4  1  0
  7  3  1  0
  8  5  2  0
  9  7  2  0
 10  6  2  0
 11  2  1  0
 12  5  1  0
 13  7  1  0
 14  6  1  0
 16 20  1  0
 17 15  1  0
 18 17  1  0
 19 15  1  0
 20 19  1  0
 16 18  1  0
 22 21  1  0
 23 21  1  0
 24 21  1  0
 25 23  1  0
 26 22  1  0
 27 24  2  0
 28 26  2  0
 29 25  2  0
 30 21  1  0
 31 24  1  0
 32 26  1  0
 33 25  1  0
 35 39  1  0
 36 34  1  0
 37 36  1  0
 38 34  1  0
 39 38  1  0
 35 37  1  0
 41 45  1  0
 42 40  1  0
 43 42  1  0
 44 40  1  0
 45 44  1  0
 41 43  1  0
  1 46  1  0
  1 47  1  0
  3 48  1  0
  3 49  1  0
  4 50  1  0
  4 51  1  0
 11 52  1  0
 12 53  1  0
 13 54  1  0
 14 55  1  0
 15 56  1  0
 16 57  1  0
 17 58  1  0
 17 59  1  0
 18 60  1  0
 18 61  1  0
 19 62  1  0
 19 63  1  0
 20 64  1  0
 20 65  1  0
 22 66  1  0
 22 67  1  0
 23 68  1  0
 23 69  1  0
 30 70  1  0
 31 71  1  0
 32 72  1  0
 33 73  1  0
 34 74  1  0
 35 75  1  0
 36 76  1  0
 36 77  1  0
 37 78  1  0
 37 79  1  0
 38 80  1  0
 38 81  1  0
 39 82  1  0
 39 83  1  0
 40 84  1  0
 41 85  1  0
 42 86  1  0
 42 87  1  0
 43 88  1  0
 43 89  1  0
 44 90  1  0
 44 91  1  0
 45 92  1  0
 45 93  1  0
M  END
> <Uni-Dock RESULT> 
ENERGY=   -7.742  LOWER_BOUND=    0.972  UPPER_BOUND=    3.410
INTER + INTRA:          -7.742
INTER:                  -7.742
INTRA:                   0.000
UNBOUND:                 0.000

$$$$

     RDKit          3D

 93 90  0  0  0  0  0  0  0  0999 V2000
   49.0097    4.5204   17.9637 O   0  0  0  0  0  0  0  0  0  0  0  0
   48.0694    4.2531   17.8080 C   0  0  0  0  0  0  0  0  0  0  0  0
   48.5718    4.6191   19.2135 C   0  0  0  0  0  0  0  0  0  0  0  0
   48.1597    2.7447   17.5515 C   0  0  0  0  0  0  0  0  0  0  0  0
   48.8904    5.0126   16.7466 C   0  0  0  0  0  0  0  0  0  0  0  0
   49.5220    2.2742   17.1380 C   0  0  0  0  0  0  0  0  0  0  0  0
   48.6733    6.1002   19.4679 C   0  0  0  0  0  0  0  0  0  0  0  0
   50.0952    5.2080   16.7743 O   0  0  0  0  0  0  0  0  0  0  0  0
   49.4111    6.6302   20.2815 O   0  0  0  0  0  0  0  0  0  0  0  0
   49.8928    2.0713   15.9947 O   0  0  0  0  0  0  0  0  0  0  0  0
   46.6649    4.5624   17.7504 O   0  0  0  0  0  0  0  0  0  0  0  0
   48.1412    5.4849   15.7308 O   0  0  0  0  0  0  0  0  0  0  0  0
   47.7996    6.8487   18.7666 O   0  0  0  0  0  0  0  0  0  0  0  0
   50.3527    2.0959   18.1789 O   0  0  0  0  0  0  0  0  0  0  0  0
   47.2387    3.9050   17.9269 N   0  0  0  0  0  0  0  0  0  0  0  0
   50.0540    4.8533   17.8413 N   0  0  0  0  0  0  0  0  0  0  0  0
   47.5853    5.3228   17.7245 C   0  0  0  0  0  0  0  0  0  0  0  0
   48.9533    5.7012   18.3315 C   0  0  0  0  0  0  0  0  0  0  0  0
   48.3395    3.0571   17.4366 C   0  0  0  0  0  0  0  0  0  0  0  0
   49.7077    3.4356   18.0434 C   0  0  0  0  0  0  0  0  0  0  0  0
   48.2730    4.3610   17.8448 C   0  0  0  0  0  0  0  0  0  0  0  0
   49.7857    4.1354   17.7256 C   0  0  0  0  0  0  0  0  0  0  0  0
   47.8999    5.5136   18.7857 C   0  0  0  0  0  0  0  0  0  0  0  0
   47.6101    3.1097   18.4501 C   0  0  0  0  0  0  0  0  0  0  0  0
   48.5300    6.8201   18.4045 C   0  0  0  0  0  0  0  0  0  0  0  0
   50.1305    2.8275   17.0652 C   0  0  0  0  0  0  0  0  0  0  0  0
   47.8962    2.5782   19.5108 O   0  0  0  0  0  0  0  0  0  0  0  0
   49.3803    2.0854   16.4548 O   0  0  0  0  0  0  0  0  0  0  0  0
   49.7256    7.0567   18.3502 O   0  0  0  0  0  0  0  0  0  0  0  0
   47.7397    4.6712   16.5501 O   0  0  0  0  0  0  0  0  0  0  0  0
   46.6292    2.6114   17.6644 O   0  0  0  0  0  0  0  0  0  0  0  0
   51.4378    2.5282   17.1906 O   0  0  0  0  0  0  0  0  0  0  0  0
   47.6285    7.7902   18.1614 O   0  0  0  0  0  0  0  0  0  0  0  0
   48.8177    5.8487   18.2795 N   0  0  0  0  0  0  0  0  0  0  0  0
   48.4753    2.9677   17.6582 N   0  0  0  0  0  0  0  0  0  0  0  0
   47.5161    5.1669   18.4018 C   0  0  0  0  0  0  0  0  0  0  0  0
   47.3901    3.9409   17.4714 C   0  0  0  0  0  0  0  0  0  0  0  0
   49.8899    4.8622   18.5065 C   0  0  0  0  0  0  0  0  0  0  0  0
   49.7826    3.6341   17.5767 C   0  0  0  0  0  0  0  0  0  0  0  0
   47.6904    3.3029   18.0810 N   0  0  0  0  0  0  0  0  0  0  0  0
   49.5895    5.2814   18.5214 N   0  0  0  0  0  0  0  0  0  0  0  0
   48.9536    3.1139   17.3468 C   0  0  0  0  0  0  0  0  0  0  0  0
   50.0714    4.0829   17.8059 C   0  0  0  0  0  0  0  0  0  0  0  0
   47.2230    4.6909   17.8881 C   0  0  0  0  0  0  0  0  0  0  0  0
   48.3478    5.7557   17.8873 C   0  0  0  0  0  0  0  0  0  0  0  0
   48.1672    4.9992   17.9772 H   0  0  0  0  0  0  0  0  0  0  0  0
   48.7625    3.6182   17.7110 H   0  0  0  0  0  0  0  0  0  0  0  0
   49.5765    4.2145   19.3767 H   0  0  0  0  0  0  0  0  0  0  0  0
   47.9008    4.2101   19.9779 H   0  0  0  0  0  0  0  0  0  0  0  0
   47.8230    2.1667   18.4210 H   0  0  0  0  0  0  0  0  0  0  0  0
   47.4693    2.4577   16.7465 H   0  0  0  0  0  0  0  0  0  0  0  0
   46.6061    5.5351   17.6593 H   0  0  0  0  0  0  0  0  0  0  0  0
   48.7857    5.8911   15.1134 H   0  0  0  0  0  0  0  0  0  0  0  0
   47.9676    7.7598   19.0963 H   0  0  0  0  0  0  0  0  0  0  0  0
   51.2029    1.8241   17.7694 H   0  0  0  0  0  0  0  0  0  0  0  0
   47.1497    3.7476   18.9314 H   0  0  0  0  0  0  0  0  0  0  0  0
   50.1433    5.0108   16.8366 H   0  0  0  0  0  0  0  0  0  0  0  0
   47.5804    5.5448   16.6502 H   0  0  0  0  0  0  0  0  0  0  0  0
   46.8044    5.9437   18.1770 H   0  0  0  0  0  0  0  0  0  0  0  0
   48.9071    5.6334   19.4255 H   0  0  0  0  0  0  0  0  0  0  0  0
   49.1799    6.7456   18.0904 H   0  0  0  0  0  0  0  0  0  0  0  0
   48.1129    2.0127   17.6778 H   0  0  0  0  0  0  0  0  0  0  0  0
   48.3863    3.1251   16.3427 H   0  0  0  0  0  0  0  0  0  0  0  0
   49.7125    3.2144   19.1179 H   0  0  0  0  0  0  0  0  0  0  0  0
   50.4888    2.8151   17.5901 H   0  0  0  0  0  0  0  0  0  0  0  0
   50.2414    4.1306   18.7233 H   0  0  0  0  0  0  0  0  0  0  0  0
   50.2473    4.9170   17.1131 H   0  0  0  0  0  0  0  0  0  0  0  0
   46.8090    5.6456   18.7890 H   0  0  0  0  0  0  0  0  0  0  0  0
   48.1890    5.3036   19.8228 H   0  0  0  0  0  0  0  0  0  0  0  0
   47.3753    3.8304   16.1979 H   0  0  0  0  0  0  0  0  0  0  0  0
   46.3299    1.8005   18.1281 H   0  0  0  0  0  0  0  0  0  0  0  0
   51.5485    1.6782   16.7139 H   0  0  0  0  0  0  0  0  0  0  0  0
   48.1691    8.5701   17.9174 H   0  0  0  0  0  0  0  0  0  0  0  0
   48.9040    6.1926   17.3236 H   0  0  0  0  0  0  0  0  0  0  0  0
   48.4140    2.2436   16.9444 H   0  0  0  0  0  0  0  0  0  0  0  0
   47.3634    4.8623   19.4447 H   0  0  0  0  0  0  0  0  0  0  0  0
   46.7218    5.8832   18.1642 H   0  0  0  0  0  0  0  0  0  0  0  0
   46.4335    3.4426   17.6619 H   0  0  0  0  0  0  0  0  0  0  0  0
   47.3767    4.2743   16.4259 H   0  0  0  0  0  0  0  0  0  0  0  0
   50.8563    5.3529   18.3462 H   0  0  0  0  0  0  0  0  0  0  0  0
   49.8702    4.5399   19.5551 H   0  0  0  0  0  0  0  0  0  0  0  0
   49.9685    3.9431   16.5404 H   0  0  0  0  0  0  0  0  0  0  0  0
   50.5636    2.9135   17.8430 H   0  0  0  0  0  0  0  0  0  0  0  0
   47.8941    3.1798   19.0723 H   0  0  0  0  0  0  0  0  0  0  0  0
   49.3560    5.0014   19.4737 H   0  0  0  0  0  0  0  0  0  0  0  0
   48.7638    3.2499   16.2747 H   0  0  0  0  0  0  0  0  0  0  0  0
   49.2906    2.0794   17.4764 H   0  0  0  0  0  0  0  0  0  0  0  0
   50.6595    4.3951   16.9348 H   0  0  0  0  0  0  0  0  0  0  0  0
   50.7583    3.5520   18.4754 H   0  0  0  0  0  0  0  0  0  0  0  0
   46.5116    4.9153   18.6917 H   0  0  0  0  0  0  0  0  0  0  0  0
   46.6642    4.7553   16.9471 H   0  0  0  0  0  0  0  0  0  0  0  0
   48.0005    6.6534   18.4107 H   0  0  0  0  0  0  0  0  0  0  0  0
   48.5693    6.0591   16.8563 H   0  0  0  0  0  0  0  0  0  0  0  0
  3  2  1  0
  4  2  1  0
  5  2  1  0
  6  4  1  0
  7  3  1  0
  8  5  2  0
  9  7  2  0
 10  6  2  0
 11  2  1  0
 12  5  1  0
 13  7  1  0
 14  6  1  0
 16 20  1  0
 17 15  1  0
 18 17  1  0
 19 15  1  0
 20 19  1  0
 16 18  1  0
 22 21  1  0
 23 21  1  0
 24 21  1  0
 25 23  1  0
 26 22  1  0
 27 24  2  0
 28 26  2  0
 29 25  2  0
 30 21  1  0
 31 24  1  0
 32 26  1  0
 33 25  1  0
 35 39  1  0
 36 34  1  0
 37 36  1  0
 38 34  1  0
 39 38  1  0
 35 37  1  0
 41 45  1  0
 42 40  1  0
 43 42  1  0
 44 40  1  0
 45 44  1  0
 41 43  1  0
  1 46  1  0
  1 47  1  0
  3 48  1  0
  3 49  1  0
  4 50  1  0
  4 51  1  0
 11 52  1  0
 12 53  1  0
 13 54  1  0
 14 55  1  0
 15 56  1  0
 16 57  1  0
 17 58  1  0
 17 59  1  0
 18 60  1  0
 18 61  1  0
 19 62  1  0
 19 63  1  0
 20 64  1  0
 20 65  1  0
 22 66  1  0
 22 67  1  0
 23 68  1  0
 23 69  1  0
 30 70  1  0
 31 71  1  0
 32 72  1  0
 33 73  1  0
 34 74  1  0
 35 75  1  0
 36 76  1  0
 36 77  1  0
 37 78  1  0
 37 79  1  0
 38 80  1  0
 38 81  1  0
 39 82  1  0
 39 83  1  0
 40 84  1  0
 41 85  1  0
 42 86  1  0
 42 87  1  0
 43 88  1  0
 43 89  1  0
 44 90  1  0
 44 91  1  0
 45 92  1  0
 45 93  1  0
M  END
> <Uni-Dock RESULT> 
ENERGY=   -6.632  LOWER_BOUND=    6.794  UPPER_BOUND=    8.467
INTER + INTRA:          -6.632
INTER:                  -6.632
INTRA:                   0.000
UNBOUND:                 0.000

$$$$

     RDKit          3D

 93 90  0  0  0  0  0  0  0  0999 V2000
   45.2560    5.4792   12.5840 O   0  0  0  0  0  0  0  0  0  0  0  0
   45.6991    4.6020   12.7024 C   0  0  0  0  0  0  0  0  0  0  0  0
   44.5536    5.0474   13.6250 C   0  0  0  0  0  0  0  0  0  0  0  0
   47.0686    4.9644   13.2878 C   0  0  0  0  0  0  0  0  0  0  0  0
   45.5355    5.2553   11.3153 C   0  0  0  0  0  0  0  0  0  0  0  0
   47.4832    6.3842   13.0424 C   0  0  0  0  0  0  0  0  0  0  0  0
   43.1798    4.8785   13.0312 C   0  0  0  0  0  0  0  0  0  0  0  0
   45.1831    6.4040   11.0989 O   0  0  0  0  0  0  0  0  0  0  0  0
   42.1893    5.5173   13.3445 O   0  0  0  0  0  0  0  0  0  0  0  0
   48.2229    6.7706   12.1539 O   0  0  0  0  0  0  0  0  0  0  0  0
   45.6816    3.1639   12.6451 O   0  0  0  0  0  0  0  0  0  0  0  0
   45.8133    4.4185   10.2961 O   0  0  0  0  0  0  0  0  0  0  0  0
   43.0759    3.8729   12.1404 O   0  0  0  0  0  0  0  0  0  0  0  0
   46.9377    7.2474   13.9158 O   0  0  0  0  0  0  0  0  0  0  0  0
   46.0422    3.8511   13.0815 N   0  0  0  0  0  0  0  0  0  0  0  0
   44.8962    6.4429   12.1862 N   0  0  0  0  0  0  0  0  0  0  0  0
   44.9350    3.9286   12.1123 C   0  0  0  0  0  0  0  0  0  0  0  0
   44.0904    5.2118   12.2638 C   0  0  0  0  0  0  0  0  0  0  0  0
   46.8480    5.0822   13.0039 C   0  0  0  0  0  0  0  0  0  0  0  0
   46.0033    6.3656   13.1551 C   0  0  0  0  0  0  0  0  0  0  0  0
   45.5603    4.7828   12.6525 C   0  0  0  0  0  0  0  0  0  0  0  0
   45.5900    6.3094   12.5049 C   0  0  0  0  0  0  0  0  0  0  0  0
   44.1501    4.2170   12.8621 C   0  0  0  0  0  0  0  0  0  0  0  0
   46.3558    4.3691   13.9046 C   0  0  0  0  0  0  0  0  0  0  0  0
   43.1910    4.5913   11.7713 C   0  0  0  0  0  0  0  0  0  0  0  0
   46.9785    6.8797   12.6164 C   0  0  0  0  0  0  0  0  0  0  0  0
   46.1700    4.7622   15.0449 O   0  0  0  0  0  0  0  0  0  0  0  0
   48.0340    6.2705   12.5883 O   0  0  0  0  0  0  0  0  0  0  0  0
   42.8509    5.7222   11.4654 O   0  0  0  0  0  0  0  0  0  0  0  0
   46.0928    4.1843   11.4629 O   0  0  0  0  0  0  0  0  0  0  0  0
   47.3404    3.4861   13.6247 O   0  0  0  0  0  0  0  0  0  0  0  0
   46.9648    8.2213   12.7359 O   0  0  0  0  0  0  0  0  0  0  0  0
   42.6575    3.5237   11.1480 O   0  0  0  0  0  0  0  0  0  0  0  0
   44.0173    5.0508   12.1563 N   0  0  0  0  0  0  0  0  0  0  0  0
   46.7803    5.2350   13.2220 N   0  0  0  0  0  0  0  0  0  0  0  0
   44.7022    3.8983   12.7701 C   0  0  0  0  0  0  0  0  0  0  0  0
   46.2402    3.9872   12.6645 C   0  0  0  0  0  0  0  0  0  0  0  0
   44.5482    6.2888   12.7561 C   0  0  0  0  0  0  0  0  0  0  0  0
   46.0849    6.3965   12.6499 C   0  0  0  0  0  0  0  0  0  0  0  0
   46.3873    4.4077   13.4832 N   0  0  0  0  0  0  0  0  0  0  0  0
   44.2388    5.9168   12.5769 N   0  0  0  0  0  0  0  0  0  0  0  0
   46.7606    5.6742   12.8297 C   0  0  0  0  0  0  0  0  0  0  0  0
   45.5473    6.6010   12.5684 C   0  0  0  0  0  0  0  0  0  0  0  0
   45.4187    3.6907   12.6288 C   0  0  0  0  0  0  0  0  0  0  0  0
   44.3776    4.6007   11.9308 C   0  0  0  0  0  0  0  0  0  0  0  0
   44.9777    4.5634   12.4323 H   0  0  0  0  0  0  0  0  0  0  0  0
   46.1736    5.3985   12.8848 H   0  0  0  0  0  0  0  0  0  0  0  0
   44.6502    6.1115   13.8664 H   0  0  0  0  0  0  0  0  0  0  0  0
   44.5695    4.4733   14.5588 H   0  0  0  0  0  0  0  0  0  0  0  0
   47.1170    4.7512   14.3628 H   0  0  0  0  0  0  0  0  0  0  0  0
   47.8472    4.3277   12.8458 H   0  0  0  0  0  0  0  0  0  0  0  0
   44.9393    2.9263   12.0532 H   0  0  0  0  0  0  0  0  0  0  0  0
   45.7230    4.9691    9.4897 H   0  0  0  0  0  0  0  0  0  0  0  0
   42.1203    3.8752   11.9081 H   0  0  0  0  0  0  0  0  0  0  0  0
   47.2616    8.1275   13.6242 H   0  0  0  0  0  0  0  0  0  0  0  0
   45.6340    3.8059   14.0159 H   0  0  0  0  0  0  0  0  0  0  0  0
   45.3043    6.4883   11.2515 H   0  0  0  0  0  0  0  0  0  0  0  0
   45.3420    3.8686   11.0953 H   0  0  0  0  0  0  0  0  0  0  0  0
   44.2899    3.0531   12.2445 H   0  0  0  0  0  0  0  0  0  0  0  0
   43.5531    5.1935   13.2202 H   0  0  0  0  0  0  0  0  0  0  0  0
   43.3294    5.2395   11.4761 H   0  0  0  0  0  0  0  0  0  0  0  0
   47.6089    5.0545   13.7916 H   0  0  0  0  0  0  0  0  0  0  0  0
   47.3849    5.1010   12.0474 H   0  0  0  0  0  0  0  0  0  0  0  0
   45.5957    6.4254   14.1719 H   0  0  0  0  0  0  0  0  0  0  0  0
   46.6485    7.2412   13.0220 H   0  0  0  0  0  0  0  0  0  0  0  0
   44.9802    6.7716   13.2909 H   0  0  0  0  0  0  0  0  0  0  0  0
   45.2147    6.6115   11.5215 H   0  0  0  0  0  0  0  0  0  0  0  0
   44.1991    3.1206   12.9158 H   0  0  0  0  0  0  0  0  0  0  0  0
   43.7119    4.5536   13.8097 H   0  0  0  0  0  0  0  0  0  0  0  0
   47.0316    3.9758   11.6605 H   0  0  0  0  0  0  0  0  0  0  0  0
   47.7977    3.3470   14.4813 H   0  0  0  0  0  0  0  0  0  0  0  0
   47.9099    8.4799   12.7814 H   0  0  0  0  0  0  0  0  0  0  0  0
   42.0700    3.9086   10.4647 H   0  0  0  0  0  0  0  0  0  0  0  0
   44.2456    5.0596   11.1627 H   0  0  0  0  0  0  0  0  0  0  0  0
   47.7768    5.2982   13.0208 H   0  0  0  0  0  0  0  0  0  0  0  0
   44.4035    3.8182   13.8228 H   0  0  0  0  0  0  0  0  0  0  0  0
   44.3589    2.9828   12.2756 H   0  0  0  0  0  0  0  0  0  0  0  0
   46.6861    3.1410   13.1983 H   0  0  0  0  0  0  0  0  0  0  0  0
   46.5409    3.8987   11.6128 H   0  0  0  0  0  0  0  0  0  0  0  0
   44.0905    7.1465   12.2506 H   0  0  0  0  0  0  0  0  0  0  0  0
   44.2414    6.3428   13.8081 H   0  0  0  0  0  0  0  0  0  0  0  0
   46.3714    6.5086   11.5967 H   0  0  0  0  0  0  0  0  0  0  0  0
   46.4179    7.3001   13.1722 H   0  0  0  0  0  0  0  0  0  0  0  0
   45.9153    4.6438   14.3555 H   0  0  0  0  0  0  0  0  0  0  0  0
   43.9814    5.7515   13.5496 H   0  0  0  0  0  0  0  0  0  0  0  0
   47.2642    5.4482   11.8813 H   0  0  0  0  0  0  0  0  0  0  0  0
   47.4919    6.1972   13.4559 H   0  0  0  0  0  0  0  0  0  0  0  0
   45.6818    7.1100   11.6066 H   0  0  0  0  0  0  0  0  0  0  0  0
   45.5168    7.3826   13.3365 H   0  0  0  0  0  0  0  0  0  0  0  0
   44.8974    2.9611   13.2598 H   0  0  0  0  0  0  0  0  0  0  0  0
   45.9633    3.1171   11.8699 H   0  0  0  0  0  0  0  0  0  0  0  0
   43.4024    4.1015   11.9252 H   0  0  0  0  0  0  0  0  0  0  0  0
   44.6607    4.7489   10.8810 H   0  0  0  0  0  0  0  0  0  0  0  0
  3  2  1  0
  4  2  1  0
  5  2  1  0
  6  4  1  0
  7  3  1  0
  8  5  2  0
  9  7  2  0
 10  6  2  0
 11  2  1  0
 12  5  1  0
 13  7  1  0
 14  6  1  0
 16 20  1  0
 17 15  1  0
 18 17  1  0
 19 15  1  0
 20 19  1  0
 16 18  1  0
 22 21  1  0
 23 21  1  0
 24 21  1  0
 25 23  1  0
 26 22  1  0
 27 24  2  0
 28 26  2  0
 29 25  2  0
 30 21  1  0
 31 24  1  0
 32 26  1  0
 33 25  1  0
 35 39  1  0
 36 34  1  0
 37 36  1  0
 38 34  1  0
 39 38  1  0
 35 37  1  0
 41 45  1  0
 42 40  1  0
 43 42  1  0
 44 40  1  0
 45 44  1  0
 41 43  1  0
  1 46  1  0
  1 47  1  0
  3 48  1  0
  3 49  1  0
  4 50  1  0
  4 51  1  0
 11 52  1  0
 12 53  1  0
 13 54  1  0
 14 55  1  0
 15 56  1  0
 16 57  1  0
 17 58  1  0
 17 59  1  0
 18 60  1  0
 18 61  1  0
 19 62  1  0
 19 63  1  0
 20 64  1  0
 20 65  1  0
 22 66  1  0
 22 67  1  0
 23 68  1  0
 23 69  1  0
 30 70  1  0
 31 71  1  0
 32 72  1  0
 33 73  1  0
 34 74  1  0
 35 75  1  0
 36 76  1  0
 36 77  1  0
 37 78  1  0
 37 79  1  0
 38 80  1  0
 38 81  1  0
 39 82  1  0
 39 83  1  0
 40 84  1  0
 41 85  1  0
 42 86  1  0
 42 87  1  0
 43 88  1  0
 43 89  1  0
 44 90  1  0
 44 91  1  0
 45 92  1  0
 45 93  1  0
M  END
> <Uni-Dock RESULT> 
ENERGY=   -6.287  LOWER_BOUND=    1.486  UPPER_BOUND=    2.870
INTER + INTRA:          -6.287
INTER:                  -6.287
INTRA:                   0.000
UNBOUND:                 0.000

$$$$

     RDKit          3D

 93 90  0  0  0  0  0  0  0  0999 V2000
   48.3019    4.9122   18.3332 O   0  0  0  0  0  0  0  0  0  0  0  0
   49.1985    4.6618   18.6700 C   0  0  0  0  0  0  0  0  0  0  0  0
   47.9641    3.7968   18.9698 C   0  0  0  0  0  0  0  0  0  0  0  0
   49.4612    5.6768   19.7882 C   0  0  0  0  0  0  0  0  0  0  0  0
   49.0048    5.4003   17.3304 C   0  0  0  0  0  0  0  0  0  0  0  0
   48.6251    6.9181   19.6975 C   0  0  0  0  0  0  0  0  0  0  0  0
   47.5477    2.8987   17.8347 C   0  0  0  0  0  0  0  0  0  0  0  0
   47.9697    5.9132   16.9355 O   0  0  0  0  0  0  0  0  0  0  0  0
   46.4228    2.4653   17.6504 O   0  0  0  0  0  0  0  0  0  0  0  0
   48.9735    7.9822   19.2156 O   0  0  0  0  0  0  0  0  0  0  0  0
   50.3491    3.7973   18.6669 O   0  0  0  0  0  0  0  0  0  0  0  0
   50.1197    5.4331   16.5739 O   0  0  0  0  0  0  0  0  0  0  0  0
   48.5566    2.5106   17.0303 O   0  0  0  0  0  0  0  0  0  0  0  0
   47.3909    6.7563   20.2033 O   0  0  0  0  0  0  0  0  0  0  0  0
   49.8642    4.3291   19.1910 N   0  0  0  0  0  0  0  0  0  0  0  0
   47.4638    5.3679   17.7798 N   0  0  0  0  0  0  0  0  0  0  0  0
   49.5046    3.8977   17.8287 C   0  0  0  0  0  0  0  0  0  0  0  0
   47.9927    4.0140   17.5393 C   0  0  0  0  0  0  0  0  0  0  0  0
   49.3352    5.6831   19.4315 C   0  0  0  0  0  0  0  0  0  0  0  0
   47.8233    5.7994   19.1418 C   0  0  0  0  0  0  0  0  0  0  0  0
   48.9961    4.6876   18.5567 C   0  0  0  0  0  0  0  0  0  0  0  0
   47.8424    5.6828   18.3784 C   0  0  0  0  0  0  0  0  0  0  0  0
   48.6372    3.2557   18.1399 C   0  0  0  0  0  0  0  0  0  0  0  0
   49.3738    4.5959   20.0468 C   0  0  0  0  0  0  0  0  0  0  0  0
   48.1563    3.1516   16.7231 C   0  0  0  0  0  0  0  0  0  0  0  0
   48.0908    6.9949   19.0727 C   0  0  0  0  0  0  0  0  0  0  0  0
   48.6243    4.3207   20.9698 O   0  0  0  0  0  0  0  0  0  0  0  0
   49.1419    7.3984   19.5400 O   0  0  0  0  0  0  0  0  0  0  0  0
   47.1684    3.6924   16.2542 O   0  0  0  0  0  0  0  0  0  0  0  0
   50.1071    5.1055   17.7517 O   0  0  0  0  0  0  0  0  0  0  0  0
   50.6799    4.8660   20.2680 O   0  0  0  0  0  0  0  0  0  0  0  0
   46.9818    7.7578   19.1214 O   0  0  0  0  0  0  0  0  0  0  0  0
   48.9076    2.3265   15.9698 O   0  0  0  0  0  0  0  0  0  0  0  0
   48.1139    3.8993   17.4168 N   0  0  0  0  0  0  0  0  0  0  0  0
   49.1131    5.6542   19.5907 N   0  0  0  0  0  0  0  0  0  0  0  0
   49.2100    3.4924   18.3152 C   0  0  0  0  0  0  0  0  0  0  0  0
   49.9847    4.6932   18.9003 C   0  0  0  0  0  0  0  0  0  0  0  0
   47.2328    4.8336   18.1413 C   0  0  0  0  0  0  0  0  0  0  0  0
   47.9920    6.0450   18.7246 C   0  0  0  0  0  0  0  0  0  0  0  0
   49.4851    4.7822   19.6822 N   0  0  0  0  0  0  0  0  0  0  0  0
   47.4180    4.4441   17.8580 N   0  0  0  0  0  0  0  0  0  0  0  0
   48.8703    6.0363   19.2137 C   0  0  0  0  0  0  0  0  0  0  0  0
   47.5693    5.8074   18.4049 C   0  0  0  0  0  0  0  0  0  0  0  0
   49.7961    3.9316   18.5151 C   0  0  0  0  0  0  0  0  0  0  0  0
   48.7294    3.9622   17.3925 C   0  0  0  0  0  0  0  0  0  0  0  0
   48.9276    4.2067   18.1094 H   0  0  0  0  0  0  0  0  0  0  0  0
   48.7623    5.4267   19.0131 H   0  0  0  0  0  0  0  0  0  0  0  0
   47.0978    4.4308   19.1874 H   0  0  0  0  0  0  0  0  0  0  0  0
   48.1513    3.1502   19.8350 H   0  0  0  0  0  0  0  0  0  0  0  0
   49.3369    5.2254   20.7803 H   0  0  0  0  0  0  0  0  0  0  0  0
   50.5106    6.0011   19.7632 H   0  0  0  0  0  0  0  0  0  0  0  0
   50.3210    3.3134   17.8166 H   0  0  0  0  0  0  0  0  0  0  0  0
   49.8739    5.9693   15.7906 H   0  0  0  0  0  0  0  0  0  0  0  0
   48.1181    1.8983   16.3979 H   0  0  0  0  0  0  0  0  0  0  0  0
   46.9495    7.6204   20.0520 H   0  0  0  0  0  0  0  0  0  0  0  0
   49.4064    3.6960   19.8479 H   0  0  0  0  0  0  0  0  0  0  0  0
   47.9214    6.0011   17.1226 H   0  0  0  0  0  0  0  0  0  0  0  0
   50.0698    4.4936   17.1014 H   0  0  0  0  0  0  0  0  0  0  0  0
   49.8198    2.8571   17.6946 H   0  0  0  0  0  0  0  0  0  0  0  0
   47.4388    3.2965   18.1574 H   0  0  0  0  0  0  0  0  0  0  0  0
   47.8021    3.7424   16.4951 H   0  0  0  0  0  0  0  0  0  0  0  0
   49.5259    5.9545   20.4756 H   0  0  0  0  0  0  0  0  0  0  0  0
   49.8886    6.4005   18.8131 H   0  0  0  0  0  0  0  0  0  0  0  0
   47.2579    5.2030   19.8685 H   0  0  0  0  0  0  0  0  0  0  0  0
   47.5084    6.8405   19.2751 H   0  0  0  0  0  0  0  0  0  0  0  0
   46.9188    5.2606   18.7931 H   0  0  0  0  0  0  0  0  0  0  0  0
   47.6959    5.9212   17.3197 H   0  0  0  0  0  0  0  0  0  0  0  0
   49.5186    2.6092   18.2526 H   0  0  0  0  0  0  0  0  0  0  0  0
   47.8562    2.8278   18.7805 H   0  0  0  0  0  0  0  0  0  0  0  0
   50.7108    5.5922   18.3536 H   0  0  0  0  0  0  0  0  0  0  0  0
   50.7780    4.8276   21.2433 H   0  0  0  0  0  0  0  0  0  0  0  0
   47.2629    8.5826   19.5718 H   0  0  0  0  0  0  0  0  0  0  0  0
   48.4938    2.3619   15.0822 H   0  0  0  0  0  0  0  0  0  0  0  0
   48.5230    4.4000   16.6285 H   0  0  0  0  0  0  0  0  0  0  0  0
   49.6501    6.4798   19.8507 H   0  0  0  0  0  0  0  0  0  0  0  0
   48.8029    2.8780   19.1280 H   0  0  0  0  0  0  0  0  0  0  0  0
   49.9028    2.8541   17.7558 H   0  0  0  0  0  0  0  0  0  0  0  0
   50.7346    4.3257   19.6091 H   0  0  0  0  0  0  0  0  0  0  0  0
   50.5266    5.2066   18.0959 H   0  0  0  0  0  0  0  0  0  0  0  0
   46.4592    5.1902   17.4522 H   0  0  0  0  0  0  0  0  0  0  0  0
   46.7150    4.2948   18.9446 H   0  0  0  0  0  0  0  0  0  0  0  0
   48.3675    6.6701   17.9047 H   0  0  0  0  0  0  0  0  0  0  0  0
   47.2949    6.6594   19.3049 H   0  0  0  0  0  0  0  0  0  0  0  0
   48.7885    4.2940   20.2441 H   0  0  0  0  0  0  0  0  0  0  0  0
   47.1241    3.8346   18.6208 H   0  0  0  0  0  0  0  0  0  0  0  0
   49.5981    6.5788   18.5973 H   0  0  0  0  0  0  0  0  0  0  0  0
   48.6556    6.6737   20.0787 H   0  0  0  0  0  0  0  0  0  0  0  0
   47.5216    6.5326   17.5840 H   0  0  0  0  0  0  0  0  0  0  0  0
   46.7036    6.0034   19.0485 H   0  0  0  0  0  0  0  0  0  0  0  0
   49.9127    2.9031   18.8768 H   0  0  0  0  0  0  0  0  0  0  0  0
   50.7658    4.2302   18.1000 H   0  0  0  0  0  0  0  0  0  0  0  0
   48.6117    2.9566   16.9738 H   0  0  0  0  0  0  0  0  0  0  0  0
   49.0733    4.6055   16.5728 H   0  0  0  0  0  0  0  0  0  0  0  0
  3  2  1  0
  4  2  1  0
  5  2  1  0
  6  4  1  0
  7  3  1  0
  8  5  2  0
  9  7  2  0
 10  6  2  0
 11  2  1  0
 12  5  1  0
 13  7  1  0
 14  6  1  0
 16 20  1  0
 17 15  1  0
 18 17  1  0
 19 15  1  0
 20 19  1  0
 16 18  1  0
 22 21  1  0
 23 21  1  0
 24 21  1  0
 25 23  1  0
 26 22  1  0
 27 24  2  0
 28 26  2  0
 29 25  2  0
 30 21  1  0
 31 24  1  0
 32 26  1  0
 33 25  1  0
 35 39  1  0
 36 34  1  0
 37 36  1  0
 38 34  1  0
 39 38  1  0
 35 37  1  0
 41 45  1  0
 42 40  1  0
 43 42  1  0
 44 40  1  0
 45 44  1  0
 41 43  1  0
  1 46  1  0
  1 47  1  0
  3 48  1  0
  3 49  1  0
  4 50  1  0
  4 51  1  0
 11 52  1  0
 12 53  1  0
 13 54  1  0
 14 55  1  0
 15 56  1  0
 16 57  1  0
 17 58  1  0
 17 59  1  0
 18 60  1  0
 18 61  1  0
 19 62  1  0
 19 63  1  0
 20 64  1  0
 20 65  1  0
 22 66  1  0
 22 67  1  0
 23 68  1  0
 23 69  1  0
 30 70  1  0
 31 71  1  0
 32 72  1  0
 33 73  1  0
 34 74  1  0
 35 75  1  0
 36 76  1  0
 36 77  1  0
 37 78  1  0
 37 79  1  0
 38 80  1  0
 38 81  1  0
 39 82  1  0
 39 83  1  0
 40 84  1  0
 41 85  1  0
 42 86  1  0
 42 87  1  0
 43 88  1  0
 43 89  1  0
 44 90  1  0
 44 91  1  0
 45 92  1  0
 45 93  1  0
M  END
> <Uni-Dock RESULT> 
ENERGY=   -6.143  LOWER_BOUND=    7.044  UPPER_BOUND=    8.462
INTER + INTRA:          -6.143
INTER:                  -6.143
INTRA:                   0.000
UNBOUND:                 0.000

$$$$

     RDKit          3D

 93 90  0  0  0  0  0  0  0  0999 V2000
   48.9721    4.8306   17.7506 O   0  0  0  0  0  0  0  0  0  0  0  0
   48.3138    5.3647   18.2617 C   0  0  0  0  0  0  0  0  0  0  0  0
   48.1531    5.1354   16.7506 C   0  0  0  0  0  0  0  0  0  0  0  0
   49.0594    6.6707   18.5581 C   0  0  0  0  0  0  0  0  0  0  0  0
   49.0701    4.1779   18.8917 C   0  0  0  0  0  0  0  0  0  0  0  0
   50.5516    6.5594   18.4619 C   0  0  0  0  0  0  0  0  0  0  0  0
   47.5844    3.7891   16.3864 C   0  0  0  0  0  0  0  0  0  0  0  0
   50.0260    3.5948   18.4050 O   0  0  0  0  0  0  0  0  0  0  0  0
   47.7540    3.2121   15.3255 O   0  0  0  0  0  0  0  0  0  0  0  0
   51.3187    6.3943   19.3947 O   0  0  0  0  0  0  0  0  0  0  0  0
   46.9994    5.5455   18.8197 O   0  0  0  0  0  0  0  0  0  0  0  0
   48.5670    3.7971   20.0826 O   0  0  0  0  0  0  0  0  0  0  0  0
   46.7654    3.2586   17.3155 O   0  0  0  0  0  0  0  0  0  0  0  0
   51.0029    6.6472   17.1994 O   0  0  0  0  0  0  0  0  0  0  0  0
   47.6932    5.9903   18.4827 N   0  0  0  0  0  0  0  0  0  0  0  0
   49.7843    4.1459   17.4542 N   0  0  0  0  0  0  0  0  0  0  0  0
   47.5077    4.5287   18.4539 C   0  0  0  0  0  0  0  0  0  0  0  0
   48.3470    3.8365   17.3587 C   0  0  0  0  0  0  0  0  0  0  0  0
   49.1306    6.2997   18.5782 C   0  0  0  0  0  0  0  0  0  0  0  0
   49.9700    5.6071   17.4831 C   0  0  0  0  0  0  0  0  0  0  0  0
   48.4360    5.2037   18.1451 C   0  0  0  0  0  0  0  0  0  0  0  0
   49.8682    4.8743   17.7054 C   0  0  0  0  0  0  0  0  0  0  0  0
   47.3637    4.4562   17.3424 C   0  0  0  0  0  0  0  0  0  0  0  0
   48.1538    6.6990   17.9086 C   0  0  0  0  0  0  0  0  0  0  0  0
   47.5239    2.9654   17.3802 C   0  0  0  0  0  0  0  0  0  0  0  0
   50.8860    5.8297   18.2686 C   0  0  0  0  0  0  0  0  0  0  0  0
   48.2655    7.3003   16.8525 O   0  0  0  0  0  0  0  0  0  0  0  0
   50.7225    6.6461   19.1589 O   0  0  0  0  0  0  0  0  0  0  0  0
   48.4822    2.3314   16.9702 O   0  0  0  0  0  0  0  0  0  0  0  0
   48.2720    4.8436   19.5236 O   0  0  0  0  0  0  0  0  0  0  0  0
   47.7530    7.3349   19.0323 O   0  0  0  0  0  0  0  0  0  0  0  0
   52.0907    5.6860   17.6834 O   0  0  0  0  0  0  0  0  0  0  0  0
   46.4474    2.3312   17.8818 O   0  0  0  0  0  0  0  0  0  0  0  0
   48.1894    3.7365   17.4483 N   0  0  0  0  0  0  0  0  0  0  0  0
   49.2112    6.3796   18.3280 N   0  0  0  0  0  0  0  0  0  0  0  0
   47.2904    4.8294   17.8621 C   0  0  0  0  0  0  0  0  0  0  0  0
   47.9566    5.8159   18.8458 C   0  0  0  0  0  0  0  0  0  0  0  0
   49.4249    4.3249   16.8989 C   0  0  0  0  0  0  0  0  0  0  0  0
   50.1079    5.3070   17.8752 C   0  0  0  0  0  0  0  0  0  0  0  0
   48.2671    6.4211   18.2086 N   0  0  0  0  0  0  0  0  0  0  0  0
   48.9981    4.0442   16.9714 N   0  0  0  0  0  0  0  0  0  0  0  0
   49.6678    6.0213   18.4290 C   0  0  0  0  0  0  0  0  0  0  0  0
   50.1094    4.8415   17.5277 C   0  0  0  0  0  0  0  0  0  0  0  0
   47.3872    5.2652   18.4763 C   0  0  0  0  0  0  0  0  0  0  0  0
   47.9459    3.9040   17.9923 C   0  0  0  0  0  0  0  0  0  0  0  0
   48.0545    4.6788   18.0228 H   0  0  0  0  0  0  0  0  0  0  0  0
   49.1899    5.6943   18.1321 H   0  0  0  0  0  0  0  0  0  0  0  0
   49.1252    5.1987   16.2498 H   0  0  0  0  0  0  0  0  0  0  0  0
   47.4861    5.8902   16.3181 H   0  0  0  0  0  0  0  0  0  0  0  0
   48.7128    7.4883   17.9140 H   0  0  0  0  0  0  0  0  0  0  0  0
   48.8338    7.0098   19.5784 H   0  0  0  0  0  0  0  0  0  0  0  0
   46.6007    4.6528   18.8662 H   0  0  0  0  0  0  0  0  0  0  0  0
   49.1649    3.0828   20.3890 H   0  0  0  0  0  0  0  0  0  0  0  0
   46.4510    2.4288   16.8917 H   0  0  0  0  0  0  0  0  0  0  0  0
   51.9745    6.5277   17.2783 H   0  0  0  0  0  0  0  0  0  0  0  0
   47.3538    6.3637   17.5955 H   0  0  0  0  0  0  0  0  0  0  0  0
   50.1239    3.7722   18.3415 H   0  0  0  0  0  0  0  0  0  0  0  0
   47.7634    4.1140   19.4367 H   0  0  0  0  0  0  0  0  0  0  0  0
   46.4468    4.3121   18.2879 H   0  0  0  0  0  0  0  0  0  0  0  0
   47.9810    4.1306   16.3671 H   0  0  0  0  0  0  0  0  0  0  0  0
   48.2152    2.7514   17.4333 H   0  0  0  0  0  0  0  0  0  0  0  0
   49.2623    7.3847   18.5035 H   0  0  0  0  0  0  0  0  0  0  0  0
   49.4969    6.0051   19.5694 H   0  0  0  0  0  0  0  0  0  0  0  0
   49.7139    6.0213   16.5000 H   0  0  0  0  0  0  0  0  0  0  0  0
   51.0312    5.8232   17.6497 H   0  0  0  0  0  0  0  0  0  0  0  0
   49.9424    4.9212   16.6120 H   0  0  0  0  0  0  0  0  0  0  0  0
   50.1611    3.8778   18.0524 H   0  0  0  0  0  0  0  0  0  0  0  0
   46.3693    4.7056   17.7378 H   0  0  0  0  0  0  0  0  0  0  0  0
   47.3608    4.7561   16.2872 H   0  0  0  0  0  0  0  0  0  0  0  0
   48.3969    5.6709   20.0372 H   0  0  0  0  0  0  0  0  0  0  0  0
   47.6597    8.2739   18.7644 H   0  0  0  0  0  0  0  0  0  0  0  0
   52.6695    6.3361   18.1357 H   0  0  0  0  0  0  0  0  0  0  0  0
   46.6904    1.3822   17.8584 H   0  0  0  0  0  0  0  0  0  0  0  0
   48.4384    3.2021   18.2801 H   0  0  0  0  0  0  0  0  0  0  0  0
   49.6689    6.9253   19.0562 H   0  0  0  0  0  0  0  0  0  0  0  0
   46.9408    5.3674   16.9721 H   0  0  0  0  0  0  0  0  0  0  0  0
   46.4030    4.3933   18.3343 H   0  0  0  0  0  0  0  0  0  0  0  0
   47.2624    6.6364   19.0566 H   0  0  0  0  0  0  0  0  0  0  0  0
   48.1524    5.3073   19.7983 H   0  0  0  0  0  0  0  0  0  0  0  0
   50.1208    3.5139   16.6569 H   0  0  0  0  0  0  0  0  0  0  0  0
   49.1952    4.8350   15.9552 H   0  0  0  0  0  0  0  0  0  0  0  0
   50.4824    4.7549   18.7464 H   0  0  0  0  0  0  0  0  0  0  0  0
   50.9762    5.7573   17.3817 H   0  0  0  0  0  0  0  0  0  0  0  0
   48.1715    6.6611   17.2223 H   0  0  0  0  0  0  0  0  0  0  0  0
   48.5983    4.5691   16.1939 H   0  0  0  0  0  0  0  0  0  0  0  0
   49.7964    5.7488   19.4840 H   0  0  0  0  0  0  0  0  0  0  0  0
   50.3184    6.8839   18.2468 H   0  0  0  0  0  0  0  0  0  0  0  0
   50.7769    4.1827   18.0958 H   0  0  0  0  0  0  0  0  0  0  0  0
   50.6930    5.2289   16.6843 H   0  0  0  0  0  0  0  0  0  0  0  0
   46.4270    5.4589   17.9836 H   0  0  0  0  0  0  0  0  0  0  0  0
   47.1827    5.2096   19.5519 H   0  0  0  0  0  0  0  0  0  0  0  0
   47.1293    3.2997   17.5821 H   0  0  0  0  0  0  0  0  0  0  0  0
   48.3516    3.3461   18.8456 H   0  0  0  0  0  0  0  0  0  0  0  0
  3  2  1  0
  4  2  1  0
  5  2  1  0
  6  4  1  0
  7  3  1  0
  8  5  2  0
  9  7  2  0
 10  6  2  0
 11  2  1  0
 12  5  1  0
 13  7  1  0
 14  6  1  0
 16 20  1  0
 17 15  1  0
 18 17  1  0
 19 15  1  0
 20 19  1  0
 16 18  1  0
 22 21  1  0
 23 21  1  0
 24 21  1  0
 25 23  1  0
 26 22  1  0
 27 24  2  0
 28 26  2  0
 29 25  2  0
 30 21  1  0
 31 24  1  0
 32 26  1  0
 33 25  1  0
 35 39  1  0
 36 34  1  0
 37 36  1  0
 38 34  1  0
 39 38  1  0
 35 37  1  0
 41 45  1  0
 42 40  1  0
 43 42  1  0
 44 40  1  0
 45 44  1  0
 41 43  1  0
  1 46  1  0
  1 47  1  0
  3 48  1  0
  3 49  1  0
  4 50  1  0
  4 51  1  0
 11 52  1  0
 12 53  1  0
 13 54  1  0
 14 55  1  0
 15 56  1  0
 16 57  1  0
 17 58  1  0
 17 59  1  0
 18 60  1  0
 18 61  1  0
 19 62  1  0
 19 63  1  0
 20 64  1  0
 20 65  1  0
 22 66  1  0
 22 67  1  0
 23 68  1  0
 23 69  1  0
 30 70  1  0
 31 71  1  0
 32 72  1  0
 33 73  1  0
 34 74  1  0
 35 75  1  0
 36 76  1  0
 36 77  1  0
 37 78  1  0
 37 79  1  0
 38 80  1  0
 38 81  1  0
 39 82  1  0
 39 83  1  0
 40 84  1  0
 41 85  1  0
 42 86  1  0
 42 87  1  0
 43 88  1  0
 43 89  1  0
 44 90  1  0
 44 91  1  0
 45 92  1  0
 45 93  1  0
M  END
> <Uni-Dock RESULT> 
ENERGY=   -6.127  LOWER_BOUND=    6.711  UPPER_BOUND=    8.014
INTER + INTRA:          -6.127
INTER:                  -6.127
INTRA:                   0.000
UNBOUND:                 0.000

$$$$

     RDKit          3D

 93 90  0  0  0  0  0  0  0  0999 V2000
   47.8930    8.3104   12.7415 O   0  0  0  0  0  0  0  0  0  0  0  0
   47.6484    7.4358   13.1355 C   0  0  0  0  0  0  0  0  0  0  0  0
   48.4924    7.5249   11.8542 C   0  0  0  0  0  0  0  0  0  0  0  0
   46.1547    7.3014   12.8190 C   0  0  0  0  0  0  0  0  0  0  0  0
   47.8867    8.6867   14.0049 C   0  0  0  0  0  0  0  0  0  0  0  0
   45.4737    8.6021   12.5146 C   0  0  0  0  0  0  0  0  0  0  0  0
   49.9476    7.8323   12.0923 C   0  0  0  0  0  0  0  0  0  0  0  0
   47.9986    9.8330   13.5998 O   0  0  0  0  0  0  0  0  0  0  0  0
   50.7000    8.3612   11.2915 O   0  0  0  0  0  0  0  0  0  0  0  0
   44.8235    9.2706   13.2997 O   0  0  0  0  0  0  0  0  0  0  0  0
   48.0029    6.2146   13.8096 O   0  0  0  0  0  0  0  0  0  0  0  0
   47.9805    8.4111   15.3208 O   0  0  0  0  0  0  0  0  0  0  0  0
   50.4247    7.3958   13.2744 O   0  0  0  0  0  0  0  0  0  0  0  0
   45.6549    9.0036   11.2453 O   0  0  0  0  0  0  0  0  0  0  0  0
   47.4276    6.5590   13.2239 N   0  0  0  0  0  0  0  0  0  0  0  0
   48.0844    9.3832   12.5719 N   0  0  0  0  0  0  0  0  0  0  0  0
   48.6332    7.2268   13.7455 C   0  0  0  0  0  0  0  0  0  0  0  0
   49.1254    8.3755   12.8393 C   0  0  0  0  0  0  0  0  0  0  0  0
   46.3866    7.5669   12.9565 C   0  0  0  0  0  0  0  0  0  0  0  0
   46.8789    8.7158   12.0504 C   0  0  0  0  0  0  0  0  0  0  0  0
   47.7486    7.6342   13.0642 C   0  0  0  0  0  0  0  0  0  0  0  0
   47.3963    9.0288   12.5312 C   0  0  0  0  0  0  0  0  0  0  0  0
   49.1958    7.2171   12.7735 C   0  0  0  0  0  0  0  0  0  0  0  0
   46.8719    6.5777   12.3666 C   0  0  0  0  0  0  0  0  0  0  0  0
   50.2116    8.1826   13.3078 C   0  0  0  0  0  0  0  0  0  0  0  0
   45.9156    9.2991   12.5375 C   0  0  0  0  0  0  0  0  0  0  0  0
   46.7710    6.3981   11.1637 O   0  0  0  0  0  0  0  0  0  0  0  0
   45.0467    8.6516   13.0958 O   0  0  0  0  0  0  0  0  0  0  0  0
   50.3307    9.3546   12.9908 O   0  0  0  0  0  0  0  0  0  0  0  0
   47.5719    7.6155   14.4874 O   0  0  0  0  0  0  0  0  0  0  0  0
   46.1753    5.8209   13.2439 O   0  0  0  0  0  0  0  0  0  0  0  0
   45.6028   10.4107   11.8440 O   0  0  0  0  0  0  0  0  0  0  0  0
   51.0706    7.6180   14.1774 O   0  0  0  0  0  0  0  0  0  0  0  0
   49.2502    8.2959   12.9840 N   0  0  0  0  0  0  0  0  0  0  0  0
   46.3805    7.6041   12.6843 N   0  0  0  0  0  0  0  0  0  0  0  0
   48.7541    6.9153   13.1322 C   0  0  0  0  0  0  0  0  0  0  0  0
   47.2759    6.8520   13.5743 C   0  0  0  0  0  0  0  0  0  0  0  0
   48.3587    9.0204   12.0595 C   0  0  0  0  0  0  0  0  0  0  0  0
   46.8776    8.9738   12.4935 C   0  0  0  0  0  0  0  0  0  0  0  0
   46.9028    6.8085   12.7213 N   0  0  0  0  0  0  0  0  0  0  0  0
   48.7702    8.8207   12.2984 N   0  0  0  0  0  0  0  0  0  0  0  0
   46.3643    8.1758   12.8257 C   0  0  0  0  0  0  0  0  0  0  0  0
   47.3602    9.2574   12.3382 C   0  0  0  0  0  0  0  0  0  0  0  0
   48.1376    6.7132   13.5265 C   0  0  0  0  0  0  0  0  0  0  0  0
   49.0446    7.9673   13.4668 C   0  0  0  0  0  0  0  0  0  0  0  0
   48.3942    7.6208   13.2025 H   0  0  0  0  0  0  0  0  0  0  0  0
   46.9811    7.9826   12.7499 H   0  0  0  0  0  0  0  0  0  0  0  0
   48.1169    8.3232   11.2050 H   0  0  0  0  0  0  0  0  0  0  0  0
   48.4531    6.5777   11.3038 H   0  0  0  0  0  0  0  0  0  0  0  0
   45.9782    6.5967   11.9970 H   0  0  0  0  0  0  0  0  0  0  0  0
   45.6264    6.8620   13.6762 H   0  0  0  0  0  0  0  0  0  0  0  0
   48.8676    6.3827   14.2361 H   0  0  0  0  0  0  0  0  0  0  0  0
   48.0755    9.2864   15.7528 H   0  0  0  0  0  0  0  0  0  0  0  0
   51.3795    7.6274   13.2316 H   0  0  0  0  0  0  0  0  0  0  0  0
   45.1918    9.8681   11.1939 H   0  0  0  0  0  0  0  0  0  0  0  0
   47.6743    6.1242   12.3340 H   0  0  0  0  0  0  0  0  0  0  0  0
   47.8378    9.8184   13.4620 H   0  0  0  0  0  0  0  0  0  0  0  0
   48.4254    7.6097   14.7523 H   0  0  0  0  0  0  0  0  0  0  0  0
   49.4298    6.4822   13.8509 H   0  0  0  0  0  0  0  0  0  0  0  0
   49.4862    7.9696   11.8861 H   0  0  0  0  0  0  0  0  0  0  0  0
   49.9800    8.8702   13.3140 H   0  0  0  0  0  0  0  0  0  0  0  0
   45.5321    7.0721   12.4818 H   0  0  0  0  0  0  0  0  0  0  0  0
   46.0261    7.9733   13.9095 H   0  0  0  0  0  0  0  0  0  0  0  0
   47.0875    8.3329   11.0438 H   0  0  0  0  0  0  0  0  0  0  0  0
   46.0823    9.4609   11.9458 H   0  0  0  0  0  0  0  0  0  0  0  0
   47.7453    9.1313   11.4964 H   0  0  0  0  0  0  0  0  0  0  0  0
   47.8508    9.8077   13.1525 H   0  0  0  0  0  0  0  0  0  0  0  0
   49.3900    6.2317   13.2192 H   0  0  0  0  0  0  0  0  0  0  0  0
   49.3819    7.1118   11.6976 H   0  0  0  0  0  0  0  0  0  0  0  0
   46.6861    7.2232   14.6460 H   0  0  0  0  0  0  0  0  0  0  0  0
   45.6260    5.2341   12.6816 H   0  0  0  0  0  0  0  0  0  0  0  0
   44.6295   10.4965   11.9312 H   0  0  0  0  0  0  0  0  0  0  0  0
   51.6599    8.3520   14.4496 H   0  0  0  0  0  0  0  0  0  0  0  0
   49.1942    8.7496   13.8953 H   0  0  0  0  0  0  0  0  0  0  0  0
   45.4435    7.6313   13.0829 H   0  0  0  0  0  0  0  0  0  0  0  0
   48.8841    6.3799   12.1833 H   0  0  0  0  0  0  0  0  0  0  0  0
   49.3745    6.3978   13.8724 H   0  0  0  0  0  0  0  0  0  0  0  0
   46.9526    5.8057   13.5970 H   0  0  0  0  0  0  0  0  0  0  0  0
   47.1824    7.2399   14.5966 H   0  0  0  0  0  0  0  0  0  0  0  0
   48.6860   10.0646   12.0044 H   0  0  0  0  0  0  0  0  0  0  0  0
   48.4659    8.6030   11.0505 H   0  0  0  0  0  0  0  0  0  0  0  0
   46.7521    9.5387   13.4258 H   0  0  0  0  0  0  0  0  0  0  0  0
   46.2652    9.4690   11.7320 H   0  0  0  0  0  0  0  0  0  0  0  0
   47.1569    6.6559   11.7458 H   0  0  0  0  0  0  0  0  0  0  0  0
   48.8932    8.2444   11.4662 H   0  0  0  0  0  0  0  0  0  0  0  0
   46.0903    8.3696   13.8703 H   0  0  0  0  0  0  0  0  0  0  0  0
   45.4393    8.2408   12.2420 H   0  0  0  0  0  0  0  0  0  0  0  0
   47.2747   10.1427   12.9793 H   0  0  0  0  0  0  0  0  0  0  0  0
   47.0835    9.5743   11.3257 H   0  0  0  0  0  0  0  0  0  0  0  0
   48.6994    5.8420   13.1692 H   0  0  0  0  0  0  0  0  0  0  0  0
   47.8721    6.5090   14.5703 H   0  0  0  0  0  0  0  0  0  0  0  0
   50.0950    7.6569   13.4428 H   0  0  0  0  0  0  0  0  0  0  0  0
   48.9137    8.5624   14.3794 H   0  0  0  0  0  0  0  0  0  0  0  0
  3  2  1  0
  4  2  1  0
  5  2  1  0
  6  4  1  0
  7  3  1  0
  8  5  2  0
  9  7  2  0
 10  6  2  0
 11  2  1  0
 12  5  1  0
 13  7  1  0
 14  6  1  0
 16 20  1  0
 17 15  1  0
 18 17  1  0
 19 15  1  0
 20 19  1  0
 16 18  1  0
 22 21  1  0
 23 21  1  0
 24 21  1  0
 25 23  1  0
 26 22  1  0
 27 24  2  0
 28 26  2  0
 29 25  2  0
 30 21  1  0
 31 24  1  0
 32 26  1  0
 33 25  1  0
 35 39  1  0
 36 34  1  0
 37 36  1  0
 38 34  1  0
 39 38  1  0
 35 37  1  0
 41 45  1  0
 42 40  1  0
 43 42  1  0
 44 40  1  0
 45 44  1  0
 41 43  1  0
  1 46  1  0
  1 47  1  0
  3 48  1  0
  3 49  1  0
  4 50  1  0
  4 51  1  0
 11 52  1  0
 12 53  1  0
 13 54  1  0
 14 55  1  0
 15 56  1  0
 16 57  1  0
 17 58  1  0
 17 59  1  0
 18 60  1  0
 18 61  1  0
 19 62  1  0
 19 63  1  0
 20 64  1  0
 20 65  1  0
 22 66  1  0
 22 67  1  0
 23 68  1  0
 23 69  1  0
 30 70  1  0
 31 71  1  0
 32 72  1  0
 33 73  1  0
 34 74  1  0
 35 75  1  0
 36 76  1  0
 36 77  1  0
 37 78  1  0
 37 79  1  0
 38 80  1  0
 38 81  1  0
 39 82  1  0
 39 83  1  0
 40 84  1  0
 41 85  1  0
 42 86  1  0
 42 87  1  0
 43 88  1  0
 43 89  1  0
 44 90  1  0
 44 91  1  0
 45 92  1  0
 45 93  1  0
M  END
> <Uni-Dock RESULT> 
ENERGY=   -6.101  LOWER_BOUND=    3.481  UPPER_BOUND=    5.457
INTER + INTRA:          -6.101
INTER:                  -6.101
INTRA:                   0.000
UNBOUND:                 0.000

$$$$
