
     RDKit          3D

 93 90  0  0  0  0  0  0  0  0999 V2000
   44.5502    3.9816   11.1360 O   0  0  0  0  0  0  0  0  0  0  0  0
   44.5890    4.5149   10.7555 C   0  0  0  0  0  0  0  0  0  0  0  0
   45.2703    5.7683   11.3315 C   0  0  0  0  0  0  0  0  0  0  0  0
   45.3546    4.0616    9.5057 C   0  0  0  0  0  0  0  0  0  0  0  0
   44.6461    3.4045   11.8199 C   0  0  0  0  0  0  0  0  0  0  0  0
   44.6507    2.9851    8.7286 C   0  0  0  0  0  0  0  0  0  0  0  0
   44.7782    6.1352   12.7048 C   0  0  0  0  0  0  0  0  0  0  0  0
   45.6500    2.8380   12.2202 O   0  0  0  0  0  0  0  0  0  0  0  0
   45.4749    6.4223   13.6624 O   0  0  0  0  0  0  0  0  0  0  0  0
   44.4591    2.9871    7.5231 O   0  0  0  0  0  0  0  0  0  0  0  0
   43.2660    4.8734   10.3470 O   0  0  0  0  0  0  0  0  0  0  0  0
   43.4389    3.1267   12.3569 O   0  0  0  0  0  0  0  0  0  0  0  0
   43.4361    6.1814   12.7991 O   0  0  0  0  0  0  0  0  0  0  0  0
   44.3074    1.9122    9.4626 O   0  0  0  0  0  0  0  0  0  0  0  0
   45.4217    5.4145   10.2758 N   0  0  0  0  0  0  0  0  0  0  0  0
   43.6708    3.3964   11.5674 N   0  0  0  0  0  0  0  0  0  0  0  0
   44.8925    4.2478    9.5448 C   0  0  0  0  0  0  0  0  0  0  0  0
   44.5828    3.0500   10.4688 C   0  0  0  0  0  0  0  0  0  0  0  0
   44.4714    5.7670   11.3473 C   0  0  0  0  0  0  0  0  0  0  0  0
   44.1588    4.5815   12.2863 C   0  0  0  0  0  0  0  0  0  0  0  0
   43.9835    4.4857   11.0140 C   0  0  0  0  0  0  0  0  0  0  0  0
   43.7761    4.8142    9.5315 C   0  0  0  0  0  0  0  0  0  0  0  0
   45.1106    5.3227   11.6307 C   0  0  0  0  0  0  0  0  0  0  0  0
   44.2894    2.9854   11.1777 C   0  0  0  0  0  0  0  0  0  0  0  0
   45.3282    5.0072   13.0868 C   0  0  0  0  0  0  0  0  0  0  0  0
   44.7537    4.1446    8.6139 C   0  0  0  0  0  0  0  0  0  0  0  0
   45.3635    2.4336   11.0086 O   0  0  0  0  0  0  0  0  0  0  0  0
   44.5400    3.1452    7.9489 O   0  0  0  0  0  0  0  0  0  0  0  0
   44.8367    4.1020   13.7388 O   0  0  0  0  0  0  0  0  0  0  0  0
   42.7553    4.8588   11.6694 O   0  0  0  0  0  0  0  0  0  0  0  0
   43.1870    2.2840   11.5280 O   0  0  0  0  0  0  0  0  0  0  0  0
   45.9491    4.7571    8.5826 O   0  0  0  0  0  0  0  0  0  0  0  0
   46.2018    5.8608   13.6579 O   0  0  0  0  0  0  0  0  0  0  0  0
   43.9010    2.9836   11.0815 N   0  0  0  0  0  0  0  0  0  0  0  0
   45.2792    5.6945   10.9416 N   0  0  0  0  0  0  0  0  0  0  0  0
   43.9172    3.8353    9.8819 C   0  0  0  0  0  0  0  0  0  0  0  0
   45.1261    4.7895    9.7913 C   0  0  0  0  0  0  0  0  0  0  0  0
   44.6261    3.6095   12.2016 C   0  0  0  0  0  0  0  0  0  0  0  0
   44.6378    5.1495   12.1510 C   0  0  0  0  0  0  0  0  0  0  0  0
   44.6408    5.8250   11.1102 N   0  0  0  0  0  0  0  0  0  0  0  0
   44.5167    2.8671   10.8489 N   0  0  0  0  0  0  0  0  0  0  0  0
   44.5045    4.9372   12.2784 C   0  0  0  0  0  0  0  0  0  0  0  0
   45.0874    3.5282   12.0357 C   0  0  0  0  0  0  0  0  0  0  0  0
   44.0713    5.1639    9.9228 C   0  0  0  0  0  0  0  0  0  0  0  0
   44.6525    3.7541    9.6801 C   0  0  0  0  0  0  0  0  0  0  0  0
   44.5767    4.8311   11.6015 H   0  0  0  0  0  0  0  0  0  0  0  0
   44.6093    4.2251   10.2000 H   0  0  0  0  0  0  0  0  0  0  0  0
   46.3516    5.6012   11.4194 H   0  0  0  0  0  0  0  0  0  0  0  0
   45.1132    6.6390   10.6841 H   0  0  0  0  0  0  0  0  0  0  0  0
   46.3623    3.7025    9.7446 H   0  0  0  0  0  0  0  0  0  0  0  0
   45.4614    4.9113    8.8186 H   0  0  0  0  0  0  0  0  0  0  0  0
   42.7597    5.0275   11.1720 H   0  0  0  0  0  0  0  0  0  0  0  0
   43.6186    2.3866   12.9743 H   0  0  0  0  0  0  0  0  0  0  0  0
   43.2730    6.4772   13.7222 H   0  0  0  0  0  0  0  0  0  0  0  0
   43.8927    1.3087    8.8094 H   0  0  0  0  0  0  0  0  0  0  0  0
   46.3005    5.1390   10.7132 H   0  0  0  0  0  0  0  0  0  0  0  0
   43.5964    2.6110   12.2115 H   0  0  0  0  0  0  0  0  0  0  0  0
   45.6286    3.9426    8.7931 H   0  0  0  0  0  0  0  0  0  0  0  0
   43.9880    4.5428    8.9982 H   0  0  0  0  0  0  0  0  0  0  0  0
   45.5190    2.6559   10.8841 H   0  0  0  0  0  0  0  0  0  0  0  0
   44.1313    2.2470    9.8758 H   0  0  0  0  0  0  0  0  0  0  0  0
   43.5438    6.1438   10.8988 H   0  0  0  0  0  0  0  0  0  0  0  0
   44.8955    6.5896   11.9344 H   0  0  0  0  0  0  0  0  0  0  0  0
   45.0598    4.3163   12.8538 H   0  0  0  0  0  0  0  0  0  0  0  0
   43.3994    4.8899   13.0132 H   0  0  0  0  0  0  0  0  0  0  0  0
   42.7741    4.4949    9.2131 H   0  0  0  0  0  0  0  0  0  0  0  0
   43.7915    5.8962    9.3516 H   0  0  0  0  0  0  0  0  0  0  0  0
   44.8559    6.3878   11.5630 H   0  0  0  0  0  0  0  0  0  0  0  0
   46.0622    5.1462   11.1192 H   0  0  0  0  0  0  0  0  0  0  0  0
   42.3298    4.0177   11.9402 H   0  0  0  0  0  0  0  0  0  0  0  0
   43.5141    1.3622   11.6201 H   0  0  0  0  0  0  0  0  0  0  0  0
   46.4888    4.2024    7.9783 H   0  0  0  0  0  0  0  0  0  0  0  0
   46.2622    5.5559   14.5878 H   0  0  0  0  0  0  0  0  0  0  0  0
   44.3507    2.0929   10.8720 H   0  0  0  0  0  0  0  0  0  0  0  0
   44.8475    6.5938   10.7294 H   0  0  0  0  0  0  0  0  0  0  0  0
   42.9930    4.4264    9.8697 H   0  0  0  0  0  0  0  0  0  0  0  0
   43.8862    3.1964    8.9916 H   0  0  0  0  0  0  0  0  0  0  0  0
   45.0530    5.3872    8.8757 H   0  0  0  0  0  0  0  0  0  0  0  0
   46.0439    4.1955    9.7002 H   0  0  0  0  0  0  0  0  0  0  0  0
   45.6614    3.2451   12.2040 H   0  0  0  0  0  0  0  0  0  0  0  0
   44.1700    3.2756   13.1400 H   0  0  0  0  0  0  0  0  0  0  0  0
   43.6051    5.5174   12.2057 H   0  0  0  0  0  0  0  0  0  0  0  0
   45.1619    5.5425   13.0290 H   0  0  0  0  0  0  0  0  0  0  0  0
   45.6381    5.9629   10.9399 H   0  0  0  0  0  0  0  0  0  0  0  0
   43.5196    2.7296   11.0194 H   0  0  0  0  0  0  0  0  0  0  0  0
   45.0143    5.3986   13.1318 H   0  0  0  0  0  0  0  0  0  0  0  0
   43.4440    4.8593   12.5480 H   0  0  0  0  0  0  0  0  0  0  0  0
   46.1769    3.5910   11.9231 H   0  0  0  0  0  0  0  0  0  0  0  0
   44.8964    2.9011   12.9139 H   0  0  0  0  0  0  0  0  0  0  0  0
   42.9817    5.1023   10.0341 H   0  0  0  0  0  0  0  0  0  0  0  0
   44.2634    5.7912    9.0449 H   0  0  0  0  0  0  0  0  0  0  0  0
   45.7126    3.8300    9.4068 H   0  0  0  0  0  0  0  0  0  0  0  0
   44.1399    3.2934    8.8279 H   0  0  0  0  0  0  0  0  0  0  0  0
  3  2  1  0
  4  2  1  0
  5  2  1  0
  6  4  1  0
  7  3  1  0
  8  5  2  0
  9  7  2  0
 10  6  2  0
 11  2  1  0
 12  5  1  0
 13  7  1  0
 14  6  1  0
 16 20  1  0
 17 15  1  0
 18 17  1  0
 19 15  1  0
 20 19  1  0
 16 18  1  0
 22 21  1  0
 23 21  1  0
 24 21  1  0
 25 23  1  0
 26 22  1  0
 27 24  2  0
 28 26  2  0
 29 25  2  0
 30 21  1  0
 31 24  1  0
 32 26  1  0
 33 25  1  0
 35 39  1  0
 36 34  1  0
 37 36  1  0
 38 34  1  0
 39 38  1  0
 35 37  1  0
 41 45  1  0
 42 40  1  0
 43 42  1  0
 44 40  1  0
 45 44  1  0
 41 43  1  0
  1 46  1  0
  1 47  1  0
  3 48  1  0
  3 49  1  0
  4 50  1  0
  4 51  1  0
 11 52  1  0
 12 53  1  0
 13 54  1  0
 14 55  1  0
 15 56  1  0
 16 57  1  0
 17 58  1  0
 17 59  1  0
 18 60  1  0
 18 61  1  0
 19 62  1  0
 19 63  1  0
 20 64  1  0
 20 65  1  0
 22 66  1  0
 22 67  1  0
 23 68  1  0
 23 69  1  0
 30 70  1  0
 31 71  1  0
 32 72  1  0
 33 73  1  0
 34 74  1  0
 35 75  1  0
 36 76  1  0
 36 77  1  0
 37 78  1  0
 37 79  1  0
 38 80  1  0
 38 81  1  0
 39 82  1  0
 39 83  1  0
 40 84  1  0
 41 85  1  0
 42 86  1  0
 42 87  1  0
 43 88  1  0
 43 89  1  0
 44 90  1  0
 44 91  1  0
 45 92  1  0
 45 93  1  0
M  END
> <Uni-Dock RESULT> 
ENERGY=  -10.497  LOWER_BOUND=    0.000  UPPER_BOUND=    0.000
INTER + INTRA:         -10.497
INTER:                 -10.497
INTRA:                   0.000
UNBOUND:                 0.000

$$$$

     RDKit          3D

 93 90  0  0  0  0  0  0  0  0999 V2000
   44.2459    3.7875   11.0171 O   0  0  0  0  0  0  0  0  0  0  0  0
   44.1191    4.4055   10.8362 C   0  0  0  0  0  0  0  0  0  0  0  0
   43.9489    4.7010    9.3360 C   0  0  0  0  0  0  0  0  0  0  0  0
   42.8237    4.7802   11.5679 C   0  0  0  0  0  0  0  0  0  0  0  0
   44.3815    2.8978   11.0025 C   0  0  0  0  0  0  0  0  0  0  0  0
   42.9501    4.7498   13.0649 C   0  0  0  0  0  0  0  0  0  0  0  0
   45.0444    4.1172    8.4864 C   0  0  0  0  0  0  0  0  0  0  0  0
   43.5891    1.9974   10.7786 O   0  0  0  0  0  0  0  0  0  0  0  0
   44.8920    3.4859    7.4553 O   0  0  0  0  0  0  0  0  0  0  0  0
   42.5868    5.6307   13.8279 O   0  0  0  0  0  0  0  0  0  0  0  0
   45.1608    5.2451   11.3416 O   0  0  0  0  0  0  0  0  0  0  0  0
   45.6484    2.6218   11.3786 O   0  0  0  0  0  0  0  0  0  0  0  0
   46.2811    4.4004    8.9366 O   0  0  0  0  0  0  0  0  0  0  0  0
   43.4263    3.5911   13.5531 O   0  0  0  0  0  0  0  0  0  0  0  0
   43.2975    5.1544   10.1313 N   0  0  0  0  0  0  0  0  0  0  0  0
   45.1323    3.2974   11.5427 N   0  0  0  0  0  0  0  0  0  0  0  0
   43.2767    4.9893   11.5969 C   0  0  0  0  0  0  0  0  0  0  0  0
   43.7894    3.6059   12.0529 C   0  0  0  0  0  0  0  0  0  0  0  0
   44.6632    4.8778    9.6476 C   0  0  0  0  0  0  0  0  0  0  0  0
   45.1868    3.4932   10.0874 C   0  0  0  0  0  0  0  0  0  0  0  0
   44.7654    4.3496   10.9519 C   0  0  0  0  0  0  0  0  0  0  0  0
   44.3400    5.6486   11.6451 C   0  0  0  0  0  0  0  0  0  0  0  0
   44.1593    4.2277    9.5487 C   0  0  0  0  0  0  0  0  0  0  0  0
   44.3536    3.1406   11.8122 C   0  0  0  0  0  0  0  0  0  0  0  0
   44.5660    2.9535    8.8574 C   0  0  0  0  0  0  0  0  0  0  0  0
   42.9731    5.5959   12.2575 C   0  0  0  0  0  0  0  0  0  0  0  0
   43.2493    2.6275   11.8745 O   0  0  0  0  0  0  0  0  0  0  0  0
   42.7259    5.4247   13.4392 O   0  0  0  0  0  0  0  0  0  0  0  0
   45.1608    2.0008    9.3313 O   0  0  0  0  0  0  0  0  0  0  0  0
   46.1961    4.4407   10.8020 O   0  0  0  0  0  0  0  0  0  0  0  0
   45.3849    2.6800   12.5567 O   0  0  0  0  0  0  0  0  0  0  0  0
   41.9879    5.7531   11.3576 O   0  0  0  0  0  0  0  0  0  0  0  0
   44.1665    2.9343    7.5697 O   0  0  0  0  0  0  0  0  0  0  0  0
   44.6547    3.2977   12.0238 N   0  0  0  0  0  0  0  0  0  0  0  0
   43.7580    4.9184    9.6077 N   0  0  0  0  0  0  0  0  0  0  0  0
   44.2308    4.7050   12.0908 C   0  0  0  0  0  0  0  0  0  0  0  0
   43.2560    5.1332   10.9743 C   0  0  0  0  0  0  0  0  0  0  0  0
   44.5972    2.7784   10.6457 C   0  0  0  0  0  0  0  0  0  0  0  0
   44.7835    3.8611    9.5654 C   0  0  0  0  0  0  0  0  0  0  0  0
   44.4164    5.0415    9.6735 N   0  0  0  0  0  0  0  0  0  0  0  0
   43.9900    3.2337   11.9936 N   0  0  0  0  0  0  0  0  0  0  0  0
   44.9277    3.6596    9.6983 C   0  0  0  0  0  0  0  0  0  0  0  0
   44.1038    2.7287   10.6140 C   0  0  0  0  0  0  0  0  0  0  0  0
   44.3014    5.5467   11.0529 C   0  0  0  0  0  0  0  0  0  0  0  0
   43.4789    4.6156   11.9698 C   0  0  0  0  0  0  0  0  0  0  0  0
   44.5492    4.0386   10.1317 H   0  0  0  0  0  0  0  0  0  0  0  0
   43.8141    4.5873   11.3528 H   0  0  0  0  0  0  0  0  0  0  0  0
   43.0067    4.2708    8.9729 H   0  0  0  0  0  0  0  0  0  0  0  0
   43.9254    5.7800    9.1437 H   0  0  0  0  0  0  0  0  0  0  0  0
   41.9861    4.1319   11.2858 H   0  0  0  0  0  0  0  0  0  0  0  0
   42.5461    5.8102   11.3076 H   0  0  0  0  0  0  0  0  0  0  0  0
   45.9960    4.8989   10.9631 H   0  0  0  0  0  0  0  0  0  0  0  0
   45.6572    1.6473   11.4852 H   0  0  0  0  0  0  0  0  0  0  0  0
   46.8760    4.0020    8.2631 H   0  0  0  0  0  0  0  0  0  0  0  0
   43.4186    3.7293   14.5245 H   0  0  0  0  0  0  0  0  0  0  0  0
   42.6737    4.4563    9.7277 H   0  0  0  0  0  0  0  0  0  0  0  0
   45.3714    2.3335   11.7684 H   0  0  0  0  0  0  0  0  0  0  0  0
   42.2490    5.1275   11.9500 H   0  0  0  0  0  0  0  0  0  0  0  0
   43.8778    5.7824   12.0592 H   0  0  0  0  0  0  0  0  0  0  0  0
   43.0880    2.8286   11.7239 H   0  0  0  0  0  0  0  0  0  0  0  0
   43.8126    3.5752   13.1478 H   0  0  0  0  0  0  0  0  0  0  0  0
   45.3396    5.6643   10.0044 H   0  0  0  0  0  0  0  0  0  0  0  0
   44.6643    4.9326    8.5530 H   0  0  0  0  0  0  0  0  0  0  0  0
   44.6022    2.7067    9.5932 H   0  0  0  0  0  0  0  0  0  0  0  0
   46.2246    3.3799    9.7554 H   0  0  0  0  0  0  0  0  0  0  0  0
   45.0409    5.8878   12.4568 H   0  0  0  0  0  0  0  0  0  0  0  0
   44.4005    6.5075   10.9656 H   0  0  0  0  0  0  0  0  0  0  0  0
   44.5064    5.0612    8.9254 H   0  0  0  0  0  0  0  0  0  0  0  0
   43.0653    4.2365    9.5863 H   0  0  0  0  0  0  0  0  0  0  0  0
   46.5730    3.7800   11.4211 H   0  0  0  0  0  0  0  0  0  0  0  0
   45.0049    1.9103   13.0343 H   0  0  0  0  0  0  0  0  0  0  0  0
   41.1638    5.6654   11.8842 H   0  0  0  0  0  0  0  0  0  0  0  0
   44.4810    2.0685    7.2337 H   0  0  0  0  0  0  0  0  0  0  0  0
   44.0371    2.7289   12.6022 H   0  0  0  0  0  0  0  0  0  0  0  0
   44.1743    5.7807    9.2566 H   0  0  0  0  0  0  0  0  0  0  0  0
   45.1278    5.3350   12.0437 H   0  0  0  0  0  0  0  0  0  0  0  0
   43.7735    4.8925   13.0693 H   0  0  0  0  0  0  0  0  0  0  0  0
   43.0006    6.1917   11.0972 H   0  0  0  0  0  0  0  0  0  0  0  0
   42.3185    4.5742   11.0850 H   0  0  0  0  0  0  0  0  0  0  0  0
   43.6297    2.2836   10.4913 H   0  0  0  0  0  0  0  0  0  0  0  0
   45.3688    2.0089   10.5324 H   0  0  0  0  0  0  0  0  0  0  0  0
   45.7745    4.3182    9.6836 H   0  0  0  0  0  0  0  0  0  0  0  0
   44.7638    3.3979    8.5729 H   0  0  0  0  0  0  0  0  0  0  0  0
   43.4777    5.0178    9.2726 H   0  0  0  0  0  0  0  0  0  0  0  0
   44.9288    3.2575   12.3941 H   0  0  0  0  0  0  0  0  0  0  0  0
   44.9195    3.2634    8.6766 H   0  0  0  0  0  0  0  0  0  0  0  0
   45.9750    3.6704   10.0249 H   0  0  0  0  0  0  0  0  0  0  0  0
   43.0982    2.5922   10.1972 H   0  0  0  0  0  0  0  0  0  0  0  0
   44.5723    1.7384   10.6393 H   0  0  0  0  0  0  0  0  0  0  0  0
   45.3068    5.6849   11.4696 H   0  0  0  0  0  0  0  0  0  0  0  0
   43.8322    6.5367   11.0269 H   0  0  0  0  0  0  0  0  0  0  0  0
   42.4301    4.6061   11.6471 H   0  0  0  0  0  0  0  0  0  0  0  0
   43.4902    5.0121   12.9916 H   0  0  0  0  0  0  0  0  0  0  0  0
  3  2  1  0
  4  2  1  0
  5  2  1  0
  6  4  1  0
  7  3  1  0
  8  5  2  0
  9  7  2  0
 10  6  2  0
 11  2  1  0
 12  5  1  0
 13  7  1  0
 14  6  1  0
 16 20  1  0
 17 15  1  0
 18 17  1  0
 19 15  1  0
 20 19  1  0
 16 18  1  0
 22 21  1  0
 23 21  1  0
 24 21  1  0
 25 23  1  0
 26 22  1  0
 27 24  2  0
 28 26  2  0
 29 25  2  0
 30 21  1  0
 31 24  1  0
 32 26  1  0
 33 25  1  0
 35 39  1  0
 36 34  1  0
 37 36  1  0
 38 34  1  0
 39 38  1  0
 35 37  1  0
 41 45  1  0
 42 40  1  0
 43 42  1  0
 44 40  1  0
 45 44  1  0
 41 43  1  0
  1 46  1  0
  1 47  1  0
  3 48  1  0
  3 49  1  0
  4 50  1  0
  4 51  1  0
 11 52  1  0
 12 53  1  0
 13 54  1  0
 14 55  1  0
 15 56  1  0
 16 57  1  0
 17 58  1  0
 17 59  1  0
 18 60  1  0
 18 61  1  0
 19 62  1  0
 19 63  1  0
 20 64  1  0
 20 65  1  0
 22 66  1  0
 22 67  1  0
 23 68  1  0
 23 69  1  0
 30 70  1  0
 31 71  1  0
 32 72  1  0
 33 73  1  0
 34 74  1  0
 35 75  1  0
 36 76  1  0
 36 77  1  0
 37 78  1  0
 37 79  1  0
 38 80  1  0
 38 81  1  0
 39 82  1  0
 39 83  1  0
 40 84  1  0
 41 85  1  0
 42 86  1  0
 42 87  1  0
 43 88  1  0
 43 89  1  0
 44 90  1  0
 44 91  1  0
 45 92  1  0
 45 93  1  0
M  END
> <Uni-Dock RESULT> 
ENERGY=   -9.744  LOWER_BOUND=    0.983  UPPER_BOUND=    3.417
INTER + INTRA:          -9.744
INTER:                  -9.744
INTRA:                   0.000
UNBOUND:                 0.000

$$$$

     RDKit          3D

 93 90  0  0  0  0  0  0  0  0999 V2000
   44.8445    5.0286   11.4637 O   0  0  0  0  0  0  0  0  0  0  0  0
   44.9761    4.6632   11.9927 C   0  0  0  0  0  0  0  0  0  0  0  0
   45.0562    3.1368   11.8176 C   0  0  0  0  0  0  0  0  0  0  0  0
   46.3262    5.1768   12.5097 C   0  0  0  0  0  0  0  0  0  0  0  0
   44.6840    5.2903   10.6177 C   0  0  0  0  0  0  0  0  0  0  0  0
   46.2969    6.6179   12.9346 C   0  0  0  0  0  0  0  0  0  0  0  0
   43.8920    2.5632   11.0570 C   0  0  0  0  0  0  0  0  0  0  0  0
   45.4352    5.3059    9.6562 O   0  0  0  0  0  0  0  0  0  0  0  0
   43.9595    1.7638   10.1398 O   0  0  0  0  0  0  0  0  0  0  0  0
   46.7332    7.0590   13.9859 O   0  0  0  0  0  0  0  0  0  0  0  0
   43.9929    4.9474   12.9918 O   0  0  0  0  0  0  0  0  0  0  0  0
   43.4372    5.7999   10.5251 O   0  0  0  0  0  0  0  0  0  0  0  0
   42.6955    2.9731   11.5182 O   0  0  0  0  0  0  0  0  0  0  0  0
   45.8221    7.4577   11.9982 O   0  0  0  0  0  0  0  0  0  0  0  0
   45.7702    3.7221   12.4580 N   0  0  0  0  0  0  0  0  0  0  0  0
   43.9812    5.7246   11.1944 N   0  0  0  0  0  0  0  0  0  0  0  0
   45.8820    5.1658   12.7384 C   0  0  0  0  0  0  0  0  0  0  0  0
   45.3624    6.0447   11.5798 C   0  0  0  0  0  0  0  0  0  0  0  0
   44.3688    3.4187   12.1121 C   0  0  0  0  0  0  0  0  0  0  0  0
   43.8373    4.2831   10.9479 C   0  0  0  0  0  0  0  0  0  0  0  0
   44.3374    4.8251   12.0037 C   0  0  0  0  0  0  0  0  0  0  0  0
   44.8425    5.0703   13.4297 C   0  0  0  0  0  0  0  0  0  0  0  0
   44.8472    3.4934   11.4398 C   0  0  0  0  0  0  0  0  0  0  0  0
   44.7712    5.9864   11.0901 C   0  0  0  0  0  0  0  0  0  0  0  0
   44.3616    3.2415   10.0371 C   0  0  0  0  0  0  0  0  0  0  0  0
   46.2445    5.5954   13.5004 C   0  0  0  0  0  0  0  0  0  0  0  0
   45.8628    6.1408   10.5693 O   0  0  0  0  0  0  0  0  0  0  0  0
   46.5634    6.7586   13.6796 O   0  0  0  0  0  0  0  0  0  0  0  0
   43.7731    4.0120    9.2982 O   0  0  0  0  0  0  0  0  0  0  0  0
   42.9031    4.7322   12.1110 O   0  0  0  0  0  0  0  0  0  0  0  0
   43.7784    6.8895   10.9211 O   0  0  0  0  0  0  0  0  0  0  0  0
   47.1728    4.6383   13.3358 O   0  0  0  0  0  0  0  0  0  0  0  0
   44.6756    1.9999    9.6151 O   0  0  0  0  0  0  0  0  0  0  0  0
   44.4890    6.1567   11.3169 N   0  0  0  0  0  0  0  0  0  0  0  0
   45.2702    3.3197   12.0974 N   0  0  0  0  0  0  0  0  0  0  0  0
   44.9547    5.7732   12.6588 C   0  0  0  0  0  0  0  0  0  0  0  0
   45.8659    4.5287   12.6882 C   0  0  0  0  0  0  0  0  0  0  0  0
   44.4423    4.9983   10.4069 C   0  0  0  0  0  0  0  0  0  0  0  0
   44.2156    3.6535   11.1240 C   0  0  0  0  0  0  0  0  0  0  0  0
   44.6211    3.3807   12.2645 N   0  0  0  0  0  0  0  0  0  0  0  0
   45.1483    6.1114   11.2165 N   0  0  0  0  0  0  0  0  0  0  0  0
   44.0749    3.8486   10.9783 C   0  0  0  0  0  0  0  0  0  0  0  0
   44.9310    4.9565   10.3275 C   0  0  0  0  0  0  0  0  0  0  0  0
   44.8396    4.5353   13.1536 C   0  0  0  0  0  0  0  0  0  0  0  0
   45.6944    5.6445   12.5031 C   0  0  0  0  0  0  0  0  0  0  0  0
   44.4911    4.1264   11.4519 H   0  0  0  0  0  0  0  0  0  0  0  0
   45.3190    5.0837   12.3068 H   0  0  0  0  0  0  0  0  0  0  0  0
   45.9606    2.8701   11.2559 H   0  0  0  0  0  0  0  0  0  0  0  0
   45.0965    2.6271   12.7874 H   0  0  0  0  0  0  0  0  0  0  0  0
   47.1255    5.0586   11.7692 H   0  0  0  0  0  0  0  0  0  0  0  0
   46.6143    4.6035   13.4007 H   0  0  0  0  0  0  0  0  0  0  0  0
   43.1256    4.7365   12.5868 H   0  0  0  0  0  0  0  0  0  0  0  0
   43.4087    6.1957    9.6286 H   0  0  0  0  0  0  0  0  0  0  0  0
   42.0473    2.4842   10.9641 H   0  0  0  0  0  0  0  0  0  0  0  0
   45.8968    8.3403   12.4203 H   0  0  0  0  0  0  0  0  0  0  0  0
   46.3470    3.5147   11.6434 H   0  0  0  0  0  0  0  0  0  0  0  0
   43.7311    6.2429   10.3543 H   0  0  0  0  0  0  0  0  0  0  0  0
   46.9339    5.4049   12.9288 H   0  0  0  0  0  0  0  0  0  0  0  0
   45.3342    5.3993   13.6601 H   0  0  0  0  0  0  0  0  0  0  0  0
   46.0193    5.9281   10.7085 H   0  0  0  0  0  0  0  0  0  0  0  0
   45.4098    7.0975   11.8793 H   0  0  0  0  0  0  0  0  0  0  0  0
   43.7388    3.5577   12.9994 H   0  0  0  0  0  0  0  0  0  0  0  0
   44.2978    2.3603   11.8367 H   0  0  0  0  0  0  0  0  0  0  0  0
   44.3667    4.0183   10.0238 H   0  0  0  0  0  0  0  0  0  0  0  0
   42.7773    4.0573   10.7881 H   0  0  0  0  0  0  0  0  0  0  0  0
   44.2028    5.8087   13.9326 H   0  0  0  0  0  0  0  0  0  0  0  0
   44.7613    4.1677   14.0478 H   0  0  0  0  0  0  0  0  0  0  0  0
   44.4831    2.6674   12.0636 H   0  0  0  0  0  0  0  0  0  0  0  0
   45.9412    3.4675   11.4095 H   0  0  0  0  0  0  0  0  0  0  0  0
   42.5494    5.5411   11.6838 H   0  0  0  0  0  0  0  0  0  0  0  0
   44.1676    7.5558   10.3131 H   0  0  0  0  0  0  0  0  0  0  0  0
   48.0268    5.1215   13.3722 H   0  0  0  0  0  0  0  0  0  0  0  0
   44.3163    1.9581    8.7038 H   0  0  0  0  0  0  0  0  0  0  0  0
   45.1272    6.8454   10.9197 H   0  0  0  0  0  0  0  0  0  0  0  0
   44.8556    2.7478   12.8332 H   0  0  0  0  0  0  0  0  0  0  0  0
   44.0740    5.5869   13.2861 H   0  0  0  0  0  0  0  0  0  0  0  0
   45.4798    6.6235   13.1095 H   0  0  0  0  0  0  0  0  0  0  0  0
   46.1576    4.3127   13.7222 H   0  0  0  0  0  0  0  0  0  0  0  0
   46.7930    4.7520   12.1457 H   0  0  0  0  0  0  0  0  0  0  0  0
   45.3837    4.9483    9.8449 H   0  0  0  0  0  0  0  0  0  0  0  0
   43.6442    5.1641    9.6749 H   0  0  0  0  0  0  0  0  0  0  0  0
   43.2473    3.6817   11.6403 H   0  0  0  0  0  0  0  0  0  0  0  0
   44.1579    2.8473   10.3846 H   0  0  0  0  0  0  0  0  0  0  0  0
   45.5307    2.9555   12.0791 H   0  0  0  0  0  0  0  0  0  0  0  0
   44.2385    6.5360   11.4019 H   0  0  0  0  0  0  0  0  0  0  0  0
   44.0056    2.9950   10.2945 H   0  0  0  0  0  0  0  0  0  0  0  0
   43.0518    4.2127   11.1342 H   0  0  0  0  0  0  0  0  0  0  0  0
   45.9032    4.5466   10.0267 H   0  0  0  0  0  0  0  0  0  0  0  0
   44.4383    5.3045    9.4126 H   0  0  0  0  0  0  0  0  0  0  0  0
   43.8677    4.9445   13.4560 H   0  0  0  0  0  0  0  0  0  0  0  0
   45.3330    4.1867   14.0679 H   0  0  0  0  0  0  0  0  0  0  0  0
   46.7192    5.2835   12.3495 H   0  0  0  0  0  0  0  0  0  0  0  0
   45.7606    6.4981   13.1873 H   0  0  0  0  0  0  0  0  0  0  0  0
  3  2  1  0
  4  2  1  0
  5  2  1  0
  6  4  1  0
  7  3  1  0
  8  5  2  0
  9  7  2  0
 10  6  2  0
 11  2  1  0
 12  5  1  0
 13  7  1  0
 14  6  1  0
 16 20  1  0
 17 15  1  0
 18 17  1  0
 19 15  1  0
 20 19  1  0
 16 18  1  0
 22 21  1  0
 23 21  1  0
 24 21  1  0
 25 23  1  0
 26 22  1  0
 27 24  2  0
 28 26  2  0
 29 25  2  0
 30 21  1  0
 31 24  1  0
 32 26  1  0
 33 25  1  0
 35 39  1  0
 36 34  1  0
 37 36  1  0
 38 34  1  0
 39 38  1  0
 35 37  1  0
 41 45  1  0
 42 40  1  0
 43 42  1  0
 44 40  1  0
 45 44  1  0
 41 43  1  0
  1 46  1  0
  1 47  1  0
  3 48  1  0
  3 49  1  0
  4 50  1  0
  4 51  1  0
 11 52  1  0
 12 53  1  0
 13 54  1  0
 14 55  1  0
 15 56  1  0
 16 57  1  0
 17 58  1  0
 17 59  1  0
 18 60  1  0
 18 61  1  0
 19 62  1  0
 19 63  1  0
 20 64  1  0
 20 65  1  0
 22 66  1  0
 22 67  1  0
 23 68  1  0
 23 69  1  0
 30 70  1  0
 31 71  1  0
 32 72  1  0
 33 73  1  0
 34 74  1  0
 35 75  1  0
 36 76  1  0
 36 77  1  0
 37 78  1  0
 37 79  1  0
 38 80  1  0
 38 81  1  0
 39 82  1  0
 39 83  1  0
 40 84  1  0
 41 85  1  0
 42 86  1  0
 42 87  1  0
 43 88  1  0
 43 89  1  0
 44 90  1  0
 44 91  1  0
 45 92  1  0
 45 93  1  0
M  END
> <Uni-Dock RESULT> 
ENERGY=   -9.126  LOWER_BOUND=    1.064  UPPER_BOUND=    3.766
INTER + INTRA:          -9.126
INTER:                  -9.126
INTRA:                   0.000
UNBOUND:                 0.000

$$$$

     RDKit          3D

 93 90  0  0  0  0  0  0  0  0999 V2000
   44.3054    5.0034   12.0833 O   0  0  0  0  0  0  0  0  0  0  0  0
   44.3997    4.9251   11.4386 C   0  0  0  0  0  0  0  0  0  0  0  0
   45.4848    5.7759   10.7562 C   0  0  0  0  0  0  0  0  0  0  0  0
   44.7450    3.4410   11.2606 C   0  0  0  0  0  0  0  0  0  0  0  0
   44.3902    5.2708   12.9385 C   0  0  0  0  0  0  0  0  0  0  0  0
   43.6421    2.5133   11.6861 C   0  0  0  0  0  0  0  0  0  0  0  0
   45.4011    7.2372   11.1031 C   0  0  0  0  0  0  0  0  0  0  0  0
   45.2754    5.0266   13.7420 O   0  0  0  0  0  0  0  0  0  0  0  0
   46.3320    7.9483   11.4387 O   0  0  0  0  0  0  0  0  0  0  0  0
   43.2104    1.5752   11.0352 O   0  0  0  0  0  0  0  0  0  0  0  0
   43.1582    5.1645   10.7699 O   0  0  0  0  0  0  0  0  0  0  0  0
   43.2916    5.9603   13.3134 O   0  0  0  0  0  0  0  0  0  0  0  0
   44.1661    7.7531   10.9580 O   0  0  0  0  0  0  0  0  0  0  0  0
   43.1954    2.7269   12.9361 O   0  0  0  0  0  0  0  0  0  0  0  0
   45.3166    4.6894   10.5241 N   0  0  0  0  0  0  0  0  0  0  0  0
   43.4150    5.3604   12.7014 N   0  0  0  0  0  0  0  0  0  0  0  0
   44.3650    3.7036   11.0700 C   0  0  0  0  0  0  0  0  0  0  0  0
   43.9575    4.0060   12.5285 C   0  0  0  0  0  0  0  0  0  0  0  0
   44.7339    6.0362   10.6733 C   0  0  0  0  0  0  0  0  0  0  0  0
   44.3300    6.3576   12.1287 C   0  0  0  0  0  0  0  0  0  0  0  0
   43.8747    5.3134   11.5278 C   0  0  0  0  0  0  0  0  0  0  0  0
   43.4542    4.3032   10.4548 C   0  0  0  0  0  0  0  0  0  0  0  0
   45.2820    5.8653   11.2704 C   0  0  0  0  0  0  0  0  0  0  0  0
   43.8119    4.6539   12.9179 C   0  0  0  0  0  0  0  0  0  0  0  0
   45.7098    6.8565   12.3199 C   0  0  0  0  0  0  0  0  0  0  0  0
   44.0133    2.9275   10.6571 C   0  0  0  0  0  0  0  0  0  0  0  0
   44.6484    3.9233   13.4210 O   0  0  0  0  0  0  0  0  0  0  0  0
   43.4162    1.9765   11.1323 O   0  0  0  0  0  0  0  0  0  0  0  0
   45.1494    7.1265   13.3683 O   0  0  0  0  0  0  0  0  0  0  0  0
   42.9482    6.4114   11.4110 O   0  0  0  0  0  0  0  0  0  0  0  0
   42.6645    4.9586   13.5663 O   0  0  0  0  0  0  0  0  0  0  0  0
   45.2923    2.8167   10.2606 O   0  0  0  0  0  0  0  0  0  0  0  0
   46.8727    7.4570   11.9955 O   0  0  0  0  0  0  0  0  0  0  0  0
   43.4249    4.6939   12.8245 N   0  0  0  0  0  0  0  0  0  0  0  0
   45.3930    5.4157   10.6169 N   0  0  0  0  0  0  0  0  0  0  0  0
   43.4090    4.0928   11.4817 C   0  0  0  0  0  0  0  0  0  0  0  0
   44.7760    4.0881   10.7668 C   0  0  0  0  0  0  0  0  0  0  0  0
   44.5036    5.6888   12.9612 C   0  0  0  0  0  0  0  0  0  0  0  0
   44.8998    6.3621   11.6331 C   0  0  0  0  0  0  0  0  0  0  0  0
   44.8592    5.8143   10.5204 N   0  0  0  0  0  0  0  0  0  0  0  0
   43.9275    4.2559   12.8733 N   0  0  0  0  0  0  0  0  0  0  0  0
   44.7461    6.4098   11.8635 C   0  0  0  0  0  0  0  0  0  0  0  0
   44.8834    5.3705   12.9970 C   0  0  0  0  0  0  0  0  0  0  0  0
   43.9043    4.6989   10.3964 C   0  0  0  0  0  0  0  0  0  0  0  0
   44.0399    3.6597   11.5304 C   0  0  0  0  0  0  0  0  0  0  0  0
   44.6458    5.7772   11.6096 H   0  0  0  0  0  0  0  0  0  0  0  0
   44.2285    4.3235   11.3973 H   0  0  0  0  0  0  0  0  0  0  0  0
   46.4805    5.4354   11.0683 H   0  0  0  0  0  0  0  0  0  0  0  0
   45.4254    5.6948    9.6646 H   0  0  0  0  0  0  0  0  0  0  0  0
   45.6534    3.1588   11.8052 H   0  0  0  0  0  0  0  0  0  0  0  0
   44.9209    3.2354   10.1965 H   0  0  0  0  0  0  0  0  0  0  0  0
   42.8921    6.0767   11.0101 H   0  0  0  0  0  0  0  0  0  0  0  0
   43.3997    6.0705   14.2816 H   0  0  0  0  0  0  0  0  0  0  0  0
   44.2808    8.7063   11.1689 H   0  0  0  0  0  0  0  0  0  0  0  0
   42.5128    2.0329   13.0592 H   0  0  0  0  0  0  0  0  0  0  0  0
   46.1663    4.6506   11.0862 H   0  0  0  0  0  0  0  0  0  0  0  0
   43.2773    5.5504   13.6923 H   0  0  0  0  0  0  0  0  0  0  0  0
   44.8243    2.7103   11.0223 H   0  0  0  0  0  0  0  0  0  0  0  0
   43.4732    3.6690   10.4316 H   0  0  0  0  0  0  0  0  0  0  0  0
   44.8263    3.8756   13.1861 H   0  0  0  0  0  0  0  0  0  0  0  0
   43.2014    3.2800   12.8474 H   0  0  0  0  0  0  0  0  0  0  0  0
   43.8619    6.1282   10.0139 H   0  0  0  0  0  0  0  0  0  0  0  0
   45.4679    6.7748   10.3314 H   0  0  0  0  0  0  0  0  0  0  0  0
   45.2305    6.4243   12.7524 H   0  0  0  0  0  0  0  0  0  0  0  0
   43.8442    7.3391   12.1580 H   0  0  0  0  0  0  0  0  0  0  0  0
   42.3603    4.2012   10.4436 H   0  0  0  0  0  0  0  0  0  0  0  0
   43.7094    4.6543    9.4474 H   0  0  0  0  0  0  0  0  0  0  0  0
   45.3013    6.3853   10.3045 H   0  0  0  0  0  0  0  0  0  0  0  0
   46.0279    5.0641   11.2638 H   0  0  0  0  0  0  0  0  0  0  0  0
   42.3870    6.3750   12.2145 H   0  0  0  0  0  0  0  0  0  0  0  0
   42.7554    4.5032   14.4320 H   0  0  0  0  0  0  0  0  0  0  0  0
   45.5330    1.8899   10.4781 H   0  0  0  0  0  0  0  0  0  0  0  0
   47.0453    8.0662   12.7442 H   0  0  0  0  0  0  0  0  0  0  0  0
   43.5767    3.9652   13.5212 H   0  0  0  0  0  0  0  0  0  0  0  0
   45.1725    5.7936    9.6956 H   0  0  0  0  0  0  0  0  0  0  0  0
   42.6861    4.6452   10.8684 H   0  0  0  0  0  0  0  0  0  0  0  0
   43.0298    3.0668   11.5558 H   0  0  0  0  0  0  0  0  0  0  0  0
   44.6697    3.6314    9.7763 H   0  0  0  0  0  0  0  0  0  0  0  0
   45.4704    3.4508   11.3282 H   0  0  0  0  0  0  0  0  0  0  0  0
   45.3874    5.1997   13.3904 H   0  0  0  0  0  0  0  0  0  0  0  0
   44.1830    6.4517   13.6791 H   0  0  0  0  0  0  0  0  0  0  0  0
   44.0313    6.8993   11.2308 H   0  0  0  0  0  0  0  0  0  0  0  0
   45.6785    7.1101   11.8176 H   0  0  0  0  0  0  0  0  0  0  0  0
   45.8003    5.4283   10.4304 H   0  0  0  0  0  0  0  0  0  0  0  0
   42.9867    4.6422   12.9631 H   0  0  0  0  0  0  0  0  0  0  0  0
   45.5236    7.1739   11.9759 H   0  0  0  0  0  0  0  0  0  0  0  0
   43.7815    6.9257   11.9471 H   0  0  0  0  0  0  0  0  0  0  0  0
   45.9041    4.9686   13.0112 H   0  0  0  0  0  0  0  0  0  0  0  0
   44.7251    5.8644   13.9623 H   0  0  0  0  0  0  0  0  0  0  0  0
   42.8835    5.1004   10.3806 H   0  0  0  0  0  0  0  0  0  0  0  0
   44.0637    4.2050    9.4313 H   0  0  0  0  0  0  0  0  0  0  0  0
   45.0027    3.1400   11.4466 H   0  0  0  0  0  0  0  0  0  0  0  0
   43.2600    2.8978   11.4178 H   0  0  0  0  0  0  0  0  0  0  0  0
  3  2  1  0
  4  2  1  0
  5  2  1  0
  6  4  1  0
  7  3  1  0
  8  5  2  0
  9  7  2  0
 10  6  2  0
 11  2  1  0
 12  5  1  0
 13  7  1  0
 14  6  1  0
 16 20  1  0
 17 15  1  0
 18 17  1  0
 19 15  1  0
 20 19  1  0
 16 18  1  0
 22 21  1  0
 23 21  1  0
 24 21  1  0
 25 23  1  0
 26 22  1  0
 27 24  2  0
 28 26  2  0
 29 25  2  0
 30 21  1  0
 31 24  1  0
 32 26  1  0
 33 25  1  0
 35 39  1  0
 36 34  1  0
 37 36  1  0
 38 34  1  0
 39 38  1  0
 35 37  1  0
 41 45  1  0
 42 40  1  0
 43 42  1  0
 44 40  1  0
 45 44  1  0
 41 43  1  0
  1 46  1  0
  1 47  1  0
  3 48  1  0
  3 49  1  0
  4 50  1  0
  4 51  1  0
 11 52  1  0
 12 53  1  0
 13 54  1  0
 14 55  1  0
 15 56  1  0
 16 57  1  0
 17 58  1  0
 17 59  1  0
 18 60  1  0
 18 61  1  0
 19 62  1  0
 19 63  1  0
 20 64  1  0
 20 65  1  0
 22 66  1  0
 22 67  1  0
 23 68  1  0
 23 69  1  0
 30 70  1  0
 31 71  1  0
 32 72  1  0
 33 73  1  0
 34 74  1  0
 35 75  1  0
 36 76  1  0
 36 77  1  0
 37 78  1  0
 37 79  1  0
 38 80  1  0
 38 81  1  0
 39 82  1  0
 39 83  1  0
 40 84  1  0
 41 85  1  0
 42 86  1  0
 42 87  1  0
 43 88  1  0
 43 89  1  0
 44 90  1  0
 44 91  1  0
 45 92  1  0
 45 93  1  0
M  END
> <Uni-Dock RESULT> 
ENERGY=   -9.120  LOWER_BOUND=    1.249  UPPER_BOUND=    2.194
INTER + INTRA:          -9.120
INTER:                  -9.120
INTRA:                   0.000
UNBOUND:                 0.000

$$$$

     RDKit          3D

 93 90  0  0  0  0  0  0  0  0999 V2000
   43.9607    5.5453   11.7687 O   0  0  0  0  0  0  0  0  0  0  0  0
   44.5004    5.4637   12.1331 C   0  0  0  0  0  0  0  0  0  0  0  0
   45.0993    4.0502   12.2347 C   0  0  0  0  0  0  0  0  0  0  0  0
   45.5452    6.4046   11.5194 C   0  0  0  0  0  0  0  0  0  0  0  0
   43.2685    5.3988   11.2125 C   0  0  0  0  0  0  0  0  0  0  0  0
   45.1565    7.8547   11.5813 C   0  0  0  0  0  0  0  0  0  0  0  0
   44.0792    2.9935   12.5594 C   0  0  0  0  0  0  0  0  0  0  0  0
   43.2732    5.1700   10.0139 O   0  0  0  0  0  0  0  0  0  0  0  0
   43.9556    1.9200   11.9962 O   0  0  0  0  0  0  0  0  0  0  0  0
   45.8673    8.7661   11.9742 O   0  0  0  0  0  0  0  0  0  0  0  0
   44.2237    5.9279   13.4574 O   0  0  0  0  0  0  0  0  0  0  0  0
   42.1047    5.5629   11.8771 O   0  0  0  0  0  0  0  0  0  0  0  0
   43.2992    3.3061   13.6112 O   0  0  0  0  0  0  0  0  0  0  0  0
   43.9459    8.1222   11.0609 O   0  0  0  0  0  0  0  0  0  0  0  0
   45.7234    4.9773   12.1186 N   0  0  0  0  0  0  0  0  0  0  0  0
   42.8983    5.8800   12.0166 N   0  0  0  0  0  0  0  0  0  0  0  0
   45.3556    6.3990   11.9817 C   0  0  0  0  0  0  0  0  0  0  0  0
   43.9738    6.6011   11.3224 C   0  0  0  0  0  0  0  0  0  0  0  0
   44.6481    4.2832   12.8517 C   0  0  0  0  0  0  0  0  0  0  0  0
   43.2608    4.4677   12.1990 C   0  0  0  0  0  0  0  0  0  0  0  0
   43.9779    5.4835   12.5343 C   0  0  0  0  0  0  0  0  0  0  0  0
   45.0271    6.3880   13.1898 C   0  0  0  0  0  0  0  0  0  0  0  0
   44.5910    4.1704   12.0330 C   0  0  0  0  0  0  0  0  0  0  0  0
   43.3013    6.2293   11.3693 C   0  0  0  0  0  0  0  0  0  0  0  0
   43.5715    3.2733   11.3826 C   0  0  0  0  0  0  0  0  0  0  0  0
   45.8582    7.1666   12.2156 C   0  0  0  0  0  0  0  0  0  0  0  0
   43.7369    6.3732   10.2395 O   0  0  0  0  0  0  0  0  0  0  0  0
   45.7012    8.3391   11.9198 O   0  0  0  0  0  0  0  0  0  0  0  0
   42.4170    3.5372   11.0938 O   0  0  0  0  0  0  0  0  0  0  0  0
   43.0410    5.1557   13.5794 O   0  0  0  0  0  0  0  0  0  0  0  0
   42.1142    6.7634   11.7375 O   0  0  0  0  0  0  0  0  0  0  0  0
   46.8372    6.4348   11.6578 O   0  0  0  0  0  0  0  0  0  0  0  0
   44.0840    2.0592   11.0974 O   0  0  0  0  0  0  0  0  0  0  0  0
   43.1517    6.4169   11.6894 N   0  0  0  0  0  0  0  0  0  0  0  0
   45.3318    4.3707   12.2623 N   0  0  0  0  0  0  0  0  0  0  0  0
   44.3888    6.7198   12.4260 C   0  0  0  0  0  0  0  0  0  0  0  0
   45.5825    5.8085   12.0735 C   0  0  0  0  0  0  0  0  0  0  0  0
   43.0997    5.0040   11.2734 C   0  0  0  0  0  0  0  0  0  0  0  0
   43.8940    4.0560   12.1925 C   0  0  0  0  0  0  0  0  0  0  0  0
   44.9302    4.3627   12.8023 N   0  0  0  0  0  0  0  0  0  0  0  0
   43.5909    6.4683   11.1882 N   0  0  0  0  0  0  0  0  0  0  0  0
   43.6306    4.1415   12.1439 C   0  0  0  0  0  0  0  0  0  0  0  0
   43.4260    5.0327   10.8998 C   0  0  0  0  0  0  0  0  0  0  0  0
   45.0962    5.7983   13.0900 C   0  0  0  0  0  0  0  0  0  0  0  0
   44.8903    6.6905   11.8468 C   0  0  0  0  0  0  0  0  0  0  0  0
   44.0762    4.6667   12.1608 H   0  0  0  0  0  0  0  0  0  0  0  0
   44.7454    6.0356   12.0564 H   0  0  0  0  0  0  0  0  0  0  0  0
   45.5533    3.7649   11.2770 H   0  0  0  0  0  0  0  0  0  0  0  0
   45.8768    4.0025   13.0061 H   0  0  0  0  0  0  0  0  0  0  0  0
   45.7626    6.1569   10.4741 H   0  0  0  0  0  0  0  0  0  0  0  0
   46.4846    6.3180   12.0813 H   0  0  0  0  0  0  0  0  0  0  0  0
   43.4625    5.3995   13.7766 H   0  0  0  0  0  0  0  0  0  0  0  0
   41.4239    5.5418   11.1720 H   0  0  0  0  0  0  0  0  0  0  0  0
   42.7299    2.5134   13.7284 H   0  0  0  0  0  0  0  0  0  0  0  0
   43.8640    9.0955   11.1550 H   0  0  0  0  0  0  0  0  0  0  0  0
   45.7766    4.5751   11.1834 H   0  0  0  0  0  0  0  0  0  0  0  0
   42.0374    5.9462   11.4766 H   0  0  0  0  0  0  0  0  0  0  0  0
   46.1198    6.9018   11.3791 H   0  0  0  0  0  0  0  0  0  0  0  0
   45.3716    6.8742   12.9707 H   0  0  0  0  0  0  0  0  0  0  0  0
   44.0155    6.2726   10.2762 H   0  0  0  0  0  0  0  0  0  0  0  0
   43.7334    7.6700   11.3142 H   0  0  0  0  0  0  0  0  0  0  0  0
   44.6253    4.6436   13.8876 H   0  0  0  0  0  0  0  0  0  0  0  0
   44.8872    3.2144   12.8942 H   0  0  0  0  0  0  0  0  0  0  0  0
   43.2432    3.9599   11.2263 H   0  0  0  0  0  0  0  0  0  0  0  0
   42.5021    3.9876   12.8268 H   0  0  0  0  0  0  0  0  0  0  0  0
   44.5346    7.1221   13.8424 H   0  0  0  0  0  0  0  0  0  0  0  0
   45.6868    5.8221   13.8589 H   0  0  0  0  0  0  0  0  0  0  0  0
   45.0178    3.6180   12.8794 H   0  0  0  0  0  0  0  0  0  0  0  0
   45.3744    4.3554   11.2911 H   0  0  0  0  0  0  0  0  0  0  0  0
   42.2120    5.6288   13.3542 H   0  0  0  0  0  0  0  0  0  0  0  0
   41.7809    7.1852   10.9152 H   0  0  0  0  0  0  0  0  0  0  0  0
   47.2715    7.0517   11.0293 H   0  0  0  0  0  0  0  0  0  0  0  0
   43.3391    1.5760   10.6815 H   0  0  0  0  0  0  0  0  0  0  0  0
   43.1050    6.9954   10.8512 H   0  0  0  0  0  0  0  0  0  0  0  0
   45.6778    4.0801   13.1766 H   0  0  0  0  0  0  0  0  0  0  0  0
   44.1775    6.6338   13.4993 H   0  0  0  0  0  0  0  0  0  0  0  0
   44.6611    7.7668   12.2486 H   0  0  0  0  0  0  0  0  0  0  0  0
   46.4541    6.0990   12.6709 H   0  0  0  0  0  0  0  0  0  0  0  0
   45.8587    5.9715   11.0243 H   0  0  0  0  0  0  0  0  0  0  0  0
   43.4896    4.9189   10.2510 H   0  0  0  0  0  0  0  0  0  0  0  0
   42.0505    4.6905   11.2400 H   0  0  0  0  0  0  0  0  0  0  0  0
   43.4686    4.0977   13.2035 H   0  0  0  0  0  0  0  0  0  0  0  0
   43.7811    3.0241   11.8426 H   0  0  0  0  0  0  0  0  0  0  0  0
   45.6618    4.0917   12.1436 H   0  0  0  0  0  0  0  0  0  0  0  0
   42.8594    6.7388   11.8470 H   0  0  0  0  0  0  0  0  0  0  0  0
   43.5598    3.0879   11.8508 H   0  0  0  0  0  0  0  0  0  0  0  0
   42.8262    4.3231   12.8675 H   0  0  0  0  0  0  0  0  0  0  0  0
   44.1326    4.7408   10.1131 H   0  0  0  0  0  0  0  0  0  0  0  0
   42.4200    4.8679   10.4977 H   0  0  0  0  0  0  0  0  0  0  0  0
   44.3908    6.0904   13.8778 H   0  0  0  0  0  0  0  0  0  0  0  0
   46.1026    5.9625   13.4914 H   0  0  0  0  0  0  0  0  0  0  0  0
   45.6958    6.5130   11.1230 H   0  0  0  0  0  0  0  0  0  0  0  0
   44.9590    7.7437   12.1421 H   0  0  0  0  0  0  0  0  0  0  0  0
  3  2  1  0
  4  2  1  0
  5  2  1  0
  6  4  1  0
  7  3  1  0
  8  5  2  0
  9  7  2  0
 10  6  2  0
 11  2  1  0
 12  5  1  0
 13  7  1  0
 14  6  1  0
 16 20  1  0
 17 15  1  0
 18 17  1  0
 19 15  1  0
 20 19  1  0
 16 18  1  0
 22 21  1  0
 23 21  1  0
 24 21  1  0
 25 23  1  0
 26 22  1  0
 27 24  2  0
 28 26  2  0
 29 25  2  0
 30 21  1  0
 31 24  1  0
 32 26  1  0
 33 25  1  0
 35 39  1  0
 36 34  1  0
 37 36  1  0
 38 34  1  0
 39 38  1  0
 35 37  1  0
 41 45  1  0
 42 40  1  0
 43 42  1  0
 44 40  1  0
 45 44  1  0
 41 43  1  0
  1 46  1  0
  1 47  1  0
  3 48  1  0
  3 49  1  0
  4 50  1  0
  4 51  1  0
 11 52  1  0
 12 53  1  0
 13 54  1  0
 14 55  1  0
 15 56  1  0
 16 57  1  0
 17 58  1  0
 17 59  1  0
 18 60  1  0
 18 61  1  0
 19 62  1  0
 19 63  1  0
 20 64  1  0
 20 65  1  0
 22 66  1  0
 22 67  1  0
 23 68  1  0
 23 69  1  0
 30 70  1  0
 31 71  1  0
 32 72  1  0
 33 73  1  0
 34 74  1  0
 35 75  1  0
 36 76  1  0
 36 77  1  0
 37 78  1  0
 37 79  1  0
 38 80  1  0
 38 81  1  0
 39 82  1  0
 39 83  1  0
 40 84  1  0
 41 85  1  0
 42 86  1  0
 42 87  1  0
 43 88  1  0
 43 89  1  0
 44 90  1  0
 44 91  1  0
 45 92  1  0
 45 93  1  0
M  END
> <Uni-Dock RESULT> 
ENERGY=   -8.645  LOWER_BOUND=    1.701  UPPER_BOUND=    3.581
INTER + INTRA:          -8.645
INTER:                  -8.645
INTRA:                   0.000
UNBOUND:                 0.000

$$$$

     RDKit          3D

 93 90  0  0  0  0  0  0  0  0999 V2000
   45.3286    5.2960   12.6262 O   0  0  0  0  0  0  0  0  0  0  0  0
   45.4010    5.8844   12.3445 C   0  0  0  0  0  0  0  0  0  0  0  0
   44.1321    6.6717   11.9743 C   0  0  0  0  0  0  0  0  0  0  0  0
   46.2252    6.7085   13.3421 C   0  0  0  0  0  0  0  0  0  0  0  0
   44.9709    4.5629   13.0064 C   0  0  0  0  0  0  0  0  0  0  0  0
   47.5938    6.1441   13.6000 C   0  0  0  0  0  0  0  0  0  0  0  0
   43.1190    5.8497   11.2254 C   0  0  0  0  0  0  0  0  0  0  0  0
   44.4193    4.4424   14.0881 O   0  0  0  0  0  0  0  0  0  0  0  0
   41.9247    5.7962   11.4609 O   0  0  0  0  0  0  0  0  0  0  0  0
   48.6391    6.7740   13.5783 O   0  0  0  0  0  0  0  0  0  0  0  0
   46.1878    5.7230   11.1611 O   0  0  0  0  0  0  0  0  0  0  0  0
   45.2066    3.4836   12.2302 O   0  0  0  0  0  0  0  0  0  0  0  0
   43.6394    5.1782   10.1810 O   0  0  0  0  0  0  0  0  0  0  0  0
   47.5947    4.8518   13.9713 O   0  0  0  0  0  0  0  0  0  0  0  0
   45.0432    7.1484   12.4271 N   0  0  0  0  0  0  0  0  0  0  0  0
   45.6209    4.2400   12.3075 N   0  0  0  0  0  0  0  0  0  0  0  0
   46.3312    6.5826   12.8702 C   0  0  0  0  0  0  0  0  0  0  0  0
   46.2154    5.1127   13.3291 C   0  0  0  0  0  0  0  0  0  0  0  0
   44.4854    6.2775   11.3755 C   0  0  0  0  0  0  0  0  0  0  0  0
   44.3540    4.8052   11.8227 C   0  0  0  0  0  0  0  0  0  0  0  0
   45.4839    5.4202   11.8841 C   0  0  0  0  0  0  0  0  0  0  0  0
   46.6266    6.4176   11.6648 C   0  0  0  0  0  0  0  0  0  0  0  0
   44.1447    6.1301   12.1162 C   0  0  0  0  0  0  0  0  0  0  0  0
   45.8116    4.5066   13.0796 C   0  0  0  0  0  0  0  0  0  0  0  0
   43.0132    5.1617   12.3372 C   0  0  0  0  0  0  0  0  0  0  0  0
   47.1760    7.0062   12.9289 C   0  0  0  0  0  0  0  0  0  0  0  0
   45.6747    4.7695   14.2623 O   0  0  0  0  0  0  0  0  0  0  0  0
   48.2006    6.6597   13.4919 O   0  0  0  0  0  0  0  0  0  0  0  0
   43.0802    3.9549   12.4961 O   0  0  0  0  0  0  0  0  0  0  0  0
   45.3757    4.6777   10.6535 O   0  0  0  0  0  0  0  0  0  0  0  0
   46.3166    3.3174   12.6785 O   0  0  0  0  0  0  0  0  0  0  0  0
   46.4102    7.9922   13.4254 O   0  0  0  0  0  0  0  0  0  0  0  0
   41.8195    5.7877   12.3734 O   0  0  0  0  0  0  0  0  0  0  0  0
   46.0664    4.3763   12.7999 N   0  0  0  0  0  0  0  0  0  0  0  0
   44.4674    6.8617   12.0690 N   0  0  0  0  0  0  0  0  0  0  0  0
   46.6735    5.6478   12.3762 C   0  0  0  0  0  0  0  0  0  0  0  0
   45.8126    6.8950   12.6648 C   0  0  0  0  0  0  0  0  0  0  0  0
   44.5949    4.4567   12.8181 C   0  0  0  0  0  0  0  0  0  0  0  0
   44.0162    5.4807   11.8228 C   0  0  0  0  0  0  0  0  0  0  0  0
   44.5733    6.5379   11.4886 N   0  0  0  0  0  0  0  0  0  0  0  0
   46.0162    4.7364   13.3608 N   0  0  0  0  0  0  0  0  0  0  0  0
   44.0604    5.2044   11.8491 C   0  0  0  0  0  0  0  0  0  0  0  0
   44.5482    4.7253   13.2335 C   0  0  0  0  0  0  0  0  0  0  0  0
   46.0412    6.5500   11.6167 C   0  0  0  0  0  0  0  0  0  0  0  0
   46.5300    6.0696   13.0003 C   0  0  0  0  0  0  0  0  0  0  0  0
   44.6079    5.5756   12.0418 H   0  0  0  0  0  0  0  0  0  0  0  0
   45.9488    6.0402   12.6063 H   0  0  0  0  0  0  0  0  0  0  0  0
   43.6343    7.0313   12.8839 H   0  0  0  0  0  0  0  0  0  0  0  0
   44.3718    7.5419   11.3521 H   0  0  0  0  0  0  0  0  0  0  0  0
   45.7175    6.8193   14.3072 H   0  0  0  0  0  0  0  0  0  0  0  0
   46.3841    7.7158   12.9352 H   0  0  0  0  0  0  0  0  0  0  0  0
   45.7020    5.0855   10.5970 H   0  0  0  0  0  0  0  0  0  0  0  0
   44.9284    2.7260   12.7866 H   0  0  0  0  0  0  0  0  0  0  0  0
   42.8621    4.7378    9.7709 H   0  0  0  0  0  0  0  0  0  0  0  0
   48.5440    4.6558   14.1231 H   0  0  0  0  0  0  0  0  0  0  0  0
   44.4034    7.1324   13.2207 H   0  0  0  0  0  0  0  0  0  0  0  0
   45.4557    3.3153   12.7007 H   0  0  0  0  0  0  0  0  0  0  0  0
   46.7139    7.1897   13.6978 H   0  0  0  0  0  0  0  0  0  0  0  0
   47.0619    6.6641   12.0557 H   0  0  0  0  0  0  0  0  0  0  0  0
   45.6141    5.0613   14.2457 H   0  0  0  0  0  0  0  0  0  0  0  0
   47.2133    4.7350   13.5779 H   0  0  0  0  0  0  0  0  0  0  0  0
   45.1159    6.3419   10.4801 H   0  0  0  0  0  0  0  0  0  0  0  0
   43.4969    6.6582   11.0940 H   0  0  0  0  0  0  0  0  0  0  0  0
   43.5965    4.7287   12.6130 H   0  0  0  0  0  0  0  0  0  0  0  0
   44.0004    4.2038   10.9780 H   0  0  0  0  0  0  0  0  0  0  0  0
   47.4652    5.9218   11.1567 H   0  0  0  0  0  0  0  0  0  0  0  0
   46.3316    7.2269   10.9857 H   0  0  0  0  0  0  0  0  0  0  0  0
   43.8906    6.7317   11.2345 H   0  0  0  0  0  0  0  0  0  0  0  0
   44.1867    6.7798   12.9963 H   0  0  0  0  0  0  0  0  0  0  0  0
   45.6901    3.7717   10.8586 H   0  0  0  0  0  0  0  0  0  0  0  0
   46.4611    2.8280   13.5179 H   0  0  0  0  0  0  0  0  0  0  0  0
   46.8649    8.2568   14.2544 H   0  0  0  0  0  0  0  0  0  0  0  0
   41.1740    5.0652   12.5236 H   0  0  0  0  0  0  0  0  0  0  0  0
   46.3822    4.1460   13.7415 H   0  0  0  0  0  0  0  0  0  0  0  0
   44.4753    7.3583   11.1782 H   0  0  0  0  0  0  0  0  0  0  0  0
   46.8703    5.5904   11.2984 H   0  0  0  0  0  0  0  0  0  0  0  0
   47.6501    5.7551   12.8626 H   0  0  0  0  0  0  0  0  0  0  0  0
   46.3359    7.7909   12.3119 H   0  0  0  0  0  0  0  0  0  0  0  0
   45.7020    7.0092   13.7504 H   0  0  0  0  0  0  0  0  0  0  0  0
   44.2647    4.7188   13.8314 H   0  0  0  0  0  0  0  0  0  0  0  0
   44.1903    3.4623   12.5997 H   0  0  0  0  0  0  0  0  0  0  0  0
   44.2984    5.1881   10.8032 H   0  0  0  0  0  0  0  0  0  0  0  0
   42.9219    5.4599   11.8678 H   0  0  0  0  0  0  0  0  0  0  0  0
   44.1977    7.2073   12.1619 H   0  0  0  0  0  0  0  0  0  0  0  0
   46.3914    4.0672   12.6872 H   0  0  0  0  0  0  0  0  0  0  0  0
   42.9650    5.2351   11.8412 H   0  0  0  0  0  0  0  0  0  0  0  0
   44.3621    4.4837   11.0789 H   0  0  0  0  0  0  0  0  0  0  0  0
   44.1146    5.3563   14.0192 H   0  0  0  0  0  0  0  0  0  0  0  0
   44.1872    3.7061   13.4119 H   0  0  0  0  0  0  0  0  0  0  0  0
   46.4754    5.9204   10.8302 H   0  0  0  0  0  0  0  0  0  0  0  0
   46.4015    7.5695   11.4389 H   0  0  0  0  0  0  0  0  0  0  0  0
   46.2324    6.7909   13.7718 H   0  0  0  0  0  0  0  0  0  0  0  0
   47.6256    6.0371   13.0056 H   0  0  0  0  0  0  0  0  0  0  0  0
  3  2  1  0
  4  2  1  0
  5  2  1  0
  6  4  1  0
  7  3  1  0
  8  5  2  0
  9  7  2  0
 10  6  2  0
 11  2  1  0
 12  5  1  0
 13  7  1  0
 14  6  1  0
 16 20  1  0
 17 15  1  0
 18 17  1  0
 19 15  1  0
 20 19  1  0
 16 18  1  0
 22 21  1  0
 23 21  1  0
 24 21  1  0
 25 23  1  0
 26 22  1  0
 27 24  2  0
 28 26  2  0
 29 25  2  0
 30 21  1  0
 31 24  1  0
 32 26  1  0
 33 25  1  0
 35 39  1  0
 36 34  1  0
 37 36  1  0
 38 34  1  0
 39 38  1  0
 35 37  1  0
 41 45  1  0
 42 40  1  0
 43 42  1  0
 44 40  1  0
 45 44  1  0
 41 43  1  0
  1 46  1  0
  1 47  1  0
  3 48  1  0
  3 49  1  0
  4 50  1  0
  4 51  1  0
 11 52  1  0
 12 53  1  0
 13 54  1  0
 14 55  1  0
 15 56  1  0
 16 57  1  0
 17 58  1  0
 17 59  1  0
 18 60  1  0
 18 61  1  0
 19 62  1  0
 19 63  1  0
 20 64  1  0
 20 65  1  0
 22 66  1  0
 22 67  1  0
 23 68  1  0
 23 69  1  0
 30 70  1  0
 31 71  1  0
 32 72  1  0
 33 73  1  0
 34 74  1  0
 35 75  1  0
 36 76  1  0
 36 77  1  0
 37 78  1  0
 37 79  1  0
 38 80  1  0
 38 81  1  0
 39 82  1  0
 39 83  1  0
 40 84  1  0
 41 85  1  0
 42 86  1  0
 42 87  1  0
 43 88  1  0
 43 89  1  0
 44 90  1  0
 44 91  1  0
 45 92  1  0
 45 93  1  0
M  END
> <Uni-Dock RESULT> 
ENERGY=   -8.010  LOWER_BOUND=    1.860  UPPER_BOUND=    3.641
INTER + INTRA:          -8.010
INTER:                  -8.010
INTRA:                   0.000
UNBOUND:                 0.000

$$$$

     RDKit          3D

 93 90  0  0  0  0  0  0  0  0999 V2000
   48.0275    4.9511   18.6500 O   0  0  0  0  0  0  0  0  0  0  0  0
   48.3595    4.3906   18.7298 C   0  0  0  0  0  0  0  0  0  0  0  0
   48.5073    3.8326   20.1559 C   0  0  0  0  0  0  0  0  0  0  0  0
   47.6214    3.3601   17.8656 C   0  0  0  0  0  0  0  0  0  0  0  0
   47.5285    5.6842   18.8035 C   0  0  0  0  0  0  0  0  0  0  0  0
   47.6202    3.6963   16.4010 C   0  0  0  0  0  0  0  0  0  0  0  0
   48.9631    4.8620   21.1535 C   0  0  0  0  0  0  0  0  0  0  0  0
   46.3485    5.7691   19.1024 O   0  0  0  0  0  0  0  0  0  0  0  0
   48.4761    5.0588   22.2531 O   0  0  0  0  0  0  0  0  0  0  0  0
   47.9086    2.9309   15.4948 O   0  0  0  0  0  0  0  0  0  0  0  0
   49.6684    4.5606   18.1787 O   0  0  0  0  0  0  0  0  0  0  0  0
   48.2577    6.7937   18.5580 O   0  0  0  0  0  0  0  0  0  0  0  0
   50.0433    5.5575   20.7512 O   0  0  0  0  0  0  0  0  0  0  0  0
   47.1660    4.9302   16.1204 O   0  0  0  0  0  0  0  0  0  0  0  0
   48.2936    3.1880   19.2607 N   0  0  0  0  0  0  0  0  0  0  0  0
   48.3245    5.9825   18.2626 N   0  0  0  0  0  0  0  0  0  0  0  0
   48.0948    3.5178   17.8369 C   0  0  0  0  0  0  0  0  0  0  0  0
   47.5176    4.9341   17.6234 C   0  0  0  0  0  0  0  0  0  0  0  0
   49.1376    4.2326   19.8706 C   0  0  0  0  0  0  0  0  0  0  0  0
   48.5684    5.6546   19.6741 C   0  0  0  0  0  0  0  0  0  0  0  0
   48.7926    4.8835   18.6673 C   0  0  0  0  0  0  0  0  0  0  0  0
   49.3204    3.7629   17.7649 C   0  0  0  0  0  0  0  0  0  0  0  0
   48.3329    4.3494   20.0292 C   0  0  0  0  0  0  0  0  0  0  0  0
   47.6317    5.6136   17.9669 C   0  0  0  0  0  0  0  0  0  0  0  0
   47.8078    5.4397   20.9250 C   0  0  0  0  0  0  0  0  0  0  0  0
   48.2473    2.9755   17.0759 C   0  0  0  0  0  0  0  0  0  0  0  0
   46.4688    5.2520   17.9058 O   0  0  0  0  0  0  0  0  0  0  0  0
   47.8915    3.1142   15.9179 O   0  0  0  0  0  0  0  0  0  0  0  0
   47.5806    6.6021   20.6364 O   0  0  0  0  0  0  0  0  0  0  0  0
   49.9157    5.7567   18.8985 O   0  0  0  0  0  0  0  0  0  0  0  0
   48.0446    6.7546   17.3690 O   0  0  0  0  0  0  0  0  0  0  0  0
   47.6715    2.0614   17.8746 O   0  0  0  0  0  0  0  0  0  0  0  0
   47.5639    4.9878   22.1718 O   0  0  0  0  0  0  0  0  0  0  0  0
   47.9490    5.7348   17.7555 N   0  0  0  0  0  0  0  0  0  0  0  0
   48.4998    3.5884   19.8430 N   0  0  0  0  0  0  0  0  0  0  0  0
   48.5819    4.4409   17.4554 C   0  0  0  0  0  0  0  0  0  0  0  0
   48.2072    3.3045   18.4290 C   0  0  0  0  0  0  0  0  0  0  0  0
   47.6245    5.8612   19.1876 C   0  0  0  0  0  0  0  0  0  0  0  0
   48.5450    5.0372   20.1084 C   0  0  0  0  0  0  0  0  0  0  0  0
   49.0648    3.9521   19.8046 N   0  0  0  0  0  0  0  0  0  0  0  0
   47.4175    5.3295   17.7498 N   0  0  0  0  0  0  0  0  0  0  0  0
   48.5089    5.3003   20.0163 C   0  0  0  0  0  0  0  0  0  0  0  0
   47.2290    5.5605   19.1928 C   0  0  0  0  0  0  0  0  0  0  0  0
   49.2525    3.7201   18.3616 C   0  0  0  0  0  0  0  0  0  0  0  0
   47.9734    3.9815   17.5371 C   0  0  0  0  0  0  0  0  0  0  0  0
   48.4640    4.8377   19.5077 H   0  0  0  0  0  0  0  0  0  0  0  0
   48.2319    4.1330   18.1728 H   0  0  0  0  0  0  0  0  0  0  0  0
   47.5408    3.4548   20.5135 H   0  0  0  0  0  0  0  0  0  0  0  0
   49.2269    3.0061   20.1866 H   0  0  0  0  0  0  0  0  0  0  0  0
   46.5810    3.2231   18.1821 H   0  0  0  0  0  0  0  0  0  0  0  0
   48.1239    2.3879   17.9534 H   0  0  0  0  0  0  0  0  0  0  0  0
   50.0692    5.3150   18.6592 H   0  0  0  0  0  0  0  0  0  0  0  0
   47.6020    7.5215   18.5956 H   0  0  0  0  0  0  0  0  0  0  0  0
   50.2463    6.1430   21.5143 H   0  0  0  0  0  0  0  0  0  0  0  0
   47.2056    4.9737   15.1409 H   0  0  0  0  0  0  0  0  0  0  0  0
   47.3832    3.2122   19.7189 H   0  0  0  0  0  0  0  0  0  0  0  0
   47.8399    6.8758   18.1967 H   0  0  0  0  0  0  0  0  0  0  0  0
   47.4131    2.7807   17.3989 H   0  0  0  0  0  0  0  0  0  0  0  0
   49.0496    3.4185   17.3054 H   0  0  0  0  0  0  0  0  0  0  0  0
   46.4930    4.9749   18.0143 H   0  0  0  0  0  0  0  0  0  0  0  0
   47.4600    5.1396   16.5488 H   0  0  0  0  0  0  0  0  0  0  0  0
   50.1487    4.1726   19.4493 H   0  0  0  0  0  0  0  0  0  0  0  0
   49.2294    4.0262   20.9431 H   0  0  0  0  0  0  0  0  0  0  0  0
   47.6319    5.7554   20.2372 H   0  0  0  0  0  0  0  0  0  0  0  0
   49.2734    6.3838   20.0882 H   0  0  0  0  0  0  0  0  0  0  0  0
   49.9582    4.1853   16.9761 H   0  0  0  0  0  0  0  0  0  0  0  0
   49.9776    3.0777   18.3142 H   0  0  0  0  0  0  0  0  0  0  0  0
   49.1813    3.8838   20.5461 H   0  0  0  0  0  0  0  0  0  0  0  0
   47.5306    3.6130   19.9170 H   0  0  0  0  0  0  0  0  0  0  0  0
   49.7176    6.5833   18.4093 H   0  0  0  0  0  0  0  0  0  0  0  0
   47.2221    7.1296   16.9843 H   0  0  0  0  0  0  0  0  0  0  0  0
   46.9791    1.6513   17.3122 H   0  0  0  0  0  0  0  0  0  0  0  0
   47.2287    5.7748   22.6509 H   0  0  0  0  0  0  0  0  0  0  0  0
   47.0819    5.8198   17.2260 H   0  0  0  0  0  0  0  0  0  0  0  0
   49.4052    3.1902   20.0918 H   0  0  0  0  0  0  0  0  0  0  0  0
   49.6700    4.5808   17.4703 H   0  0  0  0  0  0  0  0  0  0  0  0
   48.3230    4.1474   16.4313 H   0  0  0  0  0  0  0  0  0  0  0  0
   48.7265    2.3850   18.1360 H   0  0  0  0  0  0  0  0  0  0  0  0
   47.1340    3.0957   18.3382 H   0  0  0  0  0  0  0  0  0  0  0  0
   46.5856    5.5452   19.3469 H   0  0  0  0  0  0  0  0  0  0  0  0
   47.6801    6.9199   19.4638 H   0  0  0  0  0  0  0  0  0  0  0  0
   49.5776    5.3907   19.9918 H   0  0  0  0  0  0  0  0  0  0  0  0
   48.2672    5.2073   21.1542 H   0  0  0  0  0  0  0  0  0  0  0  0
   48.3767    3.2766   20.1404 H   0  0  0  0  0  0  0  0  0  0  0  0
   48.1057    6.0049   17.4144 H   0  0  0  0  0  0  0  0  0  0  0  0
   48.2862    5.4253   21.0820 H   0  0  0  0  0  0  0  0  0  0  0  0
   49.2719    6.0468   19.7631 H   0  0  0  0  0  0  0  0  0  0  0  0
   46.4164    4.9193   19.5563 H   0  0  0  0  0  0  0  0  0  0  0  0
   46.9055    6.5965   19.3440 H   0  0  0  0  0  0  0  0  0  0  0  0
   50.0661    4.3599   17.9979 H   0  0  0  0  0  0  0  0  0  0  0  0
   49.5753    2.6837   18.2111 H   0  0  0  0  0  0  0  0  0  0  0  0
   47.2100    3.2337   17.7863 H   0  0  0  0  0  0  0  0  0  0  0  0
   48.1986    3.8584   16.4715 H   0  0  0  0  0  0  0  0  0  0  0  0
  3  2  1  0
  4  2  1  0
  5  2  1  0
  6  4  1  0
  7  3  1  0
  8  5  2  0
  9  7  2  0
 10  6  2  0
 11  2  1  0
 12  5  1  0
 13  7  1  0
 14  6  1  0
 16 20  1  0
 17 15  1  0
 18 17  1  0
 19 15  1  0
 20 19  1  0
 16 18  1  0
 22 21  1  0
 23 21  1  0
 24 21  1  0
 25 23  1  0
 26 22  1  0
 27 24  2  0
 28 26  2  0
 29 25  2  0
 30 21  1  0
 31 24  1  0
 32 26  1  0
 33 25  1  0
 35 39  1  0
 36 34  1  0
 37 36  1  0
 38 34  1  0
 39 38  1  0
 35 37  1  0
 41 45  1  0
 42 40  1  0
 43 42  1  0
 44 40  1  0
 45 44  1  0
 41 43  1  0
  1 46  1  0
  1 47  1  0
  3 48  1  0
  3 49  1  0
  4 50  1  0
  4 51  1  0
 11 52  1  0
 12 53  1  0
 13 54  1  0
 14 55  1  0
 15 56  1  0
 16 57  1  0
 17 58  1  0
 17 59  1  0
 18 60  1  0
 18 61  1  0
 19 62  1  0
 19 63  1  0
 20 64  1  0
 20 65  1  0
 22 66  1  0
 22 67  1  0
 23 68  1  0
 23 69  1  0
 30 70  1  0
 31 71  1  0
 32 72  1  0
 33 73  1  0
 34 74  1  0
 35 75  1  0
 36 76  1  0
 36 77  1  0
 37 78  1  0
 37 79  1  0
 38 80  1  0
 38 81  1  0
 39 82  1  0
 39 83  1  0
 40 84  1  0
 41 85  1  0
 42 86  1  0
 42 87  1  0
 43 88  1  0
 43 89  1  0
 44 90  1  0
 44 91  1  0
 45 92  1  0
 45 93  1  0
M  END
> <Uni-Dock RESULT> 
ENERGY=   -7.964  LOWER_BOUND=    6.708  UPPER_BOUND=    8.879
INTER + INTRA:          -7.964
INTER:                  -7.964
INTRA:                   0.000
UNBOUND:                 0.000

$$$$

     RDKit          3D

 93 90  0  0  0  0  0  0  0  0999 V2000
   46.5277    7.6814   12.7555 O   0  0  0  0  0  0  0  0  0  0  0  0
   46.4749    7.0306   12.6898 C   0  0  0  0  0  0  0  0  0  0  0  0
   47.2539    6.1375   13.6708 C   0  0  0  0  0  0  0  0  0  0  0  0
   44.9762    6.7333   12.8280 C   0  0  0  0  0  0  0  0  0  0  0  0
   46.7404    8.5002   13.0628 C   0  0  0  0  0  0  0  0  0  0  0  0
   44.1359    7.3787   11.7625 C   0  0  0  0  0  0  0  0  0  0  0  0
   48.6963    6.5367   13.8223 C   0  0  0  0  0  0  0  0  0  0  0  0
   46.3716    9.0658   14.0791 O   0  0  0  0  0  0  0  0  0  0  0  0
   49.2974    6.6648   14.8744 O   0  0  0  0  0  0  0  0  0  0  0  0
   43.2784    6.8205   11.0968 O   0  0  0  0  0  0  0  0  0  0  0  0
   46.8655    6.6796   11.3594 O   0  0  0  0  0  0  0  0  0  0  0  0
   47.5101    9.1426   12.1585 O   0  0  0  0  0  0  0  0  0  0  0  0
   49.3336    6.7009   12.6479 O   0  0  0  0  0  0  0  0  0  0  0  0
   44.3247    8.7044   11.6411 O   0  0  0  0  0  0  0  0  0  0  0  0
   46.2020    5.9198   13.3412 N   0  0  0  0  0  0  0  0  0  0  0  0
   46.9342    8.5015   12.0741 N   0  0  0  0  0  0  0  0  0  0  0  0
   45.2833    6.6450   12.4437 C   0  0  0  0  0  0  0  0  0  0  0  0
   45.5456    8.1666   12.4177 C   0  0  0  0  0  0  0  0  0  0  0  0
   47.5881    6.2409   12.9523 C   0  0  0  0  0  0  0  0  0  0  0  0
   47.8691    7.7592   12.9310 C   0  0  0  0  0  0  0  0  0  0  0  0
   46.9059    7.2519   12.2430 C   0  0  0  0  0  0  0  0  0  0  0  0
   45.9979    6.2787   11.4832 C   0  0  0  0  0  0  0  0  0  0  0  0
   47.3349    6.6873   13.6026 C   0  0  0  0  0  0  0  0  0  0  0  0
   46.1829    8.5980   12.4343 C   0  0  0  0  0  0  0  0  0  0  0  0
   48.2246    7.6353   14.3620 C   0  0  0  0  0  0  0  0  0  0  0  0
   44.5667    6.3038   11.9273 C   0  0  0  0  0  0  0  0  0  0  0  0
   45.3510    8.8691   13.2834 O   0  0  0  0  0  0  0  0  0  0  0  0
   43.6528    6.8782   11.3601 O   0  0  0  0  0  0  0  0  0  0  0  0
   48.4908    8.7934   14.0900 O   0  0  0  0  0  0  0  0  0  0  0  0
   48.0912    7.3881   11.4343 O   0  0  0  0  0  0  0  0  0  0  0  0
   46.5602    9.5065   11.5057 O   0  0  0  0  0  0  0  0  0  0  0  0
   44.3565    5.6150   13.0615 O   0  0  0  0  0  0  0  0  0  0  0  0
   48.7286    7.0644   15.4748 O   0  0  0  0  0  0  0  0  0  0  0  0
   46.2642    8.5994   12.0425 N   0  0  0  0  0  0  0  0  0  0  0  0
   46.9120    6.0131   13.5122 N   0  0  0  0  0  0  0  0  0  0  0  0
   45.7389    7.2810   11.6545 C   0  0  0  0  0  0  0  0  0  0  0  0
   45.6427    6.2651   12.8114 C   0  0  0  0  0  0  0  0  0  0  0  0
   47.1441    8.5077   13.2214 C   0  0  0  0  0  0  0  0  0  0  0  0
   47.8458    7.1439   13.3684 C   0  0  0  0  0  0  0  0  0  0  0  0
   47.3637    6.0564   13.0152 N   0  0  0  0  0  0  0  0  0  0  0  0
   45.7787    8.5160   12.4943 N   0  0  0  0  0  0  0  0  0  0  0  0
   47.8957    7.4053   13.2778 C   0  0  0  0  0  0  0  0  0  0  0  0
   46.7897    8.4441   13.5638 C   0  0  0  0  0  0  0  0  0  0  0  0
   46.3518    6.1278   11.9464 C   0  0  0  0  0  0  0  0  0  0  0  0
   45.2461    7.1675   12.2309 C   0  0  0  0  0  0  0  0  0  0  0  0
   47.2897    7.1637   13.0562 H   0  0  0  0  0  0  0  0  0  0  0  0
   45.8952    7.0131   12.4519 H   0  0  0  0  0  0  0  0  0  0  0  0
   46.8049    6.1968   14.6705 H   0  0  0  0  0  0  0  0  0  0  0  0
   47.2365    5.0884   13.3528 H   0  0  0  0  0  0  0  0  0  0  0  0
   44.5810    7.0408   13.8030 H   0  0  0  0  0  0  0  0  0  0  0  0
   44.8113    5.6521   12.7311 H   0  0  0  0  0  0  0  0  0  0  0  0
   47.7849    7.0020   11.2525 H   0  0  0  0  0  0  0  0  0  0  0  0
   47.5584   10.0610   12.4980 H   0  0  0  0  0  0  0  0  0  0  0  0
   50.2593    6.9067   12.9069 H   0  0  0  0  0  0  0  0  0  0  0  0
   43.6928    8.9641   10.9368 H   0  0  0  0  0  0  0  0  0  0  0  0
   46.0534    6.2652   14.2888 H   0  0  0  0  0  0  0  0  0  0  0  0
   47.0839    9.5022   12.1893 H   0  0  0  0  0  0  0  0  0  0  0  0
   44.2548    6.4618   12.7735 H   0  0  0  0  0  0  0  0  0  0  0  0
   45.3669    6.2332   11.4301 H   0  0  0  0  0  0  0  0  0  0  0  0
   45.2991    8.5976   13.3964 H   0  0  0  0  0  0  0  0  0  0  0  0
   44.8786    8.6329   11.6841 H   0  0  0  0  0  0  0  0  0  0  0  0
   47.7969    5.8078   11.9662 H   0  0  0  0  0  0  0  0  0  0  0  0
   48.2709    5.7578   13.6606 H   0  0  0  0  0  0  0  0  0  0  0  0
   47.8175    8.1556   13.9531 H   0  0  0  0  0  0  0  0  0  0  0  0
   48.8893    7.9304   12.5702 H   0  0  0  0  0  0  0  0  0  0  0  0
   46.0006    6.5219   10.4117 H   0  0  0  0  0  0  0  0  0  0  0  0
   46.3759    5.2503   11.5342 H   0  0  0  0  0  0  0  0  0  0  0  0
   47.9010    5.7595   13.4525 H   0  0  0  0  0  0  0  0  0  0  0  0
   46.4682    6.4822   14.2391 H   0  0  0  0  0  0  0  0  0  0  0  0
   48.0658    8.2995   11.0730 H   0  0  0  0  0  0  0  0  0  0  0  0
   46.0533   10.3129   11.7460 H   0  0  0  0  0  0  0  0  0  0  0  0
   43.4010    5.7427   13.2479 H   0  0  0  0  0  0  0  0  0  0  0  0
   49.2784    7.7691   15.8781 H   0  0  0  0  0  0  0  0  0  0  0  0
   45.4887    9.2194   12.2741 H   0  0  0  0  0  0  0  0  0  0  0  0
   47.3570    5.1809   13.1257 H   0  0  0  0  0  0  0  0  0  0  0  0
   46.3888    6.8710   10.8713 H   0  0  0  0  0  0  0  0  0  0  0  0
   44.7510    7.4121   11.1978 H   0  0  0  0  0  0  0  0  0  0  0  0
   45.2508    5.3144   12.4324 H   0  0  0  0  0  0  0  0  0  0  0  0
   44.9138    6.6288   13.5464 H   0  0  0  0  0  0  0  0  0  0  0  0
   46.5516    8.7029   14.1244 H   0  0  0  0  0  0  0  0  0  0  0  0
   47.8950    9.3028   13.1565 H   0  0  0  0  0  0  0  0  0  0  0  0
   48.4833    6.9727   12.4913 H   0  0  0  0  0  0  0  0  0  0  0  0
   48.5061    7.1621   14.2422 H   0  0  0  0  0  0  0  0  0  0  0  0
   46.8958    5.7367   13.8645 H   0  0  0  0  0  0  0  0  0  0  0  0
   46.2470    8.8354   11.6452 H   0  0  0  0  0  0  0  0  0  0  0  0
   48.5758    7.3541   14.1356 H   0  0  0  0  0  0  0  0  0  0  0  0
   48.4954    7.7282   12.4177 H   0  0  0  0  0  0  0  0  0  0  0  0
   46.2929    8.2063   14.5126 H   0  0  0  0  0  0  0  0  0  0  0  0
   47.2449    9.4335   13.6849 H   0  0  0  0  0  0  0  0  0  0  0  0
   46.8483    6.3640   10.9971 H   0  0  0  0  0  0  0  0  0  0  0  0
   45.8966    5.1383   11.8263 H   0  0  0  0  0  0  0  0  0  0  0  0
   44.6428    6.8447   13.0888 H   0  0  0  0  0  0  0  0  0  0  0  0
   44.5684    7.2191   11.3711 H   0  0  0  0  0  0  0  0  0  0  0  0
  3  2  1  0
  4  2  1  0
  5  2  1  0
  6  4  1  0
  7  3  1  0
  8  5  2  0
  9  7  2  0
 10  6  2  0
 11  2  1  0
 12  5  1  0
 13  7  1  0
 14  6  1  0
 16 20  1  0
 17 15  1  0
 18 17  1  0
 19 15  1  0
 20 19  1  0
 16 18  1  0
 22 21  1  0
 23 21  1  0
 24 21  1  0
 25 23  1  0
 26 22  1  0
 27 24  2  0
 28 26  2  0
 29 25  2  0
 30 21  1  0
 31 24  1  0
 32 26  1  0
 33 25  1  0
 35 39  1  0
 36 34  1  0
 37 36  1  0
 38 34  1  0
 39 38  1  0
 35 37  1  0
 41 45  1  0
 42 40  1  0
 43 42  1  0
 44 40  1  0
 45 44  1  0
 41 43  1  0
  1 46  1  0
  1 47  1  0
  3 48  1  0
  3 49  1  0
  4 50  1  0
  4 51  1  0
 11 52  1  0
 12 53  1  0
 13 54  1  0
 14 55  1  0
 15 56  1  0
 16 57  1  0
 17 58  1  0
 17 59  1  0
 18 60  1  0
 18 61  1  0
 19 62  1  0
 19 63  1  0
 20 64  1  0
 20 65  1  0
 22 66  1  0
 22 67  1  0
 23 68  1  0
 23 69  1  0
 30 70  1  0
 31 71  1  0
 32 72  1  0
 33 73  1  0
 34 74  1  0
 35 75  1  0
 36 76  1  0
 36 77  1  0
 37 78  1  0
 37 79  1  0
 38 80  1  0
 38 81  1  0
 39 82  1  0
 39 83  1  0
 40 84  1  0
 41 85  1  0
 42 86  1  0
 42 87  1  0
 43 88  1  0
 43 89  1  0
 44 90  1  0
 44 91  1  0
 45 92  1  0
 45 93  1  0
M  END
> <Uni-Dock RESULT> 
ENERGY=   -7.746  LOWER_BOUND=    3.009  UPPER_BOUND=    4.968
INTER + INTRA:          -7.746
INTER:                  -7.746
INTRA:                   0.000
UNBOUND:                 0.000

$$$$

     RDKit          3D

 93 90  0  0  0  0  0  0  0  0999 V2000
   44.7411    5.0015   12.0143 O   0  0  0  0  0  0  0  0  0  0  0  0
   44.4220    5.1810   11.4696 C   0  0  0  0  0  0  0  0  0  0  0  0
   43.3811    4.2100   10.8861 C   0  0  0  0  0  0  0  0  0  0  0  0
   43.7264    6.5005   11.8282 C   0  0  0  0  0  0  0  0  0  0  0  0
   45.0070    4.5490   12.7455 C   0  0  0  0  0  0  0  0  0  0  0  0
   44.6812    7.6020   12.1931 C   0  0  0  0  0  0  0  0  0  0  0  0
   43.8882    2.7995   10.7594 C   0  0  0  0  0  0  0  0  0  0  0  0
   44.4111    4.3487   13.7913 O   0  0  0  0  0  0  0  0  0  0  0  0
   43.2994    1.7922   11.1106 O   0  0  0  0  0  0  0  0  0  0  0  0
   44.6577    8.7397   11.7512 O   0  0  0  0  0  0  0  0  0  0  0  0
   45.3888    5.4627   10.4539 O   0  0  0  0  0  0  0  0  0  0  0  0
   46.2886    4.1515   12.5967 O   0  0  0  0  0  0  0  0  0  0  0  0
   45.0837    2.7123   10.1465 O   0  0  0  0  0  0  0  0  0  0  0  0
   45.5552    7.2741   13.1606 O   0  0  0  0  0  0  0  0  0  0  0  0
   43.2240    5.3211   10.9424 N   0  0  0  0  0  0  0  0  0  0  0  0
   45.8416    4.8021   12.2409 N   0  0  0  0  0  0  0  0  0  0  0  0
   44.0678    6.4072   11.4753 C   0  0  0  0  0  0  0  0  0  0  0  0
   44.9947    5.9416   12.6193 C   0  0  0  0  0  0  0  0  0  0  0  0
   44.0983    4.2057   10.5337 C   0  0  0  0  0  0  0  0  0  0  0  0
   45.0249    3.7218   11.6704 C   0  0  0  0  0  0  0  0  0  0  0  0
   45.0170    4.9549   11.2988 C   0  0  0  0  0  0  0  0  0  0  0  0
   44.8265    6.2444   10.4928 C   0  0  0  0  0  0  0  0  0  0  0  0
   43.7584    4.0792   11.2786 C   0  0  0  0  0  0  0  0  0  0  0  0
   45.3979    5.2990   12.7506 C   0  0  0  0  0  0  0  0  0  0  0  0
   43.9303    2.8102   12.0704 C   0  0  0  0  0  0  0  0  0  0  0  0
   44.0853    7.3207   11.2266 C   0  0  0  0  0  0  0  0  0  0  0  0
   44.6417    5.6293   13.6482 O   0  0  0  0  0  0  0  0  0  0  0  0
   44.5877    8.2845   11.7792 O   0  0  0  0  0  0  0  0  0  0  0  0
   44.8533    2.5051   12.8060 O   0  0  0  0  0  0  0  0  0  0  0  0
   46.0641    4.2281   10.6259 O   0  0  0  0  0  0  0  0  0  0  0  0
   46.7332    5.2179   12.9516 O   0  0  0  0  0  0  0  0  0  0  0  0
   42.7555    7.1298   11.2362 O   0  0  0  0  0  0  0  0  0  0  0  0
   42.8839    1.9751   11.9092 O   0  0  0  0  0  0  0  0  0  0  0  0
   45.7304    5.3952   12.5498 N   0  0  0  0  0  0  0  0  0  0  0  0
   43.3412    4.6019   10.8378 N   0  0  0  0  0  0  0  0  0  0  0  0
   45.1664    6.2401   11.4855 C   0  0  0  0  0  0  0  0  0  0  0  0
   43.6720    5.9906   11.1951 C   0  0  0  0  0  0  0  0  0  0  0  0
   45.0004    4.1210   12.6755 C   0  0  0  0  0  0  0  0  0  0  0  0
   44.3373    3.6530   11.3658 C   0  0  0  0  0  0  0  0  0  0  0  0
   43.8844    4.4075   10.4910 N   0  0  0  0  0  0  0  0  0  0  0  0
   45.1914    5.6455   12.8558 N   0  0  0  0  0  0  0  0  0  0  0  0
   44.5657    3.6057   11.5227 C   0  0  0  0  0  0  0  0  0  0  0  0
   44.5955    4.2986   12.9022 C   0  0  0  0  0  0  0  0  0  0  0  0
   44.4792    5.7549   10.4449 C   0  0  0  0  0  0  0  0  0  0  0  0
   44.5107    6.4481   11.8243 C   0  0  0  0  0  0  0  0  0  0  0  0
   44.4367    4.2782   11.4458 H   0  0  0  0  0  0  0  0  0  0  0  0
   44.4359    5.8011   11.5601 H   0  0  0  0  0  0  0  0  0  0  0  0
   42.4987    4.1692   11.5376 H   0  0  0  0  0  0  0  0  0  0  0  0
   43.0529    4.5304    9.8904 H   0  0  0  0  0  0  0  0  0  0  0  0
   43.0145    6.3827   12.6532 H   0  0  0  0  0  0  0  0  0  0  0  0
   43.1648    6.8620   10.9567 H   0  0  0  0  0  0  0  0  0  0  0  0
   45.9095    4.6403   10.3393 H   0  0  0  0  0  0  0  0  0  0  0  0
   46.5371    3.8153   13.4834 H   0  0  0  0  0  0  0  0  0  0  0  0
   45.2541    1.7456   10.0949 H   0  0  0  0  0  0  0  0  0  0  0  0
   46.0734    8.0968   13.2923 H   0  0  0  0  0  0  0  0  0  0  0  0
   42.6242    4.9900   11.6974 H   0  0  0  0  0  0  0  0  0  0  0  0
   46.3404    4.4591   13.0598 H   0  0  0  0  0  0  0  0  0  0  0  0
   43.4168    7.2083   11.8420 H   0  0  0  0  0  0  0  0  0  0  0  0
   44.6649    6.8351   10.6602 H   0  0  0  0  0  0  0  0  0  0  0  0
   44.3896    5.6703   13.4937 H   0  0  0  0  0  0  0  0  0  0  0  0
   45.6390    6.7749   12.9205 H   0  0  0  0  0  0  0  0  0  0  0  0
   44.6975    4.5139    9.6680 H   0  0  0  0  0  0  0  0  0  0  0  0
   43.4693    3.3717   10.2019 H   0  0  0  0  0  0  0  0  0  0  0  0
   44.4218    3.2644   12.4650 H   0  0  0  0  0  0  0  0  0  0  0  0
   45.6915    2.9434   11.2832 H   0  0  0  0  0  0  0  0  0  0  0  0
   45.8045    6.6641   10.2196 H   0  0  0  0  0  0  0  0  0  0  0  0
   44.3308    6.0515    9.5335 H   0  0  0  0  0  0  0  0  0  0  0  0
   43.5294    3.7896   10.2454 H   0  0  0  0  0  0  0  0  0  0  0  0
   42.8995    4.6082   11.7039 H   0  0  0  0  0  0  0  0  0  0  0  0
   46.8401    4.2600   11.2248 H   0  0  0  0  0  0  0  0  0  0  0  0
   46.8415    5.4355   13.9035 H   0  0  0  0  0  0  0  0  0  0  0  0
   42.4081    7.8780   11.7688 H   0  0  0  0  0  0  0  0  0  0  0  0
   43.1071    1.2002   12.4670 H   0  0  0  0  0  0  0  0  0  0  0  0
   45.6675    5.8851   13.4417 H   0  0  0  0  0  0  0  0  0  0  0  0
   43.3166    4.5063    9.8227 H   0  0  0  0  0  0  0  0  0  0  0  0
   45.7432    6.0656   10.5686 H   0  0  0  0  0  0  0  0  0  0  0  0
   45.3184    7.2933   11.7493 H   0  0  0  0  0  0  0  0  0  0  0  0
   43.3398    6.6542   10.3887 H   0  0  0  0  0  0  0  0  0  0  0  0
   43.0856    6.2636   12.0813 H   0  0  0  0  0  0  0  0  0  0  0  0
   44.2280    4.2275   13.4479 H   0  0  0  0  0  0  0  0  0  0  0  0
   45.6988    3.3545   13.0287 H   0  0  0  0  0  0  0  0  0  0  0  0
   45.1151    3.4915   10.6084 H   0  0  0  0  0  0  0  0  0  0  0  0
   43.8455    2.6875   11.5270 H   0  0  0  0  0  0  0  0  0  0  0  0
   42.9079    4.5090   10.7716 H   0  0  0  0  0  0  0  0  0  0  0  0
   46.1676    5.5436   12.5750 H   0  0  0  0  0  0  0  0  0  0  0  0
   44.0542    2.6407   11.6126 H   0  0  0  0  0  0  0  0  0  0  0  0
   45.5897    3.3914   11.1924 H   0  0  0  0  0  0  0  0  0  0  0  0
   43.5773    4.3698   13.3045 H   0  0  0  0  0  0  0  0  0  0  0  0
   45.1700    3.6836   13.6040 H   0  0  0  0  0  0  0  0  0  0  0  0
   45.4968    5.6845   10.0412 H   0  0  0  0  0  0  0  0  0  0  0  0
   43.9038    6.3696    9.7435 H   0  0  0  0  0  0  0  0  0  0  0  0
   43.4875    6.6666   12.1551 H   0  0  0  0  0  0  0  0  0  0  0  0
   45.0247    7.4118   11.7330 H   0  0  0  0  0  0  0  0  0  0  0  0
  3  2  1  0
  4  2  1  0
  5  2  1  0
  6  4  1  0
  7  3  1  0
  8  5  2  0
  9  7  2  0
 10  6  2  0
 11  2  1  0
 12  5  1  0
 13  7  1  0
 14  6  1  0
 16 20  1  0
 17 15  1  0
 18 17  1  0
 19 15  1  0
 20 19  1  0
 16 18  1  0
 22 21  1  0
 23 21  1  0
 24 21  1  0
 25 23  1  0
 26 22  1  0
 27 24  2  0
 28 26  2  0
 29 25  2  0
 30 21  1  0
 31 24  1  0
 32 26  1  0
 33 25  1  0
 35 39  1  0
 36 34  1  0
 37 36  1  0
 38 34  1  0
 39 38  1  0
 35 37  1  0
 41 45  1  0
 42 40  1  0
 43 42  1  0
 44 40  1  0
 45 44  1  0
 41 43  1  0
  1 46  1  0
  1 47  1  0
  3 48  1  0
  3 49  1  0
  4 50  1  0
  4 51  1  0
 11 52  1  0
 12 53  1  0
 13 54  1  0
 14 55  1  0
 15 56  1  0
 16 57  1  0
 17 58  1  0
 17 59  1  0
 18 60  1  0
 18 61  1  0
 19 62  1  0
 19 63  1  0
 20 64  1  0
 20 65  1  0
 22 66  1  0
 22 67  1  0
 23 68  1  0
 23 69  1  0
 30 70  1  0
 31 71  1  0
 32 72  1  0
 33 73  1  0
 34 74  1  0
 35 75  1  0
 36 76  1  0
 36 77  1  0
 37 78  1  0
 37 79  1  0
 38 80  1  0
 38 81  1  0
 39 82  1  0
 39 83  1  0
 40 84  1  0
 41 85  1  0
 42 86  1  0
 42 87  1  0
 43 88  1  0
 43 89  1  0
 44 90  1  0
 44 91  1  0
 45 92  1  0
 45 93  1  0
M  END
> <Uni-Dock RESULT> 
ENERGY=   -7.510  LOWER_BOUND=    1.323  UPPER_BOUND=    3.477
INTER + INTRA:          -7.510
INTER:                  -7.510
INTRA:                   0.000
UNBOUND:                 0.000

$$$$
