
     RDKit          3D

 93 90  0  0  0  0  0  0  0  0999 V2000
   44.6083    5.2536   11.0073 O   0  0  0  0  0  0  0  0  0  0  0  0
   43.9674    4.6715   11.4203 C   0  0  0  0  0  0  0  0  0  0  0  0
   45.3083    5.2471   11.8802 C   0  0  0  0  0  0  0  0  0  0  0  0
   43.6213    4.9079    9.9479 C   0  0  0  0  0  0  0  0  0  0  0  0
   42.8310    5.2692   12.2702 C   0  0  0  0  0  0  0  0  0  0  0  0
   44.4639    4.1201    8.9917 C   0  0  0  0  0  0  0  0  0  0  0  0
   45.2504    6.7153   12.1741 C   0  0  0  0  0  0  0  0  0  0  0  0
   42.1499    6.2484   12.0144 O   0  0  0  0  0  0  0  0  0  0  0  0
   45.1998    7.2142   13.2853 O   0  0  0  0  0  0  0  0  0  0  0  0
   44.1238    3.1237    8.3747 O   0  0  0  0  0  0  0  0  0  0  0  0
   43.9867    3.2503   11.6561 O   0  0  0  0  0  0  0  0  0  0  0  0
   42.6606    4.5922   13.4306 O   0  0  0  0  0  0  0  0  0  0  0  0
   45.2352    7.4777   11.0693 O   0  0  0  0  0  0  0  0  0  0  0  0
   45.6857    4.6483    8.7993 O   0  0  0  0  0  0  0  0  0  0  0  0
   43.4209    4.1861   11.9157 N   0  0  0  0  0  0  0  0  0  0  0  0
   45.0972    6.1481   10.4422 N   0  0  0  0  0  0  0  0  0  0  0  0
   43.0688    5.6151   11.8311 C   0  0  0  0  0  0  0  0  0  0  0  0
   44.2990    6.5243   11.6218 C   0  0  0  0  0  0  0  0  0  0  0  0
   44.2228    3.8068   10.7390 C   0  0  0  0  0  0  0  0  0  0  0  0
   45.4489    4.7196   10.5258 C   0  0  0  0  0  0  0  0  0  0  0  0
   44.2167    4.7492   11.5535 C   0  0  0  0  0  0  0  0  0  0  0  0
   43.7995    3.6789   10.5368 C   0  0  0  0  0  0  0  0  0  0  0  0
   44.7519    6.0345   10.9097 C   0  0  0  0  0  0  0  0  0  0  0  0
   42.9644    5.0564   12.3975 C   0  0  0  0  0  0  0  0  0  0  0  0
   44.8721    7.1430   11.9171 C   0  0  0  0  0  0  0  0  0  0  0  0
   44.9000    3.2325    9.6195 C   0  0  0  0  0  0  0  0  0  0  0  0
   42.8120    4.8239   13.5860 O   0  0  0  0  0  0  0  0  0  0  0  0
   45.4355    2.1381    9.6030 O   0  0  0  0  0  0  0  0  0  0  0  0
   45.2086    7.0174   13.0830 O   0  0  0  0  0  0  0  0  0  0  0  0
   45.2342    4.1769   12.3876 O   0  0  0  0  0  0  0  0  0  0  0  0
   41.9774    5.6541   11.6947 O   0  0  0  0  0  0  0  0  0  0  0  0
   45.2185    4.1550    8.6913 O   0  0  0  0  0  0  0  0  0  0  0  0
   44.5902    8.3510   11.4004 O   0  0  0  0  0  0  0  0  0  0  0  0
   45.6646    5.2940   10.8874 N   0  0  0  0  0  0  0  0  0  0  0  0
   42.8094    4.9848   11.6337 N   0  0  0  0  0  0  0  0  0  0  0  0
   44.8553    4.1568   10.4286 C   0  0  0  0  0  0  0  0  0  0  0  0
   43.6846    3.8260   11.3783 C   0  0  0  0  0  0  0  0  0  0  0  0
   44.8056    6.4487   11.1854 C   0  0  0  0  0  0  0  0  0  0  0  0
   43.6367    6.1006   12.1326 C   0  0  0  0  0  0  0  0  0  0  0  0
   45.4042    4.3893   11.5514 N   0  0  0  0  0  0  0  0  0  0  0  0
   43.0792    5.8340   11.9209 N   0  0  0  0  0  0  0  0  0  0  0  0
   44.2455    3.8520   10.8264 C   0  0  0  0  0  0  0  0  0  0  0  0
   42.9153    4.5458   11.2134 C   0  0  0  0  0  0  0  0  0  0  0  0
   45.5234    5.8401   11.3203 C   0  0  0  0  0  0  0  0  0  0  0  0
   44.1680    6.5898   11.2772 C   0  0  0  0  0  0  0  0  0  0  0  0
   44.1825    4.3875   11.0876 H   0  0  0  0  0  0  0  0  0  0  0  0
   43.9895    5.8584   11.4440 H   0  0  0  0  0  0  0  0  0  0  0  0
   45.6216    4.7542   12.8100 H   0  0  0  0  0  0  0  0  0  0  0  0
   46.1274    5.0461   11.1828 H   0  0  0  0  0  0  0  0  0  0  0  0
   42.5854    4.5962    9.7565 H   0  0  0  0  0  0  0  0  0  0  0  0
   43.6612    5.9664    9.6690 H   0  0  0  0  0  0  0  0  0  0  0  0
   43.7833    3.1222   12.6051 H   0  0  0  0  0  0  0  0  0  0  0  0
   41.9434    5.0843   13.8874 H   0  0  0  0  0  0  0  0  0  0  0  0
   45.1592    8.3942   11.4051 H   0  0  0  0  0  0  0  0  0  0  0  0
   46.0964    4.0473    8.1420 H   0  0  0  0  0  0  0  0  0  0  0  0
   44.0051    4.0610   12.7437 H   0  0  0  0  0  0  0  0  0  0  0  0
   44.5092    6.2761    9.6177 H   0  0  0  0  0  0  0  0  0  0  0  0
   42.5556    5.9050   12.7556 H   0  0  0  0  0  0  0  0  0  0  0  0
   42.3537    5.7620   11.0117 H   0  0  0  0  0  0  0  0  0  0  0  0
   44.9392    6.4961   12.5120 H   0  0  0  0  0  0  0  0  0  0  0  0
   43.9687    7.5626   11.5075 H   0  0  0  0  0  0  0  0  0  0  0  0
   43.5842    3.8274    9.8469 H   0  0  0  0  0  0  0  0  0  0  0  0
   44.5603    2.7713   10.8605 H   0  0  0  0  0  0  0  0  0  0  0  0
   45.9590    4.4279    9.6017 H   0  0  0  0  0  0  0  0  0  0  0  0
   46.1687    4.5749   11.3408 H   0  0  0  0  0  0  0  0  0  0  0  0
   42.9591    4.0095    9.9112 H   0  0  0  0  0  0  0  0  0  0  0  0
   43.4493    2.7813   11.0662 H   0  0  0  0  0  0  0  0  0  0  0  0
   44.0747    6.3687   10.1129 H   0  0  0  0  0  0  0  0  0  0  0  0
   45.7542    5.8907   10.4915 H   0  0  0  0  0  0  0  0  0  0  0  0
   45.3315    4.7598   13.1703 H   0  0  0  0  0  0  0  0  0  0  0  0
   41.2605    5.7827   12.3535 H   0  0  0  0  0  0  0  0  0  0  0  0
   45.9049    3.7100    8.1506 H   0  0  0  0  0  0  0  0  0  0  0  0
   44.7468    8.9830   12.1359 H   0  0  0  0  0  0  0  0  0  0  0  0
   46.3404    5.5461   10.1683 H   0  0  0  0  0  0  0  0  0  0  0  0
   42.4030    5.2696   10.7438 H   0  0  0  0  0  0  0  0  0  0  0  0
   45.5038    3.2785   10.3382 H   0  0  0  0  0  0  0  0  0  0  0  0
   44.4620    4.3737    9.4275 H   0  0  0  0  0  0  0  0  0  0  0  0
   44.0682    3.4441   12.3317 H   0  0  0  0  0  0  0  0  0  0  0  0
   43.0822    3.0211   10.9421 H   0  0  0  0  0  0  0  0  0  0  0  0
   44.4095    6.8583   10.2477 H   0  0  0  0  0  0  0  0  0  0  0  0
   45.4189    7.2320   11.6443 H   0  0  0  0  0  0  0  0  0  0  0  0
   42.9964    6.9818   12.2556 H   0  0  0  0  0  0  0  0  0  0  0  0
   44.0212    5.8482   13.1287 H   0  0  0  0  0  0  0  0  0  0  0  0
   46.2584    3.9230   11.2537 H   0  0  0  0  0  0  0  0  0  0  0  0
   43.4238    5.5920   12.8555 H   0  0  0  0  0  0  0  0  0  0  0  0
   44.4143    3.9631    9.7474 H   0  0  0  0  0  0  0  0  0  0  0  0
   44.1643    2.7777   11.0274 H   0  0  0  0  0  0  0  0  0  0  0  0
   42.3381    3.8813   11.8669 H   0  0  0  0  0  0  0  0  0  0  0  0
   42.3103    4.7007   10.3120 H   0  0  0  0  0  0  0  0  0  0  0  0
   46.0619    6.0249   10.3845 H   0  0  0  0  0  0  0  0  0  0  0  0
   46.1352    6.2499   12.1309 H   0  0  0  0  0  0  0  0  0  0  0  0
   43.8896    6.7986   10.2365 H   0  0  0  0  0  0  0  0  0  0  0  0
   44.2745    7.5600   11.7762 H   0  0  0  0  0  0  0  0  0  0  0  0
  3  2  1  0
  4  2  1  0
  5  2  1  0
  6  4  1  0
  7  3  1  0
  8  5  2  0
  9  7  2  0
 10  6  2  0
 11  2  1  0
 12  5  1  0
 13  7  1  0
 14  6  1  0
 16 20  1  0
 17 15  1  0
 18 17  1  0
 19 15  1  0
 20 19  1  0
 16 18  1  0
 22 21  1  0
 23 21  1  0
 24 21  1  0
 25 23  1  0
 26 22  1  0
 27 24  2  0
 28 26  2  0
 29 25  2  0
 30 21  1  0
 31 24  1  0
 32 26  1  0
 33 25  1  0
 35 39  1  0
 36 34  1  0
 37 36  1  0
 38 34  1  0
 39 38  1  0
 35 37  1  0
 41 45  1  0
 42 40  1  0
 43 42  1  0
 44 40  1  0
 45 44  1  0
 41 43  1  0
  1 46  1  0
  1 47  1  0
  3 48  1  0
  3 49  1  0
  4 50  1  0
  4 51  1  0
 11 52  1  0
 12 53  1  0
 13 54  1  0
 14 55  1  0
 15 56  1  0
 16 57  1  0
 17 58  1  0
 17 59  1  0
 18 60  1  0
 18 61  1  0
 19 62  1  0
 19 63  1  0
 20 64  1  0
 20 65  1  0
 22 66  1  0
 22 67  1  0
 23 68  1  0
 23 69  1  0
 30 70  1  0
 31 71  1  0
 32 72  1  0
 33 73  1  0
 34 74  1  0
 35 75  1  0
 36 76  1  0
 36 77  1  0
 37 78  1  0
 37 79  1  0
 38 80  1  0
 38 81  1  0
 39 82  1  0
 39 83  1  0
 40 84  1  0
 41 85  1  0
 42 86  1  0
 42 87  1  0
 43 88  1  0
 43 89  1  0
 44 90  1  0
 44 91  1  0
 45 92  1  0
 45 93  1  0
M  END
> <Uni-Dock RESULT> 
ENERGY=  -10.909  LOWER_BOUND=    0.000  UPPER_BOUND=    0.000
INTER + INTRA:         -10.909
INTER:                 -10.909
INTRA:                   0.000
UNBOUND:                 0.000

$$$$

     RDKit          3D

 93 90  0  0  0  0  0  0  0  0999 V2000
   44.9627    4.2315   12.3365 O   0  0  0  0  0  0  0  0  0  0  0  0
   44.7016    5.1543   12.3524 C   0  0  0  0  0  0  0  0  0  0  0  0
   45.1406    4.2095   11.2321 C   0  0  0  0  0  0  0  0  0  0  0  0
   44.8602    4.6071   13.7733 C   0  0  0  0  0  0  0  0  0  0  0  0
   43.2213    5.5313   12.1585 C   0  0  0  0  0  0  0  0  0  0  0  0
   46.2845    4.4862   14.2223 C   0  0  0  0  0  0  0  0  0  0  0  0
   44.1134    3.1702   10.9003 C   0  0  0  0  0  0  0  0  0  0  0  0
   42.2468    4.9881   12.6519 O   0  0  0  0  0  0  0  0  0  0  0  0
   43.3673    3.1935    9.9364 O   0  0  0  0  0  0  0  0  0  0  0  0
   46.8667    5.2262   14.9987 O   0  0  0  0  0  0  0  0  0  0  0  0
   45.4769    6.3641   12.2463 O   0  0  0  0  0  0  0  0  0  0  0  0
   43.0743    6.5692   11.3010 O   0  0  0  0  0  0  0  0  0  0  0  0
   44.0568    2.1740   11.7982 O   0  0  0  0  0  0  0  0  0  0  0  0
   46.9091    3.4038   13.7253 O   0  0  0  0  0  0  0  0  0  0  0  0
   44.4193    5.9838   12.2424 N   0  0  0  0  0  0  0  0  0  0  0  0
   44.9855    3.0785   12.5052 N   0  0  0  0  0  0  0  0  0  0  0  0
   43.3465    4.9831   12.3879 C   0  0  0  0  0  0  0  0  0  0  0  0
   43.7558    3.5863   11.8728 C   0  0  0  0  0  0  0  0  0  0  0  0
   45.6523    5.4777   12.8707 C   0  0  0  0  0  0  0  0  0  0  0  0
   46.0580    4.0786   12.3607 C   0  0  0  0  0  0  0  0  0  0  0  0
   44.7830    5.0192   12.1055 C   0  0  0  0  0  0  0  0  0  0  0  0
   45.5027    5.7126   13.2693 C   0  0  0  0  0  0  0  0  0  0  0  0
   44.6344    3.5035   12.2889 C   0  0  0  0  0  0  0  0  0  0  0  0
   43.3961    5.6822   11.9972 C   0  0  0  0  0  0  0  0  0  0  0  0
   43.6842    2.9202   11.2815 C   0  0  0  0  0  0  0  0  0  0  0  0
   46.8921    5.2080   13.5280 C   0  0  0  0  0  0  0  0  0  0  0  0
   42.9858    6.3664   11.0734 O   0  0  0  0  0  0  0  0  0  0  0  0
   47.9328    5.8166   13.3508 O   0  0  0  0  0  0  0  0  0  0  0  0
   43.5662    3.2741   10.1200 O   0  0  0  0  0  0  0  0  0  0  0  0
   45.5391    5.2813   10.9146 O   0  0  0  0  0  0  0  0  0  0  0  0
   42.5978    5.4319   13.0581 O   0  0  0  0  0  0  0  0  0  0  0  0
   46.9117    3.9854   14.0926 O   0  0  0  0  0  0  0  0  0  0  0  0
   42.9537    1.9075   11.7781 O   0  0  0  0  0  0  0  0  0  0  0  0
   45.7341    3.6447   11.8981 N   0  0  0  0  0  0  0  0  0  0  0  0
   43.6118    5.5415   12.7362 N   0  0  0  0  0  0  0  0  0  0  0  0
   46.0081    4.7808   12.7884 C   0  0  0  0  0  0  0  0  0  0  0  0
   45.0211    5.9515   12.5955 C   0  0  0  0  0  0  0  0  0  0  0  0
   44.3230    3.2453   11.9943 C   0  0  0  0  0  0  0  0  0  0  0  0
   43.3486    4.4281   11.8039 C   0  0  0  0  0  0  0  0  0  0  0  0
   45.8432    4.7305   11.5289 N   0  0  0  0  0  0  0  0  0  0  0  0
   43.1899    4.8354   12.2893 N   0  0  0  0  0  0  0  0  0  0  0  0
   45.6091    5.4618   12.7809 C   0  0  0  0  0  0  0  0  0  0  0  0
   44.1052    5.6906   13.0752 C   0  0  0  0  0  0  0  0  0  0  0  0
   45.1470    3.4317   11.5582 C   0  0  0  0  0  0  0  0  0  0  0  0
   43.7513    3.4743   12.2300 C   0  0  0  0  0  0  0  0  0  0  0  0
   45.1475    5.1580   12.5492 H   0  0  0  0  0  0  0  0  0  0  0  0
   43.9994    4.2044   12.2325 H   0  0  0  0  0  0  0  0  0  0  0  0
   45.3131    4.7836   10.3120 H   0  0  0  0  0  0  0  0  0  0  0  0
   46.1018    3.7240   11.4274 H   0  0  0  0  0  0  0  0  0  0  0  0
   44.3808    5.2895   14.4884 H   0  0  0  0  0  0  0  0  0  0  0  0
   44.3597    3.6429   13.9132 H   0  0  0  0  0  0  0  0  0  0  0  0
   45.0568    6.9041   11.5459 H   0  0  0  0  0  0  0  0  0  0  0  0
   42.1010    6.6870   11.2382 H   0  0  0  0  0  0  0  0  0  0  0  0
   43.3308    1.5990   11.4809 H   0  0  0  0  0  0  0  0  0  0  0  0
   47.8039    3.4498   14.1242 H   0  0  0  0  0  0  0  0  0  0  0  0
   44.6023    6.0965   11.2442 H   0  0  0  0  0  0  0  0  0  0  0  0
   44.7967    2.9665   13.5020 H   0  0  0  0  0  0  0  0  0  0  0  0
   42.4657    5.3306   11.8353 H   0  0  0  0  0  0  0  0  0  0  0  0
   43.0541    4.9194   13.4438 H   0  0  0  0  0  0  0  0  0  0  0  0
   43.8978    3.6168   10.7855 H   0  0  0  0  0  0  0  0  0  0  0  0
   42.9431    2.8763   12.0617 H   0  0  0  0  0  0  0  0  0  0  0  0
   45.5167    5.4517   13.9592 H   0  0  0  0  0  0  0  0  0  0  0  0
   46.4658    6.1844   12.6717 H   0  0  0  0  0  0  0  0  0  0  0  0
   46.9376    3.7341   12.9146 H   0  0  0  0  0  0  0  0  0  0  0  0
   46.3540    4.1367   11.3060 H   0  0  0  0  0  0  0  0  0  0  0  0
   44.9396    5.6322   14.2092 H   0  0  0  0  0  0  0  0  0  0  0  0
   45.5936    6.7881   13.0608 H   0  0  0  0  0  0  0  0  0  0  0  0
   44.2487    3.2800   13.2921 H   0  0  0  0  0  0  0  0  0  0  0  0
   45.5882    2.9833   12.1473 H   0  0  0  0  0  0  0  0  0  0  0  0
   44.9699    5.0484   10.1506 H   0  0  0  0  0  0  0  0  0  0  0  0
   41.7669    5.9120   12.8491 H   0  0  0  0  0  0  0  0  0  0  0  0
   47.8660    3.8150   14.2395 H   0  0  0  0  0  0  0  0  0  0  0  0
   42.4148    1.5898   11.0207 H   0  0  0  0  0  0  0  0  0  0  0  0
   46.3307    2.8590   12.1513 H   0  0  0  0  0  0  0  0  0  0  0  0
   43.4827    5.1930   13.6850 H   0  0  0  0  0  0  0  0  0  0  0  0
   47.0274    5.1356   12.6009 H   0  0  0  0  0  0  0  0  0  0  0  0
   45.9701    4.4404   13.8308 H   0  0  0  0  0  0  0  0  0  0  0  0
   45.1685    6.4113   11.6112 H   0  0  0  0  0  0  0  0  0  0  0  0
   45.2353    6.7301   13.3363 H   0  0  0  0  0  0  0  0  0  0  0  0
   44.1444    2.7750   12.9694 H   0  0  0  0  0  0  0  0  0  0  0  0
   44.1210    2.4867   11.2301 H   0  0  0  0  0  0  0  0  0  0  0  0
   42.3213    4.0785   11.9591 H   0  0  0  0  0  0  0  0  0  0  0  0
   43.4034    4.7993   10.7729 H   0  0  0  0  0  0  0  0  0  0  0  0
   46.8396    4.5826   11.3836 H   0  0  0  0  0  0  0  0  0  0  0  0
   43.2330    5.1956   11.3306 H   0  0  0  0  0  0  0  0  0  0  0  0
   46.0628    4.9057   13.6115 H   0  0  0  0  0  0  0  0  0  0  0  0
   46.1186    6.4308   12.7299 H   0  0  0  0  0  0  0  0  0  0  0  0
   43.8494    6.7343   12.8587 H   0  0  0  0  0  0  0  0  0  0  0  0
   43.9167    5.5378   14.1447 H   0  0  0  0  0  0  0  0  0  0  0  0
   45.7665    2.6888   12.0722 H   0  0  0  0  0  0  0  0  0  0  0  0
   45.0366    3.0977   10.5211 H   0  0  0  0  0  0  0  0  0  0  0  0
   43.8145    3.0705   13.2484 H   0  0  0  0  0  0  0  0  0  0  0  0
   43.0624    2.8263   11.6758 H   0  0  0  0  0  0  0  0  0  0  0  0
  3  2  1  0
  4  2  1  0
  5  2  1  0
  6  4  1  0
  7  3  1  0
  8  5  2  0
  9  7  2  0
 10  6  2  0
 11  2  1  0
 12  5  1  0
 13  7  1  0
 14  6  1  0
 16 20  1  0
 17 15  1  0
 18 17  1  0
 19 15  1  0
 20 19  1  0
 16 18  1  0
 22 21  1  0
 23 21  1  0
 24 21  1  0
 25 23  1  0
 26 22  1  0
 27 24  2  0
 28 26  2  0
 29 25  2  0
 30 21  1  0
 31 24  1  0
 32 26  1  0
 33 25  1  0
 35 39  1  0
 36 34  1  0
 37 36  1  0
 38 34  1  0
 39 38  1  0
 35 37  1  0
 41 45  1  0
 42 40  1  0
 43 42  1  0
 44 40  1  0
 45 44  1  0
 41 43  1  0
  1 46  1  0
  1 47  1  0
  3 48  1  0
  3 49  1  0
  4 50  1  0
  4 51  1  0
 11 52  1  0
 12 53  1  0
 13 54  1  0
 14 55  1  0
 15 56  1  0
 16 57  1  0
 17 58  1  0
 17 59  1  0
 18 60  1  0
 18 61  1  0
 19 62  1  0
 19 63  1  0
 20 64  1  0
 20 65  1  0
 22 66  1  0
 22 67  1  0
 23 68  1  0
 23 69  1  0
 30 70  1  0
 31 71  1  0
 32 72  1  0
 33 73  1  0
 34 74  1  0
 35 75  1  0
 36 76  1  0
 36 77  1  0
 37 78  1  0
 37 79  1  0
 38 80  1  0
 38 81  1  0
 39 82  1  0
 39 83  1  0
 40 84  1  0
 41 85  1  0
 42 86  1  0
 42 87  1  0
 43 88  1  0
 43 89  1  0
 44 90  1  0
 44 91  1  0
 45 92  1  0
 45 93  1  0
M  END
> <Uni-Dock RESULT> 
ENERGY=   -9.412  LOWER_BOUND=    1.411  UPPER_BOUND=    3.534
INTER + INTRA:          -9.412
INTER:                  -9.412
INTRA:                   0.000
UNBOUND:                 0.000

$$$$

     RDKit          3D

 93 90  0  0  0  0  0  0  0  0999 V2000
   44.9870    4.8315   12.1524 O   0  0  0  0  0  0  0  0  0  0  0  0
   44.4333    5.6141   12.1212 C   0  0  0  0  0  0  0  0  0  0  0  0
   44.8268    4.5676   11.0769 C   0  0  0  0  0  0  0  0  0  0  0  0
   45.1870    5.5309   13.4511 C   0  0  0  0  0  0  0  0  0  0  0  0
   42.9288    5.4964   12.4276 C   0  0  0  0  0  0  0  0  0  0  0  0
   46.6264    5.9370   13.3601 C   0  0  0  0  0  0  0  0  0  0  0  0
   44.1852    3.2334   11.3077 C   0  0  0  0  0  0  0  0  0  0  0  0
   42.4019    4.8537   13.3206 O   0  0  0  0  0  0  0  0  0  0  0  0
   43.2304    2.7902   10.6927 O   0  0  0  0  0  0  0  0  0  0  0  0
   47.1102    6.9887   13.7461 O   0  0  0  0  0  0  0  0  0  0  0  0
   44.6618    6.9189   11.5546 O   0  0  0  0  0  0  0  0  0  0  0  0
   42.1781    6.1851   11.5354 O   0  0  0  0  0  0  0  0  0  0  0  0
   44.7525    2.5369   12.3052 O   0  0  0  0  0  0  0  0  0  0  0  0
   47.4171    4.9810   12.8410 O   0  0  0  0  0  0  0  0  0  0  0  0
   43.8567    6.2712   11.9966 N   0  0  0  0  0  0  0  0  0  0  0  0
   45.4651    3.8188   12.4754 N   0  0  0  0  0  0  0  0  0  0  0  0
   43.3018    5.0865   12.6763 C   0  0  0  0  0  0  0  0  0  0  0  0
   44.0075    3.7755   12.2675 C   0  0  0  0  0  0  0  0  0  0  0  0
   45.3156    6.3159   12.1992 C   0  0  0  0  0  0  0  0  0  0  0  0
   46.0203    5.0031   11.7968 C   0  0  0  0  0  0  0  0  0  0  0  0
   44.4805    5.4466   11.8855 C   0  0  0  0  0  0  0  0  0  0  0  0
   45.2172    6.5967   12.5839 C   0  0  0  0  0  0  0  0  0  0  0  0
   44.9393    4.0553   12.3403 C   0  0  0  0  0  0  0  0  0  0  0  0
   42.9830    5.6416   12.1924 C   0  0  0  0  0  0  0  0  0  0  0  0
   44.0052    2.9839   11.8531 C   0  0  0  0  0  0  0  0  0  0  0  0
   46.7052    6.5885   12.3898 C   0  0  0  0  0  0  0  0  0  0  0  0
   42.1041    5.9128   11.3900 O   0  0  0  0  0  0  0  0  0  0  0  0
   47.3611    7.3940   11.7528 O   0  0  0  0  0  0  0  0  0  0  0  0
   43.4325    2.9689   10.7760 O   0  0  0  0  0  0  0  0  0  0  0  0
   44.7074    5.5836   10.4754 O   0  0  0  0  0  0  0  0  0  0  0  0
   42.6761    5.4691   13.4969 O   0  0  0  0  0  0  0  0  0  0  0  0
   47.3219    5.6159   13.0881 O   0  0  0  0  0  0  0  0  0  0  0  0
   43.8619    1.9771   12.7315 O   0  0  0  0  0  0  0  0  0  0  0  0
   45.7500    4.3894   11.5573 N   0  0  0  0  0  0  0  0  0  0  0  0
   43.4423    5.7684   12.8133 N   0  0  0  0  0  0  0  0  0  0  0  0
   45.8537    5.7506   12.1001 C   0  0  0  0  0  0  0  0  0  0  0  0
   44.5064    6.5035   12.1052 C   0  0  0  0  0  0  0  0  0  0  0  0
   44.6674    3.6517   12.2236 C   0  0  0  0  0  0  0  0  0  0  0  0
   43.3277    4.4199   12.2245 C   0  0  0  0  0  0  0  0  0  0  0  0
   45.3536    5.3236   11.0123 N   0  0  0  0  0  0  0  0  0  0  0  0
   43.1859    4.8802   12.6658 N   0  0  0  0  0  0  0  0  0  0  0  0
   45.2563    6.2653   12.1351 C   0  0  0  0  0  0  0  0  0  0  0  0
   43.9275    6.1340   12.9209 C   0  0  0  0  0  0  0  0  0  0  0  0
   45.2040    3.9384   11.4930 C   0  0  0  0  0  0  0  0  0  0  0  0
   44.1485    3.7657   12.6142 C   0  0  0  0  0  0  0  0  0  0  0  0
   44.8858    5.7945   12.1379 H   0  0  0  0  0  0  0  0  0  0  0  0
   44.1110    4.5094   12.4138 H   0  0  0  0  0  0  0  0  0  0  0  0
   44.5052    4.9012   10.0813 H   0  0  0  0  0  0  0  0  0  0  0  0
   45.9094    4.4404   10.9785 H   0  0  0  0  0  0  0  0  0  0  0  0
   44.7310    6.2163   14.1785 H   0  0  0  0  0  0  0  0  0  0  0  0
   45.1253    4.5385   13.9105 H   0  0  0  0  0  0  0  0  0  0  0  0
   43.8913    7.1136   10.9829 H   0  0  0  0  0  0  0  0  0  0  0  0
   41.2540    6.0049   11.8162 H   0  0  0  0  0  0  0  0  0  0  0  0
   44.2181    1.7190   12.3679 H   0  0  0  0  0  0  0  0  0  0  0  0
   48.3127    5.3797   12.8723 H   0  0  0  0  0  0  0  0  0  0  0  0
   43.6847    6.1613   10.9961 H   0  0  0  0  0  0  0  0  0  0  0  0
   45.6313    3.9274   13.4766 H   0  0  0  0  0  0  0  0  0  0  0  0
   42.2340    5.0140   12.4384 H   0  0  0  0  0  0  0  0  0  0  0  0
   43.3763    5.2264   13.7622 H   0  0  0  0  0  0  0  0  0  0  0  0
   43.8018    3.5546   11.2129 H   0  0  0  0  0  0  0  0  0  0  0  0
   43.5932    2.9433   12.8473 H   0  0  0  0  0  0  0  0  0  0  0  0
   45.5255    6.5432   13.2519 H   0  0  0  0  0  0  0  0  0  0  0  0
   45.7286    7.1427   11.6104 H   0  0  0  0  0  0  0  0  0  0  0  0
   47.0864    5.0784   12.0358 H   0  0  0  0  0  0  0  0  0  0  0  0
   45.9513    4.8595   10.7115 H   0  0  0  0  0  0  0  0  0  0  0  0
   45.0232    6.6146   13.6650 H   0  0  0  0  0  0  0  0  0  0  0  0
   44.8557    7.5591   12.1945 H   0  0  0  0  0  0  0  0  0  0  0  0
   44.9721    4.0076   13.4366 H   0  0  0  0  0  0  0  0  0  0  0  0
   45.9281    3.8046   11.9408 H   0  0  0  0  0  0  0  0  0  0  0  0
   44.0593    5.0067   10.0183 H   0  0  0  0  0  0  0  0  0  0  0  0
   41.7071    5.6242   13.5358 H   0  0  0  0  0  0  0  0  0  0  0  0
   48.2726    5.7646   12.8995 H   0  0  0  0  0  0  0  0  0  0  0  0
   43.2726    1.3321   12.2824 H   0  0  0  0  0  0  0  0  0  0  0  0
   46.6323    3.8986   11.6916 H   0  0  0  0  0  0  0  0  0  0  0  0
   43.7310    5.6627   13.7848 H   0  0  0  0  0  0  0  0  0  0  0  0
   46.5774    6.3134   11.5004 H   0  0  0  0  0  0  0  0  0  0  0  0
   46.2480    5.7028   13.1229 H   0  0  0  0  0  0  0  0  0  0  0  0
   44.1840    6.7076   11.0774 H   0  0  0  0  0  0  0  0  0  0  0  0
   44.6395    7.4785   12.5874 H   0  0  0  0  0  0  0  0  0  0  0  0
   44.9630    3.4269   13.2560 H   0  0  0  0  0  0  0  0  0  0  0  0
   44.5312    2.6924   11.7124 H   0  0  0  0  0  0  0  0  0  0  0  0
   42.5855    3.8513   12.7968 H   0  0  0  0  0  0  0  0  0  0  0  0
   42.9408    4.5039   11.2013 H   0  0  0  0  0  0  0  0  0  0  0  0
   46.2473    5.4273   10.5366 H   0  0  0  0  0  0  0  0  0  0  0  0
   42.8138    4.9700   11.7149 H   0  0  0  0  0  0  0  0  0  0  0  0
   46.1009    6.0998   12.8164 H   0  0  0  0  0  0  0  0  0  0  0  0
   45.3504    7.2883   11.7533 H   0  0  0  0  0  0  0  0  0  0  0  0
   43.2672    6.9679   12.6560 H   0  0  0  0  0  0  0  0  0  0  0  0
   44.1298    6.2244   13.9949 H   0  0  0  0  0  0  0  0  0  0  0  0
   46.1685    3.5628   11.8517 H   0  0  0  0  0  0  0  0  0  0  0  0
   44.9183    3.3240   10.6327 H   0  0  0  0  0  0  0  0  0  0  0  0
   44.6480    3.6813   13.5876 H   0  0  0  0  0  0  0  0  0  0  0  0
   43.6029    2.8280   12.4570 H   0  0  0  0  0  0  0  0  0  0  0  0
  3  2  1  0
  4  2  1  0
  5  2  1  0
  6  4  1  0
  7  3  1  0
  8  5  2  0
  9  7  2  0
 10  6  2  0
 11  2  1  0
 12  5  1  0
 13  7  1  0
 14  6  1  0
 16 20  1  0
 17 15  1  0
 18 17  1  0
 19 15  1  0
 20 19  1  0
 16 18  1  0
 22 21  1  0
 23 21  1  0
 24 21  1  0
 25 23  1  0
 26 22  1  0
 27 24  2  0
 28 26  2  0
 29 25  2  0
 30 21  1  0
 31 24  1  0
 32 26  1  0
 33 25  1  0
 35 39  1  0
 36 34  1  0
 37 36  1  0
 38 34  1  0
 39 38  1  0
 35 37  1  0
 41 45  1  0
 42 40  1  0
 43 42  1  0
 44 40  1  0
 45 44  1  0
 41 43  1  0
  1 46  1  0
  1 47  1  0
  3 48  1  0
  3 49  1  0
  4 50  1  0
  4 51  1  0
 11 52  1  0
 12 53  1  0
 13 54  1  0
 14 55  1  0
 15 56  1  0
 16 57  1  0
 17 58  1  0
 17 59  1  0
 18 60  1  0
 18 61  1  0
 19 62  1  0
 19 63  1  0
 20 64  1  0
 20 65  1  0
 22 66  1  0
 22 67  1  0
 23 68  1  0
 23 69  1  0
 30 70  1  0
 31 71  1  0
 32 72  1  0
 33 73  1  0
 34 74  1  0
 35 75  1  0
 36 76  1  0
 36 77  1  0
 37 78  1  0
 37 79  1  0
 38 80  1  0
 38 81  1  0
 39 82  1  0
 39 83  1  0
 40 84  1  0
 41 85  1  0
 42 86  1  0
 42 87  1  0
 43 88  1  0
 43 89  1  0
 44 90  1  0
 44 91  1  0
 45 92  1  0
 45 93  1  0
M  END
> <Uni-Dock RESULT> 
ENERGY=   -9.190  LOWER_BOUND=    1.183  UPPER_BOUND=    3.391
INTER + INTRA:          -9.190
INTER:                  -9.190
INTRA:                   0.000
UNBOUND:                 0.000

$$$$

     RDKit          3D

 93 90  0  0  0  0  0  0  0  0999 V2000
   44.1584    4.5240   10.9555 O   0  0  0  0  0  0  0  0  0  0  0  0
   44.6061    4.0137   11.6331 C   0  0  0  0  0  0  0  0  0  0  0  0
   44.8544    5.3971   11.0289 C   0  0  0  0  0  0  0  0  0  0  0  0
   43.5437    3.1686   10.9253 C   0  0  0  0  0  0  0  0  0  0  0  0
   44.1811    4.1628   13.1055 C   0  0  0  0  0  0  0  0  0  0  0  0
   43.9617    2.6744    9.5740 C   0  0  0  0  0  0  0  0  0  0  0  0
   43.8331    6.4131   11.4415 C   0  0  0  0  0  0  0  0  0  0  0  0
   43.0455    4.2217   13.5473 O   0  0  0  0  0  0  0  0  0  0  0  0
   43.9955    7.2796   12.2836 O   0  0  0  0  0  0  0  0  0  0  0  0
   44.3089    1.5393    9.2911 O   0  0  0  0  0  0  0  0  0  0  0  0
   45.8495    3.2862   11.6099 O   0  0  0  0  0  0  0  0  0  0  0  0
   45.2503    4.2698   13.9297 O   0  0  0  0  0  0  0  0  0  0  0  0
   42.6614    6.2786   10.8005 O   0  0  0  0  0  0  0  0  0  0  0  0
   43.8706    3.6112    8.6132 O   0  0  0  0  0  0  0  0  0  0  0  0
   45.0529    3.6614   12.3084 N   0  0  0  0  0  0  0  0  0  0  0  0
   43.3348    5.0541   10.3237 N   0  0  0  0  0  0  0  0  0  0  0  0
   43.7660    4.2787   12.6775 C   0  0  0  0  0  0  0  0  0  0  0  0
   43.3701    5.4431   11.7440 C   0  0  0  0  0  0  0  0  0  0  0  0
   45.0228    3.2743   10.8869 C   0  0  0  0  0  0  0  0  0  0  0  0
   44.6206    4.4364    9.9543 C   0  0  0  0  0  0  0  0  0  0  0  0
   44.6998    4.2784   11.5494 C   0  0  0  0  0  0  0  0  0  0  0  0
   44.8728    2.8397   11.0457 C   0  0  0  0  0  0  0  0  0  0  0  0
   43.5449    5.0315   10.8769 C   0  0  0  0  0  0  0  0  0  0  0  0
   44.4598    4.1796   13.0684 C   0  0  0  0  0  0  0  0  0  0  0  0
   43.2346    6.3138   11.5961 C   0  0  0  0  0  0  0  0  0  0  0  0
   45.1319    2.7257    9.5720 C   0  0  0  0  0  0  0  0  0  0  0  0
   45.2007    4.5826   13.9507 O   0  0  0  0  0  0  0  0  0  0  0  0
   46.1676    2.3658    9.0403 O   0  0  0  0  0  0  0  0  0  0  0  0
   44.0490    7.0571   12.1181 O   0  0  0  0  0  0  0  0  0  0  0  0
   45.9297    4.9732   11.2978 O   0  0  0  0  0  0  0  0  0  0  0  0
   43.2879    3.5883   13.3888 O   0  0  0  0  0  0  0  0  0  0  0  0
   44.0407    2.9790    8.8243 O   0  0  0  0  0  0  0  0  0  0  0  0
   41.9232    6.6074   11.5975 O   0  0  0  0  0  0  0  0  0  0  0  0
   44.4303    5.1054   10.1070 N   0  0  0  0  0  0  0  0  0  0  0  0
   44.0696    3.6375   12.6604 N   0  0  0  0  0  0  0  0  0  0  0  0
   44.8071    3.6933   10.2570 C   0  0  0  0  0  0  0  0  0  0  0  0
   45.1504    3.3107   11.7122 C   0  0  0  0  0  0  0  0  0  0  0  0
   43.3802    5.4621   11.0715 C   0  0  0  0  0  0  0  0  0  0  0  0
   43.7364    5.0686   12.5217 C   0  0  0  0  0  0  0  0  0  0  0  0
   45.3917    4.7562   10.6369 N   0  0  0  0  0  0  0  0  0  0  0  0
   43.6441    4.4659   12.7560 N   0  0  0  0  0  0  0  0  0  0  0  0
   45.0400    3.3617   10.9343 C   0  0  0  0  0  0  0  0  0  0  0  0
   44.2347    3.2085   12.2490 C   0  0  0  0  0  0  0  0  0  0  0  0
   44.1755    5.5856   10.5653 C   0  0  0  0  0  0  0  0  0  0  0  0
   43.0962    5.2222   11.6162 C   0  0  0  0  0  0  0  0  0  0  0  0
   44.7323    3.7898   11.2189 H   0  0  0  0  0  0  0  0  0  0  0  0
   43.6943    4.7613   11.7726 H   0  0  0  0  0  0  0  0  0  0  0  0
   45.8278    5.7774   11.3661 H   0  0  0  0  0  0  0  0  0  0  0  0
   44.9368    5.3842    9.9377 H   0  0  0  0  0  0  0  0  0  0  0  0
   43.3319    2.2681   11.5178 H   0  0  0  0  0  0  0  0  0  0  0  0
   42.5834    3.6873   10.8335 H   0  0  0  0  0  0  0  0  0  0  0  0
   46.3678    3.5950   12.3810 H   0  0  0  0  0  0  0  0  0  0  0  0
   44.8511    4.3913   14.8191 H   0  0  0  0  0  0  0  0  0  0  0  0
   42.0885    6.9706   11.1895 H   0  0  0  0  0  0  0  0  0  0  0  0
   44.1463    3.1363    7.8006 H   0  0  0  0  0  0  0  0  0  0  0  0
   45.7789    4.3704   12.4224 H   0  0  0  0  0  0  0  0  0  0  0  0
   42.6071    4.3466   10.2152 H   0  0  0  0  0  0  0  0  0  0  0  0
   43.8366    4.6467   13.7079 H   0  0  0  0  0  0  0  0  0  0  0  0
   42.9822    3.5107   12.6676 H   0  0  0  0  0  0  0  0  0  0  0  0
   44.0714    6.2771   11.8703 H   0  0  0  0  0  0  0  0  0  0  0  0
   42.3822    5.8197   12.0312 H   0  0  0  0  0  0  0  0  0  0  0  0
   44.3270    2.4357   10.7574 H   0  0  0  0  0  0  0  0  0  0  0  0
   46.0146    2.9075   10.5997 H   0  0  0  0  0  0  0  0  0  0  0  0
   44.5507    4.0658    8.9262 H   0  0  0  0  0  0  0  0  0  0  0  0
   45.4021    5.2061    9.9581 H   0  0  0  0  0  0  0  0  0  0  0  0
   44.0011    2.2133   11.2793 H   0  0  0  0  0  0  0  0  0  0  0  0
   45.7285    2.3703   11.5517 H   0  0  0  0  0  0  0  0  0  0  0  0
   42.6388    4.4118   10.8765 H   0  0  0  0  0  0  0  0  0  0  0  0
   43.7893    5.3099    9.8459 H   0  0  0  0  0  0  0  0  0  0  0  0
   45.9083    5.8025   11.8209 H   0  0  0  0  0  0  0  0  0  0  0  0
   43.2780    3.5966   14.3708 H   0  0  0  0  0  0  0  0  0  0  0  0
   44.3492    2.8232    7.9067 H   0  0  0  0  0  0  0  0  0  0  0  0
   41.8595    7.4763   12.0514 H   0  0  0  0  0  0  0  0  0  0  0  0
   44.0963    5.2724    9.1594 H   0  0  0  0  0  0  0  0  0  0  0  0
   43.2479    3.0972   12.3936 H   0  0  0  0  0  0  0  0  0  0  0  0
   45.6741    3.4918    9.6184 H   0  0  0  0  0  0  0  0  0  0  0  0
   43.9861    3.0601    9.8979 H   0  0  0  0  0  0  0  0  0  0  0  0
   46.0730    3.8124   12.0269 H   0  0  0  0  0  0  0  0  0  0  0  0
   45.3495    2.2344   11.7651 H   0  0  0  0  0  0  0  0  0  0  0  0
   42.4396    4.9783   10.7798 H   0  0  0  0  0  0  0  0  0  0  0  0
   43.2134    6.5438   11.0233 H   0  0  0  0  0  0  0  0  0  0  0  0
   42.8866    5.2940   13.1764 H   0  0  0  0  0  0  0  0  0  0  0  0
   44.5796    5.6724   12.8797 H   0  0  0  0  0  0  0  0  0  0  0  0
   45.9000    4.8157    9.7572 H   0  0  0  0  0  0  0  0  0  0  0  0
   44.4337    5.0198   13.1030 H   0  0  0  0  0  0  0  0  0  0  0  0
   44.4563    2.9529   10.0993 H   0  0  0  0  0  0  0  0  0  0  0  0
   45.9586    2.7677   11.0022 H   0  0  0  0  0  0  0  0  0  0  0  0
   44.8927    2.8136   13.0318 H   0  0  0  0  0  0  0  0  0  0  0  0
   43.4404    2.4663   12.1045 H   0  0  0  0  0  0  0  0  0  0  0  0
   43.7353    5.5153    9.5647 H   0  0  0  0  0  0  0  0  0  0  0  0
   44.4821    6.6269   10.7105 H   0  0  0  0  0  0  0  0  0  0  0  0
   42.3010    4.6305   11.1455 H   0  0  0  0  0  0  0  0  0  0  0  0
   42.6281    6.1412   11.9877 H   0  0  0  0  0  0  0  0  0  0  0  0
  3  2  1  0
  4  2  1  0
  5  2  1  0
  6  4  1  0
  7  3  1  0
  8  5  2  0
  9  7  2  0
 10  6  2  0
 11  2  1  0
 12  5  1  0
 13  7  1  0
 14  6  1  0
 16 20  1  0
 17 15  1  0
 18 17  1  0
 19 15  1  0
 20 19  1  0
 16 18  1  0
 22 21  1  0
 23 21  1  0
 24 21  1  0
 25 23  1  0
 26 22  1  0
 27 24  2  0
 28 26  2  0
 29 25  2  0
 30 21  1  0
 31 24  1  0
 32 26  1  0
 33 25  1  0
 35 39  1  0
 36 34  1  0
 37 36  1  0
 38 34  1  0
 39 38  1  0
 35 37  1  0
 41 45  1  0
 42 40  1  0
 43 42  1  0
 44 40  1  0
 45 44  1  0
 41 43  1  0
  1 46  1  0
  1 47  1  0
  3 48  1  0
  3 49  1  0
  4 50  1  0
  4 51  1  0
 11 52  1  0
 12 53  1  0
 13 54  1  0
 14 55  1  0
 15 56  1  0
 16 57  1  0
 17 58  1  0
 17 59  1  0
 18 60  1  0
 18 61  1  0
 19 62  1  0
 19 63  1  0
 20 64  1  0
 20 65  1  0
 22 66  1  0
 22 67  1  0
 23 68  1  0
 23 69  1  0
 30 70  1  0
 31 71  1  0
 32 72  1  0
 33 73  1  0
 34 74  1  0
 35 75  1  0
 36 76  1  0
 36 77  1  0
 37 78  1  0
 37 79  1  0
 38 80  1  0
 38 81  1  0
 39 82  1  0
 39 83  1  0
 40 84  1  0
 41 85  1  0
 42 86  1  0
 42 87  1  0
 43 88  1  0
 43 89  1  0
 44 90  1  0
 44 91  1  0
 45 92  1  0
 45 93  1  0
M  END
> <Uni-Dock RESULT> 
ENERGY=   -8.627  LOWER_BOUND=    1.055  UPPER_BOUND=    1.766
INTER + INTRA:          -8.627
INTER:                  -8.627
INTRA:                   0.000
UNBOUND:                 0.000

$$$$
