
     RDKit          3D

 93 90  0  0  0  0  0  0  0  0999 V2000
   45.0232    5.2712   12.2874 O   0  0  0  0  0  0  0  0  0  0  0  0
   44.8473    4.4400   11.9807 C   0  0  0  0  0  0  0  0  0  0  0  0
   45.1078    4.4205   13.4885 C   0  0  0  0  0  0  0  0  0  0  0  0
   43.3601    4.3342   11.6309 C   0  0  0  0  0  0  0  0  0  0  0  0
   45.4327    5.6829   11.2992 C   0  0  0  0  0  0  0  0  0  0  0  0
   42.5284    5.4472   12.1946 C   0  0  0  0  0  0  0  0  0  0  0  0
   46.5595    4.2340   13.8278 C   0  0  0  0  0  0  0  0  0  0  0  0
   46.1391    5.6491   10.3007 O   0  0  0  0  0  0  0  0  0  0  0  0
   47.0279    3.3603   14.5383 O   0  0  0  0  0  0  0  0  0  0  0  0
   42.2755    5.6335   13.3719 O   0  0  0  0  0  0  0  0  0  0  0  0
   45.4524    3.2592   11.4048 O   0  0  0  0  0  0  0  0  0  0  0  0
   45.0866    6.8529   11.8599 O   0  0  0  0  0  0  0  0  0  0  0  0
   47.3592    5.1923   13.3230 O   0  0  0  0  0  0  0  0  0  0  0  0
   42.0519    6.2748   11.2478 O   0  0  0  0  0  0  0  0  0  0  0  0
   43.8914    4.0322   11.4340 N   0  0  0  0  0  0  0  0  0  0  0  0
   45.5199    5.7955   13.1801 N   0  0  0  0  0  0  0  0  0  0  0  0
   44.8959    3.4992   12.3733 C   0  0  0  0  0  0  0  0  0  0  0  0
   46.0238    4.5080   12.6819 C   0  0  0  0  0  0  0  0  0  0  0  0
   43.3728    5.3037   11.9727 C   0  0  0  0  0  0  0  0  0  0  0  0
   44.4879    6.3264   12.2792 C   0  0  0  0  0  0  0  0  0  0  0  0
   44.2524    4.7290   11.8568 C   0  0  0  0  0  0  0  0  0  0  0  0
   43.8777    6.0352   12.5733 C   0  0  0  0  0  0  0  0  0  0  0  0
   45.7485    4.4347   11.7193 C   0  0  0  0  0  0  0  0  0  0  0  0
   43.6000    3.5572   12.6155 C   0  0  0  0  0  0  0  0  0  0  0  0
   46.3946    4.0822   13.0250 C   0  0  0  0  0  0  0  0  0  0  0  0
   44.7079    7.2409   12.2333 C   0  0  0  0  0  0  0  0  0  0  0  0
   43.3872    3.4696   13.8125 O   0  0  0  0  0  0  0  0  0  0  0  0
   45.0930    8.0809   13.0320 O   0  0  0  0  0  0  0  0  0  0  0  0
   46.7086    2.9616   13.3864 O   0  0  0  0  0  0  0  0  0  0  0  0
   43.6722    4.7614   10.5348 O   0  0  0  0  0  0  0  0  0  0  0  0
   43.2927    2.5304   11.7862 O   0  0  0  0  0  0  0  0  0  0  0  0
   44.9463    7.4077   10.9231 O   0  0  0  0  0  0  0  0  0  0  0  0
   46.5983    5.1524   13.8077 O   0  0  0  0  0  0  0  0  0  0  0  0
   44.6152    3.5889   11.8314 N   0  0  0  0  0  0  0  0  0  0  0  0
   45.1164    6.3183   11.8814 N   0  0  0  0  0  0  0  0  0  0  0  0
   43.4313    4.4506   12.0235 C   0  0  0  0  0  0  0  0  0  0  0  0
   43.7566    5.9389   12.3027 C   0  0  0  0  0  0  0  0  0  0  0  0
   45.6681    3.9991   12.7760 C   0  0  0  0  0  0  0  0  0  0  0  0
   46.0956    5.4774   12.5996 C   0  0  0  0  0  0  0  0  0  0  0  0
   45.6861    5.8630   13.0232 N   0  0  0  0  0  0  0  0  0  0  0  0
   43.8578    4.0631   11.5241 N   0  0  0  0  0  0  0  0  0  0  0  0
   46.0020    4.4441   12.7833 C   0  0  0  0  0  0  0  0  0  0  0  0
   44.7434    3.5706   12.5939 C   0  0  0  0  0  0  0  0  0  0  0  0
   44.8007    6.3552   11.9534 C   0  0  0  0  0  0  0  0  0  0  0  0
   43.5416    5.4819   11.7646 C   0  0  0  0  0  0  0  0  0  0  0  0
   45.1911    4.3529   12.5476 H   0  0  0  0  0  0  0  0  0  0  0  0
   44.1019    5.2648   11.9869 H   0  0  0  0  0  0  0  0  0  0  0  0
   44.5749    3.5749   13.9419 H   0  0  0  0  0  0  0  0  0  0  0  0
   44.7681    5.3313   13.9922 H   0  0  0  0  0  0  0  0  0  0  0  0
   43.2287    4.3029   10.5412 H   0  0  0  0  0  0  0  0  0  0  0  0
   42.9394    3.3874   11.9901 H   0  0  0  0  0  0  0  0  0  0  0  0
   45.9579    3.5505   10.6175 H   0  0  0  0  0  0  0  0  0  0  0  0
   45.5578    7.5280   11.3266 H   0  0  0  0  0  0  0  0  0  0  0  0
   48.2503    4.9407   13.6502 H   0  0  0  0  0  0  0  0  0  0  0  0
   41.5364    6.9424   11.7481 H   0  0  0  0  0  0  0  0  0  0  0  0
   44.3620    4.2337   10.5525 H   0  0  0  0  0  0  0  0  0  0  0  0
   46.2877    6.4608   13.2532 H   0  0  0  0  0  0  0  0  0  0  0  0
   44.3980    3.1984   13.3035 H   0  0  0  0  0  0  0  0  0  0  0  0
   45.3315    2.5910   11.9419 H   0  0  0  0  0  0  0  0  0  0  0  0
   46.6196    4.6768   11.7762 H   0  0  0  0  0  0  0  0  0  0  0  0
   46.6960    4.0784   13.4329 H   0  0  0  0  0  0  0  0  0  0  0  0
   42.7909    5.1028   12.8806 H   0  0  0  0  0  0  0  0  0  0  0  0
   42.6784    5.7350   11.2429 H   0  0  0  0  0  0  0  0  0  0  0  0
   44.0429    7.2159   12.7385 H   0  0  0  0  0  0  0  0  0  0  0  0
   44.9547    6.6497   11.3402 H   0  0  0  0  0  0  0  0  0  0  0  0
   42.8329    6.2980   12.3644 H   0  0  0  0  0  0  0  0  0  0  0  0
   43.9637    5.9103   13.6599 H   0  0  0  0  0  0  0  0  0  0  0  0
   45.9003    3.5812   11.0440 H   0  0  0  0  0  0  0  0  0  0  0  0
   46.3036    5.2522   11.2485 H   0  0  0  0  0  0  0  0  0  0  0  0
   43.5888    3.8297   10.2462 H   0  0  0  0  0  0  0  0  0  0  0  0
   42.9207    1.8463   12.3858 H   0  0  0  0  0  0  0  0  0  0  0  0
   45.4231    8.2627   10.8685 H   0  0  0  0  0  0  0  0  0  0  0  0
   47.0009    4.7988   14.6302 H   0  0  0  0  0  0  0  0  0  0  0  0
   44.9712    3.7570   10.8911 H   0  0  0  0  0  0  0  0  0  0  0  0
   45.1953    6.1063   10.8873 H   0  0  0  0  0  0  0  0  0  0  0  0
   42.8260    4.0518   12.8460 H   0  0  0  0  0  0  0  0  0  0  0  0
   42.8179    4.3774   11.1177 H   0  0  0  0  0  0  0  0  0  0  0  0
   43.6467    6.1473   13.3742 H   0  0  0  0  0  0  0  0  0  0  0  0
   43.0311    6.5750   11.7832 H   0  0  0  0  0  0  0  0  0  0  0  0
   45.3088    3.8375   13.7999 H   0  0  0  0  0  0  0  0  0  0  0  0
   46.5398    3.3482   12.6443 H   0  0  0  0  0  0  0  0  0  0  0  0
   46.2945    5.9163   13.5841 H   0  0  0  0  0  0  0  0  0  0  0  0
   47.0385    5.5174   12.0414 H   0  0  0  0  0  0  0  0  0  0  0  0
   45.1719    5.9216   13.9034 H   0  0  0  0  0  0  0  0  0  0  0  0
   44.3724    4.0049   10.6444 H   0  0  0  0  0  0  0  0  0  0  0  0
   46.6473    4.3637   11.8998 H   0  0  0  0  0  0  0  0  0  0  0  0
   46.5811    4.0649   13.6324 H   0  0  0  0  0  0  0  0  0  0  0  0
   45.0471    2.5454   12.3551 H   0  0  0  0  0  0  0  0  0  0  0  0
   44.1796    3.5208   13.5335 H   0  0  0  0  0  0  0  0  0  0  0  0
   45.3646    6.4047   11.0136 H   0  0  0  0  0  0  0  0  0  0  0  0
   44.4977    7.3802   12.1934 H   0  0  0  0  0  0  0  0  0  0  0  0
   42.8980    5.5617   12.6493 H   0  0  0  0  0  0  0  0  0  0  0  0
   42.9614    5.8616   10.9162 H   0  0  0  0  0  0  0  0  0  0  0  0
  3  2  1  0
  4  2  1  0
  5  2  1  0
  6  4  1  0
  7  3  1  0
  8  5  2  0
  9  7  2  0
 10  6  2  0
 11  2  1  0
 12  5  1  0
 13  7  1  0
 14  6  1  0
 16 20  1  0
 17 15  1  0
 18 17  1  0
 19 15  1  0
 20 19  1  0
 16 18  1  0
 22 21  1  0
 23 21  1  0
 24 21  1  0
 25 23  1  0
 26 22  1  0
 27 24  2  0
 28 26  2  0
 29 25  2  0
 30 21  1  0
 31 24  1  0
 32 26  1  0
 33 25  1  0
 35 39  1  0
 36 34  1  0
 37 36  1  0
 38 34  1  0
 39 38  1  0
 35 37  1  0
 41 45  1  0
 42 40  1  0
 43 42  1  0
 44 40  1  0
 45 44  1  0
 41 43  1  0
  1 46  1  0
  1 47  1  0
  3 48  1  0
  3 49  1  0
  4 50  1  0
  4 51  1  0
 11 52  1  0
 12 53  1  0
 13 54  1  0
 14 55  1  0
 15 56  1  0
 16 57  1  0
 17 58  1  0
 17 59  1  0
 18 60  1  0
 18 61  1  0
 19 62  1  0
 19 63  1  0
 20 64  1  0
 20 65  1  0
 22 66  1  0
 22 67  1  0
 23 68  1  0
 23 69  1  0
 30 70  1  0
 31 71  1  0
 32 72  1  0
 33 73  1  0
 34 74  1  0
 35 75  1  0
 36 76  1  0
 36 77  1  0
 37 78  1  0
 37 79  1  0
 38 80  1  0
 38 81  1  0
 39 82  1  0
 39 83  1  0
 40 84  1  0
 41 85  1  0
 42 86  1  0
 42 87  1  0
 43 88  1  0
 43 89  1  0
 44 90  1  0
 44 91  1  0
 45 92  1  0
 45 93  1  0
M  END
> <Uni-Dock RESULT> 
ENERGY=   -8.765  LOWER_BOUND=    0.000  UPPER_BOUND=    0.000
INTER + INTRA:          -8.765
INTER:                  -8.765
INTRA:                   0.000
UNBOUND:                 0.000

$$$$

     RDKit          3D

 93 90  0  0  0  0  0  0  0  0999 V2000
   44.8182    4.9772   11.1487 O   0  0  0  0  0  0  0  0  0  0  0  0
   44.1590    4.4081   11.3885 C   0  0  0  0  0  0  0  0  0  0  0  0
   45.2182    3.6918   10.5479 C   0  0  0  0  0  0  0  0  0  0  0  0
   44.2759    4.1001   12.8840 C   0  0  0  0  0  0  0  0  0  0  0  0
   44.1801    5.9285   11.1892 C   0  0  0  0  0  0  0  0  0  0  0  0
   45.5936    4.4967   13.4792 C   0  0  0  0  0  0  0  0  0  0  0  0
   44.9359    3.7569    9.0737 C   0  0  0  0  0  0  0  0  0  0  0  0
   43.1894    6.6014   10.9386 O   0  0  0  0  0  0  0  0  0  0  0  0
   44.8345    2.8067    8.3158 O   0  0  0  0  0  0  0  0  0  0  0  0
   46.6730    3.9791   13.2512 O   0  0  0  0  0  0  0  0  0  0  0  0
   42.8605    3.9014   11.0021 O   0  0  0  0  0  0  0  0  0  0  0  0
   45.3834    6.5040   11.3439 O   0  0  0  0  0  0  0  0  0  0  0  0
   44.8639    5.0125    8.5929 O   0  0  0  0  0  0  0  0  0  0  0  0
   45.4910    5.5279   14.3363 O   0  0  0  0  0  0  0  0  0  0  0  0
   43.7936    4.0973   12.4603 N   0  0  0  0  0  0  0  0  0  0  0  0
   45.6513    5.0827   10.3656 N   0  0  0  0  0  0  0  0  0  0  0  0
   43.9023    3.4526   11.1381 C   0  0  0  0  0  0  0  0  0  0  0  0
   44.3809    4.4220   10.0353 C   0  0  0  0  0  0  0  0  0  0  0  0
   45.0900    4.7203   12.7870 C   0  0  0  0  0  0  0  0  0  0  0  0
   45.5787    5.6987   11.6975 C   0  0  0  0  0  0  0  0  0  0  0  0
   44.4086    4.5472   11.9976 C   0  0  0  0  0  0  0  0  0  0  0  0
   45.8175    5.1464   12.1236 C   0  0  0  0  0  0  0  0  0  0  0  0
   43.6878    4.7800   10.6673 C   0  0  0  0  0  0  0  0  0  0  0  0
   44.5071    3.0273   12.2312 C   0  0  0  0  0  0  0  0  0  0  0  0
   44.2864    3.9989    9.5367 C   0  0  0  0  0  0  0  0  0  0  0  0
   46.0042    6.5279   11.5622 C   0  0  0  0  0  0  0  0  0  0  0  0
   45.4318    2.2868   11.9443 O   0  0  0  0  0  0  0  0  0  0  0  0
   46.9806    6.9091   10.9352 O   0  0  0  0  0  0  0  0  0  0  0  0
   43.8233    2.9839    9.0464 O   0  0  0  0  0  0  0  0  0  0  0  0
   43.5936    5.0930   13.0576 O   0  0  0  0  0  0  0  0  0  0  0  0
   43.3767    2.5301   12.7893 O   0  0  0  0  0  0  0  0  0  0  0  0
   45.0311    7.3978   11.8749 O   0  0  0  0  0  0  0  0  0  0  0  0
   45.4373    4.5273    9.0943 O   0  0  0  0  0  0  0  0  0  0  0  0
   43.6250    3.7271   11.6159 N   0  0  0  0  0  0  0  0  0  0  0  0
   45.0835    6.0646   11.2801 N   0  0  0  0  0  0  0  0  0  0  0  0
   44.6205    4.0137   12.6684 C   0  0  0  0  0  0  0  0  0  0  0  0
   45.5921    5.1735   12.3373 C   0  0  0  0  0  0  0  0  0  0  0  0
   44.2659    3.8628   10.2968 C   0  0  0  0  0  0  0  0  0  0  0  0
   44.8542    5.2747   10.0531 C   0  0  0  0  0  0  0  0  0  0  0  0
   45.5210    5.2628   10.2795 N   0  0  0  0  0  0  0  0  0  0  0  0
   43.8900    4.0674   12.4567 N   0  0  0  0  0  0  0  0  0  0  0  0
   44.4278    4.3121   10.0114 C   0  0  0  0  0  0  0  0  0  0  0  0
   44.1569    3.3571   11.1936 C   0  0  0  0  0  0  0  0  0  0  0  0
   45.2538    5.9729   11.5424 C   0  0  0  0  0  0  0  0  0  0  0  0
   44.9836    5.0176   12.7247 C   0  0  0  0  0  0  0  0  0  0  0  0
   44.4379    4.1398   10.8431 H   0  0  0  0  0  0  0  0  0  0  0  0
   44.8607    4.8776   12.1118 H   0  0  0  0  0  0  0  0  0  0  0  0
   45.2363    2.6263   10.8108 H   0  0  0  0  0  0  0  0  0  0  0  0
   46.2272    4.0864   10.7059 H   0  0  0  0  0  0  0  0  0  0  0  0
   43.4672    4.5961   13.4370 H   0  0  0  0  0  0  0  0  0  0  0  0
   44.1304    3.0304   13.0765 H   0  0  0  0  0  0  0  0  0  0  0  0
   42.2776    4.6775   10.8684 H   0  0  0  0  0  0  0  0  0  0  0  0
   45.2249    7.4544   11.1604 H   0  0  0  0  0  0  0  0  0  0  0  0
   44.7023    4.8797    7.6334 H   0  0  0  0  0  0  0  0  0  0  0  0
   46.4100    5.6785   14.6438 H   0  0  0  0  0  0  0  0  0  0  0  0
   43.0976    4.8389   12.3913 H   0  0  0  0  0  0  0  0  0  0  0  0
   45.8603    5.7952    9.6683 H   0  0  0  0  0  0  0  0  0  0  0  0
   44.5863    2.5976   11.2075 H   0  0  0  0  0  0  0  0  0  0  0  0
   42.9213    3.0489   10.8637 H   0  0  0  0  0  0  0  0  0  0  0  0
   43.6103    5.1830    9.8596 H   0  0  0  0  0  0  0  0  0  0  0  0
   44.5048    3.8684    9.0979 H   0  0  0  0  0  0  0  0  0  0  0  0
   45.8397    3.9357   12.9474 H   0  0  0  0  0  0  0  0  0  0  0  0
   44.9897    5.2584   13.7363 H   0  0  0  0  0  0  0  0  0  0  0  0
   46.5730    6.0703   11.9684 H   0  0  0  0  0  0  0  0  0  0  0  0
   44.9103    6.5682   11.6612 H   0  0  0  0  0  0  0  0  0  0  0  0
   46.1215    5.1865   13.1773 H   0  0  0  0  0  0  0  0  0  0  0  0
   46.5474    4.5123   11.6052 H   0  0  0  0  0  0  0  0  0  0  0  0
   42.6372    4.4692   10.7527 H   0  0  0  0  0  0  0  0  0  0  0  0
   43.6337    5.8373   10.3894 H   0  0  0  0  0  0  0  0  0  0  0  0
   42.8628    4.4575   13.2002 H   0  0  0  0  0  0  0  0  0  0  0  0
   43.5508    1.5651   12.8551 H   0  0  0  0  0  0  0  0  0  0  0  0
   45.3390    8.2520   11.5049 H   0  0  0  0  0  0  0  0  0  0  0  0
   45.7400    3.9267    8.3793 H   0  0  0  0  0  0  0  0  0  0  0  0
   42.8993    4.4407   11.6735 H   0  0  0  0  0  0  0  0  0  0  0  0
   44.1809    6.4208   11.5930 H   0  0  0  0  0  0  0  0  0  0  0  0
   45.1983    3.1049   12.8740 H   0  0  0  0  0  0  0  0  0  0  0  0
   44.0718    4.2517   13.5874 H   0  0  0  0  0  0  0  0  0  0  0  0
   46.5608    4.7665   12.0218 H   0  0  0  0  0  0  0  0  0  0  0  0
   45.7790    5.7629   13.2420 H   0  0  0  0  0  0  0  0  0  0  0  0
   45.0600    3.1108   10.2092 H   0  0  0  0  0  0  0  0  0  0  0  0
   43.5310    3.6333    9.5170 H   0  0  0  0  0  0  0  0  0  0  0  0
   45.7971    5.1834    9.5016 H   0  0  0  0  0  0  0  0  0  0  0  0
   44.1707    5.8464    9.4144 H   0  0  0  0  0  0  0  0  0  0  0  0
   46.3785    4.7224   10.4025 H   0  0  0  0  0  0  0  0  0  0  0  0
   43.0329    4.6079   12.3331 H   0  0  0  0  0  0  0  0  0  0  0  0
   43.5160    4.8717    9.7685 H   0  0  0  0  0  0  0  0  0  0  0  0
   44.6833    3.7245    9.1229 H   0  0  0  0  0  0  0  0  0  0  0  0
   43.2947    2.7239   10.9570 H   0  0  0  0  0  0  0  0  0  0  0  0
   45.0122    2.6845   11.3327 H   0  0  0  0  0  0  0  0  0  0  0  0
   44.3982    6.6454   11.4033 H   0  0  0  0  0  0  0  0  0  0  0  0
   46.1166    6.6054   11.7778 H   0  0  0  0  0  0  0  0  0  0  0  0
   45.8955    4.4573   12.9655 H   0  0  0  0  0  0  0  0  0  0  0  0
   44.7292    5.6049   13.6141 H   0  0  0  0  0  0  0  0  0  0  0  0
  3  2  1  0
  4  2  1  0
  5  2  1  0
  6  4  1  0
  7  3  1  0
  8  5  2  0
  9  7  2  0
 10  6  2  0
 11  2  1  0
 12  5  1  0
 13  7  1  0
 14  6  1  0
 16 20  1  0
 17 15  1  0
 18 17  1  0
 19 15  1  0
 20 19  1  0
 16 18  1  0
 22 21  1  0
 23 21  1  0
 24 21  1  0
 25 23  1  0
 26 22  1  0
 27 24  2  0
 28 26  2  0
 29 25  2  0
 30 21  1  0
 31 24  1  0
 32 26  1  0
 33 25  1  0
 35 39  1  0
 36 34  1  0
 37 36  1  0
 38 34  1  0
 39 38  1  0
 35 37  1  0
 41 45  1  0
 42 40  1  0
 43 42  1  0
 44 40  1  0
 45 44  1  0
 41 43  1  0
  1 46  1  0
  1 47  1  0
  3 48  1  0
  3 49  1  0
  4 50  1  0
  4 51  1  0
 11 52  1  0
 12 53  1  0
 13 54  1  0
 14 55  1  0
 15 56  1  0
 16 57  1  0
 17 58  1  0
 17 59  1  0
 18 60  1  0
 18 61  1  0
 19 62  1  0
 19 63  1  0
 20 64  1  0
 20 65  1  0
 22 66  1  0
 22 67  1  0
 23 68  1  0
 23 69  1  0
 30 70  1  0
 31 71  1  0
 32 72  1  0
 33 73  1  0
 34 74  1  0
 35 75  1  0
 36 76  1  0
 36 77  1  0
 37 78  1  0
 37 79  1  0
 38 80  1  0
 38 81  1  0
 39 82  1  0
 39 83  1  0
 40 84  1  0
 41 85  1  0
 42 86  1  0
 42 87  1  0
 43 88  1  0
 43 89  1  0
 44 90  1  0
 44 91  1  0
 45 92  1  0
 45 93  1  0
M  END
> <Uni-Dock RESULT> 
ENERGY=   -8.575  LOWER_BOUND=    1.395  UPPER_BOUND=    2.876
INTER + INTRA:          -8.575
INTER:                  -8.575
INTRA:                   0.000
UNBOUND:                 0.000

$$$$

     RDKit          3D

 93 90  0  0  0  0  0  0  0  0999 V2000
   44.3611    4.1021   11.2298 O   0  0  0  0  0  0  0  0  0  0  0  0
   44.8176    4.8776   11.3080 C   0  0  0  0  0  0  0  0  0  0  0  0
   44.0882    4.8079    9.9646 C   0  0  0  0  0  0  0  0  0  0  0  0
   44.1115    5.7800   12.3240 C   0  0  0  0  0  0  0  0  0  0  0  0
   45.0308    3.4937   11.9335 C   0  0  0  0  0  0  0  0  0  0  0  0
   42.7150    5.3420   12.6499 C   0  0  0  0  0  0  0  0  0  0  0  0
   44.9133    4.1674    8.8848 C   0  0  0  0  0  0  0  0  0  0  0  0
   46.1063    3.0891   12.3536 O   0  0  0  0  0  0  0  0  0  0  0  0
   45.1957    4.6593    7.8049 O   0  0  0  0  0  0  0  0  0  0  0  0
   41.7554    5.3745   11.8996 O   0  0  0  0  0  0  0  0  0  0  0  0
   46.1058    5.4976   11.0883 O   0  0  0  0  0  0  0  0  0  0  0  0
   43.9250    2.7378   12.0280 O   0  0  0  0  0  0  0  0  0  0  0  0
   45.2914    2.9072    9.1702 O   0  0  0  0  0  0  0  0  0  0  0  0
   42.5910    4.8837   13.9080 O   0  0  0  0  0  0  0  0  0  0  0  0
   44.7153    5.7269   12.1125 N   0  0  0  0  0  0  0  0  0  0  0  0
   43.9027    3.4256   10.4232 N   0  0  0  0  0  0  0  0  0  0  0  0
   45.0499    5.6464   10.6782 C   0  0  0  0  0  0  0  0  0  0  0  0
   45.1279    4.1935   10.1608 C   0  0  0  0  0  0  0  0  0  0  0  0
   43.4636    4.9821   12.3453 C   0  0  0  0  0  0  0  0  0  0  0  0
   43.5282    3.5246   11.8405 C   0  0  0  0  0  0  0  0  0  0  0  0
   44.3716    4.9643   11.8043 C   0  0  0  0  0  0  0  0  0  0  0  0
   43.0901    4.1176   11.8315 C   0  0  0  0  0  0  0  0  0  0  0  0
   45.5628    4.3698   11.0483 C   0  0  0  0  0  0  0  0  0  0  0  0
   44.0355    6.3296   11.1740 C   0  0  0  0  0  0  0  0  0  0  0  0
   45.3601    4.3537    9.5633 C   0  0  0  0  0  0  0  0  0  0  0  0
   43.2739    2.6415   12.0465 C   0  0  0  0  0  0  0  0  0  0  0  0
   43.2174    6.5678   10.3023 O   0  0  0  0  0  0  0  0  0  0  0  0
   42.6531    1.7616   11.4703 O   0  0  0  0  0  0  0  0  0  0  0  0
   45.8670    5.1227    8.7653 O   0  0  0  0  0  0  0  0  0  0  0  0
   44.7756    5.2088   13.1690 O   0  0  0  0  0  0  0  0  0  0  0  0
   44.8121    7.3201   11.6763 O   0  0  0  0  0  0  0  0  0  0  0  0
   44.1401    2.3190   13.0196 O   0  0  0  0  0  0  0  0  0  0  0  0
   44.5240    3.3831    9.1652 O   0  0  0  0  0  0  0  0  0  0  0  0
   45.1521    5.7072   11.2836 N   0  0  0  0  0  0  0  0  0  0  0  0
   44.1796    3.1656   11.8298 N   0  0  0  0  0  0  0  0  0  0  0  0
   43.8673    5.6592   12.0101 C   0  0  0  0  0  0  0  0  0  0  0  0
   43.2192    4.2543   12.0802 C   0  0  0  0  0  0  0  0  0  0  0  0
   45.0768    4.8174   10.1123 C   0  0  0  0  0  0  0  0  0  0  0  0
   44.7739    3.3461   10.4896 C   0  0  0  0  0  0  0  0  0  0  0  0
   44.0738    3.2708   10.4833 N   0  0  0  0  0  0  0  0  0  0  0  0
   44.6250    5.7235   12.0676 N   0  0  0  0  0  0  0  0  0  0  0  0
   45.0825    4.2626   10.0714 C   0  0  0  0  0  0  0  0  0  0  0  0
   44.7849    5.6808   10.6034 C   0  0  0  0  0  0  0  0  0  0  0  0
   43.9142    3.3136   11.9473 C   0  0  0  0  0  0  0  0  0  0  0  0
   43.6158    4.7320   12.4791 C   0  0  0  0  0  0  0  0  0  0  0  0
   44.7401    4.7806   10.6509 H   0  0  0  0  0  0  0  0  0  0  0  0
   43.9467    4.6088   11.9445 H   0  0  0  0  0  0  0  0  0  0  0  0
   43.8619    5.8241    9.6169 H   0  0  0  0  0  0  0  0  0  0  0  0
   43.1412    4.2613   10.0209 H   0  0  0  0  0  0  0  0  0  0  0  0
   44.6967    5.8364   13.2514 H   0  0  0  0  0  0  0  0  0  0  0  0
   44.0618    6.8139   11.9621 H   0  0  0  0  0  0  0  0  0  0  0  0
   46.7728    4.9435   11.5446 H   0  0  0  0  0  0  0  0  0  0  0  0
   44.2385    1.8944   12.4185 H   0  0  0  0  0  0  0  0  0  0  0  0
   45.7901    2.6325    8.3700 H   0  0  0  0  0  0  0  0  0  0  0  0
   41.6450    4.6365   13.9827 H   0  0  0  0  0  0  0  0  0  0  0  0
   45.4581    5.2630   12.6344 H   0  0  0  0  0  0  0  0  0  0  0  0
   44.0484    2.4489   10.1736 H   0  0  0  0  0  0  0  0  0  0  0  0
   44.3062    6.2099   10.1010 H   0  0  0  0  0  0  0  0  0  0  0  0
   46.0144    6.1404   10.5154 H   0  0  0  0  0  0  0  0  0  0  0  0
   45.9818    3.6860   10.6269 H   0  0  0  0  0  0  0  0  0  0  0  0
   45.3120    4.2050    9.0808 H   0  0  0  0  0  0  0  0  0  0  0  0
   42.6324    5.5085   11.8602 H   0  0  0  0  0  0  0  0  0  0  0  0
   43.2516    4.9824   13.4204 H   0  0  0  0  0  0  0  0  0  0  0  0
   42.5496    3.0525   11.9800 H   0  0  0  0  0  0  0  0  0  0  0  0
   44.2465    2.9595   12.4478 H   0  0  0  0  0  0  0  0  0  0  0  0
   42.4153    4.4732   12.6204 H   0  0  0  0  0  0  0  0  0  0  0  0
   42.5498    4.2159   10.8818 H   0  0  0  0  0  0  0  0  0  0  0  0
   46.4644    4.9668   11.2439 H   0  0  0  0  0  0  0  0  0  0  0  0
   45.8270    3.3639   11.3897 H   0  0  0  0  0  0  0  0  0  0  0  0
   45.3280    6.0168   13.1537 H   0  0  0  0  0  0  0  0  0  0  0  0
   44.5274    8.1184   11.1788 H   0  0  0  0  0  0  0  0  0  0  0  0
   44.0854    1.3420   13.0812 H   0  0  0  0  0  0  0  0  0  0  0  0
   44.4546    3.4845    8.1913 H   0  0  0  0  0  0  0  0  0  0  0  0
   45.8713    5.3325   11.9012 H   0  0  0  0  0  0  0  0  0  0  0  0
   44.9279    3.2585   12.5161 H   0  0  0  0  0  0  0  0  0  0  0  0
   43.1643    6.3595   11.5440 H   0  0  0  0  0  0  0  0  0  0  0  0
   44.0482    6.0260   13.0275 H   0  0  0  0  0  0  0  0  0  0  0  0
   42.4059    4.1847   11.3471 H   0  0  0  0  0  0  0  0  0  0  0  0
   42.7653    4.1103   13.0672 H   0  0  0  0  0  0  0  0  0  0  0  0
   44.3021    5.1918    9.4316 H   0  0  0  0  0  0  0  0  0  0  0  0
   46.0245    4.8667    9.5643 H   0  0  0  0  0  0  0  0  0  0  0  0
   44.1065    2.9098    9.7375 H   0  0  0  0  0  0  0  0  0  0  0  0
   45.7037    2.7658   10.4590 H   0  0  0  0  0  0  0  0  0  0  0  0
   43.1827    3.5431   10.0656 H   0  0  0  0  0  0  0  0  0  0  0  0
   45.5158    5.4506   12.4847 H   0  0  0  0  0  0  0  0  0  0  0  0
   46.0709    3.9352   10.4170 H   0  0  0  0  0  0  0  0  0  0  0  0
   45.1236    4.2880    8.9769 H   0  0  0  0  0  0  0  0  0  0  0  0
   45.6020    6.3529   10.3190 H   0  0  0  0  0  0  0  0  0  0  0  0
   43.8761    6.0731   10.1305 H   0  0  0  0  0  0  0  0  0  0  0  0
   44.8232    2.9216   12.4202 H   0  0  0  0  0  0  0  0  0  0  0  0
   43.0968    2.6415   12.2302 H   0  0  0  0  0  0  0  0  0  0  0  0
   42.6281    5.0590   12.1314 H   0  0  0  0  0  0  0  0  0  0  0  0
   43.5733    4.7068   13.5737 H   0  0  0  0  0  0  0  0  0  0  0  0
  3  2  1  0
  4  2  1  0
  5  2  1  0
  6  4  1  0
  7  3  1  0
  8  5  2  0
  9  7  2  0
 10  6  2  0
 11  2  1  0
 12  5  1  0
 13  7  1  0
 14  6  1  0
 16 20  1  0
 17 15  1  0
 18 17  1  0
 19 15  1  0
 20 19  1  0
 16 18  1  0
 22 21  1  0
 23 21  1  0
 24 21  1  0
 25 23  1  0
 26 22  1  0
 27 24  2  0
 28 26  2  0
 29 25  2  0
 30 21  1  0
 31 24  1  0
 32 26  1  0
 33 25  1  0
 35 39  1  0
 36 34  1  0
 37 36  1  0
 38 34  1  0
 39 38  1  0
 35 37  1  0
 41 45  1  0
 42 40  1  0
 43 42  1  0
 44 40  1  0
 45 44  1  0
 41 43  1  0
  1 46  1  0
  1 47  1  0
  3 48  1  0
  3 49  1  0
  4 50  1  0
  4 51  1  0
 11 52  1  0
 12 53  1  0
 13 54  1  0
 14 55  1  0
 15 56  1  0
 16 57  1  0
 17 58  1  0
 17 59  1  0
 18 60  1  0
 18 61  1  0
 19 62  1  0
 19 63  1  0
 20 64  1  0
 20 65  1  0
 22 66  1  0
 22 67  1  0
 23 68  1  0
 23 69  1  0
 30 70  1  0
 31 71  1  0
 32 72  1  0
 33 73  1  0
 34 74  1  0
 35 75  1  0
 36 76  1  0
 36 77  1  0
 37 78  1  0
 37 79  1  0
 38 80  1  0
 38 81  1  0
 39 82  1  0
 39 83  1  0
 40 84  1  0
 41 85  1  0
 42 86  1  0
 42 87  1  0
 43 88  1  0
 43 89  1  0
 44 90  1  0
 44 91  1  0
 45 92  1  0
 45 93  1  0
M  END
> <Uni-Dock RESULT> 
ENERGY=   -8.229  LOWER_BOUND=    1.292  UPPER_BOUND=    3.494
INTER + INTRA:          -8.229
INTER:                  -8.229
INTRA:                   0.000
UNBOUND:                 0.000

$$$$

     RDKit          3D

 93 90  0  0  0  0  0  0  0  0999 V2000
   44.6726    5.6192   11.9827 O   0  0  0  0  0  0  0  0  0  0  0  0
   45.4742    5.2219   12.1074 C   0  0  0  0  0  0  0  0  0  0  0  0
   45.1694    6.2017   13.2425 C   0  0  0  0  0  0  0  0  0  0  0  0
   45.2573    3.7596   12.5072 C   0  0  0  0  0  0  0  0  0  0  0  0
   44.6616    5.5185   10.8410 C   0  0  0  0  0  0  0  0  0  0  0  0
   43.8524    3.4539   12.9326 C   0  0  0  0  0  0  0  0  0  0  0  0
   45.6500    7.5959   12.9552 C   0  0  0  0  0  0  0  0  0  0  0  0
   45.1468    5.6177    9.7221 O   0  0  0  0  0  0  0  0  0  0  0  0
   46.4012    8.2580   13.6516 O   0  0  0  0  0  0  0  0  0  0  0  0
   43.3030    3.8502   13.9455 O   0  0  0  0  0  0  0  0  0  0  0  0
   46.8832    5.3197   11.7954 O   0  0  0  0  0  0  0  0  0  0  0  0
   43.3374    5.6337   11.0311 O   0  0  0  0  0  0  0  0  0  0  0  0
   45.1132    8.1335   11.8437 O   0  0  0  0  0  0  0  0  0  0  0  0
   43.2034    2.6608   12.0618 O   0  0  0  0  0  0  0  0  0  0  0  0
   45.7334    4.0823   12.2221 N   0  0  0  0  0  0  0  0  0  0  0  0
   44.0896    6.5522   12.3115 N   0  0  0  0  0  0  0  0  0  0  0  0
   46.2559    5.3568   12.7496 C   0  0  0  0  0  0  0  0  0  0  0  0
   45.5494    6.5906   12.1464 C   0  0  0  0  0  0  0  0  0  0  0  0
   44.2739    4.0499   12.4328 C   0  0  0  0  0  0  0  0  0  0  0  0
   43.5516    5.2732   11.8284 C   0  0  0  0  0  0  0  0  0  0  0  0
   45.0765    4.6818   12.1608 C   0  0  0  0  0  0  0  0  0  0  0  0
   43.5776    4.8660   12.4426 C   0  0  0  0  0  0  0  0  0  0  0  0
   45.7936    5.8621   11.5002 C   0  0  0  0  0  0  0  0  0  0  0  0
   45.7848    4.3745   13.4943 C   0  0  0  0  0  0  0  0  0  0  0  0
   45.9553    7.0338   12.4209 C   0  0  0  0  0  0  0  0  0  0  0  0
   42.7771    5.5401   11.3639 C   0  0  0  0  0  0  0  0  0  0  0  0
   45.4950    4.7848   14.6048 O   0  0  0  0  0  0  0  0  0  0  0  0
   41.8960    6.3652   11.5500 O   0  0  0  0  0  0  0  0  0  0  0  0
   46.9841    7.3605   12.9865 O   0  0  0  0  0  0  0  0  0  0  0  0
   45.2335    3.5228   11.3136 O   0  0  0  0  0  0  0  0  0  0  0  0
   46.8682    3.5800   13.3166 O   0  0  0  0  0  0  0  0  0  0  0  0
   43.0302    5.1036   10.1203 O   0  0  0  0  0  0  0  0  0  0  0  0
   44.8156    7.7209   12.5898 O   0  0  0  0  0  0  0  0  0  0  0  0
   46.2378    4.8535   12.3934 N   0  0  0  0  0  0  0  0  0  0  0  0
   43.8348    5.6108   11.2291 N   0  0  0  0  0  0  0  0  0  0  0  0
   45.0664    4.0311   12.7574 C   0  0  0  0  0  0  0  0  0  0  0  0
   43.7045    4.6154   12.3073 C   0  0  0  0  0  0  0  0  0  0  0  0
   45.8988    6.2767   12.5632 C   0  0  0  0  0  0  0  0  0  0  0  0
   44.6932    6.7182   11.6968 C   0  0  0  0  0  0  0  0  0  0  0  0
   44.1135    6.6231   12.0852 N   0  0  0  0  0  0  0  0  0  0  0  0
   45.6722    4.1023   12.2998 N   0  0  0  0  0  0  0  0  0  0  0  0
   45.5761    6.6159   12.2625 C   0  0  0  0  0  0  0  0  0  0  0  0
   46.0905    5.3451   12.9721 C   0  0  0  0  0  0  0  0  0  0  0  0
   43.6956    5.3805   11.4129 C   0  0  0  0  0  0  0  0  0  0  0  0
   44.2094    4.1097   12.1232 C   0  0  0  0  0  0  0  0  0  0  0  0
   45.5006    5.7922   12.4556 H   0  0  0  0  0  0  0  0  0  0  0  0
   44.5054    4.6776   12.1400 H   0  0  0  0  0  0  0  0  0  0  0  0
   45.6882    5.8794   14.1545 H   0  0  0  0  0  0  0  0  0  0  0  0
   44.1017    6.2650   13.4767 H   0  0  0  0  0  0  0  0  0  0  0  0
   45.5351    3.0952   11.6784 H   0  0  0  0  0  0  0  0  0  0  0  0
   45.9249    3.4748   13.3291 H   0  0  0  0  0  0  0  0  0  0  0  0
   46.9574    5.3891   10.8209 H   0  0  0  0  0  0  0  0  0  0  0  0
   42.9805    5.8441   10.1420 H   0  0  0  0  0  0  0  0  0  0  0  0
   45.5041    9.0339   11.8148 H   0  0  0  0  0  0  0  0  0  0  0  0
   42.3137    2.5448   12.4577 H   0  0  0  0  0  0  0  0  0  0  0  0
   45.9058    4.0644   11.2175 H   0  0  0  0  0  0  0  0  0  0  0  0
   43.6644    7.3207   11.7958 H   0  0  0  0  0  0  0  0  0  0  0  0
   46.1552    5.3648   13.8420 H   0  0  0  0  0  0  0  0  0  0  0  0
   47.3284    5.4124   12.5322 H   0  0  0  0  0  0  0  0  0  0  0  0
   45.7926    6.6642   11.0791 H   0  0  0  0  0  0  0  0  0  0  0  0
   45.9346    7.4969   12.6266 H   0  0  0  0  0  0  0  0  0  0  0  0
   44.0636    3.9858   13.5075 H   0  0  0  0  0  0  0  0  0  0  0  0
   43.8756    3.1354   11.9792 H   0  0  0  0  0  0  0  0  0  0  0  0
   42.4866    5.2216   12.0796 H   0  0  0  0  0  0  0  0  0  0  0  0
   43.6252    5.2366   10.7342 H   0  0  0  0  0  0  0  0  0  0  0  0
   43.1035    3.8946   12.6319 H   0  0  0  0  0  0  0  0  0  0  0  0
   43.4328    5.4726   13.3451 H   0  0  0  0  0  0  0  0  0  0  0  0
   46.8018    5.5578   11.1861 H   0  0  0  0  0  0  0  0  0  0  0  0
   45.3115    6.1916   10.5744 H   0  0  0  0  0  0  0  0  0  0  0  0
   46.1487    3.2028   11.4491 H   0  0  0  0  0  0  0  0  0  0  0  0
   47.2432    3.4870   14.2202 H   0  0  0  0  0  0  0  0  0  0  0  0
   42.3832    5.5795    9.5580 H   0  0  0  0  0  0  0  0  0  0  0  0
   45.0381    8.4406   13.2192 H   0  0  0  0  0  0  0  0  0  0  0  0
   46.4252    4.7041   11.4026 H   0  0  0  0  0  0  0  0  0  0  0  0
   44.3124    5.1547   10.4524 H   0  0  0  0  0  0  0  0  0  0  0  0
   45.0552    3.8820   13.8435 H   0  0  0  0  0  0  0  0  0  0  0  0
   45.2032    3.0414   12.3057 H   0  0  0  0  0  0  0  0  0  0  0  0
   43.2014    5.0835   13.1626 H   0  0  0  0  0  0  0  0  0  0  0  0
   43.0531    3.8027   11.9664 H   0  0  0  0  0  0  0  0  0  0  0  0
   45.6827    6.4661   13.6220 H   0  0  0  0  0  0  0  0  0  0  0  0
   46.7739    6.8853   12.3092 H   0  0  0  0  0  0  0  0  0  0  0  0
   44.0838    7.4327   12.2622 H   0  0  0  0  0  0  0  0  0  0  0  0
   45.0596    7.2498   10.8106 H   0  0  0  0  0  0  0  0  0  0  0  0
   43.6888    6.6319   13.0137 H   0  0  0  0  0  0  0  0  0  0  0  0
   46.0965    4.0943   11.3714 H   0  0  0  0  0  0  0  0  0  0  0  0
   46.0578    6.7154   11.2819 H   0  0  0  0  0  0  0  0  0  0  0  0
   45.8636    7.4974   12.8460 H   0  0  0  0  0  0  0  0  0  0  0  0
   47.1849    5.3714   13.0133 H   0  0  0  0  0  0  0  0  0  0  0  0
   45.7369    5.3291   14.0104 H   0  0  0  0  0  0  0  0  0  0  0  0
   44.0494    5.3964   10.3746 H   0  0  0  0  0  0  0  0  0  0  0  0
   42.6012    5.3553   11.3725 H   0  0  0  0  0  0  0  0  0  0  0  0
   43.7285    4.0122   13.1043 H   0  0  0  0  0  0  0  0  0  0  0  0
   43.9211    3.2276   11.5406 H   0  0  0  0  0  0  0  0  0  0  0  0
  3  2  1  0
  4  2  1  0
  5  2  1  0
  6  4  1  0
  7  3  1  0
  8  5  2  0
  9  7  2  0
 10  6  2  0
 11  2  1  0
 12  5  1  0
 13  7  1  0
 14  6  1  0
 16 20  1  0
 17 15  1  0
 18 17  1  0
 19 15  1  0
 20 19  1  0
 16 18  1  0
 22 21  1  0
 23 21  1  0
 24 21  1  0
 25 23  1  0
 26 22  1  0
 27 24  2  0
 28 26  2  0
 29 25  2  0
 30 21  1  0
 31 24  1  0
 32 26  1  0
 33 25  1  0
 35 39  1  0
 36 34  1  0
 37 36  1  0
 38 34  1  0
 39 38  1  0
 35 37  1  0
 41 45  1  0
 42 40  1  0
 43 42  1  0
 44 40  1  0
 45 44  1  0
 41 43  1  0
  1 46  1  0
  1 47  1  0
  3 48  1  0
  3 49  1  0
  4 50  1  0
  4 51  1  0
 11 52  1  0
 12 53  1  0
 13 54  1  0
 14 55  1  0
 15 56  1  0
 16 57  1  0
 17 58  1  0
 17 59  1  0
 18 60  1  0
 18 61  1  0
 19 62  1  0
 19 63  1  0
 20 64  1  0
 20 65  1  0
 22 66  1  0
 22 67  1  0
 23 68  1  0
 23 69  1  0
 30 70  1  0
 31 71  1  0
 32 72  1  0
 33 73  1  0
 34 74  1  0
 35 75  1  0
 36 76  1  0
 36 77  1  0
 37 78  1  0
 37 79  1  0
 38 80  1  0
 38 81  1  0
 39 82  1  0
 39 83  1  0
 40 84  1  0
 41 85  1  0
 42 86  1  0
 42 87  1  0
 43 88  1  0
 43 89  1  0
 44 90  1  0
 44 91  1  0
 45 92  1  0
 45 93  1  0
M  END
> <Uni-Dock RESULT> 
ENERGY=   -8.160  LOWER_BOUND=    0.937  UPPER_BOUND=    2.499
INTER + INTRA:          -8.160
INTER:                  -8.160
INTRA:                   0.000
UNBOUND:                 0.000

$$$$

     RDKit          3D

 93 90  0  0  0  0  0  0  0  0999 V2000
   44.8338    4.6811   12.1642 O   0  0  0  0  0  0  0  0  0  0  0  0
   44.8003    5.5823   12.2151 C   0  0  0  0  0  0  0  0  0  0  0  0
   46.2457    5.0857   12.2915 C   0  0  0  0  0  0  0  0  0  0  0  0
   44.4377    6.1534   10.8413 C   0  0  0  0  0  0  0  0  0  0  0  0
   43.7849    4.4949   12.5871 C   0  0  0  0  0  0  0  0  0  0  0  0
   44.5806    5.1660    9.7220 C   0  0  0  0  0  0  0  0  0  0  0  0
   46.6899    4.7959   13.6972 C   0  0  0  0  0  0  0  0  0  0  0  0
   42.8811    4.6486   13.3974 O   0  0  0  0  0  0  0  0  0  0  0  0
   47.6615    5.2728   14.2596 O   0  0  0  0  0  0  0  0  0  0  0  0
   45.6251    4.7057    9.2953 O   0  0  0  0  0  0  0  0  0  0  0  0
   44.6574    6.6922   13.1316 O   0  0  0  0  0  0  0  0  0  0  0  0
   43.9281    3.3353   11.9255 O   0  0  0  0  0  0  0  0  0  0  0  0
   45.9418    3.8648   14.3186 O   0  0  0  0  0  0  0  0  0  0  0  0
   43.3997    4.8042    9.1901 O   0  0  0  0  0  0  0  0  0  0  0  0
   44.3706    6.3586   11.4459 N   0  0  0  0  0  0  0  0  0  0  0  0
   45.5339    3.8082   12.4218 N   0  0  0  0  0  0  0  0  0  0  0  0
   45.4738    6.3201   12.4242 C   0  0  0  0  0  0  0  0  0  0  0  0
   45.4942    5.0183   13.2548 C   0  0  0  0  0  0  0  0  0  0  0  0
   44.4531    5.1549   10.5974 C   0  0  0  0  0  0  0  0  0  0  0  0
   44.4665    3.8440   11.4128 C   0  0  0  0  0  0  0  0  0  0  0  0
   44.5650    5.5006   11.5901 C   0  0  0  0  0  0  0  0  0  0  0  0
   44.8111    4.1761   10.8519 C   0  0  0  0  0  0  0  0  0  0  0  0
   44.5939    5.4415   13.1196 C   0  0  0  0  0  0  0  0  0  0  0  0
   45.6279    6.5161   11.1283 C   0  0  0  0  0  0  0  0  0  0  0  0
   45.9709    5.2163   13.6672 C   0  0  0  0  0  0  0  0  0  0  0  0
   44.1415    2.9603   11.4282 C   0  0  0  0  0  0  0  0  0  0  0  0
   46.7800    6.2925   10.7990 O   0  0  0  0  0  0  0  0  0  0  0  0
   44.6473    1.8522   11.5190 O   0  0  0  0  0  0  0  0  0  0  0  0
   46.6837    6.0632   14.1767 O   0  0  0  0  0  0  0  0  0  0  0  0
   43.2773    6.0094   11.1793 O   0  0  0  0  0  0  0  0  0  0  0  0
   45.1562    7.7862   11.1580 O   0  0  0  0  0  0  0  0  0  0  0  0
   42.8582    3.1384   11.7783 O   0  0  0  0  0  0  0  0  0  0  0  0
   46.3802    3.9459   13.5332 O   0  0  0  0  0  0  0  0  0  0  0  0
   44.9198    6.4689   12.1973 N   0  0  0  0  0  0  0  0  0  0  0  0
   44.1200    3.8141   12.0704 N   0  0  0  0  0  0  0  0  0  0  0  0
   44.7755    5.9114   10.8375 C   0  0  0  0  0  0  0  0  0  0  0  0
   44.5802    4.3757   10.7885 C   0  0  0  0  0  0  0  0  0  0  0  0
   45.7297    5.5475   13.0124 C   0  0  0  0  0  0  0  0  0  0  0  0
   45.1107    4.1317   13.1189 C   0  0  0  0  0  0  0  0  0  0  0  0
   45.3711    3.7516   12.5864 N   0  0  0  0  0  0  0  0  0  0  0  0
   44.4447    6.3116   11.3958 N   0  0  0  0  0  0  0  0  0  0  0  0
   45.6096    5.0523   13.2358 C   0  0  0  0  0  0  0  0  0  0  0  0
   45.6533    6.2264   12.2345 C   0  0  0  0  0  0  0  0  0  0  0  0
   44.1625    3.8370   11.7481 C   0  0  0  0  0  0  0  0  0  0  0  0
   44.2067    5.0108   10.7461 C   0  0  0  0  0  0  0  0  0  0  0  0
   45.3799    5.4081   12.4995 H   0  0  0  0  0  0  0  0  0  0  0  0
   44.5109    5.0054   11.3099 H   0  0  0  0  0  0  0  0  0  0  0  0
   46.9210    5.8620   11.9094 H   0  0  0  0  0  0  0  0  0  0  0  0
   46.4178    4.1803   11.7004 H   0  0  0  0  0  0  0  0  0  0  0  0
   43.4100    6.5401   10.8512 H   0  0  0  0  0  0  0  0  0  0  0  0
   45.0609    7.0232   10.6015 H   0  0  0  0  0  0  0  0  0  0  0  0
   43.8414    6.5332   13.6501 H   0  0  0  0  0  0  0  0  0  0  0  0
   43.2288    2.7553   12.2952 H   0  0  0  0  0  0  0  0  0  0  0  0
   46.3708    3.7778   15.1977 H   0  0  0  0  0  0  0  0  0  0  0  0
   43.6383    4.1675    8.4834 H   0  0  0  0  0  0  0  0  0  0  0  0
   43.4923    6.3191   11.9619 H   0  0  0  0  0  0  0  0  0  0  0  0
   45.4249    2.9827   13.0084 H   0  0  0  0  0  0  0  0  0  0  0  0
   46.4286    6.4434   11.8981 H   0  0  0  0  0  0  0  0  0  0  0  0
   45.3736    7.1777   13.0989 H   0  0  0  0  0  0  0  0  0  0  0  0
   44.6089    4.9851   13.9021 H   0  0  0  0  0  0  0  0  0  0  0  0
   46.3715    5.0233   13.9110 H   0  0  0  0  0  0  0  0  0  0  0  0
   45.3514    5.2135    9.9705 H   0  0  0  0  0  0  0  0  0  0  0  0
   43.5944    5.1476    9.9169 H   0  0  0  0  0  0  0  0  0  0  0  0
   44.5988    2.9977   10.7299 H   0  0  0  0  0  0  0  0  0  0  0  0
   43.4949    3.7103   11.9049 H   0  0  0  0  0  0  0  0  0  0  0  0
   44.4839    4.2556    9.8075 H   0  0  0  0  0  0  0  0  0  0  0  0
   45.8836    3.9456   10.8331 H   0  0  0  0  0  0  0  0  0  0  0  0
   44.2329    6.3919   13.5367 H   0  0  0  0  0  0  0  0  0  0  0  0
   43.9121    4.6908   13.5315 H   0  0  0  0  0  0  0  0  0  0  0  0
   43.2971    6.9749   11.3399 H   0  0  0  0  0  0  0  0  0  0  0  0
   45.9254    8.3301   10.8783 H   0  0  0  0  0  0  0  0  0  0  0  0
   42.5551    2.2484   12.0564 H   0  0  0  0  0  0  0  0  0  0  0  0
   47.2893    3.9264   13.9032 H   0  0  0  0  0  0  0  0  0  0  0  0
   43.9915    6.5062   12.6168 H   0  0  0  0  0  0  0  0  0  0  0  0
   43.2495    4.2866   12.3125 H   0  0  0  0  0  0  0  0  0  0  0  0
   45.6548    6.1837   10.2420 H   0  0  0  0  0  0  0  0  0  0  0  0
   43.9142    6.4014   10.3682 H   0  0  0  0  0  0  0  0  0  0  0  0
   45.5237    3.8911   10.5078 H   0  0  0  0  0  0  0  0  0  0  0  0
   43.8539    4.1246   10.0072 H   0  0  0  0  0  0  0  0  0  0  0  0
   46.7350    5.4801   12.5783 H   0  0  0  0  0  0  0  0  0  0  0  0
   45.8505    5.9703   14.0162 H   0  0  0  0  0  0  0  0  0  0  0  0
   45.9119    3.3840   13.0963 H   0  0  0  0  0  0  0  0  0  0  0  0
   44.6107    4.0273   14.0891 H   0  0  0  0  0  0  0  0  0  0  0  0
   46.1634    3.5625   11.9707 H   0  0  0  0  0  0  0  0  0  0  0  0
   43.6527    6.5000   12.0118 H   0  0  0  0  0  0  0  0  0  0  0  0
   44.8269    5.2299   13.9837 H   0  0  0  0  0  0  0  0  0  0  0  0
   46.5598    5.0047   13.7790 H   0  0  0  0  0  0  0  0  0  0  0  0
   45.7669    7.1670   12.7844 H   0  0  0  0  0  0  0  0  0  0  0  0
   46.5342    6.1318   11.5877 H   0  0  0  0  0  0  0  0  0  0  0  0
   43.2816    3.9319   12.3950 H   0  0  0  0  0  0  0  0  0  0  0  0
   44.0502    2.8961   11.1987 H   0  0  0  0  0  0  0  0  0  0  0  0
   44.9909    4.8330   10.0000 H   0  0  0  0  0  0  0  0  0  0  0  0
   43.2570    5.0581   10.2016 H   0  0  0  0  0  0  0  0  0  0  0  0
  3  2  1  0
  4  2  1  0
  5  2  1  0
  6  4  1  0
  7  3  1  0
  8  5  2  0
  9  7  2  0
 10  6  2  0
 11  2  1  0
 12  5  1  0
 13  7  1  0
 14  6  1  0
 16 20  1  0
 17 15  1  0
 18 17  1  0
 19 15  1  0
 20 19  1  0
 16 18  1  0
 22 21  1  0
 23 21  1  0
 24 21  1  0
 25 23  1  0
 26 22  1  0
 27 24  2  0
 28 26  2  0
 29 25  2  0
 30 21  1  0
 31 24  1  0
 32 26  1  0
 33 25  1  0
 35 39  1  0
 36 34  1  0
 37 36  1  0
 38 34  1  0
 39 38  1  0
 35 37  1  0
 41 45  1  0
 42 40  1  0
 43 42  1  0
 44 40  1  0
 45 44  1  0
 41 43  1  0
  1 46  1  0
  1 47  1  0
  3 48  1  0
  3 49  1  0
  4 50  1  0
  4 51  1  0
 11 52  1  0
 12 53  1  0
 13 54  1  0
 14 55  1  0
 15 56  1  0
 16 57  1  0
 17 58  1  0
 17 59  1  0
 18 60  1  0
 18 61  1  0
 19 62  1  0
 19 63  1  0
 20 64  1  0
 20 65  1  0
 22 66  1  0
 22 67  1  0
 23 68  1  0
 23 69  1  0
 30 70  1  0
 31 71  1  0
 32 72  1  0
 33 73  1  0
 34 74  1  0
 35 75  1  0
 36 76  1  0
 36 77  1  0
 37 78  1  0
 37 79  1  0
 38 80  1  0
 38 81  1  0
 39 82  1  0
 39 83  1  0
 40 84  1  0
 41 85  1  0
 42 86  1  0
 42 87  1  0
 43 88  1  0
 43 89  1  0
 44 90  1  0
 44 91  1  0
 45 92  1  0
 45 93  1  0
M  END
> <Uni-Dock RESULT> 
ENERGY=   -7.273  LOWER_BOUND=    1.023  UPPER_BOUND=    2.977
INTER + INTRA:          -7.273
INTER:                  -7.273
INTRA:                   0.000
UNBOUND:                 0.000

$$$$

     RDKit          3D

 93 90  0  0  0  0  0  0  0  0999 V2000
   44.7159    5.1297   11.4372 O   0  0  0  0  0  0  0  0  0  0  0  0
   43.8504    5.1776   11.1832 C   0  0  0  0  0  0  0  0  0  0  0  0
   43.9993    4.3407   12.4556 C   0  0  0  0  0  0  0  0  0  0  0  0
   43.3205    6.5883   11.4557 C   0  0  0  0  0  0  0  0  0  0  0  0
   45.1596    5.2809   10.3912 C   0  0  0  0  0  0  0  0  0  0  0  0
   44.1980    7.3958   12.3647 C   0  0  0  0  0  0  0  0  0  0  0  0
   44.2382    2.8847   12.1722 C   0  0  0  0  0  0  0  0  0  0  0  0
   45.2560    5.0540    9.1927 O   0  0  0  0  0  0  0  0  0  0  0  0
   43.5728    1.9503   12.5867 O   0  0  0  0  0  0  0  0  0  0  0  0
   44.3833    7.1966   13.5525 O   0  0  0  0  0  0  0  0  0  0  0  0
   42.8452    4.5544   10.3505 O   0  0  0  0  0  0  0  0  0  0  0  0
   46.2241    5.6808   11.1052 O   0  0  0  0  0  0  0  0  0  0  0  0
   45.3440    2.6516   11.4404 O   0  0  0  0  0  0  0  0  0  0  0  0
   44.8018    8.4192   11.7350 O   0  0  0  0  0  0  0  0  0  0  0  0
   43.1631    6.1198   11.0461 N   0  0  0  0  0  0  0  0  0  0  0  0
   45.4119    4.4824   12.0814 N   0  0  0  0  0  0  0  0  0  0  0  0
   42.9857    4.7189   11.4724 C   0  0  0  0  0  0  0  0  0  0  0  0
   44.2816    3.8872   11.3548 C   0  0  0  0  0  0  0  0  0  0  0  0
   44.2765    6.7072   11.8147 C   0  0  0  0  0  0  0  0  0  0  0  0
   45.5822    5.8913   11.7011 C   0  0  0  0  0  0  0  0  0  0  0  0
   43.9575    5.8266   11.3245 C   0  0  0  0  0  0  0  0  0  0  0  0
   45.1549    6.2267   12.1998 C   0  0  0  0  0  0  0  0  0  0  0  0
   44.0745    4.4932   10.5816 C   0  0  0  0  0  0  0  0  0  0  0  0
   42.7032    5.7706   12.2178 C   0  0  0  0  0  0  0  0  0  0  0  0
   43.9961    3.3085   11.4966 C   0  0  0  0  0  0  0  0  0  0  0  0
   46.5171    5.9691   11.6195 C   0  0  0  0  0  0  0  0  0  0  0  0
   42.6377    5.4530   13.3928 O   0  0  0  0  0  0  0  0  0  0  0  0
   47.4796    5.5437   12.2395 O   0  0  0  0  0  0  0  0  0  0  0  0
   43.0292    2.5809   11.6410 O   0  0  0  0  0  0  0  0  0  0  0  0
   43.7456    6.8721   10.3511 O   0  0  0  0  0  0  0  0  0  0  0  0
   41.5806    6.0887   11.5286 O   0  0  0  0  0  0  0  0  0  0  0  0
   46.6584    6.3313   10.3349 O   0  0  0  0  0  0  0  0  0  0  0  0
   45.1291    3.1116   12.1872 O   0  0  0  0  0  0  0  0  0  0  0  0
   42.9604    5.2060   11.0947 N   0  0  0  0  0  0  0  0  0  0  0  0
   45.7205    5.4990   11.0844 N   0  0  0  0  0  0  0  0  0  0  0  0
   43.4768    6.4009   11.7922 C   0  0  0  0  0  0  0  0  0  0  0  0
   45.0121    6.4144   11.9959 C   0  0  0  0  0  0  0  0  0  0  0  0
   43.7021    4.0203   11.5566 C   0  0  0  0  0  0  0  0  0  0  0  0
   45.2264    4.1242   11.3023 C   0  0  0  0  0  0  0  0  0  0  0  0
   45.5120    4.4186   11.8747 N   0  0  0  0  0  0  0  0  0  0  0  0
   43.1893    6.1215   11.1436 N   0  0  0  0  0  0  0  0  0  0  0  0
   44.2208    3.8480   11.4528 C   0  0  0  0  0  0  0  0  0  0  0  0
   43.0267    4.7835   11.7391 C   0  0  0  0  0  0  0  0  0  0  0  0
   45.6743    5.7563   11.2791 C   0  0  0  0  0  0  0  0  0  0  0  0
   44.4803    6.6920   11.5661 C   0  0  0  0  0  0  0  0  0  0  0  0
   43.8969    4.6260   11.5585 H   0  0  0  0  0  0  0  0  0  0  0  0
   44.4390    6.0536   11.5325 H   0  0  0  0  0  0  0  0  0  0  0  0
   43.0712    4.3922   13.0393 H   0  0  0  0  0  0  0  0  0  0  0  0
   44.8131    4.6865   13.1013 H   0  0  0  0  0  0  0  0  0  0  0  0
   43.1848    7.1309   10.5108 H   0  0  0  0  0  0  0  0  0  0  0  0
   42.3199    6.5516   11.9027 H   0  0  0  0  0  0  0  0  0  0  0  0
   43.2123    4.5080    9.4432 H   0  0  0  0  0  0  0  0  0  0  0  0
   46.9665    5.6683   10.4643 H   0  0  0  0  0  0  0  0  0  0  0  0
   45.3666    1.6726   11.3678 H   0  0  0  0  0  0  0  0  0  0  0  0
   45.3340    8.8531   12.4351 H   0  0  0  0  0  0  0  0  0  0  0  0
   43.4285    6.1169   10.0618 H   0  0  0  0  0  0  0  0  0  0  0  0
   46.2647    3.9652   11.8750 H   0  0  0  0  0  0  0  0  0  0  0  0
   42.6206    4.6988   12.5068 H   0  0  0  0  0  0  0  0  0  0  0  0
   42.2051    4.2610   10.8545 H   0  0  0  0  0  0  0  0  0  0  0  0
   44.5483    3.7756   10.2964 H   0  0  0  0  0  0  0  0  0  0  0  0
   44.1008    2.8807   11.7480 H   0  0  0  0  0  0  0  0  0  0  0  0
   43.9830    6.7969   12.8679 H   0  0  0  0  0  0  0  0  0  0  0  0
   44.4543    7.7250   11.4499 H   0  0  0  0  0  0  0  0  0  0  0  0
   46.3439    6.3411   12.3473 H   0  0  0  0  0  0  0  0  0  0  0  0
   45.9598    5.9483   10.6724 H   0  0  0  0  0  0  0  0  0  0  0  0
   45.1087    7.2958   12.4429 H   0  0  0  0  0  0  0  0  0  0  0  0
   45.1281    5.6820   13.1518 H   0  0  0  0  0  0  0  0  0  0  0  0
   43.2534    4.3960    9.8578 H   0  0  0  0  0  0  0  0  0  0  0  0
   44.9806    4.4215    9.9717 H   0  0  0  0  0  0  0  0  0  0  0  0
   42.8099    6.8042   10.0712 H   0  0  0  0  0  0  0  0  0  0  0  0
   40.8608    5.9854   12.1897 H   0  0  0  0  0  0  0  0  0  0  0  0
   47.6057    6.1717   10.1389 H   0  0  0  0  0  0  0  0  0  0  0  0
   44.9521    2.3330   12.7583 H   0  0  0  0  0  0  0  0  0  0  0  0
   43.1587    5.3176   10.1010 H   0  0  0  0  0  0  0  0  0  0  0  0
   45.4748    5.7699   10.1326 H   0  0  0  0  0  0  0  0  0  0  0  0
   42.9815    6.4908   12.7661 H   0  0  0  0  0  0  0  0  0  0  0  0
   43.1812    7.2797   11.2069 H   0  0  0  0  0  0  0  0  0  0  0  0
   45.2508    6.1387   13.0307 H   0  0  0  0  0  0  0  0  0  0  0  0
   45.3914    7.4316   11.8467 H   0  0  0  0  0  0  0  0  0  0  0  0
   43.5145    3.8799   12.6284 H   0  0  0  0  0  0  0  0  0  0  0  0
   43.3068    3.1321   11.0511 H   0  0  0  0  0  0  0  0  0  0  0  0
   45.7651    3.6769   12.1457 H   0  0  0  0  0  0  0  0  0  0  0  0
   45.4865    3.5347   10.4152 H   0  0  0  0  0  0  0  0  0  0  0  0
   45.4843    4.5316   12.8891 H   0  0  0  0  0  0  0  0  0  0  0  0
   43.2175    6.0080   10.1295 H   0  0  0  0  0  0  0  0  0  0  0  0
   44.2631    3.6157   10.3815 H   0  0  0  0  0  0  0  0  0  0  0  0
   44.0692    2.8975   11.9759 H   0  0  0  0  0  0  0  0  0  0  0  0
   42.1102    4.3316   11.3441 H   0  0  0  0  0  0  0  0  0  0  0  0
   42.8853    4.8863   12.8220 H   0  0  0  0  0  0  0  0  0  0  0  0
   45.8156    5.6535   10.1960 H   0  0  0  0  0  0  0  0  0  0  0  0
   46.5909    6.2070   11.6749 H   0  0  0  0  0  0  0  0  0  0  0  0
   44.4380    6.9221   12.6379 H   0  0  0  0  0  0  0  0  0  0  0  0
   44.6322    7.6434   11.0441 H   0  0  0  0  0  0  0  0  0  0  0  0
  3  2  1  0
  4  2  1  0
  5  2  1  0
  6  4  1  0
  7  3  1  0
  8  5  2  0
  9  7  2  0
 10  6  2  0
 11  2  1  0
 12  5  1  0
 13  7  1  0
 14  6  1  0
 16 20  1  0
 17 15  1  0
 18 17  1  0
 19 15  1  0
 20 19  1  0
 16 18  1  0
 22 21  1  0
 23 21  1  0
 24 21  1  0
 25 23  1  0
 26 22  1  0
 27 24  2  0
 28 26  2  0
 29 25  2  0
 30 21  1  0
 31 24  1  0
 32 26  1  0
 33 25  1  0
 35 39  1  0
 36 34  1  0
 37 36  1  0
 38 34  1  0
 39 38  1  0
 35 37  1  0
 41 45  1  0
 42 40  1  0
 43 42  1  0
 44 40  1  0
 45 44  1  0
 41 43  1  0
  1 46  1  0
  1 47  1  0
  3 48  1  0
  3 49  1  0
  4 50  1  0
  4 51  1  0
 11 52  1  0
 12 53  1  0
 13 54  1  0
 14 55  1  0
 15 56  1  0
 16 57  1  0
 17 58  1  0
 17 59  1  0
 18 60  1  0
 18 61  1  0
 19 62  1  0
 19 63  1  0
 20 64  1  0
 20 65  1  0
 22 66  1  0
 22 67  1  0
 23 68  1  0
 23 69  1  0
 30 70  1  0
 31 71  1  0
 32 72  1  0
 33 73  1  0
 34 74  1  0
 35 75  1  0
 36 76  1  0
 36 77  1  0
 37 78  1  0
 37 79  1  0
 38 80  1  0
 38 81  1  0
 39 82  1  0
 39 83  1  0
 40 84  1  0
 41 85  1  0
 42 86  1  0
 42 87  1  0
 43 88  1  0
 43 89  1  0
 44 90  1  0
 44 91  1  0
 45 92  1  0
 45 93  1  0
M  END
> <Uni-Dock RESULT> 
ENERGY=   -7.092  LOWER_BOUND=    1.303  UPPER_BOUND=    2.397
INTER + INTRA:          -7.092
INTER:                  -7.092
INTRA:                   0.000
UNBOUND:                 0.000

$$$$

     RDKit          3D

 93 90  0  0  0  0  0  0  0  0999 V2000
   47.4197   11.1356   20.1597 O   0  0  0  0  0  0  0  0  0  0  0  0
   47.3277   11.3234   19.2809 C   0  0  0  0  0  0  0  0  0  0  0  0
   48.4316   12.1777   19.9079 C   0  0  0  0  0  0  0  0  0  0  0  0
   47.8740   10.1557   18.4543 C   0  0  0  0  0  0  0  0  0  0  0  0
   46.3426   10.7791   20.3228 C   0  0  0  0  0  0  0  0  0  0  0  0
   48.7176    9.2011   19.2450 C   0  0  0  0  0  0  0  0  0  0  0  0
   47.9189   13.4727   20.4710 C   0  0  0  0  0  0  0  0  0  0  0  0
   45.1261   10.8724   20.2310 O   0  0  0  0  0  0  0  0  0  0  0  0
   48.3131   14.5907   20.1840 O   0  0  0  0  0  0  0  0  0  0  0  0
   49.8181    9.4304   19.7154 O   0  0  0  0  0  0  0  0  0  0  0  0
   46.6052   12.1458   18.3355 O   0  0  0  0  0  0  0  0  0  0  0  0
   46.9091   10.1426   21.3605 O   0  0  0  0  0  0  0  0  0  0  0  0
   46.9826   13.3133   21.4254 O   0  0  0  0  0  0  0  0  0  0  0  0
   48.1359    7.9994   19.4060 O   0  0  0  0  0  0  0  0  0  0  0  0
   47.4387   10.6160   18.3503 N   0  0  0  0  0  0  0  0  0  0  0  0
   47.8416   11.5994   21.1216 N   0  0  0  0  0  0  0  0  0  0  0  0
   47.6977   12.0364   18.6515 C   0  0  0  0  0  0  0  0  0  0  0  0
   47.2480   12.4402   20.0726 C   0  0  0  0  0  0  0  0  0  0  0  0
   48.0752    9.7908   19.3941 C   0  0  0  0  0  0  0  0  0  0  0  0
   47.6297   10.1770   20.8209 C   0  0  0  0  0  0  0  0  0  0  0  0
   47.5340   10.6847   19.2339 C   0  0  0  0  0  0  0  0  0  0  0  0
   48.2350   10.0219   20.4295 C   0  0  0  0  0  0  0  0  0  0  0  0
   46.6103   11.8624   19.5554 C   0  0  0  0  0  0  0  0  0  0  0  0
   48.6148   11.1759   18.2515 C   0  0  0  0  0  0  0  0  0  0  0  0
   47.3581   13.0865   19.9904 C   0  0  0  0  0  0  0  0  0  0  0  0
   47.3990    9.8227   21.6624 C   0  0  0  0  0  0  0  0  0  0  0  0
   49.7302   11.5904   18.5157 O   0  0  0  0  0  0  0  0  0  0  0  0
   47.7810    9.9952   22.8097 O   0  0  0  0  0  0  0  0  0  0  0  0
   47.5685   14.0743   19.3084 O   0  0  0  0  0  0  0  0  0  0  0  0
   46.7607    9.6736   18.5518 O   0  0  0  0  0  0  0  0  0  0  0  0
   48.1786   11.1470   16.9688 O   0  0  0  0  0  0  0  0  0  0  0  0
   46.1696    9.3348   21.4350 O   0  0  0  0  0  0  0  0  0  0  0  0
   47.8101   12.9969   21.2502 O   0  0  0  0  0  0  0  0  0  0  0  0
   47.3987   11.5498   18.4182 N   0  0  0  0  0  0  0  0  0  0  0  0
   46.9515   10.4617   20.9321 N   0  0  0  0  0  0  0  0  0  0  0  0
   48.1502   10.3151   18.7208 C   0  0  0  0  0  0  0  0  0  0  0  0
   48.0858    9.8688   20.2026 C   0  0  0  0  0  0  0  0  0  0  0  0
   47.5627   12.4990   19.5325 C   0  0  0  0  0  0  0  0  0  0  0  0
   47.0654   11.9336   20.8860 C   0  0  0  0  0  0  0  0  0  0  0  0
   47.6140   11.6147   21.1910 N   0  0  0  0  0  0  0  0  0  0  0  0
   47.5295   10.6143   18.3943 N   0  0  0  0  0  0  0  0  0  0  0  0
   47.3488   12.5031   20.0461 C   0  0  0  0  0  0  0  0  0  0  0  0
   47.9596   11.9839   18.7268 C   0  0  0  0  0  0  0  0  0  0  0  0
   47.1838   10.2454   20.8584 C   0  0  0  0  0  0  0  0  0  0  0  0
   47.7954    9.7260   19.5393 C   0  0  0  0  0  0  0  0  0  0  0  0
   47.6120   11.8649   19.5512 H   0  0  0  0  0  0  0  0  0  0  0  0
   47.6842   10.3438   19.6674 H   0  0  0  0  0  0  0  0  0  0  0  0
   49.1683   12.4464   19.1400 H   0  0  0  0  0  0  0  0  0  0  0  0
   48.9675   11.6608   20.7107 H   0  0  0  0  0  0  0  0  0  0  0  0
   47.0480    9.6038   17.9866 H   0  0  0  0  0  0  0  0  0  0  0  0
   48.4780   10.5189   17.6143 H   0  0  0  0  0  0  0  0  0  0  0  0
   45.6503   12.0108   18.5086 H   0  0  0  0  0  0  0  0  0  0  0  0
   46.1539    9.8866   21.9316 H   0  0  0  0  0  0  0  0  0  0  0  0
   46.7768   14.2339   21.6982 H   0  0  0  0  0  0  0  0  0  0  0  0
   48.7854    7.4853   19.9312 H   0  0  0  0  0  0  0  0  0  0  0  0
   46.4320   10.4632   18.4001 H   0  0  0  0  0  0  0  0  0  0  0  0
   47.4236   11.8263   22.0224 H   0  0  0  0  0  0  0  0  0  0  0  0
   48.7675   12.2441   18.5243 H   0  0  0  0  0  0  0  0  0  0  0  0
   47.1682   12.6525   17.9161 H   0  0  0  0  0  0  0  0  0  0  0  0
   46.1541   12.3850   20.1381 H   0  0  0  0  0  0  0  0  0  0  0  0
   47.5281   13.4833   20.2565 H   0  0  0  0  0  0  0  0  0  0  0  0
   49.1656    9.8744   19.3083 H   0  0  0  0  0  0  0  0  0  0  0  0
   47.8248    8.7401   19.2100 H   0  0  0  0  0  0  0  0  0  0  0  0
   48.1890    9.5764   21.5466 H   0  0  0  0  0  0  0  0  0  0  0  0
   46.5683    9.9309   20.9510 H   0  0  0  0  0  0  0  0  0  0  0  0
   48.6233    9.0359   20.1446 H   0  0  0  0  0  0  0  0  0  0  0  0
   49.0957   10.6239   20.7464 H   0  0  0  0  0  0  0  0  0  0  0  0
   46.0327   12.1383   18.6622 H   0  0  0  0  0  0  0  0  0  0  0  0
   45.8492   11.6173   20.3028 H   0  0  0  0  0  0  0  0  0  0  0  0
   46.6399    9.9902   17.6334 H   0  0  0  0  0  0  0  0  0  0  0  0
   48.9342   11.5084   16.4546 H   0  0  0  0  0  0  0  0  0  0  0  0
   45.7935    9.1940   22.3294 H   0  0  0  0  0  0  0  0  0  0  0  0
   48.2937   13.8357   21.4120 H   0  0  0  0  0  0  0  0  0  0  0  0
   46.4098   11.3070   18.3719 H   0  0  0  0  0  0  0  0  0  0  0  0
   46.1014   10.2004   20.4335 H   0  0  0  0  0  0  0  0  0  0  0  0
   49.1982   10.4513   18.4289 H   0  0  0  0  0  0  0  0  0  0  0  0
   47.7478    9.5181   18.0845 H   0  0  0  0  0  0  0  0  0  0  0  0
   49.0175   10.1433   20.7128 H   0  0  0  0  0  0  0  0  0  0  0  0
   48.0109    8.7766   20.2521 H   0  0  0  0  0  0  0  0  0  0  0  0
   48.6222   12.7724   19.6126 H   0  0  0  0  0  0  0  0  0  0  0  0
   47.0188   13.4213   19.2994 H   0  0  0  0  0  0  0  0  0  0  0  0
   47.7355   12.2687   21.6861 H   0  0  0  0  0  0  0  0  0  0  0  0
   46.0758   12.3492   21.1102 H   0  0  0  0  0  0  0  0  0  0  0  0
   48.6238   11.5951   21.3409 H   0  0  0  0  0  0  0  0  0  0  0  0
   46.5199   10.6342   18.2452 H   0  0  0  0  0  0  0  0  0  0  0  0
   46.2650   12.6275   19.9308 H   0  0  0  0  0  0  0  0  0  0  0  0
   47.7582   13.4946   20.2686 H   0  0  0  0  0  0  0  0  0  0  0  0
   47.6719   12.6517   17.9074 H   0  0  0  0  0  0  0  0  0  0  0  0
   49.0545   12.0128   18.7864 H   0  0  0  0  0  0  0  0  0  0  0  0
   46.0888   10.2165   20.7985 H   0  0  0  0  0  0  0  0  0  0  0  0
   47.4722    9.5788   21.6783 H   0  0  0  0  0  0  0  0  0  0  0  0
   48.8793    9.6037   19.6552 H   0  0  0  0  0  0  0  0  0  0  0  0
   47.3872    8.7337   19.3169 H   0  0  0  0  0  0  0  0  0  0  0  0
  3  2  1  0
  4  2  1  0
  5  2  1  0
  6  4  1  0
  7  3  1  0
  8  5  2  0
  9  7  2  0
 10  6  2  0
 11  2  1  0
 12  5  1  0
 13  7  1  0
 14  6  1  0
 16 20  1  0
 17 15  1  0
 18 17  1  0
 19 15  1  0
 20 19  1  0
 16 18  1  0
 22 21  1  0
 23 21  1  0
 24 21  1  0
 25 23  1  0
 26 22  1  0
 27 24  2  0
 28 26  2  0
 29 25  2  0
 30 21  1  0
 31 24  1  0
 32 26  1  0
 33 25  1  0
 35 39  1  0
 36 34  1  0
 37 36  1  0
 38 34  1  0
 39 38  1  0
 35 37  1  0
 41 45  1  0
 42 40  1  0
 43 42  1  0
 44 40  1  0
 45 44  1  0
 41 43  1  0
  1 46  1  0
  1 47  1  0
  3 48  1  0
  3 49  1  0
  4 50  1  0
  4 51  1  0
 11 52  1  0
 12 53  1  0
 13 54  1  0
 14 55  1  0
 15 56  1  0
 16 57  1  0
 17 58  1  0
 17 59  1  0
 18 60  1  0
 18 61  1  0
 19 62  1  0
 19 63  1  0
 20 64  1  0
 20 65  1  0
 22 66  1  0
 22 67  1  0
 23 68  1  0
 23 69  1  0
 30 70  1  0
 31 71  1  0
 32 72  1  0
 33 73  1  0
 34 74  1  0
 35 75  1  0
 36 76  1  0
 36 77  1  0
 37 78  1  0
 37 79  1  0
 38 80  1  0
 38 81  1  0
 39 82  1  0
 39 83  1  0
 40 84  1  0
 41 85  1  0
 42 86  1  0
 42 87  1  0
 43 88  1  0
 43 89  1  0
 44 90  1  0
 44 91  1  0
 45 92  1  0
 45 93  1  0
M  END
> <Uni-Dock RESULT> 
ENERGY=   -6.857  LOWER_BOUND=    8.763  UPPER_BOUND=   10.622
INTER + INTRA:          -6.857
INTER:                  -6.857
INTRA:                   0.000
UNBOUND:                 0.000

$$$$

     RDKit          3D

 93 90  0  0  0  0  0  0  0  0999 V2000
   48.6094    4.4563   18.5177 O   0  0  0  0  0  0  0  0  0  0  0  0
   49.3496    3.9800   18.3147 C   0  0  0  0  0  0  0  0  0  0  0  0
   48.6855    4.5215   17.0469 C   0  0  0  0  0  0  0  0  0  0  0  0
   50.5917    4.7765   18.7243 C   0  0  0  0  0  0  0  0  0  0  0  0
   48.3828    3.9173   19.5036 C   0  0  0  0  0  0  0  0  0  0  0  0
   50.3137    6.2228   19.0055 C   0  0  0  0  0  0  0  0  0  0  0  0
   47.6532    3.5866   16.4835 C   0  0  0  0  0  0  0  0  0  0  0  0
   48.2232    2.9286   20.2066 O   0  0  0  0  0  0  0  0  0  0  0  0
   47.6287    3.1374   15.3498 O   0  0  0  0  0  0  0  0  0  0  0  0
   49.9965    7.0686   18.1875 O   0  0  0  0  0  0  0  0  0  0  0  0
   49.8355    2.6470   18.0333 O   0  0  0  0  0  0  0  0  0  0  0  0
   47.7234    5.0588   19.7589 O   0  0  0  0  0  0  0  0  0  0  0  0
   46.6521    3.3086   17.3398 O   0  0  0  0  0  0  0  0  0  0  0  0
   50.4494    6.5381   20.3057 O   0  0  0  0  0  0  0  0  0  0  0  0
   50.4630    4.1525   18.6456 N   0  0  0  0  0  0  0  0  0  0  0  0
   47.6396    4.8305   18.0299 N   0  0  0  0  0  0  0  0  0  0  0  0
   49.7699    3.6292   17.4534 C   0  0  0  0  0  0  0  0  0  0  0  0
   48.2387    3.5473   17.6371 C   0  0  0  0  0  0  0  0  0  0  0  0
   49.8712    5.4568   18.9982 C   0  0  0  0  0  0  0  0  0  0  0  0
   48.3412    5.3901   19.1932 C   0  0  0  0  0  0  0  0  0  0  0  0
   49.6360    4.4852   18.6545 C   0  0  0  0  0  0  0  0  0  0  0  0
   48.8621    5.7955   18.8645 C   0  0  0  0  0  0  0  0  0  0  0  0
   48.7937    3.2302   18.4113 C   0  0  0  0  0  0  0  0  0  0  0  0
   50.5815    4.6697   17.4519 C   0  0  0  0  0  0  0  0  0  0  0  0
   48.1259    3.2287   17.0693 C   0  0  0  0  0  0  0  0  0  0  0  0
   47.6325    5.7099   19.7244 C   0  0  0  0  0  0  0  0  0  0  0  0
   50.3989    5.3495   16.4568 O   0  0  0  0  0  0  0  0  0  0  0  0
   46.5775    6.2856   19.5068 O   0  0  0  0  0  0  0  0  0  0  0  0
   48.4780    2.5832   16.0975 O   0  0  0  0  0  0  0  0  0  0  0  0
   50.4603    4.2606   19.8189 O   0  0  0  0  0  0  0  0  0  0  0  0
   51.7065    3.9248   17.5780 O   0  0  0  0  0  0  0  0  0  0  0  0
   47.7845    5.0004   20.8534 O   0  0  0  0  0  0  0  0  0  0  0  0
   47.0632    4.0458   17.0187 O   0  0  0  0  0  0  0  0  0  0  0  0
   50.0911    3.6079   17.9796 N   0  0  0  0  0  0  0  0  0  0  0  0
   48.0262    4.7603   19.4328 N   0  0  0  0  0  0  0  0  0  0  0  0
   50.3412    4.9808   18.4631 C   0  0  0  0  0  0  0  0  0  0  0  0
   49.0962    5.6955   19.0445 C   0  0  0  0  0  0  0  0  0  0  0  0
   48.7775    3.5630   17.3150 C   0  0  0  0  0  0  0  0  0  0  0  0
   47.6138    3.9810   18.2477 C   0  0  0  0  0  0  0  0  0  0  0  0
   47.5300    4.6764   18.1750 N   0  0  0  0  0  0  0  0  0  0  0  0
   50.4386    4.2359   18.5942 N   0  0  0  0  0  0  0  0  0  0  0  0
   48.2609    3.5769   17.5210 C   0  0  0  0  0  0  0  0  0  0  0  0
   49.7630    3.8797   17.3341 C   0  0  0  0  0  0  0  0  0  0  0  0
   48.2056    5.0323   19.4350 C   0  0  0  0  0  0  0  0  0  0  0  0
   49.7077    5.3358   19.2477 C   0  0  0  0  0  0  0  0  0  0  0  0
   48.9735    3.9713   17.7618 H   0  0  0  0  0  0  0  0  0  0  0  0
   49.3695    4.9410   18.8733 H   0  0  0  0  0  0  0  0  0  0  0  0
   49.4428    4.6519   16.2632 H   0  0  0  0  0  0  0  0  0  0  0  0
   48.2006    5.4912   17.1998 H   0  0  0  0  0  0  0  0  0  0  0  0
   51.0591    4.3214   19.6076 H   0  0  0  0  0  0  0  0  0  0  0  0
   51.3621    4.7293   17.9454 H   0  0  0  0  0  0  0  0  0  0  0  0
   49.5496    2.0745   18.7752 H   0  0  0  0  0  0  0  0  0  0  0  0
   47.1418    4.8402   20.5179 H   0  0  0  0  0  0  0  0  0  0  0  0
   46.0647    2.7184   16.8193 H   0  0  0  0  0  0  0  0  0  0  0  0
   50.2418    7.4958   20.3447 H   0  0  0  0  0  0  0  0  0  0  0  0
   50.2882    3.5098   19.4173 H   0  0  0  0  0  0  0  0  0  0  0  0
   46.6550    4.6966   18.2539 H   0  0  0  0  0  0  0  0  0  0  0  0
   50.0099    4.2607   16.5889 H   0  0  0  0  0  0  0  0  0  0  0  0
   50.1612    2.6301   17.2312 H   0  0  0  0  0  0  0  0  0  0  0  0
   48.0026    2.7890   18.3941 H   0  0  0  0  0  0  0  0  0  0  0  0
   47.7803    3.2171   16.6983 H   0  0  0  0  0  0  0  0  0  0  0  0
   50.1165    6.1892   18.2193 H   0  0  0  0  0  0  0  0  0  0  0  0
   50.3375    5.8134   19.9234 H   0  0  0  0  0  0  0  0  0  0  0  0
   47.9591    6.3990   19.3831 H   0  0  0  0  0  0  0  0  0  0  0  0
   48.1124    4.7879   20.0815 H   0  0  0  0  0  0  0  0  0  0  0  0
   49.5140    6.5549   19.3147 H   0  0  0  0  0  0  0  0  0  0  0  0
   48.5249    6.1960   17.9004 H   0  0  0  0  0  0  0  0  0  0  0  0
   49.4331    2.3375   18.4538 H   0  0  0  0  0  0  0  0  0  0  0  0
   48.0435    3.0610   19.1902 H   0  0  0  0  0  0  0  0  0  0  0  0
   51.1907    3.6752   19.5322 H   0  0  0  0  0  0  0  0  0  0  0  0
   52.2013    4.1024   16.7477 H   0  0  0  0  0  0  0  0  0  0  0  0
   46.9319    5.1072   21.3257 H   0  0  0  0  0  0  0  0  0  0  0  0
   46.7272    3.9768   16.0990 H   0  0  0  0  0  0  0  0  0  0  0  0
   50.0380    2.9976   18.7943 H   0  0  0  0  0  0  0  0  0  0  0  0
   48.4241    4.1093   20.1092 H   0  0  0  0  0  0  0  0  0  0  0  0
   50.7536    5.5811   17.6436 H   0  0  0  0  0  0  0  0  0  0  0  0
   51.1193    4.9240   19.2335 H   0  0  0  0  0  0  0  0  0  0  0  0
   48.6976    6.4034   18.3072 H   0  0  0  0  0  0  0  0  0  0  0  0
   49.3897    6.2860   19.9198 H   0  0  0  0  0  0  0  0  0  0  0  0
   48.8017    4.2197   16.4365 H   0  0  0  0  0  0  0  0  0  0  0  0
   48.6003    2.5480   16.9416 H   0  0  0  0  0  0  0  0  0  0  0  0
   46.8799    4.5586   17.6739 H   0  0  0  0  0  0  0  0  0  0  0  0
   47.0964    3.0831   18.6058 H   0  0  0  0  0  0  0  0  0  0  0  0
   47.5752    5.4888   17.5581 H   0  0  0  0  0  0  0  0  0  0  0  0
   50.3926    3.4237   19.2108 H   0  0  0  0  0  0  0  0  0  0  0  0
   48.1365    2.6609   18.1117 H   0  0  0  0  0  0  0  0  0  0  0  0
   47.8060    3.3857   16.5430 H   0  0  0  0  0  0  0  0  0  0  0  0
   50.2585    3.0017   16.9053 H   0  0  0  0  0  0  0  0  0  0  0  0
   49.8915    4.6966   16.6134 H   0  0  0  0  0  0  0  0  0  0  0  0
   48.0773    4.2152   20.1557 H   0  0  0  0  0  0  0  0  0  0  0  0
   47.7094    5.9103   19.8625 H   0  0  0  0  0  0  0  0  0  0  0  0
   49.8308    6.2509   18.6554 H   0  0  0  0  0  0  0  0  0  0  0  0
   50.1630    5.5285   20.2256 H   0  0  0  0  0  0  0  0  0  0  0  0
  3  2  1  0
  4  2  1  0
  5  2  1  0
  6  4  1  0
  7  3  1  0
  8  5  2  0
  9  7  2  0
 10  6  2  0
 11  2  1  0
 12  5  1  0
 13  7  1  0
 14  6  1  0
 16 20  1  0
 17 15  1  0
 18 17  1  0
 19 15  1  0
 20 19  1  0
 16 18  1  0
 22 21  1  0
 23 21  1  0
 24 21  1  0
 25 23  1  0
 26 22  1  0
 27 24  2  0
 28 26  2  0
 29 25  2  0
 30 21  1  0
 31 24  1  0
 32 26  1  0
 33 25  1  0
 35 39  1  0
 36 34  1  0
 37 36  1  0
 38 34  1  0
 39 38  1  0
 35 37  1  0
 41 45  1  0
 42 40  1  0
 43 42  1  0
 44 40  1  0
 45 44  1  0
 41 43  1  0
  1 46  1  0
  1 47  1  0
  3 48  1  0
  3 49  1  0
  4 50  1  0
  4 51  1  0
 11 52  1  0
 12 53  1  0
 13 54  1  0
 14 55  1  0
 15 56  1  0
 16 57  1  0
 17 58  1  0
 17 59  1  0
 18 60  1  0
 18 61  1  0
 19 62  1  0
 19 63  1  0
 20 64  1  0
 20 65  1  0
 22 66  1  0
 22 67  1  0
 23 68  1  0
 23 69  1  0
 30 70  1  0
 31 71  1  0
 32 72  1  0
 33 73  1  0
 34 74  1  0
 35 75  1  0
 36 76  1  0
 36 77  1  0
 37 78  1  0
 37 79  1  0
 38 80  1  0
 38 81  1  0
 39 82  1  0
 39 83  1  0
 40 84  1  0
 41 85  1  0
 42 86  1  0
 42 87  1  0
 43 88  1  0
 43 89  1  0
 44 90  1  0
 44 91  1  0
 45 92  1  0
 45 93  1  0
M  END
> <Uni-Dock RESULT> 
ENERGY=   -6.695  LOWER_BOUND=    5.553  UPPER_BOUND=    7.982
INTER + INTRA:          -6.695
INTER:                  -6.695
INTRA:                   0.000
UNBOUND:                 0.000

$$$$

     RDKit          3D

 93 90  0  0  0  0  0  0  0  0999 V2000
   53.6914    7.1768    8.8399 O   0  0  0  0  0  0  0  0  0  0  0  0
   53.3612    6.4757    8.3759 C   0  0  0  0  0  0  0  0  0  0  0  0
   54.2507    7.3472    7.4866 C   0  0  0  0  0  0  0  0  0  0  0  0
   54.0555    5.1913    8.8380 C   0  0  0  0  0  0  0  0  0  0  0  0
   52.8394    7.2304    9.6048 C   0  0  0  0  0  0  0  0  0  0  0  0
   55.3020    5.4341    9.6351 C   0  0  0  0  0  0  0  0  0  0  0  0
   53.4919    8.4488    6.8026 C   0  0  0  0  0  0  0  0  0  0  0  0
   51.6640    7.2601    9.9435 O   0  0  0  0  0  0  0  0  0  0  0  0
   53.4479    8.6569    5.6016 O   0  0  0  0  0  0  0  0  0  0  0  0
   56.3498    5.8920    9.2138 O   0  0  0  0  0  0  0  0  0  0  0  0
   52.2353    6.0291    7.5854 O   0  0  0  0  0  0  0  0  0  0  0  0
   53.7826    7.8503   10.3321 O   0  0  0  0  0  0  0  0  0  0  0  0
   52.8769    9.2904    7.6548 O   0  0  0  0  0  0  0  0  0  0  0  0
   55.1718    5.0873   10.9278 O   0  0  0  0  0  0  0  0  0  0  0  0
   53.4869    5.3247    8.5715 N   0  0  0  0  0  0  0  0  0  0  0  0
   54.1418    8.2182    8.6635 N   0  0  0  0  0  0  0  0  0  0  0  0
   53.3483    6.2009    7.3931 C   0  0  0  0  0  0  0  0  0  0  0  0
   53.1075    7.6791    7.7695 C   0  0  0  0  0  0  0  0  0  0  0  0
   54.5550    5.8634    9.4343 C   0  0  0  0  0  0  0  0  0  0  0  0
   54.3248    7.3389    9.8262 C   0  0  0  0  0  0  0  0  0  0  0  0
   53.7413    6.1421    8.8197 C   0  0  0  0  0  0  0  0  0  0  0  0
   54.8507    6.8843    9.5803 C   0  0  0  0  0  0  0  0  0  0  0  0
   52.5871    6.9997    8.2943 C   0  0  0  0  0  0  0  0  0  0  0  0
   54.3809    5.4119    7.6231 C   0  0  0  0  0  0  0  0  0  0  0  0
   52.9908    7.8815    7.1514 C   0  0  0  0  0  0  0  0  0  0  0  0
   54.4001    7.9527   10.5364 C   0  0  0  0  0  0  0  0  0  0  0  0
   55.3410    5.7649    6.9602 O   0  0  0  0  0  0  0  0  0  0  0  0
   54.9436    9.0353   10.6924 O   0  0  0  0  0  0  0  0  0  0  0  0
   52.7333    7.6890    5.9759 O   0  0  0  0  0  0  0  0  0  0  0  0
   53.1952    5.1332    9.6969 O   0  0  0  0  0  0  0  0  0  0  0  0
   53.7136    4.2737    7.3137 O   0  0  0  0  0  0  0  0  0  0  0  0
   53.3651    7.6073   11.3178 O   0  0  0  0  0  0  0  0  0  0  0  0
   53.7047    8.9464    7.5459 O   0  0  0  0  0  0  0  0  0  0  0  0
   53.1734    5.7963    7.8247 N   0  0  0  0  0  0  0  0  0  0  0  0
   53.6316    7.6028    9.8815 N   0  0  0  0  0  0  0  0  0  0  0  0
   54.3183    5.4840    8.7037 C   0  0  0  0  0  0  0  0  0  0  0  0
   54.7121    6.6224    9.6773 C   0  0  0  0  0  0  0  0  0  0  0  0
   53.2661    7.2016    7.3938 C   0  0  0  0  0  0  0  0  0  0  0  0
   53.2687    8.1983    8.5794 C   0  0  0  0  0  0  0  0  0  0  0  0
   53.9411    8.3005    8.7622 N   0  0  0  0  0  0  0  0  0  0  0  0
   53.5809    5.3582    8.5561 N   0  0  0  0  0  0  0  0  0  0  0  0
   53.1757    7.6769    7.6686 C   0  0  0  0  0  0  0  0  0  0  0  0
   53.6232    6.2302    7.3691 C   0  0  0  0  0  0  0  0  0  0  0  0
   53.8985    7.4285    9.9490 C   0  0  0  0  0  0  0  0  0  0  0  0
   54.3468    5.9818    9.6494 C   0  0  0  0  0  0  0  0  0  0  0  0
   53.5133    6.9384    7.9176 H   0  0  0  0  0  0  0  0  0  0  0  0
   54.0786    6.3733    9.2191 H   0  0  0  0  0  0  0  0  0  0  0  0
   54.6864    6.7324    6.6886 H   0  0  0  0  0  0  0  0  0  0  0  0
   55.0784    7.8103    8.0336 H   0  0  0  0  0  0  0  0  0  0  0  0
   53.3631    4.5786    9.4303 H   0  0  0  0  0  0  0  0  0  0  0  0
   54.3236    4.5609    7.9818 H   0  0  0  0  0  0  0  0  0  0  0  0
   51.4295    6.1814    8.1217 H   0  0  0  0  0  0  0  0  0  0  0  0
   53.2840    8.2951   11.0502 H   0  0  0  0  0  0  0  0  0  0  0  0
   52.4574    9.9499    7.0602 H   0  0  0  0  0  0  0  0  0  0  0  0
   56.0448    5.2958   11.3228 H   0  0  0  0  0  0  0  0  0  0  0  0
   52.6126    5.3616    9.0944 H   0  0  0  0  0  0  0  0  0  0  0  0
   53.8752    9.1503    8.9760 H   0  0  0  0  0  0  0  0  0  0  0  0
   54.2475    6.1149    6.7704 H   0  0  0  0  0  0  0  0  0  0  0  0
   52.5099    5.8413    6.7860 H   0  0  0  0  0  0  0  0  0  0  0  0
   52.1254    7.7779    8.2487 H   0  0  0  0  0  0  0  0  0  0  0  0
   53.0811    8.2838    6.8562 H   0  0  0  0  0  0  0  0  0  0  0  0
   55.5207    5.7591    8.9247 H   0  0  0  0  0  0  0  0  0  0  0  0
   54.6112    5.2535   10.3429 H   0  0  0  0  0  0  0  0  0  0  0  0
   55.1839    7.6948   10.4053 H   0  0  0  0  0  0  0  0  0  0  0  0
   53.4459    7.4102   10.4793 H   0  0  0  0  0  0  0  0  0  0  0  0
   55.4571    6.1748   10.1575 H   0  0  0  0  0  0  0  0  0  0  0  0
   55.5277    7.3815    8.8745 H   0  0  0  0  0  0  0  0  0  0  0  0
   51.7766    6.3525    7.9312 H   0  0  0  0  0  0  0  0  0  0  0  0
   52.1170    7.6079    9.0736 H   0  0  0  0  0  0  0  0  0  0  0  0
   52.7898    4.4545    9.1196 H   0  0  0  0  0  0  0  0  0  0  0  0
   54.1918    3.9260    6.5287 H   0  0  0  0  0  0  0  0  0  0  0  0
   53.2503    8.3705   11.9226 H   0  0  0  0  0  0  0  0  0  0  0  0
   53.9257    9.4300    6.7207 H   0  0  0  0  0  0  0  0  0  0  0  0
   52.3232    5.7065    8.3799 H   0  0  0  0  0  0  0  0  0  0  0  0
   52.8197    7.0909   10.2257 H   0  0  0  0  0  0  0  0  0  0  0  0
   55.1846    5.2202    8.0858 H   0  0  0  0  0  0  0  0  0  0  0  0
   54.0588    4.5880    9.2799 H   0  0  0  0  0  0  0  0  0  0  0  0
   55.5978    7.1458    9.2962 H   0  0  0  0  0  0  0  0  0  0  0  0
   54.9934    6.1938   10.6458 H   0  0  0  0  0  0  0  0  0  0  0  0
   54.1793    7.3310    6.7996 H   0  0  0  0  0  0  0  0  0  0  0  0
   52.4256    7.4276    6.7280 H   0  0  0  0  0  0  0  0  0  0  0  0
   53.9549    9.0236    8.3566 H   0  0  0  0  0  0  0  0  0  0  0  0
   52.2703    8.6392    8.6839 H   0  0  0  0  0  0  0  0  0  0  0  0
   54.9143    8.3673    8.4607 H   0  0  0  0  0  0  0  0  0  0  0  0
   52.6078    5.2921    8.8576 H   0  0  0  0  0  0  0  0  0  0  0  0
   52.1086    7.6914    7.9226 H   0  0  0  0  0  0  0  0  0  0  0  0
   53.2933    8.2862    6.7657 H   0  0  0  0  0  0  0  0  0  0  0  0
   52.9748    5.8036    6.5959 H   0  0  0  0  0  0  0  0  0  0  0  0
   54.6410    6.2321    6.9600 H   0  0  0  0  0  0  0  0  0  0  0  0
   52.8805    7.4263   10.3579 H   0  0  0  0  0  0  0  0  0  0  0  0
   54.5472    7.8560   10.7211 H   0  0  0  0  0  0  0  0  0  0  0  0
   55.4135    5.9688    9.3938 H   0  0  0  0  0  0  0  0  0  0  0  0
   54.2305    5.3723   10.5525 H   0  0  0  0  0  0  0  0  0  0  0  0
  3  2  1  0
  4  2  1  0
  5  2  1  0
  6  4  1  0
  7  3  1  0
  8  5  2  0
  9  7  2  0
 10  6  2  0
 11  2  1  0
 12  5  1  0
 13  7  1  0
 14  6  1  0
 16 20  1  0
 17 15  1  0
 18 17  1  0
 19 15  1  0
 20 19  1  0
 16 18  1  0
 22 21  1  0
 23 21  1  0
 24 21  1  0
 25 23  1  0
 26 22  1  0
 27 24  2  0
 28 26  2  0
 29 25  2  0
 30 21  1  0
 31 24  1  0
 32 26  1  0
 33 25  1  0
 35 39  1  0
 36 34  1  0
 37 36  1  0
 38 34  1  0
 39 38  1  0
 35 37  1  0
 41 45  1  0
 42 40  1  0
 43 42  1  0
 44 40  1  0
 45 44  1  0
 41 43  1  0
  1 46  1  0
  1 47  1  0
  3 48  1  0
  3 49  1  0
  4 50  1  0
  4 51  1  0
 11 52  1  0
 12 53  1  0
 13 54  1  0
 14 55  1  0
 15 56  1  0
 16 57  1  0
 17 58  1  0
 17 59  1  0
 18 60  1  0
 18 61  1  0
 19 62  1  0
 19 63  1  0
 20 64  1  0
 20 65  1  0
 22 66  1  0
 22 67  1  0
 23 68  1  0
 23 69  1  0
 30 70  1  0
 31 71  1  0
 32 72  1  0
 33 73  1  0
 34 74  1  0
 35 75  1  0
 36 76  1  0
 36 77  1  0
 37 78  1  0
 37 79  1  0
 38 80  1  0
 38 81  1  0
 39 82  1  0
 39 83  1  0
 40 84  1  0
 41 85  1  0
 42 86  1  0
 42 87  1  0
 43 88  1  0
 43 89  1  0
 44 90  1  0
 44 91  1  0
 45 92  1  0
 45 93  1  0
M  END
> <Uni-Dock RESULT> 
ENERGY=   -6.577  LOWER_BOUND=    8.728  UPPER_BOUND=   10.384
INTER + INTRA:          -6.577
INTER:                  -6.577
INTRA:                   0.000
UNBOUND:                 0.000

$$$$
