
     RDKit          3D

 93 90  0  0  0  0  0  0  0  0999 V2000
   44.5210    5.4301   11.6331 O   0  0  0  0  0  0  0  0  0  0  0  0
   45.1743    4.9359   11.8441 C   0  0  0  0  0  0  0  0  0  0  0  0
   44.2750    4.5594   10.6625 C   0  0  0  0  0  0  0  0  0  0  0  0
   45.8370    6.3169   11.8624 C   0  0  0  0  0  0  0  0  0  0  0  0
   44.3825    4.7763   13.1490 C   0  0  0  0  0  0  0  0  0  0  0  0
   44.8932    7.4551   11.5949 C   0  0  0  0  0  0  0  0  0  0  0  0
   44.8957    4.7891    9.3132 C   0  0  0  0  0  0  0  0  0  0  0  0
   44.7353    4.0918   14.0994 O   0  0  0  0  0  0  0  0  0  0  0  0
   45.8764    5.4550    9.0342 O   0  0  0  0  0  0  0  0  0  0  0  0
   43.9794    7.4881   10.7904 O   0  0  0  0  0  0  0  0  0  0  0  0
   46.2365    3.9494   11.8910 O   0  0  0  0  0  0  0  0  0  0  0  0
   43.2533    5.5008   13.2166 O   0  0  0  0  0  0  0  0  0  0  0  0
   44.1979    4.1729    8.3352 O   0  0  0  0  0  0  0  0  0  0  0  0
   45.1746    8.5364   12.3482 O   0  0  0  0  0  0  0  0  0  0  0  0
   45.5956    6.0553   10.2580 N   0  0  0  0  0  0  0  0  0  0  0  0
   44.1001    5.0108   12.6040 N   0  0  0  0  0  0  0  0  0  0  0  0
   46.1081    6.1753   11.6344 C   0  0  0  0  0  0  0  0  0  0  0  0
   44.9871    6.1841   12.6959 C   0  0  0  0  0  0  0  0  0  0  0  0
   44.7068    4.8836   10.1659 C   0  0  0  0  0  0  0  0  0  0  0  0
   43.5863    4.8923   11.2278 C   0  0  0  0  0  0  0  0  0  0  0  0
   44.6372    5.2100   11.8400 C   0  0  0  0  0  0  0  0  0  0  0  0
   44.7900    6.5056   12.6645 C   0  0  0  0  0  0  0  0  0  0  0  0
   45.1037    5.3899   10.3881 C   0  0  0  0  0  0  0  0  0  0  0  0
   43.1346    4.8740   11.9188 C   0  0  0  0  0  0  0  0  0  0  0  0
   44.7547    4.2240    9.5000 C   0  0  0  0  0  0  0  0  0  0  0  0
   46.2108    6.9750   12.7496 C   0  0  0  0  0  0  0  0  0  0  0  0
   42.5934    4.0549   12.6438 O   0  0  0  0  0  0  0  0  0  0  0  0
   47.2056    6.2766   12.6408 O   0  0  0  0  0  0  0  0  0  0  0  0
   43.8071    3.4646    9.5906 O   0  0  0  0  0  0  0  0  0  0  0  0
   45.4079    4.1694   12.4568 O   0  0  0  0  0  0  0  0  0  0  0  0
   42.3765    5.6616   11.1219 O   0  0  0  0  0  0  0  0  0  0  0  0
   46.3095    8.2917   13.0028 O   0  0  0  0  0  0  0  0  0  0  0  0
   45.6137    4.1114    8.4652 O   0  0  0  0  0  0  0  0  0  0  0  0
   46.2038    5.8929   10.8411 N   0  0  0  0  0  0  0  0  0  0  0  0
   43.4994    5.2199   12.0663 N   0  0  0  0  0  0  0  0  0  0  0  0
   45.8112    6.2210   12.2232 C   0  0  0  0  0  0  0  0  0  0  0  0
   44.2933    6.4145   12.4051 C   0  0  0  0  0  0  0  0  0  0  0  0
   45.1355    5.1726   10.1302 C   0  0  0  0  0  0  0  0  0  0  0  0
   44.1675    4.3959   11.0465 C   0  0  0  0  0  0  0  0  0  0  0  0
   43.7592    5.0281   12.3830 N   0  0  0  0  0  0  0  0  0  0  0  0
   45.7781    6.1183   10.5006 N   0  0  0  0  0  0  0  0  0  0  0  0
   43.6181    4.9058   10.9199 C   0  0  0  0  0  0  0  0  0  0  0  0
   44.9743    4.9301   10.1818 C   0  0  0  0  0  0  0  0  0  0  0  0
   44.5349    6.2469   12.6799 C   0  0  0  0  0  0  0  0  0  0  0  0
   45.8984    6.2823   11.9559 C   0  0  0  0  0  0  0  0  0  0  0  0
   45.2311    6.0276   11.9120 H   0  0  0  0  0  0  0  0  0  0  0  0
   44.7901    5.1437   10.7474 H   0  0  0  0  0  0  0  0  0  0  0  0
   43.3221    5.0985   10.6842 H   0  0  0  0  0  0  0  0  0  0  0  0
   44.0432    3.4875   10.7286 H   0  0  0  0  0  0  0  0  0  0  0  0
   46.6649    6.3818   11.1489 H   0  0  0  0  0  0  0  0  0  0  0  0
   46.2977    6.4739   12.8477 H   0  0  0  0  0  0  0  0  0  0  0  0
   46.4777    3.8237   12.8312 H   0  0  0  0  0  0  0  0  0  0  0  0
   42.8715    5.2923   14.0964 H   0  0  0  0  0  0  0  0  0  0  0  0
   44.6804    4.4139    7.5169 H   0  0  0  0  0  0  0  0  0  0  0  0
   44.5272    9.2112   12.0519 H   0  0  0  0  0  0  0  0  0  0  0  0
   45.0350    6.8859   10.0624 H   0  0  0  0  0  0  0  0  0  0  0  0
   44.6633    4.1815   12.7964 H   0  0  0  0  0  0  0  0  0  0  0  0
   46.8024    5.3494   11.8331 H   0  0  0  0  0  0  0  0  0  0  0  0
   46.6893    7.1006   11.7135 H   0  0  0  0  0  0  0  0  0  0  0  0
   44.3874    7.0973   12.5964 H   0  0  0  0  0  0  0  0  0  0  0  0
   45.4351    6.2085   13.6955 H   0  0  0  0  0  0  0  0  0  0  0  0
   44.2588    4.8600    9.1664 H   0  0  0  0  0  0  0  0  0  0  0  0
   45.3059    3.9698   10.2645 H   0  0  0  0  0  0  0  0  0  0  0  0
   43.0048    3.9672   11.1484 H   0  0  0  0  0  0  0  0  0  0  0  0
   42.8927    5.7191   11.0304 H   0  0  0  0  0  0  0  0  0  0  0  0
   44.4492    6.3449   13.6950 H   0  0  0  0  0  0  0  0  0  0  0  0
   44.1843    7.3072   12.2242 H   0  0  0  0  0  0  0  0  0  0  0  0
   44.6621    6.2849    9.9347 H   0  0  0  0  0  0  0  0  0  0  0  0
   46.1948    5.4961   10.3632 H   0  0  0  0  0  0  0  0  0  0  0  0
   46.3287    4.4827   12.5667 H   0  0  0  0  0  0  0  0  0  0  0  0
   41.4771    5.2844   11.2397 H   0  0  0  0  0  0  0  0  0  0  0  0
   47.2719    8.4679   13.0726 H   0  0  0  0  0  0  0  0  0  0  0  0
   45.2829    3.3333    7.9679 H   0  0  0  0  0  0  0  0  0  0  0  0
   47.0410    5.3126   10.8782 H   0  0  0  0  0  0  0  0  0  0  0  0
   42.5949    5.5307   11.7139 H   0  0  0  0  0  0  0  0  0  0  0  0
   46.3368    7.1332   12.5254 H   0  0  0  0  0  0  0  0  0  0  0  0
   46.1528    5.4206   12.8920 H   0  0  0  0  0  0  0  0  0  0  0  0
   44.0794    6.6899   13.4435 H   0  0  0  0  0  0  0  0  0  0  0  0
   43.9624    7.2530   11.7788 H   0  0  0  0  0  0  0  0  0  0  0  0
   44.5638    5.9021    9.5433 H   0  0  0  0  0  0  0  0  0  0  0  0
   45.5900    4.4840    9.4090 H   0  0  0  0  0  0  0  0  0  0  0  0
   44.7218    3.6004   11.5597 H   0  0  0  0  0  0  0  0  0  0  0  0
   43.4053    3.8971   10.4368 H   0  0  0  0  0  0  0  0  0  0  0  0
   44.2954    4.2269   12.7146 H   0  0  0  0  0  0  0  0  0  0  0  0
   46.7046    6.0271   10.0875 H   0  0  0  0  0  0  0  0  0  0  0  0
   42.9752    5.7137   10.5487 H   0  0  0  0  0  0  0  0  0  0  0  0
   43.1024    3.9654   10.6959 H   0  0  0  0  0  0  0  0  0  0  0  0
   44.7952    4.9055    9.1016 H   0  0  0  0  0  0  0  0  0  0  0  0
   45.5447    4.0275   10.4348 H   0  0  0  0  0  0  0  0  0  0  0  0
   43.9427    7.1290   12.4061 H   0  0  0  0  0  0  0  0  0  0  0  0
   44.6992    6.3018   13.7616 H   0  0  0  0  0  0  0  0  0  0  0  0
   46.5464    5.4933   12.3579 H   0  0  0  0  0  0  0  0  0  0  0  0
   46.3897    7.2391   12.1633 H   0  0  0  0  0  0  0  0  0  0  0  0
  3  2  1  0
  4  2  1  0
  5  2  1  0
  6  4  1  0
  7  3  1  0
  8  5  2  0
  9  7  2  0
 10  6  2  0
 11  2  1  0
 12  5  1  0
 13  7  1  0
 14  6  1  0
 16 20  1  0
 17 15  1  0
 18 17  1  0
 19 15  1  0
 20 19  1  0
 16 18  1  0
 22 21  1  0
 23 21  1  0
 24 21  1  0
 25 23  1  0
 26 22  1  0
 27 24  2  0
 28 26  2  0
 29 25  2  0
 30 21  1  0
 31 24  1  0
 32 26  1  0
 33 25  1  0
 35 39  1  0
 36 34  1  0
 37 36  1  0
 38 34  1  0
 39 38  1  0
 35 37  1  0
 41 45  1  0
 42 40  1  0
 43 42  1  0
 44 40  1  0
 45 44  1  0
 41 43  1  0
  1 46  1  0
  1 47  1  0
  3 48  1  0
  3 49  1  0
  4 50  1  0
  4 51  1  0
 11 52  1  0
 12 53  1  0
 13 54  1  0
 14 55  1  0
 15 56  1  0
 16 57  1  0
 17 58  1  0
 17 59  1  0
 18 60  1  0
 18 61  1  0
 19 62  1  0
 19 63  1  0
 20 64  1  0
 20 65  1  0
 22 66  1  0
 22 67  1  0
 23 68  1  0
 23 69  1  0
 30 70  1  0
 31 71  1  0
 32 72  1  0
 33 73  1  0
 34 74  1  0
 35 75  1  0
 36 76  1  0
 36 77  1  0
 37 78  1  0
 37 79  1  0
 38 80  1  0
 38 81  1  0
 39 82  1  0
 39 83  1  0
 40 84  1  0
 41 85  1  0
 42 86  1  0
 42 87  1  0
 43 88  1  0
 43 89  1  0
 44 90  1  0
 44 91  1  0
 45 92  1  0
 45 93  1  0
M  END
> <Uni-Dock RESULT> 
ENERGY=   -9.513  LOWER_BOUND=    0.000  UPPER_BOUND=    0.000
INTER + INTRA:          -9.513
INTER:                  -9.513
INTRA:                   0.000
UNBOUND:                 0.000

$$$$

     RDKit          3D

 93 90  0  0  0  0  0  0  0  0999 V2000
   44.5174    5.3521   11.6259 O   0  0  0  0  0  0  0  0  0  0  0  0
   45.2125    4.9113   11.8212 C   0  0  0  0  0  0  0  0  0  0  0  0
   44.3052    4.4500   10.6763 C   0  0  0  0  0  0  0  0  0  0  0  0
   45.7702    6.3378   11.7979 C   0  0  0  0  0  0  0  0  0  0  0  0
   44.4783    4.7144   13.1545 C   0  0  0  0  0  0  0  0  0  0  0  0
   44.7356    7.3983   11.5473 C   0  0  0  0  0  0  0  0  0  0  0  0
   44.8620    4.7033    9.3035 C   0  0  0  0  0  0  0  0  0  0  0  0
   44.9126    4.0735   14.1015 O   0  0  0  0  0  0  0  0  0  0  0  0
   45.7804    5.4356    8.9821 O   0  0  0  0  0  0  0  0  0  0  0  0
   43.7958    7.3503   10.7742 O   0  0  0  0  0  0  0  0  0  0  0  0
   46.3464    4.0073   11.8452 O   0  0  0  0  0  0  0  0  0  0  0  0
   43.3009    5.3540   13.2507 O   0  0  0  0  0  0  0  0  0  0  0  0
   44.1803    4.0212    8.3585 O   0  0  0  0  0  0  0  0  0  0  0  0
   44.9601    8.5096   12.2758 O   0  0  0  0  0  0  0  0  0  0  0  0
   45.4961    6.0331   10.2065 N   0  0  0  0  0  0  0  0  0  0  0  0
   44.1614    4.9185   12.6163 N   0  0  0  0  0  0  0  0  0  0  0  0
   46.0434    6.2131   11.5628 C   0  0  0  0  0  0  0  0  0  0  0  0
   44.9607    6.1557   12.6618 C   0  0  0  0  0  0  0  0  0  0  0  0
   44.6949    4.7972   10.1608 C   0  0  0  0  0  0  0  0  0  0  0  0
   43.6127    4.7399   11.2602 C   0  0  0  0  0  0  0  0  0  0  0  0
   44.6565    5.1446   11.8317 C   0  0  0  0  0  0  0  0  0  0  0  0
   44.7391    6.4611   12.6327 C   0  0  0  0  0  0  0  0  0  0  0  0
   45.0600    5.3352   10.3624 C   0  0  0  0  0  0  0  0  0  0  0  0
   43.1867    4.6993   11.9664 C   0  0  0  0  0  0  0  0  0  0  0  0
   44.7699    4.1323    9.5027 C   0  0  0  0  0  0  0  0  0  0  0  0
   46.1228    7.0361   12.6628 C   0  0  0  0  0  0  0  0  0  0  0  0
   42.7325    3.8540   12.7206 O   0  0  0  0  0  0  0  0  0  0  0  0
   47.1630    6.4119   12.5296 O   0  0  0  0  0  0  0  0  0  0  0  0
   43.8853    3.3063    9.6360 O   0  0  0  0  0  0  0  0  0  0  0  0
   45.5228    4.1743   12.4359 O   0  0  0  0  0  0  0  0  0  0  0  0
   42.3458    5.4154   11.1852 O   0  0  0  0  0  0  0  0  0  0  0  0
   46.1311    8.3604   12.8944 O   0  0  0  0  0  0  0  0  0  0  0  0
   45.6002    4.0672    8.4408 O   0  0  0  0  0  0  0  0  0  0  0  0
   46.1337    5.9258   10.7706 N   0  0  0  0  0  0  0  0  0  0  0  0
   43.5292    5.0736   12.0967 N   0  0  0  0  0  0  0  0  0  0  0  0
   45.7636    6.2461   12.1607 C   0  0  0  0  0  0  0  0  0  0  0  0
   44.2423    6.3292   12.3917 C   0  0  0  0  0  0  0  0  0  0  0  0
   45.0993    5.1167   10.1066 C   0  0  0  0  0  0  0  0  0  0  0  0
   44.2230    4.2852   11.0659 C   0  0  0  0  0  0  0  0  0  0  0  0
   43.8130    4.9068   12.4068 N   0  0  0  0  0  0  0  0  0  0  0  0
   45.6813    6.1134   10.4418 N   0  0  0  0  0  0  0  0  0  0  0  0
   43.6331    4.7507   10.9512 C   0  0  0  0  0  0  0  0  0  0  0  0
   44.9586    4.8638   10.1669 C   0  0  0  0  0  0  0  0  0  0  0  0
   44.5047    6.1845   12.6603 C   0  0  0  0  0  0  0  0  0  0  0  0
   45.8370    6.3094   11.8898 C   0  0  0  0  0  0  0  0  0  0  0  0
   45.1896    6.0051   11.8722 H   0  0  0  0  0  0  0  0  0  0  0  0
   44.7777    5.0722   10.7355 H   0  0  0  0  0  0  0  0  0  0  0  0
   43.3159    4.9170   10.7232 H   0  0  0  0  0  0  0  0  0  0  0  0
   44.1565    3.3650   10.7649 H   0  0  0  0  0  0  0  0  0  0  0  0
   46.5668    6.4525   11.0557 H   0  0  0  0  0  0  0  0  0  0  0  0
   46.2502    6.5445   12.7647 H   0  0  0  0  0  0  0  0  0  0  0  0
   46.6273    3.9151   12.7783 H   0  0  0  0  0  0  0  0  0  0  0  0
   42.9651    5.1320   14.1458 H   0  0  0  0  0  0  0  0  0  0  0  0
   44.6161    4.2841    7.5210 H   0  0  0  0  0  0  0  0  0  0  0  0
   44.2546    9.1295   11.9926 H   0  0  0  0  0  0  0  0  0  0  0  0
   44.8688    6.8165   10.0188 H   0  0  0  0  0  0  0  0  0  0  0  0
   44.7910    4.1365   12.8006 H   0  0  0  0  0  0  0  0  0  0  0  0
   46.8038    5.4444   11.7489 H   0  0  0  0  0  0  0  0  0  0  0  0
   46.5561    7.1801   11.6093 H   0  0  0  0  0  0  0  0  0  0  0  0
   44.2913    7.0202   12.5703 H   0  0  0  0  0  0  0  0  0  0  0  0
   45.4384    6.2295   13.6450 H   0  0  0  0  0  0  0  0  0  0  0  0
   44.2171    4.7243    9.1776 H   0  0  0  0  0  0  0  0  0  0  0  0
   45.3636    3.9322   10.2514 H   0  0  0  0  0  0  0  0  0  0  0  0
   43.0996    3.7729   11.2133 H   0  0  0  0  0  0  0  0  0  0  0  0
   42.8530    5.5096   11.0754 H   0  0  0  0  0  0  0  0  0  0  0  0
   44.4456    6.2923   13.6764 H   0  0  0  0  0  0  0  0  0  0  0  0
   44.0609    7.2084   12.2025 H   0  0  0  0  0  0  0  0  0  0  0  0
   44.5379    6.1874    9.9122 H   0  0  0  0  0  0  0  0  0  0  0  0
   46.1386    5.5217   10.2988 H   0  0  0  0  0  0  0  0  0  0  0  0
   46.4208    4.5569   12.5101 H   0  0  0  0  0  0  0  0  0  0  0  0
   41.4815    4.9743   11.3388 H   0  0  0  0  0  0  0  0  0  0  0  0
   47.0794    8.6087   12.9289 H   0  0  0  0  0  0  0  0  0  0  0  0
   45.3123    3.2588    7.9658 H   0  0  0  0  0  0  0  0  0  0  0  0
   47.0127    5.4100   10.7870 H   0  0  0  0  0  0  0  0  0  0  0  0
   42.5928    5.3106   11.7711 H   0  0  0  0  0  0  0  0  0  0  0  0
   46.2292    7.1996   12.4322 H   0  0  0  0  0  0  0  0  0  0  0  0
   46.1861    5.4842   12.8283 H   0  0  0  0  0  0  0  0  0  0  0  0
   44.0429    6.6047   13.4329 H   0  0  0  0  0  0  0  0  0  0  0  0
   43.8291    7.1306   11.7657 H   0  0  0  0  0  0  0  0  0  0  0  0
   44.4556    5.7922    9.5296 H   0  0  0  0  0  0  0  0  0  0  0  0
   45.5800    4.4522    9.3797 H   0  0  0  0  0  0  0  0  0  0  0  0
   44.8519    3.5414   11.5707 H   0  0  0  0  0  0  0  0  0  0  0  0
   43.4805    3.7214   10.4895 H   0  0  0  0  0  0  0  0  0  0  0  0
   44.4183    4.1531   12.7308 H   0  0  0  0  0  0  0  0  0  0  0  0
   46.5979    6.0846    9.9985 H   0  0  0  0  0  0  0  0  0  0  0  0
   42.9197    5.5025   10.5912 H   0  0  0  0  0  0  0  0  0  0  0  0
   43.1821    3.7711   10.7579 H   0  0  0  0  0  0  0  0  0  0  0  0
   44.7461    4.8085    9.0939 H   0  0  0  0  0  0  0  0  0  0  0  0
   45.6030    4.0102   10.4126 H   0  0  0  0  0  0  0  0  0  0  0  0
   43.8395    7.0156   12.3950 H   0  0  0  0  0  0  0  0  0  0  0  0
   44.7001    6.2689   13.7350 H   0  0  0  0  0  0  0  0  0  0  0  0
   46.5553    5.5774   12.2801 H   0  0  0  0  0  0  0  0  0  0  0  0
   46.2620    7.3033   12.0672 H   0  0  0  0  0  0  0  0  0  0  0  0
  3  2  1  0
  4  2  1  0
  5  2  1  0
  6  4  1  0
  7  3  1  0
  8  5  2  0
  9  7  2  0
 10  6  2  0
 11  2  1  0
 12  5  1  0
 13  7  1  0
 14  6  1  0
 16 20  1  0
 17 15  1  0
 18 17  1  0
 19 15  1  0
 20 19  1  0
 16 18  1  0
 22 21  1  0
 23 21  1  0
 24 21  1  0
 25 23  1  0
 26 22  1  0
 27 24  2  0
 28 26  2  0
 29 25  2  0
 30 21  1  0
 31 24  1  0
 32 26  1  0
 33 25  1  0
 35 39  1  0
 36 34  1  0
 37 36  1  0
 38 34  1  0
 39 38  1  0
 35 37  1  0
 41 45  1  0
 42 40  1  0
 43 42  1  0
 44 40  1  0
 45 44  1  0
 41 43  1  0
  1 46  1  0
  1 47  1  0
  3 48  1  0
  3 49  1  0
  4 50  1  0
  4 51  1  0
 11 52  1  0
 12 53  1  0
 13 54  1  0
 14 55  1  0
 15 56  1  0
 16 57  1  0
 17 58  1  0
 17 59  1  0
 18 60  1  0
 18 61  1  0
 19 62  1  0
 19 63  1  0
 20 64  1  0
 20 65  1  0
 22 66  1  0
 22 67  1  0
 23 68  1  0
 23 69  1  0
 30 70  1  0
 31 71  1  0
 32 72  1  0
 33 73  1  0
 34 74  1  0
 35 75  1  0
 36 76  1  0
 36 77  1  0
 37 78  1  0
 37 79  1  0
 38 80  1  0
 38 81  1  0
 39 82  1  0
 39 83  1  0
 40 84  1  0
 41 85  1  0
 42 86  1  0
 42 87  1  0
 43 88  1  0
 43 89  1  0
 44 90  1  0
 44 91  1  0
 45 92  1  0
 45 93  1  0
M  END
> <Uni-Dock RESULT> 
ENERGY=   -9.512  LOWER_BOUND=    0.137  UPPER_BOUND=    0.138
INTER + INTRA:          -9.512
INTER:                  -9.512
INTRA:                   0.000
UNBOUND:                 0.000

$$$$

     RDKit          3D

 93 90  0  0  0  0  0  0  0  0999 V2000
   44.3065    5.0749   11.7470 O   0  0  0  0  0  0  0  0  0  0  0  0
   43.9670    5.6409   11.2179 C   0  0  0  0  0  0  0  0  0  0  0  0
   44.8469    6.1070   12.3821 C   0  0  0  0  0  0  0  0  0  0  0  0
   44.5284    4.6169   10.2266 C   0  0  0  0  0  0  0  0  0  0  0  0
   42.6500    5.0839   11.7753 C   0  0  0  0  0  0  0  0  0  0  0  0
   45.1480    3.4106   10.8737 C   0  0  0  0  0  0  0  0  0  0  0  0
   46.2199    6.5645   11.9769 C   0  0  0  0  0  0  0  0  0  0  0  0
   41.5361    5.4685   11.4474 O   0  0  0  0  0  0  0  0  0  0  0  0
   46.8011    6.3752   10.9237 O   0  0  0  0  0  0  0  0  0  0  0  0
   45.8377    3.3786   11.8769 O   0  0  0  0  0  0  0  0  0  0  0  0
   43.6170    6.8262   10.4589 O   0  0  0  0  0  0  0  0  0  0  0  0
   42.7890    4.0700   12.6455 O   0  0  0  0  0  0  0  0  0  0  0  0
   46.8340    7.2343   12.9756 O   0  0  0  0  0  0  0  0  0  0  0  0
   44.8911    2.2785   10.1893 O   0  0  0  0  0  0  0  0  0  0  0  0
   45.8871    5.3315   10.8130 N   0  0  0  0  0  0  0  0  0  0  0  0
   43.2224    4.9785   12.0803 N   0  0  0  0  0  0  0  0  0  0  0  0
   44.7023    4.9053   10.0475 C   0  0  0  0  0  0  0  0  0  0  0  0
   43.6514    4.1820   10.9169 C   0  0  0  0  0  0  0  0  0  0  0  0
   45.4587    6.1262   11.9777 C   0  0  0  0  0  0  0  0  0  0  0  0
   44.4074    5.4029   12.8467 C   0  0  0  0  0  0  0  0  0  0  0  0
   44.0393    5.2337   11.6568 C   0  0  0  0  0  0  0  0  0  0  0  0
   43.7906    3.8474   11.0259 C   0  0  0  0  0  0  0  0  0  0  0  0
   45.4768    5.7233   11.4293 C   0  0  0  0  0  0  0  0  0  0  0  0
   43.7333    5.0393   13.1553 C   0  0  0  0  0  0  0  0  0  0  0  0
   45.8204    6.9563   12.2241 C   0  0  0  0  0  0  0  0  0  0  0  0
   43.9915    3.8414    9.5407 C   0  0  0  0  0  0  0  0  0  0  0  0
   42.7131    5.3451   13.7511 O   0  0  0  0  0  0  0  0  0  0  0  0
   43.8912    4.8050    8.7985 O   0  0  0  0  0  0  0  0  0  0  0  0
   45.3789    7.3041   13.3043 O   0  0  0  0  0  0  0  0  0  0  0  0
   43.1240    6.1787   11.0855 O   0  0  0  0  0  0  0  0  0  0  0  0
   44.7178    4.3848   13.8131 O   0  0  0  0  0  0  0  0  0  0  0  0
   44.2730    2.6184    9.0586 O   0  0  0  0  0  0  0  0  0  0  0  0
   46.7886    7.6812   11.6254 O   0  0  0  0  0  0  0  0  0  0  0  0
   45.3300    5.4606   10.1733 N   0  0  0  0  0  0  0  0  0  0  0  0
   43.7561    4.7946   12.6927 N   0  0  0  0  0  0  0  0  0  0  0  0
   44.1576    4.5684   10.2109 C   0  0  0  0  0  0  0  0  0  0  0  0
   43.9599    3.8647   11.5675 C   0  0  0  0  0  0  0  0  0  0  0  0
   45.6325    6.0152   11.5023 C   0  0  0  0  0  0  0  0  0  0  0  0
   44.4231    6.0850   12.4574 C   0  0  0  0  0  0  0  0  0  0  0  0
   43.4088    4.9347   12.4390 N   0  0  0  0  0  0  0  0  0  0  0  0
   45.7008    5.2479   10.5798 N   0  0  0  0  0  0  0  0  0  0  0  0
   44.6982    5.5079   12.8686 C   0  0  0  0  0  0  0  0  0  0  0  0
   45.4805    6.1621   11.7090 C   0  0  0  0  0  0  0  0  0  0  0  0
   43.6591    3.9922   11.3325 C   0  0  0  0  0  0  0  0  0  0  0  0
   44.4332    4.6340   10.1605 C   0  0  0  0  0  0  0  0  0  0  0  0
   44.3293    4.6685   10.8676 H   0  0  0  0  0  0  0  0  0  0  0  0
   45.0297    5.7195   11.7261 H   0  0  0  0  0  0  0  0  0  0  0  0
   44.9688    5.3277   13.1417 H   0  0  0  0  0  0  0  0  0  0  0  0
   44.3569    6.9612   12.8692 H   0  0  0  0  0  0  0  0  0  0  0  0
   45.2671    5.0634    9.5531 H   0  0  0  0  0  0  0  0  0  0  0  0
   43.7141    4.2778    9.5710 H   0  0  0  0  0  0  0  0  0  0  0  0
   42.7202    6.6852   10.0932 H   0  0  0  0  0  0  0  0  0  0  0  0
   41.8727    3.8308   12.9032 H   0  0  0  0  0  0  0  0  0  0  0  0
   47.7132    7.4546   12.6029 H   0  0  0  0  0  0  0  0  0  0  0  0
   45.3790    1.5841   10.6812 H   0  0  0  0  0  0  0  0  0  0  0  0
   46.3485    4.4910   11.1638 H   0  0  0  0  0  0  0  0  0  0  0  0
   42.7646    5.8197   11.7274 H   0  0  0  0  0  0  0  0  0  0  0  0
   44.2491    5.7819    9.5680 H   0  0  0  0  0  0  0  0  0  0  0  0
   45.0264    4.2384    9.2410 H   0  0  0  0  0  0  0  0  0  0  0  0
   44.0535    3.2228   11.2660 H   0  0  0  0  0  0  0  0  0  0  0  0
   42.7721    3.9514   10.3053 H   0  0  0  0  0  0  0  0  0  0  0  0
   46.3383    6.3560   12.5891 H   0  0  0  0  0  0  0  0  0  0  0  0
   45.0571    7.0859   11.6296 H   0  0  0  0  0  0  0  0  0  0  0  0
   44.0837    6.0698   13.6535 H   0  0  0  0  0  0  0  0  0  0  0  0
   44.8598    4.5253   13.3250 H   0  0  0  0  0  0  0  0  0  0  0  0
   42.7569    3.5261   11.2051 H   0  0  0  0  0  0  0  0  0  0  0  0
   44.4628    3.1036   11.4711 H   0  0  0  0  0  0  0  0  0  0  0  0
   46.2084    4.9522   11.6970 H   0  0  0  0  0  0  0  0  0  0  0  0
   45.6161    5.9753   10.3713 H   0  0  0  0  0  0  0  0  0  0  0  0
   43.2072    6.1477   10.1107 H   0  0  0  0  0  0  0  0  0  0  0  0
   44.4018    4.3998   14.7431 H   0  0  0  0  0  0  0  0  0  0  0  0
   44.3432    2.7356    8.0872 H   0  0  0  0  0  0  0  0  0  0  0  0
   46.9233    8.4406   12.2313 H   0  0  0  0  0  0  0  0  0  0  0  0
   45.1301    6.2202    9.5235 H   0  0  0  0  0  0  0  0  0  0  0  0
   44.1377    4.3624   13.5332 H   0  0  0  0  0  0  0  0  0  0  0  0
   44.2675    3.8183    9.4204 H   0  0  0  0  0  0  0  0  0  0  0  0
   43.2573    5.1500    9.9746 H   0  0  0  0  0  0  0  0  0  0  0  0
   43.0958    3.1939   11.5114 H   0  0  0  0  0  0  0  0  0  0  0  0
   44.8365    3.2379   11.7761 H   0  0  0  0  0  0  0  0  0  0  0  0
   46.4142    5.3967   11.9605 H   0  0  0  0  0  0  0  0  0  0  0  0
   46.0622    7.0159   11.3806 H   0  0  0  0  0  0  0  0  0  0  0  0
   43.6826    6.7822   12.0462 H   0  0  0  0  0  0  0  0  0  0  0  0
   44.7392    6.5029   13.4202 H   0  0  0  0  0  0  0  0  0  0  0  0
   42.8320    5.6943   12.0793 H   0  0  0  0  0  0  0  0  0  0  0  0
   46.1098    5.7586    9.7992 H   0  0  0  0  0  0  0  0  0  0  0  0
   45.3067    4.7230   13.3350 H   0  0  0  0  0  0  0  0  0  0  0  0
   44.5061    6.2588   13.6430 H   0  0  0  0  0  0  0  0  0  0  0  0
   46.4526    6.5040   12.0802 H   0  0  0  0  0  0  0  0  0  0  0  0
   44.9392    7.0495   11.3573 H   0  0  0  0  0  0  0  0  0  0  0  0
   44.2101    3.1235   11.7138 H   0  0  0  0  0  0  0  0  0  0  0  0
   42.6963    3.6184   10.9672 H   0  0  0  0  0  0  0  0  0  0  0  0
   43.8040    5.3930    9.6787 H   0  0  0  0  0  0  0  0  0  0  0  0
   44.6452    3.8668    9.4080 H   0  0  0  0  0  0  0  0  0  0  0  0
  3  2  1  0
  4  2  1  0
  5  2  1  0
  6  4  1  0
  7  3  1  0
  8  5  2  0
  9  7  2  0
 10  6  2  0
 11  2  1  0
 12  5  1  0
 13  7  1  0
 14  6  1  0
 16 20  1  0
 17 15  1  0
 18 17  1  0
 19 15  1  0
 20 19  1  0
 16 18  1  0
 22 21  1  0
 23 21  1  0
 24 21  1  0
 25 23  1  0
 26 22  1  0
 27 24  2  0
 28 26  2  0
 29 25  2  0
 30 21  1  0
 31 24  1  0
 32 26  1  0
 33 25  1  0
 35 39  1  0
 36 34  1  0
 37 36  1  0
 38 34  1  0
 39 38  1  0
 35 37  1  0
 41 45  1  0
 42 40  1  0
 43 42  1  0
 44 40  1  0
 45 44  1  0
 41 43  1  0
  1 46  1  0
  1 47  1  0
  3 48  1  0
  3 49  1  0
  4 50  1  0
  4 51  1  0
 11 52  1  0
 12 53  1  0
 13 54  1  0
 14 55  1  0
 15 56  1  0
 16 57  1  0
 17 58  1  0
 17 59  1  0
 18 60  1  0
 18 61  1  0
 19 62  1  0
 19 63  1  0
 20 64  1  0
 20 65  1  0
 22 66  1  0
 22 67  1  0
 23 68  1  0
 23 69  1  0
 30 70  1  0
 31 71  1  0
 32 72  1  0
 33 73  1  0
 34 74  1  0
 35 75  1  0
 36 76  1  0
 36 77  1  0
 37 78  1  0
 37 79  1  0
 38 80  1  0
 38 81  1  0
 39 82  1  0
 39 83  1  0
 40 84  1  0
 41 85  1  0
 42 86  1  0
 42 87  1  0
 43 88  1  0
 43 89  1  0
 44 90  1  0
 44 91  1  0
 45 92  1  0
 45 93  1  0
M  END
> <Uni-Dock RESULT> 
ENERGY=   -9.018  LOWER_BOUND=    0.820  UPPER_BOUND=    3.314
INTER + INTRA:          -9.018
INTER:                  -9.018
INTRA:                   0.000
UNBOUND:                 0.000

$$$$

     RDKit          3D

 93 90  0  0  0  0  0  0  0  0999 V2000
   44.1994    4.3802   12.0573 O   0  0  0  0  0  0  0  0  0  0  0  0
   44.7338    4.6092   11.4429 C   0  0  0  0  0  0  0  0  0  0  0  0
   44.9466    5.1116   12.8744 C   0  0  0  0  0  0  0  0  0  0  0  0
   44.6323    3.1014   11.1925 C   0  0  0  0  0  0  0  0  0  0  0  0
   43.4764    5.2690   10.8606 C   0  0  0  0  0  0  0  0  0  0  0  0
   43.6674    2.3914   12.0995 C   0  0  0  0  0  0  0  0  0  0  0  0
   46.0815    4.4475   13.6021 C   0  0  0  0  0  0  0  0  0  0  0  0
   43.4428    5.9050    9.8162 O   0  0  0  0  0  0  0  0  0  0  0  0
   46.6659    3.4183   13.3155 O   0  0  0  0  0  0  0  0  0  0  0  0
   43.4839    2.5875   13.2874 O   0  0  0  0  0  0  0  0  0  0  0  0
   45.8501    5.1006   10.6580 O   0  0  0  0  0  0  0  0  0  0  0  0
   42.3515    5.0598   11.5643 O   0  0  0  0  0  0  0  0  0  0  0  0
   46.4131    5.1218   14.7240 O   0  0  0  0  0  0  0  0  0  0  0  0
   42.9877    1.4204   11.4582 O   0  0  0  0  0  0  0  0  0  0  0  0
   45.5090    3.1770   12.5805 N   0  0  0  0  0  0  0  0  0  0  0  0
   43.5032    5.0788   11.4890 N   0  0  0  0  0  0  0  0  0  0  0  0
   45.0135    3.0886   11.1955 C   0  0  0  0  0  0  0  0  0  0  0  0
   43.5998    3.6842   11.0223 C   0  0  0  0  0  0  0  0  0  0  0  0
   45.4107    4.5708   13.0485 C   0  0  0  0  0  0  0  0  0  0  0  0
   43.9970    5.1664   12.8747 C   0  0  0  0  0  0  0  0  0  0  0  0
   44.2484    4.5680   11.7983 C   0  0  0  0  0  0  0  0  0  0  0  0
   43.3502    3.4638   11.2020 C   0  0  0  0  0  0  0  0  0  0  0  0
   45.3552    3.9926   12.6937 C   0  0  0  0  0  0  0  0  0  0  0  0
   43.2818    5.4682   12.5933 C   0  0  0  0  0  0  0  0  0  0  0  0
   46.1006    5.0451   13.4726 C   0  0  0  0  0  0  0  0  0  0  0  0
   44.1094    2.5003   10.3409 C   0  0  0  0  0  0  0  0  0  0  0  0
   42.8063    6.5372   12.2459 O   0  0  0  0  0  0  0  0  0  0  0  0
   45.1537    2.7314    9.7531 O   0  0  0  0  0  0  0  0  0  0  0  0
   45.6876    6.1163   13.8784 O   0  0  0  0  0  0  0  0  0  0  0  0
   44.8474    5.3122   10.7285 O   0  0  0  0  0  0  0  0  0  0  0  0
   42.8991    4.9201   13.7696 O   0  0  0  0  0  0  0  0  0  0  0  0
   43.4998    1.3069   10.2330 O   0  0  0  0  0  0  0  0  0  0  0  0
   47.3564    4.6495   13.7689 O   0  0  0  0  0  0  0  0  0  0  0  0
   45.6598    3.1815   11.7357 N   0  0  0  0  0  0  0  0  0  0  0  0
   43.3122    5.0363   12.2985 N   0  0  0  0  0  0  0  0  0  0  0  0
   44.4412    3.2559   10.9103 C   0  0  0  0  0  0  0  0  0  0  0  0
   43.1900    3.6977   11.6939 C   0  0  0  0  0  0  0  0  0  0  0  0
   45.6163    4.1365   12.8545 C   0  0  0  0  0  0  0  0  0  0  0  0
   44.7117    5.3629   12.6147 C   0  0  0  0  0  0  0  0  0  0  0  0
   43.3864    5.1601   11.8699 N   0  0  0  0  0  0  0  0  0  0  0  0
   45.4696    3.0877   12.2862 N   0  0  0  0  0  0  0  0  0  0  0  0
   44.1945    5.0928   13.1019 C   0  0  0  0  0  0  0  0  0  0  0  0
   45.5705    4.4273   12.8817 C   0  0  0  0  0  0  0  0  0  0  0  0
   43.2661    3.8000   11.3121 C   0  0  0  0  0  0  0  0  0  0  0  0
   44.6345    3.1239   11.0776 C   0  0  0  0  0  0  0  0  0  0  0  0
   44.2941    3.6069   11.4812 H   0  0  0  0  0  0  0  0  0  0  0  0
   45.0233    4.3949   12.5671 H   0  0  0  0  0  0  0  0  0  0  0  0
   44.0471    4.9951   13.4879 H   0  0  0  0  0  0  0  0  0  0  0  0
   45.1768    6.1852   12.8364 H   0  0  0  0  0  0  0  0  0  0  0  0
   45.6063    2.6079   11.2727 H   0  0  0  0  0  0  0  0  0  0  0  0
   44.3149    2.9372   10.1532 H   0  0  0  0  0  0  0  0  0  0  0  0
   45.5189    5.2709    9.7529 H   0  0  0  0  0  0  0  0  0  0  0  0
   41.6513    5.5372   11.0693 H   0  0  0  0  0  0  0  0  0  0  0  0
   47.1349    4.5857   15.1138 H   0  0  0  0  0  0  0  0  0  0  0  0
   42.4347    1.0117   12.1578 H   0  0  0  0  0  0  0  0  0  0  0  0
   44.8952    2.6091   13.1662 H   0  0  0  0  0  0  0  0  0  0  0  0
   44.1202    5.6440   10.9044 H   0  0  0  0  0  0  0  0  0  0  0  0
   45.7176    3.6008   10.5280 H   0  0  0  0  0  0  0  0  0  0  0  0
   45.0027    2.0357   10.8928 H   0  0  0  0  0  0  0  0  0  0  0  0
   42.8688    3.0718   11.5646 H   0  0  0  0  0  0  0  0  0  0  0  0
   43.3185    3.6475    9.9640 H   0  0  0  0  0  0  0  0  0  0  0  0
   45.6915    4.6067   14.1069 H   0  0  0  0  0  0  0  0  0  0  0  0
   46.1419    5.1839   12.5073 H   0  0  0  0  0  0  0  0  0  0  0  0
   44.0078    6.2192   13.1779 H   0  0  0  0  0  0  0  0  0  0  0  0
   43.2923    4.6532   13.5408 H   0  0  0  0  0  0  0  0  0  0  0  0
   42.5711    3.9059   10.5684 H   0  0  0  0  0  0  0  0  0  0  0  0
   42.8598    2.9007   12.0056 H   0  0  0  0  0  0  0  0  0  0  0  0
   44.9502    3.2791   13.4207 H   0  0  0  0  0  0  0  0  0  0  0  0
   46.0936    3.4692   12.0748 H   0  0  0  0  0  0  0  0  0  0  0  0
   45.3037    4.6882   10.1279 H   0  0  0  0  0  0  0  0  0  0  0  0
   42.3500    5.6301   14.1690 H   0  0  0  0  0  0  0  0  0  0  0  0
   44.0641    0.7849    9.6237 H   0  0  0  0  0  0  0  0  0  0  0  0
   47.7291    5.4049   14.2713 H   0  0  0  0  0  0  0  0  0  0  0  0
   46.4601    3.3897   11.1398 H   0  0  0  0  0  0  0  0  0  0  0  0
   42.7581    5.0486   13.1540 H   0  0  0  0  0  0  0  0  0  0  0  0
   44.2657    2.2721   10.4621 H   0  0  0  0  0  0  0  0  0  0  0  0
   44.6115    3.9567   10.0828 H   0  0  0  0  0  0  0  0  0  0  0  0
   42.3198    3.6960   11.0286 H   0  0  0  0  0  0  0  0  0  0  0  0
   42.9870    2.9650   12.4855 H   0  0  0  0  0  0  0  0  0  0  0  0
   45.2649    3.6023   13.7459 H   0  0  0  0  0  0  0  0  0  0  0  0
   46.6361    4.4706   13.0766 H   0  0  0  0  0  0  0  0  0  0  0  0
   45.1208    5.9520   11.7845 H   0  0  0  0  0  0  0  0  0  0  0  0
   44.7348    6.0141   13.4960 H   0  0  0  0  0  0  0  0  0  0  0  0
   43.8914    5.7324   11.1941 H   0  0  0  0  0  0  0  0  0  0  0  0
   46.3996    2.7455   12.0510 H   0  0  0  0  0  0  0  0  0  0  0  0
   43.6349    4.5494   13.8735 H   0  0  0  0  0  0  0  0  0  0  0  0
   44.3424    6.1109   13.4788 H   0  0  0  0  0  0  0  0  0  0  0  0
   46.0881    4.3471   13.8436 H   0  0  0  0  0  0  0  0  0  0  0  0
   46.1866    5.0660   12.2362 H   0  0  0  0  0  0  0  0  0  0  0  0
   42.6552    3.1851   11.9847 H   0  0  0  0  0  0  0  0  0  0  0  0
   42.7250    3.8587   10.3613 H   0  0  0  0  0  0  0  0  0  0  0  0
   45.1720    3.6530   10.2806 H   0  0  0  0  0  0  0  0  0  0  0  0
   44.4725    2.0978   10.7303 H   0  0  0  0  0  0  0  0  0  0  0  0
  3  2  1  0
  4  2  1  0
  5  2  1  0
  6  4  1  0
  7  3  1  0
  8  5  2  0
  9  7  2  0
 10  6  2  0
 11  2  1  0
 12  5  1  0
 13  7  1  0
 14  6  1  0
 16 20  1  0
 17 15  1  0
 18 17  1  0
 19 15  1  0
 20 19  1  0
 16 18  1  0
 22 21  1  0
 23 21  1  0
 24 21  1  0
 25 23  1  0
 26 22  1  0
 27 24  2  0
 28 26  2  0
 29 25  2  0
 30 21  1  0
 31 24  1  0
 32 26  1  0
 33 25  1  0
 35 39  1  0
 36 34  1  0
 37 36  1  0
 38 34  1  0
 39 38  1  0
 35 37  1  0
 41 45  1  0
 42 40  1  0
 43 42  1  0
 44 40  1  0
 45 44  1  0
 41 43  1  0
  1 46  1  0
  1 47  1  0
  3 48  1  0
  3 49  1  0
  4 50  1  0
  4 51  1  0
 11 52  1  0
 12 53  1  0
 13 54  1  0
 14 55  1  0
 15 56  1  0
 16 57  1  0
 17 58  1  0
 17 59  1  0
 18 60  1  0
 18 61  1  0
 19 62  1  0
 19 63  1  0
 20 64  1  0
 20 65  1  0
 22 66  1  0
 22 67  1  0
 23 68  1  0
 23 69  1  0
 30 70  1  0
 31 71  1  0
 32 72  1  0
 33 73  1  0
 34 74  1  0
 35 75  1  0
 36 76  1  0
 36 77  1  0
 37 78  1  0
 37 79  1  0
 38 80  1  0
 38 81  1  0
 39 82  1  0
 39 83  1  0
 40 84  1  0
 41 85  1  0
 42 86  1  0
 42 87  1  0
 43 88  1  0
 43 89  1  0
 44 90  1  0
 44 91  1  0
 45 92  1  0
 45 93  1  0
M  END
> <Uni-Dock RESULT> 
ENERGY=   -8.846  LOWER_BOUND=    1.605  UPPER_BOUND=    3.767
INTER + INTRA:          -8.846
INTER:                  -8.846
INTRA:                   0.000
UNBOUND:                 0.000

$$$$

     RDKit          3D

 93 90  0  0  0  0  0  0  0  0999 V2000
   44.4496    4.3307   11.4031 O   0  0  0  0  0  0  0  0  0  0  0  0
   45.0688    4.8375   11.1284 C   0  0  0  0  0  0  0  0  0  0  0  0
   44.9623    3.4008   10.6074 C   0  0  0  0  0  0  0  0  0  0  0  0
   43.8564    5.7651   11.0014 C   0  0  0  0  0  0  0  0  0  0  0  0
   45.4855    4.8068   12.6051 C   0  0  0  0  0  0  0  0  0  0  0  0
   42.5705    5.1675   11.4985 C   0  0  0  0  0  0  0  0  0  0  0  0
   44.4428    3.2880    9.2017 C   0  0  0  0  0  0  0  0  0  0  0  0
   46.4559    5.3902   13.0680 O   0  0  0  0  0  0  0  0  0  0  0  0
   43.8668    4.1306    8.5374 O   0  0  0  0  0  0  0  0  0  0  0  0
   42.1821    4.0216   11.3598 O   0  0  0  0  0  0  0  0  0  0  0  0
   46.1639    5.4615   10.4109 O   0  0  0  0  0  0  0  0  0  0  0  0
   44.6624    4.1145   13.4100 O   0  0  0  0  0  0  0  0  0  0  0  0
   44.6498    2.0541    8.6942 O   0  0  0  0  0  0  0  0  0  0  0  0
   41.8006    6.0739   12.1325 O   0  0  0  0  0  0  0  0  0  0  0  0
   43.6104    4.6840    9.7884 N   0  0  0  0  0  0  0  0  0  0  0  0
   45.0678    4.3637   12.3583 N   0  0  0  0  0  0  0  0  0  0  0  0
   43.9626    5.8329   10.6413 C   0  0  0  0  0  0  0  0  0  0  0  0
   44.1044    5.4556   12.1316 C   0  0  0  0  0  0  0  0  0  0  0  0
   44.5720    3.5910   10.0161 C   0  0  0  0  0  0  0  0  0  0  0  0
   44.7141    3.2143   11.5065 C   0  0  0  0  0  0  0  0  0  0  0  0
   44.7337    4.4706   11.4701 C   0  0  0  0  0  0  0  0  0  0  0  0
   43.7634    5.3660   12.2692 C   0  0  0  0  0  0  0  0  0  0  0  0
   44.2106    4.1662   10.0588 C   0  0  0  0  0  0  0  0  0  0  0  0
   44.8675    3.1896   12.3175 C   0  0  0  0  0  0  0  0  0  0  0  0
   45.0127    3.1133    9.3390 C   0  0  0  0  0  0  0  0  0  0  0  0
   43.5389    6.6995   11.6228 C   0  0  0  0  0  0  0  0  0  0  0  0
   45.7775    2.8907   13.0739 O   0  0  0  0  0  0  0  0  0  0  0  0
   44.3070    7.2680   10.8637 O   0  0  0  0  0  0  0  0  0  0  0  0
   45.6277    2.1769    9.8162 O   0  0  0  0  0  0  0  0  0  0  0  0
   46.0035    5.1299   11.3697 O   0  0  0  0  0  0  0  0  0  0  0  0
   43.7875    2.3803   12.2226 O   0  0  0  0  0  0  0  0  0  0  0  0
   42.3771    7.2671   11.9909 O   0  0  0  0  0  0  0  0  0  0  0  0
   44.9408    3.2614    7.9996 O   0  0  0  0  0  0  0  0  0  0  0  0
   44.0156    5.4326    9.8962 N   0  0  0  0  0  0  0  0  0  0  0  0
   44.6324    3.6569   12.2909 N   0  0  0  0  0  0  0  0  0  0  0  0
   44.0473    5.9006   11.2933 C   0  0  0  0  0  0  0  0  0  0  0  0
   43.7067    4.8034   12.3204 C   0  0  0  0  0  0  0  0  0  0  0  0
   44.3470    4.0024    9.7956 C   0  0  0  0  0  0  0  0  0  0  0  0
   45.2127    3.4627   10.9527 C   0  0  0  0  0  0  0  0  0  0  0  0
   44.9409    3.9776   12.3717 N   0  0  0  0  0  0  0  0  0  0  0  0
   43.6455    4.9733    9.8941 N   0  0  0  0  0  0  0  0  0  0  0  0
   44.6173    3.0880   11.2406 C   0  0  0  0  0  0  0  0  0  0  0  0
   44.5694    3.8306    9.8874 C   0  0  0  0  0  0  0  0  0  0  0  0
   43.9778    5.0946   12.3813 C   0  0  0  0  0  0  0  0  0  0  0  0
   43.9245    5.8532   11.0374 C   0  0  0  0  0  0  0  0  0  0  0  0
   44.0613    5.2157   11.3321 H   0  0  0  0  0  0  0  0  0  0  0  0
   44.5039    4.0244   10.4854 H   0  0  0  0  0  0  0  0  0  0  0  0
   44.3261    2.7790   11.2460 H   0  0  0  0  0  0  0  0  0  0  0  0
   45.9654    2.9525   10.6137 H   0  0  0  0  0  0  0  0  0  0  0  0
   43.7043    6.0988    9.9698 H   0  0  0  0  0  0  0  0  0  0  0  0
   44.0541    6.6837   11.5714 H   0  0  0  0  0  0  0  0  0  0  0  0
   46.5863    6.1007   11.0199 H   0  0  0  0  0  0  0  0  0  0  0  0
   45.0600    4.1908   14.3040 H   0  0  0  0  0  0  0  0  0  0  0  0
   44.2531    2.1001    7.7994 H   0  0  0  0  0  0  0  0  0  0  0  0
   40.9866    5.5779   12.3643 H   0  0  0  0  0  0  0  0  0  0  0  0
   42.6896    4.3526   10.0793 H   0  0  0  0  0  0  0  0  0  0  0  0
   45.9868    4.6960   12.0635 H   0  0  0  0  0  0  0  0  0  0  0  0
   44.8983    6.2766   10.2789 H   0  0  0  0  0  0  0  0  0  0  0  0
   43.1884    6.6005   10.5339 H   0  0  0  0  0  0  0  0  0  0  0  0
   43.1274    5.1633   12.5362 H   0  0  0  0  0  0  0  0  0  0  0  0
   44.4300    6.3349   12.6983 H   0  0  0  0  0  0  0  0  0  0  0  0
   44.2456    2.7119    9.4496 H   0  0  0  0  0  0  0  0  0  0  0  0
   45.5492    3.8821    9.6111 H   0  0  0  0  0  0  0  0  0  0  0  0
   45.4880    2.4462   11.6138 H   0  0  0  0  0  0  0  0  0  0  0  0
   43.7780    2.7721   11.8696 H   0  0  0  0  0  0  0  0  0  0  0  0
   44.1646    5.5652   13.2708 H   0  0  0  0  0  0  0  0  0  0  0  0
   42.7935    4.8659   12.3816 H   0  0  0  0  0  0  0  0  0  0  0  0
   43.1712    3.8191   10.0844 H   0  0  0  0  0  0  0  0  0  0  0  0
   44.2534    5.0752    9.4471 H   0  0  0  0  0  0  0  0  0  0  0  0
   45.8651    6.0244   10.9969 H   0  0  0  0  0  0  0  0  0  0  0  0
   44.0549    1.6014   12.7582 H   0  0  0  0  0  0  0  0  0  0  0  0
   42.3629    8.1379   11.5396 H   0  0  0  0  0  0  0  0  0  0  0  0
   45.4899    2.5271    7.6514 H   0  0  0  0  0  0  0  0  0  0  0  0
   44.6919    5.9783    9.3633 H   0  0  0  0  0  0  0  0  0  0  0  0
   44.1118    2.8231   12.5605 H   0  0  0  0  0  0  0  0  0  0  0  0
   43.3420    6.7321   11.3962 H   0  0  0  0  0  0  0  0  0  0  0  0
   45.0452    6.3007   11.5144 H   0  0  0  0  0  0  0  0  0  0  0  0
   43.7143    5.2292   13.3296 H   0  0  0  0  0  0  0  0  0  0  0  0
   42.6864    4.4440   12.1342 H   0  0  0  0  0  0  0  0  0  0  0  0
   43.4081    3.4362    9.7578 H   0  0  0  0  0  0  0  0  0  0  0  0
   44.8553    3.8214    8.8417 H   0  0  0  0  0  0  0  0  0  0  0  0
   46.1907    3.9593   10.9292 H   0  0  0  0  0  0  0  0  0  0  0  0
   45.4053    2.3945   10.8000 H   0  0  0  0  0  0  0  0  0  0  0  0
   45.8696    4.3659   12.2098 H   0  0  0  0  0  0  0  0  0  0  0  0
   43.7412    5.4973    9.0260 H   0  0  0  0  0  0  0  0  0  0  0  0
   43.6562    2.5942   11.4310 H   0  0  0  0  0  0  0  0  0  0  0  0
   45.3733    2.2965   11.1911 H   0  0  0  0  0  0  0  0  0  0  0  0
   44.2579    3.1303    9.1050 H   0  0  0  0  0  0  0  0  0  0  0  0
   45.5764    4.1794    9.6258 H   0  0  0  0  0  0  0  0  0  0  0  0
   42.9814    4.7118   12.6349 H   0  0  0  0  0  0  0  0  0  0  0  0
   44.2591    5.7917   13.1783 H   0  0  0  0  0  0  0  0  0  0  0  0
   44.8772    6.3721   10.8723 H   0  0  0  0  0  0  0  0  0  0  0  0
   43.1449    6.6209   11.0898 H   0  0  0  0  0  0  0  0  0  0  0  0
  3  2  1  0
  4  2  1  0
  5  2  1  0
  6  4  1  0
  7  3  1  0
  8  5  2  0
  9  7  2  0
 10  6  2  0
 11  2  1  0
 12  5  1  0
 13  7  1  0
 14  6  1  0
 16 20  1  0
 17 15  1  0
 18 17  1  0
 19 15  1  0
 20 19  1  0
 16 18  1  0
 22 21  1  0
 23 21  1  0
 24 21  1  0
 25 23  1  0
 26 22  1  0
 27 24  2  0
 28 26  2  0
 29 25  2  0
 30 21  1  0
 31 24  1  0
 32 26  1  0
 33 25  1  0
 35 39  1  0
 36 34  1  0
 37 36  1  0
 38 34  1  0
 39 38  1  0
 35 37  1  0
 41 45  1  0
 42 40  1  0
 43 42  1  0
 44 40  1  0
 45 44  1  0
 41 43  1  0
  1 46  1  0
  1 47  1  0
  3 48  1  0
  3 49  1  0
  4 50  1  0
  4 51  1  0
 11 52  1  0
 12 53  1  0
 13 54  1  0
 14 55  1  0
 15 56  1  0
 16 57  1  0
 17 58  1  0
 17 59  1  0
 18 60  1  0
 18 61  1  0
 19 62  1  0
 19 63  1  0
 20 64  1  0
 20 65  1  0
 22 66  1  0
 22 67  1  0
 23 68  1  0
 23 69  1  0
 30 70  1  0
 31 71  1  0
 32 72  1  0
 33 73  1  0
 34 74  1  0
 35 75  1  0
 36 76  1  0
 36 77  1  0
 37 78  1  0
 37 79  1  0
 38 80  1  0
 38 81  1  0
 39 82  1  0
 39 83  1  0
 40 84  1  0
 41 85  1  0
 42 86  1  0
 42 87  1  0
 43 88  1  0
 43 89  1  0
 44 90  1  0
 44 91  1  0
 45 92  1  0
 45 93  1  0
M  END
> <Uni-Dock RESULT> 
ENERGY=   -8.752  LOWER_BOUND=    1.382  UPPER_BOUND=    2.261
INTER + INTRA:          -8.752
INTER:                  -8.752
INTRA:                   0.000
UNBOUND:                 0.000

$$$$

     RDKit          3D

 93 90  0  0  0  0  0  0  0  0999 V2000
   48.9766    4.5067   18.3775 O   0  0  0  0  0  0  0  0  0  0  0  0
   48.6077    3.7841   18.6171 C   0  0  0  0  0  0  0  0  0  0  0  0
   49.1423    4.7608   19.6693 C   0  0  0  0  0  0  0  0  0  0  0  0
   47.6054    4.2906   17.5752 C   0  0  0  0  0  0  0  0  0  0  0  0
   49.7905    3.1571   17.8667 C   0  0  0  0  0  0  0  0  0  0  0  0
   48.0233    5.5586   16.8858 C   0  0  0  0  0  0  0  0  0  0  0  0
   48.0775    5.5348   20.3944 C   0  0  0  0  0  0  0  0  0  0  0  0
   49.9888    1.9549   17.7578 O   0  0  0  0  0  0  0  0  0  0  0  0
   46.9076    5.6813   20.0896 O   0  0  0  0  0  0  0  0  0  0  0  0
   48.5708    6.5270   17.3813 O   0  0  0  0  0  0  0  0  0  0  0  0
   47.9663    2.7023   19.3395 O   0  0  0  0  0  0  0  0  0  0  0  0
   50.6078    4.0370   17.2647 O   0  0  0  0  0  0  0  0  0  0  0  0
   48.5695    6.1435   21.4946 O   0  0  0  0  0  0  0  0  0  0  0  0
   47.6920    5.5597   15.5796 O   0  0  0  0  0  0  0  0  0  0  0  0
   47.3779    5.3299   18.8277 N   0  0  0  0  0  0  0  0  0  0  0  0
   49.7959    3.7890   18.0469 N   0  0  0  0  0  0  0  0  0  0  0  0
   47.3305    4.2417   17.8352 C   0  0  0  0  0  0  0  0  0  0  0  0
   48.6787    4.0241   17.1151 C   0  0  0  0  0  0  0  0  0  0  0  0
   48.4962    5.0966   19.7585 C   0  0  0  0  0  0  0  0  0  0  0  0
   49.8441    4.8785   19.0381 C   0  0  0  0  0  0  0  0  0  0  0  0
   49.0058    4.1857   18.4077 C   0  0  0  0  0  0  0  0  0  0  0  0
   48.7488    4.3217   16.8921 C   0  0  0  0  0  0  0  0  0  0  0  0
   48.0608    5.0682   19.2361 C   0  0  0  0  0  0  0  0  0  0  0  0
   50.4796    4.5997   18.5907 C   0  0  0  0  0  0  0  0  0  0  0  0
   48.4342    5.1384   20.6940 C   0  0  0  0  0  0  0  0  0  0  0  0
   47.3618    3.9114   16.4997 C   0  0  0  0  0  0  0  0  0  0  0  0
   51.4466    3.8666   18.7213 O   0  0  0  0  0  0  0  0  0  0  0  0
   46.6437    3.1342   17.1077 O   0  0  0  0  0  0  0  0  0  0  0  0
   49.5411    5.0499   21.1937 O   0  0  0  0  0  0  0  0  0  0  0  0
   48.8276    2.8153   18.7913 O   0  0  0  0  0  0  0  0  0  0  0  0
   50.6638    5.9379   18.5162 O   0  0  0  0  0  0  0  0  0  0  0  0
   46.9609    4.4705   15.3446 O   0  0  0  0  0  0  0  0  0  0  0  0
   47.3608    5.3928   21.4715 O   0  0  0  0  0  0  0  0  0  0  0  0
   47.0711    4.5705   18.5719 N   0  0  0  0  0  0  0  0  0  0  0  0
   50.0969    4.5418   18.2377 N   0  0  0  0  0  0  0  0  0  0  0  0
   47.7747    4.0013   17.4089 C   0  0  0  0  0  0  0  0  0  0  0  0
   49.1371    4.6636   17.1259 C   0  0  0  0  0  0  0  0  0  0  0  0
   48.0135    5.1010   19.5699 C   0  0  0  0  0  0  0  0  0  0  0  0
   49.4128    4.4522   19.5375 C   0  0  0  0  0  0  0  0  0  0  0  0
   50.0244    4.0996   18.1759 N   0  0  0  0  0  0  0  0  0  0  0  0
   47.2743    5.1220   18.6225 N   0  0  0  0  0  0  0  0  0  0  0  0
   49.7113    5.0808   19.2316 C   0  0  0  0  0  0  0  0  0  0  0  0
   48.2475    4.9948   19.7161 C   0  0  0  0  0  0  0  0  0  0  0  0
   49.0602    4.2721   17.0733 C   0  0  0  0  0  0  0  0  0  0  0  0
   47.5911    4.1797   17.5402 C   0  0  0  0  0  0  0  0  0  0  0  0
   48.2515    4.3550   17.7528 H   0  0  0  0  0  0  0  0  0  0  0  0
   48.5328    4.8189   19.1803 H   0  0  0  0  0  0  0  0  0  0  0  0
   49.8422    5.4847   19.2390 H   0  0  0  0  0  0  0  0  0  0  0  0
   49.6931    4.1883   20.4282 H   0  0  0  0  0  0  0  0  0  0  0  0
   46.6112    4.4455   18.0070 H   0  0  0  0  0  0  0  0  0  0  0  0
   47.4660    3.5118   16.8124 H   0  0  0  0  0  0  0  0  0  0  0  0
   48.0938    1.8851   18.8163 H   0  0  0  0  0  0  0  0  0  0  0  0
   51.2992    3.4876   16.8364 H   0  0  0  0  0  0  0  0  0  0  0  0
   47.7982    6.6257   21.8592 H   0  0  0  0  0  0  0  0  0  0  0  0
   47.9737    6.4436   15.2607 H   0  0  0  0  0  0  0  0  0  0  0  0
   47.5678    6.1988   18.3264 H   0  0  0  0  0  0  0  0  0  0  0  0
   49.6023    2.9219   18.5494 H   0  0  0  0  0  0  0  0  0  0  0  0
   47.0202    3.3143   18.3326 H   0  0  0  0  0  0  0  0  0  0  0  0
   46.5576    4.4751   17.0947 H   0  0  0  0  0  0  0  0  0  0  0  0
   48.9102    4.8939   16.4878 H   0  0  0  0  0  0  0  0  0  0  0  0
   48.5951    3.1634   16.4423 H   0  0  0  0  0  0  0  0  0  0  0  0
   48.5796    5.9578   20.4306 H   0  0  0  0  0  0  0  0  0  0  0  0
   48.2651    4.2274   20.3868 H   0  0  0  0  0  0  0  0  0  0  0  0
   50.6171    4.6456   19.7789 H   0  0  0  0  0  0  0  0  0  0  0  0
   50.1539    5.8052   18.5393 H   0  0  0  0  0  0  0  0  0  0  0  0
   49.4381    3.6802   16.3288 H   0  0  0  0  0  0  0  0  0  0  0  0
   48.9082    5.3591   16.5733 H   0  0  0  0  0  0  0  0  0  0  0  0
   48.0409    6.0968   18.8578 H   0  0  0  0  0  0  0  0  0  0  0  0
   47.0425    4.6647   19.1854 H   0  0  0  0  0  0  0  0  0  0  0  0
   47.9437    2.5176   18.4940 H   0  0  0  0  0  0  0  0  0  0  0  0
   51.6217    6.0343   18.7113 H   0  0  0  0  0  0  0  0  0  0  0  0
   46.0678    4.1009   15.1773 H   0  0  0  0  0  0  0  0  0  0  0  0
   47.7288    5.4184   22.3803 H   0  0  0  0  0  0  0  0  0  0  0  0
   46.5064    3.8337   18.9931 H   0  0  0  0  0  0  0  0  0  0  0  0
   50.7000    5.3634   18.2263 H   0  0  0  0  0  0  0  0  0  0  0  0
   47.1283    4.1004   16.5303 H   0  0  0  0  0  0  0  0  0  0  0  0
   47.9262    2.9266   17.5727 H   0  0  0  0  0  0  0  0  0  0  0  0
   49.5844    4.2170   16.2313 H   0  0  0  0  0  0  0  0  0  0  0  0
   48.9784    5.7271   16.9055 H   0  0  0  0  0  0  0  0  0  0  0  0
   48.1163    6.1803   19.4025 H   0  0  0  0  0  0  0  0  0  0  0  0
   47.5776    4.9834   20.5684 H   0  0  0  0  0  0  0  0  0  0  0  0
   49.3213    3.3917   19.8029 H   0  0  0  0  0  0  0  0  0  0  0  0
   50.0472    4.9090   20.3057 H   0  0  0  0  0  0  0  0  0  0  0  0
   49.8919    3.1668   18.5651 H   0  0  0  0  0  0  0  0  0  0  0  0
   46.3364    4.9381   18.9743 H   0  0  0  0  0  0  0  0  0  0  0  0
   49.9246    6.0917   18.8622 H   0  0  0  0  0  0  0  0  0  0  0  0
   50.3827    4.9077   20.0799 H   0  0  0  0  0  0  0  0  0  0  0  0
   48.0639    5.7910   20.4454 H   0  0  0  0  0  0  0  0  0  0  0  0
   48.0891    4.0403   20.2339 H   0  0  0  0  0  0  0  0  0  0  0  0
   49.2375    5.2381   16.5844 H   0  0  0  0  0  0  0  0  0  0  0  0
   49.2486    3.4991   16.3200 H   0  0  0  0  0  0  0  0  0  0  0  0
   47.3775    3.1569   17.8752 H   0  0  0  0  0  0  0  0  0  0  0  0
   46.9312    4.3845   16.6903 H   0  0  0  0  0  0  0  0  0  0  0  0
  3  2  1  0
  4  2  1  0
  5  2  1  0
  6  4  1  0
  7  3  1  0
  8  5  2  0
  9  7  2  0
 10  6  2  0
 11  2  1  0
 12  5  1  0
 13  7  1  0
 14  6  1  0
 16 20  1  0
 17 15  1  0
 18 17  1  0
 19 15  1  0
 20 19  1  0
 16 18  1  0
 22 21  1  0
 23 21  1  0
 24 21  1  0
 25 23  1  0
 26 22  1  0
 27 24  2  0
 28 26  2  0
 29 25  2  0
 30 21  1  0
 31 24  1  0
 32 26  1  0
 33 25  1  0
 35 39  1  0
 36 34  1  0
 37 36  1  0
 38 34  1  0
 39 38  1  0
 35 37  1  0
 41 45  1  0
 42 40  1  0
 43 42  1  0
 44 40  1  0
 45 44  1  0
 41 43  1  0
  1 46  1  0
  1 47  1  0
  3 48  1  0
  3 49  1  0
  4 50  1  0
  4 51  1  0
 11 52  1  0
 12 53  1  0
 13 54  1  0
 14 55  1  0
 15 56  1  0
 16 57  1  0
 17 58  1  0
 17 59  1  0
 18 60  1  0
 18 61  1  0
 19 62  1  0
 19 63  1  0
 20 64  1  0
 20 65  1  0
 22 66  1  0
 22 67  1  0
 23 68  1  0
 23 69  1  0
 30 70  1  0
 31 71  1  0
 32 72  1  0
 33 73  1  0
 34 74  1  0
 35 75  1  0
 36 76  1  0
 36 77  1  0
 37 78  1  0
 37 79  1  0
 38 80  1  0
 38 81  1  0
 39 82  1  0
 39 83  1  0
 40 84  1  0
 41 85  1  0
 42 86  1  0
 42 87  1  0
 43 88  1  0
 43 89  1  0
 44 90  1  0
 44 91  1  0
 45 92  1  0
 45 93  1  0
M  END
> <Uni-Dock RESULT> 
ENERGY=   -7.500  LOWER_BOUND=    6.750  UPPER_BOUND=    8.837
INTER + INTRA:          -7.500
INTER:                  -7.500
INTRA:                   0.000
UNBOUND:                 0.000

$$$$

     RDKit          3D

 93 90  0  0  0  0  0  0  0  0999 V2000
   48.5895    5.4088   18.7988 O   0  0  0  0  0  0  0  0  0  0  0  0
   47.8670    5.4440   19.2373 C   0  0  0  0  0  0  0  0  0  0  0  0
   47.8632    4.9526   17.7864 C   0  0  0  0  0  0  0  0  0  0  0  0
   48.7889    4.7589   20.2509 C   0  0  0  0  0  0  0  0  0  0  0  0
   48.1783    6.9466   19.2581 C   0  0  0  0  0  0  0  0  0  0  0  0
   50.2113    4.6146   19.7885 C   0  0  0  0  0  0  0  0  0  0  0  0
   47.6892    3.4675   17.6353 C   0  0  0  0  0  0  0  0  0  0  0  0
   47.4759    7.7970   19.7870 O   0  0  0  0  0  0  0  0  0  0  0  0
   47.8111    2.6007   18.4820 O   0  0  0  0  0  0  0  0  0  0  0  0
   50.6032    4.3282   18.6716 O   0  0  0  0  0  0  0  0  0  0  0  0
   46.5095    5.3043   19.7287 O   0  0  0  0  0  0  0  0  0  0  0  0
   49.3422    7.2902   18.6818 O   0  0  0  0  0  0  0  0  0  0  0  0
   47.3948    3.1299   16.3615 O   0  0  0  0  0  0  0  0  0  0  0  0
   51.0930    4.8091   20.7889 O   0  0  0  0  0  0  0  0  0  0  0  0
   48.5565    3.5843   19.1252 N   0  0  0  0  0  0  0  0  0  0  0  0
   48.4778    6.5410   18.8367 N   0  0  0  0  0  0  0  0  0  0  0  0
   48.5235    4.4875   20.2891 C   0  0  0  0  0  0  0  0  0  0  0  0
   49.1180    5.8802   19.9879 C   0  0  0  0  0  0  0  0  0  0  0  0
   47.9184    4.2453   17.9731 C   0  0  0  0  0  0  0  0  0  0  0  0
   48.5127    5.6380   17.6725 C   0  0  0  0  0  0  0  0  0  0  0  0
   48.3555    5.5975   18.9189 C   0  0  0  0  0  0  0  0  0  0  0  0
   49.4910    5.8460   19.9341 C   0  0  0  0  0  0  0  0  0  0  0  0
   48.2009    4.1084   18.5771 C   0  0  0  0  0  0  0  0  0  0  0  0
   48.7511    6.4286   17.6821 C   0  0  0  0  0  0  0  0  0  0  0  0
   47.2658    3.8547   17.4233 C   0  0  0  0  0  0  0  0  0  0  0  0
   49.2625    5.1507   21.2420 C   0  0  0  0  0  0  0  0  0  0  0  0
   48.3230    7.5236   17.3548 O   0  0  0  0  0  0  0  0  0  0  0  0
   48.1804    4.8240   21.7022 O   0  0  0  0  0  0  0  0  0  0  0  0
   47.0329    4.5748   16.4694 O   0  0  0  0  0  0  0  0  0  0  0  0
   47.1231    6.0854   19.4668 O   0  0  0  0  0  0  0  0  0  0  0  0
   49.7411    5.8571   16.9585 O   0  0  0  0  0  0  0  0  0  0  0  0
   50.4018    4.9331   21.9217 O   0  0  0  0  0  0  0  0  0  0  0  0
   46.7011    2.6313   17.4996 O   0  0  0  0  0  0  0  0  0  0  0  0
   48.1745    3.8567   19.8437 N   0  0  0  0  0  0  0  0  0  0  0  0
   48.9009    6.2900   18.1646 N   0  0  0  0  0  0  0  0  0  0  0  0
   48.7407    5.1041   20.3871 C   0  0  0  0  0  0  0  0  0  0  0  0
   49.6197    5.8731   19.3818 C   0  0  0  0  0  0  0  0  0  0  0  0
   47.9759    3.9401   18.3880 C   0  0  0  0  0  0  0  0  0  0  0  0
   47.7941    5.3736   17.8476 C   0  0  0  0  0  0  0  0  0  0  0  0
   48.6338    6.4996   18.4635 N   0  0  0  0  0  0  0  0  0  0  0  0
   48.5455    3.6903   19.4164 N   0  0  0  0  0  0  0  0  0  0  0  0
   48.4888    5.3592   17.5394 C   0  0  0  0  0  0  0  0  0  0  0  0
   47.8383    4.1266   18.2043 C   0  0  0  0  0  0  0  0  0  0  0  0
   49.3796    6.0483   19.6532 C   0  0  0  0  0  0  0  0  0  0  0  0
   48.7366    4.8211   20.3352 C   0  0  0  0  0  0  0  0  0  0  0  0
   48.8133    5.1544   19.7067 H   0  0  0  0  0  0  0  0  0  0  0  0
   48.1511    4.6241   18.4369 H   0  0  0  0  0  0  0  0  0  0  0  0
   48.7788    5.2339   17.2556 H   0  0  0  0  0  0  0  0  0  0  0  0
   47.0239    5.4272   17.2598 H   0  0  0  0  0  0  0  0  0  0  0  0
   48.4179    3.7690   20.5360 H   0  0  0  0  0  0  0  0  0  0  0  0
   48.7853    5.3430   21.1818 H   0  0  0  0  0  0  0  0  0  0  0  0
   46.3528    6.0307   20.3657 H   0  0  0  0  0  0  0  0  0  0  0  0
   49.3931    8.2657   18.7770 H   0  0  0  0  0  0  0  0  0  0  0  0
   47.3308    2.1524   16.3879 H   0  0  0  0  0  0  0  0  0  0  0  0
   51.9669    4.6459   20.3744 H   0  0  0  0  0  0  0  0  0  0  0  0
   49.5358    3.4220   18.8864 H   0  0  0  0  0  0  0  0  0  0  0  0
   47.4982    6.6991   19.0762 H   0  0  0  0  0  0  0  0  0  0  0  0
   47.4873    4.5919   20.6343 H   0  0  0  0  0  0  0  0  0  0  0  0
   49.0829    4.0244   21.1092 H   0  0  0  0  0  0  0  0  0  0  0  0
   50.1951    5.7921   19.7991 H   0  0  0  0  0  0  0  0  0  0  0  0
   49.0037    6.5210   20.8692 H   0  0  0  0  0  0  0  0  0  0  0  0
   48.0335    3.6042   17.0921 H   0  0  0  0  0  0  0  0  0  0  0  0
   46.8411    4.3330   18.1607 H   0  0  0  0  0  0  0  0  0  0  0  0
   47.9534    6.1010   16.8519 H   0  0  0  0  0  0  0  0  0  0  0  0
   49.5494    5.5342   17.3288 H   0  0  0  0  0  0  0  0  0  0  0  0
   49.5759    6.9169   20.1575 H   0  0  0  0  0  0  0  0  0  0  0  0
   50.4483    5.5050   19.5212 H   0  0  0  0  0  0  0  0  0  0  0  0
   49.1649    3.6562   18.3170 H   0  0  0  0  0  0  0  0  0  0  0  0
   47.7937    3.5730   19.4430 H   0  0  0  0  0  0  0  0  0  0  0  0
   46.9868    5.6784   20.3466 H   0  0  0  0  0  0  0  0  0  0  0  0
   49.8267    6.4664   16.1926 H   0  0  0  0  0  0  0  0  0  0  0  0
   50.1222    4.5142   22.7634 H   0  0  0  0  0  0  0  0  0  0  0  0
   46.1285    2.5861   16.7045 H   0  0  0  0  0  0  0  0  0  0  0  0
   47.2794    3.6885   20.3015 H   0  0  0  0  0  0  0  0  0  0  0  0
   49.5661    6.3004   17.3924 H   0  0  0  0  0  0  0  0  0  0  0  0
   49.3294    4.8583   21.2773 H   0  0  0  0  0  0  0  0  0  0  0  0
   47.9211    5.7552   20.7174 H   0  0  0  0  0  0  0  0  0  0  0  0
   50.0336    6.7659   19.8629 H   0  0  0  0  0  0  0  0  0  0  0  0
   50.4710    5.2420   19.0958 H   0  0  0  0  0  0  0  0  0  0  0  0
   48.8436    3.4811   17.8982 H   0  0  0  0  0  0  0  0  0  0  0  0
   47.1076    3.3311   18.1121 H   0  0  0  0  0  0  0  0  0  0  0  0
   46.8707    5.7972   18.2616 H   0  0  0  0  0  0  0  0  0  0  0  0
   47.6587    5.3417   16.7604 H   0  0  0  0  0  0  0  0  0  0  0  0
   47.7012    6.7793   18.7656 H   0  0  0  0  0  0  0  0  0  0  0  0
   48.0119    2.9572   19.8802 H   0  0  0  0  0  0  0  0  0  0  0  0
   49.4735    5.0914   17.1364 H   0  0  0  0  0  0  0  0  0  0  0  0
   47.8758    5.6752   16.6879 H   0  0  0  0  0  0  0  0  0  0  0  0
   47.8237    3.2985   17.4877 H   0  0  0  0  0  0  0  0  0  0  0  0
   46.7946    4.3545   18.4553 H   0  0  0  0  0  0  0  0  0  0  0  0
   50.4136    5.8186   19.3672 H   0  0  0  0  0  0  0  0  0  0  0  0
   49.4279    6.8754   20.3700 H   0  0  0  0  0  0  0  0  0  0  0  0
   47.7684    5.1072   20.7652 H   0  0  0  0  0  0  0  0  0  0  0  0
   49.3740    4.4971   21.1650 H   0  0  0  0  0  0  0  0  0  0  0  0
  3  2  1  0
  4  2  1  0
  5  2  1  0
  6  4  1  0
  7  3  1  0
  8  5  2  0
  9  7  2  0
 10  6  2  0
 11  2  1  0
 12  5  1  0
 13  7  1  0
 14  6  1  0
 16 20  1  0
 17 15  1  0
 18 17  1  0
 19 15  1  0
 20 19  1  0
 16 18  1  0
 22 21  1  0
 23 21  1  0
 24 21  1  0
 25 23  1  0
 26 22  1  0
 27 24  2  0
 28 26  2  0
 29 25  2  0
 30 21  1  0
 31 24  1  0
 32 26  1  0
 33 25  1  0
 35 39  1  0
 36 34  1  0
 37 36  1  0
 38 34  1  0
 39 38  1  0
 35 37  1  0
 41 45  1  0
 42 40  1  0
 43 42  1  0
 44 40  1  0
 45 44  1  0
 41 43  1  0
  1 46  1  0
  1 47  1  0
  3 48  1  0
  3 49  1  0
  4 50  1  0
  4 51  1  0
 11 52  1  0
 12 53  1  0
 13 54  1  0
 14 55  1  0
 15 56  1  0
 16 57  1  0
 17 58  1  0
 17 59  1  0
 18 60  1  0
 18 61  1  0
 19 62  1  0
 19 63  1  0
 20 64  1  0
 20 65  1  0
 22 66  1  0
 22 67  1  0
 23 68  1  0
 23 69  1  0
 30 70  1  0
 31 71  1  0
 32 72  1  0
 33 73  1  0
 34 74  1  0
 35 75  1  0
 36 76  1  0
 36 77  1  0
 37 78  1  0
 37 79  1  0
 38 80  1  0
 38 81  1  0
 39 82  1  0
 39 83  1  0
 40 84  1  0
 41 85  1  0
 42 86  1  0
 42 87  1  0
 43 88  1  0
 43 89  1  0
 44 90  1  0
 44 91  1  0
 45 92  1  0
 45 93  1  0
M  END
> <Uni-Dock RESULT> 
ENERGY=   -7.199  LOWER_BOUND=    6.966  UPPER_BOUND=    8.749
INTER + INTRA:          -7.199
INTER:                  -7.199
INTRA:                   0.000
UNBOUND:                 0.000

$$$$

     RDKit          3D

 93 90  0  0  0  0  0  0  0  0999 V2000
   47.6095   11.7924   20.2968 O   0  0  0  0  0  0  0  0  0  0  0  0
   47.0862   12.4439   20.4284 C   0  0  0  0  0  0  0  0  0  0  0  0
   47.9391   11.8977   21.5778 C   0  0  0  0  0  0  0  0  0  0  0  0
   47.7781   12.8839   19.1345 C   0  0  0  0  0  0  0  0  0  0  0  0
   46.0154   11.4077   20.0610 C   0  0  0  0  0  0  0  0  0  0  0  0
   48.7429   11.8746   18.5795 C   0  0  0  0  0  0  0  0  0  0  0  0
   49.1046   12.7691   21.9533 C   0  0  0  0  0  0  0  0  0  0  0  0
   44.8127   11.6290   20.0296 O   0  0  0  0  0  0  0  0  0  0  0  0
   49.6011   13.6837   21.3208 O   0  0  0  0  0  0  0  0  0  0  0  0
   49.5200   11.1715   19.1999 O   0  0  0  0  0  0  0  0  0  0  0  0
   46.3744   13.5959   20.9479 O   0  0  0  0  0  0  0  0  0  0  0  0
   46.4930   10.2021   19.7104 O   0  0  0  0  0  0  0  0  0  0  0  0
   49.6335   12.4048   23.1410 O   0  0  0  0  0  0  0  0  0  0  0  0
   48.7061   11.8230   17.2334 O   0  0  0  0  0  0  0  0  0  0  0  0
   48.9695   13.0514   20.2539 N   0  0  0  0  0  0  0  0  0  0  0  0
   46.6247   11.2260   20.2269 N   0  0  0  0  0  0  0  0  0  0  0  0
   47.8549   13.2168   19.3043 C   0  0  0  0  0  0  0  0  0  0  0  0
   47.1144   11.8948   19.0085 C   0  0  0  0  0  0  0  0  0  0  0  0
   48.4810   12.3807   21.4717 C   0  0  0  0  0  0  0  0  0  0  0  0
   47.7401   11.0591   21.1755 C   0  0  0  0  0  0  0  0  0  0  0  0
   47.3032   11.8885   20.3382 C   0  0  0  0  0  0  0  0  0  0  0  0
   47.3432   11.6666   18.8115 C   0  0  0  0  0  0  0  0  0  0  0  0
   48.5414   12.6416   20.8459 C   0  0  0  0  0  0  0  0  0  0  0  0
   47.2140   10.4699   20.9350 C   0  0  0  0  0  0  0  0  0  0  0  0
   48.6482   12.6705   22.3485 C   0  0  0  0  0  0  0  0  0  0  0  0
   47.3826   12.9506   18.0394 C   0  0  0  0  0  0  0  0  0  0  0  0
   46.2179    9.8994   21.3496 O   0  0  0  0  0  0  0  0  0  0  0  0
   46.9682   14.0324   18.4232 O   0  0  0  0  0  0  0  0  0  0  0  0
   48.2495   11.8437   23.1485 O   0  0  0  0  0  0  0  0  0  0  0  0
   46.1267   12.6382   20.6713 O   0  0  0  0  0  0  0  0  0  0  0  0
   48.3938    9.8087   20.8999 O   0  0  0  0  0  0  0  0  0  0  0  0
   47.9079   12.8030   16.8107 O   0  0  0  0  0  0  0  0  0  0  0  0
   49.3370   13.7486   22.7783 O   0  0  0  0  0  0  0  0  0  0  0  0
   48.3340   13.5284   19.9300 N   0  0  0  0  0  0  0  0  0  0  0  0
   47.2485   10.7393   20.4871 N   0  0  0  0  0  0  0  0  0  0  0  0
   47.4316   12.7909   19.0280 C   0  0  0  0  0  0  0  0  0  0  0  0
   47.5586   11.2595   19.1434 C   0  0  0  0  0  0  0  0  0  0  0  0
   48.6263   12.7612   21.1512 C   0  0  0  0  0  0  0  0  0  0  0  0
   47.5444   11.7302   21.5339 C   0  0  0  0  0  0  0  0  0  0  0  0
   46.8527   10.9451   20.4126 N   0  0  0  0  0  0  0  0  0  0  0  0
   48.7866   13.1635   20.0301 N   0  0  0  0  0  0  0  0  0  0  0  0
   47.9961   11.1576   21.3196 C   0  0  0  0  0  0  0  0  0  0  0  0
   48.4649   12.6284   21.3604 C   0  0  0  0  0  0  0  0  0  0  0  0
   47.2126   11.4537   19.0758 C   0  0  0  0  0  0  0  0  0  0  0  0
   47.6753   12.9268   19.0983 C   0  0  0  0  0  0  0  0  0  0  0  0
   47.6407   12.3295   19.4908 H   0  0  0  0  0  0  0  0  0  0  0  0
   48.1429   12.2927   20.9325 H   0  0  0  0  0  0  0  0  0  0  0  0
   48.3302   10.8985   21.3594 H   0  0  0  0  0  0  0  0  0  0  0  0
   47.3054   11.8102   22.4710 H   0  0  0  0  0  0  0  0  0  0  0  0
   48.3076   13.8343   19.2577 H   0  0  0  0  0  0  0  0  0  0  0  0
   47.0099   13.0827   18.3740 H   0  0  0  0  0  0  0  0  0  0  0  0
   45.5078   13.6332   20.4945 H   0  0  0  0  0  0  0  0  0  0  0  0
   45.6974    9.6643   19.5078 H   0  0  0  0  0  0  0  0  0  0  0  0
   50.3860   13.0212   23.2603 H   0  0  0  0  0  0  0  0  0  0  0  0
   49.4004   11.1711   16.9985 H   0  0  0  0  0  0  0  0  0  0  0  0
   49.6599   12.4385   19.8180 H   0  0  0  0  0  0  0  0  0  0  0  0
   45.9373   11.8419   20.6629 H   0  0  0  0  0  0  0  0  0  0  0  0
   47.1500   13.9573   19.7023 H   0  0  0  0  0  0  0  0  0  0  0  0
   48.2487   13.6287   18.3686 H   0  0  0  0  0  0  0  0  0  0  0  0
   47.7771   11.2107   18.4640 H   0  0  0  0  0  0  0  0  0  0  0  0
   46.2612   12.0968   18.3514 H   0  0  0  0  0  0  0  0  0  0  0  0
   49.3346   12.1785   22.1280 H   0  0  0  0  0  0  0  0  0  0  0  0
   47.8188   13.0644   22.0172 H   0  0  0  0  0  0  0  0  0  0  0  0
   47.3467   10.6469   22.1114 H   0  0  0  0  0  0  0  0  0  0  0  0
   48.4444   10.3188   20.7760 H   0  0  0  0  0  0  0  0  0  0  0  0
   46.4468   11.1275   18.4803 H   0  0  0  0  0  0  0  0  0  0  0  0
   48.2224   11.0697   18.5394 H   0  0  0  0  0  0  0  0  0  0  0  0
   49.4660   12.1926   20.4650 H   0  0  0  0  0  0  0  0  0  0  0  0
   48.5020   13.6838   20.5076 H   0  0  0  0  0  0  0  0  0  0  0  0
   46.1125   13.4567   20.1345 H   0  0  0  0  0  0  0  0  0  0  0  0
   48.1831    8.9683   21.3630 H   0  0  0  0  0  0  0  0  0  0  0  0
   47.8446   13.6900   16.3965 H   0  0  0  0  0  0  0  0  0  0  0  0
   49.3410   13.6519   23.7543 H   0  0  0  0  0  0  0  0  0  0  0  0
   47.8843   14.4086   20.1789 H   0  0  0  0  0  0  0  0  0  0  0  0
   47.8115    9.9036   20.6404 H   0  0  0  0  0  0  0  0  0  0  0  0
   47.6415   13.1006   17.9987 H   0  0  0  0  0  0  0  0  0  0  0  0
   46.3951   13.0814   19.2425 H   0  0  0  0  0  0  0  0  0  0  0  0
   46.8879   10.7794   18.4225 H   0  0  0  0  0  0  0  0  0  0  0  0
   48.5806   10.9643   18.8729 H   0  0  0  0  0  0  0  0  0  0  0  0
   49.5810   12.2404   21.0070 H   0  0  0  0  0  0  0  0  0  0  0  0
   48.7778   13.4595   21.9821 H   0  0  0  0  0  0  0  0  0  0  0  0
   46.6147   12.2603   21.7750 H   0  0  0  0  0  0  0  0  0  0  0  0
   47.8454   11.2039   22.4471 H   0  0  0  0  0  0  0  0  0  0  0  0
   46.0703   11.4995   20.7586 H   0  0  0  0  0  0  0  0  0  0  0  0
   48.9714   14.1629   20.0975 H   0  0  0  0  0  0  0  0  0  0  0  0
   48.8264   10.5082   21.0149 H   0  0  0  0  0  0  0  0  0  0  0  0
   47.7051   10.8437   22.3282 H   0  0  0  0  0  0  0  0  0  0  0  0
   49.3544   12.7038   21.9949 H   0  0  0  0  0  0  0  0  0  0  0  0
   47.6858   13.2479   21.8222 H   0  0  0  0  0  0  0  0  0  0  0  0
   47.9995   10.8208   18.6469 H   0  0  0  0  0  0  0  0  0  0  0  0
   46.3405   11.3594   18.4194 H   0  0  0  0  0  0  0  0  0  0  0  0
   46.8299   13.5715   19.3700 H   0  0  0  0  0  0  0  0  0  0  0  0
   47.9917   13.2186   18.0910 H   0  0  0  0  0  0  0  0  0  0  0  0
  3  2  1  0
  4  2  1  0
  5  2  1  0
  6  4  1  0
  7  3  1  0
  8  5  2  0
  9  7  2  0
 10  6  2  0
 11  2  1  0
 12  5  1  0
 13  7  1  0
 14  6  1  0
 16 20  1  0
 17 15  1  0
 18 17  1  0
 19 15  1  0
 20 19  1  0
 16 18  1  0
 22 21  1  0
 23 21  1  0
 24 21  1  0
 25 23  1  0
 26 22  1  0
 27 24  2  0
 28 26  2  0
 29 25  2  0
 30 21  1  0
 31 24  1  0
 32 26  1  0
 33 25  1  0
 35 39  1  0
 36 34  1  0
 37 36  1  0
 38 34  1  0
 39 38  1  0
 35 37  1  0
 41 45  1  0
 42 40  1  0
 43 42  1  0
 44 40  1  0
 45 44  1  0
 41 43  1  0
  1 46  1  0
  1 47  1  0
  3 48  1  0
  3 49  1  0
  4 50  1  0
  4 51  1  0
 11 52  1  0
 12 53  1  0
 13 54  1  0
 14 55  1  0
 15 56  1  0
 16 57  1  0
 17 58  1  0
 17 59  1  0
 18 60  1  0
 18 61  1  0
 19 62  1  0
 19 63  1  0
 20 64  1  0
 20 65  1  0
 22 66  1  0
 22 67  1  0
 23 68  1  0
 23 69  1  0
 30 70  1  0
 31 71  1  0
 32 72  1  0
 33 73  1  0
 34 74  1  0
 35 75  1  0
 36 76  1  0
 36 77  1  0
 37 78  1  0
 37 79  1  0
 38 80  1  0
 38 81  1  0
 39 82  1  0
 39 83  1  0
 40 84  1  0
 41 85  1  0
 42 86  1  0
 42 87  1  0
 43 88  1  0
 43 89  1  0
 44 90  1  0
 44 91  1  0
 45 92  1  0
 45 93  1  0
M  END
> <Uni-Dock RESULT> 
ENERGY=   -6.779  LOWER_BOUND=   10.033  UPPER_BOUND=   11.886
INTER + INTRA:          -6.779
INTER:                  -6.779
INTRA:                   0.000
UNBOUND:                 0.000

$$$$

     RDKit          3D

 93 90  0  0  0  0  0  0  0  0999 V2000
   47.8404   11.6700   19.5259 O   0  0  0  0  0  0  0  0  0  0  0  0
   47.0373   11.9184   19.6207 C   0  0  0  0  0  0  0  0  0  0  0  0
   47.3778   10.4266   19.5476 C   0  0  0  0  0  0  0  0  0  0  0  0
   47.7363   12.7890   20.6695 C   0  0  0  0  0  0  0  0  0  0  0  0
   47.2753   12.5560   18.2451 C   0  0  0  0  0  0  0  0  0  0  0  0
   49.2306   12.6350   20.6993 C   0  0  0  0  0  0  0  0  0  0  0  0
   47.3021    9.7081   20.8655 C   0  0  0  0  0  0  0  0  0  0  0  0
   46.4387   13.1886   17.6157 O   0  0  0  0  0  0  0  0  0  0  0  0
   47.2665   10.1834   21.9861 O   0  0  0  0  0  0  0  0  0  0  0  0
   49.8735   11.6081   20.5755 O   0  0  0  0  0  0  0  0  0  0  0  0
   45.6112   12.0092   19.8685 O   0  0  0  0  0  0  0  0  0  0  0  0
   48.5237   12.4199   17.7680 O   0  0  0  0  0  0  0  0  0  0  0  0
   47.3137    8.3680   20.7008 O   0  0  0  0  0  0  0  0  0  0  0  0
   49.8578   13.8064   20.9237 O   0  0  0  0  0  0  0  0  0  0  0  0
   47.8089   11.2904   21.3401 N   0  0  0  0  0  0  0  0  0  0  0  0
   47.6775   12.0935   18.4820 N   0  0  0  0  0  0  0  0  0  0  0  0
   47.4802   12.6652   20.9238 C   0  0  0  0  0  0  0  0  0  0  0  0
   48.0703   13.0346   19.5458 C   0  0  0  0  0  0  0  0  0  0  0  0
   47.4184   10.3489   20.2759 C   0  0  0  0  0  0  0  0  0  0  0  0
   48.0082   10.7189   18.8980 C   0  0  0  0  0  0  0  0  0  0  0  0
   47.5781   11.7955   19.3837 C   0  0  0  0  0  0  0  0  0  0  0  0
   48.4470   13.0565   19.5748 C   0  0  0  0  0  0  0  0  0  0  0  0
   47.5640   10.9076   20.6365 C   0  0  0  0  0  0  0  0  0  0  0  0
   48.2063   11.0698   18.1773 C   0  0  0  0  0  0  0  0  0  0  0  0
   46.9215    9.5640   20.4088 C   0  0  0  0  0  0  0  0  0  0  0  0
   47.9601   13.9333   20.6886 C   0  0  0  0  0  0  0  0  0  0  0  0
   47.8184   11.0792   17.0202 O   0  0  0  0  0  0  0  0  0  0  0  0
   46.8166   13.9889   21.1114 O   0  0  0  0  0  0  0  0  0  0  0  0
   46.8788    8.9134   19.3803 O   0  0  0  0  0  0  0  0  0  0  0  0
   46.2357   12.1948   19.0744 O   0  0  0  0  0  0  0  0  0  0  0  0
   49.3552   10.4272   18.4892 O   0  0  0  0  0  0  0  0  0  0  0  0
   48.9265   14.7216   21.1907 O   0  0  0  0  0  0  0  0  0  0  0  0
   46.4038    9.0598   21.5486 O   0  0  0  0  0  0  0  0  0  0  0  0
   47.2653   11.9543   21.3319 N   0  0  0  0  0  0  0  0  0  0  0  0
   48.2499   11.4885   18.4891 N   0  0  0  0  0  0  0  0  0  0  0  0
   47.6449   13.0276   20.3961 C   0  0  0  0  0  0  0  0  0  0  0  0
   48.6947   12.5960   19.3538 C   0  0  0  0  0  0  0  0  0  0  0  0
   47.3940   10.6250   20.7138 C   0  0  0  0  0  0  0  0  0  0  0  0
   47.2798   10.6205   19.1754 C   0  0  0  0  0  0  0  0  0  0  0  0
   47.9146   11.7758   18.3912 N   0  0  0  0  0  0  0  0  0  0  0  0
   47.7289   11.5898   21.3474 N   0  0  0  0  0  0  0  0  0  0  0  0
   48.0258   10.4913   19.1076 C   0  0  0  0  0  0  0  0  0  0  0  0
   47.2935   10.4967   20.4671 C   0  0  0  0  0  0  0  0  0  0  0  0
   48.3931   12.8518   19.2791 C   0  0  0  0  0  0  0  0  0  0  0  0
   47.6640   12.8763   20.6401 C   0  0  0  0  0  0  0  0  0  0  0  0
   47.8657   12.4472   20.1041 H   0  0  0  0  0  0  0  0  0  0  0  0
   47.5261   10.9584   20.1036 H   0  0  0  0  0  0  0  0  0  0  0  0
   48.3768   10.2536   19.1336 H   0  0  0  0  0  0  0  0  0  0  0  0
   46.6590    9.9375   18.8759 H   0  0  0  0  0  0  0  0  0  0  0  0
   47.3512   12.6020   21.6773 H   0  0  0  0  0  0  0  0  0  0  0  0
   47.5011   13.8431   20.4662 H   0  0  0  0  0  0  0  0  0  0  0  0
   45.2868   12.8157   19.4186 H   0  0  0  0  0  0  0  0  0  0  0  0
   48.5126   12.8741   16.8980 H   0  0  0  0  0  0  0  0  0  0  0  0
   47.2849    8.0201   21.6166 H   0  0  0  0  0  0  0  0  0  0  0  0
   50.8082   13.5666   20.9636 H   0  0  0  0  0  0  0  0  0  0  0  0
   48.8225   11.2332   21.4483 H   0  0  0  0  0  0  0  0  0  0  0  0
   46.6636   12.1498   18.3781 H   0  0  0  0  0  0  0  0  0  0  0  0
   46.3897   12.7847   20.9059 H   0  0  0  0  0  0  0  0  0  0  0  0
   47.8604   13.3615   21.6793 H   0  0  0  0  0  0  0  0  0  0  0  0
   49.1650   13.0715   19.6075 H   0  0  0  0  0  0  0  0  0  0  0  0
   47.7362   14.0400   19.2665 H   0  0  0  0  0  0  0  0  0  0  0  0
   47.7533    9.3439   20.5555 H   0  0  0  0  0  0  0  0  0  0  0  0
   46.3237   10.3107   20.2141 H   0  0  0  0  0  0  0  0  0  0  0  0
   47.6283   10.0222   18.1426 H   0  0  0  0  0  0  0  0  0  0  0  0
   49.0988   10.6011   18.9160 H   0  0  0  0  0  0  0  0  0  0  0  0
   48.4365   13.6690   18.6645 H   0  0  0  0  0  0  0  0  0  0  0  0
   49.4854   12.7718   19.7844 H   0  0  0  0  0  0  0  0  0  0  0  0
   48.5792   10.7217   21.0057 H   0  0  0  0  0  0  0  0  0  0  0  0
   46.9955   11.4037   21.4321 H   0  0  0  0  0  0  0  0  0  0  0  0
   45.9228   12.8107   19.7679 H   0  0  0  0  0  0  0  0  0  0  0  0
   49.5852    9.9769   17.6470 H   0  0  0  0  0  0  0  0  0  0  0  0
   48.4830   15.2668   21.8749 H   0  0  0  0  0  0  0  0  0  0  0  0
   46.0257    8.1973   21.2744 H   0  0  0  0  0  0  0  0  0  0  0  0
   46.2981   12.1073   21.6149 H   0  0  0  0  0  0  0  0  0  0  0  0
   49.0699   10.9425   18.2276 H   0  0  0  0  0  0  0  0  0  0  0  0
   48.0292   13.8733   20.9763 H   0  0  0  0  0  0  0  0  0  0  0  0
   46.7467   13.3818   19.8742 H   0  0  0  0  0  0  0  0  0  0  0  0
   48.9542   13.4495   18.7180 H   0  0  0  0  0  0  0  0  0  0  0  0
   49.6132   12.2962   19.8747 H   0  0  0  0  0  0  0  0  0  0  0  0
   48.3670   10.2076   21.0010 H   0  0  0  0  0  0  0  0  0  0  0  0
   46.6345    9.9597   21.1400 H   0  0  0  0  0  0  0  0  0  0  0  0
   46.2710   10.9441   18.8908 H   0  0  0  0  0  0  0  0  0  0  0  0
   47.3923    9.5962   18.8018 H   0  0  0  0  0  0  0  0  0  0  0  0
   46.9275   11.9436   18.1993 H   0  0  0  0  0  0  0  0  0  0  0  0
   47.1351   11.6221   22.1742 H   0  0  0  0  0  0  0  0  0  0  0  0
   49.0857   10.2484   19.2541 H   0  0  0  0  0  0  0  0  0  0  0  0
   47.6065    9.7010   18.4751 H   0  0  0  0  0  0  0  0  0  0  0  0
   47.4729    9.5429   20.9748 H   0  0  0  0  0  0  0  0  0  0  0  0
   46.2118   10.5745   20.2996 H   0  0  0  0  0  0  0  0  0  0  0  0
   49.4732   12.7396   19.4351 H   0  0  0  0  0  0  0  0  0  0  0  0
   48.2466   13.8129   18.7740 H   0  0  0  0  0  0  0  0  0  0  0  0
   46.6135   13.1540   20.4872 H   0  0  0  0  0  0  0  0  0  0  0  0
   48.1124   13.6495   21.2732 H   0  0  0  0  0  0  0  0  0  0  0  0
  3  2  1  0
  4  2  1  0
  5  2  1  0
  6  4  1  0
  7  3  1  0
  8  5  2  0
  9  7  2  0
 10  6  2  0
 11  2  1  0
 12  5  1  0
 13  7  1  0
 14  6  1  0
 16 20  1  0
 17 15  1  0
 18 17  1  0
 19 15  1  0
 20 19  1  0
 16 18  1  0
 22 21  1  0
 23 21  1  0
 24 21  1  0
 25 23  1  0
 26 22  1  0
 27 24  2  0
 28 26  2  0
 29 25  2  0
 30 21  1  0
 31 24  1  0
 32 26  1  0
 33 25  1  0
 35 39  1  0
 36 34  1  0
 37 36  1  0
 38 34  1  0
 39 38  1  0
 35 37  1  0
 41 45  1  0
 42 40  1  0
 43 42  1  0
 44 40  1  0
 45 44  1  0
 41 43  1  0
  1 46  1  0
  1 47  1  0
  3 48  1  0
  3 49  1  0
  4 50  1  0
  4 51  1  0
 11 52  1  0
 12 53  1  0
 13 54  1  0
 14 55  1  0
 15 56  1  0
 16 57  1  0
 17 58  1  0
 17 59  1  0
 18 60  1  0
 18 61  1  0
 19 62  1  0
 19 63  1  0
 20 64  1  0
 20 65  1  0
 22 66  1  0
 22 67  1  0
 23 68  1  0
 23 69  1  0
 30 70  1  0
 31 71  1  0
 32 72  1  0
 33 73  1  0
 34 74  1  0
 35 75  1  0
 36 76  1  0
 36 77  1  0
 37 78  1  0
 37 79  1  0
 38 80  1  0
 38 81  1  0
 39 82  1  0
 39 83  1  0
 40 84  1  0
 41 85  1  0
 42 86  1  0
 42 87  1  0
 43 88  1  0
 43 89  1  0
 44 90  1  0
 44 91  1  0
 45 92  1  0
 45 93  1  0
M  END
> <Uni-Dock RESULT> 
ENERGY=   -6.726  LOWER_BOUND=    9.349  UPPER_BOUND=   11.219
INTER + INTRA:          -6.726
INTER:                  -6.726
INTRA:                   0.000
UNBOUND:                 0.000

$$$$
