
     RDKit          3D

 93 90  0  0  0  0  0  0  0  0999 V2000
   44.1834    5.0538   12.0297 O   0  0  0  0  0  0  0  0  0  0  0  0
   44.4719    5.3036   11.9529 C   0  0  0  0  0  0  0  0  0  0  0  0
   44.9846    6.1531   13.1216 C   0  0  0  0  0  0  0  0  0  0  0  0
   44.8113    3.8149   12.0772 C   0  0  0  0  0  0  0  0  0  0  0  0
   42.9431    5.4749   11.8837 C   0  0  0  0  0  0  0  0  0  0  0  0
   44.0432    3.0108   11.0678 C   0  0  0  0  0  0  0  0  0  0  0  0
   46.4708    6.0582   13.3081 C   0  0  0  0  0  0  0  0  0  0  0  0
   42.2991    5.7920   10.8954 O   0  0  0  0  0  0  0  0  0  0  0  0
   47.1019    5.0434   13.5518 O   0  0  0  0  0  0  0  0  0  0  0  0
   44.1426    3.1060    9.8554 O   0  0  0  0  0  0  0  0  0  0  0  0
   45.0630    5.8340   10.7565 O   0  0  0  0  0  0  0  0  0  0  0  0
   42.3128    5.1813   13.0380 O   0  0  0  0  0  0  0  0  0  0  0  0
   47.0903    7.2510   13.2379 O   0  0  0  0  0  0  0  0  0  0  0  0
   43.1687    2.1549   11.6228 O   0  0  0  0  0  0  0  0  0  0  0  0
   43.3844    5.1988   11.2078 N   0  0  0  0  0  0  0  0  0  0  0  0
   45.7570    4.7036   13.0398 N   0  0  0  0  0  0  0  0  0  0  0  0
   44.2673    4.0259   11.1092 C   0  0  0  0  0  0  0  0  0  0  0  0
   44.9389    3.6366   12.4400 C   0  0  0  0  0  0  0  0  0  0  0  0
   43.8638    6.1593   12.2161 C   0  0  0  0  0  0  0  0  0  0  0  0
   45.3629    6.0341   12.5512 C   0  0  0  0  0  0  0  0  0  0  0  0
   43.7589    5.1775   12.6120 C   0  0  0  0  0  0  0  0  0  0  0  0
   45.1517    5.6152   13.0854 C   0  0  0  0  0  0  0  0  0  0  0  0
   43.5120    3.6695   12.6121 C   0  0  0  0  0  0  0  0  0  0  0  0
   43.3424    5.8131   11.2789 C   0  0  0  0  0  0  0  0  0  0  0  0
   44.4035    2.8668   11.7151 C   0  0  0  0  0  0  0  0  0  0  0  0
   46.2218    5.6259   12.0304 C   0  0  0  0  0  0  0  0  0  0  0  0
   43.0395    5.2550   10.2400 O   0  0  0  0  0  0  0  0  0  0  0  0
   46.0837    5.5072   10.8267 O   0  0  0  0  0  0  0  0  0  0  0  0
   44.0766    2.2727   10.7024 O   0  0  0  0  0  0  0  0  0  0  0  0
   42.8195    5.7115   13.5958 O   0  0  0  0  0  0  0  0  0  0  0  0
   43.2602    7.1634   11.3774 O   0  0  0  0  0  0  0  0  0  0  0  0
   47.4442    5.8335   12.5594 O   0  0  0  0  0  0  0  0  0  0  0  0
   45.6647    2.7720   12.1781 O   0  0  0  0  0  0  0  0  0  0  0  0
   43.2845    5.8015   11.9965 N   0  0  0  0  0  0  0  0  0  0  0  0
   45.7460    4.1551   12.1742 N   0  0  0  0  0  0  0  0  0  0  0  0
   43.3556    4.4328   11.4531 C   0  0  0  0  0  0  0  0  0  0  0  0
   44.4046    3.5563   12.1704 C   0  0  0  0  0  0  0  0  0  0  0  0
   44.6341    6.3950   11.9500 C   0  0  0  0  0  0  0  0  0  0  0  0
   45.6920    5.5351   12.6743 C   0  0  0  0  0  0  0  0  0  0  0  0
   43.1617    4.6949   11.7778 N   0  0  0  0  0  0  0  0  0  0  0  0
   45.4587    5.2135   13.2546 N   0  0  0  0  0  0  0  0  0  0  0  0
   44.2100    3.6682   11.6605 C   0  0  0  0  0  0  0  0  0  0  0  0
   45.3544    3.8540   12.6874 C   0  0  0  0  0  0  0  0  0  0  0  0
   43.7652    6.0281   11.5786 C   0  0  0  0  0  0  0  0  0  0  0  0
   45.1744    6.1992   12.1987 C   0  0  0  0  0  0  0  0  0  0  0  0
   44.4944    4.1566   12.2221 H   0  0  0  0  0  0  0  0  0  0  0  0
   44.9459    5.6154   12.2319 H   0  0  0  0  0  0  0  0  0  0  0  0
   44.7226    7.2047   12.9498 H   0  0  0  0  0  0  0  0  0  0  0  0
   44.5258    5.8712   14.0775 H   0  0  0  0  0  0  0  0  0  0  0  0
   44.5844    3.4417   13.0824 H   0  0  0  0  0  0  0  0  0  0  0  0
   45.8716    3.6142   11.8797 H   0  0  0  0  0  0  0  0  0  0  0  0
   44.5917    5.4399    9.9917 H   0  0  0  0  0  0  0  0  0  0  0  0
   41.3603    5.2985   12.8270 H   0  0  0  0  0  0  0  0  0  0  0  0
   48.0411    7.0420   13.3519 H   0  0  0  0  0  0  0  0  0  0  0  0
   42.7654    1.6915   10.8563 H   0  0  0  0  0  0  0  0  0  0  0  0
   42.4462    4.8974   11.4709 H   0  0  0  0  0  0  0  0  0  0  0  0
   45.6495    4.6653   14.0522 H   0  0  0  0  0  0  0  0  0  0  0  0
   43.6865    3.1776   10.7320 H   0  0  0  0  0  0  0  0  0  0  0  0
   45.0390    4.2306   10.3574 H   0  0  0  0  0  0  0  0  0  0  0  0
   44.1582    3.3477   13.1558 H   0  0  0  0  0  0  0  0  0  0  0  0
   45.5735    2.7564   12.2889 H   0  0  0  0  0  0  0  0  0  0  0  0
   43.2871    6.0184   13.1408 H   0  0  0  0  0  0  0  0  0  0  0  0
   43.6522    7.1724   11.8565 H   0  0  0  0  0  0  0  0  0  0  0  0
   45.6373    6.7824   13.3029 H   0  0  0  0  0  0  0  0  0  0  0  0
   45.9562    6.2653   11.6581 H   0  0  0  0  0  0  0  0  0  0  0  0
   45.0982    6.6393   13.4763 H   0  0  0  0  0  0  0  0  0  0  0  0
   45.4800    4.9817   13.9186 H   0  0  0  0  0  0  0  0  0  0  0  0
   43.5979    3.2673   13.6311 H   0  0  0  0  0  0  0  0  0  0  0  0
   42.4736    3.4571   12.3198 H   0  0  0  0  0  0  0  0  0  0  0  0
   42.7976    6.6789   13.4576 H   0  0  0  0  0  0  0  0  0  0  0  0
   42.9852    7.4335   10.4726 H   0  0  0  0  0  0  0  0  0  0  0  0
   48.0507    5.8359   11.7876 H   0  0  0  0  0  0  0  0  0  0  0  0
   46.1041    2.2052   11.5080 H   0  0  0  0  0  0  0  0  0  0  0  0
   43.0050    5.7355   12.9753 H   0  0  0  0  0  0  0  0  0  0  0  0
   46.3682    3.6022   12.7623 H   0  0  0  0  0  0  0  0  0  0  0  0
   42.3689    3.9667   11.5508 H   0  0  0  0  0  0  0  0  0  0  0  0
   43.5779    4.4777   10.3796 H   0  0  0  0  0  0  0  0  0  0  0  0
   44.4563    2.5810   11.6746 H   0  0  0  0  0  0  0  0  0  0  0  0
   44.0842    3.3759   13.2042 H   0  0  0  0  0  0  0  0  0  0  0  0
   44.5953    7.3863   12.4145 H   0  0  0  0  0  0  0  0  0  0  0  0
   44.9296    6.5496   10.9042 H   0  0  0  0  0  0  0  0  0  0  0  0
   46.6776    5.9957   12.5442 H   0  0  0  0  0  0  0  0  0  0  0  0
   45.4805    5.5252   13.7512 H   0  0  0  0  0  0  0  0  0  0  0  0
   42.8041    4.6562   12.7328 H   0  0  0  0  0  0  0  0  0  0  0  0
   44.7331    5.3118   13.9651 H   0  0  0  0  0  0  0  0  0  0  0  0
   44.6214    3.6965   10.6441 H   0  0  0  0  0  0  0  0  0  0  0  0
   43.7597    2.6767   11.7858 H   0  0  0  0  0  0  0  0  0  0  0  0
   45.2043    3.1597   13.5222 H   0  0  0  0  0  0  0  0  0  0  0  0
   46.3085    3.5837   12.2187 H   0  0  0  0  0  0  0  0  0  0  0  0
   43.0850    6.7666   12.0188 H   0  0  0  0  0  0  0  0  0  0  0  0
   43.8132    6.2440   10.5043 H   0  0  0  0  0  0  0  0  0  0  0  0
   45.9364    6.1109   11.4142 H   0  0  0  0  0  0  0  0  0  0  0  0
   45.2699    7.2082   12.6158 H   0  0  0  0  0  0  0  0  0  0  0  0
  3  2  1  0
  4  2  1  0
  5  2  1  0
  6  4  1  0
  7  3  1  0
  8  5  2  0
  9  7  2  0
 10  6  2  0
 11  2  1  0
 12  5  1  0
 13  7  1  0
 14  6  1  0
 16 20  1  0
 17 15  1  0
 18 17  1  0
 19 15  1  0
 20 19  1  0
 16 18  1  0
 22 21  1  0
 23 21  1  0
 24 21  1  0
 25 23  1  0
 26 22  1  0
 27 24  2  0
 28 26  2  0
 29 25  2  0
 30 21  1  0
 31 24  1  0
 32 26  1  0
 33 25  1  0
 35 39  1  0
 36 34  1  0
 37 36  1  0
 38 34  1  0
 39 38  1  0
 35 37  1  0
 41 45  1  0
 42 40  1  0
 43 42  1  0
 44 40  1  0
 45 44  1  0
 41 43  1  0
  1 46  1  0
  1 47  1  0
  3 48  1  0
  3 49  1  0
  4 50  1  0
  4 51  1  0
 11 52  1  0
 12 53  1  0
 13 54  1  0
 14 55  1  0
 15 56  1  0
 16 57  1  0
 17 58  1  0
 17 59  1  0
 18 60  1  0
 18 61  1  0
 19 62  1  0
 19 63  1  0
 20 64  1  0
 20 65  1  0
 22 66  1  0
 22 67  1  0
 23 68  1  0
 23 69  1  0
 30 70  1  0
 31 71  1  0
 32 72  1  0
 33 73  1  0
 34 74  1  0
 35 75  1  0
 36 76  1  0
 36 77  1  0
 37 78  1  0
 37 79  1  0
 38 80  1  0
 38 81  1  0
 39 82  1  0
 39 83  1  0
 40 84  1  0
 41 85  1  0
 42 86  1  0
 42 87  1  0
 43 88  1  0
 43 89  1  0
 44 90  1  0
 44 91  1  0
 45 92  1  0
 45 93  1  0
M  END
> <Uni-Dock RESULT> 
ENERGY=  -10.484  LOWER_BOUND=    0.000  UPPER_BOUND=    0.000
INTER + INTRA:         -10.484
INTER:                 -10.484
INTRA:                   0.000
UNBOUND:                 0.000

$$$$

     RDKit          3D

 93 90  0  0  0  0  0  0  0  0999 V2000
   44.4119    5.1680   11.6691 O   0  0  0  0  0  0  0  0  0  0  0  0
   44.3068    5.5319   11.7593 C   0  0  0  0  0  0  0  0  0  0  0  0
   45.0886    6.2223   12.8829 C   0  0  0  0  0  0  0  0  0  0  0  0
   45.1278    5.3055   10.4858 C   0  0  0  0  0  0  0  0  0  0  0  0
   43.8126    4.1758   12.2962 C   0  0  0  0  0  0  0  0  0  0  0  0
   44.4058    4.3813    9.5478 C   0  0  0  0  0  0  0  0  0  0  0  0
   45.6428    7.5569   12.4776 C   0  0  0  0  0  0  0  0  0  0  0  0
   42.6621    3.7666   12.2660 O   0  0  0  0  0  0  0  0  0  0  0  0
   46.4357    7.7622   11.5741 O   0  0  0  0  0  0  0  0  0  0  0  0
   43.3291    4.6018    9.0176 O   0  0  0  0  0  0  0  0  0  0  0  0
   43.1755    6.3645   11.4611 O   0  0  0  0  0  0  0  0  0  0  0  0
   44.7974    3.3947   12.7821 O   0  0  0  0  0  0  0  0  0  0  0  0
   45.2211    8.5655   13.2627 O   0  0  0  0  0  0  0  0  0  0  0  0
   45.0478    3.2182    9.3469 O   0  0  0  0  0  0  0  0  0  0  0  0
   43.4433    4.5401   11.6189 N   0  0  0  0  0  0  0  0  0  0  0  0
   45.8150    6.4288   11.4221 N   0  0  0  0  0  0  0  0  0  0  0  0
   44.0638    4.9498   10.3492 C   0  0  0  0  0  0  0  0  0  0  0  0
   45.5508    5.3323   10.4759 C   0  0  0  0  0  0  0  0  0  0  0  0
   44.0298    5.2517   12.7672 C   0  0  0  0  0  0  0  0  0  0  0  0
   44.7299    6.5760   12.4045 C   0  0  0  0  0  0  0  0  0  0  0  0
   44.7681    4.7722   12.1700 C   0  0  0  0  0  0  0  0  0  0  0  0
   45.3248    6.1881   12.3714 C   0  0  0  0  0  0  0  0  0  0  0  0
   45.3503    4.0028   10.9850 C   0  0  0  0  0  0  0  0  0  0  0  0
   43.2346    4.7153   12.1756 C   0  0  0  0  0  0  0  0  0  0  0  0
   45.1177    4.6148    9.6377 C   0  0  0  0  0  0  0  0  0  0  0  0
   44.6509    7.2696   11.5750 C   0  0  0  0  0  0  0  0  0  0  0  0
   42.4922    4.3144   11.2979 O   0  0  0  0  0  0  0  0  0  0  0  0
   43.6166    7.1920   10.9374 O   0  0  0  0  0  0  0  0  0  0  0  0
   44.4077    4.1766    8.7494 O   0  0  0  0  0  0  0  0  0  0  0  0
   45.1794    4.0127   13.3488 O   0  0  0  0  0  0  0  0  0  0  0  0
   42.7279    5.1143   13.3689 O   0  0  0  0  0  0  0  0  0  0  0  0
   45.3137    8.4404   11.6594 O   0  0  0  0  0  0  0  0  0  0  0  0
   45.8604    5.7187    9.4282 O   0  0  0  0  0  0  0  0  0  0  0  0
   43.8531    4.6016   12.5265 N   0  0  0  0  0  0  0  0  0  0  0  0
   45.2888    6.2895   10.5538 N   0  0  0  0  0  0  0  0  0  0  0  0
   43.9762    4.2202   11.1076 C   0  0  0  0  0  0  0  0  0  0  0  0
   45.2230    4.8272   10.4293 C   0  0  0  0  0  0  0  0  0  0  0  0
   43.8791    6.0735   12.6202 C   0  0  0  0  0  0  0  0  0  0  0  0
   45.1271    6.6941   11.9565 C   0  0  0  0  0  0  0  0  0  0  0  0
   44.1029    4.1084   11.5356 N   0  0  0  0  0  0  0  0  0  0  0  0
   45.7158    6.3170   12.0326 N   0  0  0  0  0  0  0  0  0  0  0  0
   44.6839    4.7258   10.3321 C   0  0  0  0  0  0  0  0  0  0  0  0
   45.7728    5.7775   10.6591 C   0  0  0  0  0  0  0  0  0  0  0  0
   43.5052    5.1624   12.3799 C   0  0  0  0  0  0  0  0  0  0  0  0
   44.3072    6.4870   12.4255 C   0  0  0  0  0  0  0  0  0  0  0  0
   45.0345    5.1216   10.9282 H   0  0  0  0  0  0  0  0  0  0  0  0
   44.5301    6.0629   12.0198 H   0  0  0  0  0  0  0  0  0  0  0  0
   44.4299    6.3680   13.7483 H   0  0  0  0  0  0  0  0  0  0  0  0
   45.9354    5.6203   13.2353 H   0  0  0  0  0  0  0  0  0  0  0  0
   46.1112    4.8828   10.7212 H   0  0  0  0  0  0  0  0  0  0  0  0
   45.2908    6.2356    9.9276 H   0  0  0  0  0  0  0  0  0  0  0  0
   42.5631    5.8442   10.8984 H   0  0  0  0  0  0  0  0  0  0  0  0
   44.3383    2.5667   13.0448 H   0  0  0  0  0  0  0  0  0  0  0  0
   45.6340    9.3667   12.8776 H   0  0  0  0  0  0  0  0  0  0  0  0
   44.4794    2.7365    8.7067 H   0  0  0  0  0  0  0  0  0  0  0  0
   43.5798    3.5389   11.7570 H   0  0  0  0  0  0  0  0  0  0  0  0
   46.6908    6.2366   11.9060 H   0  0  0  0  0  0  0  0  0  0  0  0
   43.9571    4.1350    9.6253 H   0  0  0  0  0  0  0  0  0  0  0  0
   43.5019    5.7995    9.9429 H   0  0  0  0  0  0  0  0  0  0  0  0
   46.1147    4.4468   10.7974 H   0  0  0  0  0  0  0  0  0  0  0  0
   45.9423    5.6196    9.4939 H   0  0  0  0  0  0  0  0  0  0  0  0
   44.7617    4.5929   13.2550 H   0  0  0  0  0  0  0  0  0  0  0  0
   43.2354    5.4452   13.4965 H   0  0  0  0  0  0  0  0  0  0  0  0
   45.1339    7.0407   13.3107 H   0  0  0  0  0  0  0  0  0  0  0  0
   43.9912    7.2800   12.0024 H   0  0  0  0  0  0  0  0  0  0  0  0
   45.2189    6.4744   13.4256 H   0  0  0  0  0  0  0  0  0  0  0  0
   46.3996    6.2023   12.1524 H   0  0  0  0  0  0  0  0  0  0  0  0
   46.4320    3.8598   11.1153 H   0  0  0  0  0  0  0  0  0  0  0  0
   44.9398    2.9832   10.9586 H   0  0  0  0  0  0  0  0  0  0  0  0
   44.6426    4.3491   14.0932 H   0  0  0  0  0  0  0  0  0  0  0  0
   41.7575    5.0251   13.2364 H   0  0  0  0  0  0  0  0  0  0  0  0
   44.7813    9.0655   11.1214 H   0  0  0  0  0  0  0  0  0  0  0  0
   45.6192    5.9767    8.5124 H   0  0  0  0  0  0  0  0  0  0  0  0
   44.6706    4.2420   13.0193 H   0  0  0  0  0  0  0  0  0  0  0  0
   46.1846    6.6250   10.2020 H   0  0  0  0  0  0  0  0  0  0  0  0
   44.0266    3.1277   11.0429 H   0  0  0  0  0  0  0  0  0  0  0  0
   43.0714    4.5264   10.5678 H   0  0  0  0  0  0  0  0  0  0  0  0
   45.2161    4.5648    9.3659 H   0  0  0  0  0  0  0  0  0  0  0  0
   46.1276    4.3843   10.8648 H   0  0  0  0  0  0  0  0  0  0  0  0
   43.8549    6.3560   13.6782 H   0  0  0  0  0  0  0  0  0  0  0  0
   42.9691    6.4849   12.1644 H   0  0  0  0  0  0  0  0  0  0  0  0
   45.0505    7.7862   12.0014 H   0  0  0  0  0  0  0  0  0  0  0  0
   46.0226    6.4103   12.5240 H   0  0  0  0  0  0  0  0  0  0  0  0
   44.8696    3.6877   12.0616 H   0  0  0  0  0  0  0  0  0  0  0  0
   46.1237    5.6218   12.6582 H   0  0  0  0  0  0  0  0  0  0  0  0
   43.8807    5.1975    9.7531 H   0  0  0  0  0  0  0  0  0  0  0  0
   45.1083    3.9422    9.6937 H   0  0  0  0  0  0  0  0  0  0  0  0
   46.7618    5.3246   10.5241 H   0  0  0  0  0  0  0  0  0  0  0  0
   45.7032    6.6050    9.9426 H   0  0  0  0  0  0  0  0  0  0  0  0
   43.4156    4.7595   13.3956 H   0  0  0  0  0  0  0  0  0  0  0  0
   42.4858    5.3677   12.0308 H   0  0  0  0  0  0  0  0  0  0  0  0
   43.8389    7.2253   11.7626 H   0  0  0  0  0  0  0  0  0  0  0  0
   44.2658    6.9045   13.4380 H   0  0  0  0  0  0  0  0  0  0  0  0
  3  2  1  0
  4  2  1  0
  5  2  1  0
  6  4  1  0
  7  3  1  0
  8  5  2  0
  9  7  2  0
 10  6  2  0
 11  2  1  0
 12  5  1  0
 13  7  1  0
 14  6  1  0
 16 20  1  0
 17 15  1  0
 18 17  1  0
 19 15  1  0
 20 19  1  0
 16 18  1  0
 22 21  1  0
 23 21  1  0
 24 21  1  0
 25 23  1  0
 26 22  1  0
 27 24  2  0
 28 26  2  0
 29 25  2  0
 30 21  1  0
 31 24  1  0
 32 26  1  0
 33 25  1  0
 35 39  1  0
 36 34  1  0
 37 36  1  0
 38 34  1  0
 39 38  1  0
 35 37  1  0
 41 45  1  0
 42 40  1  0
 43 42  1  0
 44 40  1  0
 45 44  1  0
 41 43  1  0
  1 46  1  0
  1 47  1  0
  3 48  1  0
  3 49  1  0
  4 50  1  0
  4 51  1  0
 11 52  1  0
 12 53  1  0
 13 54  1  0
 14 55  1  0
 15 56  1  0
 16 57  1  0
 17 58  1  0
 17 59  1  0
 18 60  1  0
 18 61  1  0
 19 62  1  0
 19 63  1  0
 20 64  1  0
 20 65  1  0
 22 66  1  0
 22 67  1  0
 23 68  1  0
 23 69  1  0
 30 70  1  0
 31 71  1  0
 32 72  1  0
 33 73  1  0
 34 74  1  0
 35 75  1  0
 36 76  1  0
 36 77  1  0
 37 78  1  0
 37 79  1  0
 38 80  1  0
 38 81  1  0
 39 82  1  0
 39 83  1  0
 40 84  1  0
 41 85  1  0
 42 86  1  0
 42 87  1  0
 43 88  1  0
 43 89  1  0
 44 90  1  0
 44 91  1  0
 45 92  1  0
 45 93  1  0
M  END
> <Uni-Dock RESULT> 
ENERGY=   -9.276  LOWER_BOUND=    1.285  UPPER_BOUND=    2.143
INTER + INTRA:          -9.276
INTER:                  -9.276
INTRA:                   0.000
UNBOUND:                 0.000

$$$$

     RDKit          3D

 93 90  0  0  0  0  0  0  0  0999 V2000
   44.2970    4.0466   11.5839 O   0  0  0  0  0  0  0  0  0  0  0  0
   44.5865    4.0323   11.3240 C   0  0  0  0  0  0  0  0  0  0  0  0
   44.4829    2.9669   10.2265 C   0  0  0  0  0  0  0  0  0  0  0  0
   43.5482    5.1515   11.1969 C   0  0  0  0  0  0  0  0  0  0  0  0
   44.4126    3.3260   12.6813 C   0  0  0  0  0  0  0  0  0  0  0  0
   43.5167    5.9885   12.4435 C   0  0  0  0  0  0  0  0  0  0  0  0
   44.6195    3.5341    8.8437 C   0  0  0  0  0  0  0  0  0  0  0  0
   45.1685    3.4091   13.6372 O   0  0  0  0  0  0  0  0  0  0  0  0
   43.8912    4.3687    8.3333 O   0  0  0  0  0  0  0  0  0  0  0  0
   44.4389    6.6617   12.8739 O   0  0  0  0  0  0  0  0  0  0  0  0
   45.9075    4.5899   11.2455 O   0  0  0  0  0  0  0  0  0  0  0  0
   43.2753    2.6094   12.7767 O   0  0  0  0  0  0  0  0  0  0  0  0
   45.6293    2.9849    8.1437 O   0  0  0  0  0  0  0  0  0  0  0  0
   42.3492    5.9154   13.1046 O   0  0  0  0  0  0  0  0  0  0  0  0
   44.7851    4.0918   12.6301 N   0  0  0  0  0  0  0  0  0  0  0  0
   43.7099    4.3545    9.8008 N   0  0  0  0  0  0  0  0  0  0  0  0
   44.2391    5.3387   12.0715 C   0  0  0  0  0  0  0  0  0  0  0  0
   43.2037    5.1203   10.9518 C   0  0  0  0  0  0  0  0  0  0  0  0
   44.8612    3.0270   11.6156 C   0  0  0  0  0  0  0  0  0  0  0  0
   44.8774    3.5350   10.1606 C   0  0  0  0  0  0  0  0  0  0  0  0
   43.8874    3.4494   11.6847 C   0  0  0  0  0  0  0  0  0  0  0  0
   44.1735    3.4363   10.1769 C   0  0  0  0  0  0  0  0  0  0  0  0
   42.7908    4.4142   12.1341 C   0  0  0  0  0  0  0  0  0  0  0  0
   45.1511    3.5995   12.5420 C   0  0  0  0  0  0  0  0  0  0  0  0
   43.0519    5.8639   11.8622 C   0  0  0  0  0  0  0  0  0  0  0  0
   45.1448    4.4754    9.6918 C   0  0  0  0  0  0  0  0  0  0  0  0
   45.4132    4.4697   13.3521 O   0  0  0  0  0  0  0  0  0  0  0  0
   45.8604    5.1977   10.3613 O   0  0  0  0  0  0  0  0  0  0  0  0
   43.2658    6.7347   12.6876 O   0  0  0  0  0  0  0  0  0  0  0  0
   43.3703    2.1199   12.0019 O   0  0  0  0  0  0  0  0  0  0  0  0
   45.9977    2.5546   12.3647 O   0  0  0  0  0  0  0  0  0  0  0  0
   45.1959    4.5232    8.3456 O   0  0  0  0  0  0  0  0  0  0  0  0
   42.9482    6.1793   10.5568 O   0  0  0  0  0  0  0  0  0  0  0  0
   44.6365    3.1696   12.2796 N   0  0  0  0  0  0  0  0  0  0  0  0
   43.9242    5.2374   10.2749 N   0  0  0  0  0  0  0  0  0  0  0  0
   44.0808    4.4798   12.6651 C   0  0  0  0  0  0  0  0  0  0  0  0
   43.2151    5.1142   11.5555 C   0  0  0  0  0  0  0  0  0  0  0  0
   45.3784    3.3289   11.0146 C   0  0  0  0  0  0  0  0  0  0  0  0
   44.5212    3.9512    9.8916 C   0  0  0  0  0  0  0  0  0  0  0  0
   43.9954    4.0278   12.6538 N   0  0  0  0  0  0  0  0  0  0  0  0
   43.8479    3.7481    9.8922 N   0  0  0  0  0  0  0  0  0  0  0  0
   43.6000    5.2499   11.9347 C   0  0  0  0  0  0  0  0  0  0  0  0
   43.2760    4.9938   10.4420 C   0  0  0  0  0  0  0  0  0  0  0  0
   45.1873    3.4473   12.0031 C   0  0  0  0  0  0  0  0  0  0  0  0
   45.1921    3.5447   10.4571 C   0  0  0  0  0  0  0  0  0  0  0  0
   43.6141    4.6968   11.3613 H   0  0  0  0  0  0  0  0  0  0  0  0
   44.7153    3.8447   10.7342 H   0  0  0  0  0  0  0  0  0  0  0  0
   45.2693    2.2157   10.3729 H   0  0  0  0  0  0  0  0  0  0  0  0
   43.5285    2.4267   10.2556 H   0  0  0  0  0  0  0  0  0  0  0  0
   42.5483    4.7422   11.0130 H   0  0  0  0  0  0  0  0  0  0  0  0
   43.7812    5.8410   10.3760 H   0  0  0  0  0  0  0  0  0  0  0  0
   46.0569    5.1171   12.0592 H   0  0  0  0  0  0  0  0  0  0  0  0
   43.2898    2.2589   13.6946 H   0  0  0  0  0  0  0  0  0  0  0  0
   45.6179    3.4556    7.2840 H   0  0  0  0  0  0  0  0  0  0  0  0
   42.4670    6.5204   13.8694 H   0  0  0  0  0  0  0  0  0  0  0  0
   44.1873    3.7693   13.3909 H   0  0  0  0  0  0  0  0  0  0  0  0
   42.9628    3.7532    9.4567 H   0  0  0  0  0  0  0  0  0  0  0  0
   43.7837    5.9185   12.8813 H   0  0  0  0  0  0  0  0  0  0  0  0
   45.0694    5.9436   11.6876 H   0  0  0  0  0  0  0  0  0  0  0  0
   42.3381    4.5920   11.3724 H   0  0  0  0  0  0  0  0  0  0  0  0
   42.8409    6.0891   10.5913 H   0  0  0  0  0  0  0  0  0  0  0  0
   43.9994    2.3569   11.7411 H   0  0  0  0  0  0  0  0  0  0  0  0
   45.7614    2.4320   11.8058 H   0  0  0  0  0  0  0  0  0  0  0  0
   44.9380    2.6844    9.4728 H   0  0  0  0  0  0  0  0  0  0  0  0
   45.7836    4.1298    9.9927 H   0  0  0  0  0  0  0  0  0  0  0  0
   44.5999    2.4650    9.8956 H   0  0  0  0  0  0  0  0  0  0  0  0
   43.2355    3.5373    9.6170 H   0  0  0  0  0  0  0  0  0  0  0  0
   41.8309    4.1453   11.6717 H   0  0  0  0  0  0  0  0  0  0  0  0
   42.6145    4.3085   13.2141 H   0  0  0  0  0  0  0  0  0  0  0  0
   44.1287    1.5070   11.9339 H   0  0  0  0  0  0  0  0  0  0  0  0
   46.7457    2.7735   12.9645 H   0  0  0  0  0  0  0  0  0  0  0  0
   45.8634    5.2150    8.1477 H   0  0  0  0  0  0  0  0  0  0  0  0
   43.1155    7.1465   10.5493 H   0  0  0  0  0  0  0  0  0  0  0  0
   43.8552    2.5370   12.1068 H   0  0  0  0  0  0  0  0  0  0  0  0
   43.2759    5.5430    9.5504 H   0  0  0  0  0  0  0  0  0  0  0  0
   43.4723    4.3493   13.5667 H   0  0  0  0  0  0  0  0  0  0  0  0
   44.9000    5.1587   12.9333 H   0  0  0  0  0  0  0  0  0  0  0  0
   42.8941    6.1108   11.8770 H   0  0  0  0  0  0  0  0  0  0  0  0
   42.3078    4.5139   11.4123 H   0  0  0  0  0  0  0  0  0  0  0  0
   45.7348    2.3443   10.6931 H   0  0  0  0  0  0  0  0  0  0  0  0
   46.2706    3.9442   11.1892 H   0  0  0  0  0  0  0  0  0  0  0  0
   45.1480    4.1038    9.0059 H   0  0  0  0  0  0  0  0  0  0  0  0
   43.7262    3.2501    9.6069 H   0  0  0  0  0  0  0  0  0  0  0  0
   43.2319    3.3576   12.5565 H   0  0  0  0  0  0  0  0  0  0  0  0
   43.2655    2.9718   10.2071 H   0  0  0  0  0  0  0  0  0  0  0  0
   44.4104    5.9849   12.0130 H   0  0  0  0  0  0  0  0  0  0  0  0
   42.7288    5.6942   12.4299 H   0  0  0  0  0  0  0  0  0  0  0  0
   42.1886    4.9412   10.3142 H   0  0  0  0  0  0  0  0  0  0  0  0
   43.6239    5.8455    9.8450 H   0  0  0  0  0  0  0  0  0  0  0  0
   45.2433    2.3931   12.2986 H   0  0  0  0  0  0  0  0  0  0  0  0
   46.0865    3.9345   12.3998 H   0  0  0  0  0  0  0  0  0  0  0  0
   45.8404    4.3716   10.1411 H   0  0  0  0  0  0  0  0  0  0  0  0
   45.6232    2.6299   10.0348 H   0  0  0  0  0  0  0  0  0  0  0  0
  3  2  1  0
  4  2  1  0
  5  2  1  0
  6  4  1  0
  7  3  1  0
  8  5  2  0
  9  7  2  0
 10  6  2  0
 11  2  1  0
 12  5  1  0
 13  7  1  0
 14  6  1  0
 16 20  1  0
 17 15  1  0
 18 17  1  0
 19 15  1  0
 20 19  1  0
 16 18  1  0
 22 21  1  0
 23 21  1  0
 24 21  1  0
 25 23  1  0
 26 22  1  0
 27 24  2  0
 28 26  2  0
 29 25  2  0
 30 21  1  0
 31 24  1  0
 32 26  1  0
 33 25  1  0
 35 39  1  0
 36 34  1  0
 37 36  1  0
 38 34  1  0
 39 38  1  0
 35 37  1  0
 41 45  1  0
 42 40  1  0
 43 42  1  0
 44 40  1  0
 45 44  1  0
 41 43  1  0
  1 46  1  0
  1 47  1  0
  3 48  1  0
  3 49  1  0
  4 50  1  0
  4 51  1  0
 11 52  1  0
 12 53  1  0
 13 54  1  0
 14 55  1  0
 15 56  1  0
 16 57  1  0
 17 58  1  0
 17 59  1  0
 18 60  1  0
 18 61  1  0
 19 62  1  0
 19 63  1  0
 20 64  1  0
 20 65  1  0
 22 66  1  0
 22 67  1  0
 23 68  1  0
 23 69  1  0
 30 70  1  0
 31 71  1  0
 32 72  1  0
 33 73  1  0
 34 74  1  0
 35 75  1  0
 36 76  1  0
 36 77  1  0
 37 78  1  0
 37 79  1  0
 38 80  1  0
 38 81  1  0
 39 82  1  0
 39 83  1  0
 40 84  1  0
 41 85  1  0
 42 86  1  0
 42 87  1  0
 43 88  1  0
 43 89  1  0
 44 90  1  0
 44 91  1  0
 45 92  1  0
 45 93  1  0
M  END
> <Uni-Dock RESULT> 
ENERGY=   -8.696  LOWER_BOUND=    1.244  UPPER_BOUND=    3.524
INTER + INTRA:          -8.696
INTER:                  -8.696
INTRA:                   0.000
UNBOUND:                 0.000

$$$$

     RDKit          3D

 93 90  0  0  0  0  0  0  0  0999 V2000
   44.6181    4.9033   11.1149 O   0  0  0  0  0  0  0  0  0  0  0  0
   44.6505    4.8059   10.7393 C   0  0  0  0  0  0  0  0  0  0  0  0
   45.6272    3.6750   10.3968 C   0  0  0  0  0  0  0  0  0  0  0  0
   43.4110    4.3384   11.5087 C   0  0  0  0  0  0  0  0  0  0  0  0
   45.4130    5.8451   11.5821 C   0  0  0  0  0  0  0  0  0  0  0  0
   42.6539    5.5137   12.0574 C   0  0  0  0  0  0  0  0  0  0  0  0
   44.9966    2.5810    9.5855 C   0  0  0  0  0  0  0  0  0  0  0  0
   45.4781    7.0442   11.3586 O   0  0  0  0  0  0  0  0  0  0  0  0
   44.0524    1.8873    9.9240 O   0  0  0  0  0  0  0  0  0  0  0  0
   42.1216    6.3905   11.3964 O   0  0  0  0  0  0  0  0  0  0  0  0
   44.2488    5.4052    9.4977 O   0  0  0  0  0  0  0  0  0  0  0  0
   45.9949    5.3280   12.6821 O   0  0  0  0  0  0  0  0  0  0  0  0
   45.6172    2.3688    8.4102 O   0  0  0  0  0  0  0  0  0  0  0  0
   42.6291    5.5513   13.4002 O   0  0  0  0  0  0  0  0  0  0  0  0
   44.6947    6.0548   11.1722 N   0  0  0  0  0  0  0  0  0  0  0  0
   44.1348    3.0955   10.7725 N   0  0  0  0  0  0  0  0  0  0  0  0
   43.3604    5.4473   11.2964 C   0  0  0  0  0  0  0  0  0  0  0  0
   43.3864    3.9605   11.6994 C   0  0  0  0  0  0  0  0  0  0  0  0
   45.6971    5.0797   10.7104 C   0  0  0  0  0  0  0  0  0  0  0  0
   45.1066    3.8603    9.9757 C   0  0  0  0  0  0  0  0  0  0  0  0
   45.1678    4.7387   11.5678 C   0  0  0  0  0  0  0  0  0  0  0  0
   45.1224    3.5401   10.6103 C   0  0  0  0  0  0  0  0  0  0  0  0
   44.1098    4.7355   12.6704 C   0  0  0  0  0  0  0  0  0  0  0  0
   45.2205    6.0918   10.8461 C   0  0  0  0  0  0  0  0  0  0  0  0
   42.6870    4.7740   12.2034 C   0  0  0  0  0  0  0  0  0  0  0  0
   44.1775    3.6727    9.4494 C   0  0  0  0  0  0  0  0  0  0  0  0
   44.4383    7.0211   10.9292 O   0  0  0  0  0  0  0  0  0  0  0  0
   43.5867    4.6706    9.0786 O   0  0  0  0  0  0  0  0  0  0  0  0
   41.8996    5.6947   12.3360 O   0  0  0  0  0  0  0  0  0  0  0  0
   46.4440    4.6355   12.2724 O   0  0  0  0  0  0  0  0  0  0  0  0
   46.3451    6.2110   10.0972 O   0  0  0  0  0  0  0  0  0  0  0  0
   44.0539    2.5151    8.7698 O   0  0  0  0  0  0  0  0  0  0  0  0
   42.2825    3.6104   11.6589 O   0  0  0  0  0  0  0  0  0  0  0  0
   45.5698    5.5770   11.2087 N   0  0  0  0  0  0  0  0  0  0  0  0
   43.3139    3.7082   10.7391 N   0  0  0  0  0  0  0  0  0  0  0  0
   44.2293    5.8039   11.7790 C   0  0  0  0  0  0  0  0  0  0  0  0
   43.4307    4.4971   11.9729 C   0  0  0  0  0  0  0  0  0  0  0  0
   45.4221    4.8208    9.9507 C   0  0  0  0  0  0  0  0  0  0  0  0
   44.6357    3.5048   10.1316 C   0  0  0  0  0  0  0  0  0  0  0  0
   44.6665    5.7054   11.8833 N   0  0  0  0  0  0  0  0  0  0  0  0
   44.7576    3.1735   10.7398 N   0  0  0  0  0  0  0  0  0  0  0  0
   43.3647    5.0231   11.8015 C   0  0  0  0  0  0  0  0  0  0  0  0
   43.4892    3.5308   11.4065 C   0  0  0  0  0  0  0  0  0  0  0  0
   45.3426    5.6170   10.5732 C   0  0  0  0  0  0  0  0  0  0  0  0
   45.1522    4.2674    9.8370 C   0  0  0  0  0  0  0  0  0  0  0  0
   43.8795    4.4640   11.5623 H   0  0  0  0  0  0  0  0  0  0  0  0
   44.8156    4.3249   10.3638 H   0  0  0  0  0  0  0  0  0  0  0  0
   46.4734    4.0838    9.8304 H   0  0  0  0  0  0  0  0  0  0  0  0
   46.0518    3.2027   11.2914 H   0  0  0  0  0  0  0  0  0  0  0  0
   43.6876    3.6719   12.3336 H   0  0  0  0  0  0  0  0  0  0  0  0
   42.7050    3.7973   10.8667 H   0  0  0  0  0  0  0  0  0  0  0  0
   43.7936    6.2483    9.7077 H   0  0  0  0  0  0  0  0  0  0  0  0
   46.4002    6.1052   13.1261 H   0  0  0  0  0  0  0  0  0  0  0  0
   45.0969    1.6572    7.9817 H   0  0  0  0  0  0  0  0  0  0  0  0
   42.0901    6.3455   13.6092 H   0  0  0  0  0  0  0  0  0  0  0  0
   44.9904    6.4151   12.0794 H   0  0  0  0  0  0  0  0  0  0  0  0
   44.6217    2.3831   11.3143 H   0  0  0  0  0  0  0  0  0  0  0  0
   42.7815    6.0147   12.0329 H   0  0  0  0  0  0  0  0  0  0  0  0
   42.8352    5.5569   10.3399 H   0  0  0  0  0  0  0  0  0  0  0  0
   43.8337    3.8755   12.6984 H   0  0  0  0  0  0  0  0  0  0  0  0
   42.3613    3.5816   11.7763 H   0  0  0  0  0  0  0  0  0  0  0  0
   46.2673    4.7208   11.5786 H   0  0  0  0  0  0  0  0  0  0  0  0
   46.4045    5.5964   10.0525 H   0  0  0  0  0  0  0  0  0  0  0  0
   45.9148    3.1893    9.6645 H   0  0  0  0  0  0  0  0  0  0  0  0
   44.6137    4.1940    9.0544 H   0  0  0  0  0  0  0  0  0  0  0  0
   46.1182    3.3825   10.1768 H   0  0  0  0  0  0  0  0  0  0  0  0
   44.8775    2.6264   11.1657 H   0  0  0  0  0  0  0  0  0  0  0  0
   44.2349    3.8572   13.3189 H   0  0  0  0  0  0  0  0  0  0  0  0
   44.2598    5.5946   13.3399 H   0  0  0  0  0  0  0  0  0  0  0  0
   47.1368    4.8576   11.6195 H   0  0  0  0  0  0  0  0  0  0  0  0
   46.2529    7.1075    9.7034 H   0  0  0  0  0  0  0  0  0  0  0  0
   43.4347    2.7231    8.0371 H   0  0  0  0  0  0  0  0  0  0  0  0
   41.3431    3.7862   11.4348 H   0  0  0  0  0  0  0  0  0  0  0  0
   46.0942    4.9964   11.8632 H   0  0  0  0  0  0  0  0  0  0  0  0
   42.8903    2.8049   10.9470 H   0  0  0  0  0  0  0  0  0  0  0  0
   44.3419    6.3044   12.7471 H   0  0  0  0  0  0  0  0  0  0  0  0
   43.6693    6.4910   11.1324 H   0  0  0  0  0  0  0  0  0  0  0  0
   42.4246    4.7415   12.3304 H   0  0  0  0  0  0  0  0  0  0  0  0
   43.9099    3.8882   12.7497 H   0  0  0  0  0  0  0  0  0  0  0  0
   46.4203    4.5941    9.5610 H   0  0  0  0  0  0  0  0  0  0  0  0
   44.9281    5.4521    9.2007 H   0  0  0  0  0  0  0  0  0  0  0  0
   44.5042    3.0292    9.1533 H   0  0  0  0  0  0  0  0  0  0  0  0
   45.2195    2.8118   10.7509 H   0  0  0  0  0  0  0  0  0  0  0  0
   45.2348    5.1955   12.5603 H   0  0  0  0  0  0  0  0  0  0  0  0
   45.4777    3.0985   11.4588 H   0  0  0  0  0  0  0  0  0  0  0  0
   42.7365    5.5450   11.0693 H   0  0  0  0  0  0  0  0  0  0  0  0
   42.8519    5.1073   12.7667 H   0  0  0  0  0  0  0  0  0  0  0  0
   43.4053    2.9123   12.3075 H   0  0  0  0  0  0  0  0  0  0  0  0
   42.6495    3.2575   10.7558 H   0  0  0  0  0  0  0  0  0  0  0  0
   46.4121    5.7882   10.7424 H   0  0  0  0  0  0  0  0  0  0  0  0
   44.9900    6.4332    9.9309 H   0  0  0  0  0  0  0  0  0  0  0  0
   44.3898    4.3772    9.0557 H   0  0  0  0  0  0  0  0  0  0  0  0
   46.0840    3.9938    9.3289 H   0  0  0  0  0  0  0  0  0  0  0  0
  3  2  1  0
  4  2  1  0
  5  2  1  0
  6  4  1  0
  7  3  1  0
  8  5  2  0
  9  7  2  0
 10  6  2  0
 11  2  1  0
 12  5  1  0
 13  7  1  0
 14  6  1  0
 16 20  1  0
 17 15  1  0
 18 17  1  0
 19 15  1  0
 20 19  1  0
 16 18  1  0
 22 21  1  0
 23 21  1  0
 24 21  1  0
 25 23  1  0
 26 22  1  0
 27 24  2  0
 28 26  2  0
 29 25  2  0
 30 21  1  0
 31 24  1  0
 32 26  1  0
 33 25  1  0
 35 39  1  0
 36 34  1  0
 37 36  1  0
 38 34  1  0
 39 38  1  0
 35 37  1  0
 41 45  1  0
 42 40  1  0
 43 42  1  0
 44 40  1  0
 45 44  1  0
 41 43  1  0
  1 46  1  0
  1 47  1  0
  3 48  1  0
  3 49  1  0
  4 50  1  0
  4 51  1  0
 11 52  1  0
 12 53  1  0
 13 54  1  0
 14 55  1  0
 15 56  1  0
 16 57  1  0
 17 58  1  0
 17 59  1  0
 18 60  1  0
 18 61  1  0
 19 62  1  0
 19 63  1  0
 20 64  1  0
 20 65  1  0
 22 66  1  0
 22 67  1  0
 23 68  1  0
 23 69  1  0
 30 70  1  0
 31 71  1  0
 32 72  1  0
 33 73  1  0
 34 74  1  0
 35 75  1  0
 36 76  1  0
 36 77  1  0
 37 78  1  0
 37 79  1  0
 38 80  1  0
 38 81  1  0
 39 82  1  0
 39 83  1  0
 40 84  1  0
 41 85  1  0
 42 86  1  0
 42 87  1  0
 43 88  1  0
 43 89  1  0
 44 90  1  0
 44 91  1  0
 45 92  1  0
 45 93  1  0
M  END
> <Uni-Dock RESULT> 
ENERGY=   -7.939  LOWER_BOUND=    1.291  UPPER_BOUND=    3.221
INTER + INTRA:          -7.939
INTER:                  -7.939
INTRA:                   0.000
UNBOUND:                 0.000

$$$$

     RDKit          3D

 93 90  0  0  0  0  0  0  0  0999 V2000
   44.3882    4.2935   11.8628 O   0  0  0  0  0  0  0  0  0  0  0  0
   44.4967    4.1733   12.2168 C   0  0  0  0  0  0  0  0  0  0  0  0
   45.9416    3.6850   12.3720 C   0  0  0  0  0  0  0  0  0  0  0  0
   44.3785    5.6796   11.9638 C   0  0  0  0  0  0  0  0  0  0  0  0
   43.8663    3.4066   11.0394 C   0  0  0  0  0  0  0  0  0  0  0  0
   42.9833    6.0371   11.5382 C   0  0  0  0  0  0  0  0  0  0  0  0
   46.6771    4.3736   13.4844 C   0  0  0  0  0  0  0  0  0  0  0  0
   42.8131    2.7883   11.0654 O   0  0  0  0  0  0  0  0  0  0  0  0
   46.8969    5.5703   13.5689 O   0  0  0  0  0  0  0  0  0  0  0  0
   41.9751    5.8994   12.2116 O   0  0  0  0  0  0  0  0  0  0  0  0
   43.8054    3.8329   13.4286 O   0  0  0  0  0  0  0  0  0  0  0  0
   44.5626    3.5116    9.8904 O   0  0  0  0  0  0  0  0  0  0  0  0
   47.1540    3.5215   14.4106 O   0  0  0  0  0  0  0  0  0  0  0  0
   42.9151    6.5158   10.2846 O   0  0  0  0  0  0  0  0  0  0  0  0
   43.3781    3.7838   11.6286 N   0  0  0  0  0  0  0  0  0  0  0  0
   45.8240    5.3114   12.5849 N   0  0  0  0  0  0  0  0  0  0  0  0
   43.3574    5.1995   12.0291 C   0  0  0  0  0  0  0  0  0  0  0  0
   44.7066    5.9202   11.8444 C   0  0  0  0  0  0  0  0  0  0  0  0
   44.6950    3.1689   11.8660 C   0  0  0  0  0  0  0  0  0  0  0  0
   45.5597    3.9014   12.9106 C   0  0  0  0  0  0  0  0  0  0  0  0
   44.7632    4.0555   11.2821 C   0  0  0  0  0  0  0  0  0  0  0  0
   45.8450    4.2409   12.3548 C   0  0  0  0  0  0  0  0  0  0  0  0
   44.2963    5.3383   10.5954 C   0  0  0  0  0  0  0  0  0  0  0  0
   43.5741    3.2102   11.7575 C   0  0  0  0  0  0  0  0  0  0  0  0
   43.6640    6.3594   11.4907 C   0  0  0  0  0  0  0  0  0  0  0  0
   45.3433    4.5762   13.7311 C   0  0  0  0  0  0  0  0  0  0  0  0
   42.3989    3.5243   11.8090 O   0  0  0  0  0  0  0  0  0  0  0  0
   44.1955    4.5411   14.1356 O   0  0  0  0  0  0  0  0  0  0  0  0
   42.4936    6.6989   11.4987 O   0  0  0  0  0  0  0  0  0  0  0  0
   45.3874    3.2680   10.2211 O   0  0  0  0  0  0  0  0  0  0  0  0
   43.9581    1.9488   12.0759 O   0  0  0  0  0  0  0  0  0  0  0  0
   46.3499    4.9089   14.5637 O   0  0  0  0  0  0  0  0  0  0  0  0
   44.5541    6.9793   12.2892 O   0  0  0  0  0  0  0  0  0  0  0  0
   44.1821    3.2510   11.3740 N   0  0  0  0  0  0  0  0  0  0  0  0
   44.9209    5.7451   12.8007 N   0  0  0  0  0  0  0  0  0  0  0  0
   43.3962    4.4918   11.2463 C   0  0  0  0  0  0  0  0  0  0  0  0
   44.2351    5.7623   11.5016 C   0  0  0  0  0  0  0  0  0  0  0  0
   44.8255    3.2381   12.7014 C   0  0  0  0  0  0  0  0  0  0  0  0
   45.6782    4.4974   12.9661 C   0  0  0  0  0  0  0  0  0  0  0  0
   43.6696    4.1992   11.0197 N   0  0  0  0  0  0  0  0  0  0  0  0
   46.0191    4.7426   12.4020 N   0  0  0  0  0  0  0  0  0  0  0  0
   43.7342    5.5452   11.6124 C   0  0  0  0  0  0  0  0  0  0  0  0
   45.1442    5.9039   12.1431 C   0  0  0  0  0  0  0  0  0  0  0  0
   44.0604    3.2028   12.0373 C   0  0  0  0  0  0  0  0  0  0  0  0
   45.2133    3.6495   12.9705 C   0  0  0  0  0  0  0  0  0  0  0  0
   44.4634    5.2521   11.7441 H   0  0  0  0  0  0  0  0  0  0  0  0
   45.0087    4.0960   12.5795 H   0  0  0  0  0  0  0  0  0  0  0  0
   45.9419    2.6060   12.5712 H   0  0  0  0  0  0  0  0  0  0  0  0
   46.5339    3.8325   11.4603 H   0  0  0  0  0  0  0  0  0  0  0  0
   45.0848    6.0059   11.1919 H   0  0  0  0  0  0  0  0  0  0  0  0
   44.5788    6.2681   12.8676 H   0  0  0  0  0  0  0  0  0  0  0  0
   42.8451    3.9506   13.2665 H   0  0  0  0  0  0  0  0  0  0  0  0
   44.0241    3.0118    9.2379 H   0  0  0  0  0  0  0  0  0  0  0  0
   47.5838    4.0974   15.0773 H   0  0  0  0  0  0  0  0  0  0  0  0
   41.9635    6.7236   10.1574 H   0  0  0  0  0  0  0  0  0  0  0  0
   43.1620    3.7081   10.6347 H   0  0  0  0  0  0  0  0  0  0  0  0
   46.6662    5.3790   12.0155 H   0  0  0  0  0  0  0  0  0  0  0  0
   42.5847    5.7183   11.4519 H   0  0  0  0  0  0  0  0  0  0  0  0
   43.0516    5.2617   13.0804 H   0  0  0  0  0  0  0  0  0  0  0  0
   44.9564    5.9288   10.7754 H   0  0  0  0  0  0  0  0  0  0  0  0
   44.6117    6.9658   12.1575 H   0  0  0  0  0  0  0  0  0  0  0  0
   45.2472    3.1383   10.9163 H   0  0  0  0  0  0  0  0  0  0  0  0
   44.5403    2.1312   12.1814 H   0  0  0  0  0  0  0  0  0  0  0  0
   46.5163    3.3805   13.0292 H   0  0  0  0  0  0  0  0  0  0  0  0
   45.0642    3.8582   13.8882 H   0  0  0  0  0  0  0  0  0  0  0  0
   46.4191    3.3112   12.4574 H   0  0  0  0  0  0  0  0  0  0  0  0
   46.5577    5.0124   12.0383 H   0  0  0  0  0  0  0  0  0  0  0  0
   45.1328    5.8160   10.0665 H   0  0  0  0  0  0  0  0  0  0  0  0
   43.5711    5.1004    9.8041 H   0  0  0  0  0  0  0  0  0  0  0  0
   45.4928    2.3635   10.5763 H   0  0  0  0  0  0  0  0  0  0  0  0
   43.1147    1.5257   12.3533 H   0  0  0  0  0  0  0  0  0  0  0  0
   45.9110    5.0895   15.4229 H   0  0  0  0  0  0  0  0  0  0  0  0
   43.9991    7.6224   12.7811 H   0  0  0  0  0  0  0  0  0  0  0  0
   44.9191    3.2734   10.6691 H   0  0  0  0  0  0  0  0  0  0  0  0
   45.5541    6.5409   12.8662 H   0  0  0  0  0  0  0  0  0  0  0  0
   42.9744    4.5354   10.2361 H   0  0  0  0  0  0  0  0  0  0  0  0
   42.5476    4.4592   11.9410 H   0  0  0  0  0  0  0  0  0  0  0  0
   43.5796    6.6388   11.4617 H   0  0  0  0  0  0  0  0  0  0  0  0
   44.9764    5.8774   10.7008 H   0  0  0  0  0  0  0  0  0  0  0  0
   45.4624    2.3497   12.7716 H   0  0  0  0  0  0  0  0  0  0  0  0
   44.0573    3.1359   13.4789 H   0  0  0  0  0  0  0  0  0  0  0  0
   46.0697    4.4560   13.9887 H   0  0  0  0  0  0  0  0  0  0  0  0
   46.5427    4.5027   12.2900 H   0  0  0  0  0  0  0  0  0  0  0  0
   44.3610    4.1640   10.2699 H   0  0  0  0  0  0  0  0  0  0  0  0
   46.3809    4.4182   11.5048 H   0  0  0  0  0  0  0  0  0  0  0  0
   43.0075    5.6067   12.4317 H   0  0  0  0  0  0  0  0  0  0  0  0
   43.4228    6.2840   10.8649 H   0  0  0  0  0  0  0  0  0  0  0  0
   45.6522    6.5419   11.4108 H   0  0  0  0  0  0  0  0  0  0  0  0
   45.0454    6.4940   13.0624 H   0  0  0  0  0  0  0  0  0  0  0  0
   44.3578    2.2903   11.5074 H   0  0  0  0  0  0  0  0  0  0  0  0
   43.1832    2.9445   12.6429 H   0  0  0  0  0  0  0  0  0  0  0  0
   44.8032    3.9736   13.9352 H   0  0  0  0  0  0  0  0  0  0  0  0
   45.8664    2.7945   13.1794 H   0  0  0  0  0  0  0  0  0  0  0  0
  3  2  1  0
  4  2  1  0
  5  2  1  0
  6  4  1  0
  7  3  1  0
  8  5  2  0
  9  7  2  0
 10  6  2  0
 11  2  1  0
 12  5  1  0
 13  7  1  0
 14  6  1  0
 16 20  1  0
 17 15  1  0
 18 17  1  0
 19 15  1  0
 20 19  1  0
 16 18  1  0
 22 21  1  0
 23 21  1  0
 24 21  1  0
 25 23  1  0
 26 22  1  0
 27 24  2  0
 28 26  2  0
 29 25  2  0
 30 21  1  0
 31 24  1  0
 32 26  1  0
 33 25  1  0
 35 39  1  0
 36 34  1  0
 37 36  1  0
 38 34  1  0
 39 38  1  0
 35 37  1  0
 41 45  1  0
 42 40  1  0
 43 42  1  0
 44 40  1  0
 45 44  1  0
 41 43  1  0
  1 46  1  0
  1 47  1  0
  3 48  1  0
  3 49  1  0
  4 50  1  0
  4 51  1  0
 11 52  1  0
 12 53  1  0
 13 54  1  0
 14 55  1  0
 15 56  1  0
 16 57  1  0
 17 58  1  0
 17 59  1  0
 18 60  1  0
 18 61  1  0
 19 62  1  0
 19 63  1  0
 20 64  1  0
 20 65  1  0
 22 66  1  0
 22 67  1  0
 23 68  1  0
 23 69  1  0
 30 70  1  0
 31 71  1  0
 32 72  1  0
 33 73  1  0
 34 74  1  0
 35 75  1  0
 36 76  1  0
 36 77  1  0
 37 78  1  0
 37 79  1  0
 38 80  1  0
 38 81  1  0
 39 82  1  0
 39 83  1  0
 40 84  1  0
 41 85  1  0
 42 86  1  0
 42 87  1  0
 43 88  1  0
 43 89  1  0
 44 90  1  0
 44 91  1  0
 45 92  1  0
 45 93  1  0
M  END
> <Uni-Dock RESULT> 
ENERGY=   -7.721  LOWER_BOUND=    1.033  UPPER_BOUND=    2.857
INTER + INTRA:          -7.721
INTER:                  -7.721
INTRA:                   0.000
UNBOUND:                 0.000

$$$$
