
     RDKit          3D

 93 90  0  0  0  0  0  0  0  0999 V2000
   44.1915    4.1777   11.4271 O   0  0  0  0  0  0  0  0  0  0  0  0
   44.2128    4.9067   10.6096 C   0  0  0  0  0  0  0  0  0  0  0  0
   43.0558    4.8997   11.6127 C   0  0  0  0  0  0  0  0  0  0  0  0
   45.0905    3.6591   10.4757 C   0  0  0  0  0  0  0  0  0  0  0  0
   45.1207    6.0948   10.9718 C   0  0  0  0  0  0  0  0  0  0  0  0
   44.3190    2.3809   10.3157 C   0  0  0  0  0  0  0  0  0  0  0  0
   43.4543    4.5005   13.0057 C   0  0  0  0  0  0  0  0  0  0  0  0
   46.0129    6.1296   11.8013 O   0  0  0  0  0  0  0  0  0  0  0  0
   44.3476    3.7444   13.3369 O   0  0  0  0  0  0  0  0  0  0  0  0
   43.2473    2.0865   10.8130 O   0  0  0  0  0  0  0  0  0  0  0  0
   43.6460    5.1532    9.3006 O   0  0  0  0  0  0  0  0  0  0  0  0
   44.8006    7.2102   10.2692 O   0  0  0  0  0  0  0  0  0  0  0  0
   42.6579    5.0622   13.9384 O   0  0  0  0  0  0  0  0  0  0  0  0
   44.9878    1.4734    9.5707 O   0  0  0  0  0  0  0  0  0  0  0  0
   43.9576    3.2138   11.8962 N   0  0  0  0  0  0  0  0  0  0  0  0
   44.6299    5.7290   10.4611 N   0  0  0  0  0  0  0  0  0  0  0  0
   44.2400    4.4735   12.6067 C   0  0  0  0  0  0  0  0  0  0  0  0
   43.9307    5.7257   11.7580 C   0  0  0  0  0  0  0  0  0  0  0  0
   44.6582    3.2160   10.6000 C   0  0  0  0  0  0  0  0  0  0  0  0
   44.3483    4.4683    9.7519 C   0  0  0  0  0  0  0  0  0  0  0  0
   44.5696    4.2015   11.5891 C   0  0  0  0  0  0  0  0  0  0  0  0
   44.4548    4.6745   10.1339 C   0  0  0  0  0  0  0  0  0  0  0  0
   44.0362    5.2228   12.6032 C   0  0  0  0  0  0  0  0  0  0  0  0
   43.7630    2.9147   11.8326 C   0  0  0  0  0  0  0  0  0  0  0  0
   44.6320    6.5882   12.4353 C   0  0  0  0  0  0  0  0  0  0  0  0
   44.7208    3.5758    9.1430 C   0  0  0  0  0  0  0  0  0  0  0  0
   44.1761    1.9186   12.4046 O   0  0  0  0  0  0  0  0  0  0  0  0
   45.0823    2.4366    9.3795 O   0  0  0  0  0  0  0  0  0  0  0  0
   44.3836    7.3694   11.5313 O   0  0  0  0  0  0  0  0  0  0  0  0
   45.9560    3.9817   11.8952 O   0  0  0  0  0  0  0  0  0  0  0  0
   42.5015    2.9643   11.3679 O   0  0  0  0  0  0  0  0  0  0  0  0
   44.5261    3.9815    7.8731 O   0  0  0  0  0  0  0  0  0  0  0  0
   45.4871    6.9238   13.4166 O   0  0  0  0  0  0  0  0  0  0  0  0
   45.4385    5.3422   11.2350 N   0  0  0  0  0  0  0  0  0  0  0  0
   43.1683    3.4317   11.1755 N   0  0  0  0  0  0  0  0  0  0  0  0
   44.9620    4.7343    9.9851 C   0  0  0  0  0  0  0  0  0  0  0  0
   44.2764    3.3684   10.2041 C   0  0  0  0  0  0  0  0  0  0  0  0
   44.3608    5.3787   12.2333 C   0  0  0  0  0  0  0  0  0  0  0  0
   43.6806    4.0068   12.4335 C   0  0  0  0  0  0  0  0  0  0  0  0
   44.2951    5.9419   10.9721 N   0  0  0  0  0  0  0  0  0  0  0  0
   44.2950    2.9989   11.3870 N   0  0  0  0  0  0  0  0  0  0  0  0
   44.9529    5.0160   10.0342 C   0  0  0  0  0  0  0  0  0  0  0  0
   44.3296    3.6034   10.0435 C   0  0  0  0  0  0  0  0  0  0  0  0
   44.2584    5.3370   12.3147 C   0  0  0  0  0  0  0  0  0  0  0  0
   43.6339    3.9248   12.3235 C   0  0  0  0  0  0  0  0  0  0  0  0
   44.4512    4.1076   10.4962 H   0  0  0  0  0  0  0  0  0  0  0  0
   44.2390    5.1274   11.6132 H   0  0  0  0  0  0  0  0  0  0  0  0
   42.6259    5.9110   11.6604 H   0  0  0  0  0  0  0  0  0  0  0  0
   42.2356    4.2533   11.2817 H   0  0  0  0  0  0  0  0  0  0  0  0
   45.7213    3.7756    9.5826 H   0  0  0  0  0  0  0  0  0  0  0  0
   45.7687    3.5313   11.3260 H   0  0  0  0  0  0  0  0  0  0  0  0
   43.5364    6.1242    9.2275 H   0  0  0  0  0  0  0  0  0  0  0  0
   45.4483    7.8798   10.5789 H   0  0  0  0  0  0  0  0  0  0  0  0
   42.9856    4.6883   14.7844 H   0  0  0  0  0  0  0  0  0  0  0  0
   44.4010    0.6884    9.5765 H   0  0  0  0  0  0  0  0  0  0  0  0
   42.9547    3.1820   11.7065 H   0  0  0  0  0  0  0  0  0  0  0  0
   45.6326    5.7615   10.6500 H   0  0  0  0  0  0  0  0  0  0  0  0
   43.6410    4.5010   13.5238 H   0  0  0  0  0  0  0  0  0  0  0  0
   45.2926    4.4845   12.9164 H   0  0  0  0  0  0  0  0  0  0  0  0
   44.2209    6.6229   12.3160 H   0  0  0  0  0  0  0  0  0  0  0  0
   42.8501    5.7979   11.5826 H   0  0  0  0  0  0  0  0  0  0  0  0
   44.3663    2.3191   10.0421 H   0  0  0  0  0  0  0  0  0  0  0  0
   45.7389    3.1414   10.7749 H   0  0  0  0  0  0  0  0  0  0  0  0
   43.2964    4.4575    9.4411 H   0  0  0  0  0  0  0  0  0  0  0  0
   44.9445    4.4399    8.8339 H   0  0  0  0  0  0  0  0  0  0  0  0
   45.1905    5.4609    9.9297 H   0  0  0  0  0  0  0  0  0  0  0  0
   43.4465    5.0548    9.9402 H   0  0  0  0  0  0  0  0  0  0  0  0
   44.2404    4.8808   13.6275 H   0  0  0  0  0  0  0  0  0  0  0  0
   42.9467    5.3375   12.5340 H   0  0  0  0  0  0  0  0  0  0  0  0
   46.1131    3.0140   11.8390 H   0  0  0  0  0  0  0  0  0  0  0  0
   42.1346    2.0779   11.5776 H   0  0  0  0  0  0  0  0  0  0  0  0
   44.7566    3.2020    7.3245 H   0  0  0  0  0  0  0  0  0  0  0  0
   45.8110    7.8143   13.1685 H   0  0  0  0  0  0  0  0  0  0  0  0
   45.7671    6.2889   11.0512 H   0  0  0  0  0  0  0  0  0  0  0  0
   42.4625    4.0669   10.8050 H   0  0  0  0  0  0  0  0  0  0  0  0
   44.2612    5.4206    9.4928 H   0  0  0  0  0  0  0  0  0  0  0  0
   45.8140    4.6041    9.3089 H   0  0  0  0  0  0  0  0  0  0  0  0
   43.8834    3.0057    9.2473 H   0  0  0  0  0  0  0  0  0  0  0  0
   45.0126    2.6291   10.5437 H   0  0  0  0  0  0  0  0  0  0  0  0
   43.6103    6.1196   11.9297 H   0  0  0  0  0  0  0  0  0  0  0  0
   44.7758    5.7160   13.1893 H   0  0  0  0  0  0  0  0  0  0  0  0
   42.8442    4.1187   13.1327 H   0  0  0  0  0  0  0  0  0  0  0  0
   44.3846    3.3021   12.8943 H   0  0  0  0  0  0  0  0  0  0  0  0
   43.3305    6.0677   10.6621 H   0  0  0  0  0  0  0  0  0  0  0  0
   45.2600    2.8794   11.6990 H   0  0  0  0  0  0  0  0  0  0  0  0
   44.8862    5.4344    9.0237 H   0  0  0  0  0  0  0  0  0  0  0  0
   46.0206    4.9550   10.2798 H   0  0  0  0  0  0  0  0  0  0  0  0
   44.9056    2.9504    9.3783 H   0  0  0  0  0  0  0  0  0  0  0  0
   43.3099    3.6427    9.6399 H   0  0  0  0  0  0  0  0  0  0  0  0
   43.6826    5.9907   12.9792 H   0  0  0  0  0  0  0  0  0  0  0  0
   45.2777    5.2976   12.7179 H   0  0  0  0  0  0  0  0  0  0  0  0
   42.5679    3.9870   12.0714 H   0  0  0  0  0  0  0  0  0  0  0  0
   43.6966    3.5069   13.3346 H   0  0  0  0  0  0  0  0  0  0  0  0
  3  2  1  0
  4  2  1  0
  5  2  1  0
  6  4  1  0
  7  3  1  0
  8  5  2  0
  9  7  2  0
 10  6  2  0
 11  2  1  0
 12  5  1  0
 13  7  1  0
 14  6  1  0
 16 20  1  0
 17 15  1  0
 18 17  1  0
 19 15  1  0
 20 19  1  0
 16 18  1  0
 22 21  1  0
 23 21  1  0
 24 21  1  0
 25 23  1  0
 26 22  1  0
 27 24  2  0
 28 26  2  0
 29 25  2  0
 30 21  1  0
 31 24  1  0
 32 26  1  0
 33 25  1  0
 35 39  1  0
 36 34  1  0
 37 36  1  0
 38 34  1  0
 39 38  1  0
 35 37  1  0
 41 45  1  0
 42 40  1  0
 43 42  1  0
 44 40  1  0
 45 44  1  0
 41 43  1  0
  1 46  1  0
  1 47  1  0
  3 48  1  0
  3 49  1  0
  4 50  1  0
  4 51  1  0
 11 52  1  0
 12 53  1  0
 13 54  1  0
 14 55  1  0
 15 56  1  0
 16 57  1  0
 17 58  1  0
 17 59  1  0
 18 60  1  0
 18 61  1  0
 19 62  1  0
 19 63  1  0
 20 64  1  0
 20 65  1  0
 22 66  1  0
 22 67  1  0
 23 68  1  0
 23 69  1  0
 30 70  1  0
 31 71  1  0
 32 72  1  0
 33 73  1  0
 34 74  1  0
 35 75  1  0
 36 76  1  0
 36 77  1  0
 37 78  1  0
 37 79  1  0
 38 80  1  0
 38 81  1  0
 39 82  1  0
 39 83  1  0
 40 84  1  0
 41 85  1  0
 42 86  1  0
 42 87  1  0
 43 88  1  0
 43 89  1  0
 44 90  1  0
 44 91  1  0
 45 92  1  0
 45 93  1  0
M  END
> <Uni-Dock RESULT> 
ENERGY=   -8.899  LOWER_BOUND=    0.000  UPPER_BOUND=    0.000
INTER + INTRA:          -8.899
INTER:                  -8.899
INTRA:                   0.000
UNBOUND:                 0.000

$$$$

     RDKit          3D

 93 90  0  0  0  0  0  0  0  0999 V2000
   44.7397    5.6810   12.0743 O   0  0  0  0  0  0  0  0  0  0  0  0
   45.1750    4.9593   12.7743 C   0  0  0  0  0  0  0  0  0  0  0  0
   43.7140    5.3952   12.9180 C   0  0  0  0  0  0  0  0  0  0  0  0
   46.1350    5.8286   11.9573 C   0  0  0  0  0  0  0  0  0  0  0  0
   45.1696    3.5472   12.1637 C   0  0  0  0  0  0  0  0  0  0  0  0
   46.0979    7.2863   12.3154 C   0  0  0  0  0  0  0  0  0  0  0  0
   43.0292    5.6849   11.6120 C   0  0  0  0  0  0  0  0  0  0  0  0
   45.0995    3.2409   10.9861 O   0  0  0  0  0  0  0  0  0  0  0  0
   43.5296    6.1036   10.5855 O   0  0  0  0  0  0  0  0  0  0  0  0
   45.1379    7.9452   12.6716 O   0  0  0  0  0  0  0  0  0  0  0  0
   45.7315    4.8734   14.1078 O   0  0  0  0  0  0  0  0  0  0  0  0
   45.2098    2.5826   13.1167 O   0  0  0  0  0  0  0  0  0  0  0  0
   41.7006    5.4612   11.6789 O   0  0  0  0  0  0  0  0  0  0  0  0
   47.2955    7.8851   12.1334 O   0  0  0  0  0  0  0  0  0  0  0  0
   44.4903    6.6832   11.7037 N   0  0  0  0  0  0  0  0  0  0  0  0
   45.3361    4.0395   12.7682 N   0  0  0  0  0  0  0  0  0  0  0  0
   43.8199    5.4288   11.3181 C   0  0  0  0  0  0  0  0  0  0  0  0
   43.9406    4.3268   12.3927 C   0  0  0  0  0  0  0  0  0  0  0  0
   45.8864    6.3965   12.0775 C   0  0  0  0  0  0  0  0  0  0  0  0
   46.0062    5.2945   13.1522 C   0  0  0  0  0  0  0  0  0  0  0  0
   44.8484    5.5359   11.7042 C   0  0  0  0  0  0  0  0  0  0  0  0
   45.7369    5.0782   12.8686 C   0  0  0  0  0  0  0  0  0  0  0  0
   43.5064    4.7938   11.6366 C   0  0  0  0  0  0  0  0  0  0  0  0
   44.4923    7.0281   11.8149 C   0  0  0  0  0  0  0  0  0  0  0  0
   43.6556    3.3021   11.6422 C   0  0  0  0  0  0  0  0  0  0  0  0
   46.9151    5.9848   13.0917 C   0  0  0  0  0  0  0  0  0  0  0  0
   44.5766    7.8443   10.9112 O   0  0  0  0  0  0  0  0  0  0  0  0
   47.2524    6.9409   12.4161 O   0  0  0  0  0  0  0  0  0  0  0  0
   43.9742    2.6200   12.6026 O   0  0  0  0  0  0  0  0  0  0  0  0
   45.5380    5.2822   10.4697 O   0  0  0  0  0  0  0  0  0  0  0  0
   44.0410    7.3937   13.0284 O   0  0  0  0  0  0  0  0  0  0  0  0
   47.6335    5.6241   14.1729 O   0  0  0  0  0  0  0  0  0  0  0  0
   43.3739    2.7313   10.4583 O   0  0  0  0  0  0  0  0  0  0  0  0
   45.3621    4.1558   11.5900 N   0  0  0  0  0  0  0  0  0  0  0  0
   44.4796    6.7209   12.7938 N   0  0  0  0  0  0  0  0  0  0  0  0
   46.1471    4.8443   12.6238 C   0  0  0  0  0  0  0  0  0  0  0  0
   45.9044    6.3689   12.6473 C   0  0  0  0  0  0  0  0  0  0  0  0
   43.9430    4.5237   11.6909 C   0  0  0  0  0  0  0  0  0  0  0  0
   43.7191    6.0514   11.7218 C   0  0  0  0  0  0  0  0  0  0  0  0
   44.6952    3.9716   12.7114 N   0  0  0  0  0  0  0  0  0  0  0  0
   45.1320    6.7521   11.7570 N   0  0  0  0  0  0  0  0  0  0  0  0
   46.0338    4.5844   12.6621 C   0  0  0  0  0  0  0  0  0  0  0  0
   45.9972    6.1241   12.7713 C   0  0  0  0  0  0  0  0  0  0  0  0
   43.8295    4.6006   11.6991 C   0  0  0  0  0  0  0  0  0  0  0  0
   43.7924    6.1403   11.8096 C   0  0  0  0  0  0  0  0  0  0  0  0
   45.6092    5.6252   12.4982 H   0  0  0  0  0  0  0  0  0  0  0  0
   44.3909    4.7791   12.1344 H   0  0  0  0  0  0  0  0  0  0  0  0
   43.1558    4.5927   13.4221 H   0  0  0  0  0  0  0  0  0  0  0  0
   43.6136    6.2696   13.5702 H   0  0  0  0  0  0  0  0  0  0  0  0
   47.1598    5.4727   12.1368 H   0  0  0  0  0  0  0  0  0  0  0  0
   45.9578    5.7487   10.8796 H   0  0  0  0  0  0  0  0  0  0  0  0
   45.4720    3.9955   14.4574 H   0  0  0  0  0  0  0  0  0  0  0  0
   45.2129    1.7443   12.6059 H   0  0  0  0  0  0  0  0  0  0  0  0
   41.3712    5.7315   10.7949 H   0  0  0  0  0  0  0  0  0  0  0  0
   47.1253    8.8225   12.3634 H   0  0  0  0  0  0  0  0  0  0  0  0
   44.0163    7.0472   12.5317 H   0  0  0  0  0  0  0  0  0  0  0  0
   45.8105    3.6749   11.9411 H   0  0  0  0  0  0  0  0  0  0  0  0
   42.7607    5.6395   11.1332 H   0  0  0  0  0  0  0  0  0  0  0  0
   44.2412    5.0718   10.3699 H   0  0  0  0  0  0  0  0  0  0  0  0
   43.4800    3.4050   12.0204 H   0  0  0  0  0  0  0  0  0  0  0  0
   43.3813    4.6200   13.2899 H   0  0  0  0  0  0  0  0  0  0  0  0
   46.3459    7.3185   12.4511 H   0  0  0  0  0  0  0  0  0  0  0  0
   46.4467    6.1054   11.1800 H   0  0  0  0  0  0  0  0  0  0  0  0
   45.5861    5.6512   14.1007 H   0  0  0  0  0  0  0  0  0  0  0  0
   47.0646    5.0856   13.3394 H   0  0  0  0  0  0  0  0  0  0  0  0
   46.1463    4.0817   12.6666 H   0  0  0  0  0  0  0  0  0  0  0  0
   45.1581    5.0567   13.7978 H   0  0  0  0  0  0  0  0  0  0  0  0
   42.9600    5.0825   10.7279 H   0  0  0  0  0  0  0  0  0  0  0  0
   42.8521    5.0540   12.4787 H   0  0  0  0  0  0  0  0  0  0  0  0
   45.9220    6.1361   10.1739 H   0  0  0  0  0  0  0  0  0  0  0  0
   43.8819    8.3590   12.9433 H   0  0  0  0  0  0  0  0  0  0  0  0
   48.3809    6.2587   14.1983 H   0  0  0  0  0  0  0  0  0  0  0  0
   43.5338    1.7754   10.6005 H   0  0  0  0  0  0  0  0  0  0  0  0
   45.4630    3.1479   11.6988 H   0  0  0  0  0  0  0  0  0  0  0  0
   44.1554    6.3506   13.6864 H   0  0  0  0  0  0  0  0  0  0  0  0
   45.9034    4.4199   13.6061 H   0  0  0  0  0  0  0  0  0  0  0  0
   47.2108    4.6528   12.4451 H   0  0  0  0  0  0  0  0  0  0  0  0
   46.4618    6.8090   13.4821 H   0  0  0  0  0  0  0  0  0  0  0  0
   46.2967    6.8254   11.7300 H   0  0  0  0  0  0  0  0  0  0  0  0
   43.5146    4.0717   12.5946 H   0  0  0  0  0  0  0  0  0  0  0  0
   43.4062    4.0999   10.8352 H   0  0  0  0  0  0  0  0  0  0  0  0
   42.6527    6.2556   11.8699 H   0  0  0  0  0  0  0  0  0  0  0  0
   43.9928    6.4908   10.7541 H   0  0  0  0  0  0  0  0  0  0  0  0
   44.2943    4.1701   13.6291 H   0  0  0  0  0  0  0  0  0  0  0  0
   45.5301    6.5476   10.8392 H   0  0  0  0  0  0  0  0  0  0  0  0
   46.6360    4.1776   13.4821 H   0  0  0  0  0  0  0  0  0  0  0  0
   46.5302    4.2876   11.7296 H   0  0  0  0  0  0  0  0  0  0  0  0
   47.0135    6.5181   12.6598 H   0  0  0  0  0  0  0  0  0  0  0  0
   45.6532    6.4194   13.7706 H   0  0  0  0  0  0  0  0  0  0  0  0
   42.8136    4.2059   11.8111 H   0  0  0  0  0  0  0  0  0  0  0  0
   44.1735    4.3056   10.7003 H   0  0  0  0  0  0  0  0  0  0  0  0
   43.3016    6.4352   12.7456 H   0  0  0  0  0  0  0  0  0  0  0  0
   43.1871    6.5481   10.9922 H   0  0  0  0  0  0  0  0  0  0  0  0
  3  2  1  0
  4  2  1  0
  5  2  1  0
  6  4  1  0
  7  3  1  0
  8  5  2  0
  9  7  2  0
 10  6  2  0
 11  2  1  0
 12  5  1  0
 13  7  1  0
 14  6  1  0
 16 20  1  0
 17 15  1  0
 18 17  1  0
 19 15  1  0
 20 19  1  0
 16 18  1  0
 22 21  1  0
 23 21  1  0
 24 21  1  0
 25 23  1  0
 26 22  1  0
 27 24  2  0
 28 26  2  0
 29 25  2  0
 30 21  1  0
 31 24  1  0
 32 26  1  0
 33 25  1  0
 35 39  1  0
 36 34  1  0
 37 36  1  0
 38 34  1  0
 39 38  1  0
 35 37  1  0
 41 45  1  0
 42 40  1  0
 43 42  1  0
 44 40  1  0
 45 44  1  0
 41 43  1  0
  1 46  1  0
  1 47  1  0
  3 48  1  0
  3 49  1  0
  4 50  1  0
  4 51  1  0
 11 52  1  0
 12 53  1  0
 13 54  1  0
 14 55  1  0
 15 56  1  0
 16 57  1  0
 17 58  1  0
 17 59  1  0
 18 60  1  0
 18 61  1  0
 19 62  1  0
 19 63  1  0
 20 64  1  0
 20 65  1  0
 22 66  1  0
 22 67  1  0
 23 68  1  0
 23 69  1  0
 30 70  1  0
 31 71  1  0
 32 72  1  0
 33 73  1  0
 34 74  1  0
 35 75  1  0
 36 76  1  0
 36 77  1  0
 37 78  1  0
 37 79  1  0
 38 80  1  0
 38 81  1  0
 39 82  1  0
 39 83  1  0
 40 84  1  0
 41 85  1  0
 42 86  1  0
 42 87  1  0
 43 88  1  0
 43 89  1  0
 44 90  1  0
 44 91  1  0
 45 92  1  0
 45 93  1  0
M  END
> <Uni-Dock RESULT> 
ENERGY=   -8.064  LOWER_BOUND=    1.450  UPPER_BOUND=    3.874
INTER + INTRA:          -8.064
INTER:                  -8.064
INTRA:                   0.000
UNBOUND:                 0.000

$$$$

     RDKit          3D

 93 90  0  0  0  0  0  0  0  0999 V2000
   44.9962    5.6818   12.1839 O   0  0  0  0  0  0  0  0  0  0  0  0
   45.1715    4.6028   12.2561 C   0  0  0  0  0  0  0  0  0  0  0  0
   46.1029    5.4858   11.4207 C   0  0  0  0  0  0  0  0  0  0  0  0
   43.7795    5.1253   12.6224 C   0  0  0  0  0  0  0  0  0  0  0  0
   45.9149    4.2646   13.5599 C   0  0  0  0  0  0  0  0  0  0  0  0
   43.0072    5.6797   11.4601 C   0  0  0  0  0  0  0  0  0  0  0  0
   46.2929    6.8708   11.9724 C   0  0  0  0  0  0  0  0  0  0  0  0
   45.9814    4.9308   14.5783 O   0  0  0  0  0  0  0  0  0  0  0  0
   45.5014    7.5296   12.6197 O   0  0  0  0  0  0  0  0  0  0  0  0
   43.4388    6.2820   10.4940 O   0  0  0  0  0  0  0  0  0  0  0  0
   44.9687    3.3735   11.5191 O   0  0  0  0  0  0  0  0  0  0  0  0
   46.5839    3.0877   13.4715 O   0  0  0  0  0  0  0  0  0  0  0  0
   47.4937    7.3864   11.6379 O   0  0  0  0  0  0  0  0  0  0  0  0
   41.6750    5.5085   11.6071 O   0  0  0  0  0  0  0  0  0  0  0  0
   44.5556    6.5932   11.7607 N   0  0  0  0  0  0  0  0  0  0  0  0
   45.5805    4.0343   12.8739 N   0  0  0  0  0  0  0  0  0  0  0  0
   45.7696    6.5277   12.5935 C   0  0  0  0  0  0  0  0  0  0  0  0
   46.4722    5.1545   12.5265 C   0  0  0  0  0  0  0  0  0  0  0  0
   43.6628    5.4741   12.1091 C   0  0  0  0  0  0  0  0  0  0  0  0
   44.3660    4.1013   12.0418 C   0  0  0  0  0  0  0  0  0  0  0  0
   44.9415    5.7983   12.5754 C   0  0  0  0  0  0  0  0  0  0  0  0
   44.6670    4.3150   12.2938 C   0  0  0  0  0  0  0  0  0  0  0  0
   46.4370    6.1352   12.6510 C   0  0  0  0  0  0  0  0  0  0  0  0
   44.3681    6.7010   11.4699 C   0  0  0  0  0  0  0  0  0  0  0  0
   47.1919    5.2602   13.6060 C   0  0  0  0  0  0  0  0  0  0  0  0
   43.2281    4.0448   11.9529 C   0  0  0  0  0  0  0  0  0  0  0  0
   43.6936    7.7019   11.6529 O   0  0  0  0  0  0  0  0  0  0  0  0
   42.3025    4.8370   11.9655 O   0  0  0  0  0  0  0  0  0  0  0  0
   47.4744    4.0864   13.4281 O   0  0  0  0  0  0  0  0  0  0  0  0
   44.3628    6.1422   13.8446 O   0  0  0  0  0  0  0  0  0  0  0  0
   44.6881    6.3090   10.2234 O   0  0  0  0  0  0  0  0  0  0  0  0
   43.0206    2.7563   11.6183 O   0  0  0  0  0  0  0  0  0  0  0  0
   47.5813    5.8980   14.7233 O   0  0  0  0  0  0  0  0  0  0  0  0
   45.3229    4.8770   13.6650 N   0  0  0  0  0  0  0  0  0  0  0  0
   44.6982    5.8841   10.9442 N   0  0  0  0  0  0  0  0  0  0  0  0
   44.4415    4.1454   12.7447 C   0  0  0  0  0  0  0  0  0  0  0  0
   43.7462    5.0661   11.7188 C   0  0  0  0  0  0  0  0  0  0  0  0
   46.2545    5.7312   12.9156 C   0  0  0  0  0  0  0  0  0  0  0  0
   45.5435    6.6390   11.8883 C   0  0  0  0  0  0  0  0  0  0  0  0
   46.1235    4.3643   12.7527 N   0  0  0  0  0  0  0  0  0  0  0  0
   44.0108    6.2656   11.8840 N   0  0  0  0  0  0  0  0  0  0  0  0
   44.6895    4.0391   12.8397 C   0  0  0  0  0  0  0  0  0  0  0  0
   43.8332    4.8047   11.8080 C   0  0  0  0  0  0  0  0  0  0  0  0
   46.3012    5.8247   12.8265 C   0  0  0  0  0  0  0  0  0  0  0  0
   45.4455    6.5897   11.7936 C   0  0  0  0  0  0  0  0  0  0  0  0
   44.3956    4.9215   12.1874 H   0  0  0  0  0  0  0  0  0  0  0  0
   45.8111    5.3392   12.5806 H   0  0  0  0  0  0  0  0  0  0  0  0
   47.0903    5.0041   11.3682 H   0  0  0  0  0  0  0  0  0  0  0  0
   45.7646    5.5636   10.3817 H   0  0  0  0  0  0  0  0  0  0  0  0
   43.1957    4.2902   13.0359 H   0  0  0  0  0  0  0  0  0  0  0  0
   43.8134    5.8997   13.3960 H   0  0  0  0  0  0  0  0  0  0  0  0
   45.7396    2.8029   11.7197 H   0  0  0  0  0  0  0  0  0  0  0  0
   46.9989    2.9837   14.3550 H   0  0  0  0  0  0  0  0  0  0  0  0
   47.4718    8.2947   12.0086 H   0  0  0  0  0  0  0  0  0  0  0  0
   41.2950    5.9401   10.8134 H   0  0  0  0  0  0  0  0  0  0  0  0
   44.8395    6.4718   10.7873 H   0  0  0  0  0  0  0  0  0  0  0  0
   45.2968    4.1546   13.8471 H   0  0  0  0  0  0  0  0  0  0  0  0
   46.4651    7.3066   12.2617 H   0  0  0  0  0  0  0  0  0  0  0  0
   45.5066    6.7609   13.6329 H   0  0  0  0  0  0  0  0  0  0  0  0
   47.3260    5.1500   13.2132 H   0  0  0  0  0  0  0  0  0  0  0  0
   46.8754    4.9923   11.5191 H   0  0  0  0  0  0  0  0  0  0  0  0
   42.8099    5.4785   11.4210 H   0  0  0  0  0  0  0  0  0  0  0  0
   43.2574    5.6371   13.1157 H   0  0  0  0  0  0  0  0  0  0  0  0
   44.6284    3.8671   11.0027 H   0  0  0  0  0  0  0  0  0  0  0  0
   43.6705    3.3222   12.3705 H   0  0  0  0  0  0  0  0  0  0  0  0
   44.8946    3.7106   13.1795 H   0  0  0  0  0  0  0  0  0  0  0  0
   45.2746    3.9735   11.4494 H   0  0  0  0  0  0  0  0  0  0  0  0
   46.5740    7.1811   12.9593 H   0  0  0  0  0  0  0  0  0  0  0  0
   46.9276    6.0411   11.6735 H   0  0  0  0  0  0  0  0  0  0  0  0
   43.5141    6.6000   13.6593 H   0  0  0  0  0  0  0  0  0  0  0  0
   44.2379    6.9621    9.6446 H   0  0  0  0  0  0  0  0  0  0  0  0
   42.0564    2.6949   11.4498 H   0  0  0  0  0  0  0  0  0  0  0  0
   48.0335    5.2111   15.2553 H   0  0  0  0  0  0  0  0  0  0  0  0
   45.8478    4.2149   14.2343 H   0  0  0  0  0  0  0  0  0  0  0  0
   45.3015    5.2512   10.4204 H   0  0  0  0  0  0  0  0  0  0  0  0
   45.0251    3.3820   12.2146 H   0  0  0  0  0  0  0  0  0  0  0  0
   43.6790    3.6195   13.3297 H   0  0  0  0  0  0  0  0  0  0  0  0
   43.1633    4.4528   11.0221 H   0  0  0  0  0  0  0  0  0  0  0  0
   43.0345    5.7269   12.2294 H   0  0  0  0  0  0  0  0  0  0  0  0
   46.9904    5.1006   12.4005 H   0  0  0  0  0  0  0  0  0  0  0  0
   46.8084    6.3568   13.6239 H   0  0  0  0  0  0  0  0  0  0  0  0
   46.2962    7.1937   11.3169 H   0  0  0  0  0  0  0  0  0  0  0  0
   44.9293    7.3853   12.4082 H   0  0  0  0  0  0  0  0  0  0  0  0
   46.4587    4.0568   11.8387 H   0  0  0  0  0  0  0  0  0  0  0  0
   43.6814    6.5715   12.8009 H   0  0  0  0  0  0  0  0  0  0  0  0
   44.5644    2.9616   12.6856 H   0  0  0  0  0  0  0  0  0  0  0  0
   44.3335    4.2554   13.8549 H   0  0  0  0  0  0  0  0  0  0  0  0
   42.7755    4.5697   11.9713 H   0  0  0  0  0  0  0  0  0  0  0  0
   44.0779    4.4645   10.7938 H   0  0  0  0  0  0  0  0  0  0  0  0
   47.3591    6.0588   12.6634 H   0  0  0  0  0  0  0  0  0  0  0  0
   46.0564    6.1647   13.8401 H   0  0  0  0  0  0  0  0  0  0  0  0
   45.7986    6.3673   10.7789 H   0  0  0  0  0  0  0  0  0  0  0  0
   45.5728    7.6677   11.9443 H   0  0  0  0  0  0  0  0  0  0  0  0
  3  2  1  0
  4  2  1  0
  5  2  1  0
  6  4  1  0
  7  3  1  0
  8  5  2  0
  9  7  2  0
 10  6  2  0
 11  2  1  0
 12  5  1  0
 13  7  1  0
 14  6  1  0
 16 20  1  0
 17 15  1  0
 18 17  1  0
 19 15  1  0
 20 19  1  0
 16 18  1  0
 22 21  1  0
 23 21  1  0
 24 21  1  0
 25 23  1  0
 26 22  1  0
 27 24  2  0
 28 26  2  0
 29 25  2  0
 30 21  1  0
 31 24  1  0
 32 26  1  0
 33 25  1  0
 35 39  1  0
 36 34  1  0
 37 36  1  0
 38 34  1  0
 39 38  1  0
 35 37  1  0
 41 45  1  0
 42 40  1  0
 43 42  1  0
 44 40  1  0
 45 44  1  0
 41 43  1  0
  1 46  1  0
  1 47  1  0
  3 48  1  0
  3 49  1  0
  4 50  1  0
  4 51  1  0
 11 52  1  0
 12 53  1  0
 13 54  1  0
 14 55  1  0
 15 56  1  0
 16 57  1  0
 17 58  1  0
 17 59  1  0
 18 60  1  0
 18 61  1  0
 19 62  1  0
 19 63  1  0
 20 64  1  0
 20 65  1  0
 22 66  1  0
 22 67  1  0
 23 68  1  0
 23 69  1  0
 30 70  1  0
 31 71  1  0
 32 72  1  0
 33 73  1  0
 34 74  1  0
 35 75  1  0
 36 76  1  0
 36 77  1  0
 37 78  1  0
 37 79  1  0
 38 80  1  0
 38 81  1  0
 39 82  1  0
 39 83  1  0
 40 84  1  0
 41 85  1  0
 42 86  1  0
 42 87  1  0
 43 88  1  0
 43 89  1  0
 44 90  1  0
 44 91  1  0
 45 92  1  0
 45 93  1  0
M  END
> <Uni-Dock RESULT> 
ENERGY=   -7.835  LOWER_BOUND=    1.611  UPPER_BOUND=    3.452
INTER + INTRA:          -7.835
INTER:                  -7.835
INTRA:                   0.000
UNBOUND:                 0.000

$$$$

     RDKit          3D

 93 90  0  0  0  0  0  0  0  0999 V2000
   45.2164    5.7212   12.2809 O   0  0  0  0  0  0  0  0  0  0  0  0
   45.0772    4.8182   12.8854 C   0  0  0  0  0  0  0  0  0  0  0  0
   43.9472    5.8428   12.7501 C   0  0  0  0  0  0  0  0  0  0  0  0
   46.5114    5.2428   12.5572 C   0  0  0  0  0  0  0  0  0  0  0  0
   44.7147    3.6214   11.9890 C   0  0  0  0  0  0  0  0  0  0  0  0
   46.9377    6.5231   13.2157 C   0  0  0  0  0  0  0  0  0  0  0  0
   43.8993    6.5301   11.4145 C   0  0  0  0  0  0  0  0  0  0  0  0
   44.9179    3.4922   10.7943 O   0  0  0  0  0  0  0  0  0  0  0  0
   44.8292    6.7781   10.6707 O   0  0  0  0  0  0  0  0  0  0  0  0
   46.2567    7.5031   13.4575 O   0  0  0  0  0  0  0  0  0  0  0  0
   45.0864    4.3668   14.2607 O   0  0  0  0  0  0  0  0  0  0  0  0
   44.0578    2.6538   12.6764 O   0  0  0  0  0  0  0  0  0  0  0  0
   42.6479    6.9159   11.0906 O   0  0  0  0  0  0  0  0  0  0  0  0
   48.2620    6.5406   13.4833 O   0  0  0  0  0  0  0  0  0  0  0  0
   45.5183    6.7599   12.0969 N   0  0  0  0  0  0  0  0  0  0  0  0
   44.8547    3.9280   12.7115 N   0  0  0  0  0  0  0  0  0  0  0  0
   44.5734    5.9782   11.2799 C   0  0  0  0  0  0  0  0  0  0  0  0
   43.8918    4.8407   12.0707 C   0  0  0  0  0  0  0  0  0  0  0  0
   46.4826    5.8476   12.7364 C   0  0  0  0  0  0  0  0  0  0  0  0
   45.8003    4.7106   13.5271 C   0  0  0  0  0  0  0  0  0  0  0  0
   45.3732    5.5789   11.9274 C   0  0  0  0  0  0  0  0  0  0  0  0
   45.5760    4.6650   13.1431 C   0  0  0  0  0  0  0  0  0  0  0  0
   43.9497    5.5219   11.3559 C   0  0  0  0  0  0  0  0  0  0  0  0
   45.6198    7.0555   12.2804 C   0  0  0  0  0  0  0  0  0  0  0  0
   43.4876    4.1268   11.0601 C   0  0  0  0  0  0  0  0  0  0  0  0
   46.8730    4.9265   13.8568 C   0  0  0  0  0  0  0  0  0  0  0  0
   46.3091    7.8310   11.6371 O   0  0  0  0  0  0  0  0  0  0  0  0
   47.7603    5.6922   13.5239 O   0  0  0  0  0  0  0  0  0  0  0  0
   43.1789    3.2860   11.8890 O   0  0  0  0  0  0  0  0  0  0  0  0
   46.2682    5.1638   10.8831 O   0  0  0  0  0  0  0  0  0  0  0  0
   44.9805    7.4662   13.3905 O   0  0  0  0  0  0  0  0  0  0  0  0
   46.9952    4.1825   14.9734 O   0  0  0  0  0  0  0  0  0  0  0  0
   43.4066    3.8568    9.7458 O   0  0  0  0  0  0  0  0  0  0  0  0
   45.3073    4.1324   11.6364 N   0  0  0  0  0  0  0  0  0  0  0  0
   45.1684    6.6943   13.1280 N   0  0  0  0  0  0  0  0  0  0  0  0
   45.9161    4.2974   12.9635 C   0  0  0  0  0  0  0  0  0  0  0  0
   46.3013    5.7607   13.2705 C   0  0  0  0  0  0  0  0  0  0  0  0
   44.2005    5.0819   11.4560 C   0  0  0  0  0  0  0  0  0  0  0  0
   44.6007    6.5389   11.7754 C   0  0  0  0  0  0  0  0  0  0  0  0
   44.2960    4.1582   12.4806 N   0  0  0  0  0  0  0  0  0  0  0  0
   46.0793    6.5306   12.3250 N   0  0  0  0  0  0  0  0  0  0  0  0
   45.7037    4.1128   12.9119 C   0  0  0  0  0  0  0  0  0  0  0  0
   46.2440    5.4896   13.3550 C   0  0  0  0  0  0  0  0  0  0  0  0
   44.1307    5.2001   11.4525 C   0  0  0  0  0  0  0  0  0  0  0  0
   44.6701    6.5771   11.8968 C   0  0  0  0  0  0  0  0  0  0  0  0
   45.8030    5.2441   12.8867 H   0  0  0  0  0  0  0  0  0  0  0  0
   44.5413    5.0677   12.0444 H   0  0  0  0  0  0  0  0  0  0  0  0
   42.9867    5.3286   12.9008 H   0  0  0  0  0  0  0  0  0  0  0  0
   43.9932    6.6039   13.5367 H   0  0  0  0  0  0  0  0  0  0  0  0
   47.1928    4.4526   12.9043 H   0  0  0  0  0  0  0  0  0  0  0  0
   46.6792    5.3533   11.4807 H   0  0  0  0  0  0  0  0  0  0  0  0
   44.4031    3.6673   14.3245 H   0  0  0  0  0  0  0  0  0  0  0  0
   43.8965    1.9547   12.0064 H   0  0  0  0  0  0  0  0  0  0  0  0
   42.7599    7.3875   10.2374 H   0  0  0  0  0  0  0  0  0  0  0  0
   48.4106    7.4291   13.8696 H   0  0  0  0  0  0  0  0  0  0  0  0
   44.9846    7.2161   12.8384 H   0  0  0  0  0  0  0  0  0  0  0  0
   45.3883    3.4711   11.9708 H   0  0  0  0  0  0  0  0  0  0  0  0
   43.8069    6.6548   10.8860 H   0  0  0  0  0  0  0  0  0  0  0  0
   45.1038    5.5632   10.4136 H   0  0  0  0  0  0  0  0  0  0  0  0
   43.2540    4.2605   11.3947 H   0  0  0  0  0  0  0  0  0  0  0  0
   43.2343    5.2652   12.8397 H   0  0  0  0  0  0  0  0  0  0  0  0
   47.1192    6.4285   13.4133 H   0  0  0  0  0  0  0  0  0  0  0  0
   47.1419    5.4247   11.9679 H   0  0  0  0  0  0  0  0  0  0  0  0
   45.2706    5.1247   14.3939 H   0  0  0  0  0  0  0  0  0  0  0  0
   46.5660    4.0356   13.9234 H   0  0  0  0  0  0  0  0  0  0  0  0
   45.6006    3.6147   12.8304 H   0  0  0  0  0  0  0  0  0  0  0  0
   44.7672    4.8148   13.8658 H   0  0  0  0  0  0  0  0  0  0  0  0
   43.8907    6.1089   10.4287 H   0  0  0  0  0  0  0  0  0  0  0  0
   43.2155    5.9645   12.0415 H   0  0  0  0  0  0  0  0  0  0  0  0
   47.0315    5.7814   10.8960 H   0  0  0  0  0  0  0  0  0  0  0  0
   45.2523    8.4046   13.4894 H   0  0  0  0  0  0  0  0  0  0  0  0
   47.8792    4.4124   15.3303 H   0  0  0  0  0  0  0  0  0  0  0  0
   43.1206    2.9210    9.7029 H   0  0  0  0  0  0  0  0  0  0  0  0
   44.9610    3.1796   11.5353 H   0  0  0  0  0  0  0  0  0  0  0  0
   44.4526    6.4238   13.8013 H   0  0  0  0  0  0  0  0  0  0  0  0
   45.2188    3.9343   13.7293 H   0  0  0  0  0  0  0  0  0  0  0  0
   46.8126    3.6705   13.0209 H   0  0  0  0  0  0  0  0  0  0  0  0
   46.6814    5.8248   14.2965 H   0  0  0  0  0  0  0  0  0  0  0  0
   47.1177    6.0801   12.6107 H   0  0  0  0  0  0  0  0  0  0  0  0
   43.3594    4.7840   12.0949 H   0  0  0  0  0  0  0  0  0  0  0  0
   43.8514    5.0251   10.4193 H   0  0  0  0  0  0  0  0  0  0  0  0
   43.7169    7.1812   11.6915 H   0  0  0  0  0  0  0  0  0  0  0  0
   45.3249    6.9006   11.0343 H   0  0  0  0  0  0  0  0  0  0  0  0
   43.7305    4.4259   13.2873 H   0  0  0  0  0  0  0  0  0  0  0  0
   46.6401    6.2588   11.5159 H   0  0  0  0  0  0  0  0  0  0  0  0
   45.7931    3.4044   13.7430 H   0  0  0  0  0  0  0  0  0  0  0  0
   46.3172    3.7165   12.0930 H   0  0  0  0  0  0  0  0  0  0  0  0
   47.3088    5.3987   13.5967 H   0  0  0  0  0  0  0  0  0  0  0  0
   45.7390    5.8103   14.2749 H   0  0  0  0  0  0  0  0  0  0  0  0
   43.0657    5.2901   11.2113 H   0  0  0  0  0  0  0  0  0  0  0  0
   44.6356    4.8796   10.5331 H   0  0  0  0  0  0  0  0  0  0  0  0
   44.0595    6.9689   12.7198 H   0  0  0  0  0  0  0  0  0  0  0  0
   44.5777    7.2875   11.0675 H   0  0  0  0  0  0  0  0  0  0  0  0
  3  2  1  0
  4  2  1  0
  5  2  1  0
  6  4  1  0
  7  3  1  0
  8  5  2  0
  9  7  2  0
 10  6  2  0
 11  2  1  0
 12  5  1  0
 13  7  1  0
 14  6  1  0
 16 20  1  0
 17 15  1  0
 18 17  1  0
 19 15  1  0
 20 19  1  0
 16 18  1  0
 22 21  1  0
 23 21  1  0
 24 21  1  0
 25 23  1  0
 26 22  1  0
 27 24  2  0
 28 26  2  0
 29 25  2  0
 30 21  1  0
 31 24  1  0
 32 26  1  0
 33 25  1  0
 35 39  1  0
 36 34  1  0
 37 36  1  0
 38 34  1  0
 39 38  1  0
 35 37  1  0
 41 45  1  0
 42 40  1  0
 43 42  1  0
 44 40  1  0
 45 44  1  0
 41 43  1  0
  1 46  1  0
  1 47  1  0
  3 48  1  0
  3 49  1  0
  4 50  1  0
  4 51  1  0
 11 52  1  0
 12 53  1  0
 13 54  1  0
 14 55  1  0
 15 56  1  0
 16 57  1  0
 17 58  1  0
 17 59  1  0
 18 60  1  0
 18 61  1  0
 19 62  1  0
 19 63  1  0
 20 64  1  0
 20 65  1  0
 22 66  1  0
 22 67  1  0
 23 68  1  0
 23 69  1  0
 30 70  1  0
 31 71  1  0
 32 72  1  0
 33 73  1  0
 34 74  1  0
 35 75  1  0
 36 76  1  0
 36 77  1  0
 37 78  1  0
 37 79  1  0
 38 80  1  0
 38 81  1  0
 39 82  1  0
 39 83  1  0
 40 84  1  0
 41 85  1  0
 42 86  1  0
 42 87  1  0
 43 88  1  0
 43 89  1  0
 44 90  1  0
 44 91  1  0
 45 92  1  0
 45 93  1  0
M  END
> <Uni-Dock RESULT> 
ENERGY=   -7.612  LOWER_BOUND=    1.562  UPPER_BOUND=    3.992
INTER + INTRA:          -7.612
INTER:                  -7.612
INTRA:                   0.000
UNBOUND:                 0.000

$$$$

     RDKit          3D

 93 90  0  0  0  0  0  0  0  0999 V2000
   44.2833    4.6581   11.3302 O   0  0  0  0  0  0  0  0  0  0  0  0
   45.2307    4.8556   10.8166 C   0  0  0  0  0  0  0  0  0  0  0  0
   45.0364    3.5640   11.6160 C   0  0  0  0  0  0  0  0  0  0  0  0
   44.3030    6.0442   11.0840 C   0  0  0  0  0  0  0  0  0  0  0  0
   45.1215    4.4882    9.3265 C   0  0  0  0  0  0  0  0  0  0  0  0
   44.1555    6.3920   12.5372 C   0  0  0  0  0  0  0  0  0  0  0  0
   43.6317    3.0305   11.5873 C   0  0  0  0  0  0  0  0  0  0  0  0
   44.1107    4.3794    8.6544 O   0  0  0  0  0  0  0  0  0  0  0  0
   42.5971    3.6620   11.4854 O   0  0  0  0  0  0  0  0  0  0  0  0
   44.1506    5.6352   13.4910 O   0  0  0  0  0  0  0  0  0  0  0  0
   46.5780    5.3201   11.0703 O   0  0  0  0  0  0  0  0  0  0  0  0
   46.3351    4.2308    8.7776 O   0  0  0  0  0  0  0  0  0  0  0  0
   43.5986    1.6896   11.7310 O   0  0  0  0  0  0  0  0  0  0  0  0
   43.9411    7.7129   12.7244 O   0  0  0  0  0  0  0  0  0  0  0  0
   43.5761    4.7037   12.1678 N   0  0  0  0  0  0  0  0  0  0  0  0
   45.5471    4.7607    9.9430 N   0  0  0  0  0  0  0  0  0  0  0  0
   43.5412    3.7318   11.0608 C   0  0  0  0  0  0  0  0  0  0  0  0
   44.9239    3.5101   10.4105 C   0  0  0  0  0  0  0  0  0  0  0  0
   44.1977    5.9552   11.7002 C   0  0  0  0  0  0  0  0  0  0  0  0
   45.5803    5.7327   11.0502 C   0  0  0  0  0  0  0  0  0  0  0  0
   43.9984    4.7362   11.0430 C   0  0  0  0  0  0  0  0  0  0  0  0
   45.3514    5.4249   10.8207 C   0  0  0  0  0  0  0  0  0  0  0  0
   44.0076    3.2464   10.6738 C   0  0  0  0  0  0  0  0  0  0  0  0
   43.5673    4.7955   12.5183 C   0  0  0  0  0  0  0  0  0  0  0  0
   44.5210    2.9841    9.2899 C   0  0  0  0  0  0  0  0  0  0  0  0
   45.4130    6.7965   11.4329 C   0  0  0  0  0  0  0  0  0  0  0  0
   42.4644    5.1306   12.9200 O   0  0  0  0  0  0  0  0  0  0  0  0
   44.5099    7.4048   11.9796 O   0  0  0  0  0  0  0  0  0  0  0  0
   45.6843    3.0710    8.9316 O   0  0  0  0  0  0  0  0  0  0  0  0
   43.0137    5.3742   10.2140 O   0  0  0  0  0  0  0  0  0  0  0  0
   44.5260    4.4178   13.3833 O   0  0  0  0  0  0  0  0  0  0  0  0
   46.6347    7.3510   11.3105 O   0  0  0  0  0  0  0  0  0  0  0  0
   43.5642    2.6000    8.4276 O   0  0  0  0  0  0  0  0  0  0  0  0
   44.4094    4.8591    9.6297 N   0  0  0  0  0  0  0  0  0  0  0  0
   44.5828    4.6650   12.5860 N   0  0  0  0  0  0  0  0  0  0  0  0
   45.2512    5.7646   10.4237 C   0  0  0  0  0  0  0  0  0  0  0  0
   44.7424    5.9448   11.8702 C   0  0  0  0  0  0  0  0  0  0  0  0
   44.2026    3.5908   10.3424 C   0  0  0  0  0  0  0  0  0  0  0  0
   43.7020    3.7897   11.7898 C   0  0  0  0  0  0  0  0  0  0  0  0
   45.4346    4.1280   10.0174 N   0  0  0  0  0  0  0  0  0  0  0  0
   43.6850    5.3377   12.0930 N   0  0  0  0  0  0  0  0  0  0  0  0
   45.3579    5.5836   10.2296 C   0  0  0  0  0  0  0  0  0  0  0  0
   44.9505    5.9630   11.6697 C   0  0  0  0  0  0  0  0  0  0  0  0
   44.1707    3.5023   10.4425 C   0  0  0  0  0  0  0  0  0  0  0  0
   43.7644    3.8813   11.8832 C   0  0  0  0  0  0  0  0  0  0  0  0
   44.8091    5.4640   11.2169 H   0  0  0  0  0  0  0  0  0  0  0  0
   44.5910    4.0753   10.6199 H   0  0  0  0  0  0  0  0  0  0  0  0
   45.7004    2.7911   11.2019 H   0  0  0  0  0  0  0  0  0  0  0  0
   45.3473    3.6820   12.6597 H   0  0  0  0  0  0  0  0  0  0  0  0
   44.7181    6.9266   10.5759 H   0  0  0  0  0  0  0  0  0  0  0  0
   43.2978    5.8903   10.6775 H   0  0  0  0  0  0  0  0  0  0  0  0
   47.1601    4.8195   10.4615 H   0  0  0  0  0  0  0  0  0  0  0  0
   46.1321    4.0240    7.8396 H   0  0  0  0  0  0  0  0  0  0  0  0
   42.6406    1.4777   11.7461 H   0  0  0  0  0  0  0  0  0  0  0  0
   43.8274    7.7960   13.6944 H   0  0  0  0  0  0  0  0  0  0  0  0
   44.1714    4.3175   12.9020 H   0  0  0  0  0  0  0  0  0  0  0  0
   44.9529    5.1472    9.2085 H   0  0  0  0  0  0  0  0  0  0  0  0
   43.1642    2.7770   11.4439 H   0  0  0  0  0  0  0  0  0  0  0  0
   42.8242    4.0735   10.3036 H   0  0  0  0  0  0  0  0  0  0  0  0
   44.8190    2.8298    9.5580 H   0  0  0  0  0  0  0  0  0  0  0  0
   45.5964    3.0201   11.1255 H   0  0  0  0  0  0  0  0  0  0  0  0
   44.3034    6.6344   12.5536 H   0  0  0  0  0  0  0  0  0  0  0  0
   43.5243    6.4468   10.9867 H   0  0  0  0  0  0  0  0  0  0  0  0
   46.2977    5.3920   11.8068 H   0  0  0  0  0  0  0  0  0  0  0  0
   45.9587    6.6871   10.6697 H   0  0  0  0  0  0  0  0  0  0  0  0
   45.5412    5.5550    9.7490 H   0  0  0  0  0  0  0  0  0  0  0  0
   46.1547    4.8295   11.2669 H   0  0  0  0  0  0  0  0  0  0  0  0
   42.9928    2.8316   10.7497 H   0  0  0  0  0  0  0  0  0  0  0  0
   44.6274    2.6579   11.3628 H   0  0  0  0  0  0  0  0  0  0  0  0
   42.5057    5.9862   10.7898 H   0  0  0  0  0  0  0  0  0  0  0  0
   44.1094    4.5302   14.2655 H   0  0  0  0  0  0  0  0  0  0  0  0
   46.5455    8.2413   11.7120 H   0  0  0  0  0  0  0  0  0  0  0  0
   44.0310    2.4889    7.5737 H   0  0  0  0  0  0  0  0  0  0  0  0
   44.8546    4.6784    8.7313 H   0  0  0  0  0  0  0  0  0  0  0  0
   45.4985    4.2209   12.6421 H   0  0  0  0  0  0  0  0  0  0  0  0
   46.2789    5.3799   10.4427 H   0  0  0  0  0  0  0  0  0  0  0  0
   45.2821    6.7418    9.9296 H   0  0  0  0  0  0  0  0  0  0  0  0
   45.4505    6.5708   12.4252 H   0  0  0  0  0  0  0  0  0  0  0  0
   43.7839    6.4787   11.8670 H   0  0  0  0  0  0  0  0  0  0  0  0
   45.1422    3.0239   10.3538 H   0  0  0  0  0  0  0  0  0  0  0  0
   43.4723    2.9898    9.7899 H   0  0  0  0  0  0  0  0  0  0  0  0
   43.6381    2.8144   12.2854 H   0  0  0  0  0  0  0  0  0  0  0  0
   42.6869    4.2067   11.7822 H   0  0  0  0  0  0  0  0  0  0  0  0
   46.1776    3.7638   10.6155 H   0  0  0  0  0  0  0  0  0  0  0  0
   42.9435    5.6975   11.4901 H   0  0  0  0  0  0  0  0  0  0  0  0
   46.3355    6.0230   10.0022 H   0  0  0  0  0  0  0  0  0  0  0  0
   44.6455    6.0133    9.5141 H   0  0  0  0  0  0  0  0  0  0  0  0
   44.8463    7.0515   11.7403 H   0  0  0  0  0  0  0  0  0  0  0  0
   45.7454    5.6771   12.3701 H   0  0  0  0  0  0  0  0  0  0  0  0
   44.2756    2.4141   10.3712 H   0  0  0  0  0  0  0  0  0  0  0  0
   43.3761    3.7884    9.7425 H   0  0  0  0  0  0  0  0  0  0  0  0
   44.4814    3.4562   12.5967 H   0  0  0  0  0  0  0  0  0  0  0  0
   42.7885    3.4390   12.1130 H   0  0  0  0  0  0  0  0  0  0  0  0
  3  2  1  0
  4  2  1  0
  5  2  1  0
  6  4  1  0
  7  3  1  0
  8  5  2  0
  9  7  2  0
 10  6  2  0
 11  2  1  0
 12  5  1  0
 13  7  1  0
 14  6  1  0
 16 20  1  0
 17 15  1  0
 18 17  1  0
 19 15  1  0
 20 19  1  0
 16 18  1  0
 22 21  1  0
 23 21  1  0
 24 21  1  0
 25 23  1  0
 26 22  1  0
 27 24  2  0
 28 26  2  0
 29 25  2  0
 30 21  1  0
 31 24  1  0
 32 26  1  0
 33 25  1  0
 35 39  1  0
 36 34  1  0
 37 36  1  0
 38 34  1  0
 39 38  1  0
 35 37  1  0
 41 45  1  0
 42 40  1  0
 43 42  1  0
 44 40  1  0
 45 44  1  0
 41 43  1  0
  1 46  1  0
  1 47  1  0
  3 48  1  0
  3 49  1  0
  4 50  1  0
  4 51  1  0
 11 52  1  0
 12 53  1  0
 13 54  1  0
 14 55  1  0
 15 56  1  0
 16 57  1  0
 17 58  1  0
 17 59  1  0
 18 60  1  0
 18 61  1  0
 19 62  1  0
 19 63  1  0
 20 64  1  0
 20 65  1  0
 22 66  1  0
 22 67  1  0
 23 68  1  0
 23 69  1  0
 30 70  1  0
 31 71  1  0
 32 72  1  0
 33 73  1  0
 34 74  1  0
 35 75  1  0
 36 76  1  0
 36 77  1  0
 37 78  1  0
 37 79  1  0
 38 80  1  0
 38 81  1  0
 39 82  1  0
 39 83  1  0
 40 84  1  0
 41 85  1  0
 42 86  1  0
 42 87  1  0
 43 88  1  0
 43 89  1  0
 44 90  1  0
 44 91  1  0
 45 92  1  0
 45 93  1  0
M  END
> <Uni-Dock RESULT> 
ENERGY=   -7.025  LOWER_BOUND=    1.024  UPPER_BOUND=    3.298
INTER + INTRA:          -7.025
INTER:                  -7.025
INTRA:                   0.000
UNBOUND:                 0.000

$$$$

     RDKit          3D

 93 90  0  0  0  0  0  0  0  0999 V2000
   45.0416    5.1062   12.4514 O   0  0  0  0  0  0  0  0  0  0  0  0
   44.3764    5.9730   12.3708 C   0  0  0  0  0  0  0  0  0  0  0  0
   45.1844    5.7314   13.6490 C   0  0  0  0  0  0  0  0  0  0  0  0
   44.1544    4.8107   11.3988 C   0  0  0  0  0  0  0  0  0  0  0  0
   45.0691    7.1130   11.6044 C   0  0  0  0  0  0  0  0  0  0  0  0
   43.6626    3.5510   12.0514 C   0  0  0  0  0  0  0  0  0  0  0  0
   46.5286    5.1013   13.4149 C   0  0  0  0  0  0  0  0  0  0  0  0
   46.0122    7.0342   10.8365 O   0  0  0  0  0  0  0  0  0  0  0  0
   46.8479    4.3372   12.5241 O   0  0  0  0  0  0  0  0  0  0  0  0
   43.9400    3.1237   13.1573 O   0  0  0  0  0  0  0  0  0  0  0  0
   43.0630    6.4303   12.7720 O   0  0  0  0  0  0  0  0  0  0  0  0
   44.5342    8.3233   11.9035 O   0  0  0  0  0  0  0  0  0  0  0  0
   47.4200    5.4469   14.3666 O   0  0  0  0  0  0  0  0  0  0  0  0
   42.8748    2.8258   11.2272 O   0  0  0  0  0  0  0  0  0  0  0  0
   45.2954    4.0632   12.6790 N   0  0  0  0  0  0  0  0  0  0  0  0
   44.4366    6.8260   11.9955 N   0  0  0  0  0  0  0  0  0  0  0  0
   46.2492    5.1824   12.5827 C   0  0  0  0  0  0  0  0  0  0  0  0
   45.5976    6.5543   12.8609 C   0  0  0  0  0  0  0  0  0  0  0  0
   44.1350    4.3338   11.8122 C   0  0  0  0  0  0  0  0  0  0  0  0
   43.4840    5.7056   12.0911 C   0  0  0  0  0  0  0  0  0  0  0  0
   45.2583    5.1164   12.1011 C   0  0  0  0  0  0  0  0  0  0  0  0
   43.9076    5.8428   12.0515 C   0  0  0  0  0  0  0  0  0  0  0  0
   46.3477    5.9100   12.8355 C   0  0  0  0  0  0  0  0  0  0  0  0
   45.1528    3.7726   12.8421 C   0  0  0  0  0  0  0  0  0  0  0  0
   46.5100    7.3077   12.3185 C   0  0  0  0  0  0  0  0  0  0  0  0
   42.7884    4.9572   11.5791 C   0  0  0  0  0  0  0  0  0  0  0  0
   45.5949    2.7076   12.4417 O   0  0  0  0  0  0  0  0  0  0  0  0
   42.8713    3.8108   11.1747 O   0  0  0  0  0  0  0  0  0  0  0  0
   45.7308    8.2299   12.4966 O   0  0  0  0  0  0  0  0  0  0  0  0
   45.7186    4.9051   10.7567 O   0  0  0  0  0  0  0  0  0  0  0  0
   44.5262    3.8513   14.0300 O   0  0  0  0  0  0  0  0  0  0  0  0
   41.5948    5.5800   11.6288 O   0  0  0  0  0  0  0  0  0  0  0  0
   47.6483    7.4948   11.6286 O   0  0  0  0  0  0  0  0  0  0  0  0
   45.2394    6.3397   11.2736 N   0  0  0  0  0  0  0  0  0  0  0  0
   44.5175    4.3748   13.3773 N   0  0  0  0  0  0  0  0  0  0  0  0
   43.8466    5.9510   11.5342 C   0  0  0  0  0  0  0  0  0  0  0  0
   43.7209    4.5394   12.1469 C   0  0  0  0  0  0  0  0  0  0  0  0
   46.0619    6.1451   12.4757 C   0  0  0  0  0  0  0  0  0  0  0  0
   45.9176    4.7313   13.0800 C   0  0  0  0  0  0  0  0  0  0  0  0
   44.9230    6.9266   12.4099 N   0  0  0  0  0  0  0  0  0  0  0  0
   44.8107    3.9604   12.2621 N   0  0  0  0  0  0  0  0  0  0  0  0
   43.9425    6.2182   11.5694 C   0  0  0  0  0  0  0  0  0  0  0  0
   43.6135    4.8020   12.0889 C   0  0  0  0  0  0  0  0  0  0  0  0
   46.1190    6.0848   12.5850 C   0  0  0  0  0  0  0  0  0  0  0  0
   45.7893    4.6689   13.1057 C   0  0  0  0  0  0  0  0  0  0  0  0
   44.1604    5.2194   12.0646 H   0  0  0  0  0  0  0  0  0  0  0  0
   45.3963    6.0067   12.4952 H   0  0  0  0  0  0  0  0  0  0  0  0
   45.3460    6.6970   14.1504 H   0  0  0  0  0  0  0  0  0  0  0  0
   44.6299    5.1213   14.3704 H   0  0  0  0  0  0  0  0  0  0  0  0
   43.3965    5.1166   10.6632 H   0  0  0  0  0  0  0  0  0  0  0  0
   45.0582    4.5589   10.8340 H   0  0  0  0  0  0  0  0  0  0  0  0
   43.1462    7.3925   12.9378 H   0  0  0  0  0  0  0  0  0  0  0  0
   45.0471    8.9524   11.3513 H   0  0  0  0  0  0  0  0  0  0  0  0
   48.2257    4.9390   14.1305 H   0  0  0  0  0  0  0  0  0  0  0  0
   42.6578    2.0280   11.7537 H   0  0  0  0  0  0  0  0  0  0  0  0
   44.9598    4.0228   13.6426 H   0  0  0  0  0  0  0  0  0  0  0  0
   44.7714    6.8672   11.0320 H   0  0  0  0  0  0  0  0  0  0  0  0
   47.0602    5.0150   13.3001 H   0  0  0  0  0  0  0  0  0  0  0  0
   46.7051    5.1825   11.5847 H   0  0  0  0  0  0  0  0  0  0  0  0
   46.3403    7.3457   12.7113 H   0  0  0  0  0  0  0  0  0  0  0  0
   45.2828    6.6100   13.9105 H   0  0  0  0  0  0  0  0  0  0  0  0
   43.3922    3.5426   11.9636 H   0  0  0  0  0  0  0  0  0  0  0  0
   44.4489    4.2759   10.7623 H   0  0  0  0  0  0  0  0  0  0  0  0
   43.0271    5.7059   13.0884 H   0  0  0  0  0  0  0  0  0  0  0  0
   42.6714    5.8723   11.3763 H   0  0  0  0  0  0  0  0  0  0  0  0
   43.9532    6.6848   11.3512 H   0  0  0  0  0  0  0  0  0  0  0  0
   43.6396    6.2076   13.0485 H   0  0  0  0  0  0  0  0  0  0  0  0
   47.3146    5.3952   12.7479 H   0  0  0  0  0  0  0  0  0  0  0  0
   46.1425    5.9875   13.9111 H   0  0  0  0  0  0  0  0  0  0  0  0
   45.5169    3.9720   10.5268 H   0  0  0  0  0  0  0  0  0  0  0  0
   44.5218    2.9263   14.3594 H   0  0  0  0  0  0  0  0  0  0  0  0
   40.9572    4.9252   11.2731 H   0  0  0  0  0  0  0  0  0  0  0  0
   47.6098    8.4290   11.3367 H   0  0  0  0  0  0  0  0  0  0  0  0
   45.2740    7.3174   10.9896 H   0  0  0  0  0  0  0  0  0  0  0  0
   44.1659    5.0357   14.0691 H   0  0  0  0  0  0  0  0  0  0  0  0
   43.3861    6.6846   12.2082 H   0  0  0  0  0  0  0  0  0  0  0  0
   43.2887    5.9845   10.5921 H   0  0  0  0  0  0  0  0  0  0  0  0
   42.6687    4.3415   12.3814 H   0  0  0  0  0  0  0  0  0  0  0  0
   44.0287    3.7834   11.4136 H   0  0  0  0  0  0  0  0  0  0  0  0
   45.7874    6.8955   13.2280 H   0  0  0  0  0  0  0  0  0  0  0  0
   47.1121    6.3192   12.2175 H   0  0  0  0  0  0  0  0  0  0  0  0
   46.4969    4.6763   14.0086 H   0  0  0  0  0  0  0  0  0  0  0  0
   46.3447    3.9856   12.3974 H   0  0  0  0  0  0  0  0  0  0  0  0
   44.5034    7.0648   13.3304 H   0  0  0  0  0  0  0  0  0  0  0  0
   45.2334    3.8281   11.3419 H   0  0  0  0  0  0  0  0  0  0  0  0
   43.0223    6.8115   11.5283 H   0  0  0  0  0  0  0  0  0  0  0  0
   44.3256    6.1601   10.5428 H   0  0  0  0  0  0  0  0  0  0  0  0
   42.9347    4.3080   11.3848 H   0  0  0  0  0  0  0  0  0  0  0  0
   43.0797    4.8699   13.0453 H   0  0  0  0  0  0  0  0  0  0  0  0
   46.7973    6.5796   13.2889 H   0  0  0  0  0  0  0  0  0  0  0  0
   46.6523    6.0168   11.6290 H   0  0  0  0  0  0  0  0  0  0  0  0
   45.4003    4.7296   14.1299 H   0  0  0  0  0  0  0  0  0  0  0  0
   46.7097    4.0758   13.1509 H   0  0  0  0  0  0  0  0  0  0  0  0
  3  2  1  0
  4  2  1  0
  5  2  1  0
  6  4  1  0
  7  3  1  0
  8  5  2  0
  9  7  2  0
 10  6  2  0
 11  2  1  0
 12  5  1  0
 13  7  1  0
 14  6  1  0
 16 20  1  0
 17 15  1  0
 18 17  1  0
 19 15  1  0
 20 19  1  0
 16 18  1  0
 22 21  1  0
 23 21  1  0
 24 21  1  0
 25 23  1  0
 26 22  1  0
 27 24  2  0
 28 26  2  0
 29 25  2  0
 30 21  1  0
 31 24  1  0
 32 26  1  0
 33 25  1  0
 35 39  1  0
 36 34  1  0
 37 36  1  0
 38 34  1  0
 39 38  1  0
 35 37  1  0
 41 45  1  0
 42 40  1  0
 43 42  1  0
 44 40  1  0
 45 44  1  0
 41 43  1  0
  1 46  1  0
  1 47  1  0
  3 48  1  0
  3 49  1  0
  4 50  1  0
  4 51  1  0
 11 52  1  0
 12 53  1  0
 13 54  1  0
 14 55  1  0
 15 56  1  0
 16 57  1  0
 17 58  1  0
 17 59  1  0
 18 60  1  0
 18 61  1  0
 19 62  1  0
 19 63  1  0
 20 64  1  0
 20 65  1  0
 22 66  1  0
 22 67  1  0
 23 68  1  0
 23 69  1  0
 30 70  1  0
 31 71  1  0
 32 72  1  0
 33 73  1  0
 34 74  1  0
 35 75  1  0
 36 76  1  0
 36 77  1  0
 37 78  1  0
 37 79  1  0
 38 80  1  0
 38 81  1  0
 39 82  1  0
 39 83  1  0
 40 84  1  0
 41 85  1  0
 42 86  1  0
 42 87  1  0
 43 88  1  0
 43 89  1  0
 44 90  1  0
 44 91  1  0
 45 92  1  0
 45 93  1  0
M  END
> <Uni-Dock RESULT> 
ENERGY=   -6.990  LOWER_BOUND=    1.518  UPPER_BOUND=    2.490
INTER + INTRA:          -6.990
INTER:                  -6.990
INTRA:                   0.000
UNBOUND:                 0.000

$$$$

     RDKit          3D

 93 90  0  0  0  0  0  0  0  0999 V2000
   48.3629    4.4903   18.2066 O   0  0  0  0  0  0  0  0  0  0  0  0
   49.3962    4.4565   18.5690 C   0  0  0  0  0  0  0  0  0  0  0  0
   48.7419    5.7949   18.2145 C   0  0  0  0  0  0  0  0  0  0  0  0
   48.7906    3.1621   18.0188 C   0  0  0  0  0  0  0  0  0  0  0  0
   49.4247    4.3576   20.1041 C   0  0  0  0  0  0  0  0  0  0  0  0
   48.5183    3.1917   16.5425 C   0  0  0  0  0  0  0  0  0  0  0  0
   47.2678    5.8518   18.5010 C   0  0  0  0  0  0  0  0  0  0  0  0
   48.5385    3.9712   20.8461 O   0  0  0  0  0  0  0  0  0  0  0  0
   46.4687    4.9352   18.4782 O   0  0  0  0  0  0  0  0  0  0  0  0
   48.1635    4.1397   15.8658 O   0  0  0  0  0  0  0  0  0  0  0  0
   50.7624    4.5061   18.0934 O   0  0  0  0  0  0  0  0  0  0  0  0
   50.5950    4.8105   20.6196 O   0  0  0  0  0  0  0  0  0  0  0  0
   46.8552    7.1070   18.7734 O   0  0  0  0  0  0  0  0  0  0  0  0
   48.6390    1.9696   15.9788 O   0  0  0  0  0  0  0  0  0  0  0  0
   47.5727    4.4615   17.4458 N   0  0  0  0  0  0  0  0  0  0  0  0
   49.8070    4.4029   19.4060 N   0  0  0  0  0  0  0  0  0  0  0  0
   47.4509    5.0411   18.7950 C   0  0  0  0  0  0  0  0  0  0  0  0
   48.8072    5.4850   19.3843 C   0  0  0  0  0  0  0  0  0  0  0  0
   48.5712    3.3781   17.4675 C   0  0  0  0  0  0  0  0  0  0  0  0
   49.9272    3.8227   18.0567 C   0  0  0  0  0  0  0  0  0  0  0  0
   48.1572    4.2555   18.4756 C   0  0  0  0  0  0  0  0  0  0  0  0
   49.6627    3.9733   18.3841 C   0  0  0  0  0  0  0  0  0  0  0  0
   47.8245    5.5212   19.2776 C   0  0  0  0  0  0  0  0  0  0  0  0
   47.5347    4.4695   17.0854 C   0  0  0  0  0  0  0  0  0  0  0  0
   48.4568    5.5423   20.6367 C   0  0  0  0  0  0  0  0  0  0  0  0
   49.9935    2.9026   17.3820 C   0  0  0  0  0  0  0  0  0  0  0  0
   46.5133    3.9392   16.6786 O   0  0  0  0  0  0  0  0  0  0  0  0
   49.2128    2.2218   16.7406 O   0  0  0  0  0  0  0  0  0  0  0  0
   49.6419    5.7167   20.8702 O   0  0  0  0  0  0  0  0  0  0  0  0
   47.5199    3.1516   19.1383 O   0  0  0  0  0  0  0  0  0  0  0  0
   48.2113    5.3372   16.3113 O   0  0  0  0  0  0  0  0  0  0  0  0
   51.3227    2.7306   17.2454 O   0  0  0  0  0  0  0  0  0  0  0  0
   47.5777    5.3726   21.6392 O   0  0  0  0  0  0  0  0  0  0  0  0
   48.7999    3.8856   19.7529 N   0  0  0  0  0  0  0  0  0  0  0  0
   48.4550    4.9130   16.9902 N   0  0  0  0  0  0  0  0  0  0  0  0
   49.7198    3.5254   18.6653 C   0  0  0  0  0  0  0  0  0  0  0  0
   49.0601    3.5976   17.2712 C   0  0  0  0  0  0  0  0  0  0  0  0
   48.1534    5.1755   19.4746 C   0  0  0  0  0  0  0  0  0  0  0  0
   47.5065    5.2334   18.0735 C   0  0  0  0  0  0  0  0  0  0  0  0
   49.5192    4.9678   19.5351 N   0  0  0  0  0  0  0  0  0  0  0  0
   47.8576    3.8943   17.3170 N   0  0  0  0  0  0  0  0  0  0  0  0
   49.8029    3.6707   18.8973 C   0  0  0  0  0  0  0  0  0  0  0  0
   49.2939    3.5895   17.4419 C   0  0  0  0  0  0  0  0  0  0  0  0
   48.0839    5.2738   19.4085 C   0  0  0  0  0  0  0  0  0  0  0  0
   47.5758    5.1936   17.9526 C   0  0  0  0  0  0  0  0  0  0  0  0
   49.0960    3.8811   18.0333 H   0  0  0  0  0  0  0  0  0  0  0  0
   48.6095    4.9244   19.0370 H   0  0  0  0  0  0  0  0  0  0  0  0
   49.2308    6.5901   18.7963 H   0  0  0  0  0  0  0  0  0  0  0  0
   48.9076    6.0623   17.1651 H   0  0  0  0  0  0  0  0  0  0  0  0
   49.5002    2.3431   18.2053 H   0  0  0  0  0  0  0  0  0  0  0  0
   47.8564    2.8903   18.5215 H   0  0  0  0  0  0  0  0  0  0  0  0
   51.2764    4.9750   18.7835 H   0  0  0  0  0  0  0  0  0  0  0  0
   50.4919    4.6853   21.5879 H   0  0  0  0  0  0  0  0  0  0  0  0
   45.8851    7.0163   18.8898 H   0  0  0  0  0  0  0  0  0  0  0  0
   48.4028    2.1211   15.0397 H   0  0  0  0  0  0  0  0  0  0  0  0
   47.9219    5.1922   16.8238 H   0  0  0  0  0  0  0  0  0  0  0  0
   49.4590    3.6722   20.0281 H   0  0  0  0  0  0  0  0  0  0  0  0
   46.7776    5.9042   18.7467 H   0  0  0  0  0  0  0  0  0  0  0  0
   46.9778    4.3083   19.4607 H   0  0  0  0  0  0  0  0  0  0  0  0
   48.6574    5.8456   20.4081 H   0  0  0  0  0  0  0  0  0  0  0  0
   49.2050    6.3287   18.8066 H   0  0  0  0  0  0  0  0  0  0  0  0
   48.7214    3.0190   16.4431 H   0  0  0  0  0  0  0  0  0  0  0  0
   48.1728    2.5331   18.0432 H   0  0  0  0  0  0  0  0  0  0  0  0
   50.4011    4.5546   17.3912 H   0  0  0  0  0  0  0  0  0  0  0  0
   50.6014    2.9612   18.1026 H   0  0  0  0  0  0  0  0  0  0  0  0
   50.0440    3.6224   19.3500 H   0  0  0  0  0  0  0  0  0  0  0  0
   50.1982    4.8803   18.0848 H   0  0  0  0  0  0  0  0  0  0  0  0
   46.7366    5.6153   19.4017 H   0  0  0  0  0  0  0  0  0  0  0  0
   48.1497    6.4320   18.7583 H   0  0  0  0  0  0  0  0  0  0  0  0
   47.1114    2.5942   18.4408 H   0  0  0  0  0  0  0  0  0  0  0  0
   47.7087    5.3469   15.4678 H   0  0  0  0  0  0  0  0  0  0  0  0
   51.4139    1.9978   16.6000 H   0  0  0  0  0  0  0  0  0  0  0  0
   48.1241    5.3845   22.4520 H   0  0  0  0  0  0  0  0  0  0  0  0
   49.3140    3.9426   20.6307 H   0  0  0  0  0  0  0  0  0  0  0  0
   49.1983    5.6102   17.0080 H   0  0  0  0  0  0  0  0  0  0  0  0
   50.5913    4.1919   18.6926 H   0  0  0  0  0  0  0  0  0  0  0  0
   50.0871    2.5076   18.8364 H   0  0  0  0  0  0  0  0  0  0  0  0
   49.8151    3.3881   16.5048 H   0  0  0  0  0  0  0  0  0  0  0  0
   48.2919    2.8196   17.1789 H   0  0  0  0  0  0  0  0  0  0  0  0
   48.8936    5.9801   19.5704 H   0  0  0  0  0  0  0  0  0  0  0  0
   47.3836    5.3561   20.2326 H   0  0  0  0  0  0  0  0  0  0  0  0
   47.1079    6.2397   17.9027 H   0  0  0  0  0  0  0  0  0  0  0  0
   46.6539    4.5441   18.0247 H   0  0  0  0  0  0  0  0  0  0  0  0
   50.0357    5.6861   19.0255 H   0  0  0  0  0  0  0  0  0  0  0  0
   47.3421    3.1792   17.8324 H   0  0  0  0  0  0  0  0  0  0  0  0
   50.8854    3.5019   18.9122 H   0  0  0  0  0  0  0  0  0  0  0  0
   49.3512    2.8699   19.4964 H   0  0  0  0  0  0  0  0  0  0  0  0
   49.4752    2.5817   17.0518 H   0  0  0  0  0  0  0  0  0  0  0  0
   49.8649    4.2795   16.8078 H   0  0  0  0  0  0  0  0  0  0  0  0
   47.9035    6.2815   19.7991 H   0  0  0  0  0  0  0  0  0  0  0  0
   47.5132    4.5840   20.0422 H   0  0  0  0  0  0  0  0  0  0  0  0
   48.0334    5.9909   17.3536 H   0  0  0  0  0  0  0  0  0  0  0  0
   46.4938    5.3660   17.9361 H   0  0  0  0  0  0  0  0  0  0  0  0
  3  2  1  0
  4  2  1  0
  5  2  1  0
  6  4  1  0
  7  3  1  0
  8  5  2  0
  9  7  2  0
 10  6  2  0
 11  2  1  0
 12  5  1  0
 13  7  1  0
 14  6  1  0
 16 20  1  0
 17 15  1  0
 18 17  1  0
 19 15  1  0
 20 19  1  0
 16 18  1  0
 22 21  1  0
 23 21  1  0
 24 21  1  0
 25 23  1  0
 26 22  1  0
 27 24  2  0
 28 26  2  0
 29 25  2  0
 30 21  1  0
 31 24  1  0
 32 26  1  0
 33 25  1  0
 35 39  1  0
 36 34  1  0
 37 36  1  0
 38 34  1  0
 39 38  1  0
 35 37  1  0
 41 45  1  0
 42 40  1  0
 43 42  1  0
 44 40  1  0
 45 44  1  0
 41 43  1  0
  1 46  1  0
  1 47  1  0
  3 48  1  0
  3 49  1  0
  4 50  1  0
  4 51  1  0
 11 52  1  0
 12 53  1  0
 13 54  1  0
 14 55  1  0
 15 56  1  0
 16 57  1  0
 17 58  1  0
 17 59  1  0
 18 60  1  0
 18 61  1  0
 19 62  1  0
 19 63  1  0
 20 64  1  0
 20 65  1  0
 22 66  1  0
 22 67  1  0
 23 68  1  0
 23 69  1  0
 30 70  1  0
 31 71  1  0
 32 72  1  0
 33 73  1  0
 34 74  1  0
 35 75  1  0
 36 76  1  0
 36 77  1  0
 37 78  1  0
 37 79  1  0
 38 80  1  0
 38 81  1  0
 39 82  1  0
 39 83  1  0
 40 84  1  0
 41 85  1  0
 42 86  1  0
 42 87  1  0
 43 88  1  0
 43 89  1  0
 44 90  1  0
 44 91  1  0
 45 92  1  0
 45 93  1  0
M  END
> <Uni-Dock RESULT> 
ENERGY=   -6.921  LOWER_BOUND=    7.308  UPPER_BOUND=    8.666
INTER + INTRA:          -6.921
INTER:                  -6.921
INTRA:                   0.000
UNBOUND:                 0.000

$$$$

     RDKit          3D

 93 90  0  0  0  0  0  0  0  0999 V2000
   54.2868    6.1165    8.7299 O   0  0  0  0  0  0  0  0  0  0  0  0
   55.1728    6.1498    8.0863 C   0  0  0  0  0  0  0  0  0  0  0  0
   55.2764    6.5208    9.5685 C   0  0  0  0  0  0  0  0  0  0  0  0
   53.7990    6.1598    7.4099 C   0  0  0  0  0  0  0  0  0  0  0  0
   55.7750    4.7430    7.9272 C   0  0  0  0  0  0  0  0  0  0  0  0
   53.0054    7.4113    7.6521 C   0  0  0  0  0  0  0  0  0  0  0  0
   54.3497    5.7443   10.4612 C   0  0  0  0  0  0  0  0  0  0  0  0
   55.2249    3.6692    8.0992 O   0  0  0  0  0  0  0  0  0  0  0  0
   53.2583    5.2852   10.1827 O   0  0  0  0  0  0  0  0  0  0  0  0
   52.9820    8.0999    8.6560 O   0  0  0  0  0  0  0  0  0  0  0  0
   56.0004    7.0820    7.3506 O   0  0  0  0  0  0  0  0  0  0  0  0
   57.0890    4.7889    7.5929 O   0  0  0  0  0  0  0  0  0  0  0  0
   54.8439    5.6140   11.7096 O   0  0  0  0  0  0  0  0  0  0  0  0
   52.1956    7.7088    6.6122 O   0  0  0  0  0  0  0  0  0  0  0  0
   53.3795    6.5195    9.1972 N   0  0  0  0  0  0  0  0  0  0  0  0
   55.7899    5.5243    7.7698 N   0  0  0  0  0  0  0  0  0  0  0  0
   54.1641    5.3712    9.6843 C   0  0  0  0  0  0  0  0  0  0  0  0
   55.6396    5.4147    9.2314 C   0  0  0  0  0  0  0  0  0  0  0  0
   53.5281    6.6283    7.7353 C   0  0  0  0  0  0  0  0  0  0  0  0
   55.0037    6.6719    7.2832 C   0  0  0  0  0  0  0  0  0  0  0  0
   54.1203    5.7486    8.6480 C   0  0  0  0  0  0  0  0  0  0  0  0
   55.0280    6.3113    7.5462 C   0  0  0  0  0  0  0  0  0  0  0  0
   54.8977    5.1675    9.8371 C   0  0  0  0  0  0  0  0  0  0  0  0
   53.2070    6.8352    9.2404 C   0  0  0  0  0  0  0  0  0  0  0  0
   55.9332    4.1624    9.4312 C   0  0  0  0  0  0  0  0  0  0  0  0
   54.2725    7.1148    6.5248 C   0  0  0  0  0  0  0  0  0  0  0  0
   52.0045    6.7274    9.4208 O   0  0  0  0  0  0  0  0  0  0  0  0
   53.0669    7.2748    6.4522 O   0  0  0  0  0  0  0  0  0  0  0  0
   56.9898    4.4112    8.8735 O   0  0  0  0  0  0  0  0  0  0  0  0
   53.3289    4.6844    8.0957 O   0  0  0  0  0  0  0  0  0  0  0  0
   53.8525    7.9649    9.5826 O   0  0  0  0  0  0  0  0  0  0  0  0
   55.0928    7.6788    5.6169 O   0  0  0  0  0  0  0  0  0  0  0  0
   55.6139    2.9000    9.7645 O   0  0  0  0  0  0  0  0  0  0  0  0
   54.9169    4.7389    7.9218 N   0  0  0  0  0  0  0  0  0  0  0  0
   54.0807    7.3451    9.0688 N   0  0  0  0  0  0  0  0  0  0  0  0
   54.9425    5.9814    7.1379 C   0  0  0  0  0  0  0  0  0  0  0  0
   53.9232    7.0282    7.6370 C   0  0  0  0  0  0  0  0  0  0  0  0
   55.0313    5.0331    9.3570 C   0  0  0  0  0  0  0  0  0  0  0  0
   54.0107    6.0880    9.8373 C   0  0  0  0  0  0  0  0  0  0  0  0
   55.9404    5.4233    8.3908 N   0  0  0  0  0  0  0  0  0  0  0  0
   53.2257    6.6187    8.5760 N   0  0  0  0  0  0  0  0  0  0  0  0
   55.1781    5.8308    7.1981 C   0  0  0  0  0  0  0  0  0  0  0  0
   54.1602    6.9551    7.4873 C   0  0  0  0  0  0  0  0  0  0  0  0
   55.0066    5.0890    9.4799 C   0  0  0  0  0  0  0  0  0  0  0  0
   53.9896    6.2143    9.7695 C   0  0  0  0  0  0  0  0  0  0  0  0
   54.4190    6.4080    7.8154 H   0  0  0  0  0  0  0  0  0  0  0  0
   55.0466    5.5414    8.9052 H   0  0  0  0  0  0  0  0  0  0  0  0
   56.3065    6.3346    9.9061 H   0  0  0  0  0  0  0  0  0  0  0  0
   55.1085    7.5909    9.7316 H   0  0  0  0  0  0  0  0  0  0  0  0
   53.9487    6.0713    6.3242 H   0  0  0  0  0  0  0  0  0  0  0  0
   53.1772    5.3107    7.7126 H   0  0  0  0  0  0  0  0  0  0  0  0
   56.9161    6.7375    7.4043 H   0  0  0  0  0  0  0  0  0  0  0  0
   57.3464    3.8450    7.5121 H   0  0  0  0  0  0  0  0  0  0  0  0
   54.1344    5.1416   12.1959 H   0  0  0  0  0  0  0  0  0  0  0  0
   51.7170    8.5104    6.9108 H   0  0  0  0  0  0  0  0  0  0  0  0
   53.7744    7.3645    9.6127 H   0  0  0  0  0  0  0  0  0  0  0  0
   55.3959    4.6796    7.3537 H   0  0  0  0  0  0  0  0  0  0  0  0
   54.1220    5.3564   10.7790 H   0  0  0  0  0  0  0  0  0  0  0  0
   53.6956    4.4415    9.3376 H   0  0  0  0  0  0  0  0  0  0  0  0
   56.1499    4.5062    9.5700 H   0  0  0  0  0  0  0  0  0  0  0  0
   56.1497    6.2608    9.7085 H   0  0  0  0  0  0  0  0  0  0  0  0
   53.0186    7.5378    7.3977 H   0  0  0  0  0  0  0  0  0  0  0  0
   53.0160    5.7835    7.2576 H   0  0  0  0  0  0  0  0  0  0  0  0
   55.4724    7.6016    7.6287 H   0  0  0  0  0  0  0  0  0  0  0  0
   55.0464    6.6896    6.1893 H   0  0  0  0  0  0  0  0  0  0  0  0
   55.5152    5.4952    7.0002 H   0  0  0  0  0  0  0  0  0  0  0  0
   55.7884    6.9669    7.9833 H   0  0  0  0  0  0  0  0  0  0  0  0
   54.2060    4.6850   10.5417 H   0  0  0  0  0  0  0  0  0  0  0  0
   55.4155    5.9488   10.4085 H   0  0  0  0  0  0  0  0  0  0  0  0
   52.4389    5.0548    7.9090 H   0  0  0  0  0  0  0  0  0  0  0  0
   53.1418    8.5541    9.9173 H   0  0  0  0  0  0  0  0  0  0  0  0
   54.4938    8.1436    4.9948 H   0  0  0  0  0  0  0  0  0  0  0  0
   56.3556    2.3590    9.4231 H   0  0  0  0  0  0  0  0  0  0  0  0
   55.6864    4.1368    7.6333 H   0  0  0  0  0  0  0  0  0  0  0  0
   55.0099    7.7424    9.2017 H   0  0  0  0  0  0  0  0  0  0  0  0
   55.9525    6.4095    7.1708 H   0  0  0  0  0  0  0  0  0  0  0  0
   54.7279    5.7422    6.0905 H   0  0  0  0  0  0  0  0  0  0  0  0
   54.0433    7.9514    7.0584 H   0  0  0  0  0  0  0  0  0  0  0  0
   52.9011    6.6728    7.4560 H   0  0  0  0  0  0  0  0  0  0  0  0
   56.0489    5.3810    9.5757 H   0  0  0  0  0  0  0  0  0  0  0  0
   54.8811    4.1062    9.9210 H   0  0  0  0  0  0  0  0  0  0  0  0
   54.1964    6.3132   10.8935 H   0  0  0  0  0  0  0  0  0  0  0  0
   52.9931    5.6814    9.7757 H   0  0  0  0  0  0  0  0  0  0  0  0
   56.4972    6.2234    8.6942 H   0  0  0  0  0  0  0  0  0  0  0  0
   52.6737    5.8143    8.2744 H   0  0  0  0  0  0  0  0  0  0  0  0
   55.8828    6.1692    6.4304 H   0  0  0  0  0  0  0  0  0  0  0  0
   54.6608    4.9550    6.7865 H   0  0  0  0  0  0  0  0  0  0  0  0
   53.5830    7.1618    6.5792 H   0  0  0  0  0  0  0  0  0  0  0  0
   54.6899    7.8820    7.7410 H   0  0  0  0  0  0  0  0  0  0  0  0
   55.5846    4.8822   10.3875 H   0  0  0  0  0  0  0  0  0  0  0  0
   54.4771    4.1627    9.2262 H   0  0  0  0  0  0  0  0  0  0  0  0
   54.5095    7.0914   10.1749 H   0  0  0  0  0  0  0  0  0  0  0  0
   53.2866    5.8783   10.5400 H   0  0  0  0  0  0  0  0  0  0  0  0
  3  2  1  0
  4  2  1  0
  5  2  1  0
  6  4  1  0
  7  3  1  0
  8  5  2  0
  9  7  2  0
 10  6  2  0
 11  2  1  0
 12  5  1  0
 13  7  1  0
 14  6  1  0
 16 20  1  0
 17 15  1  0
 18 17  1  0
 19 15  1  0
 20 19  1  0
 16 18  1  0
 22 21  1  0
 23 21  1  0
 24 21  1  0
 25 23  1  0
 26 22  1  0
 27 24  2  0
 28 26  2  0
 29 25  2  0
 30 21  1  0
 31 24  1  0
 32 26  1  0
 33 25  1  0
 35 39  1  0
 36 34  1  0
 37 36  1  0
 38 34  1  0
 39 38  1  0
 35 37  1  0
 41 45  1  0
 42 40  1  0
 43 42  1  0
 44 40  1  0
 45 44  1  0
 41 43  1  0
  1 46  1  0
  1 47  1  0
  3 48  1  0
  3 49  1  0
  4 50  1  0
  4 51  1  0
 11 52  1  0
 12 53  1  0
 13 54  1  0
 14 55  1  0
 15 56  1  0
 16 57  1  0
 17 58  1  0
 17 59  1  0
 18 60  1  0
 18 61  1  0
 19 62  1  0
 19 63  1  0
 20 64  1  0
 20 65  1  0
 22 66  1  0
 22 67  1  0
 23 68  1  0
 23 69  1  0
 30 70  1  0
 31 71  1  0
 32 72  1  0
 33 73  1  0
 34 74  1  0
 35 75  1  0
 36 76  1  0
 36 77  1  0
 37 78  1  0
 37 79  1  0
 38 80  1  0
 38 81  1  0
 39 82  1  0
 39 83  1  0
 40 84  1  0
 41 85  1  0
 42 86  1  0
 42 87  1  0
 43 88  1  0
 43 89  1  0
 44 90  1  0
 44 91  1  0
 45 92  1  0
 45 93  1  0
M  END
> <Uni-Dock RESULT> 
ENERGY=   -6.684  LOWER_BOUND=    9.669  UPPER_BOUND=   11.008
INTER + INTRA:          -6.684
INTER:                  -6.684
INTRA:                   0.000
UNBOUND:                 0.000

$$$$

     RDKit          3D

 93 90  0  0  0  0  0  0  0  0999 V2000
   47.7606   12.0371   19.7141 O   0  0  0  0  0  0  0  0  0  0  0  0
   47.4152   11.0105   19.5493 C   0  0  0  0  0  0  0  0  0  0  0  0
   46.7080   12.1857   18.8682 C   0  0  0  0  0  0  0  0  0  0  0  0
   48.2965   11.2788   20.7725 C   0  0  0  0  0  0  0  0  0  0  0  0
   48.2777   10.3180   18.4799 C   0  0  0  0  0  0  0  0  0  0  0  0
   47.6424   12.1261   21.8256 C   0  0  0  0  0  0  0  0  0  0  0  0
   47.6209   13.3219   18.5020 C   0  0  0  0  0  0  0  0  0  0  0  0
   49.4029   10.6149   18.1180 O   0  0  0  0  0  0  0  0  0  0  0  0
   48.6398   13.6705   19.0674 O   0  0  0  0  0  0  0  0  0  0  0  0
   46.8572   13.0431   21.6670 O   0  0  0  0  0  0  0  0  0  0  0  0
   46.3911   10.0809   19.9761 O   0  0  0  0  0  0  0  0  0  0  0  0
   47.6216    9.2888   17.8878 O   0  0  0  0  0  0  0  0  0  0  0  0
   47.1694   14.0063   17.4308 O   0  0  0  0  0  0  0  0  0  0  0  0
   48.0761   11.8180   23.0676 O   0  0  0  0  0  0  0  0  0  0  0  0
   47.8042   13.0018   20.2351 N   0  0  0  0  0  0  0  0  0  0  0  0
   47.6712   10.3023   18.9970 N   0  0  0  0  0  0  0  0  0  0  0  0
   48.2067   12.7559   18.8391 C   0  0  0  0  0  0  0  0  0  0  0  0
   47.4948   11.5372   18.2130 C   0  0  0  0  0  0  0  0  0  0  0  0
   47.9822   11.7675   21.0199 C   0  0  0  0  0  0  0  0  0  0  0  0
   47.2700   10.5494   20.3934 C   0  0  0  0  0  0  0  0  0  0  0  0
   48.1678   12.0138   19.6552 C   0  0  0  0  0  0  0  0  0  0  0  0
   47.4883   10.6899   20.0295 C   0  0  0  0  0  0  0  0  0  0  0  0
   47.9467   12.4168   18.1907 C   0  0  0  0  0  0  0  0  0  0  0  0
   47.6286   13.1851   20.4938 C   0  0  0  0  0  0  0  0  0  0  0  0
   48.3106   11.3347   17.2191 C   0  0  0  0  0  0  0  0  0  0  0  0
   47.4772   10.4412   21.5120 C   0  0  0  0  0  0  0  0  0  0  0  0
   48.3123   14.0171   21.0686 O   0  0  0  0  0  0  0  0  0  0  0  0
   48.0045   11.1143   22.3800 O   0  0  0  0  0  0  0  0  0  0  0  0
   47.6789   10.3091   17.0230 O   0  0  0  0  0  0  0  0  0  0  0  0
   49.5846   11.8770   19.8500 O   0  0  0  0  0  0  0  0  0  0  0  0
   46.2857   13.2500   20.5422 O   0  0  0  0  0  0  0  0  0  0  0  0
   46.7973    9.3231   21.8325 O   0  0  0  0  0  0  0  0  0  0  0  0
   49.4286   11.5962   16.5202 O   0  0  0  0  0  0  0  0  0  0  0  0
   48.7381   10.8161   19.0057 N   0  0  0  0  0  0  0  0  0  0  0  0
   46.7903   12.6135   20.3410 N   0  0  0  0  0  0  0  0  0  0  0  0
   47.8988   10.3651   20.1242 C   0  0  0  0  0  0  0  0  0  0  0  0
   47.4702   11.5181   21.0574 C   0  0  0  0  0  0  0  0  0  0  0  0
   48.0986   11.9359   18.3011 C   0  0  0  0  0  0  0  0  0  0  0  0
   47.6688   13.0760   19.2500 C   0  0  0  0  0  0  0  0  0  0  0  0
   47.5268   10.6931   18.5021 N   0  0  0  0  0  0  0  0  0  0  0  0
   47.9519   12.6124   20.7311 N   0  0  0  0  0  0  0  0  0  0  0  0
   47.8819   10.2521   19.8620 C   0  0  0  0  0  0  0  0  0  0  0  0
   47.4393   11.2491   20.9547 C   0  0  0  0  0  0  0  0  0  0  0  0
   48.0371   12.0567   18.2790 C   0  0  0  0  0  0  0  0  0  0  0  0
   47.5932   13.0535   19.3716 C   0  0  0  0  0  0  0  0  0  0  0  0
   47.6695   11.2757   20.3065 H   0  0  0  0  0  0  0  0  0  0  0  0
   47.7837   11.6443   18.8287 H   0  0  0  0  0  0  0  0  0  0  0  0
   46.2326   11.8226   17.9452 H   0  0  0  0  0  0  0  0  0  0  0  0
   45.8878   12.5758   19.4806 H   0  0  0  0  0  0  0  0  0  0  0  0
   48.5457   10.3134   21.2362 H   0  0  0  0  0  0  0  0  0  0  0  0
   49.2461   11.7557   20.5077 H   0  0  0  0  0  0  0  0  0  0  0  0
   46.1724    9.5348   19.1924 H   0  0  0  0  0  0  0  0  0  0  0  0
   48.2721    8.9308   17.2456 H   0  0  0  0  0  0  0  0  0  0  0  0
   47.8155   14.7378   17.3288 H   0  0  0  0  0  0  0  0  0  0  0  0
   47.6075   12.4574   23.6440 H   0  0  0  0  0  0  0  0  0  0  0  0
   46.8086   13.2288   20.2362 H   0  0  0  0  0  0  0  0  0  0  0  0
   48.6662   10.0742   18.9959 H   0  0  0  0  0  0  0  0  0  0  0  0
   47.9823   13.6497   18.2465 H   0  0  0  0  0  0  0  0  0  0  0  0
   49.2939   12.6138   18.7971 H   0  0  0  0  0  0  0  0  0  0  0  0
   47.8830   11.3701   17.2021 H   0  0  0  0  0  0  0  0  0  0  0  0
   46.4226   11.7459   18.1098 H   0  0  0  0  0  0  0  0  0  0  0  0
   47.5925   11.9350   22.0303 H   0  0  0  0  0  0  0  0  0  0  0  0
   49.0545   11.5596   21.1253 H   0  0  0  0  0  0  0  0  0  0  0  0
   46.1829   10.6903   20.4358 H   0  0  0  0  0  0  0  0  0  0  0  0
   47.4916    9.6562   20.9867 H   0  0  0  0  0  0  0  0  0  0  0  0
   48.0227    9.8463   19.5776 H   0  0  0  0  0  0  0  0  0  0  0  0
   46.4478   10.6913   19.6886 H   0  0  0  0  0  0  0  0  0  0  0  0
   48.5401   13.3100   17.9505 H   0  0  0  0  0  0  0  0  0  0  0  0
   46.9009   12.6863   17.9939 H   0  0  0  0  0  0  0  0  0  0  0  0
   49.8000   12.3061   20.7065 H   0  0  0  0  0  0  0  0  0  0  0  0
   46.1046   14.0220   21.1213 H   0  0  0  0  0  0  0  0  0  0  0  0
   46.8843    9.2493   22.8066 H   0  0  0  0  0  0  0  0  0  0  0  0
   49.5556   10.8078   15.9529 H   0  0  0  0  0  0  0  0  0  0  0  0
   48.8875   10.0444   18.3576 H   0  0  0  0  0  0  0  0  0  0  0  0
   45.9422   12.2347   19.9213 H   0  0  0  0  0  0  0  0  0  0  0  0
   47.0063    9.8641   19.7281 H   0  0  0  0  0  0  0  0  0  0  0  0
   48.4549    9.6210   20.7050 H   0  0  0  0  0  0  0  0  0  0  0  0
   46.7921   11.1269   21.8244 H   0  0  0  0  0  0  0  0  0  0  0  0
   48.3451   11.9193   21.5842 H   0  0  0  0  0  0  0  0  0  0  0  0
   47.2234   11.5663   17.7517 H   0  0  0  0  0  0  0  0  0  0  0  0
   48.7993   12.3327   17.5584 H   0  0  0  0  0  0  0  0  0  0  0  0
   47.1372   13.8420   18.6742 H   0  0  0  0  0  0  0  0  0  0  0  0
   48.5545   13.5619   19.6788 H   0  0  0  0  0  0  0  0  0  0  0  0
   46.5083   10.7292   18.4414 H   0  0  0  0  0  0  0  0  0  0  0  0
   48.9709   12.5742   20.7855 H   0  0  0  0  0  0  0  0  0  0  0  0
   47.4138    9.2792   20.0485 H   0  0  0  0  0  0  0  0  0  0  0  0
   48.9666   10.0952   19.9164 H   0  0  0  0  0  0  0  0  0  0  0  0
   47.7923   10.8957   21.9300 H   0  0  0  0  0  0  0  0  0  0  0  0
   46.3438   11.2808   21.0095 H   0  0  0  0  0  0  0  0  0  0  0  0
   47.6840   12.4091   17.3035 H   0  0  0  0  0  0  0  0  0  0  0  0
   49.1321   12.0250   18.2245 H   0  0  0  0  0  0  0  0  0  0  0  0
   46.5076   13.2042   19.3198 H   0  0  0  0  0  0  0  0  0  0  0  0
   48.0577   14.0280   19.1838 H   0  0  0  0  0  0  0  0  0  0  0  0
  3  2  1  0
  4  2  1  0
  5  2  1  0
  6  4  1  0
  7  3  1  0
  8  5  2  0
  9  7  2  0
 10  6  2  0
 11  2  1  0
 12  5  1  0
 13  7  1  0
 14  6  1  0
 16 20  1  0
 17 15  1  0
 18 17  1  0
 19 15  1  0
 20 19  1  0
 16 18  1  0
 22 21  1  0
 23 21  1  0
 24 21  1  0
 25 23  1  0
 26 22  1  0
 27 24  2  0
 28 26  2  0
 29 25  2  0
 30 21  1  0
 31 24  1  0
 32 26  1  0
 33 25  1  0
 35 39  1  0
 36 34  1  0
 37 36  1  0
 38 34  1  0
 39 38  1  0
 35 37  1  0
 41 45  1  0
 42 40  1  0
 43 42  1  0
 44 40  1  0
 45 44  1  0
 41 43  1  0
  1 46  1  0
  1 47  1  0
  3 48  1  0
  3 49  1  0
  4 50  1  0
  4 51  1  0
 11 52  1  0
 12 53  1  0
 13 54  1  0
 14 55  1  0
 15 56  1  0
 16 57  1  0
 17 58  1  0
 17 59  1  0
 18 60  1  0
 18 61  1  0
 19 62  1  0
 19 63  1  0
 20 64  1  0
 20 65  1  0
 22 66  1  0
 22 67  1  0
 23 68  1  0
 23 69  1  0
 30 70  1  0
 31 71  1  0
 32 72  1  0
 33 73  1  0
 34 74  1  0
 35 75  1  0
 36 76  1  0
 36 77  1  0
 37 78  1  0
 37 79  1  0
 38 80  1  0
 38 81  1  0
 39 82  1  0
 39 83  1  0
 40 84  1  0
 41 85  1  0
 42 86  1  0
 42 87  1  0
 43 88  1  0
 43 89  1  0
 44 90  1  0
 44 91  1  0
 45 92  1  0
 45 93  1  0
M  END
> <Uni-Dock RESULT> 
ENERGY=   -6.676  LOWER_BOUND=    9.844  UPPER_BOUND=   12.170
INTER + INTRA:          -6.676
INTER:                  -6.676
INTRA:                   0.000
UNBOUND:                 0.000

$$$$
