
     RDKit          3D

 51 54  0  0  0  0  0  0  0  0999 V2000
   52.5487   10.5434   12.0891 N   0  0  0  0  0  0  0  0  0  0  0  0
   53.2772    9.9187   13.0885 C   0  0  0  0  0  0  0  0  0  0  0  0
   52.7622   11.8544   11.6685 C   0  0  0  0  0  0  0  0  0  0  0  0
   53.9219   12.5569   12.2508 C   0  0  0  0  0  0  0  0  0  0  0  0
   54.3319   10.6137   13.6075 N   0  0  0  0  0  0  0  0  0  0  0  0
   54.6809   11.9021   13.2138 C   0  0  0  0  0  0  0  0  0  0  0  0
   51.4059    9.8216   11.5326 C   0  0  0  0  0  0  0  0  0  0  0  0
   45.4888    7.2432   12.7126 C   0  0  0  0  0  0  0  0  0  0  0  0
   48.9480    9.2999   11.8913 N   0  0  0  0  0  0  0  0  0  0  0  0
   53.0224    8.7986   13.5296 O   0  0  0  0  0  0  0  0  0  0  0  0
   52.0455   12.4463   10.8654 O   0  0  0  0  0  0  0  0  0  0  0  0
   44.8779    5.8974   12.4610 C   0  0  0  0  0  0  0  0  0  0  0  0
   46.9703    7.3515   13.0841 C   0  0  0  0  0  0  0  0  0  0  0  0
   44.7751    8.2392   12.5953 O   0  0  0  0  0  0  0  0  0  0  0  0
   50.1356   10.0256   12.3844 C   0  0  0  0  0  0  0  0  0  0  0  0
   43.5838    5.8536   11.9138 C   0  0  0  0  0  0  0  0  0  0  0  0
   45.5346    4.6938   12.7541 C   0  0  0  0  0  0  0  0  0  0  0  0
   47.2917    8.7324   13.6860 C   0  0  0  0  0  0  0  0  0  0  0  0
   47.8376    7.0680   11.8482 C   0  0  0  0  0  0  0  0  0  0  0  0
   47.7281    9.7189   12.6038 C   0  0  0  0  0  0  0  0  0  0  0  0
   49.1523    7.8448   11.8899 C   0  0  0  0  0  0  0  0  0  0  0  0
   43.6294    3.4493   11.9503 C   0  0  0  0  0  0  0  0  0  0  0  0
   54.2553   13.8560   11.8546 C   0  0  0  0  0  0  0  0  0  0  0  0
   44.9076    3.4701   12.4959 C   0  0  0  0  0  0  0  0  0  0  0  0
   42.9608    4.6301   11.6574 C   0  0  0  0  0  0  0  0  0  0  0  0
   43.0355    2.2744   11.7064 F   0  0  0  0  0  0  0  0  0  0  0  0
   55.7812   12.5353   13.7921 C   0  0  0  0  0  0  0  0  0  0  0  0
   55.3564   14.4920   12.4296 C   0  0  0  0  0  0  0  0  0  0  0  0
   56.1177   13.8321   13.3965 C   0  0  0  0  0  0  0  0  0  0  0  0
   54.8586   10.1331   14.3251 H   0  0  0  0  0  0  0  0  0  0  0  0
   51.2212   10.1623   10.5068 H   0  0  0  0  0  0  0  0  0  0  0  0
   51.6686    8.7594   11.4767 H   0  0  0  0  0  0  0  0  0  0  0  0
   47.1762    6.6235   13.8770 H   0  0  0  0  0  0  0  0  0  0  0  0
   49.9201   11.1024   12.3851 H   0  0  0  0  0  0  0  0  0  0  0  0
   50.3366    9.7521   13.4287 H   0  0  0  0  0  0  0  0  0  0  0  0
   43.0537    6.7765   11.6824 H   0  0  0  0  0  0  0  0  0  0  0  0
   46.5287    4.6716   13.1881 H   0  0  0  0  0  0  0  0  0  0  0  0
   46.4354    9.1374   14.2378 H   0  0  0  0  0  0  0  0  0  0  0  0
   48.1010    8.6275   14.4210 H   0  0  0  0  0  0  0  0  0  0  0  0
   47.2976    7.3178   10.9250 H   0  0  0  0  0  0  0  0  0  0  0  0
   48.0569    5.9955   11.7885 H   0  0  0  0  0  0  0  0  0  0  0  0
   46.9265    9.8178   11.8614 H   0  0  0  0  0  0  0  0  0  0  0  0
   47.8390   10.7181   13.0427 H   0  0  0  0  0  0  0  0  0  0  0  0
   49.7154    7.5245   12.7769 H   0  0  0  0  0  0  0  0  0  0  0  0
   49.7452    7.5660   11.0113 H   0  0  0  0  0  0  0  0  0  0  0  0
   53.6613   14.3714   11.1027 H   0  0  0  0  0  0  0  0  0  0  0  0
   45.4078    2.5324   12.7194 H   0  0  0  0  0  0  0  0  0  0  0  0
   41.9621    4.5950   11.2335 H   0  0  0  0  0  0  0  0  0  0  0  0
   56.3825   12.0363   14.5471 H   0  0  0  0  0  0  0  0  0  0  0  0
   55.6198   15.5023   12.1243 H   0  0  0  0  0  0  0  0  0  0  0  0
   56.9748   14.3312   13.8433 H   0  0  0  0  0  0  0  0  0  0  0  0
  2  1  1  0
  3  1  1  0
  4  3  1  0
  5  2  1  0
  6  4  2  0
  7  1  1  0
  8 13  1  0
  9 15  1  0
 10  2  2  0
 11  3  2  0
 12  8  1  0
 13 19  1  0
 14  8  2  0
 15  7  1  0
 16 12  2  0
 17 12  1  0
 18 20  1  0
 19 21  1  0
 20  9  1  0
 21  9  1  0
 22 24  1  0
 23  4  1  0
 24 17  2  0
 25 16  1  0
 26 22  1  0
 27  6  1  0
 28 23  2  0
 29 28  1  0
  5  6  1  0
 18 13  1  0
 29 27  2  0
 25 22  2  0
  5 30  1  0
  7 31  1  0
  7 32  1  0
 13 33  1  0
 15 34  1  0
 15 35  1  0
 16 36  1  0
 17 37  1  0
 18 38  1  0
 18 39  1  0
 19 40  1  0
 19 41  1  0
 20 42  1  0
 20 43  1  0
 21 44  1  0
 21 45  1  0
 23 46  1  0
 24 47  1  0
 25 48  1  0
 27 49  1  0
 28 50  1  0
 29 51  1  0
M  END
> <Uni-Dock RESULT> 
ENERGY=   -4.322  LOWER_BOUND=    0.000  UPPER_BOUND=    0.000
INTER + INTRA:          -4.322
INTER:                  -4.322
INTRA:                   0.000
UNBOUND:                 0.000

$$$$

     RDKit          3D

 51 54  0  0  0  0  0  0  0  0999 V2000
   52.4661   10.5730   11.8996 N   0  0  0  0  0  0  0  0  0  0  0  0
   53.1976    9.9604   12.9043 C   0  0  0  0  0  0  0  0  0  0  0  0
   52.6785   11.8787   11.4623 C   0  0  0  0  0  0  0  0  0  0  0  0
   53.8403   12.5880   12.0323 C   0  0  0  0  0  0  0  0  0  0  0  0
   54.2541   10.6614   13.4113 N   0  0  0  0  0  0  0  0  0  0  0  0
   54.6022   11.9448   13.0008 C   0  0  0  0  0  0  0  0  0  0  0  0
   51.3213    9.8448   11.3557 C   0  0  0  0  0  0  0  0  0  0  0  0
   45.4074    7.2827   12.5862 C   0  0  0  0  0  0  0  0  0  0  0  0
   48.8644    9.3282   11.7286 N   0  0  0  0  0  0  0  0  0  0  0  0
   52.9439    8.8458   13.3599 O   0  0  0  0  0  0  0  0  0  0  0  0
   51.9594   12.4609   10.6543 O   0  0  0  0  0  0  0  0  0  0  0  0
   44.7953    5.9341   12.3530 C   0  0  0  0  0  0  0  0  0  0  0  0
   46.8901    7.3952   12.9516 C   0  0  0  0  0  0  0  0  0  0  0  0
   44.6935    8.2774   12.4589 O   0  0  0  0  0  0  0  0  0  0  0  0
   50.0538   10.0595   12.2091 C   0  0  0  0  0  0  0  0  0  0  0  0
   43.4995    5.8840   11.8106 C   0  0  0  0  0  0  0  0  0  0  0  0
   45.4526    4.7340   12.6588 C   0  0  0  0  0  0  0  0  0  0  0  0
   47.2137    8.7832   13.5354 C   0  0  0  0  0  0  0  0  0  0  0  0
   47.7533    7.0962   11.7165 C   0  0  0  0  0  0  0  0  0  0  0  0
   47.6470    9.7562   12.4399 C   0  0  0  0  0  0  0  0  0  0  0  0
   49.0684    7.8731   11.7444 C   0  0  0  0  0  0  0  0  0  0  0  0
   43.5446    3.4803   11.8764 C   0  0  0  0  0  0  0  0  0  0  0  0
   54.1727   13.8820   11.6191 C   0  0  0  0  0  0  0  0  0  0  0  0
   44.8246    3.5074   12.4177 C   0  0  0  0  0  0  0  0  0  0  0  0
   42.8753    4.6576   11.5712 C   0  0  0  0  0  0  0  0  0  0  0  0
   42.9496    2.3027   11.6488 F   0  0  0  0  0  0  0  0  0  0  0  0
   55.7044   12.5847   13.5678 C   0  0  0  0  0  0  0  0  0  0  0  0
   55.2758   14.5247   12.1828 C   0  0  0  0  0  0  0  0  0  0  0  0
   56.0400   13.8765   13.1552 C   0  0  0  0  0  0  0  0  0  0  0  0
   54.7830   10.1895   14.1332 H   0  0  0  0  0  0  0  0  0  0  0  0
   51.1334   10.1730   10.3264 H   0  0  0  0  0  0  0  0  0  0  0  0
   51.5836    8.7819   11.3120 H   0  0  0  0  0  0  0  0  0  0  0  0
   47.0983    6.6768   13.7526 H   0  0  0  0  0  0  0  0  0  0  0  0
   49.8386   11.1363   12.1972 H   0  0  0  0  0  0  0  0  0  0  0  0
   50.2581    9.7988   13.2559 H   0  0  0  0  0  0  0  0  0  0  0  0
   42.9689    6.8042   11.5696 H   0  0  0  0  0  0  0  0  0  0  0  0
   46.4481    4.7169   13.0898 H   0  0  0  0  0  0  0  0  0  0  0  0
   46.3593    9.1952   14.0850 H   0  0  0  0  0  0  0  0  0  0  0  0
   48.0254    8.6871   14.2691 H   0  0  0  0  0  0  0  0  0  0  0  0
   47.2104    7.3349   10.7920 H   0  0  0  0  0  0  0  0  0  0  0  0
   47.9722    6.0230   11.6692 H   0  0  0  0  0  0  0  0  0  0  0  0
   46.8430    9.8463   11.6988 H   0  0  0  0  0  0  0  0  0  0  0  0
   47.7595   10.7608   12.8661 H   0  0  0  0  0  0  0  0  0  0  0  0
   49.6343    7.5635   12.6335 H   0  0  0  0  0  0  0  0  0  0  0  0
   49.6584    7.5834   10.8675 H   0  0  0  0  0  0  0  0  0  0  0  0
   53.5764   14.3883   10.8628 H   0  0  0  0  0  0  0  0  0  0  0  0
   45.3252    2.5724   12.6510 H   0  0  0  0  0  0  0  0  0  0  0  0
   41.8753    4.6176   11.1509 H   0  0  0  0  0  0  0  0  0  0  0  0
   56.3080   12.0949   14.3269 H   0  0  0  0  0  0  0  0  0  0  0  0
   55.5385   15.5311   11.8643 H   0  0  0  0  0  0  0  0  0  0  0  0
   56.8987   14.3808   13.5931 H   0  0  0  0  0  0  0  0  0  0  0  0
  2  1  1  0
  3  1  1  0
  4  3  1  0
  5  2  1  0
  6  4  2  0
  7  1  1  0
  8 13  1  0
  9 15  1  0
 10  2  2  0
 11  3  2  0
 12  8  1  0
 13 19  1  0
 14  8  2  0
 15  7  1  0
 16 12  2  0
 17 12  1  0
 18 20  1  0
 19 21  1  0
 20  9  1  0
 21  9  1  0
 22 24  1  0
 23  4  1  0
 24 17  2  0
 25 16  1  0
 26 22  1  0
 27  6  1  0
 28 23  2  0
 29 28  1  0
  5  6  1  0
 18 13  1  0
 29 27  2  0
 25 22  2  0
  5 30  1  0
  7 31  1  0
  7 32  1  0
 13 33  1  0
 15 34  1  0
 15 35  1  0
 16 36  1  0
 17 37  1  0
 18 38  1  0
 18 39  1  0
 19 40  1  0
 19 41  1  0
 20 42  1  0
 20 43  1  0
 21 44  1  0
 21 45  1  0
 23 46  1  0
 24 47  1  0
 25 48  1  0
 27 49  1  0
 28 50  1  0
 29 51  1  0
M  END
> <Uni-Dock RESULT> 
ENERGY=   -4.262  LOWER_BOUND=    0.191  UPPER_BOUND=    0.191
INTER + INTRA:          -4.262
INTER:                  -4.262
INTRA:                   0.000
UNBOUND:                 0.000

$$$$

     RDKit          3D

 51 54  0  0  0  0  0  0  0  0999 V2000
   52.9197    8.6628   11.2759 N   0  0  0  0  0  0  0  0  0  0  0  0
   52.3545    9.4880   10.3170 C   0  0  0  0  0  0  0  0  0  0  0  0
   53.6261    7.4972   10.9867 C   0  0  0  0  0  0  0  0  0  0  0  0
   53.8814    7.2131    9.5613 C   0  0  0  0  0  0  0  0  0  0  0  0
   52.6060    9.1767    9.0115 N   0  0  0  0  0  0  0  0  0  0  0  0
   53.3568    8.0769    8.6069 C   0  0  0  0  0  0  0  0  0  0  0  0
   52.6481    8.9705   12.6788 C   0  0  0  0  0  0  0  0  0  0  0  0
   48.0842    9.4511   17.3684 C   0  0  0  0  0  0  0  0  0  0  0  0
   50.9642    8.6520   14.5510 N   0  0  0  0  0  0  0  0  0  0  0  0
   51.6452   10.4597   10.5755 O   0  0  0  0  0  0  0  0  0  0  0  0
   54.0282    6.7060   11.8359 O   0  0  0  0  0  0  0  0  0  0  0  0
   47.7216   10.5218   18.3532 C   0  0  0  0  0  0  0  0  0  0  0  0
   48.5724    9.8350   15.9688 C   0  0  0  0  0  0  0  0  0  0  0  0
   47.9937    8.2761   17.7241 O   0  0  0  0  0  0  0  0  0  0  0  0
   51.3126    8.3557   13.1471 C   0  0  0  0  0  0  0  0  0  0  0  0
   47.4896   10.1394   19.6858 C   0  0  0  0  0  0  0  0  0  0  0  0
   47.5974   11.8731   18.0008 C   0  0  0  0  0  0  0  0  0  0  0  0
   48.4988    8.6343   15.0070 C   0  0  0  0  0  0  0  0  0  0  0  0
   50.0009   10.3940   16.0523 C   0  0  0  0  0  0  0  0  0  0  0  0
   49.8111    7.8515   14.9989 C   0  0  0  0  0  0  0  0  0  0  0  0
   50.8006   10.0933   14.7859 C   0  0  0  0  0  0  0  0  0  0  0  0
   47.0340   12.4244   20.2819 C   0  0  0  0  0  0  0  0  0  0  0  0
   54.6280    6.0981    9.1677 C   0  0  0  0  0  0  0  0  0  0  0  0
   47.2546   12.8232   18.9687 C   0  0  0  0  0  0  0  0  0  0  0  0
   47.1475   11.0907   20.6497 C   0  0  0  0  0  0  0  0  0  0  0  0
   46.7058   13.3393   21.2027 F   0  0  0  0  0  0  0  0  0  0  0  0
   53.5714    7.8388    7.2494 C   0  0  0  0  0  0  0  0  0  0  0  0
   54.8464    5.8575    7.8105 C   0  0  0  0  0  0  0  0  0  0  0  0
   54.3188    6.7270    6.8535 C   0  0  0  0  0  0  0  0  0  0  0  0
   52.1961    9.8007    8.3287 H   0  0  0  0  0  0  0  0  0  0  0  0
   53.4672    8.5927   13.3023 H   0  0  0  0  0  0  0  0  0  0  0  0
   52.6338   10.0602   12.7917 H   0  0  0  0  0  0  0  0  0  0  0  0
   47.8856   10.5866   15.5634 H   0  0  0  0  0  0  0  0  0  0  0  0
   51.4003    7.2680   13.0239 H   0  0  0  0  0  0  0  0  0  0  0  0
   50.4993    8.6754   12.4823 H   0  0  0  0  0  0  0  0  0  0  0  0
   47.5764    9.0945   19.9806 H   0  0  0  0  0  0  0  0  0  0  0  0
   47.7538   12.2194   16.9846 H   0  0  0  0  0  0  0  0  0  0  0  0
   47.6672    7.9673   15.2626 H   0  0  0  0  0  0  0  0  0  0  0  0
   48.2928    8.9965   13.9908 H   0  0  0  0  0  0  0  0  0  0  0  0
   50.5315    9.9844   16.9225 H   0  0  0  0  0  0  0  0  0  0  0  0
   49.9651   11.4791   16.2043 H   0  0  0  0  0  0  0  0  0  0  0  0
   50.0262    7.4975   16.0147 H   0  0  0  0  0  0  0  0  0  0  0  0
   49.6912    6.9425   14.3965 H   0  0  0  0  0  0  0  0  0  0  0  0
   50.2990   10.5771   13.9370 H   0  0  0  0  0  0  0  0  0  0  0  0
   51.7892   10.5558   14.8848 H   0  0  0  0  0  0  0  0  0  0  0  0
   55.0377    5.4193    9.9128 H   0  0  0  0  0  0  0  0  0  0  0  0
   47.1559   13.8723   18.7059 H   0  0  0  0  0  0  0  0  0  0  0  0
   46.9696   10.7968   21.6795 H   0  0  0  0  0  0  0  0  0  0  0  0
   53.1661    8.5045    6.4923 H   0  0  0  0  0  0  0  0  0  0  0  0
   55.4269    4.9918    7.4995 H   0  0  0  0  0  0  0  0  0  0  0  0
   54.4902    6.5359    5.7964 H   0  0  0  0  0  0  0  0  0  0  0  0
  2  1  1  0
  3  1  1  0
  4  3  1  0
  5  2  1  0
  6  4  2  0
  7  1  1  0
  8 13  1  0
  9 15  1  0
 10  2  2  0
 11  3  2  0
 12  8  1  0
 13 19  1  0
 14  8  2  0
 15  7  1  0
 16 12  2  0
 17 12  1  0
 18 20  1  0
 19 21  1  0
 20  9  1  0
 21  9  1  0
 22 24  1  0
 23  4  1  0
 24 17  2  0
 25 16  1  0
 26 22  1  0
 27  6  1  0
 28 23  2  0
 29 28  1  0
  5  6  1  0
 18 13  1  0
 29 27  2  0
 25 22  2  0
  5 30  1  0
  7 31  1  0
  7 32  1  0
 13 33  1  0
 15 34  1  0
 15 35  1  0
 16 36  1  0
 17 37  1  0
 18 38  1  0
 18 39  1  0
 19 40  1  0
 19 41  1  0
 20 42  1  0
 20 43  1  0
 21 44  1  0
 21 45  1  0
 23 46  1  0
 24 47  1  0
 25 48  1  0
 27 49  1  0
 28 50  1  0
 29 51  1  0
M  END
> <Uni-Dock RESULT> 
ENERGY=   -4.191  LOWER_BOUND=    5.233  UPPER_BOUND=    7.408
INTER + INTRA:          -4.191
INTER:                  -4.191
INTRA:                   0.000
UNBOUND:                 0.000

$$$$

     RDKit          3D

 51 54  0  0  0  0  0  0  0  0999 V2000
   49.0791    9.4766   17.1141 N   0  0  0  0  0  0  0  0  0  0  0  0
   48.2534    9.1453   18.1763 C   0  0  0  0  0  0  0  0  0  0  0  0
   49.8424   10.6403   17.0500 C   0  0  0  0  0  0  0  0  0  0  0  0
   49.8514   11.4944   18.2534 C   0  0  0  0  0  0  0  0  0  0  0  0
   48.2845    9.9735   19.2616 N   0  0  0  0  0  0  0  0  0  0  0  0
   49.0619   11.1254   19.3364 C   0  0  0  0  0  0  0  0  0  0  0  0
   49.0473    8.6109   15.9367 C   0  0  0  0  0  0  0  0  0  0  0  0
   45.4361    6.2897   10.9744 C   0  0  0  0  0  0  0  0  0  0  0  0
   47.7971    8.1439   13.7778 N   0  0  0  0  0  0  0  0  0  0  0  0
   47.5028    8.1703   18.1878 O   0  0  0  0  0  0  0  0  0  0  0  0
   50.4844   10.9904   16.0630 O   0  0  0  0  0  0  0  0  0  0  0  0
   45.1511    4.9111   10.4588 C   0  0  0  0  0  0  0  0  0  0  0  0
   45.6029    6.5228   12.4786 C   0  0  0  0  0  0  0  0  0  0  0  0
   45.5462    7.2062   10.1600 O   0  0  0  0  0  0  0  0  0  0  0  0
   47.9023    8.9980   14.9776 C   0  0  0  0  0  0  0  0  0  0  0  0
   45.2214    4.6997    9.0709 C   0  0  0  0  0  0  0  0  0  0  0  0
   44.8127    3.8379   11.2950 C   0  0  0  0  0  0  0  0  0  0  0  0
   45.4813    8.0186   12.8250 C   0  0  0  0  0  0  0  0  0  0  0  0
   46.9500    5.9513   12.9463 C   0  0  0  0  0  0  0  0  0  0  0  0
   46.8466    8.7041   12.8011 C   0  0  0  0  0  0  0  0  0  0  0  0
   47.5221    6.7419   14.1215 C   0  0  0  0  0  0  0  0  0  0  0  0
   44.6366    2.3867    9.3747 C   0  0  0  0  0  0  0  0  0  0  0  0
   50.6285   12.6556   18.3114 C   0  0  0  0  0  0  0  0  0  0  0  0
   44.5572    2.5752   10.7495 C   0  0  0  0  0  0  0  0  0  0  0  0
   44.9656    3.4377    8.5296 C   0  0  0  0  0  0  0  0  0  0  0  0
   44.3903    1.1756    8.8597 F   0  0  0  0  0  0  0  0  0  0  0  0
   49.0389   11.9101   20.4894 C   0  0  0  0  0  0  0  0  0  0  0  0
   50.6096   13.4421   19.4640 C   0  0  0  0  0  0  0  0  0  0  0  0
   49.8161   13.0693   20.5508 C   0  0  0  0  0  0  0  0  0  0  0  0
   47.6852    9.7049   20.0311 H   0  0  0  0  0  0  0  0  0  0  0  0
   50.0071    8.6730   15.4099 H   0  0  0  0  0  0  0  0  0  0  0  0
   48.9338    7.5760   16.2780 H   0  0  0  0  0  0  0  0  0  0  0  0
   44.7722    6.0271   12.9936 H   0  0  0  0  0  0  0  0  0  0  0  0
   48.0852   10.0339   14.6623 H   0  0  0  0  0  0  0  0  0  0  0  0
   46.9468    9.0059   15.5185 H   0  0  0  0  0  0  0  0  0  0  0  0
   45.4783    5.5204    8.4024 H   0  0  0  0  0  0  0  0  0  0  0  0
   44.7331    3.9499   12.3712 H   0  0  0  0  0  0  0  0  0  0  0  0
   44.7929    8.5323   12.1438 H   0  0  0  0  0  0  0  0  0  0  0  0
   45.0464    8.1237   13.8280 H   0  0  0  0  0  0  0  0  0  0  0  0
   47.6789    5.9440   12.1246 H   0  0  0  0  0  0  0  0  0  0  0  0
   46.8234    4.9044   13.2464 H   0  0  0  0  0  0  0  0  0  0  0  0
   47.2894    8.5916   11.8036 H   0  0  0  0  0  0  0  0  0  0  0  0
   46.7160    9.7847   12.9378 H   0  0  0  0  0  0  0  0  0  0  0  0
   46.8173    6.6724   14.9611 H   0  0  0  0  0  0  0  0  0  0  0  0
   48.4538    6.2605   14.4397 H   0  0  0  0  0  0  0  0  0  0  0  0
   51.2456   12.9475   17.4641 H   0  0  0  0  0  0  0  0  0  0  0  0
   44.2943    1.7376   11.3887 H   0  0  0  0  0  0  0  0  0  0  0  0
   45.0210    3.2729    7.4581 H   0  0  0  0  0  0  0  0  0  0  0  0
   48.4253   11.6349   21.3429 H   0  0  0  0  0  0  0  0  0  0  0  0
   51.2127   14.3460   19.5139 H   0  0  0  0  0  0  0  0  0  0  0  0
   49.8030   13.6852   21.4474 H   0  0  0  0  0  0  0  0  0  0  0  0
  2  1  1  0
  3  1  1  0
  4  3  1  0
  5  2  1  0
  6  4  2  0
  7  1  1  0
  8 13  1  0
  9 15  1  0
 10  2  2  0
 11  3  2  0
 12  8  1  0
 13 19  1  0
 14  8  2  0
 15  7  1  0
 16 12  2  0
 17 12  1  0
 18 20  1  0
 19 21  1  0
 20  9  1  0
 21  9  1  0
 22 24  1  0
 23  4  1  0
 24 17  2  0
 25 16  1  0
 26 22  1  0
 27  6  1  0
 28 23  2  0
 29 28  1  0
  5  6  1  0
 18 13  1  0
 29 27  2  0
 25 22  2  0
  5 30  1  0
  7 31  1  0
  7 32  1  0
 13 33  1  0
 15 34  1  0
 15 35  1  0
 16 36  1  0
 17 37  1  0
 18 38  1  0
 18 39  1  0
 19 40  1  0
 19 41  1  0
 20 42  1  0
 20 43  1  0
 21 44  1  0
 21 45  1  0
 23 46  1  0
 24 47  1  0
 25 48  1  0
 27 49  1  0
 28 50  1  0
 29 51  1  0
M  END
> <Uni-Dock RESULT> 
ENERGY=   -4.111  LOWER_BOUND=    4.487  UPPER_BOUND=    5.430
INTER + INTRA:          -4.111
INTER:                  -4.111
INTRA:                   0.000
UNBOUND:                 0.000

$$$$

     RDKit          3D

 51 54  0  0  0  0  0  0  0  0999 V2000
   46.6764    7.5211   13.0650 N   0  0  0  0  0  0  0  0  0  0  0  0
   45.5476    8.2218   12.6718 C   0  0  0  0  0  0  0  0  0  0  0  0
   46.7343    6.1341   13.1838 C   0  0  0  0  0  0  0  0  0  0  0  0
   45.5467    5.3804   12.7374 C   0  0  0  0  0  0  0  0  0  0  0  0
   44.4684    7.4814   12.2819 N   0  0  0  0  0  0  0  0  0  0  0  0
   44.4374    6.0901   12.2924 C   0  0  0  0  0  0  0  0  0  0  0  0
   47.8362    8.2963   13.5016 C   0  0  0  0  0  0  0  0  0  0  0  0
   50.2325   12.4829   17.9494 C   0  0  0  0  0  0  0  0  0  0  0  0
   48.8637    9.4898   15.4921 N   0  0  0  0  0  0  0  0  0  0  0  0
   45.4658    9.4496   12.6656 O   0  0  0  0  0  0  0  0  0  0  0  0
   47.6955    5.5207   13.6406 O   0  0  0  0  0  0  0  0  0  0  0  0
   50.9524   13.7945   17.8531 C   0  0  0  0  0  0  0  0  0  0  0  0
   49.1450   12.1324   16.9300 C   0  0  0  0  0  0  0  0  0  0  0  0
   50.5528   11.7061   18.8490 O   0  0  0  0  0  0  0  0  0  0  0  0
   47.7341    8.6807   14.9925 C   0  0  0  0  0  0  0  0  0  0  0  0
   52.0836   13.9858   18.6653 C   0  0  0  0  0  0  0  0  0  0  0  0
   50.5423   14.8299   17.0014 C   0  0  0  0  0  0  0  0  0  0  0  0
   48.2714   10.9666   17.4298 C   0  0  0  0  0  0  0  0  0  0  0  0
   49.7900   11.8031   15.5752 C   0  0  0  0  0  0  0  0  0  0  0  0
   48.8228    9.6215   16.9591 C   0  0  0  0  0  0  0  0  0  0  0  0
   48.9707   10.7780   14.7932 C   0  0  0  0  0  0  0  0  0  0  0  0
   52.3768   16.1979   17.7681 C   0  0  0  0  0  0  0  0  0  0  0  0
   45.5244    3.9824   12.7638 C   0  0  0  0  0  0  0  0  0  0  0  0
   51.2582   16.0311   16.9599 C   0  0  0  0  0  0  0  0  0  0  0  0
   52.7961   15.1865   18.6215 C   0  0  0  0  0  0  0  0  0  0  0  0
   53.0567   17.3504   17.7234 F   0  0  0  0  0  0  0  0  0  0  0  0
   43.2938    5.4136   11.8681 C   0  0  0  0  0  0  0  0  0  0  0  0
   44.3826    3.3020   12.3383 C   0  0  0  0  0  0  0  0  0  0  0  0
   43.2697    4.0171   11.8912 C   0  0  0  0  0  0  0  0  0  0  0  0
   43.6605    8.0131   11.9849 H   0  0  0  0  0  0  0  0  0  0  0  0
   48.7506    7.7153   13.3320 H   0  0  0  0  0  0  0  0  0  0  0  0
   47.9028    9.1920   12.8741 H   0  0  0  0  0  0  0  0  0  0  0  0
   48.4732   12.9936   16.8399 H   0  0  0  0  0  0  0  0  0  0  0  0
   47.6881    7.7432   15.5624 H   0  0  0  0  0  0  0  0  0  0  0  0
   46.7861    9.2016   15.1812 H   0  0  0  0  0  0  0  0  0  0  0  0
   52.4173   13.1964   19.3374 H   0  0  0  0  0  0  0  0  0  0  0  0
   49.6698   14.7384   16.3631 H   0  0  0  0  0  0  0  0  0  0  0  0
   48.1829   10.9728   18.5225 H   0  0  0  0  0  0  0  0  0  0  0  0
   47.2502   11.0884   17.0444 H   0  0  0  0  0  0  0  0  0  0  0  0
   50.8122   11.4243   15.7097 H   0  0  0  0  0  0  0  0  0  0  0  0
   49.8835   12.7178   14.9781 H   0  0  0  0  0  0  0  0  0  0  0  0
   49.8472    9.5010   17.3327 H   0  0  0  0  0  0  0  0  0  0  0  0
   48.2498    8.8088   17.4224 H   0  0  0  0  0  0  0  0  0  0  0  0
   47.9776   11.2049   14.5984 H   0  0  0  0  0  0  0  0  0  0  0  0
   49.4524   10.6207   13.8215 H   0  0  0  0  0  0  0  0  0  0  0  0
   46.3906    3.4248   13.1138 H   0  0  0  0  0  0  0  0  0  0  0  0
   50.9488   16.8391   16.3037 H   0  0  0  0  0  0  0  0  0  0  0  0
   53.6707   15.3348   19.2471 H   0  0  0  0  0  0  0  0  0  0  0  0
   42.4188    5.9552   11.5193 H   0  0  0  0  0  0  0  0  0  0  0  0
   44.3608    2.2146   12.3566 H   0  0  0  0  0  0  0  0  0  0  0  0
   42.3810    3.4835   11.5611 H   0  0  0  0  0  0  0  0  0  0  0  0
  2  1  1  0
  3  1  1  0
  4  3  1  0
  5  2  1  0
  6  4  2  0
  7  1  1  0
  8 13  1  0
  9 15  1  0
 10  2  2  0
 11  3  2  0
 12  8  1  0
 13 19  1  0
 14  8  2  0
 15  7  1  0
 16 12  2  0
 17 12  1  0
 18 20  1  0
 19 21  1  0
 20  9  1  0
 21  9  1  0
 22 24  1  0
 23  4  1  0
 24 17  2  0
 25 16  1  0
 26 22  1  0
 27  6  1  0
 28 23  2  0
 29 28  1  0
  5  6  1  0
 18 13  1  0
 29 27  2  0
 25 22  2  0
  5 30  1  0
  7 31  1  0
  7 32  1  0
 13 33  1  0
 15 34  1  0
 15 35  1  0
 16 36  1  0
 17 37  1  0
 18 38  1  0
 18 39  1  0
 19 40  1  0
 19 41  1  0
 20 42  1  0
 20 43  1  0
 21 44  1  0
 21 45  1  0
 23 46  1  0
 24 47  1  0
 25 48  1  0
 27 49  1  0
 28 50  1  0
 29 51  1  0
M  END
> <Uni-Dock RESULT> 
ENERGY=   -4.071  LOWER_BOUND=    5.359  UPPER_BOUND=   10.976
INTER + INTRA:          -4.071
INTER:                  -4.071
INTRA:                   0.000
UNBOUND:                 0.000

$$$$

     RDKit          3D

 51 54  0  0  0  0  0  0  0  0999 V2000
   46.6998    7.6287   13.0561 N   0  0  0  0  0  0  0  0  0  0  0  0
   45.5637    8.3220   12.6711 C   0  0  0  0  0  0  0  0  0  0  0  0
   46.7648    6.2428   13.1839 C   0  0  0  0  0  0  0  0  0  0  0  0
   45.5753    5.4812   12.7566 C   0  0  0  0  0  0  0  0  0  0  0  0
   44.4832    7.5746   12.2988 N   0  0  0  0  0  0  0  0  0  0  0  0
   44.4580    6.1833   12.3194 C   0  0  0  0  0  0  0  0  0  0  0  0
   47.8614    8.4116   13.4739 C   0  0  0  0  0  0  0  0  0  0  0  0
   50.2915   12.6391   17.8643 C   0  0  0  0  0  0  0  0  0  0  0  0
   48.9068    9.6232   15.4439 N   0  0  0  0  0  0  0  0  0  0  0  0
   45.4768    9.5494   12.6572 O   0  0  0  0  0  0  0  0  0  0  0  0
   47.7337    5.6365   13.6339 O   0  0  0  0  0  0  0  0  0  0  0  0
   51.0049   13.9528   17.7505 C   0  0  0  0  0  0  0  0  0  0  0  0
   49.1938   12.2770   16.8600 C   0  0  0  0  0  0  0  0  0  0  0  0
   50.6254   11.8699   18.7655 O   0  0  0  0  0  0  0  0  0  0  0  0
   47.7748    8.8061   14.9631 C   0  0  0  0  0  0  0  0  0  0  0  0
   52.1446   14.1545   18.5482 C   0  0  0  0  0  0  0  0  0  0  0  0
   50.5808   14.9805   16.8963 C   0  0  0  0  0  0  0  0  0  0  0  0
   48.3308   11.1113   17.3779 C   0  0  0  0  0  0  0  0  0  0  0  0
   49.8245   11.9408   15.5002 C   0  0  0  0  0  0  0  0  0  0  0  0
   48.8822    9.7651   16.9104 C   0  0  0  0  0  0  0  0  0  0  0  0
   49.0004   10.9069   14.7349 C   0  0  0  0  0  0  0  0  0  0  0  0
   52.4183   16.3613   17.6322 C   0  0  0  0  0  0  0  0  0  0  0  0
   45.5590    4.0833   12.7930 C   0  0  0  0  0  0  0  0  0  0  0  0
   51.2912   16.1843   16.8382 C   0  0  0  0  0  0  0  0  0  0  0  0
   52.8515   15.3576   18.4877 C   0  0  0  0  0  0  0  0  0  0  0  0
   53.0929   17.5162   17.5716 F   0  0  0  0  0  0  0  0  0  0  0  0
   43.3123    5.4992   11.9131 C   0  0  0  0  0  0  0  0  0  0  0  0
   44.4152    3.3953   12.3855 C   0  0  0  0  0  0  0  0  0  0  0  0
   43.2943    4.1027   11.9462 C   0  0  0  0  0  0  0  0  0  0  0  0
   43.6697    8.1009   12.0074 H   0  0  0  0  0  0  0  0  0  0  0  0
   48.7761    7.8331   13.2978 H   0  0  0  0  0  0  0  0  0  0  0  0
   47.9170    9.3031   12.8394 H   0  0  0  0  0  0  0  0  0  0  0  0
   48.5175   13.1348   16.7716 H   0  0  0  0  0  0  0  0  0  0  0  0
   47.7393    7.8724   15.5400 H   0  0  0  0  0  0  0  0  0  0  0  0
   46.8269    9.3244   15.1591 H   0  0  0  0  0  0  0  0  0  0  0  0
   52.4892   13.3711   19.2220 H   0  0  0  0  0  0  0  0  0  0  0  0
   49.7013   14.8810   16.2688 H   0  0  0  0  0  0  0  0  0  0  0  0
   48.2548   11.1248   18.4715 H   0  0  0  0  0  0  0  0  0  0  0  0
   47.3047   11.2263   17.0036 H   0  0  0  0  0  0  0  0  0  0  0  0
   50.8497   11.5670   15.6255 H   0  0  0  0  0  0  0  0  0  0  0  0
   49.9074   12.8516   14.8956 H   0  0  0  0  0  0  0  0  0  0  0  0
   49.9114    9.6513   17.2730 H   0  0  0  0  0  0  0  0  0  0  0  0
   48.3180    8.9534   17.3860 H   0  0  0  0  0  0  0  0  0  0  0  0
   48.0034   11.3284   14.5485 H   0  0  0  0  0  0  0  0  0  0  0  0
   49.4716   10.7447   13.7588 H   0  0  0  0  0  0  0  0  0  0  0  0
   46.4315    3.5317   13.1369 H   0  0  0  0  0  0  0  0  0  0  0  0
   50.9709   16.9864   16.1799 H   0  0  0  0  0  0  0  0  0  0  0  0
   53.7327   15.5139   19.1021 H   0  0  0  0  0  0  0  0  0  0  0  0
   42.4312    6.0348   11.5706 H   0  0  0  0  0  0  0  0  0  0  0  0
   44.3980    2.3080   12.4116 H   0  0  0  0  0  0  0  0  0  0  0  0
   42.4040    3.5633   11.6302 H   0  0  0  0  0  0  0  0  0  0  0  0
  2  1  1  0
  3  1  1  0
  4  3  1  0
  5  2  1  0
  6  4  2  0
  7  1  1  0
  8 13  1  0
  9 15  1  0
 10  2  2  0
 11  3  2  0
 12  8  1  0
 13 19  1  0
 14  8  2  0
 15  7  1  0
 16 12  2  0
 17 12  1  0
 18 20  1  0
 19 21  1  0
 20  9  1  0
 21  9  1  0
 22 24  1  0
 23  4  1  0
 24 17  2  0
 25 16  1  0
 26 22  1  0
 27  6  1  0
 28 23  2  0
 29 28  1  0
  5  6  1  0
 18 13  1  0
 29 27  2  0
 25 22  2  0
  5 30  1  0
  7 31  1  0
  7 32  1  0
 13 33  1  0
 15 34  1  0
 15 35  1  0
 16 36  1  0
 17 37  1  0
 18 38  1  0
 18 39  1  0
 19 40  1  0
 19 41  1  0
 20 42  1  0
 20 43  1  0
 21 44  1  0
 21 45  1  0
 23 46  1  0
 24 47  1  0
 25 48  1  0
 27 49  1  0
 28 50  1  0
 29 51  1  0
M  END
> <Uni-Dock RESULT> 
ENERGY=   -4.052  LOWER_BOUND=    5.351  UPPER_BOUND=   10.983
INTER + INTRA:          -4.052
INTER:                  -4.052
INTRA:                   0.000
UNBOUND:                 0.000

$$$$

     RDKit          3D

 51 54  0  0  0  0  0  0  0  0999 V2000
   53.9857    3.7130   21.9329 N   0  0  0  0  0  0  0  0  0  0  0  0
   54.2839    3.2192   20.6731 C   0  0  0  0  0  0  0  0  0  0  0  0
   54.1957    3.0112   23.1180 C   0  0  0  0  0  0  0  0  0  0  0  0
   54.8949    1.7164   23.0068 C   0  0  0  0  0  0  0  0  0  0  0  0
   54.9173    2.0107   20.6199 N   0  0  0  0  0  0  0  0  0  0  0  0
   55.2397    1.2536   21.7422 C   0  0  0  0  0  0  0  0  0  0  0  0
   53.2929    4.9979   22.0097 C   0  0  0  0  0  0  0  0  0  0  0  0
   47.8134    8.3269   20.6149 C   0  0  0  0  0  0  0  0  0  0  0  0
   51.0055    6.0939   21.9168 N   0  0  0  0  0  0  0  0  0  0  0  0
   54.0045    3.7963   19.6228 O   0  0  0  0  0  0  0  0  0  0  0  0
   53.8276    3.3994   24.2238 O   0  0  0  0  0  0  0  0  0  0  0  0
   47.5419    9.6302   19.9254 C   0  0  0  0  0  0  0  0  0  0  0  0
   48.9645    7.4366   20.1387 C   0  0  0  0  0  0  0  0  0  0  0  0
   47.1027    8.0127   21.5697 O   0  0  0  0  0  0  0  0  0  0  0  0
   51.7652    4.8284   21.8745 C   0  0  0  0  0  0  0  0  0  0  0  0
   46.6260   10.5132   20.5232 C   0  0  0  0  0  0  0  0  0  0  0  0
   48.1515    9.9962   18.7170 C   0  0  0  0  0  0  0  0  0  0  0  0
   48.8220    6.0047   20.6877 C   0  0  0  0  0  0  0  0  0  0  0  0
   50.3071    8.0592   20.5507 C   0  0  0  0  0  0  0  0  0  0  0  0
   49.5563    5.8474   22.0184 C   0  0  0  0  0  0  0  0  0  0  0  0
   51.3686    6.9921   20.8120 C   0  0  0  0  0  0  0  0  0  0  0  0
   46.9482   12.0882   18.7345 C   0  0  0  0  0  0  0  0  0  0  0  0
   55.2029    0.9600   24.1420 C   0  0  0  0  0  0  0  0  0  0  0  0
   47.8535   11.2278   18.1242 C   0  0  0  0  0  0  0  0  0  0  0  0
   46.3307   11.7421   19.9285 C   0  0  0  0  0  0  0  0  0  0  0  0
   46.6675   13.2650   18.1611 F   0  0  0  0  0  0  0  0  0  0  0  0
   55.8960    0.0315   21.5956 C   0  0  0  0  0  0  0  0  0  0  0  0
   55.8611   -0.2623   23.9994 C   0  0  0  0  0  0  0  0  0  0  0  0
   56.2070   -0.7250   22.7281 C   0  0  0  0  0  0  0  0  0  0  0  0
   55.1386    1.6761   19.6911 H   0  0  0  0  0  0  0  0  0  0  0  0
   53.5273    5.4844   22.9640 H   0  0  0  0  0  0  0  0  0  0  0  0
   53.6831    5.6430   21.2148 H   0  0  0  0  0  0  0  0  0  0  0  0
   48.8971    7.3479   19.0484 H   0  0  0  0  0  0  0  0  0  0  0  0
   51.4391    4.1894   22.7059 H   0  0  0  0  0  0  0  0  0  0  0  0
   51.5290    4.2787   20.9539 H   0  0  0  0  0  0  0  0  0  0  0  0
   46.1377   10.2471   21.4597 H   0  0  0  0  0  0  0  0  0  0  0  0
   48.8561    9.3469   18.2082 H   0  0  0  0  0  0  0  0  0  0  0  0
   47.7687    5.7247   20.8065 H   0  0  0  0  0  0  0  0  0  0  0  0
   49.2419    5.2952   19.9621 H   0  0  0  0  0  0  0  0  0  0  0  0
   50.1910    8.6828   21.4473 H   0  0  0  0  0  0  0  0  0  0  0  0
   50.6615    8.7308   19.7599 H   0  0  0  0  0  0  0  0  0  0  0  0
   49.1471    6.5624   22.7429 H   0  0  0  0  0  0  0  0  0  0  0  0
   49.3429    4.8570   22.4393 H   0  0  0  0  0  0  0  0  0  0  0  0
   51.5296    6.4294   19.8826 H   0  0  0  0  0  0  0  0  0  0  0  0
   52.3114    7.4958   21.0535 H   0  0  0  0  0  0  0  0  0  0  0  0
   54.9320    1.3192   25.1326 H   0  0  0  0  0  0  0  0  0  0  0  0
   48.3202   11.5206   17.1884 H   0  0  0  0  0  0  0  0  0  0  0  0
   45.6247   12.4254   20.3901 H   0  0  0  0  0  0  0  0  0  0  0  0
   56.1701   -0.3435   20.6134 H   0  0  0  0  0  0  0  0  0  0  0  0
   56.1032   -0.8540   24.8795 H   0  0  0  0  0  0  0  0  0  0  0  0
   56.7192   -1.6787   22.6205 H   0  0  0  0  0  0  0  0  0  0  0  0
  2  1  1  0
  3  1  1  0
  4  3  1  0
  5  2  1  0
  6  4  2  0
  7  1  1  0
  8 13  1  0
  9 15  1  0
 10  2  2  0
 11  3  2  0
 12  8  1  0
 13 19  1  0
 14  8  2  0
 15  7  1  0
 16 12  2  0
 17 12  1  0
 18 20  1  0
 19 21  1  0
 20  9  1  0
 21  9  1  0
 22 24  1  0
 23  4  1  0
 24 17  2  0
 25 16  1  0
 26 22  1  0
 27  6  1  0
 28 23  2  0
 29 28  1  0
  5  6  1  0
 18 13  1  0
 29 27  2  0
 25 22  2  0
  5 30  1  0
  7 31  1  0
  7 32  1  0
 13 33  1  0
 15 34  1  0
 15 35  1  0
 16 36  1  0
 17 37  1  0
 18 38  1  0
 18 39  1  0
 19 40  1  0
 19 41  1  0
 20 42  1  0
 20 43  1  0
 21 44  1  0
 21 45  1  0
 23 46  1  0
 24 47  1  0
 25 48  1  0
 27 49  1  0
 28 50  1  0
 29 51  1  0
M  END
> <Uni-Dock RESULT> 
ENERGY=   -3.908  LOWER_BOUND=   10.190  UPPER_BOUND=   12.066
INTER + INTRA:          -3.908
INTER:                  -3.908
INTRA:                   0.000
UNBOUND:                 0.000

$$$$

     RDKit          3D

 51 54  0  0  0  0  0  0  0  0999 V2000
   46.4749    7.2740   13.2106 N   0  0  0  0  0  0  0  0  0  0  0  0
   47.3041    6.2136   13.5389 C   0  0  0  0  0  0  0  0  0  0  0  0
   45.2429    7.1358   12.5748 C   0  0  0  0  0  0  0  0  0  0  0  0
   44.7574    5.7586   12.3620 C   0  0  0  0  0  0  0  0  0  0  0  0
   46.8178    4.9582   13.3099 N   0  0  0  0  0  0  0  0  0  0  0  0
   45.5727    4.6998   12.7447 C   0  0  0  0  0  0  0  0  0  0  0  0
   46.9845    8.6258   13.4332 C   0  0  0  0  0  0  0  0  0  0  0  0
   51.5065   13.0856   11.7856 C   0  0  0  0  0  0  0  0  0  0  0  0
   48.4064   10.4660   12.4164 N   0  0  0  0  0  0  0  0  0  0  0  0
   48.4350    6.3421   14.0066 O   0  0  0  0  0  0  0  0  0  0  0  0
   44.5605    8.0783   12.1811 O   0  0  0  0  0  0  0  0  0  0  0  0
   52.4560   13.9363   12.5746 C   0  0  0  0  0  0  0  0  0  0  0  0
   51.1739   11.6691   12.2628 C   0  0  0  0  0  0  0  0  0  0  0  0
   51.0006   13.5634   10.7702 O   0  0  0  0  0  0  0  0  0  0  0  0
   47.8374    9.1144   12.2438 C   0  0  0  0  0  0  0  0  0  0  0  0
   52.5661   15.2943   12.2288 C   0  0  0  0  0  0  0  0  0  0  0  0
   53.2364   13.4357   13.6263 C   0  0  0  0  0  0  0  0  0  0  0  0
   50.5289   10.8412   11.1355 C   0  0  0  0  0  0  0  0  0  0  0  0
   50.2596   11.7378   13.4955 C   0  0  0  0  0  0  0  0  0  0  0  0
   49.0058   10.9604   11.1644 C   0  0  0  0  0  0  0  0  0  0  0  0
   49.3168   10.5379   13.5676 C   0  0  0  0  0  0  0  0  0  0  0  0
   54.1950   15.6242   13.9672 C   0  0  0  0  0  0  0  0  0  0  0  0
   43.5087    5.5125   11.7825 C   0  0  0  0  0  0  0  0  0  0  0  0
   54.1048   14.2834   14.3224 C   0  0  0  0  0  0  0  0  0  0  0  0
   53.4342   16.1379   12.9259 C   0  0  0  0  0  0  0  0  0  0  0  0
   55.0287   16.4293   14.6376 F   0  0  0  0  0  0  0  0  0  0  0  0
   45.1515    3.3836   12.5543 C   0  0  0  0  0  0  0  0  0  0  0  0
   43.0832    4.1971   11.5920 C   0  0  0  0  0  0  0  0  0  0  0  0
   43.9036    3.1350   11.9777 C   0  0  0  0  0  0  0  0  0  0  0  0
   47.4336    4.1990   13.5706 H   0  0  0  0  0  0  0  0  0  0  0  0
   46.1447    9.3127   13.5922 H   0  0  0  0  0  0  0  0  0  0  0  0
   47.5745    8.6193   14.3564 H   0  0  0  0  0  0  0  0  0  0  0  0
   52.1148   11.1626   12.5063 H   0  0  0  0  0  0  0  0  0  0  0  0
   47.1853    9.1128   11.3603 H   0  0  0  0  0  0  0  0  0  0  0  0
   48.6385    8.3930   12.0355 H   0  0  0  0  0  0  0  0  0  0  0  0
   51.9724   15.7033   11.4124 H   0  0  0  0  0  0  0  0  0  0  0  0
   53.1984   12.3935   13.9255 H   0  0  0  0  0  0  0  0  0  0  0  0
   50.9088   11.1406   10.1517 H   0  0  0  0  0  0  0  0  0  0  0  0
   50.8068    9.7857   11.2571 H   0  0  0  0  0  0  0  0  0  0  0  0
   49.6690   12.6638   13.4941 H   0  0  0  0  0  0  0  0  0  0  0  0
   50.8689   11.7699   14.4064 H   0  0  0  0  0  0  0  0  0  0  0  0
   48.7244   12.0151   11.0546 H   0  0  0  0  0  0  0  0  0  0  0  0
   48.5826   10.4566   10.2867 H   0  0  0  0  0  0  0  0  0  0  0  0
   49.9233    9.6258   13.6487 H   0  0  0  0  0  0  0  0  0  0  0  0
   48.7270   10.6181   14.4877 H   0  0  0  0  0  0  0  0  0  0  0  0
   42.8699    6.3396   11.4800 H   0  0  0  0  0  0  0  0  0  0  0  0
   54.7135   13.9054   15.1384 H   0  0  0  0  0  0  0  0  0  0  0  0
   53.5190   17.1871   12.6608 H   0  0  0  0  0  0  0  0  0  0  0  0
   45.7789    2.5462   12.8470 H   0  0  0  0  0  0  0  0  0  0  0  0
   42.1125    4.0007   11.1420 H   0  0  0  0  0  0  0  0  0  0  0  0
   43.5692    2.1109   11.8270 H   0  0  0  0  0  0  0  0  0  0  0  0
  2  1  1  0
  3  1  1  0
  4  3  1  0
  5  2  1  0
  6  4  2  0
  7  1  1  0
  8 13  1  0
  9 15  1  0
 10  2  2  0
 11  3  2  0
 12  8  1  0
 13 19  1  0
 14  8  2  0
 15  7  1  0
 16 12  2  0
 17 12  1  0
 18 20  1  0
 19 21  1  0
 20  9  1  0
 21  9  1  0
 22 24  1  0
 23  4  1  0
 24 17  2  0
 25 16  1  0
 26 22  1  0
 27  6  1  0
 28 23  2  0
 29 28  1  0
  5  6  1  0
 18 13  1  0
 29 27  2  0
 25 22  2  0
  5 30  1  0
  7 31  1  0
  7 32  1  0
 13 33  1  0
 15 34  1  0
 15 35  1  0
 16 36  1  0
 17 37  1  0
 18 38  1  0
 18 39  1  0
 19 40  1  0
 19 41  1  0
 20 42  1  0
 20 43  1  0
 21 44  1  0
 21 45  1  0
 23 46  1  0
 24 47  1  0
 25 48  1  0
 27 49  1  0
 28 50  1  0
 29 51  1  0
M  END
> <Uni-Dock RESULT> 
ENERGY=   -3.901  LOWER_BOUND=    4.119  UPPER_BOUND=   10.691
INTER + INTRA:          -3.901
INTER:                  -3.901
INTRA:                   0.000
UNBOUND:                 0.000

$$$$

     RDKit          3D

 51 54  0  0  0  0  0  0  0  0999 V2000
   51.6092    6.2246   17.0522 N   0  0  0  0  0  0  0  0  0  0  0  0
   52.7591    6.6922   16.4367 C   0  0  0  0  0  0  0  0  0  0  0  0
   51.5436    5.0498   17.7982 C   0  0  0  0  0  0  0  0  0  0  0  0
   52.8175    4.3442   18.0372 C   0  0  0  0  0  0  0  0  0  0  0  0
   53.9106    5.9979   16.6751 N   0  0  0  0  0  0  0  0  0  0  0  0
   53.9764    4.8510   17.4607 C   0  0  0  0  0  0  0  0  0  0  0  0
   50.3635    6.9451   16.7957 C   0  0  0  0  0  0  0  0  0  0  0  0
   45.9180    8.7180   12.3071 C   0  0  0  0  0  0  0  0  0  0  0  0
   48.4345    7.1725   15.1618 N   0  0  0  0  0  0  0  0  0  0  0  0
   52.7936    7.6732   15.6946 O   0  0  0  0  0  0  0  0  0  0  0  0
   50.5034    4.5753   18.2474 O   0  0  0  0  0  0  0  0  0  0  0  0
   45.3036   10.0301   11.9215 C   0  0  0  0  0  0  0  0  0  0  0  0
   47.3818    8.6622   12.7529 C   0  0  0  0  0  0  0  0  0  0  0  0
   45.2125    7.7099   12.2698 O   0  0  0  0  0  0  0  0  0  0  0  0
   49.6870    6.4649   15.4946 C   0  0  0  0  0  0  0  0  0  0  0  0
   43.9117   10.0745   11.7304 C   0  0  0  0  0  0  0  0  0  0  0  0
   46.0541   11.1999   11.7375 C   0  0  0  0  0  0  0  0  0  0  0  0
   47.9206    7.2200   12.7082 C   0  0  0  0  0  0  0  0  0  0  0  0
   47.5195    9.2641   14.1596 C   0  0  0  0  0  0  0  0  0  0  0  0
   47.7254    6.5153   14.0499 C   0  0  0  0  0  0  0  0  0  0  0  0
   48.6537    8.6094   14.9461 C   0  0  0  0  0  0  0  0  0  0  0  0
   44.0408   12.4159   11.1967 C   0  0  0  0  0  0  0  0  0  0  0  0
   52.8681    3.1862   18.8195 C   0  0  0  0  0  0  0  0  0  0  0  0
   45.4190   12.3929   11.3761 C   0  0  0  0  0  0  0  0  0  0  0  0
   43.2808   11.2673   11.3696 C   0  0  0  0  0  0  0  0  0  0  0  0
   43.4399   13.5612   10.8504 F   0  0  0  0  0  0  0  0  0  0  0  0
   55.1989    4.2090   17.6585 C   0  0  0  0  0  0  0  0  0  0  0  0
   54.0896    2.5420   19.0210 C   0  0  0  0  0  0  0  0  0  0  0  0
   55.2526    3.0533   18.4414 C   0  0  0  0  0  0  0  0  0  0  0  0
   54.7405    6.3651   16.2279 H   0  0  0  0  0  0  0  0  0  0  0  0
   49.6788    6.8061   17.6408 H   0  0  0  0  0  0  0  0  0  0  0  0
   50.5941    8.0148   16.7406 H   0  0  0  0  0  0  0  0  0  0  0  0
   47.9794    9.2282   12.0293 H   0  0  0  0  0  0  0  0  0  0  0  0
   49.4691    5.3963   15.6227 H   0  0  0  0  0  0  0  0  0  0  0  0
   50.3931    6.5360   14.6567 H   0  0  0  0  0  0  0  0  0  0  0  0
   43.3099    9.1765   11.8640 H   0  0  0  0  0  0  0  0  0  0  0  0
   47.1319   11.2174   11.8606 H   0  0  0  0  0  0  0  0  0  0  0  0
   47.4454    6.6400   11.9085 H   0  0  0  0  0  0  0  0  0  0  0  0
   48.9922    7.2412   12.4686 H   0  0  0  0  0  0  0  0  0  0  0  0
   46.5818    9.1627   14.7225 H   0  0  0  0  0  0  0  0  0  0  0  0
   47.7109   10.3409   14.0839 H   0  0  0  0  0  0  0  0  0  0  0  0
   46.6568    6.5021   14.2982 H   0  0  0  0  0  0  0  0  0  0  0  0
   48.0118    5.4607   13.9544 H   0  0  0  0  0  0  0  0  0  0  0  0
   49.5952    8.7889   14.4096 H   0  0  0  0  0  0  0  0  0  0  0  0
   48.7334    9.1106   15.9174 H   0  0  0  0  0  0  0  0  0  0  0  0
   51.9619    2.7863   19.2698 H   0  0  0  0  0  0  0  0  0  0  0  0
   45.9913   13.3043   11.2312 H   0  0  0  0  0  0  0  0  0  0  0  0
   42.2057   11.3032   11.2233 H   0  0  0  0  0  0  0  0  0  0  0  0
   56.1125    4.5928   17.2128 H   0  0  0  0  0  0  0  0  0  0  0  0
   54.1340    1.6412   19.6291 H   0  0  0  0  0  0  0  0  0  0  0  0
   56.2029    2.5481   18.5998 H   0  0  0  0  0  0  0  0  0  0  0  0
  2  1  1  0
  3  1  1  0
  4  3  1  0
  5  2  1  0
  6  4  2  0
  7  1  1  0
  8 13  1  0
  9 15  1  0
 10  2  2  0
 11  3  2  0
 12  8  1  0
 13 19  1  0
 14  8  2  0
 15  7  1  0
 16 12  2  0
 17 12  1  0
 18 20  1  0
 19 21  1  0
 20  9  1  0
 21  9  1  0
 22 24  1  0
 23  4  1  0
 24 17  2  0
 25 16  1  0
 26 22  1  0
 27  6  1  0
 28 23  2  0
 29 28  1  0
  5  6  1  0
 18 13  1  0
 29 27  2  0
 25 22  2  0
  5 30  1  0
  7 31  1  0
  7 32  1  0
 13 33  1  0
 15 34  1  0
 15 35  1  0
 16 36  1  0
 17 37  1  0
 18 38  1  0
 18 39  1  0
 19 40  1  0
 19 41  1  0
 20 42  1  0
 20 43  1  0
 21 44  1  0
 21 45  1  0
 23 46  1  0
 24 47  1  0
 25 48  1  0
 27 49  1  0
 28 50  1  0
 29 51  1  0
M  END
> <Uni-Dock RESULT> 
ENERGY=   -3.854  LOWER_BOUND=    5.487  UPPER_BOUND=    7.398
INTER + INTRA:          -3.854
INTER:                  -3.854
INTRA:                   0.000
UNBOUND:                 0.000

$$$$
