
     RDKit          3D

 51 54  0  0  0  0  0  0  0  0999 V2000
   49.2903   12.4055   16.3244 N   0  0  0  0  0  0  0  0  0  0  0  0
   49.8094   13.5861   16.8293 C   0  0  0  0  0  0  0  0  0  0  0  0
   48.4504   11.5516   17.0369 C   0  0  0  0  0  0  0  0  0  0  0  0
   48.0002   12.0180   18.3623 C   0  0  0  0  0  0  0  0  0  0  0  0
   49.3760   13.9686   18.0665 N   0  0  0  0  0  0  0  0  0  0  0  0
   48.4842   13.2307   18.8393 C   0  0  0  0  0  0  0  0  0  0  0  0
   49.7540   11.9611   15.0123 C   0  0  0  0  0  0  0  0  0  0  0  0
   52.4883    9.2055    9.9279 C   0  0  0  0  0  0  0  0  0  0  0  0
   51.5667   10.5334   13.8777 N   0  0  0  0  0  0  0  0  0  0  0  0
   50.6276   14.2884   16.2374 O   0  0  0  0  0  0  0  0  0  0  0  0
   48.0858   10.4507   16.6299 O   0  0  0  0  0  0  0  0  0  0  0  0
   53.0598    7.9176    9.4254 C   0  0  0  0  0  0  0  0  0  0  0  0
   52.3819    9.4528   11.4289 C   0  0  0  0  0  0  0  0  0  0  0  0
   52.0945   10.0337    9.1066 O   0  0  0  0  0  0  0  0  0  0  0  0
   51.0357   11.1072   15.1236 C   0  0  0  0  0  0  0  0  0  0  0  0
   53.4694    7.8586    8.0826 C   0  0  0  0  0  0  0  0  0  0  0  0
   53.1830    6.7762   10.2300 C   0  0  0  0  0  0  0  0  0  0  0  0
   50.9592    9.1310   11.8904 C   0  0  0  0  0  0  0  0  0  0  0  0
   52.7634   10.9047   11.7827 C   0  0  0  0  0  0  0  0  0  0  0  0
   50.7753    9.4001   13.3880 C   0  0  0  0  0  0  0  0  0  0  0  0
   51.8482   11.5238   12.8431 C   0  0  0  0  0  0  0  0  0  0  0  0
   54.1300    5.5639    8.3710 C   0  0  0  0  0  0  0  0  0  0  0  0
   47.1120   11.2613   19.1331 C   0  0  0  0  0  0  0  0  0  0  0  0
   53.7219    5.5996    9.6995 C   0  0  0  0  0  0  0  0  0  0  0  0
   54.0071    6.6820    7.5567 C   0  0  0  0  0  0  0  0  0  0  0  0
   54.6442    4.4339    7.8694 F   0  0  0  0  0  0  0  0  0  0  0  0
   48.0875   13.7026   20.0905 C   0  0  0  0  0  0  0  0  0  0  0  0
   46.7114   11.7313   20.3846 C   0  0  0  0  0  0  0  0  0  0  0  0
   47.1986   12.9499   20.8617 C   0  0  0  0  0  0  0  0  0  0  0  0
   49.7573   14.8410   18.4093 H   0  0  0  0  0  0  0  0  0  0  0  0
   49.9401   12.8409   14.3859 H   0  0  0  0  0  0  0  0  0  0  0  0
   48.9514   11.3916   14.5316 H   0  0  0  0  0  0  0  0  0  0  0  0
   53.0916    8.8074   11.9586 H   0  0  0  0  0  0  0  0  0  0  0  0
   51.8259   11.7213   15.5753 H   0  0  0  0  0  0  0  0  0  0  0  0
   50.8740   10.2938   15.8435 H   0  0  0  0  0  0  0  0  0  0  0  0
   53.3711    8.7326    7.4402 H   0  0  0  0  0  0  0  0  0  0  0  0
   52.8561    6.7663   11.2652 H   0  0  0  0  0  0  0  0  0  0  0  0
   50.2437    9.7410   11.3218 H   0  0  0  0  0  0  0  0  0  0  0  0
   50.7045    8.0870   11.6725 H   0  0  0  0  0  0  0  0  0  0  0  0
   52.7721   11.5604   10.9044 H   0  0  0  0  0  0  0  0  0  0  0  0
   53.7965   10.9026   12.1564 H   0  0  0  0  0  0  0  0  0  0  0  0
   51.0812    8.5090   13.9492 H   0  0  0  0  0  0  0  0  0  0  0  0
   49.7030    9.5327   13.5705 H   0  0  0  0  0  0  0  0  0  0  0  0
   50.9237   11.8904   12.3793 H   0  0  0  0  0  0  0  0  0  0  0  0
   52.3623   12.3952   13.2669 H   0  0  0  0  0  0  0  0  0  0  0  0
   46.7335   10.3109   18.7629 H   0  0  0  0  0  0  0  0  0  0  0  0
   53.8214    4.7092   10.3132 H   0  0  0  0  0  0  0  0  0  0  0  0
   54.3265    6.6333    6.5204 H   0  0  0  0  0  0  0  0  0  0  0  0
   48.4590   14.6478   20.4768 H   0  0  0  0  0  0  0  0  0  0  0  0
   46.0203   11.1470   20.9880 H   0  0  0  0  0  0  0  0  0  0  0  0
   46.8849   13.3130   21.8381 H   0  0  0  0  0  0  0  0  0  0  0  0
  2  1  1  0
  3  1  1  0
  4  3  1  0
  5  2  1  0
  6  4  2  0
  7  1  1  0
  8 13  1  0
  9 15  1  0
 10  2  2  0
 11  3  2  0
 12  8  1  0
 13 19  1  0
 14  8  2  0
 15  7  1  0
 16 12  2  0
 17 12  1  0
 18 20  1  0
 19 21  1  0
 20  9  1  0
 21  9  1  0
 22 24  1  0
 23  4  1  0
 24 17  2  0
 25 16  1  0
 26 22  1  0
 27  6  1  0
 28 23  2  0
 29 28  1  0
  5  6  1  0
 18 13  1  0
 29 27  2  0
 25 22  2  0
  5 30  1  0
  7 31  1  0
  7 32  1  0
 13 33  1  0
 15 34  1  0
 15 35  1  0
 16 36  1  0
 17 37  1  0
 18 38  1  0
 18 39  1  0
 19 40  1  0
 19 41  1  0
 20 42  1  0
 20 43  1  0
 21 44  1  0
 21 45  1  0
 23 46  1  0
 24 47  1  0
 25 48  1  0
 27 49  1  0
 28 50  1  0
 29 51  1  0
M  END
> <Uni-Dock RESULT> 
ENERGY=   -3.968  LOWER_BOUND=    0.000  UPPER_BOUND=    0.000
INTER + INTRA:          -3.968
INTER:                  -3.968
INTRA:                   0.000
UNBOUND:                 0.000

$$$$

     RDKit          3D

 51 54  0  0  0  0  0  0  0  0999 V2000
   52.7415    9.8717   15.0431 N   0  0  0  0  0  0  0  0  0  0  0  0
   53.3975   10.8060   14.2588 C   0  0  0  0  0  0  0  0  0  0  0  0
   53.3508    9.1339   16.0564 C   0  0  0  0  0  0  0  0  0  0  0  0
   54.7492    9.4773   16.3777 C   0  0  0  0  0  0  0  0  0  0  0  0
   54.6955   11.0788   14.5840 N   0  0  0  0  0  0  0  0  0  0  0  0
   55.3840   10.4549   15.6201 C   0  0  0  0  0  0  0  0  0  0  0  0
   51.3590    9.5442   14.7034 C   0  0  0  0  0  0  0  0  0  0  0  0
   45.8058    7.0661   12.7182 C   0  0  0  0  0  0  0  0  0  0  0  0
   49.9462    7.9330   13.2823 N   0  0  0  0  0  0  0  0  0  0  0  0
   52.8854   11.3843   13.3016 O   0  0  0  0  0  0  0  0  0  0  0  0
   52.7972    8.2251   16.6712 O   0  0  0  0  0  0  0  0  0  0  0  0
   45.0902    5.7765   12.4676 C   0  0  0  0  0  0  0  0  0  0  0  0
   47.3300    7.0921   12.7560 C   0  0  0  0  0  0  0  0  0  0  0  0
   45.1367    8.0814   12.9108 O   0  0  0  0  0  0  0  0  0  0  0  0
   51.2859    8.4107   13.6574 C   0  0  0  0  0  0  0  0  0  0  0  0
   43.7382    5.8364   12.0902 C   0  0  0  0  0  0  0  0  0  0  0  0
   45.7066    4.5256   12.6117 C   0  0  0  0  0  0  0  0  0  0  0  0
   47.7964    7.0393   14.2121 C   0  0  0  0  0  0  0  0  0  0  0  0
   47.8836    8.3424   12.0425 C   0  0  0  0  0  0  0  0  0  0  0  0
   49.3238    7.1047   14.3200 C   0  0  0  0  0  0  0  0  0  0  0  0
   49.0630    8.9816   12.7814 C   0  0  0  0  0  0  0  0  0  0  0  0
   43.6473    3.4351   11.9853 C   0  0  0  0  0  0  0  0  0  0  0  0
   55.4328    8.8348   17.4148 C   0  0  0  0  0  0  0  0  0  0  0  0
   44.9818    3.3547   12.3667 C   0  0  0  0  0  0  0  0  0  0  0  0
   43.0179    4.6651   11.8463 C   0  0  0  0  0  0  0  0  0  0  0  0
   42.9591    2.3102   11.7532 F   0  0  0  0  0  0  0  0  0  0  0  0
   56.7077   10.8029   15.8886 C   0  0  0  0  0  0  0  0  0  0  0  0
   56.7568    9.1818   17.6875 C   0  0  0  0  0  0  0  0  0  0  0  0
   57.3924   10.1643   16.9255 C   0  0  0  0  0  0  0  0  0  0  0  0
   55.1503   11.7745   14.0069 H   0  0  0  0  0  0  0  0  0  0  0  0
   50.8661   10.4445   14.3191 H   0  0  0  0  0  0  0  0  0  0  0  0
   50.8315    9.2585   15.6197 H   0  0  0  0  0  0  0  0  0  0  0  0
   47.7255    6.2252   12.2149 H   0  0  0  0  0  0  0  0  0  0  0  0
   51.7921    8.7468   12.7428 H   0  0  0  0  0  0  0  0  0  0  0  0
   51.8802    7.5539   14.0018 H   0  0  0  0  0  0  0  0  0  0  0  0
   43.2404    6.7992   11.9838 H   0  0  0  0  0  0  0  0  0  0  0  0
   46.7411    4.4289   12.9265 H   0  0  0  0  0  0  0  0  0  0  0  0
   47.3573    7.8797   14.7672 H   0  0  0  0  0  0  0  0  0  0  0  0
   47.4335    6.1300   14.7058 H   0  0  0  0  0  0  0  0  0  0  0  0
   47.1154    9.1080   11.8846 H   0  0  0  0  0  0  0  0  0  0  0  0
   48.2091    8.0429   11.0369 H   0  0  0  0  0  0  0  0  0  0  0  0
   49.7302    6.0901   14.2290 H   0  0  0  0  0  0  0  0  0  0  0  0
   49.5690    7.4511   15.3303 H   0  0  0  0  0  0  0  0  0  0  0  0
   48.6992    9.6201   13.5964 H   0  0  0  0  0  0  0  0  0  0  0  0
   49.5922    9.6328   12.0749 H   0  0  0  0  0  0  0  0  0  0  0  0
   54.9389    8.0679   18.0077 H   0  0  0  0  0  0  0  0  0  0  0  0
   45.4486    2.3804   12.4759 H   0  0  0  0  0  0  0  0  0  0  0  0
   41.9737    4.7075   11.5526 H   0  0  0  0  0  0  0  0  0  0  0  0
   57.2170   11.5639   15.3036 H   0  0  0  0  0  0  0  0  0  0  0  0
   57.2929    8.6857   18.4934 H   0  0  0  0  0  0  0  0  0  0  0  0
   58.4248   10.4319   17.1401 H   0  0  0  0  0  0  0  0  0  0  0  0
  2  1  1  0
  3  1  1  0
  4  3  1  0
  5  2  1  0
  6  4  2  0
  7  1  1  0
  8 13  1  0
  9 15  1  0
 10  2  2  0
 11  3  2  0
 12  8  1  0
 13 19  1  0
 14  8  2  0
 15  7  1  0
 16 12  2  0
 17 12  1  0
 18 20  1  0
 19 21  1  0
 20  9  1  0
 21  9  1  0
 22 24  1  0
 23  4  1  0
 24 17  2  0
 25 16  1  0
 26 22  1  0
 27  6  1  0
 28 23  2  0
 29 28  1  0
  5  6  1  0
 18 13  1  0
 29 27  2  0
 25 22  2  0
  5 30  1  0
  7 31  1  0
  7 32  1  0
 13 33  1  0
 15 34  1  0
 15 35  1  0
 16 36  1  0
 17 37  1  0
 18 38  1  0
 18 39  1  0
 19 40  1  0
 19 41  1  0
 20 42  1  0
 20 43  1  0
 21 44  1  0
 21 45  1  0
 23 46  1  0
 24 47  1  0
 25 48  1  0
 27 49  1  0
 28 50  1  0
 29 51  1  0
M  END
> <Uni-Dock RESULT> 
ENERGY=   -3.967  LOWER_BOUND=    5.701  UPPER_BOUND=    7.766
INTER + INTRA:          -3.967
INTER:                  -3.967
INTRA:                   0.000
UNBOUND:                 0.000

$$$$

     RDKit          3D

 51 54  0  0  0  0  0  0  0  0999 V2000
   47.2581    6.1044   13.8075 N   0  0  0  0  0  0  0  0  0  0  0  0
   46.7357    7.3144   13.3816 C   0  0  0  0  0  0  0  0  0  0  0  0
   46.6061    4.8799   13.6746 C   0  0  0  0  0  0  0  0  0  0  0  0
   45.3395    4.8816   12.9180 C   0  0  0  0  0  0  0  0  0  0  0  0
   45.5532    7.2674   12.7001 N   0  0  0  0  0  0  0  0  0  0  0  0
   44.8488    6.0941   12.4472 C   0  0  0  0  0  0  0  0  0  0  0  0
   48.5108    6.1275   14.5587 C   0  0  0  0  0  0  0  0  0  0  0  0
   53.2538    6.0487   18.8503 C   0  0  0  0  0  0  0  0  0  0  0  0
   49.4388    6.2817   16.9517 N   0  0  0  0  0  0  0  0  0  0  0  0
   47.2659    8.4050   13.5871 O   0  0  0  0  0  0  0  0  0  0  0  0
   47.0187    3.8270   14.1559 O   0  0  0  0  0  0  0  0  0  0  0  0
   53.6707    5.4703   20.1654 C   0  0  0  0  0  0  0  0  0  0  0  0
   51.7755    6.1021   18.4804 C   0  0  0  0  0  0  0  0  0  0  0  0
   54.1275    6.4521   18.0825 O   0  0  0  0  0  0  0  0  0  0  0  0
   48.2613    6.3151   16.0709 C   0  0  0  0  0  0  0  0  0  0  0  0
   54.9680    5.7506   20.6263 C   0  0  0  0  0  0  0  0  0  0  0  0
   52.8312    4.6540   20.9364 C   0  0  0  0  0  0  0  0  0  0  0  0
   51.4398    4.9095   17.5828 C   0  0  0  0  0  0  0  0  0  0  0  0
   51.4226    7.4336   17.7865 C   0  0  0  0  0  0  0  0  0  0  0  0
   49.9724    4.9289   17.1407 C   0  0  0  0  0  0  0  0  0  0  0  0
   50.4663    7.2581   16.6032 C   0  0  0  0  0  0  0  0  0  0  0  0
   54.5653    4.4360   22.5999 C   0  0  0  0  0  0  0  0  0  0  0  0
   44.6362    3.6965   12.6802 C   0  0  0  0  0  0  0  0  0  0  0  0
   53.2814    4.1397   22.1566 C   0  0  0  0  0  0  0  0  0  0  0  0
   55.4139    5.2353   21.8453 C   0  0  0  0  0  0  0  0  0  0  0  0
   54.9903    3.9395   23.7686 F   0  0  0  0  0  0  0  0  0  0  0  0
   43.6512    6.1382   11.7335 C   0  0  0  0  0  0  0  0  0  0  0  0
   43.4386    3.7366   11.9648 C   0  0  0  0  0  0  0  0  0  0  0  0
   42.9477    4.9555   11.4925 C   0  0  0  0  0  0  0  0  0  0  0  0
   45.1976    8.1613   12.3862 H   0  0  0  0  0  0  0  0  0  0  0  0
   49.1381    6.9407   14.1761 H   0  0  0  0  0  0  0  0  0  0  0  0
   49.0499    5.1931   14.3695 H   0  0  0  0  0  0  0  0  0  0  0  0
   51.1672    6.0557   19.3907 H   0  0  0  0  0  0  0  0  0  0  0  0
   47.7533    7.2765   16.2240 H   0  0  0  0  0  0  0  0  0  0  0  0
   47.5402    5.5641   16.4203 H   0  0  0  0  0  0  0  0  0  0  0  0
   55.6374    6.3742   20.0354 H   0  0  0  0  0  0  0  0  0  0  0  0
   51.8306    4.3889   20.6089 H   0  0  0  0  0  0  0  0  0  0  0  0
   52.0864    4.9271   16.6946 H   0  0  0  0  0  0  0  0  0  0  0  0
   51.6554    3.9634   18.0934 H   0  0  0  0  0  0  0  0  0  0  0  0
   52.3116    7.9721   17.4389 H   0  0  0  0  0  0  0  0  0  0  0  0
   50.9551    8.0912   18.5321 H   0  0  0  0  0  0  0  0  0  0  0  0
   49.3643    4.4315   17.9059 H   0  0  0  0  0  0  0  0  0  0  0  0
   49.8929    4.3205   16.2328 H   0  0  0  0  0  0  0  0  0  0  0  0
   51.0221    6.9506   15.7084 H   0  0  0  0  0  0  0  0  0  0  0  0
   50.0176    8.2346   16.3830 H   0  0  0  0  0  0  0  0  0  0  0  0
   45.0171    2.7467   13.0496 H   0  0  0  0  0  0  0  0  0  0  0  0
   52.6402    3.5058   22.7617 H   0  0  0  0  0  0  0  0  0  0  0  0
   56.4148    5.4514   22.2055 H   0  0  0  0  0  0  0  0  0  0  0  0
   43.2548    7.0788   11.3609 H   0  0  0  0  0  0  0  0  0  0  0  0
   42.8878    2.8176   11.7766 H   0  0  0  0  0  0  0  0  0  0  0  0
   42.0133    4.9834   10.9359 H   0  0  0  0  0  0  0  0  0  0  0  0
  2  1  1  0
  3  1  1  0
  4  3  1  0
  5  2  1  0
  6  4  2  0
  7  1  1  0
  8 13  1  0
  9 15  1  0
 10  2  2  0
 11  3  2  0
 12  8  1  0
 13 19  1  0
 14  8  2  0
 15  7  1  0
 16 12  2  0
 17 12  1  0
 18 20  1  0
 19 21  1  0
 20  9  1  0
 21  9  1  0
 22 24  1  0
 23  4  1  0
 24 17  2  0
 25 16  1  0
 26 22  1  0
 27  6  1  0
 28 23  2  0
 29 28  1  0
  5  6  1  0
 18 13  1  0
 29 27  2  0
 25 22  2  0
  5 30  1  0
  7 31  1  0
  7 32  1  0
 13 33  1  0
 15 34  1  0
 15 35  1  0
 16 36  1  0
 17 37  1  0
 18 38  1  0
 18 39  1  0
 19 40  1  0
 19 41  1  0
 20 42  1  0
 20 43  1  0
 21 44  1  0
 21 45  1  0
 23 46  1  0
 24 47  1  0
 25 48  1  0
 27 49  1  0
 28 50  1  0
 29 51  1  0
M  END
> <Uni-Dock RESULT> 
ENERGY=   -3.941  LOWER_BOUND=    7.666  UPPER_BOUND=    9.944
INTER + INTRA:          -3.941
INTER:                  -3.941
INTRA:                   0.000
UNBOUND:                 0.000

$$$$

     RDKit          3D

 51 54  0  0  0  0  0  0  0  0999 V2000
   46.2422   12.6318    6.9556 N   0  0  0  0  0  0  0  0  0  0  0  0
   46.0941   12.0108    5.7264 C   0  0  0  0  0  0  0  0  0  0  0  0
   47.4662   12.8222    7.5942 C   0  0  0  0  0  0  0  0  0  0  0  0
   48.6750   12.4435    6.8376 C   0  0  0  0  0  0  0  0  0  0  0  0
   47.2409   11.6637    5.0711 N   0  0  0  0  0  0  0  0  0  0  0  0
   48.5193   11.8697    5.5810 C   0  0  0  0  0  0  0  0  0  0  0  0
   45.0315   12.9935    7.6886 C   0  0  0  0  0  0  0  0  0  0  0  0
   39.9942   13.5582   11.5908 C   0  0  0  0  0  0  0  0  0  0  0  0
   43.3609   12.0864    9.4200 N   0  0  0  0  0  0  0  0  0  0  0  0
   45.0077   11.7551    5.2095 O   0  0  0  0  0  0  0  0  0  0  0  0
   47.5837   13.2674    8.7336 O   0  0  0  0  0  0  0  0  0  0  0  0
   39.5221   13.2908   12.9849 C   0  0  0  0  0  0  0  0  0  0  0  0
   41.1813   12.7821   11.0307 C   0  0  0  0  0  0  0  0  0  0  0  0
   39.4181   14.4234   10.9313 O   0  0  0  0  0  0  0  0  0  0  0  0
   44.5336   11.8280    8.5707 C   0  0  0  0  0  0  0  0  0  0  0  0
   38.2421   13.7447   13.3450 C   0  0  0  0  0  0  0  0  0  0  0  0
   40.3076   12.6284   13.9387 C   0  0  0  0  0  0  0  0  0  0  0  0
   42.4461   13.6315   11.1696 C   0  0  0  0  0  0  0  0  0  0  0  0
   40.9418   12.3822    9.5604 C   0  0  0  0  0  0  0  0  0  0  0  0
   43.6720   12.9215   10.5846 C   0  0  0  0  0  0  0  0  0  0  0  0
   42.1870   12.5458    8.6841 C   0  0  0  0  0  0  0  0  0  0  0  0
   38.5380   12.8611   15.5625 C   0  0  0  0  0  0  0  0  0  0  0  0
   49.9536   12.6462    7.3665 C   0  0  0  0  0  0  0  0  0  0  0  0
   39.8107   12.4125   15.2281 C   0  0  0  0  0  0  0  0  0  0  0  0
   37.7494   13.5270   14.6334 C   0  0  0  0  0  0  0  0  0  0  0  0
   38.0689   12.6518   16.7990 F   0  0  0  0  0  0  0  0  0  0  0  0
   49.6373   11.4919    4.8375 C   0  0  0  0  0  0  0  0  0  0  0  0
   51.0745   12.2712    6.6245 C   0  0  0  0  0  0  0  0  0  0  0  0
   50.9159   11.6953    5.3623 C   0  0  0  0  0  0  0  0  0  0  0  0
   47.1091   11.2246    4.1690 H   0  0  0  0  0  0  0  0  0  0  0  0
   44.2554   13.2813    6.9704 H   0  0  0  0  0  0  0  0  0  0  0  0
   45.2433   13.8771    8.3001 H   0  0  0  0  0  0  0  0  0  0  0  0
   41.3063   11.8481   11.5901 H   0  0  0  0  0  0  0  0  0  0  0  0
   44.2976   10.9749    7.9208 H   0  0  0  0  0  0  0  0  0  0  0  0
   45.3552   11.4709    9.2059 H   0  0  0  0  0  0  0  0  0  0  0  0
   37.6224   14.2704   12.6200 H   0  0  0  0  0  0  0  0  0  0  0  0
   41.3121   12.2830   13.7145 H   0  0  0  0  0  0  0  0  0  0  0  0
   42.3012   14.5901   10.6525 H   0  0  0  0  0  0  0  0  0  0  0  0
   42.6353   13.8818   12.2202 H   0  0  0  0  0  0  0  0  0  0  0  0
   40.1183   12.9430    9.1037 H   0  0  0  0  0  0  0  0  0  0  0  0
   40.6251   11.3304    9.5423 H   0  0  0  0  0  0  0  0  0  0  0  0
   44.1092   12.2748   11.3549 H   0  0  0  0  0  0  0  0  0  0  0  0
   44.4208   13.6886   10.3574 H   0  0  0  0  0  0  0  0  0  0  0  0
   42.2963   13.5920    8.3713 H   0  0  0  0  0  0  0  0  0  0  0  0
   42.0405   11.9520    7.7735 H   0  0  0  0  0  0  0  0  0  0  0  0
   50.0778   13.0930    8.3506 H   0  0  0  0  0  0  0  0  0  0  0  0
   40.4105   11.9013   15.9753 H   0  0  0  0  0  0  0  0  0  0  0  0
   36.7603   13.8745   14.9146 H   0  0  0  0  0  0  0  0  0  0  0  0
   49.5308   11.0408    3.8547 H   0  0  0  0  0  0  0  0  0  0  0  0
   52.0714   12.4272    7.0309 H   0  0  0  0  0  0  0  0  0  0  0  0
   51.7918   11.4034    4.7869 H   0  0  0  0  0  0  0  0  0  0  0  0
  2  1  1  0
  3  1  1  0
  4  3  1  0
  5  2  1  0
  6  4  2  0
  7  1  1  0
  8 13  1  0
  9 15  1  0
 10  2  2  0
 11  3  2  0
 12  8  1  0
 13 19  1  0
 14  8  2  0
 15  7  1  0
 16 12  2  0
 17 12  1  0
 18 20  1  0
 19 21  1  0
 20  9  1  0
 21  9  1  0
 22 24  1  0
 23  4  1  0
 24 17  2  0
 25 16  1  0
 26 22  1  0
 27  6  1  0
 28 23  2  0
 29 28  1  0
  5  6  1  0
 18 13  1  0
 29 27  2  0
 25 22  2  0
  5 30  1  0
  7 31  1  0
  7 32  1  0
 13 33  1  0
 15 34  1  0
 15 35  1  0
 16 36  1  0
 17 37  1  0
 18 38  1  0
 18 39  1  0
 19 40  1  0
 19 41  1  0
 20 42  1  0
 20 43  1  0
 21 44  1  0
 21 45  1  0
 23 46  1  0
 24 47  1  0
 25 48  1  0
 27 49  1  0
 28 50  1  0
 29 51  1  0
M  END
> <Uni-Dock RESULT> 
ENERGY=   -3.924  LOWER_BOUND=    9.148  UPPER_BOUND=   13.402
INTER + INTRA:          -3.924
INTER:                  -3.924
INTRA:                   0.000
UNBOUND:                 0.000

$$$$

     RDKit          3D

 51 54  0  0  0  0  0  0  0  0999 V2000
   46.4616    7.2634   13.2237 N   0  0  0  0  0  0  0  0  0  0  0  0
   47.2784    6.2051   13.5862 C   0  0  0  0  0  0  0  0  0  0  0  0
   45.2486    7.1219   12.5523 C   0  0  0  0  0  0  0  0  0  0  0  0
   44.7663    5.7442   12.3373 C   0  0  0  0  0  0  0  0  0  0  0  0
   46.7966    4.9489   13.3526 N   0  0  0  0  0  0  0  0  0  0  0  0
   45.5682    4.6874   12.7528 C   0  0  0  0  0  0  0  0  0  0  0  0
   46.9618    8.6185   13.4417 C   0  0  0  0  0  0  0  0  0  0  0  0
   49.3700   14.5378   13.1551 C   0  0  0  0  0  0  0  0  0  0  0  0
   48.2921   10.4984   12.2982 N   0  0  0  0  0  0  0  0  0  0  0  0
   48.3931    6.3354   14.0896 O   0  0  0  0  0  0  0  0  0  0  0  0
   44.5839    8.0655   12.1301 O   0  0  0  0  0  0  0  0  0  0  0  0
   49.5055   15.7350   12.2684 C   0  0  0  0  0  0  0  0  0  0  0  0
   49.0868   13.1700   12.5435 C   0  0  0  0  0  0  0  0  0  0  0  0
   49.4710   14.6937   14.3721 O   0  0  0  0  0  0  0  0  0  0  0  0
   47.7908    9.1169   12.2381 C   0  0  0  0  0  0  0  0  0  0  0  0
   50.1051   16.8870   12.8046 C   0  0  0  0  0  0  0  0  0  0  0  0
   49.0452   15.7553   10.9443 C   0  0  0  0  0  0  0  0  0  0  0  0
   47.5873   12.8807   12.6349 C   0  0  0  0  0  0  0  0  0  0  0  0
   49.9070   12.0666   13.2426 C   0  0  0  0  0  0  0  0  0  0  0  0
   47.2423   11.4972   12.0727 C   0  0  0  0  0  0  0  0  0  0  0  0
   49.1073   10.7814   13.4754 C   0  0  0  0  0  0  0  0  0  0  0  0
   49.8017   18.0348   10.7127 C   0  0  0  0  0  0  0  0  0  0  0  0
   43.5346    5.4954   11.7236 C   0  0  0  0  0  0  0  0  0  0  0  0
   49.1975   16.9080   10.1669 C   0  0  0  0  0  0  0  0  0  0  0  0
   50.2555   18.0359   12.0252 C   0  0  0  0  0  0  0  0  0  0  0  0
   49.9435   19.1353    9.9632 F   0  0  0  0  0  0  0  0  0  0  0  0
   45.1505    3.3705   12.5613 C   0  0  0  0  0  0  0  0  0  0  0  0
   43.1125    4.1791   11.5321 C   0  0  0  0  0  0  0  0  0  0  0  0
   43.9194    3.1190   11.9505 C   0  0  0  0  0  0  0  0  0  0  0  0
   47.4036    4.1913   13.6382 H   0  0  0  0  0  0  0  0  0  0  0  0
   47.5736    8.6281   14.3509 H   0  0  0  0  0  0  0  0  0  0  0  0
   46.1093    9.2813   13.6241 H   0  0  0  0  0  0  0  0  0  0  0  0
   49.3951   13.1669   11.4920 H   0  0  0  0  0  0  0  0  0  0  0  0
   48.6541    8.4506   12.1092 H   0  0  0  0  0  0  0  0  0  0  0  0
   47.2086    8.9946   11.3150 H   0  0  0  0  0  0  0  0  0  0  0  0
   50.4589   16.8925   13.8346 H   0  0  0  0  0  0  0  0  0  0  0  0
   48.5523   14.8985   10.4953 H   0  0  0  0  0  0  0  0  0  0  0  0
   47.2678   12.9353   13.6848 H   0  0  0  0  0  0  0  0  0  0  0  0
   47.0087   13.6459   12.1040 H   0  0  0  0  0  0  0  0  0  0  0  0
   50.3208   12.3978   14.2020 H   0  0  0  0  0  0  0  0  0  0  0  0
   50.7771   11.8393   12.6116 H   0  0  0  0  0  0  0  0  0  0  0  0
   47.0862   11.5824   10.9905 H   0  0  0  0  0  0  0  0  0  0  0  0
   46.2819   11.1950   12.5051 H   0  0  0  0  0  0  0  0  0  0  0  0
   48.4878   10.8777   14.3761 H   0  0  0  0  0  0  0  0  0  0  0  0
   49.8198    9.9683   13.6610 H   0  0  0  0  0  0  0  0  0  0  0  0
   42.9063    6.3208   11.3956 H   0  0  0  0  0  0  0  0  0  0  0  0
   48.8441   16.9354    9.1405 H   0  0  0  0  0  0  0  0  0  0  0  0
   50.7200   18.9271   12.4354 H   0  0  0  0  0  0  0  0  0  0  0  0
   45.7675    2.5346   12.8794 H   0  0  0  0  0  0  0  0  0  0  0  0
   42.1551    3.9800   11.0558 H   0  0  0  0  0  0  0  0  0  0  0  0
   43.5878    2.0941   11.7990 H   0  0  0  0  0  0  0  0  0  0  0  0
  2  1  1  0
  3  1  1  0
  4  3  1  0
  5  2  1  0
  6  4  2  0
  7  1  1  0
  8 13  1  0
  9 15  1  0
 10  2  2  0
 11  3  2  0
 12  8  1  0
 13 19  1  0
 14  8  2  0
 15  7  1  0
 16 12  2  0
 17 12  1  0
 18 20  1  0
 19 21  1  0
 20  9  1  0
 21  9  1  0
 22 24  1  0
 23  4  1  0
 24 17  2  0
 25 16  1  0
 26 22  1  0
 27  6  1  0
 28 23  2  0
 29 28  1  0
  5  6  1  0
 18 13  1  0
 29 27  2  0
 25 22  2  0
  5 30  1  0
  7 31  1  0
  7 32  1  0
 13 33  1  0
 15 34  1  0
 15 35  1  0
 16 36  1  0
 17 37  1  0
 18 38  1  0
 18 39  1  0
 19 40  1  0
 19 41  1  0
 20 42  1  0
 20 43  1  0
 21 44  1  0
 21 45  1  0
 23 46  1  0
 24 47  1  0
 25 48  1  0
 27 49  1  0
 28 50  1  0
 29 51  1  0
M  END
> <Uni-Dock RESULT> 
ENERGY=   -3.875  LOWER_BOUND=    6.360  UPPER_BOUND=    9.251
INTER + INTRA:          -3.875
INTER:                  -3.875
INTRA:                   0.000
UNBOUND:                 0.000

$$$$

     RDKit          3D

 51 54  0  0  0  0  0  0  0  0999 V2000
   47.0728    7.0165   13.2435 N   0  0  0  0  0  0  0  0  0  0  0  0
   46.1191    7.9768   12.9490 C   0  0  0  0  0  0  0  0  0  0  0  0
   46.8293    5.6443   13.2396 C   0  0  0  0  0  0  0  0  0  0  0  0
   45.5015    5.2076   12.7674 C   0  0  0  0  0  0  0  0  0  0  0  0
   44.8999    7.5245   12.5320 N   0  0  0  0  0  0  0  0  0  0  0  0
   44.5673    6.1776   12.4223 C   0  0  0  0  0  0  0  0  0  0  0  0
   48.3787    7.4721   13.7137 C   0  0  0  0  0  0  0  0  0  0  0  0
   53.6700    9.1232   16.9068 C   0  0  0  0  0  0  0  0  0  0  0  0
   49.6758    8.0461   15.8583 N   0  0  0  0  0  0  0  0  0  0  0  0
   46.3068    9.1883   13.0484 O   0  0  0  0  0  0  0  0  0  0  0  0
   47.6427    4.8021   13.6130 O   0  0  0  0  0  0  0  0  0  0  0  0
   54.5065    8.7807   18.0988 C   0  0  0  0  0  0  0  0  0  0  0  0
   52.2082    8.6920   16.8577 C   0  0  0  0  0  0  0  0  0  0  0  0
   54.1958    9.7334   15.9759 O   0  0  0  0  0  0  0  0  0  0  0  0
   48.3952    7.6600   15.2462 C   0  0  0  0  0  0  0  0  0  0  0  0
   55.7134    9.4773   18.2782 C   0  0  0  0  0  0  0  0  0  0  0  0
   54.1437    7.7897   19.0218 C   0  0  0  0  0  0  0  0  0  0  0  0
   52.0925    7.4042   16.0399 C   0  0  0  0  0  0  0  0  0  0  0  0
   51.3187    9.8048   16.2666 C   0  0  0  0  0  0  0  0  0  0  0  0
   50.6369    6.9401   15.9176 C   0  0  0  0  0  0  0  0  0  0  0  0
   50.2479    9.2720   15.3102 C   0  0  0  0  0  0  0  0  0  0  0  0
   56.1574    8.2194   20.2797 C   0  0  0  0  0  0  0  0  0  0  0  0
   45.1767    3.8507   12.6721 C   0  0  0  0  0  0  0  0  0  0  0  0
   54.9715    7.5128   20.1146 C   0  0  0  0  0  0  0  0  0  0  0  0
   56.5373    9.1980   19.3707 C   0  0  0  0  0  0  0  0  0  0  0  0
   56.9457    7.9486   21.3276 F   0  0  0  0  0  0  0  0  0  0  0  0
   43.2988    5.8050   11.9778 C   0  0  0  0  0  0  0  0  0  0  0  0
   43.9091    3.4743   12.2260 C   0  0  0  0  0  0  0  0  0  0  0  0
   42.9724    4.4502   11.8795 C   0  0  0  0  0  0  0  0  0  0  0  0
   44.2236    8.2434   12.3088 H   0  0  0  0  0  0  0  0  0  0  0  0
   48.6247    8.4165   13.2151 H   0  0  0  0  0  0  0  0  0  0  0  0
   49.1356    6.7427   13.4061 H   0  0  0  0  0  0  0  0  0  0  0  0
   51.8442    8.5114   17.8755 H   0  0  0  0  0  0  0  0  0  0  0  0
   47.6512    8.4226   15.5122 H   0  0  0  0  0  0  0  0  0  0  0  0
   48.0359    6.7434   15.7328 H   0  0  0  0  0  0  0  0  0  0  0  0
   56.0161   10.2429   17.5653 H   0  0  0  0  0  0  0  0  0  0  0  0
   53.2340    7.2076   18.9103 H   0  0  0  0  0  0  0  0  0  0  0  0
   52.5056    7.5707   15.0355 H   0  0  0  0  0  0  0  0  0  0  0  0
   52.6955    6.6036   16.4845 H   0  0  0  0  0  0  0  0  0  0  0  0
   51.9013   10.5723   15.7444 H   0  0  0  0  0  0  0  0  0  0  0  0
   50.8288   10.3262   17.1003 H   0  0  0  0  0  0  0  0  0  0  0  0
   50.3863    6.3233   16.7891 H   0  0  0  0  0  0  0  0  0  0  0  0
   50.5715    6.2856   15.0412 H   0  0  0  0  0  0  0  0  0  0  0  0
   50.6784    9.1015   14.3153 H   0  0  0  0  0  0  0  0  0  0  0  0
   49.4783   10.0456   15.1989 H   0  0  0  0  0  0  0  0  0  0  0  0
   45.9054    3.0899   12.9437 H   0  0  0  0  0  0  0  0  0  0  0  0
   54.7010    6.7470   20.8353 H   0  0  0  0  0  0  0  0  0  0  0  0
   57.4695    9.7355   19.5136 H   0  0  0  0  0  0  0  0  0  0  0  0
   42.5580    6.5522   11.7063 H   0  0  0  0  0  0  0  0  0  0  0  0
   43.6515    2.4203   12.1494 H   0  0  0  0  0  0  0  0  0  0  0  0
   41.9848    4.1534   11.5329 H   0  0  0  0  0  0  0  0  0  0  0  0
  2  1  1  0
  3  1  1  0
  4  3  1  0
  5  2  1  0
  6  4  2  0
  7  1  1  0
  8 13  1  0
  9 15  1  0
 10  2  2  0
 11  3  2  0
 12  8  1  0
 13 19  1  0
 14  8  2  0
 15  7  1  0
 16 12  2  0
 17 12  1  0
 18 20  1  0
 19 21  1  0
 20  9  1  0
 21  9  1  0
 22 24  1  0
 23  4  1  0
 24 17  2  0
 25 16  1  0
 26 22  1  0
 27  6  1  0
 28 23  2  0
 29 28  1  0
  5  6  1  0
 18 13  1  0
 29 27  2  0
 25 22  2  0
  5 30  1  0
  7 31  1  0
  7 32  1  0
 13 33  1  0
 15 34  1  0
 15 35  1  0
 16 36  1  0
 17 37  1  0
 18 38  1  0
 18 39  1  0
 19 40  1  0
 19 41  1  0
 20 42  1  0
 20 43  1  0
 21 44  1  0
 21 45  1  0
 23 46  1  0
 24 47  1  0
 25 48  1  0
 27 49  1  0
 28 50  1  0
 29 51  1  0
M  END
> <Uni-Dock RESULT> 
ENERGY=   -3.768  LOWER_BOUND=    6.387  UPPER_BOUND=    8.798
INTER + INTRA:          -3.768
INTER:                  -3.768
INTRA:                   0.000
UNBOUND:                 0.000

$$$$

     RDKit          3D

 51 54  0  0  0  0  0  0  0  0999 V2000
   53.6737    9.9655   12.7660 N   0  0  0  0  0  0  0  0  0  0  0  0
   54.3539   10.3035   13.9242 C   0  0  0  0  0  0  0  0  0  0  0  0
   53.8721   10.5836   11.5328 C   0  0  0  0  0  0  0  0  0  0  0  0
   54.9677   11.5686   11.4533 C   0  0  0  0  0  0  0  0  0  0  0  0
   55.3484   11.2318   13.8042 N   0  0  0  0  0  0  0  0  0  0  0  0
   55.6815   11.8628   12.6094 C   0  0  0  0  0  0  0  0  0  0  0  0
   52.5898    8.9916   12.8697 C   0  0  0  0  0  0  0  0  0  0  0  0
   47.0953    5.7376   13.2465 C   0  0  0  0  0  0  0  0  0  0  0  0
   50.0568    8.8104   13.2728 N   0  0  0  0  0  0  0  0  0  0  0  0
   54.1094    9.8270   15.0315 O   0  0  0  0  0  0  0  0  0  0  0  0
   53.1875   10.3625   10.5364 O   0  0  0  0  0  0  0  0  0  0  0  0
   45.6650    5.7459   12.8083 C   0  0  0  0  0  0  0  0  0  0  0  0
   47.8919    7.0378   13.2578 C   0  0  0  0  0  0  0  0  0  0  0  0
   47.6043    4.6645   13.5703 O   0  0  0  0  0  0  0  0  0  0  0  0
   51.2469    9.6726   13.2122 C   0  0  0  0  0  0  0  0  0  0  0  0
   44.8690    4.6360   13.1378 C   0  0  0  0  0  0  0  0  0  0  0  0
   45.1017    6.7991   12.0742 C   0  0  0  0  0  0  0  0  0  0  0  0
   48.7253    7.1264   11.9780 C   0  0  0  0  0  0  0  0  0  0  0  0
   48.7882    7.1310   14.5096 C   0  0  0  0  0  0  0  0  0  0  0  0
   49.5839    8.3957   11.9481 C   0  0  0  0  0  0  0  0  0  0  0  0
   50.1789    7.6983   14.2103 C   0  0  0  0  0  0  0  0  0  0  0  0
   42.9843    5.6428   12.0335 C   0  0  0  0  0  0  0  0  0  0  0  0
   55.2850   12.2034   10.2483 C   0  0  0  0  0  0  0  0  0  0  0  0
   43.7579    6.7456   11.6899 C   0  0  0  0  0  0  0  0  0  0  0  0
   43.5276    4.5863   12.7524 C   0  0  0  0  0  0  0  0  0  0  0  0
   41.6988    5.5976   11.6616 F   0  0  0  0  0  0  0  0  0  0  0  0
   56.7200   12.7934   12.5766 C   0  0  0  0  0  0  0  0  0  0  0  0
   56.3247   13.1336   10.2113 C   0  0  0  0  0  0  0  0  0  0  0  0
   57.0406   13.4274   11.3737 C   0  0  0  0  0  0  0  0  0  0  0  0
   55.8411   11.4527   14.6600 H   0  0  0  0  0  0  0  0  0  0  0  0
   52.8472    8.2561   13.6404 H   0  0  0  0  0  0  0  0  0  0  0  0
   52.5160    8.4476   11.9220 H   0  0  0  0  0  0  0  0  0  0  0  0
   47.2040    7.8896   13.3044 H   0  0  0  0  0  0  0  0  0  0  0  0
   51.3484   10.1755   14.1830 H   0  0  0  0  0  0  0  0  0  0  0  0
   51.0552   10.4859   12.4997 H   0  0  0  0  0  0  0  0  0  0  0  0
   45.2929    3.8040   13.6984 H   0  0  0  0  0  0  0  0  0  0  0  0
   45.6841    7.6649   11.7742 H   0  0  0  0  0  0  0  0  0  0  0  0
   49.3779    6.2454   11.9051 H   0  0  0  0  0  0  0  0  0  0  0  0
   48.0823    7.0989   11.0903 H   0  0  0  0  0  0  0  0  0  0  0  0
   48.9072    6.1639   15.0113 H   0  0  0  0  0  0  0  0  0  0  0  0
   48.2849    7.7795   15.2397 H   0  0  0  0  0  0  0  0  0  0  0  0
   48.9890    9.2172   11.5311 H   0  0  0  0  0  0  0  0  0  0  0  0
   50.4091    8.2199   11.2488 H   0  0  0  0  0  0  0  0  0  0  0  0
   50.8325    6.9114   13.8132 H   0  0  0  0  0  0  0  0  0  0  0  0
   50.6187    8.0335   15.1577 H   0  0  0  0  0  0  0  0  0  0  0  0
   54.7264   11.9763    9.3427 H   0  0  0  0  0  0  0  0  0  0  0  0
   43.3112    7.5552   11.1205 H   0  0  0  0  0  0  0  0  0  0  0  0
   42.9091    3.7313   13.0069 H   0  0  0  0  0  0  0  0  0  0  0  0
   57.2853   13.0345   13.4727 H   0  0  0  0  0  0  0  0  0  0  0  0
   56.5760   13.6298    9.2766 H   0  0  0  0  0  0  0  0  0  0  0  0
   57.8500   14.1536   11.3416 H   0  0  0  0  0  0  0  0  0  0  0  0
  2  1  1  0
  3  1  1  0
  4  3  1  0
  5  2  1  0
  6  4  2  0
  7  1  1  0
  8 13  1  0
  9 15  1  0
 10  2  2  0
 11  3  2  0
 12  8  1  0
 13 19  1  0
 14  8  2  0
 15  7  1  0
 16 12  2  0
 17 12  1  0
 18 20  1  0
 19 21  1  0
 20  9  1  0
 21  9  1  0
 22 24  1  0
 23  4  1  0
 24 17  2  0
 25 16  1  0
 26 22  1  0
 27  6  1  0
 28 23  2  0
 29 28  1  0
  5  6  1  0
 18 13  1  0
 29 27  2  0
 25 22  2  0
  5 30  1  0
  7 31  1  0
  7 32  1  0
 13 33  1  0
 15 34  1  0
 15 35  1  0
 16 36  1  0
 17 37  1  0
 18 38  1  0
 18 39  1  0
 19 40  1  0
 19 41  1  0
 20 42  1  0
 20 43  1  0
 21 44  1  0
 21 45  1  0
 23 46  1  0
 24 47  1  0
 25 48  1  0
 27 49  1  0
 28 50  1  0
 29 51  1  0
M  END
> <Uni-Dock RESULT> 
ENERGY=   -3.767  LOWER_BOUND=    5.577  UPPER_BOUND=    8.746
INTER + INTRA:          -3.767
INTER:                  -3.767
INTRA:                   0.000
UNBOUND:                 0.000

$$$$

     RDKit          3D

 51 54  0  0  0  0  0  0  0  0999 V2000
   49.3969   10.4692   16.5949 N   0  0  0  0  0  0  0  0  0  0  0  0
   48.1887    9.9912   17.0750 C   0  0  0  0  0  0  0  0  0  0  0  0
   49.9665   11.6822   16.9773 C   0  0  0  0  0  0  0  0  0  0  0  0
   49.2841   12.4252   18.0540 C   0  0  0  0  0  0  0  0  0  0  0  0
   47.5864   10.7214   18.0593 N   0  0  0  0  0  0  0  0  0  0  0  0
   48.0994   11.9108   18.5682 C   0  0  0  0  0  0  0  0  0  0  0  0
   50.0519    9.7197   15.5258 C   0  0  0  0  0  0  0  0  0  0  0  0
   52.4756    7.3520   10.0999 C   0  0  0  0  0  0  0  0  0  0  0  0
   50.1943    9.5436   12.9645 N   0  0  0  0  0  0  0  0  0  0  0  0
   47.6392    8.9701   16.6648 O   0  0  0  0  0  0  0  0  0  0  0  0
   50.9776   12.1572   16.4650 O   0  0  0  0  0  0  0  0  0  0  0  0
   53.0128    7.7384    8.7582 C   0  0  0  0  0  0  0  0  0  0  0  0
   51.5732    8.3169   10.8614 C   0  0  0  0  0  0  0  0  0  0  0  0
   52.7971    6.2603   10.5693 O   0  0  0  0  0  0  0  0  0  0  0  0
   49.5581   10.1695   14.1336 C   0  0  0  0  0  0  0  0  0  0  0  0
   53.5324    6.7217    7.9395 C   0  0  0  0  0  0  0  0  0  0  0  0
   53.0332    9.0636    8.3013 C   0  0  0  0  0  0  0  0  0  0  0  0
   52.4108    9.0828   11.8873 C   0  0  0  0  0  0  0  0  0  0  0  0
   50.4092    7.5700   11.5440 C   0  0  0  0  0  0  0  0  0  0  0  0
   51.5509   10.0426   12.7171 C   0  0  0  0  0  0  0  0  0  0  0  0
   50.1104    8.0864   12.9545 C   0  0  0  0  0  0  0  0  0  0  0  0
   54.0545    8.3401    6.2383 C   0  0  0  0  0  0  0  0  0  0  0  0
   49.8051   13.6250   18.5488 C   0  0  0  0  0  0  0  0  0  0  0  0
   53.5532    9.3613    7.0375 C   0  0  0  0  0  0  0  0  0  0  0  0
   54.0507    7.0229    6.6781 C   0  0  0  0  0  0  0  0  0  0  0  0
   54.5517    8.6322    5.0299 F   0  0  0  0  0  0  0  0  0  0  0  0
   47.4210   12.5872   19.5820 C   0  0  0  0  0  0  0  0  0  0  0  0
   49.1300   14.3034   19.5645 C   0  0  0  0  0  0  0  0  0  0  0  0
   47.9403   13.7848   20.0798 C   0  0  0  0  0  0  0  0  0  0  0  0
   46.7124   10.3462   18.4048 H   0  0  0  0  0  0  0  0  0  0  0  0
   49.8536    8.6514   15.6694 H   0  0  0  0  0  0  0  0  0  0  0  0
   51.1348    9.8575   15.6142 H   0  0  0  0  0  0  0  0  0  0  0  0
   51.1186    9.0256   10.1600 H   0  0  0  0  0  0  0  0  0  0  0  0
   48.4779    9.9828   14.0695 H   0  0  0  0  0  0  0  0  0  0  0  0
   49.6546   11.2597   14.0441 H   0  0  0  0  0  0  0  0  0  0  0  0
   53.5343    5.6881    8.2827 H   0  0  0  0  0  0  0  0  0  0  0  0
   52.6669    9.8854    8.9088 H   0  0  0  0  0  0  0  0  0  0  0  0
   52.9086    8.3695   12.5585 H   0  0  0  0  0  0  0  0  0  0  0  0
   53.2140    9.6440   11.3952 H   0  0  0  0  0  0  0  0  0  0  0  0
   50.5810    6.4888   11.5982 H   0  0  0  0  0  0  0  0  0  0  0  0
   49.5142    7.6930   10.9190 H   0  0  0  0  0  0  0  0  0  0  0  0
   51.4660   10.9963   12.1822 H   0  0  0  0  0  0  0  0  0  0  0  0
   52.0924   10.2517   13.6465 H   0  0  0  0  0  0  0  0  0  0  0  0
   50.8063    7.6415   13.6769 H   0  0  0  0  0  0  0  0  0  0  0  0
   49.1030    7.7519   13.2310 H   0  0  0  0  0  0  0  0  0  0  0  0
   50.7309   14.0306   18.1465 H   0  0  0  0  0  0  0  0  0  0  0  0
   53.5749   10.3842    6.6735 H   0  0  0  0  0  0  0  0  0  0  0  0
   54.4512    6.2398    6.0420 H   0  0  0  0  0  0  0  0  0  0  0  0
   46.4932   12.1979   19.9923 H   0  0  0  0  0  0  0  0  0  0  0  0
   49.5312   15.2367   19.9534 H   0  0  0  0  0  0  0  0  0  0  0  0
   47.4162   14.3166   20.8710 H   0  0  0  0  0  0  0  0  0  0  0  0
  2  1  1  0
  3  1  1  0
  4  3  1  0
  5  2  1  0
  6  4  2  0
  7  1  1  0
  8 13  1  0
  9 15  1  0
 10  2  2  0
 11  3  2  0
 12  8  1  0
 13 19  1  0
 14  8  2  0
 15  7  1  0
 16 12  2  0
 17 12  1  0
 18 20  1  0
 19 21  1  0
 20  9  1  0
 21  9  1  0
 22 24  1  0
 23  4  1  0
 24 17  2  0
 25 16  1  0
 26 22  1  0
 27  6  1  0
 28 23  2  0
 29 28  1  0
  5  6  1  0
 18 13  1  0
 29 27  2  0
 25 22  2  0
  5 30  1  0
  7 31  1  0
  7 32  1  0
 13 33  1  0
 15 34  1  0
 15 35  1  0
 16 36  1  0
 17 37  1  0
 18 38  1  0
 18 39  1  0
 19 40  1  0
 19 41  1  0
 20 42  1  0
 20 43  1  0
 21 44  1  0
 21 45  1  0
 23 46  1  0
 24 47  1  0
 25 48  1  0
 27 49  1  0
 28 50  1  0
 29 51  1  0
M  END
> <Uni-Dock RESULT> 
ENERGY=   -3.764  LOWER_BOUND=    1.956  UPPER_BOUND=    2.994
INTER + INTRA:          -3.764
INTER:                  -3.764
INTRA:                   0.000
UNBOUND:                 0.000

$$$$

     RDKit          3D

 51 54  0  0  0  0  0  0  0  0999 V2000
   46.6800    7.5576   12.9630 N   0  0  0  0  0  0  0  0  0  0  0  0
   45.5210    8.2442   12.6413 C   0  0  0  0  0  0  0  0  0  0  0  0
   46.7610    6.1716   13.0841 C   0  0  0  0  0  0  0  0  0  0  0  0
   45.5558    5.4025   12.7194 C   0  0  0  0  0  0  0  0  0  0  0  0
   44.4269    7.4898   12.3271 N   0  0  0  0  0  0  0  0  0  0  0  0
   44.4119    6.0983   12.3455 C   0  0  0  0  0  0  0  0  0  0  0  0
   47.8594    8.3399   13.3252 C   0  0  0  0  0  0  0  0  0  0  0  0
   52.7244   11.4388   16.0909 C   0  0  0  0  0  0  0  0  0  0  0  0
   49.0566    9.3885   15.3448 N   0  0  0  0  0  0  0  0  0  0  0  0
   45.4262    9.4705   12.6312 O   0  0  0  0  0  0  0  0  0  0  0  0
   47.7589    5.5748   13.4820 O   0  0  0  0  0  0  0  0  0  0  0  0
   53.6554   11.4066   17.2614 C   0  0  0  0  0  0  0  0  0  0  0  0
   51.4014   10.6832   16.1539 C   0  0  0  0  0  0  0  0  0  0  0  0
   53.0645   12.0647   15.0868 O   0  0  0  0  0  0  0  0  0  0  0  0
   47.8813    8.6664   14.8343 C   0  0  0  0  0  0  0  0  0  0  0  0
   54.6733   12.3733   17.3197 C   0  0  0  0  0  0  0  0  0  0  0  0
   53.5618   10.4479   18.2801 C   0  0  0  0  0  0  0  0  0  0  0  0
   51.5608    9.3336   15.4514 C   0  0  0  0  0  0  0  0  0  0  0  0
   50.2598   11.5051   15.5212 C   0  0  0  0  0  0  0  0  0  0  0  0
   50.2491    8.5408   15.4439 C   0  0  0  0  0  0  0  0  0  0  0  0
   49.3113   10.6569   14.6690 C   0  0  0  0  0  0  0  0  0  0  0  0
   55.4606   11.4386   19.3914 C   0  0  0  0  0  0  0  0  0  0  0  0
   45.5512    4.0045   12.7527 C   0  0  0  0  0  0  0  0  0  0  0  0
   54.4660   10.4684   19.3470 C   0  0  0  0  0  0  0  0  0  0  0  0
   55.5741   12.3905   18.3867 C   0  0  0  0  0  0  0  0  0  0  0  0
   56.3235   11.4518   20.4152 F   0  0  0  0  0  0  0  0  0  0  0  0
   43.2504    5.4074   12.0002 C   0  0  0  0  0  0  0  0  0  0  0  0
   44.3916    3.3099   12.4059 C   0  0  0  0  0  0  0  0  0  0  0  0
   43.2437    4.0107   12.0303 C   0  0  0  0  0  0  0  0  0  0  0  0
   43.5957    8.0121   12.0816 H   0  0  0  0  0  0  0  0  0  0  0  0
   47.8639    9.2658   12.7388 H   0  0  0  0  0  0  0  0  0  0  0  0
   48.7543    7.7771   13.0391 H   0  0  0  0  0  0  0  0  0  0  0  0
   51.1221   10.5185   17.2007 H   0  0  0  0  0  0  0  0  0  0  0  0
   46.9899    9.2605   15.0756 H   0  0  0  0  0  0  0  0  0  0  0  0
   47.7597    7.7406   15.4123 H   0  0  0  0  0  0  0  0  0  0  0  0
   54.7675   13.1191   16.5317 H   0  0  0  0  0  0  0  0  0  0  0  0
   52.8085    9.6662   18.2645 H   0  0  0  0  0  0  0  0  0  0  0  0
   51.8916    9.4970   14.4165 H   0  0  0  0  0  0  0  0  0  0  0  0
   52.3468    8.7356   15.9278 H   0  0  0  0  0  0  0  0  0  0  0  0
   50.6318   12.3340   14.9080 H   0  0  0  0  0  0  0  0  0  0  0  0
   49.6896   11.9754   16.3339 H   0  0  0  0  0  0  0  0  0  0  0  0
   50.1763    7.9657   16.3749 H   0  0  0  0  0  0  0  0  0  0  0  0
   50.3088    7.8111   14.6286 H   0  0  0  0  0  0  0  0  0  0  0  0
   49.7375   10.4985   13.6702 H   0  0  0  0  0  0  0  0  0  0  0  0
   48.3803   11.2214   14.5352 H   0  0  0  0  0  0  0  0  0  0  0  0
   46.4447    3.4579   13.0470 H   0  0  0  0  0  0  0  0  0  0  0  0
   54.4034    9.7304   20.1412 H   0  0  0  0  0  0  0  0  0  0  0  0
   56.3606   13.1370   18.4362 H   0  0  0  0  0  0  0  0  0  0  0  0
   42.3485    5.9380   11.7076 H   0  0  0  0  0  0  0  0  0  0  0  0
   44.3827    2.2224   12.4294 H   0  0  0  0  0  0  0  0  0  0  0  0
   42.3411    3.4662   11.7613 H   0  0  0  0  0  0  0  0  0  0  0  0
  2  1  1  0
  3  1  1  0
  4  3  1  0
  5  2  1  0
  6  4  2  0
  7  1  1  0
  8 13  1  0
  9 15  1  0
 10  2  2  0
 11  3  2  0
 12  8  1  0
 13 19  1  0
 14  8  2  0
 15  7  1  0
 16 12  2  0
 17 12  1  0
 18 20  1  0
 19 21  1  0
 20  9  1  0
 21  9  1  0
 22 24  1  0
 23  4  1  0
 24 17  2  0
 25 16  1  0
 26 22  1  0
 27  6  1  0
 28 23  2  0
 29 28  1  0
  5  6  1  0
 18 13  1  0
 29 27  2  0
 25 22  2  0
  5 30  1  0
  7 31  1  0
  7 32  1  0
 13 33  1  0
 15 34  1  0
 15 35  1  0
 16 36  1  0
 17 37  1  0
 18 38  1  0
 18 39  1  0
 19 40  1  0
 19 41  1  0
 20 42  1  0
 20 43  1  0
 21 44  1  0
 21 45  1  0
 23 46  1  0
 24 47  1  0
 25 48  1  0
 27 49  1  0
 28 50  1  0
 29 51  1  0
M  END
> <Uni-Dock RESULT> 
ENERGY=   -3.643  LOWER_BOUND=    5.920  UPPER_BOUND=    8.726
INTER + INTRA:          -3.643
INTER:                  -3.643
INTRA:                   0.000
UNBOUND:                 0.000

$$$$
