
     RDKit          3D

 51 54  0  0  0  0  0  0  0  0999 V2000
   48.2728    8.0862   17.2809 N   0  0  0  0  0  0  0  0  0  0  0  0
   48.5902    6.7937   17.6663 C   0  0  0  0  0  0  0  0  0  0  0  0
   47.8822    9.0919   18.1626 C   0  0  0  0  0  0  0  0  0  0  0  0
   47.6846    8.6987   19.5712 C   0  0  0  0  0  0  0  0  0  0  0  0
   48.4037    6.4805   18.9822 N   0  0  0  0  0  0  0  0  0  0  0  0
   47.9538    7.3855   19.9389 C   0  0  0  0  0  0  0  0  0  0  0  0
   48.4846    8.4459   15.8799 C   0  0  0  0  0  0  0  0  0  0  0  0
   52.8610    9.2682   11.0644 C   0  0  0  0  0  0  0  0  0  0  0  0
   50.2334    9.2366   14.2175 N   0  0  0  0  0  0  0  0  0  0  0  0
   49.0316    5.9353   16.9027 O   0  0  0  0  0  0  0  0  0  0  0  0
   47.7081   10.2640   17.8387 O   0  0  0  0  0  0  0  0  0  0  0  0
   52.9655    8.7728    9.6530 C   0  0  0  0  0  0  0  0  0  0  0  0
   52.2557    8.3701   12.1465 C   0  0  0  0  0  0  0  0  0  0  0  0
   53.2550   10.4076   11.3142 O   0  0  0  0  0  0  0  0  0  0  0  0
   49.9436    8.8752   15.6193 C   0  0  0  0  0  0  0  0  0  0  0  0
   52.7074    7.4439    9.2885 C   0  0  0  0  0  0  0  0  0  0  0  0
   53.3480    9.6914    8.6593 C   0  0  0  0  0  0  0  0  0  0  0  0
   52.6238    8.8763   13.5540 C   0  0  0  0  0  0  0  0  0  0  0  0
   50.7324    8.2918   11.9646 C   0  0  0  0  0  0  0  0  0  0  0  0
   51.5688    9.8451   14.0859 C   0  0  0  0  0  0  0  0  0  0  0  0
   50.0119    8.1107   13.2996 C   0  0  0  0  0  0  0  0  0  0  0  0
   53.1984    7.9728    6.9846 C   0  0  0  0  0  0  0  0  0  0  0  0
   47.2434    9.6211   20.5255 C   0  0  0  0  0  0  0  0  0  0  0  0
   53.4630    9.2917    7.3261 C   0  0  0  0  0  0  0  0  0  0  0  0
   52.8232    7.0470    7.9518 C   0  0  0  0  0  0  0  0  0  0  0  0
   53.3070    7.5859    5.7076 F   0  0  0  0  0  0  0  0  0  0  0  0
   47.7854    6.9773   21.2621 C   0  0  0  0  0  0  0  0  0  0  0  0
   47.0720    9.2159   21.8499 C   0  0  0  0  0  0  0  0  0  0  0  0
   47.3426    7.8961   22.2168 C   0  0  0  0  0  0  0  0  0  0  0  0
   48.6283    5.5277   19.2386 H   0  0  0  0  0  0  0  0  0  0  0  0
   48.2192    7.5809   15.2622 H   0  0  0  0  0  0  0  0  0  0  0  0
   47.8048    9.2605   15.6034 H   0  0  0  0  0  0  0  0  0  0  0  0
   52.7084    7.3763   12.0569 H   0  0  0  0  0  0  0  0  0  0  0  0
   50.1405    9.7459   16.2585 H   0  0  0  0  0  0  0  0  0  0  0  0
   50.6310    8.0871   15.9539 H   0  0  0  0  0  0  0  0  0  0  0  0
   52.4199    6.6922   10.0171 H   0  0  0  0  0  0  0  0  0  0  0  0
   53.5572   10.7279    8.9207 H   0  0  0  0  0  0  0  0  0  0  0  0
   53.6099    9.3558   13.5615 H   0  0  0  0  0  0  0  0  0  0  0  0
   52.7001    8.0203   14.2379 H   0  0  0  0  0  0  0  0  0  0  0  0
   50.4814    7.4525   11.3054 H   0  0  0  0  0  0  0  0  0  0  0  0
   50.3506    9.1926   11.4653 H   0  0  0  0  0  0  0  0  0  0  0  0
   51.9123   10.2758   15.0346 H   0  0  0  0  0  0  0  0  0  0  0  0
   51.4803   10.6959   13.3989 H   0  0  0  0  0  0  0  0  0  0  0  0
   48.9383    8.0143   13.1016 H   0  0  0  0  0  0  0  0  0  0  0  0
   50.3458    7.1649   13.7474 H   0  0  0  0  0  0  0  0  0  0  0  0
   47.0345   10.6501   20.2405 H   0  0  0  0  0  0  0  0  0  0  0  0
   53.7571   10.0006    6.5582 H   0  0  0  0  0  0  0  0  0  0  0  0
   52.6246    6.0203    7.6589 H   0  0  0  0  0  0  0  0  0  0  0  0
   47.9937    5.9546   21.5641 H   0  0  0  0  0  0  0  0  0  0  0  0
   46.7287    9.9297   22.5954 H   0  0  0  0  0  0  0  0  0  0  0  0
   47.2088    7.5838   23.2503 H   0  0  0  0  0  0  0  0  0  0  0  0
  2  1  1  0
  3  1  1  0
  4  3  1  0
  5  2  1  0
  6  4  2  0
  7  1  1  0
  8 13  1  0
  9 15  1  0
 10  2  2  0
 11  3  2  0
 12  8  1  0
 13 19  1  0
 14  8  2  0
 15  7  1  0
 16 12  2  0
 17 12  1  0
 18 20  1  0
 19 21  1  0
 20  9  1  0
 21  9  1  0
 22 24  1  0
 23  4  1  0
 24 17  2  0
 25 16  1  0
 26 22  1  0
 27  6  1  0
 28 23  2  0
 29 28  1  0
  5  6  1  0
 18 13  1  0
 29 27  2  0
 25 22  2  0
  5 30  1  0
  7 31  1  0
  7 32  1  0
 13 33  1  0
 15 34  1  0
 15 35  1  0
 16 36  1  0
 17 37  1  0
 18 38  1  0
 18 39  1  0
 19 40  1  0
 19 41  1  0
 20 42  1  0
 20 43  1  0
 21 44  1  0
 21 45  1  0
 23 46  1  0
 24 47  1  0
 25 48  1  0
 27 49  1  0
 28 50  1  0
 29 51  1  0
M  END
> <Uni-Dock RESULT> 
ENERGY=   -4.089  LOWER_BOUND=    0.000  UPPER_BOUND=    0.000
INTER + INTRA:          -4.089
INTER:                  -4.089
INTRA:                   0.000
UNBOUND:                 0.000

$$$$

     RDKit          3D

 51 54  0  0  0  0  0  0  0  0999 V2000
   51.1122   11.3905   13.8701 N   0  0  0  0  0  0  0  0  0  0  0  0
   50.9456   12.3457   12.8802 C   0  0  0  0  0  0  0  0  0  0  0  0
   51.5815   11.6665   15.1526 C   0  0  0  0  0  0  0  0  0  0  0  0
   52.0370   13.0465   15.4092 C   0  0  0  0  0  0  0  0  0  0  0  0
   51.3697   13.6112   13.1686 N   0  0  0  0  0  0  0  0  0  0  0  0
   51.9162   13.9864   14.3922 C   0  0  0  0  0  0  0  0  0  0  0  0
   50.6461   10.0342   13.5869 C   0  0  0  0  0  0  0  0  0  0  0  0
   45.4805    6.2018   12.3032 C   0  0  0  0  0  0  0  0  0  0  0  0
   48.5970    8.5350   13.6039 N   0  0  0  0  0  0  0  0  0  0  0  0
   50.4370   12.1197   11.7826 O   0  0  0  0  0  0  0  0  0  0  0  0
   51.6249   10.8432   16.0633 O   0  0  0  0  0  0  0  0  0  0  0  0
   45.1718    5.1862   11.2441 C   0  0  0  0  0  0  0  0  0  0  0  0
   46.3139    7.4383   11.9562 C   0  0  0  0  0  0  0  0  0  0  0  0
   45.0635    6.0013   13.4442 O   0  0  0  0  0  0  0  0  0  0  0  0
   49.1400    9.8788   13.8845 C   0  0  0  0  0  0  0  0  0  0  0  0
   45.4477    5.3913    9.8850 C   0  0  0  0  0  0  0  0  0  0  0  0
   44.5711    3.9793   11.6443 C   0  0  0  0  0  0  0  0  0  0  0  0
   46.1564    8.5301   13.0313 C   0  0  0  0  0  0  0  0  0  0  0  0
   47.7870    7.0395   11.7805 C   0  0  0  0  0  0  0  0  0  0  0  0
   47.2229    8.3942   14.1169 C   0  0  0  0  0  0  0  0  0  0  0  0
   48.7313    8.1697   12.1869 C   0  0  0  0  0  0  0  0  0  0  0  0
   44.5448    3.2134    9.3654 C   0  0  0  0  0  0  0  0  0  0  0  0
   52.5735   13.4136   16.6475 C   0  0  0  0  0  0  0  0  0  0  0  0
   44.2591    2.9934   10.7057 C   0  0  0  0  0  0  0  0  0  0  0  0
   45.1343    4.4012    8.9473 C   0  0  0  0  0  0  0  0  0  0  0  0
   44.2478    2.2705    8.4627 F   0  0  0  0  0  0  0  0  0  0  0  0
   52.3296   15.3026   14.5986 C   0  0  0  0  0  0  0  0  0  0  0  0
   52.9899   14.7290   16.8571 C   0  0  0  0  0  0  0  0  0  0  0  0
   52.8680   15.6713   15.8339 C   0  0  0  0  0  0  0  0  0  0  0  0
   51.2514   14.2892   12.4268 H   0  0  0  0  0  0  0  0  0  0  0  0
   50.8577    9.8139   12.5348 H   0  0  0  0  0  0  0  0  0  0  0  0
   51.2174    9.3168   14.1879 H   0  0  0  0  0  0  0  0  0  0  0  0
   45.9159    7.8687   11.0305 H   0  0  0  0  0  0  0  0  0  0  0  0
   48.9991   10.1033   14.9500 H   0  0  0  0  0  0  0  0  0  0  0  0
   48.5694   10.6374   13.3328 H   0  0  0  0  0  0  0  0  0  0  0  0
   45.9000    6.3087    9.5212 H   0  0  0  0  0  0  0  0  0  0  0  0
   44.3442    3.8005   12.6945 H   0  0  0  0  0  0  0  0  0  0  0  0
   45.1575    8.5057   13.4828 H   0  0  0  0  0  0  0  0  0  0  0  0
   46.2498    9.5179   12.5602 H   0  0  0  0  0  0  0  0  0  0  0  0
   47.9758    6.7739   10.7337 H   0  0  0  0  0  0  0  0  0  0  0  0
   48.0223    6.1411   12.3670 H   0  0  0  0  0  0  0  0  0  0  0  0
   47.0172    9.1085   14.9238 H   0  0  0  0  0  0  0  0  0  0  0  0
   47.1413    7.4037   14.5816 H   0  0  0  0  0  0  0  0  0  0  0  0
   49.7604    7.8446   11.9956 H   0  0  0  0  0  0  0  0  0  0  0  0
   48.5372    9.0333   11.5366 H   0  0  0  0  0  0  0  0  0  0  0  0
   52.6667   12.6802   17.4459 H   0  0  0  0  0  0  0  0  0  0  0  0
   43.7965    2.0609   11.0140 H   0  0  0  0  0  0  0  0  0  0  0  0
   45.3448    4.5499    7.8924 H   0  0  0  0  0  0  0  0  0  0  0  0
   52.2394   16.0482   13.8134 H   0  0  0  0  0  0  0  0  0  0  0  0
   53.4081   15.0190   17.8185 H   0  0  0  0  0  0  0  0  0  0  0  0
   53.1926   16.6961   16.0009 H   0  0  0  0  0  0  0  0  0  0  0  0
  2  1  1  0
  3  1  1  0
  4  3  1  0
  5  2  1  0
  6  4  2  0
  7  1  1  0
  8 13  1  0
  9 15  1  0
 10  2  2  0
 11  3  2  0
 12  8  1  0
 13 19  1  0
 14  8  2  0
 15  7  1  0
 16 12  2  0
 17 12  1  0
 18 20  1  0
 19 21  1  0
 20  9  1  0
 21  9  1  0
 22 24  1  0
 23  4  1  0
 24 17  2  0
 25 16  1  0
 26 22  1  0
 27  6  1  0
 28 23  2  0
 29 28  1  0
  5  6  1  0
 18 13  1  0
 29 27  2  0
 25 22  2  0
  5 30  1  0
  7 31  1  0
  7 32  1  0
 13 33  1  0
 15 34  1  0
 15 35  1  0
 16 36  1  0
 17 37  1  0
 18 38  1  0
 18 39  1  0
 19 40  1  0
 19 41  1  0
 20 42  1  0
 20 43  1  0
 21 44  1  0
 21 45  1  0
 23 46  1  0
 24 47  1  0
 25 48  1  0
 27 49  1  0
 28 50  1  0
 29 51  1  0
M  END
> <Uni-Dock RESULT> 
ENERGY=   -4.003  LOWER_BOUND=    5.244  UPPER_BOUND=    7.929
INTER + INTRA:          -4.003
INTER:                  -4.003
INTRA:                   0.000
UNBOUND:                 0.000

$$$$

     RDKit          3D

 51 54  0  0  0  0  0  0  0  0999 V2000
   46.8841    6.9837   13.2896 N   0  0  0  0  0  0  0  0  0  0  0  0
   45.9387    7.9085   12.8764 C   0  0  0  0  0  0  0  0  0  0  0  0
   46.7228    5.6031   13.1921 C   0  0  0  0  0  0  0  0  0  0  0  0
   45.4071    5.1203   12.7300 C   0  0  0  0  0  0  0  0  0  0  0  0
   44.7415    7.4138   12.4444 N   0  0  0  0  0  0  0  0  0  0  0  0
   44.4450    6.0562   12.3684 C   0  0  0  0  0  0  0  0  0  0  0  0
   48.1791    7.4935   13.7367 C   0  0  0  0  0  0  0  0  0  0  0  0
   53.6558   10.6872   12.0561 C   0  0  0  0  0  0  0  0  0  0  0  0
   50.4588    8.2649   12.9276 N   0  0  0  0  0  0  0  0  0  0  0  0
   46.1219    9.1255   12.8690 O   0  0  0  0  0  0  0  0  0  0  0  0
   47.6016    4.7858   13.4541 O   0  0  0  0  0  0  0  0  0  0  0  0
   54.4046   11.8509   12.6336 C   0  0  0  0  0  0  0  0  0  0  0  0
   52.1267   10.6529   12.1241 C   0  0  0  0  0  0  0  0  0  0  0  0
   54.3022    9.7693   11.5508 O   0  0  0  0  0  0  0  0  0  0  0  0
   49.1350    7.7323   12.5492 C   0  0  0  0  0  0  0  0  0  0  0  0
   53.7734   13.0211   13.0783 C   0  0  0  0  0  0  0  0  0  0  0  0
   55.8048   11.7548   12.7213 C   0  0  0  0  0  0  0  0  0  0  0  0
   51.5524    9.6267   11.1293 C   0  0  0  0  0  0  0  0  0  0  0  0
   51.6773   10.3462   13.5607 C   0  0  0  0  0  0  0  0  0  0  0  0
   51.3872    8.2558   11.7835 C   0  0  0  0  0  0  0  0  0  0  0  0
   50.3595    9.5736   13.5884 C   0  0  0  0  0  0  0  0  0  0  0  0
   55.9151   13.9528   13.6895 C   0  0  0  0  0  0  0  0  0  0  0  0
   45.1259    3.7528   12.6467 C   0  0  0  0  0  0  0  0  0  0  0  0
   56.5590   12.8046   13.2500 C   0  0  0  0  0  0  0  0  0  0  0  0
   54.5321   14.0707   13.6079 C   0  0  0  0  0  0  0  0  0  0  0  0
   56.6345   14.9611   14.1975 F   0  0  0  0  0  0  0  0  0  0  0  0
   43.1916    5.6389   11.9205 C   0  0  0  0  0  0  0  0  0  0  0  0
   43.8724    3.3315   12.2009 C   0  0  0  0  0  0  0  0  0  0  0  0
   42.9074    4.2734   11.8387 C   0  0  0  0  0  0  0  0  0  0  0  0
   44.0612    8.1071   12.1609 H   0  0  0  0  0  0  0  0  0  0  0  0
   48.0068    8.4242   14.2884 H   0  0  0  0  0  0  0  0  0  0  0  0
   48.6314    6.7820   14.4378 H   0  0  0  0  0  0  0  0  0  0  0  0
   51.7492   11.6292   11.8001 H   0  0  0  0  0  0  0  0  0  0  0  0
   49.2714    6.7649   12.0481 H   0  0  0  0  0  0  0  0  0  0  0  0
   48.6597    8.3946   11.8136 H   0  0  0  0  0  0  0  0  0  0  0  0
   52.6970   13.1516   13.0231 H   0  0  0  0  0  0  0  0  0  0  0  0
   56.3163   10.8565   12.3780 H   0  0  0  0  0  0  0  0  0  0  0  0
   52.1811    9.5414   10.2350 H   0  0  0  0  0  0  0  0  0  0  0  0
   50.5722    9.9745   10.7760 H   0  0  0  0  0  0  0  0  0  0  0  0
   51.5553   11.2825   14.1179 H   0  0  0  0  0  0  0  0  0  0  0  0
   52.4454    9.7732   14.0977 H   0  0  0  0  0  0  0  0  0  0  0  0
   51.0875    7.5219   11.0251 H   0  0  0  0  0  0  0  0  0  0  0  0
   52.3622    7.9102   12.1491 H   0  0  0  0  0  0  0  0  0  0  0  0
   50.0679    9.4267   14.6346 H   0  0  0  0  0  0  0  0  0  0  0  0
   49.5845   10.1947   13.1193 H   0  0  0  0  0  0  0  0  0  0  0  0
   45.8783    3.0184   12.9269 H   0  0  0  0  0  0  0  0  0  0  0  0
   57.6400   12.7307   13.3192 H   0  0  0  0  0  0  0  0  0  0  0  0
   54.0527   14.9808   13.9559 H   0  0  0  0  0  0  0  0  0  0  0  0
   42.4307    6.3591   11.6328 H   0  0  0  0  0  0  0  0  0  0  0  0
   43.6491    2.2690   12.1348 H   0  0  0  0  0  0  0  0  0  0  0  0
   41.9316    3.9417   11.4905 H   0  0  0  0  0  0  0  0  0  0  0  0
  2  1  1  0
  3  1  1  0
  4  3  1  0
  5  2  1  0
  6  4  2  0
  7  1  1  0
  8 13  1  0
  9 15  1  0
 10  2  2  0
 11  3  2  0
 12  8  1  0
 13 19  1  0
 14  8  2  0
 15  7  1  0
 16 12  2  0
 17 12  1  0
 18 20  1  0
 19 21  1  0
 20  9  1  0
 21  9  1  0
 22 24  1  0
 23  4  1  0
 24 17  2  0
 25 16  1  0
 26 22  1  0
 27  6  1  0
 28 23  2  0
 29 28  1  0
  5  6  1  0
 18 13  1  0
 29 27  2  0
 25 22  2  0
  5 30  1  0
  7 31  1  0
  7 32  1  0
 13 33  1  0
 15 34  1  0
 15 35  1  0
 16 36  1  0
 17 37  1  0
 18 38  1  0
 18 39  1  0
 19 40  1  0
 19 41  1  0
 20 42  1  0
 20 43  1  0
 21 44  1  0
 21 45  1  0
 23 46  1  0
 24 47  1  0
 25 48  1  0
 27 49  1  0
 28 50  1  0
 29 51  1  0
M  END
> <Uni-Dock RESULT> 
ENERGY=   -3.945  LOWER_BOUND=    4.960  UPPER_BOUND=    6.878
INTER + INTRA:          -3.945
INTER:                  -3.945
INTRA:                   0.000
UNBOUND:                 0.000

$$$$

     RDKit          3D

 51 54  0  0  0  0  0  0  0  0999 V2000
   45.9904    7.6903   12.8680 N   0  0  0  0  0  0  0  0  0  0  0  0
   44.9263    8.1801   12.1279 C   0  0  0  0  0  0  0  0  0  0  0  0
   46.2432    6.3355   13.0729 C   0  0  0  0  0  0  0  0  0  0  0  0
   45.2334    5.3881   12.5625 C   0  0  0  0  0  0  0  0  0  0  0  0
   44.0253    7.2644   11.6654 N   0  0  0  0  0  0  0  0  0  0  0  0
   44.1402    5.8922   11.8673 C   0  0  0  0  0  0  0  0  0  0  0  0
   46.9762    8.6537   13.3549 C   0  0  0  0  0  0  0  0  0  0  0  0
   51.5654   13.0498   11.7326 C   0  0  0  0  0  0  0  0  0  0  0  0
   49.0639    9.9439   12.7036 N   0  0  0  0  0  0  0  0  0  0  0  0
   44.7607    9.3705   11.8630 O   0  0  0  0  0  0  0  0  0  0  0  0
   47.2447    5.8977   13.6334 O   0  0  0  0  0  0  0  0  0  0  0  0
   51.8298   14.4741   12.1198 C   0  0  0  0  0  0  0  0  0  0  0  0
   50.1248   12.5489   11.6001 C   0  0  0  0  0  0  0  0  0  0  0  0
   52.5291   12.3066   11.5461 O   0  0  0  0  0  0  0  0  0  0  0  0
   48.0437    8.9626   12.2844 C   0  0  0  0  0  0  0  0  0  0  0  0
   50.8222   15.4462   12.1915 C   0  0  0  0  0  0  0  0  0  0  0  0
   53.1549   14.8411   12.4153 C   0  0  0  0  0  0  0  0  0  0  0  0
   50.0689   11.2324   10.8026 C   0  0  0  0  0  0  0  0  0  0  0  0
   49.5027   12.3811   12.9947 C   0  0  0  0  0  0  0  0  0  0  0  0
   50.1660   10.0210   11.7287 C   0  0  0  0  0  0  0  0  0  0  0  0
   48.4744   11.2514   13.0230 C   0  0  0  0  0  0  0  0  0  0  0  0
   52.4533   17.0988   12.8526 C   0  0  0  0  0  0  0  0  0  0  0  0
   45.3669    4.0103   12.7618 C   0  0  0  0  0  0  0  0  0  0  0  0
   53.4658   16.1521   12.7825 C   0  0  0  0  0  0  0  0  0  0  0  0
   51.1372   16.7587   12.5602 C   0  0  0  0  0  0  0  0  0  0  0  0
   52.7473   18.3564   13.2048 F   0  0  0  0  0  0  0  0  0  0  0  0
   43.1679    5.0281   11.3638 C   0  0  0  0  0  0  0  0  0  0  0  0
   44.3952    3.1428   12.2612 C   0  0  0  0  0  0  0  0  0  0  0  0
   43.2978    3.6514   11.5636 C   0  0  0  0  0  0  0  0  0  0  0  0
   43.2490    7.6452   11.1396 H   0  0  0  0  0  0  0  0  0  0  0  0
   46.4453    9.5664   13.6471 H   0  0  0  0  0  0  0  0  0  0  0  0
   47.4603    8.2596   14.2564 H   0  0  0  0  0  0  0  0  0  0  0  0
   49.5622   13.2814   11.0105 H   0  0  0  0  0  0  0  0  0  0  0  0
   48.5411    8.0136   12.0446 H   0  0  0  0  0  0  0  0  0  0  0  0
   47.5586    9.2975   11.3580 H   0  0  0  0  0  0  0  0  0  0  0  0
   49.7855   15.2191   11.9629 H   0  0  0  0  0  0  0  0  0  0  0  0
   53.9541   14.1029   12.3620 H   0  0  0  0  0  0  0  0  0  0  0  0
   50.8610   11.1892   10.0457 H   0  0  0  0  0  0  0  0  0  0  0  0
   49.1211   11.1843   10.2495 H   0  0  0  0  0  0  0  0  0  0  0  0
   49.0164   13.3158   13.2976 H   0  0  0  0  0  0  0  0  0  0  0  0
   50.2775   12.1858   13.7484 H   0  0  0  0  0  0  0  0  0  0  0  0
   50.2396    9.1059   11.1282 H   0  0  0  0  0  0  0  0  0  0  0  0
   51.1058   10.0717   12.2925 H   0  0  0  0  0  0  0  0  0  0  0  0
   48.0336   11.2117   14.0257 H   0  0  0  0  0  0  0  0  0  0  0  0
   47.6663   11.5016   12.3226 H   0  0  0  0  0  0  0  0  0  0  0  0
   46.2229    3.6133   13.3035 H   0  0  0  0  0  0  0  0  0  0  0  0
   54.4883   16.4358   13.0120 H   0  0  0  0  0  0  0  0  0  0  0  0
   50.3640   17.5188   12.6196 H   0  0  0  0  0  0  0  0  0  0  0  0
   42.3093    5.4078   10.8169 H   0  0  0  0  0  0  0  0  0  0  0  0
   44.4947    2.0704   12.4141 H   0  0  0  0  0  0  0  0  0  0  0  0
   42.5426    2.9724   11.1738 H   0  0  0  0  0  0  0  0  0  0  0  0
  2  1  1  0
  3  1  1  0
  4  3  1  0
  5  2  1  0
  6  4  2  0
  7  1  1  0
  8 13  1  0
  9 15  1  0
 10  2  2  0
 11  3  2  0
 12  8  1  0
 13 19  1  0
 14  8  2  0
 15  7  1  0
 16 12  2  0
 17 12  1  0
 18 20  1  0
 19 21  1  0
 20  9  1  0
 21  9  1  0
 22 24  1  0
 23  4  1  0
 24 17  2  0
 25 16  1  0
 26 22  1  0
 27  6  1  0
 28 23  2  0
 29 28  1  0
  5  6  1  0
 18 13  1  0
 29 27  2  0
 25 22  2  0
  5 30  1  0
  7 31  1  0
  7 32  1  0
 13 33  1  0
 15 34  1  0
 15 35  1  0
 16 36  1  0
 17 37  1  0
 18 38  1  0
 18 39  1  0
 19 40  1  0
 19 41  1  0
 20 42  1  0
 20 43  1  0
 21 44  1  0
 21 45  1  0
 23 46  1  0
 24 47  1  0
 25 48  1  0
 27 49  1  0
 28 50  1  0
 29 51  1  0
M  END
> <Uni-Dock RESULT> 
ENERGY=   -3.877  LOWER_BOUND=    5.803  UPPER_BOUND=    7.645
INTER + INTRA:          -3.877
INTER:                  -3.877
INTRA:                   0.000
UNBOUND:                 0.000

$$$$

     RDKit          3D

 51 54  0  0  0  0  0  0  0  0999 V2000
   52.4635    9.1161   16.2453 N   0  0  0  0  0  0  0  0  0  0  0  0
   53.4382    8.6458   15.3800 C   0  0  0  0  0  0  0  0  0  0  0  0
   52.5975   10.2620   17.0264 C   0  0  0  0  0  0  0  0  0  0  0  0
   53.9135   10.9294   17.0041 C   0  0  0  0  0  0  0  0  0  0  0  0
   54.6347    9.3038   15.3849 N   0  0  0  0  0  0  0  0  0  0  0  0
   54.9039   10.4187   16.1731 C   0  0  0  0  0  0  0  0  0  0  0  0
   51.1691    8.4367   16.2399 C   0  0  0  0  0  0  0  0  0  0  0  0
   45.8045    6.9548   12.7695 C   0  0  0  0  0  0  0  0  0  0  0  0
   48.9268    8.3263   15.0538 N   0  0  0  0  0  0  0  0  0  0  0  0
   53.2812    7.6932   14.6168 O   0  0  0  0  0  0  0  0  0  0  0  0
   51.6954   10.7413   17.7086 O   0  0  0  0  0  0  0  0  0  0  0  0
   45.0669    5.6817   12.4805 C   0  0  0  0  0  0  0  0  0  0  0  0
   47.3304    6.9423   12.8937 C   0  0  0  0  0  0  0  0  0  0  0  0
   45.1511    7.9876   12.9183 O   0  0  0  0  0  0  0  0  0  0  0  0
   50.2478    8.9812   15.1282 C   0  0  0  0  0  0  0  0  0  0  0  0
   45.7118    4.4879   12.1278 C   0  0  0  0  0  0  0  0  0  0  0  0
   43.6631    5.7006   12.5634 C   0  0  0  0  0  0  0  0  0  0  0  0
   47.9068    8.3648   12.7642 C   0  0  0  0  0  0  0  0  0  0  0  0
   47.7379    6.2965   14.2267 C   0  0  0  0  0  0  0  0  0  0  0  0
   48.0266    9.0388   14.1302 C   0  0  0  0  0  0  0  0  0  0  0  0
   49.0379    6.8892   14.7682 C   0  0  0  0  0  0  0  0  0  0  0  0
   43.5763    3.3740   11.9634 C   0  0  0  0  0  0  0  0  0  0  0  0
   54.1674   12.0565   17.7922 C   0  0  0  0  0  0  0  0  0  0  0  0
   42.9188    4.5473   12.3062 C   0  0  0  0  0  0  0  0  0  0  0  0
   44.9630    3.3341   11.8713 C   0  0  0  0  0  0  0  0  0  0  0  0
   42.8663    2.2662   11.7167 F   0  0  0  0  0  0  0  0  0  0  0  0
   56.1586   11.0257   16.1194 C   0  0  0  0  0  0  0  0  0  0  0  0
   55.4221   12.6654   17.7426 C   0  0  0  0  0  0  0  0  0  0  0  0
   56.4156   12.1503   16.9075 C   0  0  0  0  0  0  0  0  0  0  0  0
   55.3364    8.9350   14.7560 H   0  0  0  0  0  0  0  0  0  0  0  0
   51.3476    7.3644   16.1043 H   0  0  0  0  0  0  0  0  0  0  0  0
   50.6847    8.5622   17.2156 H   0  0  0  0  0  0  0  0  0  0  0  0
   47.7365    6.3756   12.0484 H   0  0  0  0  0  0  0  0  0  0  0  0
   50.1030   10.0511   15.3274 H   0  0  0  0  0  0  0  0  0  0  0  0
   50.7549    8.9157   14.1566 H   0  0  0  0  0  0  0  0  0  0  0  0
   46.7918    4.4213   12.0387 H   0  0  0  0  0  0  0  0  0  0  0  0
   43.1411    6.6182   12.8318 H   0  0  0  0  0  0  0  0  0  0  0  0
   47.2984    8.9834   12.0937 H   0  0  0  0  0  0  0  0  0  0  0  0
   48.9025    8.3113   12.3035 H   0  0  0  0  0  0  0  0  0  0  0  0
   47.8662    5.2163   14.0903 H   0  0  0  0  0  0  0  0  0  0  0  0
   46.9449    6.4140   14.9776 H   0  0  0  0  0  0  0  0  0  0  0  0
   48.3290   10.0849   13.9971 H   0  0  0  0  0  0  0  0  0  0  0  0
   47.0358    9.0830   14.5994 H   0  0  0  0  0  0  0  0  0  0  0  0
   49.3006    6.3587   15.6906 H   0  0  0  0  0  0  0  0  0  0  0  0
   49.8372    6.6920   14.0411 H   0  0  0  0  0  0  0  0  0  0  0  0
   53.3929   12.4596   18.4415 H   0  0  0  0  0  0  0  0  0  0  0  0
   41.8352    4.5608   12.3712 H   0  0  0  0  0  0  0  0  0  0  0  0
   45.4531    2.4043   11.5982 H   0  0  0  0  0  0  0  0  0  0  0  0
   56.9416   10.6384   15.4732 H   0  0  0  0  0  0  0  0  0  0  0  0
   55.6243   13.5420   18.3540 H   0  0  0  0  0  0  0  0  0  0  0  0
   57.3923   12.6279   16.8704 H   0  0  0  0  0  0  0  0  0  0  0  0
  2  1  1  0
  3  1  1  0
  4  3  1  0
  5  2  1  0
  6  4  2  0
  7  1  1  0
  8 13  1  0
  9 15  1  0
 10  2  2  0
 11  3  2  0
 12  8  1  0
 13 19  1  0
 14  8  2  0
 15  7  1  0
 16 12  2  0
 17 12  1  0
 18 20  1  0
 19 21  1  0
 20  9  1  0
 21  9  1  0
 22 24  1  0
 23  4  1  0
 24 17  2  0
 25 16  1  0
 26 22  1  0
 27  6  1  0
 28 23  2  0
 29 28  1  0
  5  6  1  0
 18 13  1  0
 29 27  2  0
 25 22  2  0
  5 30  1  0
  7 31  1  0
  7 32  1  0
 13 33  1  0
 15 34  1  0
 15 35  1  0
 16 36  1  0
 17 37  1  0
 18 38  1  0
 18 39  1  0
 19 40  1  0
 19 41  1  0
 20 42  1  0
 20 43  1  0
 21 44  1  0
 21 45  1  0
 23 46  1  0
 24 47  1  0
 25 48  1  0
 27 49  1  0
 28 50  1  0
 29 51  1  0
M  END
> <Uni-Dock RESULT> 
ENERGY=   -3.825  LOWER_BOUND=    5.415  UPPER_BOUND=    7.798
INTER + INTRA:          -3.825
INTER:                  -3.825
INTRA:                   0.000
UNBOUND:                 0.000

$$$$

     RDKit          3D

 51 54  0  0  0  0  0  0  0  0999 V2000
   52.2307    3.9678   19.6094 N   0  0  0  0  0  0  0  0  0  0  0  0
   52.8595    2.9995   18.8433 C   0  0  0  0  0  0  0  0  0  0  0  0
   52.7534    4.4935   20.7891 C   0  0  0  0  0  0  0  0  0  0  0  0
   53.9950    3.8778   21.2963 C   0  0  0  0  0  0  0  0  0  0  0  0
   54.0122    2.4688   19.3472 N   0  0  0  0  0  0  0  0  0  0  0  0
   54.5906    2.8689   20.5480 C   0  0  0  0  0  0  0  0  0  0  0  0
   51.0057    4.5619   19.0769 C   0  0  0  0  0  0  0  0  0  0  0  0
   48.3281    8.1782   14.3050 C   0  0  0  0  0  0  0  0  0  0  0  0
   50.1192    6.3615   17.5204 N   0  0  0  0  0  0  0  0  0  0  0  0
   52.4472    2.6091   17.7514 O   0  0  0  0  0  0  0  0  0  0  0  0
   52.2528    5.4282   21.4092 O   0  0  0  0  0  0  0  0  0  0  0  0
   47.1496    7.9987   13.3954 C   0  0  0  0  0  0  0  0  0  0  0  0
   49.1668    6.9655   14.7173 C   0  0  0  0  0  0  0  0  0  0  0  0
   48.5822    9.3109   14.7153 O   0  0  0  0  0  0  0  0  0  0  0  0
   51.3134    5.7248   18.1105 C   0  0  0  0  0  0  0  0  0  0  0  0
   46.8690    6.7931   12.7371 C   0  0  0  0  0  0  0  0  0  0  0  0
   46.2980    9.0999   13.1959 C   0  0  0  0  0  0  0  0  0  0  0  0
   50.5328    7.4036   15.2783 C   0  0  0  0  0  0  0  0  0  0  0  0
   48.3911    6.1206   15.7391 C   0  0  0  0  0  0  0  0  0  0  0  0
   50.4726    7.5932   16.7932 C   0  0  0  0  0  0  0  0  0  0  0  0
   49.3285    5.4170   16.7192 C   0  0  0  0  0  0  0  0  0  0  0  0
   44.9200    7.7926   11.7219 C   0  0  0  0  0  0  0  0  0  0  0  0
   54.5727    4.2975   22.4988 C   0  0  0  0  0  0  0  0  0  0  0  0
   45.1836    8.9963   12.3608 C   0  0  0  0  0  0  0  0  0  0  0  0
   45.7513    6.6927   11.9015 C   0  0  0  0  0  0  0  0  0  0  0  0
   43.8522    7.6891   10.9210 F   0  0  0  0  0  0  0  0  0  0  0  0
   55.7683    2.2670   20.9910 C   0  0  0  0  0  0  0  0  0  0  0  0
   55.7499    3.6963   22.9462 C   0  0  0  0  0  0  0  0  0  0  0  0
   56.3461    2.6828   22.1932 C   0  0  0  0  0  0  0  0  0  0  0  0
   54.4469    1.7536   18.7783 H   0  0  0  0  0  0  0  0  0  0  0  0
   50.4387    3.7749   18.5677 H   0  0  0  0  0  0  0  0  0  0  0  0
   50.3836    4.9238   19.9042 H   0  0  0  0  0  0  0  0  0  0  0  0
   49.3855    6.3805   13.8170 H   0  0  0  0  0  0  0  0  0  0  0  0
   51.8712    6.4778   18.6825 H   0  0  0  0  0  0  0  0  0  0  0  0
   51.9880    5.3817   17.3150 H   0  0  0  0  0  0  0  0  0  0  0  0
   47.4997    5.9163   12.8473 H   0  0  0  0  0  0  0  0  0  0  0  0
   46.4994   10.0473   13.6942 H   0  0  0  0  0  0  0  0  0  0  0  0
   50.8850    8.3249   14.7995 H   0  0  0  0  0  0  0  0  0  0  0  0
   51.2832    6.6365   15.0437 H   0  0  0  0  0  0  0  0  0  0  0  0
   47.7894    5.3681   15.2161 H   0  0  0  0  0  0  0  0  0  0  0  0
   47.6785    6.7405   16.2999 H   0  0  0  0  0  0  0  0  0  0  0  0
   51.4218    8.0140   17.1475 H   0  0  0  0  0  0  0  0  0  0  0  0
   49.7151    8.3498   17.0328 H   0  0  0  0  0  0  0  0  0  0  0  0
   48.7234    4.7959   17.3895 H   0  0  0  0  0  0  0  0  0  0  0  0
   49.9802    4.7407   16.1496 H   0  0  0  0  0  0  0  0  0  0  0  0
   54.1097    5.0887   23.0849 H   0  0  0  0  0  0  0  0  0  0  0  0
   44.5249    9.8456   12.2072 H   0  0  0  0  0  0  0  0  0  0  0  0
   45.5247    5.7632   11.3878 H   0  0  0  0  0  0  0  0  0  0  0  0
   56.2458    1.4786   20.4157 H   0  0  0  0  0  0  0  0  0  0  0  0
   56.2026    4.0192   23.8811 H   0  0  0  0  0  0  0  0  0  0  0  0
   57.2644    2.2169   22.5443 H   0  0  0  0  0  0  0  0  0  0  0  0
  2  1  1  0
  3  1  1  0
  4  3  1  0
  5  2  1  0
  6  4  2  0
  7  1  1  0
  8 13  1  0
  9 15  1  0
 10  2  2  0
 11  3  2  0
 12  8  1  0
 13 19  1  0
 14  8  2  0
 15  7  1  0
 16 12  2  0
 17 12  1  0
 18 20  1  0
 19 21  1  0
 20  9  1  0
 21  9  1  0
 22 24  1  0
 23  4  1  0
 24 17  2  0
 25 16  1  0
 26 22  1  0
 27  6  1  0
 28 23  2  0
 29 28  1  0
  5  6  1  0
 18 13  1  0
 29 27  2  0
 25 22  2  0
  5 30  1  0
  7 31  1  0
  7 32  1  0
 13 33  1  0
 15 34  1  0
 15 35  1  0
 16 36  1  0
 17 37  1  0
 18 38  1  0
 18 39  1  0
 19 40  1  0
 19 41  1  0
 20 42  1  0
 20 43  1  0
 21 44  1  0
 21 45  1  0
 23 46  1  0
 24 47  1  0
 25 48  1  0
 27 49  1  0
 28 50  1  0
 29 51  1  0
M  END
> <Uni-Dock RESULT> 
ENERGY=   -3.795  LOWER_BOUND=    5.525  UPPER_BOUND=    7.248
INTER + INTRA:          -3.795
INTER:                  -3.795
INTRA:                   0.000
UNBOUND:                 0.000

$$$$

     RDKit          3D

 51 54  0  0  0  0  0  0  0  0999 V2000
   48.6455   10.8881   16.3567 N   0  0  0  0  0  0  0  0  0  0  0  0
   48.2057    9.7315   16.9802 C   0  0  0  0  0  0  0  0  0  0  0  0
   48.6449   12.1472   16.9533 C   0  0  0  0  0  0  0  0  0  0  0  0
   48.0200   12.2490   18.2863 C   0  0  0  0  0  0  0  0  0  0  0  0
   47.6470    9.8739   18.2179 N   0  0  0  0  0  0  0  0  0  0  0  0
   47.5324   11.0915   18.8821 C   0  0  0  0  0  0  0  0  0  0  0  0
   49.2645   10.7531   15.0393 C   0  0  0  0  0  0  0  0  0  0  0  0
   54.2879    8.3118   11.6006 C   0  0  0  0  0  0  0  0  0  0  0  0
   51.4508   10.2405   13.8542 N   0  0  0  0  0  0  0  0  0  0  0  0
   48.3000    8.6060   16.4912 O   0  0  0  0  0  0  0  0  0  0  0  0
   49.1356   13.1518   16.4445 O   0  0  0  0  0  0  0  0  0  0  0  0
   54.3960    7.4863   10.3535 C   0  0  0  0  0  0  0  0  0  0  0  0
   53.1286    8.0787   12.5731 C   0  0  0  0  0  0  0  0  0  0  0  0
   55.1379    9.1794   11.8025 O   0  0  0  0  0  0  0  0  0  0  0  0
   50.7646   10.4089   15.1504 C   0  0  0  0  0  0  0  0  0  0  0  0
   53.5894    6.3667   10.1058 C   0  0  0  0  0  0  0  0  0  0  0  0
   55.3596    7.8582    9.3992 C   0  0  0  0  0  0  0  0  0  0  0  0
   53.4281    8.7024   13.9492 C   0  0  0  0  0  0  0  0  0  0  0  0
   51.8297    8.6428   11.9777 C   0  0  0  0  0  0  0  0  0  0  0  0
   52.9101   10.1377   14.0297 C   0  0  0  0  0  0  0  0  0  0  0  0
   50.8788    9.1410   13.0649 C   0  0  0  0  0  0  0  0  0  0  0  0
   54.6977    6.0275    7.9880 C   0  0  0  0  0  0  0  0  0  0  0  0
   47.9219   13.4770   18.9483 C   0  0  0  0  0  0  0  0  0  0  0  0
   55.5093    7.1299    8.2170 C   0  0  0  0  0  0  0  0  0  0  0  0
   53.7417    5.6396    8.9201 C   0  0  0  0  0  0  0  0  0  0  0  0
   54.8377    5.3272    6.8557 F   0  0  0  0  0  0  0  0  0  0  0  0
   46.9409   11.1460   20.1441 C   0  0  0  0  0  0  0  0  0  0  0  0
   47.3290   13.5358   20.2103 C   0  0  0  0  0  0  0  0  0  0  0  0
   46.8394   12.3719   20.8065 C   0  0  0  0  0  0  0  0  0  0  0  0
   47.3201    9.0186   18.6487 H   0  0  0  0  0  0  0  0  0  0  0  0
   48.7278    9.9725   14.4889 H   0  0  0  0  0  0  0  0  0  0  0  0
   49.1404   11.6869   14.4780 H   0  0  0  0  0  0  0  0  0  0  0  0
   53.0397    7.0002   12.7450 H   0  0  0  0  0  0  0  0  0  0  0  0
   51.2419   11.2302   15.7009 H   0  0  0  0  0  0  0  0  0  0  0  0
   50.8974    9.5091   15.7655 H   0  0  0  0  0  0  0  0  0  0  0  0
   52.8383    6.0300   10.8138 H   0  0  0  0  0  0  0  0  0  0  0  0
   55.9998    8.7221    9.5729 H   0  0  0  0  0  0  0  0  0  0  0  0
   54.5009    8.6786   14.1743 H   0  0  0  0  0  0  0  0  0  0  0  0
   52.9430    8.1031   14.7315 H   0  0  0  0  0  0  0  0  0  0  0  0
   51.3256    7.8676   11.3888 H   0  0  0  0  0  0  0  0  0  0  0  0
   52.0428    9.4626   11.2784 H   0  0  0  0  0  0  0  0  0  0  0  0
   53.2373   10.5927   14.9728 H   0  0  0  0  0  0  0  0  0  0  0  0
   53.3829   10.7371   13.2417 H   0  0  0  0  0  0  0  0  0  0  0  0
   49.9561    9.4857   12.5844 H   0  0  0  0  0  0  0  0  0  0  0  0
   50.6125    8.2909   13.7075 H   0  0  0  0  0  0  0  0  0  0  0  0
   48.3051   14.3838   18.4850 H   0  0  0  0  0  0  0  0  0  0  0  0
   56.2522    7.4171    7.4792 H   0  0  0  0  0  0  0  0  0  0  0  0
   53.1213    4.7715    8.7184 H   0  0  0  0  0  0  0  0  0  0  0  0
   46.5570   10.2492   20.6226 H   0  0  0  0  0  0  0  0  0  0  0  0
   47.2501   14.4887   20.7287 H   0  0  0  0  0  0  0  0  0  0  0  0
   46.3787   12.4210   21.7908 H   0  0  0  0  0  0  0  0  0  0  0  0
  2  1  1  0
  3  1  1  0
  4  3  1  0
  5  2  1  0
  6  4  2  0
  7  1  1  0
  8 13  1  0
  9 15  1  0
 10  2  2  0
 11  3  2  0
 12  8  1  0
 13 19  1  0
 14  8  2  0
 15  7  1  0
 16 12  2  0
 17 12  1  0
 18 20  1  0
 19 21  1  0
 20  9  1  0
 21  9  1  0
 22 24  1  0
 23  4  1  0
 24 17  2  0
 25 16  1  0
 26 22  1  0
 27  6  1  0
 28 23  2  0
 29 28  1  0
  5  6  1  0
 18 13  1  0
 29 27  2  0
 25 22  2  0
  5 30  1  0
  7 31  1  0
  7 32  1  0
 13 33  1  0
 15 34  1  0
 15 35  1  0
 16 36  1  0
 17 37  1  0
 18 38  1  0
 18 39  1  0
 19 40  1  0
 19 41  1  0
 20 42  1  0
 20 43  1  0
 21 44  1  0
 21 45  1  0
 23 46  1  0
 24 47  1  0
 25 48  1  0
 27 49  1  0
 28 50  1  0
 29 51  1  0
M  END
> <Uni-Dock RESULT> 
ENERGY=   -3.743  LOWER_BOUND=    2.433  UPPER_BOUND=    2.904
INTER + INTRA:          -3.743
INTER:                  -3.743
INTRA:                   0.000
UNBOUND:                 0.000

$$$$

     RDKit          3D

 51 54  0  0  0  0  0  0  0  0999 V2000
   52.8666    9.5345   14.6612 N   0  0  0  0  0  0  0  0  0  0  0  0
   53.6406    9.2166   13.5568 C   0  0  0  0  0  0  0  0  0  0  0  0
   53.1136   10.6157   15.5046 C   0  0  0  0  0  0  0  0  0  0  0  0
   54.3504   11.3814   15.2562 C   0  0  0  0  0  0  0  0  0  0  0  0
   54.7682    9.9613   13.3606 N   0  0  0  0  0  0  0  0  0  0  0  0
   55.1498   11.0215   14.1774 C   0  0  0  0  0  0  0  0  0  0  0  0
   51.6450    8.7610   14.8766 C   0  0  0  0  0  0  0  0  0  0  0  0
   45.7160    7.1773   12.5622 C   0  0  0  0  0  0  0  0  0  0  0  0
   49.1996    8.5819   14.2172 N   0  0  0  0  0  0  0  0  0  0  0  0
   53.3649    8.3241   12.7555 O   0  0  0  0  0  0  0  0  0  0  0  0
   52.3675   10.9639   16.4163 O   0  0  0  0  0  0  0  0  0  0  0  0
   45.0027    5.8811   12.3181 C   0  0  0  0  0  0  0  0  0  0  0  0
   47.2279    7.2711   12.3401 C   0  0  0  0  0  0  0  0  0  0  0  0
   45.0586    8.1405   12.9573 O   0  0  0  0  0  0  0  0  0  0  0  0
   50.4643    9.3271   14.0603 C   0  0  0  0  0  0  0  0  0  0  0  0
   45.6139    4.7751   11.7109 C   0  0  0  0  0  0  0  0  0  0  0  0
   43.6568    5.7854   12.7143 C   0  0  0  0  0  0  0  0  0  0  0  0
   47.6799    8.7394   12.2298 C   0  0  0  0  0  0  0  0  0  0  0  0
   47.9658    6.5459   13.4756 C   0  0  0  0  0  0  0  0  0  0  0  0
   48.0735    9.3003   13.5955 C   0  0  0  0  0  0  0  0  0  0  0  0
   49.3208    7.1875   13.7699 C   0  0  0  0  0  0  0  0  0  0  0  0
   43.5622    3.5194   11.9163 C   0  0  0  0  0  0  0  0  0  0  0  0
   54.7164   12.4525   16.0777 C   0  0  0  0  0  0  0  0  0  0  0  0
   42.9378    4.6050   12.5146 C   0  0  0  0  0  0  0  0  0  0  0  0
   44.8907    3.5938   11.5128 C   0  0  0  0  0  0  0  0  0  0  0  0
   42.8766    2.3858   11.7237 F   0  0  0  0  0  0  0  0  0  0  0  0
   56.3232   11.7251   13.9062 C   0  0  0  0  0  0  0  0  0  0  0  0
   55.8907   13.1577   15.8106 C   0  0  0  0  0  0  0  0  0  0  0  0
   56.6923   12.7940   14.7267 C   0  0  0  0  0  0  0  0  0  0  0  0
   55.3257    9.7029   12.5566 H   0  0  0  0  0  0  0  0  0  0  0  0
   51.8463    7.7212   14.5966 H   0  0  0  0  0  0  0  0  0  0  0  0
   51.3918    8.7645   15.9435 H   0  0  0  0  0  0  0  0  0  0  0  0
   47.4592    6.8121   11.3724 H   0  0  0  0  0  0  0  0  0  0  0  0
   50.3107   10.3617   14.3942 H   0  0  0  0  0  0  0  0  0  0  0  0
   50.7372    9.3846   12.9983 H   0  0  0  0  0  0  0  0  0  0  0  0
   46.6464    4.7993   11.3762 H   0  0  0  0  0  0  0  0  0  0  0  0
   43.1609    6.6337   13.1842 H   0  0  0  0  0  0  0  0  0  0  0  0
   46.9007    9.3651   11.7786 H   0  0  0  0  0  0  0  0  0  0  0  0
   48.5444    8.8022   11.5551 H   0  0  0  0  0  0  0  0  0  0  0  0
   48.1184    5.4945   13.2052 H   0  0  0  0  0  0  0  0  0  0  0  0
   47.3615    6.5371   14.3928 H   0  0  0  0  0  0  0  0  0  0  0  0
   48.2792   10.3741   13.5049 H   0  0  0  0  0  0  0  0  0  0  0  0
   47.2162    9.2279   14.2764 H   0  0  0  0  0  0  0  0  0  0  0  0
   49.8174    6.6012   14.5515 H   0  0  0  0  0  0  0  0  0  0  0  0
   49.9411    7.1155   12.8663 H   0  0  0  0  0  0  0  0  0  0  0  0
   54.0910   12.7376   16.9211 H   0  0  0  0  0  0  0  0  0  0  0  0
   41.8991    4.5298   12.8213 H   0  0  0  0  0  0  0  0  0  0  0  0
   45.3552    2.7313   11.0443 H   0  0  0  0  0  0  0  0  0  0  0  0
   56.9567   11.4561   13.0655 H   0  0  0  0  0  0  0  0  0  0  0  0
   56.1796   13.9912   16.4470 H   0  0  0  0  0  0  0  0  0  0  0  0
   57.6066   13.3464   14.5207 H   0  0  0  0  0  0  0  0  0  0  0  0
  2  1  1  0
  3  1  1  0
  4  3  1  0
  5  2  1  0
  6  4  2  0
  7  1  1  0
  8 13  1  0
  9 15  1  0
 10  2  2  0
 11  3  2  0
 12  8  1  0
 13 19  1  0
 14  8  2  0
 15  7  1  0
 16 12  2  0
 17 12  1  0
 18 20  1  0
 19 21  1  0
 20  9  1  0
 21  9  1  0
 22 24  1  0
 23  4  1  0
 24 17  2  0
 25 16  1  0
 26 22  1  0
 27  6  1  0
 28 23  2  0
 29 28  1  0
  5  6  1  0
 18 13  1  0
 29 27  2  0
 25 22  2  0
  5 30  1  0
  7 31  1  0
  7 32  1  0
 13 33  1  0
 15 34  1  0
 15 35  1  0
 16 36  1  0
 17 37  1  0
 18 38  1  0
 18 39  1  0
 19 40  1  0
 19 41  1  0
 20 42  1  0
 20 43  1  0
 21 44  1  0
 21 45  1  0
 23 46  1  0
 24 47  1  0
 25 48  1  0
 27 49  1  0
 28 50  1  0
 29 51  1  0
M  END
> <Uni-Dock RESULT> 
ENERGY=   -3.688  LOWER_BOUND=    5.428  UPPER_BOUND=    8.338
INTER + INTRA:          -3.688
INTER:                  -3.688
INTRA:                   0.000
UNBOUND:                 0.000

$$$$

     RDKit          3D

 51 54  0  0  0  0  0  0  0  0999 V2000
   51.7484    5.1453   17.9550 N   0  0  0  0  0  0  0  0  0  0  0  0
   51.2812    3.8743   17.6615 C   0  0  0  0  0  0  0  0  0  0  0  0
   53.0016    5.4111   18.5027 C   0  0  0  0  0  0  0  0  0  0  0  0
   53.8134    4.2439   18.8981 C   0  0  0  0  0  0  0  0  0  0  0  0
   52.0730    2.8263   18.0343 N   0  0  0  0  0  0  0  0  0  0  0  0
   53.3131    2.9710   18.6490 C   0  0  0  0  0  0  0  0  0  0  0  0
   50.9235    6.2807   17.5457 C   0  0  0  0  0  0  0  0  0  0  0  0
   48.3238    9.5999   12.5215 C   0  0  0  0  0  0  0  0  0  0  0  0
   50.3746    7.8053   15.5908 N   0  0  0  0  0  0  0  0  0  0  0  0
   50.2176    3.6466   17.0856 O   0  0  0  0  0  0  0  0  0  0  0  0
   53.4604    6.5397   18.6603 O   0  0  0  0  0  0  0  0  0  0  0  0
   46.9426   10.0817   12.1917 C   0  0  0  0  0  0  0  0  0  0  0  0
   48.5140    8.2701   13.2559 C   0  0  0  0  0  0  0  0  0  0  0  0
   49.2805   10.3063   12.2029 O   0  0  0  0  0  0  0  0  0  0  0  0
   51.1884    6.6736   16.0772 C   0  0  0  0  0  0  0  0  0  0  0  0
   45.7978    9.2889   12.3532 C   0  0  0  0  0  0  0  0  0  0  0  0
   46.8031   11.3885   11.6912 C   0  0  0  0  0  0  0  0  0  0  0  0
   49.9627    7.7654   13.1184 C   0  0  0  0  0  0  0  0  0  0  0  0
   48.1188    8.4305   14.7317 C   0  0  0  0  0  0  0  0  0  0  0  0
   50.8339    8.2668   14.2691 C   0  0  0  0  0  0  0  0  0  0  0  0
   48.9356    7.5118   15.6390 C   0  0  0  0  0  0  0  0  0  0  0  0
   44.4215   11.0969   11.5374 C   0  0  0  0  0  0  0  0  0  0  0  0
   55.0637    4.4031   19.5043 C   0  0  0  0  0  0  0  0  0  0  0  0
   45.5434   11.8958   11.3656 C   0  0  0  0  0  0  0  0  0  0  0  0
   44.5371    9.8004   12.0265 C   0  0  0  0  0  0  0  0  0  0  0  0
   43.2121   11.5798   11.2270 F   0  0  0  0  0  0  0  0  0  0  0  0
   54.0537    1.8430   19.0023 C   0  0  0  0  0  0  0  0  0  0  0  0
   55.8067    3.2769   19.8609 C   0  0  0  0  0  0  0  0  0  0  0  0
   55.3019    1.9993   19.6101 C   0  0  0  0  0  0  0  0  0  0  0  0
   51.7061    1.9072   17.8231 H   0  0  0  0  0  0  0  0  0  0  0  0
   49.8724    6.0078   17.6900 H   0  0  0  0  0  0  0  0  0  0  0  0
   51.1271    7.1369   18.1997 H   0  0  0  0  0  0  0  0  0  0  0  0
   47.8859    7.5175   12.7662 H   0  0  0  0  0  0  0  0  0  0  0  0
   52.2504    6.9427   16.0040 H   0  0  0  0  0  0  0  0  0  0  0  0
   51.0471    5.8016   15.4252 H   0  0  0  0  0  0  0  0  0  0  0  0
   45.8504    8.2701   12.7249 H   0  0  0  0  0  0  0  0  0  0  0  0
   47.6795   12.0205   11.5540 H   0  0  0  0  0  0  0  0  0  0  0  0
   50.4012    8.0648   12.1591 H   0  0  0  0  0  0  0  0  0  0  0  0
   49.9651    6.6670   13.1207 H   0  0  0  0  0  0  0  0  0  0  0  0
   47.0538    8.2024   14.8563 H   0  0  0  0  0  0  0  0  0  0  0  0
   48.2452    9.4710   15.0603 H   0  0  0  0  0  0  0  0  0  0  0  0
   51.8793    7.9897   14.0847 H   0  0  0  0  0  0  0  0  0  0  0  0
   50.8242    9.3639   14.2781 H   0  0  0  0  0  0  0  0  0  0  0  0
   48.5777    7.6360   16.6674 H   0  0  0  0  0  0  0  0  0  0  0  0
   48.7350    6.4716   15.3487 H   0  0  0  0  0  0  0  0  0  0  0  0
   55.4584    5.3983   19.6980 H   0  0  0  0  0  0  0  0  0  0  0  0
   45.4347   12.9050   10.9804 H   0  0  0  0  0  0  0  0  0  0  0  0
   43.6441    9.1948   12.1488 H   0  0  0  0  0  0  0  0  0  0  0  0
   53.6761    0.8422   18.8120 H   0  0  0  0  0  0  0  0  0  0  0  0
   56.7794    3.3959   20.3329 H   0  0  0  0  0  0  0  0  0  0  0  0
   55.8841    1.1235   19.8884 H   0  0  0  0  0  0  0  0  0  0  0  0
  2  1  1  0
  3  1  1  0
  4  3  1  0
  5  2  1  0
  6  4  2  0
  7  1  1  0
  8 13  1  0
  9 15  1  0
 10  2  2  0
 11  3  2  0
 12  8  1  0
 13 19  1  0
 14  8  2  0
 15  7  1  0
 16 12  2  0
 17 12  1  0
 18 20  1  0
 19 21  1  0
 20  9  1  0
 21  9  1  0
 22 24  1  0
 23  4  1  0
 24 17  2  0
 25 16  1  0
 26 22  1  0
 27  6  1  0
 28 23  2  0
 29 28  1  0
  5  6  1  0
 18 13  1  0
 29 27  2  0
 25 22  2  0
  5 30  1  0
  7 31  1  0
  7 32  1  0
 13 33  1  0
 15 34  1  0
 15 35  1  0
 16 36  1  0
 17 37  1  0
 18 38  1  0
 18 39  1  0
 19 40  1  0
 19 41  1  0
 20 42  1  0
 20 43  1  0
 21 44  1  0
 21 45  1  0
 23 46  1  0
 24 47  1  0
 25 48  1  0
 27 49  1  0
 28 50  1  0
 29 51  1  0
M  END
> <Uni-Dock RESULT> 
ENERGY=   -3.682  LOWER_BOUND=    5.236  UPPER_BOUND=    6.831
INTER + INTRA:          -3.682
INTER:                  -3.682
INTRA:                   0.000
UNBOUND:                 0.000

$$$$
