
     RDKit          3D

 51 54  0  0  0  0  0  0  0  0999 V2000
   46.8509   13.9135   11.4881 N   0  0  0  0  0  0  0  0  0  0  0  0
   46.4785   14.6085   10.3494 C   0  0  0  0  0  0  0  0  0  0  0  0
   47.0229   14.4995   12.7410 C   0  0  0  0  0  0  0  0  0  0  0  0
   46.9247   15.9701   12.8052 C   0  0  0  0  0  0  0  0  0  0  0  0
   46.3836   15.9665   10.4621 N   0  0  0  0  0  0  0  0  0  0  0  0
   46.6053   16.6653   11.6447 C   0  0  0  0  0  0  0  0  0  0  0  0
   46.9446   12.4576   11.4043 C   0  0  0  0  0  0  0  0  0  0  0  0
   45.1885    6.0951   12.2503 C   0  0  0  0  0  0  0  0  0  0  0  0
   45.6326   10.3092   11.6282 N   0  0  0  0  0  0  0  0  0  0  0  0
   46.2255   14.0805    9.2679 O   0  0  0  0  0  0  0  0  0  0  0  0
   47.2334   13.8649   13.7722 O   0  0  0  0  0  0  0  0  0  0  0  0
   45.0061    5.0458   11.1948 C   0  0  0  0  0  0  0  0  0  0  0  0
   45.5607    7.5199   11.8494 C   0  0  0  0  0  0  0  0  0  0  0  0
   45.0127    5.7815   13.4277 O   0  0  0  0  0  0  0  0  0  0  0  0
   45.5940   11.7816   11.7171 C   0  0  0  0  0  0  0  0  0  0  0  0
   45.2429    5.2825    9.8332 C   0  0  0  0  0  0  0  0  0  0  0  0
   44.5805    3.7691   11.6013 C   0  0  0  0  0  0  0  0  0  0  0  0
   46.1510    8.2863   13.0380 C   0  0  0  0  0  0  0  0  0  0  0  0
   44.3311    8.2625   11.2994 C   0  0  0  0  0  0  0  0  0  0  0  0
   46.5243    9.7207   12.6449 C   0  0  0  0  0  0  0  0  0  0  0  0
   44.2862    9.7392   11.7065 C   0  0  0  0  0  0  0  0  0  0  0  0
   44.6298    3.0052    9.3213 C   0  0  0  0  0  0  0  0  0  0  0  0
   47.1386   16.6588   14.0033 C   0  0  0  0  0  0  0  0  0  0  0  0
   44.3921    2.7499   10.6649 C   0  0  0  0  0  0  0  0  0  0  0  0
   45.0529    4.2595    8.8979 C   0  0  0  0  0  0  0  0  0  0  0  0
   44.4501    2.0308    8.4208 F   0  0  0  0  0  0  0  0  0  0  0  0
   46.4963   18.0557   11.6659 C   0  0  0  0  0  0  0  0  0  0  0  0
   47.0324   18.0502   14.0279 C   0  0  0  0  0  0  0  0  0  0  0  0
   46.7120   18.7467   12.8608 C   0  0  0  0  0  0  0  0  0  0  0  0
   46.1255   16.4544    9.6141 H   0  0  0  0  0  0  0  0  0  0  0  0
   47.7163   12.1196   12.1050 H   0  0  0  0  0  0  0  0  0  0  0  0
   47.2762   12.1718   10.3988 H   0  0  0  0  0  0  0  0  0  0  0  0
   46.3484    7.4743   11.0876 H   0  0  0  0  0  0  0  0  0  0  0  0
   45.2342   12.0958   12.7058 H   0  0  0  0  0  0  0  0  0  0  0  0
   44.8629   12.1617   10.9913 H   0  0  0  0  0  0  0  0  0  0  0  0
   45.5770    6.2477    9.4661 H   0  0  0  0  0  0  0  0  0  0  0  0
   44.3928    3.5618   12.6540 H   0  0  0  0  0  0  0  0  0  0  0  0
   47.0358    7.7689   13.4287 H   0  0  0  0  0  0  0  0  0  0  0  0
   45.4239    8.3156   13.8609 H   0  0  0  0  0  0  0  0  0  0  0  0
   43.3988    7.7821   11.6214 H   0  0  0  0  0  0  0  0  0  0  0  0
   44.3433    8.1957   10.2039 H   0  0  0  0  0  0  0  0  0  0  0  0
   47.5440    9.7192   12.2416 H   0  0  0  0  0  0  0  0  0  0  0  0
   46.5420   10.3222   13.5630 H   0  0  0  0  0  0  0  0  0  0  0  0
   43.6025   10.2528   11.0192 H   0  0  0  0  0  0  0  0  0  0  0  0
   43.8660    9.8522   12.7144 H   0  0  0  0  0  0  0  0  0  0  0  0
   47.3865   16.1166   14.9134 H   0  0  0  0  0  0  0  0  0  0  0  0
   44.0631    1.7639   10.9777 H   0  0  0  0  0  0  0  0  0  0  0  0
   45.2338    4.4341    7.8414 H   0  0  0  0  0  0  0  0  0  0  0  0
   46.2458   18.6122   10.7669 H   0  0  0  0  0  0  0  0  0  0  0  0
   47.1985   18.5909   14.9569 H   0  0  0  0  0  0  0  0  0  0  0  0
   46.6290   19.8312   12.8836 H   0  0  0  0  0  0  0  0  0  0  0  0
  2  1  1  0
  3  1  1  0
  4  3  1  0
  5  2  1  0
  6  4  2  0
  7  1  1  0
  8 13  1  0
  9 15  1  0
 10  2  2  0
 11  3  2  0
 12  8  1  0
 13 19  1  0
 14  8  2  0
 15  7  1  0
 16 12  2  0
 17 12  1  0
 18 20  1  0
 19 21  1  0
 20  9  1  0
 21  9  1  0
 22 24  1  0
 23  4  1  0
 24 17  2  0
 25 16  1  0
 26 22  1  0
 27  6  1  0
 28 23  2  0
 29 28  1  0
  5  6  1  0
 18 13  1  0
 29 27  2  0
 25 22  2  0
  5 30  1  0
  7 31  1  0
  7 32  1  0
 13 33  1  0
 15 34  1  0
 15 35  1  0
 16 36  1  0
 17 37  1  0
 18 38  1  0
 18 39  1  0
 19 40  1  0
 19 41  1  0
 20 42  1  0
 20 43  1  0
 21 44  1  0
 21 45  1  0
 23 46  1  0
 24 47  1  0
 25 48  1  0
 27 49  1  0
 28 50  1  0
 29 51  1  0
M  END
> <Uni-Dock RESULT> 
ENERGY=   -4.935  LOWER_BOUND=    0.000  UPPER_BOUND=    0.000
INTER + INTRA:          -4.935
INTER:                  -4.935
INTRA:                   0.000
UNBOUND:                 0.000

$$$$

     RDKit          3D

 51 54  0  0  0  0  0  0  0  0999 V2000
   53.0305    8.7338   15.3833 N   0  0  0  0  0  0  0  0  0  0  0  0
   54.0649    7.8455   15.1401 C   0  0  0  0  0  0  0  0  0  0  0  0
   53.2051   10.1019   15.5840 C   0  0  0  0  0  0  0  0  0  0  0  0
   54.5953   10.5885   15.6683 C   0  0  0  0  0  0  0  0  0  0  0  0
   55.3339    8.3458   15.2119 N   0  0  0  0  0  0  0  0  0  0  0  0
   55.6294    9.6792   15.4784 C   0  0  0  0  0  0  0  0  0  0  0  0
   51.6604    8.2328   15.2971 C   0  0  0  0  0  0  0  0  0  0  0  0
   45.6062    7.2111   12.7314 C   0  0  0  0  0  0  0  0  0  0  0  0
   49.7270    7.8310   13.7199 N   0  0  0  0  0  0  0  0  0  0  0  0
   53.9067    6.6584   14.8604 O   0  0  0  0  0  0  0  0  0  0  0  0
   52.2798   10.9053   15.6780 O   0  0  0  0  0  0  0  0  0  0  0  0
   44.9364    5.8981   12.4556 C   0  0  0  0  0  0  0  0  0  0  0  0
   47.0253    7.2375   13.2923 C   0  0  0  0  0  0  0  0  0  0  0  0
   44.9937    8.2483   12.4773 O   0  0  0  0  0  0  0  0  0  0  0  0
   51.1041    8.3414   13.8626 C   0  0  0  0  0  0  0  0  0  0  0  0
   45.5209    4.6621   12.7668 C   0  0  0  0  0  0  0  0  0  0  0  0
   43.6633    5.9200   11.8601 C   0  0  0  0  0  0  0  0  0  0  0  0
   47.3354    8.5949   13.9325 C   0  0  0  0  0  0  0  0  0  0  0  0
   48.0473    6.9293   12.1849 C   0  0  0  0  0  0  0  0  0  0  0  0
   48.7613    8.6315   14.4956 C   0  0  0  0  0  0  0  0  0  0  0  0
   49.3380    7.7456   12.3109 C   0  0  0  0  0  0  0  0  0  0  0  0
   43.5855    3.5164   11.8918 C   0  0  0  0  0  0  0  0  0  0  0  0
   54.8778   11.9337   15.9253 C   0  0  0  0  0  0  0  0  0  0  0  0
   42.9888    4.7298   11.5780 C   0  0  0  0  0  0  0  0  0  0  0  0
   44.8427    3.4719   12.4828 C   0  0  0  0  0  0  0  0  0  0  0  0
   42.9421    2.3735   11.6228 F   0  0  0  0  0  0  0  0  0  0  0  0
   56.9573   10.1013   15.5434 C   0  0  0  0  0  0  0  0  0  0  0  0
   56.2053   12.3593   15.9930 C   0  0  0  0  0  0  0  0  0  0  0  0
   57.2426   11.4441   15.8025 C   0  0  0  0  0  0  0  0  0  0  0  0
   56.0737    7.6757   15.0461 H   0  0  0  0  0  0  0  0  0  0  0  0
   51.0387    8.8037   15.9959 H   0  0  0  0  0  0  0  0  0  0  0  0
   51.6345    7.1866   15.6247 H   0  0  0  0  0  0  0  0  0  0  0  0
   47.0984    6.4925   14.0938 H   0  0  0  0  0  0  0  0  0  0  0  0
   51.1655    9.3799   13.5112 H   0  0  0  0  0  0  0  0  0  0  0  0
   51.7678    7.7586   13.2102 H   0  0  0  0  0  0  0  0  0  0  0  0
   46.4990    4.5883   13.2314 H   0  0  0  0  0  0  0  0  0  0  0  0
   43.1890    6.8686   11.6118 H   0  0  0  0  0  0  0  0  0  0  0  0
   46.6176    8.8167   14.7318 H   0  0  0  0  0  0  0  0  0  0  0  0
   47.2215    9.3936   13.1869 H   0  0  0  0  0  0  0  0  0  0  0  0
   47.6198    7.1018   11.1893 H   0  0  0  0  0  0  0  0  0  0  0  0
   48.2964    5.8612   12.2262 H   0  0  0  0  0  0  0  0  0  0  0  0
   48.7433    8.2418   15.5203 H   0  0  0  0  0  0  0  0  0  0  0  0
   49.0667    9.6842   14.5567 H   0  0  0  0  0  0  0  0  0  0  0  0
   50.1112    7.2381   11.7209 H   0  0  0  0  0  0  0  0  0  0  0  0
   49.2108    8.7446   11.8737 H   0  0  0  0  0  0  0  0  0  0  0  0
   54.0701   12.6476   16.0720 H   0  0  0  0  0  0  0  0  0  0  0  0
   42.0058    4.7455   11.1178 H   0  0  0  0  0  0  0  0  0  0  0  0
   45.2879    2.5102   12.7203 H   0  0  0  0  0  0  0  0  0  0  0  0
   57.7758    9.4021   15.3955 H   0  0  0  0  0  0  0  0  0  0  0  0
   56.4305   13.4044   16.1933 H   0  0  0  0  0  0  0  0  0  0  0  0
   58.2762   11.7794   15.8551 H   0  0  0  0  0  0  0  0  0  0  0  0
  2  1  1  0
  3  1  1  0
  4  3  1  0
  5  2  1  0
  6  4  2  0
  7  1  1  0
  8 13  1  0
  9 15  1  0
 10  2  2  0
 11  3  2  0
 12  8  1  0
 13 19  1  0
 14  8  2  0
 15  7  1  0
 16 12  2  0
 17 12  1  0
 18 20  1  0
 19 21  1  0
 20  9  1  0
 21  9  1  0
 22 24  1  0
 23  4  1  0
 24 17  2  0
 25 16  1  0
 26 22  1  0
 27  6  1  0
 28 23  2  0
 29 28  1  0
  5  6  1  0
 18 13  1  0
 29 27  2  0
 25 22  2  0
  5 30  1  0
  7 31  1  0
  7 32  1  0
 13 33  1  0
 15 34  1  0
 15 35  1  0
 16 36  1  0
 17 37  1  0
 18 38  1  0
 18 39  1  0
 19 40  1  0
 19 41  1  0
 20 42  1  0
 20 43  1  0
 21 44  1  0
 21 45  1  0
 23 46  1  0
 24 47  1  0
 25 48  1  0
 27 49  1  0
 28 50  1  0
 29 51  1  0
M  END
> <Uni-Dock RESULT> 
ENERGY=   -4.532  LOWER_BOUND=    6.311  UPPER_BOUND=    7.616
INTER + INTRA:          -4.532
INTER:                  -4.532
INTRA:                   0.000
UNBOUND:                 0.000

$$$$

     RDKit          3D

 51 54  0  0  0  0  0  0  0  0999 V2000
   48.8452    7.6533   17.2737 N   0  0  0  0  0  0  0  0  0  0  0  0
   49.3486    6.7392   18.1843 C   0  0  0  0  0  0  0  0  0  0  0  0
   48.1189    8.7896   17.6261 C   0  0  0  0  0  0  0  0  0  0  0  0
   47.7656    8.9363   19.0509 C   0  0  0  0  0  0  0  0  0  0  0  0
   49.0090    6.9262   19.4941 N   0  0  0  0  0  0  0  0  0  0  0  0
   48.2283    7.9834   19.9510 C   0  0  0  0  0  0  0  0  0  0  0  0
   49.2046    7.4904   15.8667 C   0  0  0  0  0  0  0  0  0  0  0  0
   52.3395    8.6636   10.1154 C   0  0  0  0  0  0  0  0  0  0  0  0
   50.9319    8.0772   14.1176 N   0  0  0  0  0  0  0  0  0  0  0  0
   50.0763    5.7938   17.8858 O   0  0  0  0  0  0  0  0  0  0  0  0
   47.7789    9.6611   16.8291 O   0  0  0  0  0  0  0  0  0  0  0  0
   53.1444    7.6994    9.2962 C   0  0  0  0  0  0  0  0  0  0  0  0
   51.7245    8.2099   11.4365 C   0  0  0  0  0  0  0  0  0  0  0  0
   52.2090    9.8172    9.7058 O   0  0  0  0  0  0  0  0  0  0  0  0
   50.5164    8.2265   15.5256 C   0  0  0  0  0  0  0  0  0  0  0  0
   53.3010    6.3493    9.6407 C   0  0  0  0  0  0  0  0  0  0  0  0
   53.7632    8.1822    8.1299 C   0  0  0  0  0  0  0  0  0  0  0  0
   50.5898    9.1477   11.8625 C   0  0  0  0  0  0  0  0  0  0  0  0
   52.7984    8.1457   12.5358 C   0  0  0  0  0  0  0  0  0  0  0  0
   49.9686    8.7012   13.1915 C   0  0  0  0  0  0  0  0  0  0  0  0
   52.2850    8.5957   13.9078 C   0  0  0  0  0  0  0  0  0  0  0  0
   54.6713    6.0000    7.6851 C   0  0  0  0  0  0  0  0  0  0  0  0
   46.9898   10.0104   19.4981 C   0  0  0  0  0  0  0  0  0  0  0  0
   54.5265    7.3329    7.3255 C   0  0  0  0  0  0  0  0  0  0  0  0
   54.0664    5.5014    8.8328 C   0  0  0  0  0  0  0  0  0  0  0  0
   55.4024    5.1830    6.9165 F   0  0  0  0  0  0  0  0  0  0  0  0
   47.9216    8.0906   21.3075 C   0  0  0  0  0  0  0  0  0  0  0  0
   46.6792   10.1198   20.8544 C   0  0  0  0  0  0  0  0  0  0  0  0
   47.1445    9.1611   21.7568 C   0  0  0  0  0  0  0  0  0  0  0  0
   49.3752    6.2377   20.1389 H   0  0  0  0  0  0  0  0  0  0  0  0
   48.3795    7.8686   15.2528 H   0  0  0  0  0  0  0  0  0  0  0  0
   49.3108    6.4227   15.6398 H   0  0  0  0  0  0  0  0  0  0  0  0
   51.2719    7.2216   11.2904 H   0  0  0  0  0  0  0  0  0  0  0  0
   50.4329    9.2891   15.7892 H   0  0  0  0  0  0  0  0  0  0  0  0
   51.3009    7.8123   16.1727 H   0  0  0  0  0  0  0  0  0  0  0  0
   52.8412    5.9241   10.5270 H   0  0  0  0  0  0  0  0  0  0  0  0
   53.6533    9.2267    7.8416 H   0  0  0  0  0  0  0  0  0  0  0  0
   49.8138    9.1897   11.0884 H   0  0  0  0  0  0  0  0  0  0  0  0
   50.9728   10.1717   11.9695 H   0  0  0  0  0  0  0  0  0  0  0  0
   53.6737    8.7528   12.2732 H   0  0  0  0  0  0  0  0  0  0  0  0
   53.1592    7.1120   12.6125 H   0  0  0  0  0  0  0  0  0  0  0  0
   49.1786    7.9705   12.9809 H   0  0  0  0  0  0  0  0  0  0  0  0
   49.4849    9.5775   13.6424 H   0  0  0  0  0  0  0  0  0  0  0  0
   52.9761    8.2059   14.6654 H   0  0  0  0  0  0  0  0  0  0  0  0
   52.3075    9.6901   13.9917 H   0  0  0  0  0  0  0  0  0  0  0  0
   46.6285   10.7586   18.7958 H   0  0  0  0  0  0  0  0  0  0  0  0
   55.0052    7.7047    6.4249 H   0  0  0  0  0  0  0  0  0  0  0  0
   54.1932    4.4545    9.0921 H   0  0  0  0  0  0  0  0  0  0  0  0
   48.2776    7.3541   22.0227 H   0  0  0  0  0  0  0  0  0  0  0  0
   46.0755   10.9528   21.2074 H   0  0  0  0  0  0  0  0  0  0  0  0
   46.9014    9.2499   22.8135 H   0  0  0  0  0  0  0  0  0  0  0  0
  2  1  1  0
  3  1  1  0
  4  3  1  0
  5  2  1  0
  6  4  2  0
  7  1  1  0
  8 13  1  0
  9 15  1  0
 10  2  2  0
 11  3  2  0
 12  8  1  0
 13 19  1  0
 14  8  2  0
 15  7  1  0
 16 12  2  0
 17 12  1  0
 18 20  1  0
 19 21  1  0
 20  9  1  0
 21  9  1  0
 22 24  1  0
 23  4  1  0
 24 17  2  0
 25 16  1  0
 26 22  1  0
 27  6  1  0
 28 23  2  0
 29 28  1  0
  5  6  1  0
 18 13  1  0
 29 27  2  0
 25 22  2  0
  5 30  1  0
  7 31  1  0
  7 32  1  0
 13 33  1  0
 15 34  1  0
 15 35  1  0
 16 36  1  0
 17 37  1  0
 18 38  1  0
 18 39  1  0
 19 40  1  0
 19 41  1  0
 20 42  1  0
 20 43  1  0
 21 44  1  0
 21 45  1  0
 23 46  1  0
 24 47  1  0
 25 48  1  0
 27 49  1  0
 28 50  1  0
 29 51  1  0
M  END
> <Uni-Dock RESULT> 
ENERGY=   -4.235  LOWER_BOUND=    7.418  UPPER_BOUND=    9.522
INTER + INTRA:          -4.235
INTER:                  -4.235
INTRA:                   0.000
UNBOUND:                 0.000

$$$$

     RDKit          3D

 51 54  0  0  0  0  0  0  0  0999 V2000
   52.0243    9.1053   10.6061 N   0  0  0  0  0  0  0  0  0  0  0  0
   52.8903   10.1337   10.2733 C   0  0  0  0  0  0  0  0  0  0  0  0
   52.1268    7.8059   10.1125 C   0  0  0  0  0  0  0  0  0  0  0  0
   53.1473    7.5687    9.0739 C   0  0  0  0  0  0  0  0  0  0  0  0
   53.8295    9.8616    9.3196 N   0  0  0  0  0  0  0  0  0  0  0  0
   53.9762    8.6218    8.7051 C   0  0  0  0  0  0  0  0  0  0  0  0
   51.0191    9.3598   11.6357 C   0  0  0  0  0  0  0  0  0  0  0  0
   48.1095    9.1445   17.6165 C   0  0  0  0  0  0  0  0  0  0  0  0
   50.5843    9.3067   14.1248 N   0  0  0  0  0  0  0  0  0  0  0  0
   52.8660   11.2519   10.7848 O   0  0  0  0  0  0  0  0  0  0  0  0
   51.4345    6.8677   10.5011 O   0  0  0  0  0  0  0  0  0  0  0  0
   47.6908   10.3004   18.4750 C   0  0  0  0  0  0  0  0  0  0  0  0
   48.8020    9.4012   16.2808 C   0  0  0  0  0  0  0  0  0  0  0  0
   47.8985    8.0023   18.0245 O   0  0  0  0  0  0  0  0  0  0  0  0
   51.5583    9.0483   13.0469 C   0  0  0  0  0  0  0  0  0  0  0  0
   47.8280   11.6376   18.0758 C   0  0  0  0  0  0  0  0  0  0  0  0
   47.1340   10.0181   19.7345 C   0  0  0  0  0  0  0  0  0  0  0  0
   48.7148    8.1692   15.3735 C   0  0  0  0  0  0  0  0  0  0  0  0
   50.2732    9.7907   16.5038 C   0  0  0  0  0  0  0  0  0  0  0  0
   49.4117    8.4172   14.0303 C   0  0  0  0  0  0  0  0  0  0  0  0
   51.2170    9.2159   15.4421 C   0  0  0  0  0  0  0  0  0  0  0  0
   46.8716   12.3693   20.1672 C   0  0  0  0  0  0  0  0  0  0  0  0
   53.2914    6.3143    8.4728 C   0  0  0  0  0  0  0  0  0  0  0  0
   46.7252   11.0521   20.5800 C   0  0  0  0  0  0  0  0  0  0  0  0
   47.4178   12.6708   18.9252 C   0  0  0  0  0  0  0  0  0  0  0  0
   46.4811   13.3631   20.9750 F   0  0  0  0  0  0  0  0  0  0  0  0
   54.9579    8.4359    7.7318 C   0  0  0  0  0  0  0  0  0  0  0  0
   54.2713    6.1251    7.4972 C   0  0  0  0  0  0  0  0  0  0  0  0
   55.1025    7.1846    7.1277 C   0  0  0  0  0  0  0  0  0  0  0  0
   54.4407   10.6320    9.0815 H   0  0  0  0  0  0  0  0  0  0  0  0
   50.1367    8.7482   11.4165 H   0  0  0  0  0  0  0  0  0  0  0  0
   50.7036   10.4089   11.5845 H   0  0  0  0  0  0  0  0  0  0  0  0
   48.2708   10.2076   15.7609 H   0  0  0  0  0  0  0  0  0  0  0  0
   51.9153    8.0111   13.0944 H   0  0  0  0  0  0  0  0  0  0  0  0
   52.4404    9.6824   13.2064 H   0  0  0  0  0  0  0  0  0  0  0  0
   48.2467   11.9109   17.1126 H   0  0  0  0  0  0  0  0  0  0  0  0
   47.0157    8.9868   20.0644 H   0  0  0  0  0  0  0  0  0  0  0  0
   47.6677    7.8920   15.2001 H   0  0  0  0  0  0  0  0  0  0  0  0
   49.1827    7.3075   15.8689 H   0  0  0  0  0  0  0  0  0  0  0  0
   50.6239    9.4720   17.4933 H   0  0  0  0  0  0  0  0  0  0  0  0
   50.3506   10.8855   16.4935 H   0  0  0  0  0  0  0  0  0  0  0  0
   48.6922    8.8765   13.3420 H   0  0  0  0  0  0  0  0  0  0  0  0
   49.6799    7.4390   13.6104 H   0  0  0  0  0  0  0  0  0  0  0  0
   52.1456    9.7993   15.4720 H   0  0  0  0  0  0  0  0  0  0  0  0
   51.4866    8.1790   15.6816 H   0  0  0  0  0  0  0  0  0  0  0  0
   52.6453    5.4880    8.7615 H   0  0  0  0  0  0  0  0  0  0  0  0
   46.2955   10.8353   21.5529 H   0  0  0  0  0  0  0  0  0  0  0  0
   47.5204   13.7092   18.6243 H   0  0  0  0  0  0  0  0  0  0  0  0
   55.6139    9.2496    7.4346 H   0  0  0  0  0  0  0  0  0  0  0  0
   54.3872    5.1517    7.0260 H   0  0  0  0  0  0  0  0  0  0  0  0
   55.8659    7.0335    6.3675 H   0  0  0  0  0  0  0  0  0  0  0  0
  2  1  1  0
  3  1  1  0
  4  3  1  0
  5  2  1  0
  6  4  2  0
  7  1  1  0
  8 13  1  0
  9 15  1  0
 10  2  2  0
 11  3  2  0
 12  8  1  0
 13 19  1  0
 14  8  2  0
 15  7  1  0
 16 12  2  0
 17 12  1  0
 18 20  1  0
 19 21  1  0
 20  9  1  0
 21  9  1  0
 22 24  1  0
 23  4  1  0
 24 17  2  0
 25 16  1  0
 26 22  1  0
 27  6  1  0
 28 23  2  0
 29 28  1  0
  5  6  1  0
 18 13  1  0
 29 27  2  0
 25 22  2  0
  5 30  1  0
  7 31  1  0
  7 32  1  0
 13 33  1  0
 15 34  1  0
 15 35  1  0
 16 36  1  0
 17 37  1  0
 18 38  1  0
 18 39  1  0
 19 40  1  0
 19 41  1  0
 20 42  1  0
 20 43  1  0
 21 44  1  0
 21 45  1  0
 23 46  1  0
 24 47  1  0
 25 48  1  0
 27 49  1  0
 28 50  1  0
 29 51  1  0
M  END
> <Uni-Dock RESULT> 
ENERGY=   -4.204  LOWER_BOUND=    7.419  UPPER_BOUND=   10.219
INTER + INTRA:          -4.204
INTER:                  -4.204
INTRA:                   0.000
UNBOUND:                 0.000

$$$$

     RDKit          3D

 51 54  0  0  0  0  0  0  0  0999 V2000
   46.6214   13.1030   11.6019 N   0  0  0  0  0  0  0  0  0  0  0  0
   45.4891   12.8912   10.8329 C   0  0  0  0  0  0  0  0  0  0  0  0
   46.6318   13.8172   12.7987 C   0  0  0  0  0  0  0  0  0  0  0  0
   45.3756   14.4895   13.1816 C   0  0  0  0  0  0  0  0  0  0  0  0
   44.3458   13.5202   11.2367 N   0  0  0  0  0  0  0  0  0  0  0  0
   44.2576   14.3172   12.3738 C   0  0  0  0  0  0  0  0  0  0  0  0
   47.8565   12.4300   11.2056 C   0  0  0  0  0  0  0  0  0  0  0  0
   52.7711    7.9462   11.3567 C   0  0  0  0  0  0  0  0  0  0  0  0
   49.1955   10.3015   11.4581 N   0  0  0  0  0  0  0  0  0  0  0  0
   45.4552   12.1761    9.8329 O   0  0  0  0  0  0  0  0  0  0  0  0
   47.6088   13.9005   13.5395 O   0  0  0  0  0  0  0  0  0  0  0  0
   53.2142    7.0334   10.2526 C   0  0  0  0  0  0  0  0  0  0  0  0
   51.5889    8.8862   11.1375 C   0  0  0  0  0  0  0  0  0  0  0  0
   53.3677    7.9004   12.4326 O   0  0  0  0  0  0  0  0  0  0  0  0
   47.9712   11.0299   11.8425 C   0  0  0  0  0  0  0  0  0  0  0  0
   52.6442    7.0510    8.9717 C   0  0  0  0  0  0  0  0  0  0  0  0
   54.2515    6.1247   10.5253 C   0  0  0  0  0  0  0  0  0  0  0  0
   51.5994   10.0266   12.1612 C   0  0  0  0  0  0  0  0  0  0  0  0
   50.2628    8.1115   11.2224 C   0  0  0  0  0  0  0  0  0  0  0  0
   50.4122   10.9741   11.9505 C   0  0  0  0  0  0  0  0  0  0  0  0
   49.1419    8.9068   11.9003 C   0  0  0  0  0  0  0  0  0  0  0  0
   54.1288    5.2799    8.2768 C   0  0  0  0  0  0  0  0  0  0  0  0
   45.2981   15.2784   14.3337 C   0  0  0  0  0  0  0  0  0  0  0  0
   54.7079    5.2483    9.5380 C   0  0  0  0  0  0  0  0  0  0  0  0
   53.1035    6.1717    7.9852 C   0  0  0  0  0  0  0  0  0  0  0  0
   54.5635    4.4412    7.3280 F   0  0  0  0  0  0  0  0  0  0  0  0
   43.0497   14.9307   12.7055 C   0  0  0  0  0  0  0  0  0  0  0  0
   44.0916   15.8953   14.6677 C   0  0  0  0  0  0  0  0  0  0  0  0
   42.9699   15.7215   13.8544 C   0  0  0  0  0  0  0  0  0  0  0  0
   43.5354   13.3636   10.6513 H   0  0  0  0  0  0  0  0  0  0  0  0
   48.7035   13.0589   11.5020 H   0  0  0  0  0  0  0  0  0  0  0  0
   47.8883   12.3421   10.1129 H   0  0  0  0  0  0  0  0  0  0  0  0
   51.6923    9.3539   10.1509 H   0  0  0  0  0  0  0  0  0  0  0  0
   47.8979   11.1049   12.9355 H   0  0  0  0  0  0  0  0  0  0  0  0
   47.0969   10.4507   11.5170 H   0  0  0  0  0  0  0  0  0  0  0  0
   51.8446    7.7353    8.7066 H   0  0  0  0  0  0  0  0  0  0  0  0
   54.7107    6.0949   11.5125 H   0  0  0  0  0  0  0  0  0  0  0  0
   52.5376   10.5915   12.0988 H   0  0  0  0  0  0  0  0  0  0  0  0
   51.5558    9.6147   13.1786 H   0  0  0  0  0  0  0  0  0  0  0  0
   50.3901    7.1615   11.7561 H   0  0  0  0  0  0  0  0  0  0  0  0
   49.9464    7.8471   10.2052 H   0  0  0  0  0  0  0  0  0  0  0  0
   50.6987   11.7367   11.2166 H   0  0  0  0  0  0  0  0  0  0  0  0
   50.2300   11.4935   12.9002 H   0  0  0  0  0  0  0  0  0  0  0  0
   48.1883    8.4428   11.6192 H   0  0  0  0  0  0  0  0  0  0  0  0
   49.2194    8.8342   12.9930 H   0  0  0  0  0  0  0  0  0  0  0  0
   46.1713   15.4128   14.9687 H   0  0  0  0  0  0  0  0  0  0  0  0
   55.5085    4.5458    9.7475 H   0  0  0  0  0  0  0  0  0  0  0  0
   52.6677    6.1784    6.9905 H   0  0  0  0  0  0  0  0  0  0  0  0
   42.1672   14.8037   12.0843 H   0  0  0  0  0  0  0  0  0  0  0  0
   44.0261   16.5106   15.5622 H   0  0  0  0  0  0  0  0  0  0  0  0
   42.0307   16.2030   14.1181 H   0  0  0  0  0  0  0  0  0  0  0  0
  2  1  1  0
  3  1  1  0
  4  3  1  0
  5  2  1  0
  6  4  2  0
  7  1  1  0
  8 13  1  0
  9 15  1  0
 10  2  2  0
 11  3  2  0
 12  8  1  0
 13 19  1  0
 14  8  2  0
 15  7  1  0
 16 12  2  0
 17 12  1  0
 18 20  1  0
 19 21  1  0
 20  9  1  0
 21  9  1  0
 22 24  1  0
 23  4  1  0
 24 17  2  0
 25 16  1  0
 26 22  1  0
 27  6  1  0
 28 23  2  0
 29 28  1  0
  5  6  1  0
 18 13  1  0
 29 27  2  0
 25 22  2  0
  5 30  1  0
  7 31  1  0
  7 32  1  0
 13 33  1  0
 15 34  1  0
 15 35  1  0
 16 36  1  0
 17 37  1  0
 18 38  1  0
 18 39  1  0
 19 40  1  0
 19 41  1  0
 20 42  1  0
 20 43  1  0
 21 44  1  0
 21 45  1  0
 23 46  1  0
 24 47  1  0
 25 48  1  0
 27 49  1  0
 28 50  1  0
 29 51  1  0
M  END
> <Uni-Dock RESULT> 
ENERGY=   -4.114  LOWER_BOUND=    5.395  UPPER_BOUND=    5.957
INTER + INTRA:          -4.114
INTER:                  -4.114
INTRA:                   0.000
UNBOUND:                 0.000

$$$$

     RDKit          3D

 51 54  0  0  0  0  0  0  0  0999 V2000
   47.2565    7.3614   12.8738 N   0  0  0  0  0  0  0  0  0  0  0  0
   46.3112    6.4271   12.4842 C   0  0  0  0  0  0  0  0  0  0  0  0
   47.0655    8.7406   12.8104 C   0  0  0  0  0  0  0  0  0  0  0  0
   45.8253    9.2101   12.1639 C   0  0  0  0  0  0  0  0  0  0  0  0
   45.1717    6.9102   11.9065 N   0  0  0  0  0  0  0  0  0  0  0  0
   44.9064    8.2641   11.7249 C   0  0  0  0  0  0  0  0  0  0  0  0
   48.4793    6.8770   13.5106 C   0  0  0  0  0  0  0  0  0  0  0  0
   52.7841    5.5442   18.4069 C   0  0  0  0  0  0  0  0  0  0  0  0
   49.5183    6.2497   15.7274 N   0  0  0  0  0  0  0  0  0  0  0  0
   46.4352    5.2128   12.6347 O   0  0  0  0  0  0  0  0  0  0  0  0
   47.8543    9.5643   13.2684 O   0  0  0  0  0  0  0  0  0  0  0  0
   53.3752    4.2154   18.7721 C   0  0  0  0  0  0  0  0  0  0  0  0
   51.7765    5.6399   17.2645 C   0  0  0  0  0  0  0  0  0  0  0  0
   53.1164    6.5346   19.0583 O   0  0  0  0  0  0  0  0  0  0  0  0
   48.3139    6.7528   15.0392 C   0  0  0  0  0  0  0  0  0  0  0  0
   53.1121    3.0393   18.0555 C   0  0  0  0  0  0  0  0  0  0  0  0
   54.2332    4.1592   19.8842 C   0  0  0  0  0  0  0  0  0  0  0  0
   51.6651    7.0799   16.7523 C   0  0  0  0  0  0  0  0  0  0  0  0
   50.3977    5.1323   17.7196 C   0  0  0  0  0  0  0  0  0  0  0  0
   50.6515    7.1858   15.6064 C   0  0  0  0  0  0  0  0  0  0  0  0
   49.2340    5.9356   17.1290 C   0  0  0  0  0  0  0  0  0  0  0  0
   54.5393    1.7968   19.5531 C   0  0  0  0  0  0  0  0  0  0  0  0
   45.5663   10.5743   11.9983 C   0  0  0  0  0  0  0  0  0  0  0  0
   54.8143    2.9504   20.2745 C   0  0  0  0  0  0  0  0  0  0  0  0
   53.6955    1.8302   18.4492 C   0  0  0  0  0  0  0  0  0  0  0  0
   55.0944    0.6362   19.9243 F   0  0  0  0  0  0  0  0  0  0  0  0
   43.7189    8.6680   11.1150 C   0  0  0  0  0  0  0  0  0  0  0  0
   44.3799   10.9822   11.3867 C   0  0  0  0  0  0  0  0  0  0  0  0
   43.4585   10.0301   10.9458 C   0  0  0  0  0  0  0  0  0  0  0  0
   44.5026    6.2090   11.6159 H   0  0  0  0  0  0  0  0  0  0  0  0
   49.2939    7.5678   13.2659 H   0  0  0  0  0  0  0  0  0  0  0  0
   48.7475    5.9012   13.0880 H   0  0  0  0  0  0  0  0  0  0  0  0
   52.1432    5.0389   16.4236 H   0  0  0  0  0  0  0  0  0  0  0  0
   48.0043    7.7162   15.4652 H   0  0  0  0  0  0  0  0  0  0  0  0
   47.4842    6.0573   15.2222 H   0  0  0  0  0  0  0  0  0  0  0  0
   52.4614    3.0276   17.1869 H   0  0  0  0  0  0  0  0  0  0  0  0
   54.4537    5.0607   20.4544 H   0  0  0  0  0  0  0  0  0  0  0  0
   52.6428    7.4452   16.4147 H   0  0  0  0  0  0  0  0  0  0  0  0
   51.3549    7.7438   17.5706 H   0  0  0  0  0  0  0  0  0  0  0  0
   50.3107    5.1426   18.8133 H   0  0  0  0  0  0  0  0  0  0  0  0
   50.2944    4.0821   17.4178 H   0  0  0  0  0  0  0  0  0  0  0  0
   51.1670    6.9740   14.6621 H   0  0  0  0  0  0  0  0  0  0  0  0
   50.3107    8.2283   15.5606 H   0  0  0  0  0  0  0  0  0  0  0  0
   48.3284    5.3229   17.2175 H   0  0  0  0  0  0  0  0  0  0  0  0
   49.0565    6.8491   17.7116 H   0  0  0  0  0  0  0  0  0  0  0  0
   46.2830   11.3166   12.3432 H   0  0  0  0  0  0  0  0  0  0  0  0
   55.4767    2.9057   21.1333 H   0  0  0  0  0  0  0  0  0  0  0  0
   53.4972    0.9146   17.9001 H   0  0  0  0  0  0  0  0  0  0  0  0
   42.9907    7.9397   10.7683 H   0  0  0  0  0  0  0  0  0  0  0  0
   44.1738   12.0420   11.2548 H   0  0  0  0  0  0  0  0  0  0  0  0
   42.5343   10.3514   10.4703 H   0  0  0  0  0  0  0  0  0  0  0  0
  2  1  1  0
  3  1  1  0
  4  3  1  0
  5  2  1  0
  6  4  2  0
  7  1  1  0
  8 13  1  0
  9 15  1  0
 10  2  2  0
 11  3  2  0
 12  8  1  0
 13 19  1  0
 14  8  2  0
 15  7  1  0
 16 12  2  0
 17 12  1  0
 18 20  1  0
 19 21  1  0
 20  9  1  0
 21  9  1  0
 22 24  1  0
 23  4  1  0
 24 17  2  0
 25 16  1  0
 26 22  1  0
 27  6  1  0
 28 23  2  0
 29 28  1  0
  5  6  1  0
 18 13  1  0
 29 27  2  0
 25 22  2  0
  5 30  1  0
  7 31  1  0
  7 32  1  0
 13 33  1  0
 15 34  1  0
 15 35  1  0
 16 36  1  0
 17 37  1  0
 18 38  1  0
 18 39  1  0
 19 40  1  0
 19 41  1  0
 20 42  1  0
 20 43  1  0
 21 44  1  0
 21 45  1  0
 23 46  1  0
 24 47  1  0
 25 48  1  0
 27 49  1  0
 28 50  1  0
 29 51  1  0
M  END
> <Uni-Dock RESULT> 
ENERGY=   -4.070  LOWER_BOUND=    7.267  UPPER_BOUND=    9.537
INTER + INTRA:          -4.070
INTER:                  -4.070
INTRA:                   0.000
UNBOUND:                 0.000

$$$$

     RDKit          3D

 51 54  0  0  0  0  0  0  0  0999 V2000
   47.3873    8.0383   12.9741 N   0  0  0  0  0  0  0  0  0  0  0  0
   46.2332    7.2792   12.8738 C   0  0  0  0  0  0  0  0  0  0  0  0
   47.4509    9.4044   12.7048 C   0  0  0  0  0  0  0  0  0  0  0  0
   46.2330   10.0302   12.1556 C   0  0  0  0  0  0  0  0  0  0  0  0
   45.1265    7.9065   12.3764 N   0  0  0  0  0  0  0  0  0  0  0  0
   45.0943    9.2473   12.0056 C   0  0  0  0  0  0  0  0  0  0  0  0
   48.5839    7.4004   13.5188 C   0  0  0  0  0  0  0  0  0  0  0  0
   53.2950    5.8834   17.9668 C   0  0  0  0  0  0  0  0  0  0  0  0
   49.8307    6.8820   15.6551 N   0  0  0  0  0  0  0  0  0  0  0  0
   46.1497    6.0989   13.2092 O   0  0  0  0  0  0  0  0  0  0  0  0
   48.4436   10.0989   12.9109 O   0  0  0  0  0  0  0  0  0  0  0  0
   53.6773    4.5237   18.4704 C   0  0  0  0  0  0  0  0  0  0  0  0
   52.1523    6.0297   16.9657 C   0  0  0  0  0  0  0  0  0  0  0  0
   53.9080    6.8622   18.3933 O   0  0  0  0  0  0  0  0  0  0  0  0
   48.6472    7.5271   15.0547 C   0  0  0  0  0  0  0  0  0  0  0  0
   53.0859    3.3416   18.0025 C   0  0  0  0  0  0  0  0  0  0  0  0
   54.6776    4.4429   19.4548 C   0  0  0  0  0  0  0  0  0  0  0  0
   52.2320    7.3756   16.2372 C   0  0  0  0  0  0  0  0  0  0  0  0
   50.7946    5.8920   17.6753 C   0  0  0  0  0  0  0  0  0  0  0  0
   51.0848    7.5325   15.2317 C   0  0  0  0  0  0  0  0  0  0  0  0
   49.7226    6.8324   17.1144 C   0  0  0  0  0  0  0  0  0  0  0  0
   54.4773    2.0464   19.4892 C   0  0  0  0  0  0  0  0  0  0  0  0
   46.2113   11.3819   11.7978 C   0  0  0  0  0  0  0  0  0  0  0  0
   55.0767    3.2049   19.9640 C   0  0  0  0  0  0  0  0  0  0  0  0
   53.4879    2.1034   18.5148 C   0  0  0  0  0  0  0  0  0  0  0  0
   54.8572    0.8580   19.9751 F   0  0  0  0  0  0  0  0  0  0  0  0
   43.9210    9.8036   11.4962 C   0  0  0  0  0  0  0  0  0  0  0  0
   45.0397   11.9415   11.2859 C   0  0  0  0  0  0  0  0  0  0  0  0
   43.8971   11.1530   11.1355 C   0  0  0  0  0  0  0  0  0  0  0  0
   44.2997    7.3285   12.2976 H   0  0  0  0  0  0  0  0  0  0  0  0
   49.4633    7.8634   13.0573 H   0  0  0  0  0  0  0  0  0  0  0  0
   48.5924    6.3411   13.2352 H   0  0  0  0  0  0  0  0  0  0  0  0
   52.2591    5.2542   16.1975 H   0  0  0  0  0  0  0  0  0  0  0  0
   48.5967    8.5837   15.3490 H   0  0  0  0  0  0  0  0  0  0  0  0
   47.7423    7.0541   15.4587 H   0  0  0  0  0  0  0  0  0  0  0  0
   52.3131    3.3468   17.2405 H   0  0  0  0  0  0  0  0  0  0  0  0
   55.1524    5.3479   19.8314 H   0  0  0  0  0  0  0  0  0  0  0  0
   53.1933    7.4764   15.7185 H   0  0  0  0  0  0  0  0  0  0  0  0
   52.1881    8.1969   16.9654 H   0  0  0  0  0  0  0  0  0  0  0  0
   50.8888    6.0719   18.7535 H   0  0  0  0  0  0  0  0  0  0  0  0
   50.4488    4.8556   17.5707 H   0  0  0  0  0  0  0  0  0  0  0  0
   51.3921    7.0881   14.2776 H   0  0  0  0  0  0  0  0  0  0  0  0
   50.9428    8.6067   15.0558 H   0  0  0  0  0  0  0  0  0  0  0  0
   48.7444    6.4425   17.4220 H   0  0  0  0  0  0  0  0  0  0  0  0
   49.8162    7.8345   17.5531 H   0  0  0  0  0  0  0  0  0  0  0  0
   47.1007   11.9971   11.9164 H   0  0  0  0  0  0  0  0  0  0  0  0
   55.8487    3.1413   20.7245 H   0  0  0  0  0  0  0  0  0  0  0  0
   53.0353    1.1828   18.1583 H   0  0  0  0  0  0  0  0  0  0  0  0
   43.0229    9.2041   11.3748 H   0  0  0  0  0  0  0  0  0  0  0  0
   45.0176   12.9922   11.0054 H   0  0  0  0  0  0  0  0  0  0  0  0
   42.9852   11.5926   10.7370 H   0  0  0  0  0  0  0  0  0  0  0  0
  2  1  1  0
  3  1  1  0
  4  3  1  0
  5  2  1  0
  6  4  2  0
  7  1  1  0
  8 13  1  0
  9 15  1  0
 10  2  2  0
 11  3  2  0
 12  8  1  0
 13 19  1  0
 14  8  2  0
 15  7  1  0
 16 12  2  0
 17 12  1  0
 18 20  1  0
 19 21  1  0
 20  9  1  0
 21  9  1  0
 22 24  1  0
 23  4  1  0
 24 17  2  0
 25 16  1  0
 26 22  1  0
 27  6  1  0
 28 23  2  0
 29 28  1  0
  5  6  1  0
 18 13  1  0
 29 27  2  0
 25 22  2  0
  5 30  1  0
  7 31  1  0
  7 32  1  0
 13 33  1  0
 15 34  1  0
 15 35  1  0
 16 36  1  0
 17 37  1  0
 18 38  1  0
 18 39  1  0
 19 40  1  0
 19 41  1  0
 20 42  1  0
 20 43  1  0
 21 44  1  0
 21 45  1  0
 23 46  1  0
 24 47  1  0
 25 48  1  0
 27 49  1  0
 28 50  1  0
 29 51  1  0
M  END
> <Uni-Dock RESULT> 
ENERGY=   -4.032  LOWER_BOUND=    7.193  UPPER_BOUND=    9.237
INTER + INTRA:          -4.032
INTER:                  -4.032
INTRA:                   0.000
UNBOUND:                 0.000

$$$$

     RDKit          3D

 51 54  0  0  0  0  0  0  0  0999 V2000
   46.6072    7.1993   13.3320 N   0  0  0  0  0  0  0  0  0  0  0  0
   45.6432    7.9936   12.7337 C   0  0  0  0  0  0  0  0  0  0  0  0
   46.5947    5.8057   13.3127 C   0  0  0  0  0  0  0  0  0  0  0  0
   45.4043    5.1604   12.7269 C   0  0  0  0  0  0  0  0  0  0  0  0
   44.5681    7.3502   12.1895 N   0  0  0  0  0  0  0  0  0  0  0  0
   44.4144    5.9673   12.1781 C   0  0  0  0  0  0  0  0  0  0  0  0
   47.7781    7.8568   13.9083 C   0  0  0  0  0  0  0  0  0  0  0  0
   54.0836    9.9250   14.4023 C   0  0  0  0  0  0  0  0  0  0  0  0
   50.1025    8.7071   13.3971 N   0  0  0  0  0  0  0  0  0  0  0  0
   45.7050    9.2197   12.6593 O   0  0  0  0  0  0  0  0  0  0  0  0
   47.5112    5.1054   13.7369 O   0  0  0  0  0  0  0  0  0  0  0  0
   54.5773   11.3309   14.5699 C   0  0  0  0  0  0  0  0  0  0  0  0
   52.5872    9.6556   14.2692 C   0  0  0  0  0  0  0  0  0  0  0  0
   54.9096    9.0133   14.3567 O   0  0  0  0  0  0  0  0  0  0  0  0
   48.9028    8.0309   12.8672 C   0  0  0  0  0  0  0  0  0  0  0  0
   53.7187   12.4322   14.6965 C   0  0  0  0  0  0  0  0  0  0  0  0
   55.9668   11.5418   14.6031 C   0  0  0  0  0  0  0  0  0  0  0  0
   52.2651    8.1904   14.5824 C   0  0  0  0  0  0  0  0  0  0  0  0
   52.0999   10.0136   12.8549 C   0  0  0  0  0  0  0  0  0  0  0  0
   50.7635    7.9100   14.4473 C   0  0  0  0  0  0  0  0  0  0  0  0
   51.0352    9.0492   12.3216 C   0  0  0  0  0  0  0  0  0  0  0  0
   55.6210   13.9060   14.8778 C   0  0  0  0  0  0  0  0  0  0  0  0
   45.2682    3.7688   12.7118 C   0  0  0  0  0  0  0  0  0  0  0  0
   56.4879   12.8287   14.7564 C   0  0  0  0  0  0  0  0  0  0  0  0
   54.2439   13.7198   14.8497 C   0  0  0  0  0  0  0  0  0  0  0  0
   56.1169   15.1410   15.0248 F   0  0  0  0  0  0  0  0  0  0  0  0
   43.2769    5.3952   11.6087 C   0  0  0  0  0  0  0  0  0  0  0  0
   44.1305    3.1928   12.1447 C   0  0  0  0  0  0  0  0  0  0  0  0
   43.1369    4.0053   11.5945 C   0  0  0  0  0  0  0  0  0  0  0  0
   43.8695    7.9513   11.7720 H   0  0  0  0  0  0  0  0  0  0  0  0
   48.1279    7.2587   14.7572 H   0  0  0  0  0  0  0  0  0  0  0  0
   47.4867    8.8371   14.3041 H   0  0  0  0  0  0  0  0  0  0  0  0
   52.0559   10.2568   15.0169 H   0  0  0  0  0  0  0  0  0  0  0  0
   49.1716    7.0579   12.4351 H   0  0  0  0  0  0  0  0  0  0  0  0
   48.4940    8.6289   12.0420 H   0  0  0  0  0  0  0  0  0  0  0  0
   52.6388   12.3249   14.6825 H   0  0  0  0  0  0  0  0  0  0  0  0
   56.6527   10.7010   14.5089 H   0  0  0  0  0  0  0  0  0  0  0  0
   52.5991    7.9305   15.5944 H   0  0  0  0  0  0  0  0  0  0  0  0
   52.8178    7.5326   13.8980 H   0  0  0  0  0  0  0  0  0  0  0  0
   52.9336   10.0436   12.1423 H   0  0  0  0  0  0  0  0  0  0  0  0
   51.6826   11.0285   12.8752 H   0  0  0  0  0  0  0  0  0  0  0  0
   50.2772    8.1384   15.4031 H   0  0  0  0  0  0  0  0  0  0  0  0
   50.6418    6.8330   14.2732 H   0  0  0  0  0  0  0  0  0  0  0  0
   50.5150    9.5515   11.4966 H   0  0  0  0  0  0  0  0  0  0  0  0
   51.5017    8.1490   11.9003 H   0  0  0  0  0  0  0  0  0  0  0  0
   46.0427    3.1352   13.1388 H   0  0  0  0  0  0  0  0  0  0  0  0
   57.5606   12.9928   14.7817 H   0  0  0  0  0  0  0  0  0  0  0  0
   53.5864   14.5784   14.9484 H   0  0  0  0  0  0  0  0  0  0  0  0
   42.4957    6.0134   11.1746 H   0  0  0  0  0  0  0  0  0  0  0  0
   44.0192    2.1109   12.1310 H   0  0  0  0  0  0  0  0  0  0  0  0
   42.2518    3.5530   11.1523 H   0  0  0  0  0  0  0  0  0  0  0  0
  2  1  1  0
  3  1  1  0
  4  3  1  0
  5  2  1  0
  6  4  2  0
  7  1  1  0
  8 13  1  0
  9 15  1  0
 10  2  2  0
 11  3  2  0
 12  8  1  0
 13 19  1  0
 14  8  2  0
 15  7  1  0
 16 12  2  0
 17 12  1  0
 18 20  1  0
 19 21  1  0
 20  9  1  0
 21  9  1  0
 22 24  1  0
 23  4  1  0
 24 17  2  0
 25 16  1  0
 26 22  1  0
 27  6  1  0
 28 23  2  0
 29 28  1  0
  5  6  1  0
 18 13  1  0
 29 27  2  0
 25 22  2  0
  5 30  1  0
  7 31  1  0
  7 32  1  0
 13 33  1  0
 15 34  1  0
 15 35  1  0
 16 36  1  0
 17 37  1  0
 18 38  1  0
 18 39  1  0
 19 40  1  0
 19 41  1  0
 20 42  1  0
 20 43  1  0
 21 44  1  0
 21 45  1  0
 23 46  1  0
 24 47  1  0
 25 48  1  0
 27 49  1  0
 28 50  1  0
 29 51  1  0
M  END
> <Uni-Dock RESULT> 
ENERGY=   -3.934  LOWER_BOUND=    6.405  UPPER_BOUND=   11.019
INTER + INTRA:          -3.934
INTER:                  -3.934
INTRA:                   0.000
UNBOUND:                 0.000

$$$$
