
     RDKit          3D

 51 54  0  0  0  0  0  0  0  0999 V2000
   44.6495    3.9051    9.7613 N   0  0  0  0  0  0  0  0  0  0  0  0
   44.4544    2.5767   10.1024 C   0  0  0  0  0  0  0  0  0  0  0  0
   45.3864    4.3254    8.6562 C   0  0  0  0  0  0  0  0  0  0  0  0
   46.1144    3.2815    7.9087 C   0  0  0  0  0  0  0  0  0  0  0  0
   45.1181    1.6436    9.3585 N   0  0  0  0  0  0  0  0  0  0  0  0
   45.9537    1.9552    8.2911 C   0  0  0  0  0  0  0  0  0  0  0  0
   43.9913    4.9172   10.5847 C   0  0  0  0  0  0  0  0  0  0  0  0
   48.9506    7.5793   14.1112 C   0  0  0  0  0  0  0  0  0  0  0  0
   46.0527    5.3583   12.0280 N   0  0  0  0  0  0  0  0  0  0  0  0
   43.7162    2.1982   11.0124 O   0  0  0  0  0  0  0  0  0  0  0  0
   45.4421    5.4867    8.2560 O   0  0  0  0  0  0  0  0  0  0  0  0
   49.1991    8.4910   15.2733 C   0  0  0  0  0  0  0  0  0  0  0  0
   47.5617    7.5265   13.4763 C   0  0  0  0  0  0  0  0  0  0  0  0
   49.8778    6.8771   13.7107 O   0  0  0  0  0  0  0  0  0  0  0  0
   44.6097    5.0479   11.9976 C   0  0  0  0  0  0  0  0  0  0  0  0
   48.1636    9.0947   16.0006 C   0  0  0  0  0  0  0  0  0  0  0  0
   50.5315    8.7314   15.6494 C   0  0  0  0  0  0  0  0  0  0  0  0
   46.7020    6.4650   14.1799 C   0  0  0  0  0  0  0  0  0  0  0  0
   47.6561    7.2696   11.9627 C   0  0  0  0  0  0  0  0  0  0  0  0
   46.6298    5.1733   13.3670 C   0  0  0  0  0  0  0  0  0  0  0  0
   46.3526    6.6716   11.4362 C   0  0  0  0  0  0  0  0  0  0  0  0
   49.7858   10.1645   17.4313 C   0  0  0  0  0  0  0  0  0  0  0  0
   46.9438    3.6070    6.8304 C   0  0  0  0  0  0  0  0  0  0  0  0
   50.8243    9.5701   16.7272 C   0  0  0  0  0  0  0  0  0  0  0  0
   48.4607    9.9337   17.0795 C   0  0  0  0  0  0  0  0  0  0  0  0
   50.0625   10.9674   18.4664 F   0  0  0  0  0  0  0  0  0  0  0  0
   46.6168    0.9389    7.6029 C   0  0  0  0  0  0  0  0  0  0  0  0
   47.6112    2.5934    6.1410 C   0  0  0  0  0  0  0  0  0  0  0  0
   47.4474    1.2617    6.5271 C   0  0  0  0  0  0  0  0  0  0  0  0
   44.9763    0.6828    9.6404 H   0  0  0  0  0  0  0  0  0  0  0  0
   42.9381    4.6294   10.6931 H   0  0  0  0  0  0  0  0  0  0  0  0
   43.9989    5.8910   10.0838 H   0  0  0  0  0  0  0  0  0  0  0  0
   47.0871    8.5072   13.5996 H   0  0  0  0  0  0  0  0  0  0  0  0
   44.0476    5.8047   12.5599 H   0  0  0  0  0  0  0  0  0  0  0  0
   44.4447    4.0977   12.5192 H   0  0  0  0  0  0  0  0  0  0  0  0
   47.1188    8.9214   15.7627 H   0  0  0  0  0  0  0  0  0  0  0  0
   51.3493    8.2645   15.1020 H   0  0  0  0  0  0  0  0  0  0  0  0
   45.6868    6.8585   14.3197 H   0  0  0  0  0  0  0  0  0  0  0  0
   47.0851    6.2401   15.1823 H   0  0  0  0  0  0  0  0  0  0  0  0
   47.8670    8.2149   11.4475 H   0  0  0  0  0  0  0  0  0  0  0  0
   48.4872    6.5991   11.7111 H   0  0  0  0  0  0  0  0  0  0  0  0
   47.6445    4.7724   13.2462 H   0  0  0  0  0  0  0  0  0  0  0  0
   46.0882    4.4080   13.9363 H   0  0  0  0  0  0  0  0  0  0  0  0
   45.5440    7.3867   11.6378 H   0  0  0  0  0  0  0  0  0  0  0  0
   46.4310    6.5711   10.3506 H   0  0  0  0  0  0  0  0  0  0  0  0
   47.0715    4.6445    6.5292 H   0  0  0  0  0  0  0  0  0  0  0  0
   51.8526    9.7583   17.0192 H   0  0  0  0  0  0  0  0  0  0  0  0
   47.6669   10.4051   17.6512 H   0  0  0  0  0  0  0  0  0  0  0  0
   46.4988   -0.1020    7.8914 H   0  0  0  0  0  0  0  0  0  0  0  0
   48.2589    2.8426    5.3035 H   0  0  0  0  0  0  0  0  0  0  0  0
   47.9690    0.4739    5.9882 H   0  0  0  0  0  0  0  0  0  0  0  0
  2  1  1  0
  3  1  1  0
  4  3  1  0
  5  2  1  0
  6  4  2  0
  7  1  1  0
  8 13  1  0
  9 15  1  0
 10  2  2  0
 11  3  2  0
 12  8  1  0
 13 19  1  0
 14  8  2  0
 15  7  1  0
 16 12  2  0
 17 12  1  0
 18 20  1  0
 19 21  1  0
 20  9  1  0
 21  9  1  0
 22 24  1  0
 23  4  1  0
 24 17  2  0
 25 16  1  0
 26 22  1  0
 27  6  1  0
 28 23  2  0
 29 28  1  0
  5  6  1  0
 18 13  1  0
 29 27  2  0
 25 22  2  0
  5 30  1  0
  7 31  1  0
  7 32  1  0
 13 33  1  0
 15 34  1  0
 15 35  1  0
 16 36  1  0
 17 37  1  0
 18 38  1  0
 18 39  1  0
 19 40  1  0
 19 41  1  0
 20 42  1  0
 20 43  1  0
 21 44  1  0
 21 45  1  0
 23 46  1  0
 24 47  1  0
 25 48  1  0
 27 49  1  0
 28 50  1  0
 29 51  1  0
M  END
> <Uni-Dock RESULT> 
ENERGY=   -6.216  LOWER_BOUND=    0.000  UPPER_BOUND=    0.000
INTER + INTRA:          -6.216
INTER:                  -6.216
INTRA:                   0.000
UNBOUND:                 0.000

$$$$

     RDKit          3D

 51 54  0  0  0  0  0  0  0  0999 V2000
   49.8473   10.4260   16.4330 N   0  0  0  0  0  0  0  0  0  0  0  0
   50.5628    9.7257   17.3904 C   0  0  0  0  0  0  0  0  0  0  0  0
   48.7946   11.2906   16.7250 C   0  0  0  0  0  0  0  0  0  0  0  0
   48.3386   11.3299   18.1282 C   0  0  0  0  0  0  0  0  0  0  0  0
   50.1274    9.8227   18.6811 N   0  0  0  0  0  0  0  0  0  0  0  0
   49.0307   10.5828   19.0736 C   0  0  0  0  0  0  0  0  0  0  0  0
   50.2667   10.2857   15.0402 C   0  0  0  0  0  0  0  0  0  0  0  0
   45.5515    6.4738   12.3285 C   0  0  0  0  0  0  0  0  0  0  0  0
   48.5353    8.4864   14.5004 N   0  0  0  0  0  0  0  0  0  0  0  0
   51.5609    9.0467   17.1477 O   0  0  0  0  0  0  0  0  0  0  0  0
   48.2524   12.0304   15.9062 O   0  0  0  0  0  0  0  0  0  0  0  0
   45.2501    5.6969   11.0840 C   0  0  0  0  0  0  0  0  0  0  0  0
   46.7036    7.4776   12.3317 C   0  0  0  0  0  0  0  0  0  0  0  0
   44.8671    6.2636   13.3287 O   0  0  0  0  0  0  0  0  0  0  0  0
   49.9544    8.8899   14.4487 C   0  0  0  0  0  0  0  0  0  0  0  0
   46.1368    5.6237   10.0003 C   0  0  0  0  0  0  0  0  0  0  0  0
   44.0293    5.0041   11.0186 C   0  0  0  0  0  0  0  0  0  0  0  0
   48.0085    6.7790   12.7442 C   0  0  0  0  0  0  0  0  0  0  0  0
   46.3885    8.6767   13.2420 C   0  0  0  0  0  0  0  0  0  0  0  0
   48.3557    7.0577   14.2057 C   0  0  0  0  0  0  0  0  0  0  0  0
   47.6766    9.3648   13.6905 C   0  0  0  0  0  0  0  0  0  0  0  0
   44.5830    4.2049    8.8188 C   0  0  0  0  0  0  0  0  0  0  0  0
   47.2404   12.1065   18.5121 C   0  0  0  0  0  0  0  0  0  0  0  0
   43.6953    4.2602    9.8848 C   0  0  0  0  0  0  0  0  0  0  0  0
   45.7990    4.8773    8.8667 C   0  0  0  0  0  0  0  0  0  0  0  0
   44.2673    3.4910    7.7309 F   0  0  0  0  0  0  0  0  0  0  0  0
   48.6367   10.6019   20.4118 C   0  0  0  0  0  0  0  0  0  0  0  0
   46.8413   12.1262   19.8494 C   0  0  0  0  0  0  0  0  0  0  0  0
   47.5389   11.3749   20.7972 C   0  0  0  0  0  0  0  0  0  0  0  0
   50.6530    9.2857   19.3579 H   0  0  0  0  0  0  0  0  0  0  0  0
   51.3516   10.4445   14.9982 H   0  0  0  0  0  0  0  0  0  0  0  0
   49.8130   11.0636   14.4172 H   0  0  0  0  0  0  0  0  0  0  0  0
   46.8190    7.8756   11.3166 H   0  0  0  0  0  0  0  0  0  0  0  0
   50.3207    8.8551   13.4145 H   0  0  0  0  0  0  0  0  0  0  0  0
   50.5479    8.1552   15.0056 H   0  0  0  0  0  0  0  0  0  0  0  0
   47.1008    6.1224   10.0132 H   0  0  0  0  0  0  0  0  0  0  0  0
   43.3312    5.0419   11.8539 H   0  0  0  0  0  0  0  0  0  0  0  0
   48.8265    7.1377   12.1060 H   0  0  0  0  0  0  0  0  0  0  0  0
   47.9490    5.6954   12.5873 H   0  0  0  0  0  0  0  0  0  0  0  0
   45.7561    9.3886   12.6972 H   0  0  0  0  0  0  0  0  0  0  0  0
   45.8120    8.3799   14.1271 H   0  0  0  0  0  0  0  0  0  0  0  0
   47.5448    6.6799   14.8419 H   0  0  0  0  0  0  0  0  0  0  0  0
   49.2381    6.4735   14.4940 H   0  0  0  0  0  0  0  0  0  0  0  0
   48.2063    9.7134   12.7940 H   0  0  0  0  0  0  0  0  0  0  0  0
   47.4114   10.2508   14.2733 H   0  0  0  0  0  0  0  0  0  0  0  0
   46.6967   12.6921   17.7739 H   0  0  0  0  0  0  0  0  0  0  0  0
   42.7525    3.7250    9.8313 H   0  0  0  0  0  0  0  0  0  0  0  0
   46.4787    4.8119    8.0224 H   0  0  0  0  0  0  0  0  0  0  0  0
   49.1700   10.0229   21.1608 H   0  0  0  0  0  0  0  0  0  0  0  0
   45.9863   12.7269   20.1515 H   0  0  0  0  0  0  0  0  0  0  0  0
   47.2254   11.3920   21.8386 H   0  0  0  0  0  0  0  0  0  0  0  0
  2  1  1  0
  3  1  1  0
  4  3  1  0
  5  2  1  0
  6  4  2  0
  7  1  1  0
  8 13  1  0
  9 15  1  0
 10  2  2  0
 11  3  2  0
 12  8  1  0
 13 19  1  0
 14  8  2  0
 15  7  1  0
 16 12  2  0
 17 12  1  0
 18 20  1  0
 19 21  1  0
 20  9  1  0
 21  9  1  0
 22 24  1  0
 23  4  1  0
 24 17  2  0
 25 16  1  0
 26 22  1  0
 27  6  1  0
 28 23  2  0
 29 28  1  0
  5  6  1  0
 18 13  1  0
 29 27  2  0
 25 22  2  0
  5 30  1  0
  7 31  1  0
  7 32  1  0
 13 33  1  0
 15 34  1  0
 15 35  1  0
 16 36  1  0
 17 37  1  0
 18 38  1  0
 18 39  1  0
 19 40  1  0
 19 41  1  0
 20 42  1  0
 20 43  1  0
 21 44  1  0
 21 45  1  0
 23 46  1  0
 24 47  1  0
 25 48  1  0
 27 49  1  0
 28 50  1  0
 29 51  1  0
M  END
> <Uni-Dock RESULT> 
ENERGY=   -4.523  LOWER_BOUND=    4.315  UPPER_BOUND=   10.532
INTER + INTRA:          -4.523
INTER:                  -4.523
INTRA:                   0.000
UNBOUND:                 0.000

$$$$

     RDKit          3D

 51 54  0  0  0  0  0  0  0  0999 V2000
   47.5707   11.8865   20.8811 N   0  0  0  0  0  0  0  0  0  0  0  0
   47.7322   12.9301   19.9846 C   0  0  0  0  0  0  0  0  0  0  0  0
   48.1113   11.8719   22.1651 C   0  0  0  0  0  0  0  0  0  0  0  0
   49.0282   12.9756   22.5110 C   0  0  0  0  0  0  0  0  0  0  0  0
   48.5597   13.9482   20.3635 N   0  0  0  0  0  0  0  0  0  0  0  0
   49.2249   13.9921   21.5842 C   0  0  0  0  0  0  0  0  0  0  0  0
   46.7338   10.7629   20.4656 C   0  0  0  0  0  0  0  0  0  0  0  0
   51.0848    5.8911   19.2603 C   0  0  0  0  0  0  0  0  0  0  0  0
   48.7059    9.3284   19.7040 N   0  0  0  0  0  0  0  0  0  0  0  0
   47.1679   12.9961   18.8920 O   0  0  0  0  0  0  0  0  0  0  0  0
   47.8528   11.0277   23.0208 O   0  0  0  0  0  0  0  0  0  0  0  0
   51.1702    4.5262   18.6497 C   0  0  0  0  0  0  0  0  0  0  0  0
   49.7161    6.4931   19.5756 C   0  0  0  0  0  0  0  0  0  0  0  0
   52.1307    6.5022   19.4739 O   0  0  0  0  0  0  0  0  0  0  0  0
   47.3858    9.8943   19.3627 C   0  0  0  0  0  0  0  0  0  0  0  0
   50.0638    3.8755   18.0854 C   0  0  0  0  0  0  0  0  0  0  0  0
   52.4219    3.8877   18.6350 C   0  0  0  0  0  0  0  0  0  0  0  0
   49.1910    7.2711   18.3590 C   0  0  0  0  0  0  0  0  0  0  0  0
   49.7783    7.3777   20.8323 C   0  0  0  0  0  0  0  0  0  0  0  0
   49.3917    8.7764   18.5271 C   0  0  0  0  0  0  0  0  0  0  0  0
   48.6340    8.3899   20.8349 C   0  0  0  0  0  0  0  0  0  0  0  0
   51.4548    1.9840   17.5280 C   0  0  0  0  0  0  0  0  0  0  0  0
   49.6834   13.0136   23.7462 C   0  0  0  0  0  0  0  0  0  0  0  0
   52.5630    2.6156   18.0760 C   0  0  0  0  0  0  0  0  0  0  0  0
   50.2092    2.6017   17.5262 C   0  0  0  0  0  0  0  0  0  0  0  0
   51.5866    0.7653   16.9892 F   0  0  0  0  0  0  0  0  0  0  0  0
   50.0758   15.0578   21.8783 C   0  0  0  0  0  0  0  0  0  0  0  0
   50.5377   14.0765   24.0433 C   0  0  0  0  0  0  0  0  0  0  0  0
   50.7330   15.0968   23.1103 C   0  0  0  0  0  0  0  0  0  0  0  0
   48.6779   14.6873   19.6836 H   0  0  0  0  0  0  0  0  0  0  0  0
   45.7935   11.1709   20.0741 H   0  0  0  0  0  0  0  0  0  0  0  0
   46.4690   10.1368   21.3241 H   0  0  0  0  0  0  0  0  0  0  0  0
   49.0217    5.6751   19.8012 H   0  0  0  0  0  0  0  0  0  0  0  0
   46.6892    9.0918   19.0880 H   0  0  0  0  0  0  0  0  0  0  0  0
   47.4938   10.5213   18.4697 H   0  0  0  0  0  0  0  0  0  0  0  0
   49.0821    4.3372   18.0524 H   0  0  0  0  0  0  0  0  0  0  0  0
   53.2948    4.3808   19.0608 H   0  0  0  0  0  0  0  0  0  0  0  0
   48.1205    7.0633   18.2332 H   0  0  0  0  0  0  0  0  0  0  0  0
   49.6786    6.9427   17.4334 H   0  0  0  0  0  0  0  0  0  0  0  0
   49.7164    6.7433   21.7252 H   0  0  0  0  0  0  0  0  0  0  0  0
   50.7327    7.9132   20.9107 H   0  0  0  0  0  0  0  0  0  0  0  0
   50.4647    8.9821   18.6327 H   0  0  0  0  0  0  0  0  0  0  0  0
   49.0926    9.2941   17.6076 H   0  0  0  0  0  0  0  0  0  0  0  0
   47.6874    7.8337   20.8237 H   0  0  0  0  0  0  0  0  0  0  0  0
   48.6684    8.9493   21.7734 H   0  0  0  0  0  0  0  0  0  0  0  0
   49.5312   12.2189   24.4735 H   0  0  0  0  0  0  0  0  0  0  0  0
   53.5285    2.1197   18.0642 H   0  0  0  0  0  0  0  0  0  0  0  0
   49.3598    2.0891   17.0847 H   0  0  0  0  0  0  0  0  0  0  0  0
   50.2374   15.8592   21.1626 H   0  0  0  0  0  0  0  0  0  0  0  0
   51.0509   14.1085   25.0018 H   0  0  0  0  0  0  0  0  0  0  0  0
   51.3996   15.9238   23.3444 H   0  0  0  0  0  0  0  0  0  0  0  0
  2  1  1  0
  3  1  1  0
  4  3  1  0
  5  2  1  0
  6  4  2  0
  7  1  1  0
  8 13  1  0
  9 15  1  0
 10  2  2  0
 11  3  2  0
 12  8  1  0
 13 19  1  0
 14  8  2  0
 15  7  1  0
 16 12  2  0
 17 12  1  0
 18 20  1  0
 19 21  1  0
 20  9  1  0
 21  9  1  0
 22 24  1  0
 23  4  1  0
 24 17  2  0
 25 16  1  0
 26 22  1  0
 27  6  1  0
 28 23  2  0
 29 28  1  0
  5  6  1  0
 18 13  1  0
 29 27  2  0
 25 22  2  0
  5 30  1  0
  7 31  1  0
  7 32  1  0
 13 33  1  0
 15 34  1  0
 15 35  1  0
 16 36  1  0
 17 37  1  0
 18 38  1  0
 18 39  1  0
 19 40  1  0
 19 41  1  0
 20 42  1  0
 20 43  1  0
 21 44  1  0
 21 45  1  0
 23 46  1  0
 24 47  1  0
 25 48  1  0
 27 49  1  0
 28 50  1  0
 29 51  1  0
M  END
> <Uni-Dock RESULT> 
ENERGY=   -4.419  LOWER_BOUND=    8.717  UPPER_BOUND=   12.912
INTER + INTRA:          -4.419
INTER:                  -4.419
INTRA:                   0.000
UNBOUND:                 0.000

$$$$

     RDKit          3D

 51 54  0  0  0  0  0  0  0  0999 V2000
   50.0267   11.8129   14.7886 N   0  0  0  0  0  0  0  0  0  0  0  0
   51.0650   11.3696   15.5912 C   0  0  0  0  0  0  0  0  0  0  0  0
   48.9182   12.5106   15.2635 C   0  0  0  0  0  0  0  0  0  0  0  0
   48.7946   12.6409   16.7285 C   0  0  0  0  0  0  0  0  0  0  0  0
   50.9240   11.5460   16.9379 N   0  0  0  0  0  0  0  0  0  0  0  0
   49.8172   12.1462   17.5289 C   0  0  0  0  0  0  0  0  0  0  0  0
   50.1378   11.5788   13.3504 C   0  0  0  0  0  0  0  0  0  0  0  0
   45.7792    6.7043   12.1842 C   0  0  0  0  0  0  0  0  0  0  0  0
   48.7199    9.4540   13.3934 N   0  0  0  0  0  0  0  0  0  0  0  0
   52.0959   10.8497   15.1630 O   0  0  0  0  0  0  0  0  0  0  0  0
   48.0688   13.0397   14.5491 O   0  0  0  0  0  0  0  0  0  0  0  0
   45.3626    5.7410   11.1157 C   0  0  0  0  0  0  0  0  0  0  0  0
   46.6800    7.8857   11.8266 C   0  0  0  0  0  0  0  0  0  0  0  0
   45.3955    6.5020   13.3353 O   0  0  0  0  0  0  0  0  0  0  0  0
   49.9816   10.0884   12.9630 C   0  0  0  0  0  0  0  0  0  0  0  0
   45.9763    5.6914    9.8560 C   0  0  0  0  0  0  0  0  0  0  0  0
   44.3207    4.8441   11.4063 C   0  0  0  0  0  0  0  0  0  0  0  0
   48.1561    7.4799   11.9574 C   0  0  0  0  0  0  0  0  0  0  0  0
   46.3493    9.1138   12.6916 C   0  0  0  0  0  0  0  0  0  0  0  0
   48.7643    7.9908   13.2626 C   0  0  0  0  0  0  0  0  0  0  0  0
   47.5434   10.0646   12.7549 C   0  0  0  0  0  0  0  0  0  0  0  0
   44.5067    3.8911    9.2059 C   0  0  0  0  0  0  0  0  0  0  0  0
   47.6811   13.2559   17.3102 C   0  0  0  0  0  0  0  0  0  0  0  0
   43.8917    3.9209   10.4502 C   0  0  0  0  0  0  0  0  0  0  0  0
   45.5441    4.7651    8.9012 C   0  0  0  0  0  0  0  0  0  0  0  0
   44.0996    3.0059    8.2875 F   0  0  0  0  0  0  0  0  0  0  0  0
   49.7420   12.2597   18.9173 C   0  0  0  0  0  0  0  0  0  0  0  0
   47.6006   13.3689   18.6990 C   0  0  0  0  0  0  0  0  0  0  0  0
   48.6299   12.8715   19.5007 C   0  0  0  0  0  0  0  0  0  0  0  0
   51.6853   11.1951   17.5037 H   0  0  0  0  0  0  0  0  0  0  0  0
   51.1313   11.9173   13.0305 H   0  0  0  0  0  0  0  0  0  0  0  0
   49.4096   12.1843   12.8004 H   0  0  0  0  0  0  0  0  0  0  0  0
   46.4805    8.1709   10.7868 H   0  0  0  0  0  0  0  0  0  0  0  0
   50.1026    9.9919   11.8763 H   0  0  0  0  0  0  0  0  0  0  0  0
   50.8194    9.5414   13.4113 H   0  0  0  0  0  0  0  0  0  0  0  0
   46.7998    6.3477    9.5928 H   0  0  0  0  0  0  0  0  0  0  0  0
   43.8374    4.8617   12.3824 H   0  0  0  0  0  0  0  0  0  0  0  0
   48.7201    7.8946   11.1119 H   0  0  0  0  0  0  0  0  0  0  0  0
   48.2781    6.3915   11.9037 H   0  0  0  0  0  0  0  0  0  0  0  0
   45.4816    9.6333   12.2663 H   0  0  0  0  0  0  0  0  0  0  0  0
   46.0594    8.8316   13.7115 H   0  0  0  0  0  0  0  0  0  0  0  0
   48.2104    7.5583   14.1059 H   0  0  0  0  0  0  0  0  0  0  0  0
   49.7868    7.6082   13.3686 H   0  0  0  0  0  0  0  0  0  0  0  0
   47.7757   10.3879   11.7315 H   0  0  0  0  0  0  0  0  0  0  0  0
   47.2477   10.9554   13.3152 H   0  0  0  0  0  0  0  0  0  0  0  0
   46.8791   13.6438   16.6859 H   0  0  0  0  0  0  0  0  0  0  0  0
   43.0864    3.2276   10.6718 H   0  0  0  0  0  0  0  0  0  0  0  0
   46.0132    4.7163    7.9231 H   0  0  0  0  0  0  0  0  0  0  0  0
   50.5352   11.8778   19.5541 H   0  0  0  0  0  0  0  0  0  0  0  0
   46.7352   13.8444   19.1553 H   0  0  0  0  0  0  0  0  0  0  0  0
   48.5643   12.9607   20.5827 H   0  0  0  0  0  0  0  0  0  0  0  0
  2  1  1  0
  3  1  1  0
  4  3  1  0
  5  2  1  0
  6  4  2  0
  7  1  1  0
  8 13  1  0
  9 15  1  0
 10  2  2  0
 11  3  2  0
 12  8  1  0
 13 19  1  0
 14  8  2  0
 15  7  1  0
 16 12  2  0
 17 12  1  0
 18 20  1  0
 19 21  1  0
 20  9  1  0
 21  9  1  0
 22 24  1  0
 23  4  1  0
 24 17  2  0
 25 16  1  0
 26 22  1  0
 27  6  1  0
 28 23  2  0
 29 28  1  0
  5  6  1  0
 18 13  1  0
 29 27  2  0
 25 22  2  0
  5 30  1  0
  7 31  1  0
  7 32  1  0
 13 33  1  0
 15 34  1  0
 15 35  1  0
 16 36  1  0
 17 37  1  0
 18 38  1  0
 18 39  1  0
 19 40  1  0
 19 41  1  0
 20 42  1  0
 20 43  1  0
 21 44  1  0
 21 45  1  0
 23 46  1  0
 24 47  1  0
 25 48  1  0
 27 49  1  0
 28 50  1  0
 29 51  1  0
M  END
> <Uni-Dock RESULT> 
ENERGY=   -4.235  LOWER_BOUND=    4.483  UPPER_BOUND=   10.578
INTER + INTRA:          -4.235
INTER:                  -4.235
INTRA:                   0.000
UNBOUND:                 0.000

$$$$

     RDKit          3D

 51 54  0  0  0  0  0  0  0  0999 V2000
   56.9324    1.6943   14.9789 N   0  0  0  0  0  0  0  0  0  0  0  0
   56.7306    0.3304   14.8437 C   0  0  0  0  0  0  0  0  0  0  0  0
   56.2909    2.4863   15.9287 C   0  0  0  0  0  0  0  0  0  0  0  0
   55.2300    1.8387   16.7248 C   0  0  0  0  0  0  0  0  0  0  0  0
   55.7650   -0.2323   15.6284 N   0  0  0  0  0  0  0  0  0  0  0  0
   54.9989    0.4803   16.5448 C   0  0  0  0  0  0  0  0  0  0  0  0
   57.9221    2.3202   14.1047 C   0  0  0  0  0  0  0  0  0  0  0  0
   54.2628    5.7164    9.7237 C   0  0  0  0  0  0  0  0  0  0  0  0
   56.1947    3.1087   12.3956 N   0  0  0  0  0  0  0  0  0  0  0  0
   57.3736   -0.3910   14.0805 O   0  0  0  0  0  0  0  0  0  0  0  0
   56.5698    3.6612   16.1600 O   0  0  0  0  0  0  0  0  0  0  0  0
   54.3829    6.4598    8.4291 C   0  0  0  0  0  0  0  0  0  0  0  0
   55.5238    5.3604   10.5100 C   0  0  0  0  0  0  0  0  0  0  0  0
   53.1406    5.3931   10.1100 O   0  0  0  0  0  0  0  0  0  0  0  0
   57.4668    2.3964   12.6273 C   0  0  0  0  0  0  0  0  0  0  0  0
   55.5988    6.6055    7.7463 C   0  0  0  0  0  0  0  0  0  0  0  0
   53.2166    7.0177    7.8785 C   0  0  0  0  0  0  0  0  0  0  0  0
   56.0585    3.9935   10.0556 C   0  0  0  0  0  0  0  0  0  0  0  0
   55.2573    5.3917   12.0244 C   0  0  0  0  0  0  0  0  0  0  0  0
   55.6766    2.8875   11.0381 C   0  0  0  0  0  0  0  0  0  0  0  0
   56.2763    4.5298   12.7680 C   0  0  0  0  0  0  0  0  0  0  0  0
   54.4810    7.8590    6.0135 C   0  0  0  0  0  0  0  0  0  0  0  0
   54.4733    2.5643   17.6507 C   0  0  0  0  0  0  0  0  0  0  0  0
   53.2667    7.7191    6.6719 C   0  0  0  0  0  0  0  0  0  0  0  0
   55.6449    7.3084    6.5379 C   0  0  0  0  0  0  0  0  0  0  0  0
   54.5326    8.5289    4.8554 F   0  0  0  0  0  0  0  0  0  0  0  0
   54.0120   -0.1700   17.2859 C   0  0  0  0  0  0  0  0  0  0  0  0
   53.4831    1.9180   18.3921 C   0  0  0  0  0  0  0  0  0  0  0  0
   53.2534    0.5530   18.2096 C   0  0  0  0  0  0  0  0  0  0  0  0
   55.6221   -1.2246   15.4961 H   0  0  0  0  0  0  0  0  0  0  0  0
   58.8402    1.7213   14.1534 H   0  0  0  0  0  0  0  0  0  0  0  0
   58.1825    3.3207   14.4657 H   0  0  0  0  0  0  0  0  0  0  0  0
   56.2843    6.1243   10.3090 H   0  0  0  0  0  0  0  0  0  0  0  0
   58.2698    2.8524   12.0339 H   0  0  0  0  0  0  0  0  0  0  0  0
   57.3645    1.3683   12.2601 H   0  0  0  0  0  0  0  0  0  0  0  0
   56.5218    6.1732    8.1197 H   0  0  0  0  0  0  0  0  0  0  0  0
   52.2611    6.9076    8.3899 H   0  0  0  0  0  0  0  0  0  0  0  0
   57.1523    4.0424    9.9773 H   0  0  0  0  0  0  0  0  0  0  0  0
   55.6904    3.7320    9.0563 H   0  0  0  0  0  0  0  0  0  0  0  0
   55.3148    6.4276   12.3810 H   0  0  0  0  0  0  0  0  0  0  0  0
   54.2455    5.0457   12.2705 H   0  0  0  0  0  0  0  0  0  0  0  0
   54.5821    2.8284   11.0986 H   0  0  0  0  0  0  0  0  0  0  0  0
   55.9918    1.9150   10.6407 H   0  0  0  0  0  0  0  0  0  0  0  0
   57.2770    4.9325   12.5627 H   0  0  0  0  0  0  0  0  0  0  0  0
   56.1006    4.6343   13.8418 H   0  0  0  0  0  0  0  0  0  0  0  0
   54.6521    3.6279   17.7932 H   0  0  0  0  0  0  0  0  0  0  0  0
   52.3674    8.1519    6.2449 H   0  0  0  0  0  0  0  0  0  0  0  0
   56.5806    7.4258    5.9995 H   0  0  0  0  0  0  0  0  0  0  0  0
   53.8220   -1.2319   17.1553 H   0  0  0  0  0  0  0  0  0  0  0  0
   52.8908    2.4793   19.1115 H   0  0  0  0  0  0  0  0  0  0  0  0
   52.4808    0.0520   18.7887 H   0  0  0  0  0  0  0  0  0  0  0  0
  2  1  1  0
  3  1  1  0
  4  3  1  0
  5  2  1  0
  6  4  2  0
  7  1  1  0
  8 13  1  0
  9 15  1  0
 10  2  2  0
 11  3  2  0
 12  8  1  0
 13 19  1  0
 14  8  2  0
 15  7  1  0
 16 12  2  0
 17 12  1  0
 18 20  1  0
 19 21  1  0
 20  9  1  0
 21  9  1  0
 22 24  1  0
 23  4  1  0
 24 17  2  0
 25 16  1  0
 26 22  1  0
 27  6  1  0
 28 23  2  0
 29 28  1  0
  5  6  1  0
 18 13  1  0
 29 27  2  0
 25 22  2  0
  5 30  1  0
  7 31  1  0
  7 32  1  0
 13 33  1  0
 15 34  1  0
 15 35  1  0
 16 36  1  0
 17 37  1  0
 18 38  1  0
 18 39  1  0
 19 40  1  0
 19 41  1  0
 20 42  1  0
 20 43  1  0
 21 44  1  0
 21 45  1  0
 23 46  1  0
 24 47  1  0
 25 48  1  0
 27 49  1  0
 28 50  1  0
 29 51  1  0
M  END
> <Uni-Dock RESULT> 
ENERGY=   -4.194  LOWER_BOUND=    9.110  UPPER_BOUND=   11.780
INTER + INTRA:          -4.194
INTER:                  -4.194
INTRA:                   0.000
UNBOUND:                 0.000

$$$$

     RDKit          3D

 51 54  0  0  0  0  0  0  0  0999 V2000
   53.1999    8.5482   14.3225 N   0  0  0  0  0  0  0  0  0  0  0  0
   54.1238    8.3444   13.3107 C   0  0  0  0  0  0  0  0  0  0  0  0
   53.2847    7.9635   15.5843 C   0  0  0  0  0  0  0  0  0  0  0  0
   54.3468    6.9572   15.7787 C   0  0  0  0  0  0  0  0  0  0  0  0
   55.1114    7.4321   13.5501 N   0  0  0  0  0  0  0  0  0  0  0  0
   55.2379    6.7213   14.7389 C   0  0  0  0  0  0  0  0  0  0  0  0
   52.1044    9.4787   14.0589 C   0  0  0  0  0  0  0  0  0  0  0  0
   46.8136    5.5385   13.2835 C   0  0  0  0  0  0  0  0  0  0  0  0
   50.4496    7.6447   13.4071 N   0  0  0  0  0  0  0  0  0  0  0  0
   54.1126    8.9418   12.2340 O   0  0  0  0  0  0  0  0  0  0  0  0
   52.5613    8.2511   16.5360 O   0  0  0  0  0  0  0  0  0  0  0  0
   45.3876    5.5744   12.8270 C   0  0  0  0  0  0  0  0  0  0  0  0
   47.5488    6.8477   13.5679 C   0  0  0  0  0  0  0  0  0  0  0  0
   47.3632    4.4440   13.3978 O   0  0  0  0  0  0  0  0  0  0  0  0
   51.0734    8.9319   13.0421 C   0  0  0  0  0  0  0  0  0  0  0  0
   44.7650    6.7448   12.3704 C   0  0  0  0  0  0  0  0  0  0  0  0
   44.6581    4.3736   12.8485 C   0  0  0  0  0  0  0  0  0  0  0  0
   48.2266    7.3590   12.2873 C   0  0  0  0  0  0  0  0  0  0  0  0
   48.5581    6.6758   14.7157 C   0  0  0  0  0  0  0  0  0  0  0  0
   49.7216    7.0440   12.2804 C   0  0  0  0  0  0  0  0  0  0  0  0
   49.6486    7.7430   14.6374 C   0  0  0  0  0  0  0  0  0  0  0  0
   42.7238    5.5157   11.9889 C   0  0  0  0  0  0  0  0  0  0  0  0
   54.4697    6.2564   16.9830 C   0  0  0  0  0  0  0  0  0  0  0  0
   43.3255    4.3454   12.4314 C   0  0  0  0  0  0  0  0  0  0  0  0
   43.4304    6.7124   11.9533 C   0  0  0  0  0  0  0  0  0  0  0  0
   41.4470    5.4921   11.5862 F   0  0  0  0  0  0  0  0  0  0  0  0
   56.2617    5.7854   14.8879 C   0  0  0  0  0  0  0  0  0  0  0  0
   55.4908    5.3172   17.1351 C   0  0  0  0  0  0  0  0  0  0  0  0
   56.3851    5.0826   16.0888 C   0  0  0  0  0  0  0  0  0  0  0  0
   55.7606    7.2856   12.7887 H   0  0  0  0  0  0  0  0  0  0  0  0
   52.5373   10.4007   13.6510 H   0  0  0  0  0  0  0  0  0  0  0  0
   51.5978    9.7566   14.9892 H   0  0  0  0  0  0  0  0  0  0  0  0
   46.8155    7.5908   13.9031 H   0  0  0  0  0  0  0  0  0  0  0  0
   50.3008    9.6943   12.8785 H   0  0  0  0  0  0  0  0  0  0  0  0
   51.5889    8.8115   12.0819 H   0  0  0  0  0  0  0  0  0  0  0  0
   45.2937    7.6911   12.3138 H   0  0  0  0  0  0  0  0  0  0  0  0
   45.1271    3.4524   13.1917 H   0  0  0  0  0  0  0  0  0  0  0  0
   48.0882    8.4457   12.2158 H   0  0  0  0  0  0  0  0  0  0  0  0
   47.7629    6.9306   11.3908 H   0  0  0  0  0  0  0  0  0  0  0  0
   48.0317    6.7509   15.6752 H   0  0  0  0  0  0  0  0  0  0  0  0
   49.0250    5.6829   14.7067 H   0  0  0  0  0  0  0  0  0  0  0  0
   49.8556    5.9557   12.3321 H   0  0  0  0  0  0  0  0  0  0  0  0
   50.1569    7.3381   11.3176 H   0  0  0  0  0  0  0  0  0  0  0  0
   49.1679    8.7272   14.7152 H   0  0  0  0  0  0  0  0  0  0  0  0
   50.3030    7.6341   15.5062 H   0  0  0  0  0  0  0  0  0  0  0  0
   53.7732    6.4390   17.7985 H   0  0  0  0  0  0  0  0  0  0  0  0
   42.7594    3.4194   12.4479 H   0  0  0  0  0  0  0  0  0  0  0  0
   42.9386    7.6122   11.5959 H   0  0  0  0  0  0  0  0  0  0  0  0
   56.9654    5.5924   14.0828 H   0  0  0  0  0  0  0  0  0  0  0  0
   55.5883    4.7684   18.0692 H   0  0  0  0  0  0  0  0  0  0  0  0
   57.1797    4.3498   16.2102 H   0  0  0  0  0  0  0  0  0  0  0  0
  2  1  1  0
  3  1  1  0
  4  3  1  0
  5  2  1  0
  6  4  2  0
  7  1  1  0
  8 13  1  0
  9 15  1  0
 10  2  2  0
 11  3  2  0
 12  8  1  0
 13 19  1  0
 14  8  2  0
 15  7  1  0
 16 12  2  0
 17 12  1  0
 18 20  1  0
 19 21  1  0
 20  9  1  0
 21  9  1  0
 22 24  1  0
 23  4  1  0
 24 17  2  0
 25 16  1  0
 26 22  1  0
 27  6  1  0
 28 23  2  0
 29 28  1  0
  5  6  1  0
 18 13  1  0
 29 27  2  0
 25 22  2  0
  5 30  1  0
  7 31  1  0
  7 32  1  0
 13 33  1  0
 15 34  1  0
 15 35  1  0
 16 36  1  0
 17 37  1  0
 18 38  1  0
 18 39  1  0
 19 40  1  0
 19 41  1  0
 20 42  1  0
 20 43  1  0
 21 44  1  0
 21 45  1  0
 23 46  1  0
 24 47  1  0
 25 48  1  0
 27 49  1  0
 28 50  1  0
 29 51  1  0
M  END
> <Uni-Dock RESULT> 
ENERGY=   -4.171  LOWER_BOUND=    5.006  UPPER_BOUND=    9.486
INTER + INTRA:          -4.171
INTER:                  -4.171
INTRA:                   0.000
UNBOUND:                 0.000

$$$$

     RDKit          3D

 51 54  0  0  0  0  0  0  0  0999 V2000
   52.1080   10.0343   14.8043 N   0  0  0  0  0  0  0  0  0  0  0  0
   52.1758   10.3847   16.1428 C   0  0  0  0  0  0  0  0  0  0  0  0
   51.9844   10.9528   13.7640 C   0  0  0  0  0  0  0  0  0  0  0  0
   51.7648   12.3615   14.1458 C   0  0  0  0  0  0  0  0  0  0  0  0
   52.0052   11.7053   16.4455 N   0  0  0  0  0  0  0  0  0  0  0  0
   51.7825   12.6955   15.4945 C   0  0  0  0  0  0  0  0  0  0  0  0
   52.2312    8.6170   14.4703 C   0  0  0  0  0  0  0  0  0  0  0  0
   46.0598    6.8310   12.7846 C   0  0  0  0  0  0  0  0  0  0  0  0
   49.7091    8.2352   14.3277 N   0  0  0  0  0  0  0  0  0  0  0  0
   52.3937    9.5874   17.0556 O   0  0  0  0  0  0  0  0  0  0  0  0
   52.0749   10.6709   12.5706 O   0  0  0  0  0  0  0  0  0  0  0  0
   45.2323    5.6155   12.4998 C   0  0  0  0  0  0  0  0  0  0  0  0
   47.5827    6.7140   12.8311 C   0  0  0  0  0  0  0  0  0  0  0  0
   45.4809    7.8958   12.9948 O   0  0  0  0  0  0  0  0  0  0  0  0
   50.9967    7.7836   14.8912 C   0  0  0  0  0  0  0  0  0  0  0  0
   45.7511    4.3139   12.5514 C   0  0  0  0  0  0  0  0  0  0  0  0
   43.8759    5.8007   12.1832 C   0  0  0  0  0  0  0  0  0  0  0  0
   48.0402    6.3680   14.2565 C   0  0  0  0  0  0  0  0  0  0  0  0
   48.2511    8.0000   12.3160 C   0  0  0  0  0  0  0  0  0  0  0  0
   48.5620    7.6010   14.9925 C   0  0  0  0  0  0  0  0  0  0  0  0
   49.6730    8.1228   12.8612 C   0  0  0  0  0  0  0  0  0  0  0  0
   43.5875    3.4233   11.9606 C   0  0  0  0  0  0  0  0  0  0  0  0
   51.5521   13.3499   13.1792 C   0  0  0  0  0  0  0  0  0  0  0  0
   43.0545    4.7043   11.9114 C   0  0  0  0  0  0  0  0  0  0  0  0
   44.9253    3.2184   12.2789 C   0  0  0  0  0  0  0  0  0  0  0  0
   42.8027    2.3696   11.7028 F   0  0  0  0  0  0  0  0  0  0  0  0
   51.5893   14.0179   15.8948 C   0  0  0  0  0  0  0  0  0  0  0  0
   51.3556   14.6736   13.5756 C   0  0  0  0  0  0  0  0  0  0  0  0
   51.3744   15.0064   14.9314 C   0  0  0  0  0  0  0  0  0  0  0  0
   52.0378   11.9325   17.4304 H   0  0  0  0  0  0  0  0  0  0  0  0
   53.1103    8.2231   14.9957 H   0  0  0  0  0  0  0  0  0  0  0  0
   52.4219    8.4848   13.4001 H   0  0  0  0  0  0  0  0  0  0  0  0
   47.8889    5.9079   12.1539 H   0  0  0  0  0  0  0  0  0  0  0  0
   51.1758    6.7322   14.6316 H   0  0  0  0  0  0  0  0  0  0  0  0
   50.9320    7.8191   15.9852 H   0  0  0  0  0  0  0  0  0  0  0  0
   46.7862    4.1189   12.8136 H   0  0  0  0  0  0  0  0  0  0  0  0
   43.4526    6.8037   12.1467 H   0  0  0  0  0  0  0  0  0  0  0  0
   48.8378    5.6155   14.2061 H   0  0  0  0  0  0  0  0  0  0  0  0
   47.2281    5.9164   14.8387 H   0  0  0  0  0  0  0  0  0  0  0  0
   48.2729    7.9826   11.2193 H   0  0  0  0  0  0  0  0  0  0  0  0
   47.6817    8.8969   12.5903 H   0  0  0  0  0  0  0  0  0  0  0  0
   47.7558    8.3431   15.0583 H   0  0  0  0  0  0  0  0  0  0  0  0
   48.7933    7.3404   16.0325 H   0  0  0  0  0  0  0  0  0  0  0  0
   50.2449    7.2496   12.5203 H   0  0  0  0  0  0  0  0  0  0  0  0
   50.1389    9.0067   12.4178 H   0  0  0  0  0  0  0  0  0  0  0  0
   51.5376   13.0910   12.1226 H   0  0  0  0  0  0  0  0  0  0  0  0
   42.0066    4.8446   11.6656 H   0  0  0  0  0  0  0  0  0  0  0  0
   45.3156    2.2058   12.3178 H   0  0  0  0  0  0  0  0  0  0  0  0
   51.6017   14.2922   16.9461 H   0  0  0  0  0  0  0  0  0  0  0  0
   51.1875   15.4447   12.8271 H   0  0  0  0  0  0  0  0  0  0  0  0
   51.2207   16.0388   15.2374 H   0  0  0  0  0  0  0  0  0  0  0  0
  2  1  1  0
  3  1  1  0
  4  3  1  0
  5  2  1  0
  6  4  2  0
  7  1  1  0
  8 13  1  0
  9 15  1  0
 10  2  2  0
 11  3  2  0
 12  8  1  0
 13 19  1  0
 14  8  2  0
 15  7  1  0
 16 12  2  0
 17 12  1  0
 18 20  1  0
 19 21  1  0
 20  9  1  0
 21  9  1  0
 22 24  1  0
 23  4  1  0
 24 17  2  0
 25 16  1  0
 26 22  1  0
 27  6  1  0
 28 23  2  0
 29 28  1  0
  5  6  1  0
 18 13  1  0
 29 27  2  0
 25 22  2  0
  5 30  1  0
  7 31  1  0
  7 32  1  0
 13 33  1  0
 15 34  1  0
 15 35  1  0
 16 36  1  0
 17 37  1  0
 18 38  1  0
 18 39  1  0
 19 40  1  0
 19 41  1  0
 20 42  1  0
 20 43  1  0
 21 44  1  0
 21 45  1  0
 23 46  1  0
 24 47  1  0
 25 48  1  0
 27 49  1  0
 28 50  1  0
 29 51  1  0
M  END
> <Uni-Dock RESULT> 
ENERGY=   -4.152  LOWER_BOUND=    4.885  UPPER_BOUND=   10.110
INTER + INTRA:          -4.152
INTER:                  -4.152
INTRA:                   0.000
UNBOUND:                 0.000

$$$$

     RDKit          3D

 51 54  0  0  0  0  0  0  0  0999 V2000
   47.7982    6.8053   13.0896 N   0  0  0  0  0  0  0  0  0  0  0  0
   47.3797    7.7046   12.1226 C   0  0  0  0  0  0  0  0  0  0  0  0
   47.0484    5.7091   13.5106 C   0  0  0  0  0  0  0  0  0  0  0  0
   45.6713    5.6081   12.9892 C   0  0  0  0  0  0  0  0  0  0  0  0
   46.1113    7.5489   11.6413 N   0  0  0  0  0  0  0  0  0  0  0  0
   45.2422    6.5461   12.0581 C   0  0  0  0  0  0  0  0  0  0  0  0
   49.1322    6.9946   13.6554 C   0  0  0  0  0  0  0  0  0  0  0  0
   47.9604    9.3404   19.7580 C   0  0  0  0  0  0  0  0  0  0  0  0
   48.2900    8.2595   15.7091 N   0  0  0  0  0  0  0  0  0  0  0  0
   48.0818    8.6095   11.6704 O   0  0  0  0  0  0  0  0  0  0  0  0
   47.4663    4.8220   14.2524 O   0  0  0  0  0  0  0  0  0  0  0  0
   48.6634    9.9626   20.9250 C   0  0  0  0  0  0  0  0  0  0  0  0
   48.7772    8.6714   18.6534 C   0  0  0  0  0  0  0  0  0  0  0  0
   46.7329    9.4050   19.7132 O   0  0  0  0  0  0  0  0  0  0  0  0
   49.2327    8.2368   14.5732 C   0  0  0  0  0  0  0  0  0  0  0  0
   50.0415   10.2208   20.9325 C   0  0  0  0  0  0  0  0  0  0  0  0
   47.8947   10.3112   22.0484 C   0  0  0  0  0  0  0  0  0  0  0  0
   49.1426    9.7007   17.5727 C   0  0  0  0  0  0  0  0  0  0  0  0
   48.0235    7.4685   18.0610 C   0  0  0  0  0  0  0  0  0  0  0  0
   48.2312    9.5797   16.3524 C   0  0  0  0  0  0  0  0  0  0  0  0
   48.5292    7.1569   16.6535 C   0  0  0  0  0  0  0  0  0  0  0  0
   49.8621   11.1393   23.1567 C   0  0  0  0  0  0  0  0  0  0  0  0
   44.8103    4.5887   13.4087 C   0  0  0  0  0  0  0  0  0  0  0  0
   48.4950   10.8975   23.1649 C   0  0  0  0  0  0  0  0  0  0  0  0
   50.6391   10.8084   22.0523 C   0  0  0  0  0  0  0  0  0  0  0  0
   50.4408   11.7032   24.2244 F   0  0  0  0  0  0  0  0  0  0  0  0
   43.9511    6.4782   11.5341 C   0  0  0  0  0  0  0  0  0  0  0  0
   43.5168    4.5188   12.8890 C   0  0  0  0  0  0  0  0  0  0  0  0
   43.0886    5.4623   11.9531 C   0  0  0  0  0  0  0  0  0  0  0  0
   45.8219    8.2302   10.9524 H   0  0  0  0  0  0  0  0  0  0  0  0
   49.8355    7.1215   12.8229 H   0  0  0  0  0  0  0  0  0  0  0  0
   49.4532    6.1015   14.2019 H   0  0  0  0  0  0  0  0  0  0  0  0
   49.7000    8.2772   19.0954 H   0  0  0  0  0  0  0  0  0  0  0  0
   50.2650    8.3248   14.9360 H   0  0  0  0  0  0  0  0  0  0  0  0
   49.0533    9.1219   13.9514 H   0  0  0  0  0  0  0  0  0  0  0  0
   50.6730    9.9905   20.0801 H   0  0  0  0  0  0  0  0  0  0  0  0
   46.8213   10.1264   22.0579 H   0  0  0  0  0  0  0  0  0  0  0  0
   50.1831    9.5419   17.2610 H   0  0  0  0  0  0  0  0  0  0  0  0
   49.0913   10.7245   17.9618 H   0  0  0  0  0  0  0  0  0  0  0  0
   48.1672    6.5958   18.7101 H   0  0  0  0  0  0  0  0  0  0  0  0
   46.9404    7.6400   18.0246 H   0  0  0  0  0  0  0  0  0  0  0  0
   47.1941    9.7587   16.6644 H   0  0  0  0  0  0  0  0  0  0  0  0
   48.4566   10.3840   15.6415 H   0  0  0  0  0  0  0  0  0  0  0  0
   49.5999    6.9228   16.7204 H   0  0  0  0  0  0  0  0  0  0  0  0
   48.0239    6.2562   16.2952 H   0  0  0  0  0  0  0  0  0  0  0  0
   45.1437    3.8533   14.1377 H   0  0  0  0  0  0  0  0  0  0  0  0
   47.9037   11.1669   24.0343 H   0  0  0  0  0  0  0  0  0  0  0  0
   51.7051   11.0147   22.0685 H   0  0  0  0  0  0  0  0  0  0  0  0
   43.6038    7.2049   10.8048 H   0  0  0  0  0  0  0  0  0  0  0  0
   42.8434    3.7290   13.2144 H   0  0  0  0  0  0  0  0  0  0  0  0
   42.0799    5.4055   11.5501 H   0  0  0  0  0  0  0  0  0  0  0  0
  2  1  1  0
  3  1  1  0
  4  3  1  0
  5  2  1  0
  6  4  2  0
  7  1  1  0
  8 13  1  0
  9 15  1  0
 10  2  2  0
 11  3  2  0
 12  8  1  0
 13 19  1  0
 14  8  2  0
 15  7  1  0
 16 12  2  0
 17 12  1  0
 18 20  1  0
 19 21  1  0
 20  9  1  0
 21  9  1  0
 22 24  1  0
 23  4  1  0
 24 17  2  0
 25 16  1  0
 26 22  1  0
 27  6  1  0
 28 23  2  0
 29 28  1  0
  5  6  1  0
 18 13  1  0
 29 27  2  0
 25 22  2  0
  5 30  1  0
  7 31  1  0
  7 32  1  0
 13 33  1  0
 15 34  1  0
 15 35  1  0
 16 36  1  0
 17 37  1  0
 18 38  1  0
 18 39  1  0
 19 40  1  0
 19 41  1  0
 20 42  1  0
 20 43  1  0
 21 44  1  0
 21 45  1  0
 23 46  1  0
 24 47  1  0
 25 48  1  0
 27 49  1  0
 28 50  1  0
 29 51  1  0
M  END
> <Uni-Dock RESULT> 
ENERGY=   -4.062  LOWER_BOUND=    4.098  UPPER_BOUND=    6.303
INTER + INTRA:          -4.062
INTER:                  -4.062
INTRA:                   0.000
UNBOUND:                 0.000

$$$$
