
     RDKit          3D

 51 54  0  0  0  0  0  0  0  0999 V2000
   53.1173    8.2015   15.0494 N   0  0  0  0  0  0  0  0  0  0  0  0
   54.1133    8.9034   14.3913 C   0  0  0  0  0  0  0  0  0  0  0  0
   53.3409    7.0551   15.8102 C   0  0  0  0  0  0  0  0  0  0  0  0
   54.7477    6.6709   16.0337 C   0  0  0  0  0  0  0  0  0  0  0  0
   55.3989    8.4979   14.6122 N   0  0  0  0  0  0  0  0  0  0  0  0
   55.7455    7.4186   15.4191 C   0  0  0  0  0  0  0  0  0  0  0  0
   51.7297    8.6029   14.8252 C   0  0  0  0  0  0  0  0  0  0  0  0
   45.4766    8.2358   12.5041 C   0  0  0  0  0  0  0  0  0  0  0  0
   49.7109    8.2294   13.3485 N   0  0  0  0  0  0  0  0  0  0  0  0
   53.9079    9.8445   13.6270 O   0  0  0  0  0  0  0  0  0  0  0  0
   52.4444    6.3563   16.2782 O   0  0  0  0  0  0  0  0  0  0  0  0
   44.8662    6.8810   12.3688 C   0  0  0  0  0  0  0  0  0  0  0  0
   46.9795    8.4306   12.6838 C   0  0  0  0  0  0  0  0  0  0  0  0
   44.7210    9.2090   12.4702 O   0  0  0  0  0  0  0  0  0  0  0  0
   51.1144    7.8666   13.6180 C   0  0  0  0  0  0  0  0  0  0  0  0
   45.3610    5.7518   13.0329 C   0  0  0  0  0  0  0  0  0  0  0  0
   43.7202    6.7618   11.5656 C   0  0  0  0  0  0  0  0  0  0  0  0
   47.4024    8.3421   14.1552 C   0  0  0  0  0  0  0  0  0  0  0  0
   47.8476    7.5587   11.7773 C   0  0  0  0  0  0  0  0  0  0  0  0
   48.7770    7.6891   14.3372 C   0  0  0  0  0  0  0  0  0  0  0  0
   49.3381    7.8667   11.9700 C   0  0  0  0  0  0  0  0  0  0  0  0
   43.6078    4.4107   12.0595 C   0  0  0  0  0  0  0  0  0  0  0  0
   55.0810    5.5761   16.8374 C   0  0  0  0  0  0  0  0  0  0  0  0
   43.0940    5.5239   11.4070 C   0  0  0  0  0  0  0  0  0  0  0  0
   44.7316    4.5138   12.8718 C   0  0  0  0  0  0  0  0  0  0  0  0
   43.0094    3.2222   11.9100 F   0  0  0  0  0  0  0  0  0  0  0  0
   57.0872    7.0830   15.5994 C   0  0  0  0  0  0  0  0  0  0  0  0
   56.4226    5.2388   17.0219 C   0  0  0  0  0  0  0  0  0  0  0  0
   57.4232    5.9914   16.4037 C   0  0  0  0  0  0  0  0  0  0  0  0
   56.1105    9.0367   14.1356 H   0  0  0  0  0  0  0  0  0  0  0  0
   51.1643    8.3975   15.7399 H   0  0  0  0  0  0  0  0  0  0  0  0
   51.6858    9.6859   14.6577 H   0  0  0  0  0  0  0  0  0  0  0  0
   47.1637    9.4661   12.3568 H   0  0  0  0  0  0  0  0  0  0  0  0
   51.2080    6.7800   13.7444 H   0  0  0  0  0  0  0  0  0  0  0  0
   51.7244    8.1256   12.7418 H   0  0  0  0  0  0  0  0  0  0  0  0
   46.2221    5.8090   13.6899 H   0  0  0  0  0  0  0  0  0  0  0  0
   43.3113    7.6368   11.0624 H   0  0  0  0  0  0  0  0  0  0  0  0
   47.4327    9.3611   14.5652 H   0  0  0  0  0  0  0  0  0  0  0  0
   46.6646    7.8074   14.7636 H   0  0  0  0  0  0  0  0  0  0  0  0
   47.6908    6.4955   11.9856 H   0  0  0  0  0  0  0  0  0  0  0  0
   47.5713    7.7062   10.7262 H   0  0  0  0  0  0  0  0  0  0  0  0
   48.7015    6.5975   14.2512 H   0  0  0  0  0  0  0  0  0  0  0  0
   49.1026    7.9017   15.3605 H   0  0  0  0  0  0  0  0  0  0  0  0
   49.8997    6.9897   11.6214 H   0  0  0  0  0  0  0  0  0  0  0  0
   49.6189    8.7015   11.3167 H   0  0  0  0  0  0  0  0  0  0  0  0
   54.3019    4.9885   17.3181 H   0  0  0  0  0  0  0  0  0  0  0  0
   42.2096    5.4255   10.7854 H   0  0  0  0  0  0  0  0  0  0  0  0
   45.1060    3.6305   13.3807 H   0  0  0  0  0  0  0  0  0  0  0  0
   57.8775    7.6574   15.1239 H   0  0  0  0  0  0  0  0  0  0  0  0
   56.6876    4.3888   17.6469 H   0  0  0  0  0  0  0  0  0  0  0  0
   58.4681    5.7253   16.5491 H   0  0  0  0  0  0  0  0  0  0  0  0
  2  1  1  0
  3  1  1  0
  4  3  1  0
  5  2  1  0
  6  4  2  0
  7  1  1  0
  8 13  1  0
  9 15  1  0
 10  2  2  0
 11  3  2  0
 12  8  1  0
 13 19  1  0
 14  8  2  0
 15  7  1  0
 16 12  2  0
 17 12  1  0
 18 20  1  0
 19 21  1  0
 20  9  1  0
 21  9  1  0
 22 24  1  0
 23  4  1  0
 24 17  2  0
 25 16  1  0
 26 22  1  0
 27  6  1  0
 28 23  2  0
 29 28  1  0
  5  6  1  0
 18 13  1  0
 29 27  2  0
 25 22  2  0
  5 30  1  0
  7 31  1  0
  7 32  1  0
 13 33  1  0
 15 34  1  0
 15 35  1  0
 16 36  1  0
 17 37  1  0
 18 38  1  0
 18 39  1  0
 19 40  1  0
 19 41  1  0
 20 42  1  0
 20 43  1  0
 21 44  1  0
 21 45  1  0
 23 46  1  0
 24 47  1  0
 25 48  1  0
 27 49  1  0
 28 50  1  0
 29 51  1  0
M  END
> <Uni-Dock RESULT> 
ENERGY=   -4.346  LOWER_BOUND=    0.000  UPPER_BOUND=    0.000
INTER + INTRA:          -4.346
INTER:                  -4.346
INTRA:                   0.000
UNBOUND:                 0.000

$$$$

     RDKit          3D

 51 54  0  0  0  0  0  0  0  0999 V2000
   47.7787    6.0997   14.2045 N   0  0  0  0  0  0  0  0  0  0  0  0
   47.1013    4.9310   13.8993 C   0  0  0  0  0  0  0  0  0  0  0  0
   48.3122    6.3891   15.4594 C   0  0  0  0  0  0  0  0  0  0  0  0
   48.2687    5.3097   16.4640 C   0  0  0  0  0  0  0  0  0  0  0  0
   47.0695    3.9687   14.8682 N   0  0  0  0  0  0  0  0  0  0  0  0
   47.6407    4.1158   16.1285 C   0  0  0  0  0  0  0  0  0  0  0  0
   47.8214    7.1543   13.1932 C   0  0  0  0  0  0  0  0  0  0  0  0
   46.3949   12.9879   10.2678 C   0  0  0  0  0  0  0  0  0  0  0  0
   46.6104    9.1969   12.3229 N   0  0  0  0  0  0  0  0  0  0  0  0
   46.5300    4.7206   12.8310 O   0  0  0  0  0  0  0  0  0  0  0  0
   48.7899    7.4791   15.7672 O   0  0  0  0  0  0  0  0  0  0  0  0
   46.1400   14.1624   11.1521 C   0  0  0  0  0  0  0  0  0  0  0  0
   46.3847   11.5579   10.8007 C   0  0  0  0  0  0  0  0  0  0  0  0
   46.6215   13.2080    9.0764 O   0  0  0  0  0  0  0  0  0  0  0  0
   46.6157    8.1077   13.3169 C   0  0  0  0  0  0  0  0  0  0  0  0
   46.5426   14.2095   12.4924 C   0  0  0  0  0  0  0  0  0  0  0  0
   45.5012   15.2769   10.5842 C   0  0  0  0  0  0  0  0  0  0  0  0
   47.7482   11.1414   11.3655 C   0  0  0  0  0  0  0  0  0  0  0  0
   45.2385   11.2446   11.7618 C   0  0  0  0  0  0  0  0  0  0  0  0
   47.6270   10.2170   12.5820 C   0  0  0  0  0  0  0  0  0  0  0  0
   45.2604    9.7725   12.1932 C   0  0  0  0  0  0  0  0  0  0  0  0
   45.6351   16.4362   12.6872 C   0  0  0  0  0  0  0  0  0  0  0  0
   48.8363    5.4757   17.7312 C   0  0  0  0  0  0  0  0  0  0  0  0
   45.2441   16.4127   11.3547 C   0  0  0  0  0  0  0  0  0  0  0  0
   46.2834   15.3482   13.2611 C   0  0  0  0  0  0  0  0  0  0  0  0
   45.3905   17.5239   13.4287 F   0  0  0  0  0  0  0  0  0  0  0  0
   47.5718    3.0738   17.0531 C   0  0  0  0  0  0  0  0  0  0  0  0
   48.7713    4.4345   18.6582 C   0  0  0  0  0  0  0  0  0  0  0  0
   48.1402    3.2359   18.3189 C   0  0  0  0  0  0  0  0  0  0  0  0
   46.5849    3.1168   14.6164 H   0  0  0  0  0  0  0  0  0  0  0  0
   48.7648    7.6977   13.3082 H   0  0  0  0  0  0  0  0  0  0  0  0
   47.8322    6.7016   12.1943 H   0  0  0  0  0  0  0  0  0  0  0  0
   46.1994   10.9343    9.9119 H   0  0  0  0  0  0  0  0  0  0  0  0
   46.5571    8.5205   14.3326 H   0  0  0  0  0  0  0  0  0  0  0  0
   45.7118    7.4978   13.1827 H   0  0  0  0  0  0  0  0  0  0  0  0
   47.0698   13.3839   12.9583 H   0  0  0  0  0  0  0  0  0  0  0  0
   45.2041   15.2624    9.5366 H   0  0  0  0  0  0  0  0  0  0  0  0
   48.3028   10.6200   10.5732 H   0  0  0  0  0  0  0  0  0  0  0  0
   48.3659   12.0071   11.6291 H   0  0  0  0  0  0  0  0  0  0  0  0
   45.2995   11.8634   12.6628 H   0  0  0  0  0  0  0  0  0  0  0  0
   44.2738   11.4804   11.2963 H   0  0  0  0  0  0  0  0  0  0  0  0
   47.3843   10.7938   13.4839 H   0  0  0  0  0  0  0  0  0  0  0  0
   48.6134    9.7727   12.7495 H   0  0  0  0  0  0  0  0  0  0  0  0
   44.7028    9.7012   13.1366 H   0  0  0  0  0  0  0  0  0  0  0  0
   44.7112    9.1749   11.4558 H   0  0  0  0  0  0  0  0  0  0  0  0
   49.3268    6.4097   17.9967 H   0  0  0  0  0  0  0  0  0  0  0  0
   44.7484   17.2759   10.9217 H   0  0  0  0  0  0  0  0  0  0  0  0
   46.5898   15.3969   14.3018 H   0  0  0  0  0  0  0  0  0  0  0  0
   47.0827    2.1357   16.8052 H   0  0  0  0  0  0  0  0  0  0  0  0
   49.2121    4.5578   19.6450 H   0  0  0  0  0  0  0  0  0  0  0  0
   48.0907    2.4264   19.0441 H   0  0  0  0  0  0  0  0  0  0  0  0
  2  1  1  0
  3  1  1  0
  4  3  1  0
  5  2  1  0
  6  4  2  0
  7  1  1  0
  8 13  1  0
  9 15  1  0
 10  2  2  0
 11  3  2  0
 12  8  1  0
 13 19  1  0
 14  8  2  0
 15  7  1  0
 16 12  2  0
 17 12  1  0
 18 20  1  0
 19 21  1  0
 20  9  1  0
 21  9  1  0
 22 24  1  0
 23  4  1  0
 24 17  2  0
 25 16  1  0
 26 22  1  0
 27  6  1  0
 28 23  2  0
 29 28  1  0
  5  6  1  0
 18 13  1  0
 29 27  2  0
 25 22  2  0
  5 30  1  0
  7 31  1  0
  7 32  1  0
 13 33  1  0
 15 34  1  0
 15 35  1  0
 16 36  1  0
 17 37  1  0
 18 38  1  0
 18 39  1  0
 19 40  1  0
 19 41  1  0
 20 42  1  0
 20 43  1  0
 21 44  1  0
 21 45  1  0
 23 46  1  0
 24 47  1  0
 25 48  1  0
 27 49  1  0
 28 50  1  0
 29 51  1  0
M  END
> <Uni-Dock RESULT> 
ENERGY=   -4.260  LOWER_BOUND=    5.614  UPPER_BOUND=    7.753
INTER + INTRA:          -4.260
INTER:                  -4.260
INTRA:                   0.000
UNBOUND:                 0.000

$$$$

     RDKit          3D

 51 54  0  0  0  0  0  0  0  0999 V2000
   47.2001    6.7691   13.5297 N   0  0  0  0  0  0  0  0  0  0  0  0
   46.4568    7.8482   13.0812 C   0  0  0  0  0  0  0  0  0  0  0  0
   46.7369    5.4546   13.5487 C   0  0  0  0  0  0  0  0  0  0  0  0
   45.4302    5.2021   12.9121 C   0  0  0  0  0  0  0  0  0  0  0  0
   45.2443    7.5671   12.5185 N   0  0  0  0  0  0  0  0  0  0  0  0
   44.7174    6.2840   12.4083 C   0  0  0  0  0  0  0  0  0  0  0  0
   48.4975    7.0368   14.1477 C   0  0  0  0  0  0  0  0  0  0  0  0
   53.0401    7.5934   19.0138 C   0  0  0  0  0  0  0  0  0  0  0  0
   49.6470    7.5359   16.3445 N   0  0  0  0  0  0  0  0  0  0  0  0
   46.8159    9.0209   13.1695 O   0  0  0  0  0  0  0  0  0  0  0  0
   47.3417    4.5213   14.0725 O   0  0  0  0  0  0  0  0  0  0  0  0
   52.9468    6.6436   20.1608 C   0  0  0  0  0  0  0  0  0  0  0  0
   51.8856    7.7964   18.0367 C   0  0  0  0  0  0  0  0  0  0  0  0
   54.0939    8.2168   18.8725 O   0  0  0  0  0  0  0  0  0  0  0  0
   48.3654    7.2666   15.6669 C   0  0  0  0  0  0  0  0  0  0  0  0
   52.2306    5.4418   20.0994 C   0  0  0  0  0  0  0  0  0  0  0  0
   53.6489    6.9690   21.3329 C   0  0  0  0  0  0  0  0  0  0  0  0
   51.9064    6.7718   16.8959 C   0  0  0  0  0  0  0  0  0  0  0  0
   50.5091    7.9075   18.6915 C   0  0  0  0  0  0  0  0  0  0  0  0
   50.5006    6.3521   16.4522 C   0  0  0  0  0  0  0  0  0  0  0  0
   49.4172    8.1806   17.6492 C   0  0  0  0  0  0  0  0  0  0  0  0
   52.8834    4.9366   22.3662 C   0  0  0  0  0  0  0  0  0  0  0  0
   44.9072    3.9085   12.8192 C   0  0  0  0  0  0  0  0  0  0  0  0
   53.6124    6.1166   22.4382 C   0  0  0  0  0  0  0  0  0  0  0  0
   52.1959    4.5907   21.2081 C   0  0  0  0  0  0  0  0  0  0  0  0
   52.8466    4.1168   23.4242 F   0  0  0  0  0  0  0  0  0  0  0  0
   43.4748    6.0879   11.8059 C   0  0  0  0  0  0  0  0  0  0  0  0
   43.6652    3.7083   12.2151 C   0  0  0  0  0  0  0  0  0  0  0  0
   42.9510    4.7965   11.7094 C   0  0  0  0  0  0  0  0  0  0  0  0
   44.7273    8.3691   12.1816 H   0  0  0  0  0  0  0  0  0  0  0  0
   49.1568    6.1890   13.9350 H   0  0  0  0  0  0  0  0  0  0  0  0
   48.9495    7.9196   13.6795 H   0  0  0  0  0  0  0  0  0  0  0  0
   52.0758    8.7837   17.5872 H   0  0  0  0  0  0  0  0  0  0  0  0
   47.8575    6.4157   16.1397 H   0  0  0  0  0  0  0  0  0  0  0  0
   47.7017    8.1316   15.8020 H   0  0  0  0  0  0  0  0  0  0  0  0
   51.7044    5.1374   19.2011 H   0  0  0  0  0  0  0  0  0  0  0  0
   54.2290    7.8891   21.3855 H   0  0  0  0  0  0  0  0  0  0  0  0
   52.4327    7.2201   16.0419 H   0  0  0  0  0  0  0  0  0  0  0  0
   52.4853    5.8787   17.1558 H   0  0  0  0  0  0  0  0  0  0  0  0
   50.2495    6.9856   19.2217 H   0  0  0  0  0  0  0  0  0  0  0  0
   50.5081    8.7027   19.4469 H   0  0  0  0  0  0  0  0  0  0  0  0
   50.0748    5.6229   17.1535 H   0  0  0  0  0  0  0  0  0  0  0  0
   50.6051    5.8392   15.4908 H   0  0  0  0  0  0  0  0  0  0  0  0
   48.4614    7.8652   18.0883 H   0  0  0  0  0  0  0  0  0  0  0  0
   49.3456    9.2618   17.4801 H   0  0  0  0  0  0  0  0  0  0  0  0
   45.4624    3.0605   13.2142 H   0  0  0  0  0  0  0  0  0  0  0  0
   54.1510    6.3643   23.3475 H   0  0  0  0  0  0  0  0  0  0  0  0
   51.6436    3.6564   21.1735 H   0  0  0  0  0  0  0  0  0  0  0  0
   42.9059    6.9243   11.4092 H   0  0  0  0  0  0  0  0  0  0  0  0
   43.2541    2.7040   12.1391 H   0  0  0  0  0  0  0  0  0  0  0  0
   41.9828    4.6369   11.2396 H   0  0  0  0  0  0  0  0  0  0  0  0
  2  1  1  0
  3  1  1  0
  4  3  1  0
  5  2  1  0
  6  4  2  0
  7  1  1  0
  8 13  1  0
  9 15  1  0
 10  2  2  0
 11  3  2  0
 12  8  1  0
 13 19  1  0
 14  8  2  0
 15  7  1  0
 16 12  2  0
 17 12  1  0
 18 20  1  0
 19 21  1  0
 20  9  1  0
 21  9  1  0
 22 24  1  0
 23  4  1  0
 24 17  2  0
 25 16  1  0
 26 22  1  0
 27  6  1  0
 28 23  2  0
 29 28  1  0
  5  6  1  0
 18 13  1  0
 29 27  2  0
 25 22  2  0
  5 30  1  0
  7 31  1  0
  7 32  1  0
 13 33  1  0
 15 34  1  0
 15 35  1  0
 16 36  1  0
 17 37  1  0
 18 38  1  0
 18 39  1  0
 19 40  1  0
 19 41  1  0
 20 42  1  0
 20 43  1  0
 21 44  1  0
 21 45  1  0
 23 46  1  0
 24 47  1  0
 25 48  1  0
 27 49  1  0
 28 50  1  0
 29 51  1  0
M  END
> <Uni-Dock RESULT> 
ENERGY=   -4.218  LOWER_BOUND=    4.330  UPPER_BOUND=   10.109
INTER + INTRA:          -4.218
INTER:                  -4.218
INTRA:                   0.000
UNBOUND:                 0.000

$$$$

     RDKit          3D

 51 54  0  0  0  0  0  0  0  0999 V2000
   48.3661   13.2843   12.2715 N   0  0  0  0  0  0  0  0  0  0  0  0
   47.7896   14.3420   12.9547 C   0  0  0  0  0  0  0  0  0  0  0  0
   49.1086   13.4222   11.0999 C   0  0  0  0  0  0  0  0  0  0  0  0
   49.4085   14.7988   10.6625 C   0  0  0  0  0  0  0  0  0  0  0  0
   48.0789   15.5972   12.5002 N   0  0  0  0  0  0  0  0  0  0  0  0
   48.8768   15.8571   11.3903 C   0  0  0  0  0  0  0  0  0  0  0  0
   48.0671   11.9273   12.7255 C   0  0  0  0  0  0  0  0  0  0  0  0
   45.3546    5.8235   12.6294 C   0  0  0  0  0  0  0  0  0  0  0  0
   46.4589    9.9940   12.4575 N   0  0  0  0  0  0  0  0  0  0  0  0
   47.0393   14.2157   13.9207 O   0  0  0  0  0  0  0  0  0  0  0  0
   49.5015   12.4757   10.4210 O   0  0  0  0  0  0  0  0  0  0  0  0
   45.1460    5.1788   11.3000 C   0  0  0  0  0  0  0  0  0  0  0  0
   45.6321    7.3177   12.7683 C   0  0  0  0  0  0  0  0  0  0  0  0
   45.2998    5.1037   13.6284 O   0  0  0  0  0  0  0  0  0  0  0  0
   46.8051   11.3652   12.0404 C   0  0  0  0  0  0  0  0  0  0  0  0
   45.8093    5.5938   10.1387 C   0  0  0  0  0  0  0  0  0  0  0  0
   44.2705    4.0822   11.2397 C   0  0  0  0  0  0  0  0  0  0  0  0
   47.1240    7.6443   12.6295 C   0  0  0  0  0  0  0  0  0  0  0  0
   44.7582    8.2120   11.8895 C   0  0  0  0  0  0  0  0  0  0  0  0
   47.3733    8.9828   11.9255 C   0  0  0  0  0  0  0  0  0  0  0  0
   45.0509    9.6968   12.1414 C   0  0  0  0  0  0  0  0  0  0  0  0
   44.6942    3.8623    8.8825 C   0  0  0  0  0  0  0  0  0  0  0  0
   50.2020   15.0452    9.5376 C   0  0  0  0  0  0  0  0  0  0  0  0
   44.0408    3.4271   10.0283 C   0  0  0  0  0  0  0  0  0  0  0  0
   45.5769    4.9358    8.9272 C   0  0  0  0  0  0  0  0  0  0  0  0
   44.4766    3.2360    7.7193 F   0  0  0  0  0  0  0  0  0  0  0  0
   49.1307   17.1732   11.0046 C   0  0  0  0  0  0  0  0  0  0  0  0
   50.4601   16.3608    9.1501 C   0  0  0  0  0  0  0  0  0  0  0  0
   49.9252   17.4223    9.8829 C   0  0  0  0  0  0  0  0  0  0  0  0
   47.6616   16.3546   13.0258 H   0  0  0  0  0  0  0  0  0  0  0  0
   48.9394   11.2992   12.5174 H   0  0  0  0  0  0  0  0  0  0  0  0
   47.9260   11.9294   13.8131 H   0  0  0  0  0  0  0  0  0  0  0  0
   45.3447    7.5558   13.8045 H   0  0  0  0  0  0  0  0  0  0  0  0
   46.9082   11.4152   10.9484 H   0  0  0  0  0  0  0  0  0  0  0  0
   45.9754   12.0371   12.2996 H   0  0  0  0  0  0  0  0  0  0  0  0
   46.5196    6.4135   10.1503 H   0  0  0  0  0  0  0  0  0  0  0  0
   43.7664    3.7345   12.1403 H   0  0  0  0  0  0  0  0  0  0  0  0
   47.5619    7.6821   13.6365 H   0  0  0  0  0  0  0  0  0  0  0  0
   47.6712    6.8527   12.1057 H   0  0  0  0  0  0  0  0  0  0  0  0
   44.9282    8.0079   10.8275 H   0  0  0  0  0  0  0  0  0  0  0  0
   43.6963    8.0071   12.0719 H   0  0  0  0  0  0  0  0  0  0  0  0
   47.2539    8.8772   10.8395 H   0  0  0  0  0  0  0  0  0  0  0  0
   48.4200    9.2503   12.1019 H   0  0  0  0  0  0  0  0  0  0  0  0
   44.7147   10.2502   11.2545 H   0  0  0  0  0  0  0  0  0  0  0  0
   44.4386   10.0451   12.9819 H   0  0  0  0  0  0  0  0  0  0  0  0
   50.6178   14.2186    8.9654 H   0  0  0  0  0  0  0  0  0  0  0  0
   43.3633    2.5807    9.9753 H   0  0  0  0  0  0  0  0  0  0  0  0
   46.0844    5.2484    8.0195 H   0  0  0  0  0  0  0  0  0  0  0  0
   48.7205   18.0101   11.5631 H   0  0  0  0  0  0  0  0  0  0  0  0
   51.0776   16.5582    8.2766 H   0  0  0  0  0  0  0  0  0  0  0  0
   50.1278   18.4467    9.5777 H   0  0  0  0  0  0  0  0  0  0  0  0
  2  1  1  0
  3  1  1  0
  4  3  1  0
  5  2  1  0
  6  4  2  0
  7  1  1  0
  8 13  1  0
  9 15  1  0
 10  2  2  0
 11  3  2  0
 12  8  1  0
 13 19  1  0
 14  8  2  0
 15  7  1  0
 16 12  2  0
 17 12  1  0
 18 20  1  0
 19 21  1  0
 20  9  1  0
 21  9  1  0
 22 24  1  0
 23  4  1  0
 24 17  2  0
 25 16  1  0
 26 22  1  0
 27  6  1  0
 28 23  2  0
 29 28  1  0
  5  6  1  0
 18 13  1  0
 29 27  2  0
 25 22  2  0
  5 30  1  0
  7 31  1  0
  7 32  1  0
 13 33  1  0
 15 34  1  0
 15 35  1  0
 16 36  1  0
 17 37  1  0
 18 38  1  0
 18 39  1  0
 19 40  1  0
 19 41  1  0
 20 42  1  0
 20 43  1  0
 21 44  1  0
 21 45  1  0
 23 46  1  0
 24 47  1  0
 25 48  1  0
 27 49  1  0
 28 50  1  0
 29 51  1  0
M  END
> <Uni-Dock RESULT> 
ENERGY=   -4.215  LOWER_BOUND=    5.964  UPPER_BOUND=    7.765
INTER + INTRA:          -4.215
INTER:                  -4.215
INTRA:                   0.000
UNBOUND:                 0.000

$$$$

     RDKit          3D

 51 54  0  0  0  0  0  0  0  0999 V2000
   56.6666    3.3149   11.6144 N   0  0  0  0  0  0  0  0  0  0  0  0
   56.5984    1.9380   11.4818 C   0  0  0  0  0  0  0  0  0  0  0  0
   56.5861    3.9879   12.8325 C   0  0  0  0  0  0  0  0  0  0  0  0
   56.5759    3.1560   14.0509 C   0  0  0  0  0  0  0  0  0  0  0  0
   56.5695    1.2105   12.6375 N   0  0  0  0  0  0  0  0  0  0  0  0
   56.5701    1.7731   13.9102 C   0  0  0  0  0  0  0  0  0  0  0  0
   56.6873    4.1231   10.3966 C   0  0  0  0  0  0  0  0  0  0  0  0
   54.4216    8.2898    5.6924 C   0  0  0  0  0  0  0  0  0  0  0  0
   55.2228    5.3035    8.7061 N   0  0  0  0  0  0  0  0  0  0  0  0
   56.5527    1.3477   10.4042 O   0  0  0  0  0  0  0  0  0  0  0  0
   56.5079    5.2101   12.9374 O   0  0  0  0  0  0  0  0  0  0  0  0
   53.4757    9.3635    6.1152 C   0  0  0  0  0  0  0  0  0  0  0  0
   54.7296    7.0883    6.5814 C   0  0  0  0  0  0  0  0  0  0  0  0
   54.9593    8.4037    4.5892 O   0  0  0  0  0  0  0  0  0  0  0  0
   55.2620    4.4821    9.9300 C   0  0  0  0  0  0  0  0  0  0  0  0
   53.3371    9.7774    7.4457 C   0  0  0  0  0  0  0  0  0  0  0  0
   52.7283   10.0030    5.1125 C   0  0  0  0  0  0  0  0  0  0  0  0
   55.8605    7.3790    7.5756 C   0  0  0  0  0  0  0  0  0  0  0  0
   53.5082    6.4667    7.2578 C   0  0  0  0  0  0  0  0  0  0  0  0
   55.6537    6.6846    8.9262 C   0  0  0  0  0  0  0  0  0  0  0  0
   53.8946    5.2259    8.0731 C   0  0  0  0  0  0  0  0  0  0  0  0
   51.6965   11.4107    6.7672 C   0  0  0  0  0  0  0  0  0  0  0  0
   56.5641    3.7351   15.3237 C   0  0  0  0  0  0  0  0  0  0  0  0
   51.8341   11.0240    5.4403 C   0  0  0  0  0  0  0  0  0  0  0  0
   52.4406   10.7999    7.7705 C   0  0  0  0  0  0  0  0  0  0  0  0
   50.8402   12.3898    7.0849 F   0  0  0  0  0  0  0  0  0  0  0  0
   56.5527    0.9520   15.0375 C   0  0  0  0  0  0  0  0  0  0  0  0
   56.5490    2.9167   16.4539 C   0  0  0  0  0  0  0  0  0  0  0  0
   56.5435    1.5277   16.3103 C   0  0  0  0  0  0  0  0  0  0  0  0
   56.5382    0.2064   12.5161 H   0  0  0  0  0  0  0  0  0  0  0  0
   57.2734    5.0258   10.5975 H   0  0  0  0  0  0  0  0  0  0  0  0
   57.2074    3.5735    9.6028 H   0  0  0  0  0  0  0  0  0  0  0  0
   55.1013    6.3194    5.8859 H   0  0  0  0  0  0  0  0  0  0  0  0
   54.7086    4.9784   10.7381 H   0  0  0  0  0  0  0  0  0  0  0  0
   54.7403    3.5341    9.7403 H   0  0  0  0  0  0  0  0  0  0  0  0
   53.9216    9.3334    8.2443 H   0  0  0  0  0  0  0  0  0  0  0  0
   52.8441    9.7068    4.0709 H   0  0  0  0  0  0  0  0  0  0  0  0
   56.8039    7.0295    7.1337 H   0  0  0  0  0  0  0  0  0  0  0  0
   55.9983    8.4537    7.7387 H   0  0  0  0  0  0  0  0  0  0  0  0
   53.0263    7.1805    7.9336 H   0  0  0  0  0  0  0  0  0  0  0  0
   52.7521    6.1985    6.5100 H   0  0  0  0  0  0  0  0  0  0  0  0
   54.9229    7.2322    9.5352 H   0  0  0  0  0  0  0  0  0  0  0  0
   56.6069    6.7310    9.4624 H   0  0  0  0  0  0  0  0  0  0  0  0
   53.1046    5.0674    8.8193 H   0  0  0  0  0  0  0  0  0  0  0  0
   53.8882    4.3486    7.4152 H   0  0  0  0  0  0  0  0  0  0  0  0
   56.5669    4.8172   15.4363 H   0  0  0  0  0  0  0  0  0  0  0  0
   51.2521   11.5199    4.6699 H   0  0  0  0  0  0  0  0  0  0  0  0
   52.3234   11.1294    8.7986 H   0  0  0  0  0  0  0  0  0  0  0  0
   56.5464   -0.1305   14.9426 H   0  0  0  0  0  0  0  0  0  0  0  0
   56.5410    3.3618   17.4465 H   0  0  0  0  0  0  0  0  0  0  0  0
   56.5311    0.8925   17.1934 H   0  0  0  0  0  0  0  0  0  0  0  0
  2  1  1  0
  3  1  1  0
  4  3  1  0
  5  2  1  0
  6  4  2  0
  7  1  1  0
  8 13  1  0
  9 15  1  0
 10  2  2  0
 11  3  2  0
 12  8  1  0
 13 19  1  0
 14  8  2  0
 15  7  1  0
 16 12  2  0
 17 12  1  0
 18 20  1  0
 19 21  1  0
 20  9  1  0
 21  9  1  0
 22 24  1  0
 23  4  1  0
 24 17  2  0
 25 16  1  0
 26 22  1  0
 27  6  1  0
 28 23  2  0
 29 28  1  0
  5  6  1  0
 18 13  1  0
 29 27  2  0
 25 22  2  0
  5 30  1  0
  7 31  1  0
  7 32  1  0
 13 33  1  0
 15 34  1  0
 15 35  1  0
 16 36  1  0
 17 37  1  0
 18 38  1  0
 18 39  1  0
 19 40  1  0
 19 41  1  0
 20 42  1  0
 20 43  1  0
 21 44  1  0
 21 45  1  0
 23 46  1  0
 24 47  1  0
 25 48  1  0
 27 49  1  0
 28 50  1  0
 29 51  1  0
M  END
> <Uni-Dock RESULT> 
ENERGY=   -4.064  LOWER_BOUND=    7.754  UPPER_BOUND=    8.781
INTER + INTRA:          -4.064
INTER:                  -4.064
INTRA:                   0.000
UNBOUND:                 0.000

$$$$

     RDKit          3D

 51 54  0  0  0  0  0  0  0  0999 V2000
   47.6930    9.7178   13.2863 N   0  0  0  0  0  0  0  0  0  0  0  0
   48.0695   10.9548   12.7903 C   0  0  0  0  0  0  0  0  0  0  0  0
   46.4697    9.1067   13.0161 C   0  0  0  0  0  0  0  0  0  0  0  0
   45.6023    9.7683   12.0230 C   0  0  0  0  0  0  0  0  0  0  0  0
   47.2245   11.5385   11.8897 N   0  0  0  0  0  0  0  0  0  0  0  0
   46.0165   10.9803   11.4829 C   0  0  0  0  0  0  0  0  0  0  0  0
   48.5699    9.0715   14.2610 C   0  0  0  0  0  0  0  0  0  0  0  0
   50.6235    6.8217   20.2062 C   0  0  0  0  0  0  0  0  0  0  0  0
   49.0683    8.8584   16.7313 N   0  0  0  0  0  0  0  0  0  0  0  0
   49.0954   11.5488   13.1171 O   0  0  0  0  0  0  0  0  0  0  0  0
   46.0808    8.0775   13.5645 O   0  0  0  0  0  0  0  0  0  0  0  0
   49.5844    6.3314   21.1581 C   0  0  0  0  0  0  0  0  0  0  0  0
   50.2675    7.6658   18.9857 C   0  0  0  0  0  0  0  0  0  0  0  0
   51.7961    6.5179   20.4340 O   0  0  0  0  0  0  0  0  0  0  0  0
   48.2173    9.4864   15.7038 C   0  0  0  0  0  0  0  0  0  0  0  0
   48.2931    5.9678   20.7566 C   0  0  0  0  0  0  0  0  0  0  0  0
   49.9503    6.1980   22.5075 C   0  0  0  0  0  0  0  0  0  0  0  0
   49.8906    6.8027   17.7754 C   0  0  0  0  0  0  0  0  0  0  0  0
   49.2451    8.7702   19.2514 C   0  0  0  0  0  0  0  0  0  0  0  0
   48.7877    7.4345   16.9189 C   0  0  0  0  0  0  0  0  0  0  0  0
   48.9974    9.6138   17.9943 C   0  0  0  0  0  0  0  0  0  0  0  0
   47.7462    5.3930   23.0348 C   0  0  0  0  0  0  0  0  0  0  0  0
   44.3848    9.2019   11.6324 C   0  0  0  0  0  0  0  0  0  0  0  0
   49.0281    5.7333   23.4472 C   0  0  0  0  0  0  0  0  0  0  0  0
   47.3720    5.5030   21.7002 C   0  0  0  0  0  0  0  0  0  0  0  0
   46.8595    4.9465   23.9333 F   0  0  0  0  0  0  0  0  0  0  0  0
   45.2213   11.6411   10.5468 C   0  0  0  0  0  0  0  0  0  0  0  0
   43.5876    9.8590   10.6943 C   0  0  0  0  0  0  0  0  0  0  0  0
   44.0058   11.0763   10.1528 C   0  0  0  0  0  0  0  0  0  0  0  0
   47.5289   12.4328   11.5273 H   0  0  0  0  0  0  0  0  0  0  0  0
   48.4818    7.9879   14.1316 H   0  0  0  0  0  0  0  0  0  0  0  0
   49.6122    9.3362   14.0458 H   0  0  0  0  0  0  0  0  0  0  0  0
   51.2026    8.1887   18.7304 H   0  0  0  0  0  0  0  0  0  0  0  0
   47.1585    9.2837   15.9122 H   0  0  0  0  0  0  0  0  0  0  0  0
   48.3361   10.5771   15.7600 H   0  0  0  0  0  0  0  0  0  0  0  0
   47.9825    6.0226   19.7188 H   0  0  0  0  0  0  0  0  0  0  0  0
   50.9587    6.4550   22.8289 H   0  0  0  0  0  0  0  0  0  0  0  0
   50.7894    6.6661   17.1584 H   0  0  0  0  0  0  0  0  0  0  0  0
   49.5858    5.7923   18.0699 H   0  0  0  0  0  0  0  0  0  0  0  0
   48.2865    8.3505   19.5730 H   0  0  0  0  0  0  0  0  0  0  0  0
   49.5839    9.4159   20.0707 H   0  0  0  0  0  0  0  0  0  0  0  0
   47.8041    7.2854   17.3826 H   0  0  0  0  0  0  0  0  0  0  0  0
   48.7705    6.8960   15.9660 H   0  0  0  0  0  0  0  0  0  0  0  0
   48.0202   10.0999   18.1153 H   0  0  0  0  0  0  0  0  0  0  0  0
   49.7449   10.4149   17.9474 H   0  0  0  0  0  0  0  0  0  0  0  0
   44.0577    8.2542   12.0549 H   0  0  0  0  0  0  0  0  0  0  0  0
   49.3046    5.6307   24.4918 H   0  0  0  0  0  0  0  0  0  0  0  0
   46.3673    5.2186   21.4017 H   0  0  0  0  0  0  0  0  0  0  0  0
   45.5317   12.5898   10.1174 H   0  0  0  0  0  0  0  0  0  0  0  0
   42.6401    9.4224   10.3860 H   0  0  0  0  0  0  0  0  0  0  0  0
   43.3816   11.5863    9.4221 H   0  0  0  0  0  0  0  0  0  0  0  0
  2  1  1  0
  3  1  1  0
  4  3  1  0
  5  2  1  0
  6  4  2  0
  7  1  1  0
  8 13  1  0
  9 15  1  0
 10  2  2  0
 11  3  2  0
 12  8  1  0
 13 19  1  0
 14  8  2  0
 15  7  1  0
 16 12  2  0
 17 12  1  0
 18 20  1  0
 19 21  1  0
 20  9  1  0
 21  9  1  0
 22 24  1  0
 23  4  1  0
 24 17  2  0
 25 16  1  0
 26 22  1  0
 27  6  1  0
 28 23  2  0
 29 28  1  0
  5  6  1  0
 18 13  1  0
 29 27  2  0
 25 22  2  0
  5 30  1  0
  7 31  1  0
  7 32  1  0
 13 33  1  0
 15 34  1  0
 15 35  1  0
 16 36  1  0
 17 37  1  0
 18 38  1  0
 18 39  1  0
 19 40  1  0
 19 41  1  0
 20 42  1  0
 20 43  1  0
 21 44  1  0
 21 45  1  0
 23 46  1  0
 24 47  1  0
 25 48  1  0
 27 49  1  0
 28 50  1  0
 29 51  1  0
M  END
> <Uni-Dock RESULT> 
ENERGY=   -4.050  LOWER_BOUND=    5.230  UPPER_BOUND=    9.581
INTER + INTRA:          -4.050
INTER:                  -4.050
INTRA:                   0.000
UNBOUND:                 0.000

$$$$

     RDKit          3D

 51 54  0  0  0  0  0  0  0  0999 V2000
   48.2468   11.8259   20.2789 N   0  0  0  0  0  0  0  0  0  0  0  0
   47.6984   12.8862   19.5769 C   0  0  0  0  0  0  0  0  0  0  0  0
   49.3374   11.9388   21.1396 C   0  0  0  0  0  0  0  0  0  0  0  0
   49.8261   13.3030   21.4162 C   0  0  0  0  0  0  0  0  0  0  0  0
   48.1974   14.1279   19.8510 N   0  0  0  0  0  0  0  0  0  0  0  0
   49.2286   14.3690   20.7536 C   0  0  0  0  0  0  0  0  0  0  0  0
   47.7427   10.4823   20.0004 C   0  0  0  0  0  0  0  0  0  0  0  0
   47.7453    4.2373   17.6290 C   0  0  0  0  0  0  0  0  0  0  0  0
   48.0604    8.4476   18.5324 N   0  0  0  0  0  0  0  0  0  0  0  0
   46.8133   12.7727   18.7309 O   0  0  0  0  0  0  0  0  0  0  0  0
   49.9084   10.9791   21.6533 O   0  0  0  0  0  0  0  0  0  0  0  0
   49.0460    3.5066   17.6029 C   0  0  0  0  0  0  0  0  0  0  0  0
   47.6722    5.7505   17.8130 C   0  0  0  0  0  0  0  0  0  0  0  0
   46.7146    3.5741   17.4997 O   0  0  0  0  0  0  0  0  0  0  0  0
   48.5236    9.8103   18.8529 C   0  0  0  0  0  0  0  0  0  0  0  0
   50.1526    3.8917   18.3698 C   0  0  0  0  0  0  0  0  0  0  0  0
   49.1312    2.3598   16.7965 C   0  0  0  0  0  0  0  0  0  0  0  0
   47.6690    6.1538   19.2925 C   0  0  0  0  0  0  0  0  0  0  0  0
   48.6952    6.5414   16.9984 C   0  0  0  0  0  0  0  0  0  0  0  0
   48.4251    7.4618   19.5506 C   0  0  0  0  0  0  0  0  0  0  0  0
   48.5076    8.0524   17.1854 C   0  0  0  0  0  0  0  0  0  0  0  0
   51.4099    2.0299   17.4911 C   0  0  0  0  0  0  0  0  0  0  0  0
   50.8717   13.5296   22.3167 C   0  0  0  0  0  0  0  0  0  0  0  0
   50.3164    1.6242   16.7369 C   0  0  0  0  0  0  0  0  0  0  0  0
   51.3380    3.1530   18.3077 C   0  0  0  0  0  0  0  0  0  0  0  0
   52.5479    1.3264   17.4367 F   0  0  0  0  0  0  0  0  0  0  0  0
   49.6671   15.6733   20.9818 C   0  0  0  0  0  0  0  0  0  0  0  0
   51.3115   14.8335   22.5493 C   0  0  0  0  0  0  0  0  0  0  0  0
   50.7097   15.9028   21.8828 C   0  0  0  0  0  0  0  0  0  0  0  0
   47.7692   14.8889   19.3398 H   0  0  0  0  0  0  0  0  0  0  0  0
   47.8150    9.8945   20.9212 H   0  0  0  0  0  0  0  0  0  0  0  0
   46.6792   10.5386   19.7389 H   0  0  0  0  0  0  0  0  0  0  0  0
   46.6903    6.0308   17.4000 H   0  0  0  0  0  0  0  0  0  0  0  0
   49.5989    9.8034   19.0746 H   0  0  0  0  0  0  0  0  0  0  0  0
   48.3988   10.4472   17.9665 H   0  0  0  0  0  0  0  0  0  0  0  0
   50.1160    4.7501   19.0318 H   0  0  0  0  0  0  0  0  0  0  0  0
   48.2703    2.0360   16.2133 H   0  0  0  0  0  0  0  0  0  0  0  0
   46.6249    6.2743   19.6129 H   0  0  0  0  0  0  0  0  0  0  0  0
   48.0792    5.3662   19.9342 H   0  0  0  0  0  0  0  0  0  0  0  0
   49.7175    6.2867   17.2960 H   0  0  0  0  0  0  0  0  0  0  0  0
   48.6163    6.2866   15.9345 H   0  0  0  0  0  0  0  0  0  0  0  0
   49.5088    7.2874   19.5587 H   0  0  0  0  0  0  0  0  0  0  0  0
   48.1537    7.7986   20.5562 H   0  0  0  0  0  0  0  0  0  0  0  0
   49.4590    8.5338   16.9226 H   0  0  0  0  0  0  0  0  0  0  0  0
   47.7622    8.4126   16.4662 H   0  0  0  0  0  0  0  0  0  0  0  0
   51.3420   12.6969   22.8352 H   0  0  0  0  0  0  0  0  0  0  0  0
   50.3887    0.7387   16.1134 H   0  0  0  0  0  0  0  0  0  0  0  0
   52.2034    3.4417   18.8968 H   0  0  0  0  0  0  0  0  0  0  0  0
   49.2104   16.5159   20.4699 H   0  0  0  0  0  0  0  0  0  0  0  0
   52.1237   15.0156   23.2497 H   0  0  0  0  0  0  0  0  0  0  0  0
   51.0554   16.9180   22.0660 H   0  0  0  0  0  0  0  0  0  0  0  0
  2  1  1  0
  3  1  1  0
  4  3  1  0
  5  2  1  0
  6  4  2  0
  7  1  1  0
  8 13  1  0
  9 15  1  0
 10  2  2  0
 11  3  2  0
 12  8  1  0
 13 19  1  0
 14  8  2  0
 15  7  1  0
 16 12  2  0
 17 12  1  0
 18 20  1  0
 19 21  1  0
 20  9  1  0
 21  9  1  0
 22 24  1  0
 23  4  1  0
 24 17  2  0
 25 16  1  0
 26 22  1  0
 27  6  1  0
 28 23  2  0
 29 28  1  0
  5  6  1  0
 18 13  1  0
 29 27  2  0
 25 22  2  0
  5 30  1  0
  7 31  1  0
  7 32  1  0
 13 33  1  0
 15 34  1  0
 15 35  1  0
 16 36  1  0
 17 37  1  0
 18 38  1  0
 18 39  1  0
 19 40  1  0
 19 41  1  0
 20 42  1  0
 20 43  1  0
 21 44  1  0
 21 45  1  0
 23 46  1  0
 24 47  1  0
 25 48  1  0
 27 49  1  0
 28 50  1  0
 29 51  1  0
M  END
> <Uni-Dock RESULT> 
ENERGY=   -4.037  LOWER_BOUND=    7.028  UPPER_BOUND=    8.764
INTER + INTRA:          -4.037
INTER:                  -4.037
INTRA:                   0.000
UNBOUND:                 0.000

$$$$

     RDKit          3D

 51 54  0  0  0  0  0  0  0  0999 V2000
   46.4890    7.2570   13.1710 N   0  0  0  0  0  0  0  0  0  0  0  0
   47.2950    6.1965   13.5501 C   0  0  0  0  0  0  0  0  0  0  0  0
   45.2755    7.1158   12.5000 C   0  0  0  0  0  0  0  0  0  0  0  0
   44.7700    5.7409   12.3250 C   0  0  0  0  0  0  0  0  0  0  0  0
   46.7937    4.9418   13.3492 N   0  0  0  0  0  0  0  0  0  0  0  0
   45.5577    4.6832   12.7646 C   0  0  0  0  0  0  0  0  0  0  0  0
   47.0011    8.6128   13.3620 C   0  0  0  0  0  0  0  0  0  0  0  0
   49.4900   14.5829   11.6924 C   0  0  0  0  0  0  0  0  0  0  0  0
   48.3350   10.4627   12.2691 N   0  0  0  0  0  0  0  0  0  0  0  0
   48.4173    6.3193   14.0373 O   0  0  0  0  0  0  0  0  0  0  0  0
   44.6303    8.0571   12.0431 O   0  0  0  0  0  0  0  0  0  0  0  0
   49.0569   15.1754   10.3932 C   0  0  0  0  0  0  0  0  0  0  0  0
   49.2755   13.1077   12.0192 C   0  0  0  0  0  0  0  0  0  0  0  0
   50.0309   15.3306   12.5094 O   0  0  0  0  0  0  0  0  0  0  0  0
   47.7987    9.0959   12.1337 C   0  0  0  0  0  0  0  0  0  0  0  0
   47.9111   14.7542    9.7072 C   0  0  0  0  0  0  0  0  0  0  0  0
   49.8249   16.2292    9.8715 C   0  0  0  0  0  0  0  0  0  0  0  0
   47.8896   12.8441   12.6206 C   0  0  0  0  0  0  0  0  0  0  0  0
   49.6040   12.1479   10.8762 C   0  0  0  0  0  0  0  0  0  0  0  0
   47.3028   11.4967   12.1855 C   0  0  0  0  0  0  0  0  0  0  0  0
   49.4301   10.6864   11.3091 C   0  0  0  0  0  0  0  0  0  0  0  0
   48.3366   16.3936    7.9894 C   0  0  0  0  0  0  0  0  0  0  0  0
   43.5312    5.4951   11.7245 C   0  0  0  0  0  0  0  0  0  0  0  0
   49.4667   16.8350    8.6655 C   0  0  0  0  0  0  0  0  0  0  0  0
   47.5554   15.3628    8.4998 C   0  0  0  0  0  0  0  0  0  0  0  0
   47.9900   16.9726    6.8329 F   0  0  0  0  0  0  0  0  0  0  0  0
   45.1188    3.3684   12.6104 C   0  0  0  0  0  0  0  0  0  0  0  0
   43.0877    4.1808   11.5707 C   0  0  0  0  0  0  0  0  0  0  0  0
   43.8806    3.1199   12.0132 C   0  0  0  0  0  0  0  0  0  0  0  0
   47.3920    4.1834   13.6505 H   0  0  0  0  0  0  0  0  0  0  0  0
   46.1505    9.2725   13.5618 H   0  0  0  0  0  0  0  0  0  0  0  0
   47.6424    8.6386   14.2512 H   0  0  0  0  0  0  0  0  0  0  0  0
   50.0152   12.8897   12.8055 H   0  0  0  0  0  0  0  0  0  0  0  0
   47.1874    9.0163   11.2252 H   0  0  0  0  0  0  0  0  0  0  0  0
   48.6350    8.3960   12.0012 H   0  0  0  0  0  0  0  0  0  0  0  0
   47.2720   13.9680   10.0944 H   0  0  0  0  0  0  0  0  0  0  0  0
   50.7050   16.5822   10.4070 H   0  0  0  0  0  0  0  0  0  0  0  0
   47.9825   12.8577   13.7153 H   0  0  0  0  0  0  0  0  0  0  0  0
   47.1787   13.6425   12.3808 H   0  0  0  0  0  0  0  0  0  0  0  0
   48.9544   12.3260   10.0132 H   0  0  0  0  0  0  0  0  0  0  0  0
   50.6295   12.3106   10.5230 H   0  0  0  0  0  0  0  0  0  0  0  0
   46.8938   11.5625   11.1691 H   0  0  0  0  0  0  0  0  0  0  0  0
   46.4597   11.2820   12.8500 H   0  0  0  0  0  0  0  0  0  0  0  0
   49.2903   10.0909   10.3971 H   0  0  0  0  0  0  0  0  0  0  0  0
   50.3597   10.3376   11.7747 H   0  0  0  0  0  0  0  0  0  0  0  0
   42.9137    6.3210   11.3782 H   0  0  0  0  0  0  0  0  0  0  0  0
   50.0580   17.6481    8.2563 H   0  0  0  0  0  0  0  0  0  0  0  0
   46.6697   15.0448    7.9578 H   0  0  0  0  0  0  0  0  0  0  0  0
   45.7247    2.5319   12.9478 H   0  0  0  0  0  0  0  0  0  0  0  0
   42.1244    3.9839   11.1053 H   0  0  0  0  0  0  0  0  0  0  0  0
   43.5322    2.0966   11.8912 H   0  0  0  0  0  0  0  0  0  0  0  0
  2  1  1  0
  3  1  1  0
  4  3  1  0
  5  2  1  0
  6  4  2  0
  7  1  1  0
  8 13  1  0
  9 15  1  0
 10  2  2  0
 11  3  2  0
 12  8  1  0
 13 19  1  0
 14  8  2  0
 15  7  1  0
 16 12  2  0
 17 12  1  0
 18 20  1  0
 19 21  1  0
 20  9  1  0
 21  9  1  0
 22 24  1  0
 23  4  1  0
 24 17  2  0
 25 16  1  0
 26 22  1  0
 27  6  1  0
 28 23  2  0
 29 28  1  0
  5  6  1  0
 18 13  1  0
 29 27  2  0
 25 22  2  0
  5 30  1  0
  7 31  1  0
  7 32  1  0
 13 33  1  0
 15 34  1  0
 15 35  1  0
 16 36  1  0
 17 37  1  0
 18 38  1  0
 18 39  1  0
 19 40  1  0
 19 41  1  0
 20 42  1  0
 20 43  1  0
 21 44  1  0
 21 45  1  0
 23 46  1  0
 24 47  1  0
 25 48  1  0
 27 49  1  0
 28 50  1  0
 29 51  1  0
M  END
> <Uni-Dock RESULT> 
ENERGY=   -3.975  LOWER_BOUND=    5.984  UPPER_BOUND=    9.660
INTER + INTRA:          -3.975
INTER:                  -3.975
INTRA:                   0.000
UNBOUND:                 0.000

$$$$

     RDKit          3D

 51 54  0  0  0  0  0  0  0  0999 V2000
   50.1372    8.7992   11.9970 N   0  0  0  0  0  0  0  0  0  0  0  0
   51.3133    8.7270   11.2693 C   0  0  0  0  0  0  0  0  0  0  0  0
   49.3104    9.9208   12.0371 C   0  0  0  0  0  0  0  0  0  0  0  0
   49.6525   11.0304   11.1271 C   0  0  0  0  0  0  0  0  0  0  0  0
   51.5987    9.7872   10.4567 N   0  0  0  0  0  0  0  0  0  0  0  0
   50.8024   10.9236   10.3534 C   0  0  0  0  0  0  0  0  0  0  0  0
   49.8082    7.6858   12.8852 C   0  0  0  0  0  0  0  0  0  0  0  0
   48.9498    4.4009   18.6381 C   0  0  0  0  0  0  0  0  0  0  0  0
   50.1003    6.7945   15.2339 N   0  0  0  0  0  0  0  0  0  0  0  0
   52.1031    7.7860   11.3215 O   0  0  0  0  0  0  0  0  0  0  0  0
   48.3437   10.0342   12.7879 O   0  0  0  0  0  0  0  0  0  0  0  0
   48.4783    5.1824   19.8186 C   0  0  0  0  0  0  0  0  0  0  0  0
   49.5080    5.0795   17.3904 C   0  0  0  0  0  0  0  0  0  0  0  0
   48.8710    3.1723   18.6977 O   0  0  0  0  0  0  0  0  0  0  0  0
   50.4062    7.8873   14.2923 C   0  0  0  0  0  0  0  0  0  0  0  0
   47.8597    6.4336   19.7070 C   0  0  0  0  0  0  0  0  0  0  0  0
   48.6355    4.6012   21.0875 C   0  0  0  0  0  0  0  0  0  0  0  0
   48.4030    5.4732   16.4026 C   0  0  0  0  0  0  0  0  0  0  0  0
   50.4737    6.2307   17.6696 C   0  0  0  0  0  0  0  0  0  0  0  0
   48.7039    6.7862   15.6713 C   0  0  0  0  0  0  0  0  0  0  0  0
   51.0416    6.8092   16.3672 C   0  0  0  0  0  0  0  0  0  0  0  0
   47.6082    6.5233   22.1046 C   0  0  0  0  0  0  0  0  0  0  0  0
   48.8495   12.1721   11.0425 C   0  0  0  0  0  0  0  0  0  0  0  0
   48.2045    5.2754   22.2318 C   0  0  0  0  0  0  0  0  0  0  0  0
   47.4295    7.1061   20.8549 C   0  0  0  0  0  0  0  0  0  0  0  0
   47.1932    7.1723   23.1998 F   0  0  0  0  0  0  0  0  0  0  0  0
   51.1645   11.9543    9.4863 C   0  0  0  0  0  0  0  0  0  0  0  0
   49.2074   13.2045   10.1743 C   0  0  0  0  0  0  0  0  0  0  0  0
   50.3628   13.0950    9.3978 C   0  0  0  0  0  0  0  0  0  0  0  0
   52.4533    9.7042    9.9212 H   0  0  0  0  0  0  0  0  0  0  0  0
   48.7179    7.5982   12.9310 H   0  0  0  0  0  0  0  0  0  0  0  0
   50.1870    6.7512   12.4542 H   0  0  0  0  0  0  0  0  0  0  0  0
   50.1150    4.3009   16.9020 H   0  0  0  0  0  0  0  0  0  0  0  0
   50.0841    8.8500   14.7106 H   0  0  0  0  0  0  0  0  0  0  0  0
   51.4956    7.9573   14.1688 H   0  0  0  0  0  0  0  0  0  0  0  0
   47.6878    6.9004   18.7431 H   0  0  0  0  0  0  0  0  0  0  0  0
   49.0937    3.6182   21.1861 H   0  0  0  0  0  0  0  0  0  0  0  0
   48.3004    4.6668   15.6635 H   0  0  0  0  0  0  0  0  0  0  0  0
   47.4238    5.5461   16.8888 H   0  0  0  0  0  0  0  0  0  0  0  0
   49.9750    7.0404   18.2118 H   0  0  0  0  0  0  0  0  0  0  0  0
   51.2942    5.8936   18.3146 H   0  0  0  0  0  0  0  0  0  0  0  0
   48.4891    7.6472   16.3174 H   0  0  0  0  0  0  0  0  0  0  0  0
   48.0135    6.8494   14.8241 H   0  0  0  0  0  0  0  0  0  0  0  0
   51.3873    7.8281   16.5868 H   0  0  0  0  0  0  0  0  0  0  0  0
   51.9267    6.2316   16.0746 H   0  0  0  0  0  0  0  0  0  0  0  0
   47.9500   12.2588   11.6482 H   0  0  0  0  0  0  0  0  0  0  0  0
   48.3258    4.8322   23.2152 H   0  0  0  0  0  0  0  0  0  0  0  0
   46.9491    8.0773   20.7819 H   0  0  0  0  0  0  0  0  0  0  0  0
   52.0613   11.8852    8.8768 H   0  0  0  0  0  0  0  0  0  0  0  0
   48.5858   14.0944   10.1036 H   0  0  0  0  0  0  0  0  0  0  0  0
   50.6393   13.9019    8.7225 H   0  0  0  0  0  0  0  0  0  0  0  0
  2  1  1  0
  3  1  1  0
  4  3  1  0
  5  2  1  0
  6  4  2  0
  7  1  1  0
  8 13  1  0
  9 15  1  0
 10  2  2  0
 11  3  2  0
 12  8  1  0
 13 19  1  0
 14  8  2  0
 15  7  1  0
 16 12  2  0
 17 12  1  0
 18 20  1  0
 19 21  1  0
 20  9  1  0
 21  9  1  0
 22 24  1  0
 23  4  1  0
 24 17  2  0
 25 16  1  0
 26 22  1  0
 27  6  1  0
 28 23  2  0
 29 28  1  0
  5  6  1  0
 18 13  1  0
 29 27  2  0
 25 22  2  0
  5 30  1  0
  7 31  1  0
  7 32  1  0
 13 33  1  0
 15 34  1  0
 15 35  1  0
 16 36  1  0
 17 37  1  0
 18 38  1  0
 18 39  1  0
 19 40  1  0
 19 41  1  0
 20 42  1  0
 20 43  1  0
 21 44  1  0
 21 45  1  0
 23 46  1  0
 24 47  1  0
 25 48  1  0
 27 49  1  0
 28 50  1  0
 29 51  1  0
M  END
> <Uni-Dock RESULT> 
ENERGY=   -3.918  LOWER_BOUND=    5.127  UPPER_BOUND=    8.007
INTER + INTRA:          -3.918
INTER:                  -3.918
INTRA:                   0.000
UNBOUND:                 0.000

$$$$
