
     RDKit          3D

 51 54  0  0  0  0  0  0  0  0999 V2000
   53.1160    8.2204   15.0232 N   0  0  0  0  0  0  0  0  0  0  0  0
   54.1087    8.9229   14.3607 C   0  0  0  0  0  0  0  0  0  0  0  0
   53.3443    7.0766   15.7865 C   0  0  0  0  0  0  0  0  0  0  0  0
   54.7526    6.6965   16.0076 C   0  0  0  0  0  0  0  0  0  0  0  0
   55.3957    8.5212   14.5794 N   0  0  0  0  0  0  0  0  0  0  0  0
   55.7469    7.4449   15.3885 C   0  0  0  0  0  0  0  0  0  0  0  0
   51.7269    8.6178   14.8013 C   0  0  0  0  0  0  0  0  0  0  0  0
   45.4691    8.2290   12.4965 C   0  0  0  0  0  0  0  0  0  0  0  0
   49.7053    8.2354   13.3304 N   0  0  0  0  0  0  0  0  0  0  0  0
   53.8991    9.8615   13.5943 O   0  0  0  0  0  0  0  0  0  0  0  0
   52.4507    6.3770   16.2585 O   0  0  0  0  0  0  0  0  0  0  0  0
   44.8616    6.8722   12.3664 C   0  0  0  0  0  0  0  0  0  0  0  0
   46.9719    8.4280   12.6720 C   0  0  0  0  0  0  0  0  0  0  0  0
   44.7110    9.2002   12.4619 O   0  0  0  0  0  0  0  0  0  0  0  0
   51.1105    7.8766   13.5975 C   0  0  0  0  0  0  0  0  0  0  0  0
   43.7139    6.7480   11.5664 C   0  0  0  0  0  0  0  0  0  0  0  0
   45.3608    5.7462   13.0324 C   0  0  0  0  0  0  0  0  0  0  0  0
   47.3985    8.3446   14.1425 C   0  0  0  0  0  0  0  0  0  0  0  0
   47.8398    7.5558   11.7657 C   0  0  0  0  0  0  0  0  0  0  0  0
   48.7752    7.6954   14.3230 C   0  0  0  0  0  0  0  0  0  0  0  0
   49.3300    7.8678   11.9539 C   0  0  0  0  0  0  0  0  0  0  0  0
   43.6085    4.3981   12.0670 C   0  0  0  0  0  0  0  0  0  0  0  0
   55.0906    5.6048   16.8134 C   0  0  0  0  0  0  0  0  0  0  0  0
   44.7341    4.5062   12.8762 C   0  0  0  0  0  0  0  0  0  0  0  0
   43.0903    5.5082   11.4128 C   0  0  0  0  0  0  0  0  0  0  0  0
   43.0127    3.2078   11.9223 F   0  0  0  0  0  0  0  0  0  0  0  0
   57.0900    7.1131   15.5663 C   0  0  0  0  0  0  0  0  0  0  0  0
   56.4334    5.2712   16.9954 C   0  0  0  0  0  0  0  0  0  0  0  0
   57.4307    6.0245   16.3728 C   0  0  0  0  0  0  0  0  0  0  0  0
   56.1050    9.0605   14.0996 H   0  0  0  0  0  0  0  0  0  0  0  0
   51.1642    8.4135   15.7179 H   0  0  0  0  0  0  0  0  0  0  0  0
   51.6798    9.7002   14.6308 H   0  0  0  0  0  0  0  0  0  0  0  0
   47.1527    9.4631   12.3418 H   0  0  0  0  0  0  0  0  0  0  0  0
   51.2070    6.7906   13.7267 H   0  0  0  0  0  0  0  0  0  0  0  0
   51.7176    8.1348   12.7190 H   0  0  0  0  0  0  0  0  0  0  0  0
   43.3016    7.6206   11.0619 H   0  0  0  0  0  0  0  0  0  0  0  0
   46.2234    5.8073   13.6872 H   0  0  0  0  0  0  0  0  0  0  0  0
   47.4274    9.3646   14.5498 H   0  0  0  0  0  0  0  0  0  0  0  0
   46.6635    7.8097   14.7543 H   0  0  0  0  0  0  0  0  0  0  0  0
   47.6862    6.4927   11.9773 H   0  0  0  0  0  0  0  0  0  0  0  0
   47.5606    7.6996   10.7148 H   0  0  0  0  0  0  0  0  0  0  0  0
   48.7023    6.6034   14.2402 H   0  0  0  0  0  0  0  0  0  0  0  0
   49.1028    7.9116   15.3449 H   0  0  0  0  0  0  0  0  0  0  0  0
   49.8930    6.9914   11.6064 H   0  0  0  0  0  0  0  0  0  0  0  0
   49.6073    8.7016   11.2977 H   0  0  0  0  0  0  0  0  0  0  0  0
   54.3140    5.0165   17.2976 H   0  0  0  0  0  0  0  0  0  0  0  0
   45.1118    3.6251   13.3866 H   0  0  0  0  0  0  0  0  0  0  0  0
   42.2046    5.4058   10.7936 H   0  0  0  0  0  0  0  0  0  0  0  0
   57.8777    7.6883   15.0873 H   0  0  0  0  0  0  0  0  0  0  0  0
   56.7021    4.4237   17.6221 H   0  0  0  0  0  0  0  0  0  0  0  0
   58.4766    5.7615   16.5163 H   0  0  0  0  0  0  0  0  0  0  0  0
  2  1  1  0
  3  1  1  0
  4  3  1  0
  5  2  1  0
  6  4  2  0
  7  1  1  0
  8 13  1  0
  9 15  1  0
 10  2  2  0
 11  3  2  0
 12  8  1  0
 13 19  1  0
 14  8  2  0
 15  7  1  0
 16 12  2  0
 17 12  1  0
 18 20  1  0
 19 21  1  0
 20  9  1  0
 21  9  1  0
 22 24  1  0
 23  4  1  0
 24 17  2  0
 25 16  1  0
 26 22  1  0
 27  6  1  0
 28 23  2  0
 29 28  1  0
  5  6  1  0
 18 13  1  0
 29 27  2  0
 25 22  2  0
  5 30  1  0
  7 31  1  0
  7 32  1  0
 13 33  1  0
 15 34  1  0
 15 35  1  0
 16 36  1  0
 17 37  1  0
 18 38  1  0
 18 39  1  0
 19 40  1  0
 19 41  1  0
 20 42  1  0
 20 43  1  0
 21 44  1  0
 21 45  1  0
 23 46  1  0
 24 47  1  0
 25 48  1  0
 27 49  1  0
 28 50  1  0
 29 51  1  0
M  END
> <Uni-Dock RESULT> 
ENERGY=   -4.350  LOWER_BOUND=    0.000  UPPER_BOUND=    0.000
INTER + INTRA:          -4.350
INTER:                  -4.350
INTRA:                   0.000
UNBOUND:                 0.000

$$$$

     RDKit          3D

 51 54  0  0  0  0  0  0  0  0999 V2000
   47.7806    6.1003   14.2052 N   0  0  0  0  0  0  0  0  0  0  0  0
   47.1026    4.9320   13.8999 C   0  0  0  0  0  0  0  0  0  0  0  0
   48.3139    6.3894   15.4602 C   0  0  0  0  0  0  0  0  0  0  0  0
   48.2698    5.3099   16.4648 C   0  0  0  0  0  0  0  0  0  0  0  0
   47.0700    3.9698   14.8688 N   0  0  0  0  0  0  0  0  0  0  0  0
   47.6411    4.1165   16.1291 C   0  0  0  0  0  0  0  0  0  0  0  0
   47.8240    7.1549   13.1939 C   0  0  0  0  0  0  0  0  0  0  0  0
   46.4010   12.9894   10.2686 C   0  0  0  0  0  0  0  0  0  0  0  0
   46.6141    9.1982   12.3235 N   0  0  0  0  0  0  0  0  0  0  0  0
   46.5312    4.7220   12.8314 O   0  0  0  0  0  0  0  0  0  0  0  0
   48.7922    7.4791   15.7681 O   0  0  0  0  0  0  0  0  0  0  0  0
   46.1466   14.1641   11.1530 C   0  0  0  0  0  0  0  0  0  0  0  0
   46.3900   11.5595   10.8015 C   0  0  0  0  0  0  0  0  0  0  0  0
   46.6279   13.2095    9.0773 O   0  0  0  0  0  0  0  0  0  0  0  0
   46.6187    8.1090   13.3176 C   0  0  0  0  0  0  0  0  0  0  0  0
   45.5086   15.2790   10.5851 C   0  0  0  0  0  0  0  0  0  0  0  0
   46.5491   14.2108   12.4933 C   0  0  0  0  0  0  0  0  0  0  0  0
   47.7531   11.1422   11.3664 C   0  0  0  0  0  0  0  0  0  0  0  0
   45.2434   11.2468   11.7623 C   0  0  0  0  0  0  0  0  0  0  0  0
   47.6313   10.2179   12.5830 C   0  0  0  0  0  0  0  0  0  0  0  0
   45.2644    9.7747   12.1937 C   0  0  0  0  0  0  0  0  0  0  0  0
   45.6427   16.4381   12.6880 C   0  0  0  0  0  0  0  0  0  0  0  0
   48.8372    5.4756   17.7321 C   0  0  0  0  0  0  0  0  0  0  0  0
   46.2904   15.3497   13.2620 C   0  0  0  0  0  0  0  0  0  0  0  0
   45.2519   16.4149   11.3555 C   0  0  0  0  0  0  0  0  0  0  0  0
   45.3986   17.5259   13.4296 F   0  0  0  0  0  0  0  0  0  0  0  0
   47.5715    3.0744   17.0537 C   0  0  0  0  0  0  0  0  0  0  0  0
   48.7715    4.4343   18.6589 C   0  0  0  0  0  0  0  0  0  0  0  0
   48.1397    3.2362   18.3196 C   0  0  0  0  0  0  0  0  0  0  0  0
   46.5850    3.1180   14.6167 H   0  0  0  0  0  0  0  0  0  0  0  0
   48.7676    7.6979   13.3092 H   0  0  0  0  0  0  0  0  0  0  0  0
   47.8346    6.7023   12.1950 H   0  0  0  0  0  0  0  0  0  0  0  0
   46.2046   10.9361    9.9126 H   0  0  0  0  0  0  0  0  0  0  0  0
   46.5602    8.5218   14.3332 H   0  0  0  0  0  0  0  0  0  0  0  0
   45.7145    7.4996   13.1830 H   0  0  0  0  0  0  0  0  0  0  0  0
   45.2116   15.2647    9.5374 H   0  0  0  0  0  0  0  0  0  0  0  0
   47.0758   13.3850   12.9592 H   0  0  0  0  0  0  0  0  0  0  0  0
   48.3077   10.6205   10.5743 H   0  0  0  0  0  0  0  0  0  0  0  0
   48.3713   12.0076   11.6301 H   0  0  0  0  0  0  0  0  0  0  0  0
   45.3047   11.8655   12.6633 H   0  0  0  0  0  0  0  0  0  0  0  0
   44.2789   11.4831   11.2967 H   0  0  0  0  0  0  0  0  0  0  0  0
   47.3889   10.7946   13.4848 H   0  0  0  0  0  0  0  0  0  0  0  0
   48.6174    9.7729   12.7505 H   0  0  0  0  0  0  0  0  0  0  0  0
   44.7067    9.7035   13.1370 H   0  0  0  0  0  0  0  0  0  0  0  0
   44.7150    9.1773   11.4562 H   0  0  0  0  0  0  0  0  0  0  0  0
   49.3282    6.4094   17.9976 H   0  0  0  0  0  0  0  0  0  0  0  0
   46.5966   15.3982   14.3028 H   0  0  0  0  0  0  0  0  0  0  0  0
   44.7568   17.2784   10.9226 H   0  0  0  0  0  0  0  0  0  0  0  0
   47.0819    2.1366   16.8056 H   0  0  0  0  0  0  0  0  0  0  0  0
   49.2122    4.5573   19.6458 H   0  0  0  0  0  0  0  0  0  0  0  0
   48.0897    2.4266   19.0446 H   0  0  0  0  0  0  0  0  0  0  0  0
  2  1  1  0
  3  1  1  0
  4  3  1  0
  5  2  1  0
  6  4  2  0
  7  1  1  0
  8 13  1  0
  9 15  1  0
 10  2  2  0
 11  3  2  0
 12  8  1  0
 13 19  1  0
 14  8  2  0
 15  7  1  0
 16 12  2  0
 17 12  1  0
 18 20  1  0
 19 21  1  0
 20  9  1  0
 21  9  1  0
 22 24  1  0
 23  4  1  0
 24 17  2  0
 25 16  1  0
 26 22  1  0
 27  6  1  0
 28 23  2  0
 29 28  1  0
  5  6  1  0
 18 13  1  0
 29 27  2  0
 25 22  2  0
  5 30  1  0
  7 31  1  0
  7 32  1  0
 13 33  1  0
 15 34  1  0
 15 35  1  0
 16 36  1  0
 17 37  1  0
 18 38  1  0
 18 39  1  0
 19 40  1  0
 19 41  1  0
 20 42  1  0
 20 43  1  0
 21 44  1  0
 21 45  1  0
 23 46  1  0
 24 47  1  0
 25 48  1  0
 27 49  1  0
 28 50  1  0
 29 51  1  0
M  END
> <Uni-Dock RESULT> 
ENERGY=   -4.259  LOWER_BOUND=    5.620  UPPER_BOUND=    7.760
INTER + INTRA:          -4.259
INTER:                  -4.259
INTRA:                   0.000
UNBOUND:                 0.000

$$$$

     RDKit          3D

 51 54  0  0  0  0  0  0  0  0999 V2000
   56.3874    3.7636   10.8351 N   0  0  0  0  0  0  0  0  0  0  0  0
   56.2879    2.3960   10.6401 C   0  0  0  0  0  0  0  0  0  0  0  0
   56.4629    4.3712   12.0873 C   0  0  0  0  0  0  0  0  0  0  0  0
   56.5910    3.4758   13.2528 C   0  0  0  0  0  0  0  0  0  0  0  0
   56.3909    1.6082   11.7511 N   0  0  0  0  0  0  0  0  0  0  0  0
   56.5522    2.1024   13.0419 C   0  0  0  0  0  0  0  0  0  0  0  0
   56.2696    4.6353    9.6676 C   0  0  0  0  0  0  0  0  0  0  0  0
   53.4980    9.0575    5.4980 C   0  0  0  0  0  0  0  0  0  0  0  0
   54.6244    5.9112    8.2317 N   0  0  0  0  0  0  0  0  0  0  0  0
   56.1050    1.8640    9.5467 O   0  0  0  0  0  0  0  0  0  0  0  0
   56.4120    5.5864   12.2644 O   0  0  0  0  0  0  0  0  0  0  0  0
   52.6226   10.1120    6.0881 C   0  0  0  0  0  0  0  0  0  0  0  0
   53.8977    7.8089    6.2789 C   0  0  0  0  0  0  0  0  0  0  0  0
   53.8992    9.2272    4.3450 O   0  0  0  0  0  0  0  0  0  0  0  0
   54.8023    5.0257    9.3974 C   0  0  0  0  0  0  0  0  0  0  0  0
   51.7666   10.8077    5.2187 C   0  0  0  0  0  0  0  0  0  0  0  0
   52.6512   10.4552    7.4454 C   0  0  0  0  0  0  0  0  0  0  0  0
   55.1440    8.0406    7.1417 C   0  0  0  0  0  0  0  0  0  0  0  0
   52.7603    7.1584    7.0655 C   0  0  0  0  0  0  0  0  0  0  0  0
   55.0946    7.2765    8.4695 C   0  0  0  0  0  0  0  0  0  0  0  0
   53.2284    5.8741    7.7619 C   0  0  0  0  0  0  0  0  0  0  0  0
   50.9592   12.1305    7.0577 C   0  0  0  0  0  0  0  0  0  0  0  0
   56.7402    3.9864   14.5460 C   0  0  0  0  0  0  0  0  0  0  0  0
   51.8125   11.4635    7.9297 C   0  0  0  0  0  0  0  0  0  0  0  0
   50.9305   11.8143    5.7056 C   0  0  0  0  0  0  0  0  0  0  0  0
   50.1592   13.0957    7.5279 F   0  0  0  0  0  0  0  0  0  0  0  0
   56.6623    1.2225   14.1185 C   0  0  0  0  0  0  0  0  0  0  0  0
   56.8530    3.1091   15.6254 C   0  0  0  0  0  0  0  0  0  0  0  0
   56.8141    1.7298   15.4113 C   0  0  0  0  0  0  0  0  0  0  0  0
   56.3336    0.6121   11.5822 H   0  0  0  0  0  0  0  0  0  0  0  0
   56.8859    5.5230    9.8425 H   0  0  0  0  0  0  0  0  0  0  0  0
   56.6831    4.1260    8.7887 H   0  0  0  0  0  0  0  0  0  0  0  0
   54.1735    7.0763    5.5041 H   0  0  0  0  0  0  0  0  0  0  0  0
   54.3567    5.4811   10.2915 H   0  0  0  0  0  0  0  0  0  0  0  0
   54.2506    4.0917    9.2232 H   0  0  0  0  0  0  0  0  0  0  0  0
   51.7518   10.5668    4.1567 H   0  0  0  0  0  0  0  0  0  0  0  0
   53.3232    9.9665    8.1426 H   0  0  0  0  0  0  0  0  0  0  0  0
   56.0228    7.7104    6.5710 H   0  0  0  0  0  0  0  0  0  0  0  0
   55.3129    9.1044    7.3428 H   0  0  0  0  0  0  0  0  0  0  0  0
   52.3721    7.8377    7.8312 H   0  0  0  0  0  0  0  0  0  0  0  0
   51.9160    6.9342    6.4024 H   0  0  0  0  0  0  0  0  0  0  0  0
   54.4495    7.7945    9.1907 H   0  0  0  0  0  0  0  0  0  0  0  0
   56.1063    7.2895    8.8874 H   0  0  0  0  0  0  0  0  0  0  0  0
   52.5330    5.6801    8.5894 H   0  0  0  0  0  0  0  0  0  0  0  0
   53.1323    5.0330    7.0648 H   0  0  0  0  0  0  0  0  0  0  0  0
   56.7691    5.0609   14.7137 H   0  0  0  0  0  0  0  0  0  0  0  0
   51.8245   11.7385    8.9803 H   0  0  0  0  0  0  0  0  0  0  0  0
   50.2650   12.3534    5.0387 H   0  0  0  0  0  0  0  0  0  0  0  0
   56.6322    0.1467   13.9687 H   0  0  0  0  0  0  0  0  0  0  0  0
   56.9704    3.5008   16.6334 H   0  0  0  0  0  0  0  0  0  0  0  0
   56.9017    1.0485   16.2550 H   0  0  0  0  0  0  0  0  0  0  0  0
  2  1  1  0
  3  1  1  0
  4  3  1  0
  5  2  1  0
  6  4  2  0
  7  1  1  0
  8 13  1  0
  9 15  1  0
 10  2  2  0
 11  3  2  0
 12  8  1  0
 13 19  1  0
 14  8  2  0
 15  7  1  0
 16 12  2  0
 17 12  1  0
 18 20  1  0
 19 21  1  0
 20  9  1  0
 21  9  1  0
 22 24  1  0
 23  4  1  0
 24 17  2  0
 25 16  1  0
 26 22  1  0
 27  6  1  0
 28 23  2  0
 29 28  1  0
  5  6  1  0
 18 13  1  0
 29 27  2  0
 25 22  2  0
  5 30  1  0
  7 31  1  0
  7 32  1  0
 13 33  1  0
 15 34  1  0
 15 35  1  0
 16 36  1  0
 17 37  1  0
 18 38  1  0
 18 39  1  0
 19 40  1  0
 19 41  1  0
 20 42  1  0
 20 43  1  0
 21 44  1  0
 21 45  1  0
 23 46  1  0
 24 47  1  0
 25 48  1  0
 27 49  1  0
 28 50  1  0
 29 51  1  0
M  END
> <Uni-Dock RESULT> 
ENERGY=   -4.220  LOWER_BOUND=    7.588  UPPER_BOUND=    8.559
INTER + INTRA:          -4.220
INTER:                  -4.220
INTRA:                   0.000
UNBOUND:                 0.000

$$$$

     RDKit          3D

 51 54  0  0  0  0  0  0  0  0999 V2000
   47.1978    6.7657   13.5294 N   0  0  0  0  0  0  0  0  0  0  0  0
   46.4536    7.8441   13.0808 C   0  0  0  0  0  0  0  0  0  0  0  0
   46.7358    5.4508   13.5483 C   0  0  0  0  0  0  0  0  0  0  0  0
   45.4294    5.1971   12.9113 C   0  0  0  0  0  0  0  0  0  0  0  0
   45.2414    7.5620   12.5179 N   0  0  0  0  0  0  0  0  0  0  0  0
   44.7158    6.2784   12.4075 C   0  0  0  0  0  0  0  0  0  0  0  0
   48.4948    7.0345   14.1477 C   0  0  0  0  0  0  0  0  0  0  0  0
   53.0358    7.5950   19.0149 C   0  0  0  0  0  0  0  0  0  0  0  0
   49.6434    7.5347   16.3448 N   0  0  0  0  0  0  0  0  0  0  0  0
   46.8115    9.0172   13.1693 O   0  0  0  0  0  0  0  0  0  0  0  0
   47.3413    4.5182   14.0721 O   0  0  0  0  0  0  0  0  0  0  0  0
   52.9430    6.6450   20.1618 C   0  0  0  0  0  0  0  0  0  0  0  0
   51.8813    7.7970   18.0376 C   0  0  0  0  0  0  0  0  0  0  0  0
   54.0890    8.2194   18.8738 O   0  0  0  0  0  0  0  0  0  0  0  0
   48.3621    7.2641   15.6669 C   0  0  0  0  0  0  0  0  0  0  0  0
   53.6446    6.9709   21.3340 C   0  0  0  0  0  0  0  0  0  0  0  0
   52.2280    5.4427   20.1001 C   0  0  0  0  0  0  0  0  0  0  0  0
   51.9033    6.7726   16.8967 C   0  0  0  0  0  0  0  0  0  0  0  0
   50.5047    7.9069   18.6921 C   0  0  0  0  0  0  0  0  0  0  0  0
   50.4980    6.3516   16.4527 C   0  0  0  0  0  0  0  0  0  0  0  0
   49.4127    8.1790   17.6495 C   0  0  0  0  0  0  0  0  0  0  0  0
   52.8807    4.9379   22.3671 C   0  0  0  0  0  0  0  0  0  0  0  0
   44.9076    3.9032   12.8182 C   0  0  0  0  0  0  0  0  0  0  0  0
   52.1939    4.5915   21.2088 C   0  0  0  0  0  0  0  0  0  0  0  0
   53.6087    6.1185   22.4393 C   0  0  0  0  0  0  0  0  0  0  0  0
   52.8445    4.1179   23.4250 F   0  0  0  0  0  0  0  0  0  0  0  0
   43.4735    6.0813   11.8048 C   0  0  0  0  0  0  0  0  0  0  0  0
   43.6659    3.7018   12.2138 C   0  0  0  0  0  0  0  0  0  0  0  0
   42.9508    4.7893   11.7081 C   0  0  0  0  0  0  0  0  0  0  0  0
   44.7237    8.3636   12.1809 H   0  0  0  0  0  0  0  0  0  0  0  0
   49.1549    6.1874   13.9351 H   0  0  0  0  0  0  0  0  0  0  0  0
   48.9461    7.9178   13.6797 H   0  0  0  0  0  0  0  0  0  0  0  0
   52.0708    8.7845   17.5882 H   0  0  0  0  0  0  0  0  0  0  0  0
   47.8550    6.4127   16.1396 H   0  0  0  0  0  0  0  0  0  0  0  0
   47.6977    8.1286   15.8020 H   0  0  0  0  0  0  0  0  0  0  0  0
   54.2239    7.8916   21.3869 H   0  0  0  0  0  0  0  0  0  0  0  0
   51.7023    5.1377   19.2016 H   0  0  0  0  0  0  0  0  0  0  0  0
   52.4293    7.2213   16.0428 H   0  0  0  0  0  0  0  0  0  0  0  0
   52.4831    5.8799   17.1567 H   0  0  0  0  0  0  0  0  0  0  0  0
   50.2457    6.9847   19.2222 H   0  0  0  0  0  0  0  0  0  0  0  0
   50.5027    8.7020   19.4476 H   0  0  0  0  0  0  0  0  0  0  0  0
   50.0727    5.6220   17.1537 H   0  0  0  0  0  0  0  0  0  0  0  0
   50.6032    5.8388   15.4912 H   0  0  0  0  0  0  0  0  0  0  0  0
   48.4570    7.8628   18.0883 H   0  0  0  0  0  0  0  0  0  0  0  0
   49.3400    9.2602   17.4805 H   0  0  0  0  0  0  0  0  0  0  0  0
   45.4635    3.0556   13.2134 H   0  0  0  0  0  0  0  0  0  0  0  0
   51.6424    3.6566   21.1741 H   0  0  0  0  0  0  0  0  0  0  0  0
   54.1469    6.3666   23.3488 H   0  0  0  0  0  0  0  0  0  0  0  0
   42.9039    6.9172   11.4080 H   0  0  0  0  0  0  0  0  0  0  0  0
   43.2557    2.6972   12.1377 H   0  0  0  0  0  0  0  0  0  0  0  0
   41.9829    4.6290   11.2380 H   0  0  0  0  0  0  0  0  0  0  0  0
  2  1  1  0
  3  1  1  0
  4  3  1  0
  5  2  1  0
  6  4  2  0
  7  1  1  0
  8 13  1  0
  9 15  1  0
 10  2  2  0
 11  3  2  0
 12  8  1  0
 13 19  1  0
 14  8  2  0
 15  7  1  0
 16 12  2  0
 17 12  1  0
 18 20  1  0
 19 21  1  0
 20  9  1  0
 21  9  1  0
 22 24  1  0
 23  4  1  0
 24 17  2  0
 25 16  1  0
 26 22  1  0
 27  6  1  0
 28 23  2  0
 29 28  1  0
  5  6  1  0
 18 13  1  0
 29 27  2  0
 25 22  2  0
  5 30  1  0
  7 31  1  0
  7 32  1  0
 13 33  1  0
 15 34  1  0
 15 35  1  0
 16 36  1  0
 17 37  1  0
 18 38  1  0
 18 39  1  0
 19 40  1  0
 19 41  1  0
 20 42  1  0
 20 43  1  0
 21 44  1  0
 21 45  1  0
 23 46  1  0
 24 47  1  0
 25 48  1  0
 27 49  1  0
 28 50  1  0
 29 51  1  0
M  END
> <Uni-Dock RESULT> 
ENERGY=   -4.218  LOWER_BOUND=    4.339  UPPER_BOUND=   10.110
INTER + INTRA:          -4.218
INTER:                  -4.218
INTRA:                   0.000
UNBOUND:                 0.000

$$$$

     RDKit          3D

 51 54  0  0  0  0  0  0  0  0999 V2000
   48.1822   13.3814   12.1509 N   0  0  0  0  0  0  0  0  0  0  0  0
   47.5910   14.4309   12.8343 C   0  0  0  0  0  0  0  0  0  0  0  0
   48.9010   13.5267   10.9655 C   0  0  0  0  0  0  0  0  0  0  0  0
   49.1587   14.9062   10.5105 C   0  0  0  0  0  0  0  0  0  0  0  0
   47.8407   15.6885   12.3635 N   0  0  0  0  0  0  0  0  0  0  0  0
   48.6130   15.9576   11.2377 C   0  0  0  0  0  0  0  0  0  0  0  0
   47.9252   12.0218   12.6223 C   0  0  0  0  0  0  0  0  0  0  0  0
   45.3659    5.8514   12.6282 C   0  0  0  0  0  0  0  0  0  0  0  0
   46.3617   10.0463   12.3996 N   0  0  0  0  0  0  0  0  0  0  0  0
   46.8605   14.2951   13.8141 O   0  0  0  0  0  0  0  0  0  0  0  0
   49.3060   12.5840   10.2887 O   0  0  0  0  0  0  0  0  0  0  0  0
   45.1510    5.1892   11.3084 C   0  0  0  0  0  0  0  0  0  0  0  0
   45.6080    7.3533   12.7487 C   0  0  0  0  0  0  0  0  0  0  0  0
   45.3462    5.1400   13.6345 O   0  0  0  0  0  0  0  0  0  0  0  0
   46.6662   11.4219   11.9640 C   0  0  0  0  0  0  0  0  0  0  0  0
   44.3026    4.0704   11.2732 C   0  0  0  0  0  0  0  0  0  0  0  0
   45.7839    5.6096   10.1323 C   0  0  0  0  0  0  0  0  0  0  0  0
   47.0885    7.7158   12.5814 C   0  0  0  0  0  0  0  0  0  0  0  0
   44.6970    8.2171   11.8771 C   0  0  0  0  0  0  0  0  0  0  0  0
   47.2922    9.0533   11.8611 C   0  0  0  0  0  0  0  0  0  0  0  0
   44.9565    9.7110   12.1104 C   0  0  0  0  0  0  0  0  0  0  0  0
   44.6915    3.8388    8.9112 C   0  0  0  0  0  0  0  0  0  0  0  0
   49.9265   15.1617    9.3700 C   0  0  0  0  0  0  0  0  0  0  0  0
   45.5476    4.9344    8.9310 C   0  0  0  0  0  0  0  0  0  0  0  0
   44.0689    3.3982   10.0719 C   0  0  0  0  0  0  0  0  0  0  0  0
   44.4701    3.1962    7.7576 F   0  0  0  0  0  0  0  0  0  0  0  0
   48.8271   17.2760   10.8358 C   0  0  0  0  0  0  0  0  0  0  0  0
   50.1448   16.4795    8.9662 C   0  0  0  0  0  0  0  0  0  0  0  0
   49.5959   17.5343    9.6983 C   0  0  0  0  0  0  0  0  0  0  0  0
   47.4135   16.4403   12.8893 H   0  0  0  0  0  0  0  0  0  0  0  0
   48.8093   11.4138   12.4049 H   0  0  0  0  0  0  0  0  0  0  0  0
   47.8024   12.0306   13.7121 H   0  0  0  0  0  0  0  0  0  0  0  0
   45.3323    7.5940   13.7876 H   0  0  0  0  0  0  0  0  0  0  0  0
   46.7496   11.4639   10.8701 H   0  0  0  0  0  0  0  0  0  0  0  0
   45.8244   12.0752   12.2315 H   0  0  0  0  0  0  0  0  0  0  0  0
   43.8227    3.7187   12.1853 H   0  0  0  0  0  0  0  0  0  0  0  0
   46.4735    6.4468   10.1243 H   0  0  0  0  0  0  0  0  0  0  0  0
   47.5425    7.7741   13.5802 H   0  0  0  0  0  0  0  0  0  0  0  0
   47.6466    6.9331   12.0554 H   0  0  0  0  0  0  0  0  0  0  0  0
   44.8541    8.0072   10.8142 H   0  0  0  0  0  0  0  0  0  0  0  0
   43.6438    7.9875   12.0795 H   0  0  0  0  0  0  0  0  0  0  0  0
   47.1572    8.9346   10.7783 H   0  0  0  0  0  0  0  0  0  0  0  0
   48.3347    9.3486   12.0170 H   0  0  0  0  0  0  0  0  0  0  0  0
   44.5915   10.2474   11.2245 H   0  0  0  0  0  0  0  0  0  0  0  0
   44.3500   10.0520   12.9581 H   0  0  0  0  0  0  0  0  0  0  0  0
   50.3532   14.3403    8.7983 H   0  0  0  0  0  0  0  0  0  0  0  0
   46.0316    5.2509    8.0118 H   0  0  0  0  0  0  0  0  0  0  0  0
   43.4121    2.5347   10.0382 H   0  0  0  0  0  0  0  0  0  0  0  0
   48.4055   18.1077   11.3937 H   0  0  0  0  0  0  0  0  0  0  0  0
   50.7422   16.6841    8.0805 H   0  0  0  0  0  0  0  0  0  0  0  0
   49.7675   18.5605    9.3805 H   0  0  0  0  0  0  0  0  0  0  0  0
  2  1  1  0
  3  1  1  0
  4  3  1  0
  5  2  1  0
  6  4  2  0
  7  1  1  0
  8 13  1  0
  9 15  1  0
 10  2  2  0
 11  3  2  0
 12  8  1  0
 13 19  1  0
 14  8  2  0
 15  7  1  0
 16 12  2  0
 17 12  1  0
 18 20  1  0
 19 21  1  0
 20  9  1  0
 21  9  1  0
 22 24  1  0
 23  4  1  0
 24 17  2  0
 25 16  1  0
 26 22  1  0
 27  6  1  0
 28 23  2  0
 29 28  1  0
  5  6  1  0
 18 13  1  0
 29 27  2  0
 25 22  2  0
  5 30  1  0
  7 31  1  0
  7 32  1  0
 13 33  1  0
 15 34  1  0
 15 35  1  0
 16 36  1  0
 17 37  1  0
 18 38  1  0
 18 39  1  0
 19 40  1  0
 19 41  1  0
 20 42  1  0
 20 43  1  0
 21 44  1  0
 21 45  1  0
 23 46  1  0
 24 47  1  0
 25 48  1  0
 27 49  1  0
 28 50  1  0
 29 51  1  0
M  END
> <Uni-Dock RESULT> 
ENERGY=   -4.182  LOWER_BOUND=    6.015  UPPER_BOUND=    7.920
INTER + INTRA:          -4.182
INTER:                  -4.182
INTRA:                   0.000
UNBOUND:                 0.000

$$$$

     RDKit          3D

 51 54  0  0  0  0  0  0  0  0999 V2000
   48.4139   11.8134   21.1629 N   0  0  0  0  0  0  0  0  0  0  0  0
   47.8875   12.9480   20.5682 C   0  0  0  0  0  0  0  0  0  0  0  0
   49.5239   11.8161   22.0059 C   0  0  0  0  0  0  0  0  0  0  0  0
   50.0628   13.1348   22.3895 C   0  0  0  0  0  0  0  0  0  0  0  0
   48.4326   14.1444   20.9383 N   0  0  0  0  0  0  0  0  0  0  0  0
   49.4883   14.2729   21.8356 C   0  0  0  0  0  0  0  0  0  0  0  0
   47.8603   10.5159   20.7795 C   0  0  0  0  0  0  0  0  0  0  0  0
   47.6107    4.5064   17.8731 C   0  0  0  0  0  0  0  0  0  0  0  0
   48.0822    8.6090   19.1329 N   0  0  0  0  0  0  0  0  0  0  0  0
   46.9831   12.9370   19.7351 O   0  0  0  0  0  0  0  0  0  0  0  0
   50.0726   10.7976   22.4212 O   0  0  0  0  0  0  0  0  0  0  0  0
   48.8857    3.7404   17.7549 C   0  0  0  0  0  0  0  0  0  0  0  0
   47.5912    5.9991   18.1899 C   0  0  0  0  0  0  0  0  0  0  0  0
   46.5562    3.8896   17.7092 O   0  0  0  0  0  0  0  0  0  0  0  0
   48.5964    9.9232   19.5608 C   0  0  0  0  0  0  0  0  0  0  0  0
   48.9174    2.6668   16.8499 C   0  0  0  0  0  0  0  0  0  0  0  0
   50.0189    4.0218   18.5279 C   0  0  0  0  0  0  0  0  0  0  0  0
   47.6297    6.2707   19.6986 C   0  0  0  0  0  0  0  0  0  0  0  0
   48.6240    6.8259   17.4250 C   0  0  0  0  0  0  0  0  0  0  0  0
   48.4336    7.5266   20.0531 C   0  0  0  0  0  0  0  0  0  0  0  0
   48.4903    8.3199   17.7470 C   0  0  0  0  0  0  0  0  0  0  0  0
   51.1968    2.2058   17.4627 C   0  0  0  0  0  0  0  0  0  0  0  0
   51.1324   13.2486   23.2831 C   0  0  0  0  0  0  0  0  0  0  0  0
   51.1777    3.2546   18.3755 C   0  0  0  0  0  0  0  0  0  0  0  0
   50.0762    1.9024   16.7003 C   0  0  0  0  0  0  0  0  0  0  0  0
   52.3096    1.4746   17.3222 F   0  0  0  0  0  0  0  0  0  0  0  0
   49.9740   15.5378   22.1670 C   0  0  0  0  0  0  0  0  0  0  0  0
   51.6195   14.5125   23.6187 C   0  0  0  0  0  0  0  0  0  0  0  0
   51.0408   15.6546   23.0614 C   0  0  0  0  0  0  0  0  0  0  0  0
   48.0200   14.9606   20.5050 H   0  0  0  0  0  0  0  0  0  0  0  0
   47.9308    9.8475   21.6436 H   0  0  0  0  0  0  0  0  0  0  0  0
   46.7944   10.6282   20.5472 H   0  0  0  0  0  0  0  0  0  0  0  0
   46.6114    6.3451   17.8247 H   0  0  0  0  0  0  0  0  0  0  0  0
   49.6749    9.8631   19.7573 H   0  0  0  0  0  0  0  0  0  0  0  0
   48.4757   10.6391   18.7362 H   0  0  0  0  0  0  0  0  0  0  0  0
   48.0353    2.4224   16.2598 H   0  0  0  0  0  0  0  0  0  0  0  0
   50.0235    4.8195   19.2629 H   0  0  0  0  0  0  0  0  0  0  0  0
   46.5966    6.3953   20.0513 H   0  0  0  0  0  0  0  0  0  0  0  0
   48.0259    5.4173   20.2601 H   0  0  0  0  0  0  0  0  0  0  0  0
   49.6428    6.5142   17.6767 H   0  0  0  0  0  0  0  0  0  0  0  0
   48.5164    6.6682   16.3449 H   0  0  0  0  0  0  0  0  0  0  0  0
   49.5108    7.3185   20.0221 H   0  0  0  0  0  0  0  0  0  0  0  0
   48.1928    7.7822   21.0900 H   0  0  0  0  0  0  0  0  0  0  0  0
   49.4518    8.7925   17.5064 H   0  0  0  0  0  0  0  0  0  0  0  0
   47.7435    8.7651   17.0787 H   0  0  0  0  0  0  0  0  0  0  0  0
   51.5847   12.3591   23.7165 H   0  0  0  0  0  0  0  0  0  0  0  0
   52.0634    3.4632   18.9683 H   0  0  0  0  0  0  0  0  0  0  0  0
   50.1073    1.0732   16.0006 H   0  0  0  0  0  0  0  0  0  0  0  0
   49.5358   16.4360   21.7406 H   0  0  0  0  0  0  0  0  0  0  0  0
   52.4506   14.6070   24.3142 H   0  0  0  0  0  0  0  0  0  0  0  0
   51.4233   16.6385   23.3247 H   0  0  0  0  0  0  0  0  0  0  0  0
  2  1  1  0
  3  1  1  0
  4  3  1  0
  5  2  1  0
  6  4  2  0
  7  1  1  0
  8 13  1  0
  9 15  1  0
 10  2  2  0
 11  3  2  0
 12  8  1  0
 13 19  1  0
 14  8  2  0
 15  7  1  0
 16 12  2  0
 17 12  1  0
 18 20  1  0
 19 21  1  0
 20  9  1  0
 21  9  1  0
 22 24  1  0
 23  4  1  0
 24 17  2  0
 25 16  1  0
 26 22  1  0
 27  6  1  0
 28 23  2  0
 29 28  1  0
  5  6  1  0
 18 13  1  0
 29 27  2  0
 25 22  2  0
  5 30  1  0
  7 31  1  0
  7 32  1  0
 13 33  1  0
 15 34  1  0
 15 35  1  0
 16 36  1  0
 17 37  1  0
 18 38  1  0
 18 39  1  0
 19 40  1  0
 19 41  1  0
 20 42  1  0
 20 43  1  0
 21 44  1  0
 21 45  1  0
 23 46  1  0
 24 47  1  0
 25 48  1  0
 27 49  1  0
 28 50  1  0
 29 51  1  0
M  END
> <Uni-Dock RESULT> 
ENERGY=   -4.091  LOWER_BOUND=    7.458  UPPER_BOUND=    8.972
INTER + INTRA:          -4.091
INTER:                  -4.091
INTRA:                   0.000
UNBOUND:                 0.000

$$$$

     RDKit          3D

 51 54  0  0  0  0  0  0  0  0999 V2000
   47.7919    9.6984   13.3551 N   0  0  0  0  0  0  0  0  0  0  0  0
   48.1873   10.9302   12.8608 C   0  0  0  0  0  0  0  0  0  0  0  0
   46.5625    9.1029   13.0777 C   0  0  0  0  0  0  0  0  0  0  0  0
   45.7099    9.7749   12.0788 C   0  0  0  0  0  0  0  0  0  0  0  0
   47.3554   11.5241   11.9547 N   0  0  0  0  0  0  0  0  0  0  0  0
   46.1430   10.9811   11.5406 C   0  0  0  0  0  0  0  0  0  0  0  0
   48.6544    9.0416   14.3356 C   0  0  0  0  0  0  0  0  0  0  0  0
   50.6419    6.7697   20.2948 C   0  0  0  0  0  0  0  0  0  0  0  0
   49.1347    8.8239   16.8092 N   0  0  0  0  0  0  0  0  0  0  0  0
   49.2187   11.5112   13.1936 O   0  0  0  0  0  0  0  0  0  0  0  0
   46.1571    8.0792   13.6242 O   0  0  0  0  0  0  0  0  0  0  0  0
   49.5906    6.2934   21.2406 C   0  0  0  0  0  0  0  0  0  0  0  0
   50.3043    7.6174   19.0717 C   0  0  0  0  0  0  0  0  0  0  0  0
   51.8091    6.4511   20.5302 O   0  0  0  0  0  0  0  0  0  0  0  0
   48.2981    9.4620   15.7760 C   0  0  0  0  0  0  0  0  0  0  0  0
   49.9464    6.1562   22.5923 C   0  0  0  0  0  0  0  0  0  0  0  0
   48.2973    5.9461   20.8312 C   0  0  0  0  0  0  0  0  0  0  0  0
   49.9240    6.7585   17.8597 C   0  0  0  0  0  0  0  0  0  0  0  0
   49.2946    8.7350   19.3305 C   0  0  0  0  0  0  0  0  0  0  0  0
   48.8346    7.4037   16.9959 C   0  0  0  0  0  0  0  0  0  0  0  0
   49.0656    9.5809   18.0713 C   0  0  0  0  0  0  0  0  0  0  0  0
   47.7290    5.3798   23.1064 C   0  0  0  0  0  0  0  0  0  0  0  0
   44.4877    9.2239   11.6810 C   0  0  0  0  0  0  0  0  0  0  0  0
   47.3645    5.4937   21.7693 C   0  0  0  0  0  0  0  0  0  0  0  0
   49.0125    5.7039   23.5266 C   0  0  0  0  0  0  0  0  0  0  0  0
   46.8310    4.9453   23.9995 F   0  0  0  0  0  0  0  0  0  0  0  0
   45.3621   11.6515   10.5992 C   0  0  0  0  0  0  0  0  0  0  0  0
   43.7048    9.8907   10.7375 C   0  0  0  0  0  0  0  0  0  0  0  0
   44.1420   11.1021   10.1980 C   0  0  0  0  0  0  0  0  0  0  0  0
   47.6736   12.4143   11.5936 H   0  0  0  0  0  0  0  0  0  0  0  0
   48.5532    7.9592   14.2064 H   0  0  0  0  0  0  0  0  0  0  0  0
   49.7014    9.2928   14.1269 H   0  0  0  0  0  0  0  0  0  0  0  0
   51.2477    8.1280   18.8219 H   0  0  0  0  0  0  0  0  0  0  0  0
   47.2355    9.2730   15.9779 H   0  0  0  0  0  0  0  0  0  0  0  0
   48.4306   10.5511   15.8324 H   0  0  0  0  0  0  0  0  0  0  0  0
   50.9559    6.4003   22.9199 H   0  0  0  0  0  0  0  0  0  0  0  0
   47.9940    6.0041   19.7915 H   0  0  0  0  0  0  0  0  0  0  0  0
   50.8247    6.6098   17.2482 H   0  0  0  0  0  0  0  0  0  0  0  0
   49.6044    5.7522   18.1528 H   0  0  0  0  0  0  0  0  0  0  0  0
   48.3287    8.3279   19.6463 H   0  0  0  0  0  0  0  0  0  0  0  0
   49.6365    9.3769   20.1514 H   0  0  0  0  0  0  0  0  0  0  0  0
   47.8463    7.2675   17.4535 H   0  0  0  0  0  0  0  0  0  0  0  0
   48.8165    6.8648   16.0432 H   0  0  0  0  0  0  0  0  0  0  0  0
   48.0939   10.0796   18.1859 H   0  0  0  0  0  0  0  0  0  0  0  0
   49.8235   10.3724   18.0285 H   0  0  0  0  0  0  0  0  0  0  0  0
   44.1459    8.2809   12.1021 H   0  0  0  0  0  0  0  0  0  0  0  0
   46.3581    5.2221   21.4649 H   0  0  0  0  0  0  0  0  0  0  0  0
   49.2811    5.5984   24.5730 H   0  0  0  0  0  0  0  0  0  0  0  0
   45.6874   12.5958   10.1712 H   0  0  0  0  0  0  0  0  0  0  0  0
   42.7538    9.4661   10.4236 H   0  0  0  0  0  0  0  0  0  0  0  0
   43.5290   11.6197    9.4631 H   0  0  0  0  0  0  0  0  0  0  0  0
  2  1  1  0
  3  1  1  0
  4  3  1  0
  5  2  1  0
  6  4  2  0
  7  1  1  0
  8 13  1  0
  9 15  1  0
 10  2  2  0
 11  3  2  0
 12  8  1  0
 13 19  1  0
 14  8  2  0
 15  7  1  0
 16 12  2  0
 17 12  1  0
 18 20  1  0
 19 21  1  0
 20  9  1  0
 21  9  1  0
 22 24  1  0
 23  4  1  0
 24 17  2  0
 25 16  1  0
 26 22  1  0
 27  6  1  0
 28 23  2  0
 29 28  1  0
  5  6  1  0
 18 13  1  0
 29 27  2  0
 25 22  2  0
  5 30  1  0
  7 31  1  0
  7 32  1  0
 13 33  1  0
 15 34  1  0
 15 35  1  0
 16 36  1  0
 17 37  1  0
 18 38  1  0
 18 39  1  0
 19 40  1  0
 19 41  1  0
 20 42  1  0
 20 43  1  0
 21 44  1  0
 21 45  1  0
 23 46  1  0
 24 47  1  0
 25 48  1  0
 27 49  1  0
 28 50  1  0
 29 51  1  0
M  END
> <Uni-Dock RESULT> 
ENERGY=   -4.061  LOWER_BOUND=    5.273  UPPER_BOUND=    9.557
INTER + INTRA:          -4.061
INTER:                  -4.061
INTRA:                   0.000
UNBOUND:                 0.000

$$$$

     RDKit          3D

 51 54  0  0  0  0  0  0  0  0999 V2000
   46.4891    7.2572   13.1713 N   0  0  0  0  0  0  0  0  0  0  0  0
   47.2950    6.1965   13.5501 C   0  0  0  0  0  0  0  0  0  0  0  0
   45.2755    7.1161   12.5005 C   0  0  0  0  0  0  0  0  0  0  0  0
   44.7697    5.7413   12.3254 C   0  0  0  0  0  0  0  0  0  0  0  0
   46.7936    4.9419   13.3490 N   0  0  0  0  0  0  0  0  0  0  0  0
   45.5575    4.6836   12.7646 C   0  0  0  0  0  0  0  0  0  0  0  0
   47.0014    8.6128   13.3624 C   0  0  0  0  0  0  0  0  0  0  0  0
   49.4907   14.5828   11.6931 C   0  0  0  0  0  0  0  0  0  0  0  0
   48.3355   10.4628   12.2695 N   0  0  0  0  0  0  0  0  0  0  0  0
   48.4175    6.3190   14.0370 O   0  0  0  0  0  0  0  0  0  0  0  0
   44.6304    8.0575   12.0439 O   0  0  0  0  0  0  0  0  0  0  0  0
   49.0575   15.1755   10.3941 C   0  0  0  0  0  0  0  0  0  0  0  0
   49.2761   13.1076   12.0197 C   0  0  0  0  0  0  0  0  0  0  0  0
   50.0320   15.3303   12.5101 O   0  0  0  0  0  0  0  0  0  0  0  0
   47.7989    9.0960   12.1340 C   0  0  0  0  0  0  0  0  0  0  0  0
   49.8254   16.2294    9.8723 C   0  0  0  0  0  0  0  0  0  0  0  0
   47.9115   14.7546    9.7083 C   0  0  0  0  0  0  0  0  0  0  0  0
   47.8905   12.8441   12.6214 C   0  0  0  0  0  0  0  0  0  0  0  0
   49.6043   12.1480   10.8765 C   0  0  0  0  0  0  0  0  0  0  0  0
   47.3032   11.4968   12.1862 C   0  0  0  0  0  0  0  0  0  0  0  0
   49.4303   10.6865   11.3092 C   0  0  0  0  0  0  0  0  0  0  0  0
   48.3369   16.3943    7.9906 C   0  0  0  0  0  0  0  0  0  0  0  0
   43.5309    5.4957   11.7251 C   0  0  0  0  0  0  0  0  0  0  0  0
   47.5556   15.3634    8.5011 C   0  0  0  0  0  0  0  0  0  0  0  0
   49.4671   16.8354    8.6665 C   0  0  0  0  0  0  0  0  0  0  0  0
   47.9900   16.9735    6.8344 F   0  0  0  0  0  0  0  0  0  0  0  0
   45.1184    3.3687   12.6103 C   0  0  0  0  0  0  0  0  0  0  0  0
   43.0872    4.1815   11.5712 C   0  0  0  0  0  0  0  0  0  0  0  0
   43.8800    3.1205   12.0133 C   0  0  0  0  0  0  0  0  0  0  0  0
   47.3919    4.1833   13.6501 H   0  0  0  0  0  0  0  0  0  0  0  0
   46.1510    9.2726   13.5624 H   0  0  0  0  0  0  0  0  0  0  0  0
   47.6431    8.6385   14.2514 H   0  0  0  0  0  0  0  0  0  0  0  0
   50.0160   12.8894   12.8059 H   0  0  0  0  0  0  0  0  0  0  0  0
   47.1874    9.0167   11.2256 H   0  0  0  0  0  0  0  0  0  0  0  0
   48.6352    8.3960   12.0011 H   0  0  0  0  0  0  0  0  0  0  0  0
   50.7057   16.5822   10.4077 H   0  0  0  0  0  0  0  0  0  0  0  0
   47.2723   13.9684   10.0955 H   0  0  0  0  0  0  0  0  0  0  0  0
   47.9835   12.8575   13.7160 H   0  0  0  0  0  0  0  0  0  0  0  0
   47.1795   13.6427   12.3819 H   0  0  0  0  0  0  0  0  0  0  0  0
   48.9546   12.3263   10.0137 H   0  0  0  0  0  0  0  0  0  0  0  0
   50.6298   12.3106   10.5231 H   0  0  0  0  0  0  0  0  0  0  0  0
   46.8940   11.5628   11.1699 H   0  0  0  0  0  0  0  0  0  0  0  0
   46.4603   11.2822   12.8508 H   0  0  0  0  0  0  0  0  0  0  0  0
   49.2903   10.0911   10.3973 H   0  0  0  0  0  0  0  0  0  0  0  0
   50.3600   10.3374   11.7746 H   0  0  0  0  0  0  0  0  0  0  0  0
   42.9135    6.3219   11.3790 H   0  0  0  0  0  0  0  0  0  0  0  0
   46.6698   15.0457    7.9591 H   0  0  0  0  0  0  0  0  0  0  0  0
   50.0584   17.6485    8.2573 H   0  0  0  0  0  0  0  0  0  0  0  0
   45.7243    2.5321   12.9476 H   0  0  0  0  0  0  0  0  0  0  0  0
   42.1239    3.9848   11.1059 H   0  0  0  0  0  0  0  0  0  0  0  0
   43.5315    2.0972   11.8913 H   0  0  0  0  0  0  0  0  0  0  0  0
  2  1  1  0
  3  1  1  0
  4  3  1  0
  5  2  1  0
  6  4  2  0
  7  1  1  0
  8 13  1  0
  9 15  1  0
 10  2  2  0
 11  3  2  0
 12  8  1  0
 13 19  1  0
 14  8  2  0
 15  7  1  0
 16 12  2  0
 17 12  1  0
 18 20  1  0
 19 21  1  0
 20  9  1  0
 21  9  1  0
 22 24  1  0
 23  4  1  0
 24 17  2  0
 25 16  1  0
 26 22  1  0
 27  6  1  0
 28 23  2  0
 29 28  1  0
  5  6  1  0
 18 13  1  0
 29 27  2  0
 25 22  2  0
  5 30  1  0
  7 31  1  0
  7 32  1  0
 13 33  1  0
 15 34  1  0
 15 35  1  0
 16 36  1  0
 17 37  1  0
 18 38  1  0
 18 39  1  0
 19 40  1  0
 19 41  1  0
 20 42  1  0
 20 43  1  0
 21 44  1  0
 21 45  1  0
 23 46  1  0
 24 47  1  0
 25 48  1  0
 27 49  1  0
 28 50  1  0
 29 51  1  0
M  END
> <Uni-Dock RESULT> 
ENERGY=   -3.975  LOWER_BOUND=    5.978  UPPER_BOUND=    9.664
INTER + INTRA:          -3.975
INTER:                  -3.975
INTRA:                   0.000
UNBOUND:                 0.000

$$$$
