
     RDKit          3D

 51 54  0  0  0  0  0  0  0  0999 V2000
   51.5000    3.5772   18.1330 N   0  0  0  0  0  0  0  0  0  0  0  0
   50.9146    2.5448   17.4189 C   0  0  0  0  0  0  0  0  0  0  0  0
   52.7160    3.4738   18.8060 C   0  0  0  0  0  0  0  0  0  0  0  0
   53.4591    2.2097   18.6427 C   0  0  0  0  0  0  0  0  0  0  0  0
   51.6346    1.3900   17.3061 N   0  0  0  0  0  0  0  0  0  0  0  0
   52.8850    1.1949   17.8853 C   0  0  0  0  0  0  0  0  0  0  0  0
   50.7388    4.8129   18.2945 C   0  0  0  0  0  0  0  0  0  0  0  0
   47.1215    9.8247   20.0126 C   0  0  0  0  0  0  0  0  0  0  0  0
   49.0410    5.9644   19.8330 N   0  0  0  0  0  0  0  0  0  0  0  0
   49.8025    2.6127   16.8977 O   0  0  0  0  0  0  0  0  0  0  0  0
   53.1823    4.3599   19.5185 O   0  0  0  0  0  0  0  0  0  0  0  0
   47.5853   10.7654   18.9517 C   0  0  0  0  0  0  0  0  0  0  0  0
   47.7574    8.4510   20.2072 C   0  0  0  0  0  0  0  0  0  0  0  0
   46.1942   10.1917   20.7366 O   0  0  0  0  0  0  0  0  0  0  0  0
   49.8201    4.7550   19.5337 C   0  0  0  0  0  0  0  0  0  0  0  0
   48.0491   10.3356   17.7025 C   0  0  0  0  0  0  0  0  0  0  0  0
   47.5079   12.1411   19.2232 C   0  0  0  0  0  0  0  0  0  0  0  0
   49.2859    8.4444   20.1432 C   0  0  0  0  0  0  0  0  0  0  0  0
   47.1247    7.3854   19.3019 C   0  0  0  0  0  0  0  0  0  0  0  0
   49.8445    7.0427   20.4170 C   0  0  0  0  0  0  0  0  0  0  0  0
   48.1511    6.3864   18.7589 C   0  0  0  0  0  0  0  0  0  0  0  0
   48.3889   12.6301   17.0395 C   0  0  0  0  0  0  0  0  0  0  0  0
   54.7105    2.0231   19.2382 C   0  0  0  0  0  0  0  0  0  0  0  0
   47.9154   13.0739   18.2674 C   0  0  0  0  0  0  0  0  0  0  0  0
   48.4565   11.2722   16.7477 C   0  0  0  0  0  0  0  0  0  0  0  0
   48.7797   13.5218   16.1203 F   0  0  0  0  0  0  0  0  0  0  0  0
   53.5533   -0.0171   17.7127 C   0  0  0  0  0  0  0  0  0  0  0  0
   55.3827    0.8123   19.0662 C   0  0  0  0  0  0  0  0  0  0  0  0
   54.8047   -0.2055   18.3046 C   0  0  0  0  0  0  0  0  0  0  0  0
   51.1930    0.6531   16.7713 H   0  0  0  0  0  0  0  0  0  0  0  0
   51.4394    5.6511   18.3740 H   0  0  0  0  0  0  0  0  0  0  0  0
   50.1425    4.9816   17.3905 H   0  0  0  0  0  0  0  0  0  0  0  0
   47.5081    8.1786   21.2449 H   0  0  0  0  0  0  0  0  0  0  0  0
   49.1177    3.9198   19.4115 H   0  0  0  0  0  0  0  0  0  0  0  0
   50.4132    4.4890   20.4188 H   0  0  0  0  0  0  0  0  0  0  0  0
   48.0900    9.2838   17.4417 H   0  0  0  0  0  0  0  0  0  0  0  0
   47.1269   12.4891   20.1823 H   0  0  0  0  0  0  0  0  0  0  0  0
   49.6425    8.7689   19.1604 H   0  0  0  0  0  0  0  0  0  0  0  0
   49.7003    9.1562   20.8676 H   0  0  0  0  0  0  0  0  0  0  0  0
   46.3712    6.8407   19.8873 H   0  0  0  0  0  0  0  0  0  0  0  0
   46.5749    7.8314   18.4654 H   0  0  0  0  0  0  0  0  0  0  0  0
   50.8808    7.0252   20.0601 H   0  0  0  0  0  0  0  0  0  0  0  0
   49.8864    6.8804   21.5008 H   0  0  0  0  0  0  0  0  0  0  0  0
   48.7130    6.8340   17.9299 H   0  0  0  0  0  0  0  0  0  0  0  0
   47.6042    5.5283   18.3493 H   0  0  0  0  0  0  0  0  0  0  0  0
   55.1606    2.8147   19.8336 H   0  0  0  0  0  0  0  0  0  0  0  0
   47.8604   14.1384   18.4726 H   0  0  0  0  0  0  0  0  0  0  0  0
   48.8188   10.9522   15.7753 H   0  0  0  0  0  0  0  0  0  0  0  0
   53.1163   -0.8198   17.1250 H   0  0  0  0  0  0  0  0  0  0  0  0
   56.3565    0.6618   19.5272 H   0  0  0  0  0  0  0  0  0  0  0  0
   55.3310   -1.1485   18.1737 H   0  0  0  0  0  0  0  0  0  0  0  0
  2  1  1  0
  3  1  1  0
  4  3  1  0
  5  2  1  0
  6  4  2  0
  7  1  1  0
  8 13  1  0
  9 15  1  0
 10  2  2  0
 11  3  2  0
 12  8  1  0
 13 19  1  0
 14  8  2  0
 15  7  1  0
 16 12  2  0
 17 12  1  0
 18 20  1  0
 19 21  1  0
 20  9  1  0
 21  9  1  0
 22 24  1  0
 23  4  1  0
 24 17  2  0
 25 16  1  0
 26 22  1  0
 27  6  1  0
 28 23  2  0
 29 28  1  0
  5  6  1  0
 18 13  1  0
 29 27  2  0
 25 22  2  0
  5 30  1  0
  7 31  1  0
  7 32  1  0
 13 33  1  0
 15 34  1  0
 15 35  1  0
 16 36  1  0
 17 37  1  0
 18 38  1  0
 18 39  1  0
 19 40  1  0
 19 41  1  0
 20 42  1  0
 20 43  1  0
 21 44  1  0
 21 45  1  0
 23 46  1  0
 24 47  1  0
 25 48  1  0
 27 49  1  0
 28 50  1  0
 29 51  1  0
M  END
> <Uni-Dock RESULT> 
ENERGY=   -4.573  LOWER_BOUND=    0.000  UPPER_BOUND=    0.000
INTER + INTRA:          -4.573
INTER:                  -4.573
INTRA:                   0.000
UNBOUND:                 0.000

$$$$

     RDKit          3D

 51 54  0  0  0  0  0  0  0  0999 V2000
   50.9384    4.2578   18.5048 N   0  0  0  0  0  0  0  0  0  0  0  0
   50.0885    3.2040   18.2119 C   0  0  0  0  0  0  0  0  0  0  0  0
   52.3288    4.1633   18.5171 C   0  0  0  0  0  0  0  0  0  0  0  0
   52.9102    2.8790   18.0823 C   0  0  0  0  0  0  0  0  0  0  0  0
   50.6733    2.0317   17.8268 N   0  0  0  0  0  0  0  0  0  0  0  0
   52.0495    1.8405   17.7451 C   0  0  0  0  0  0  0  0  0  0  0  0
   50.3403    5.5141   18.9482 C   0  0  0  0  0  0  0  0  0  0  0  0
   47.9591   10.6697   21.9321 C   0  0  0  0  0  0  0  0  0  0  0  0
   49.5810    6.7694   21.0513 N   0  0  0  0  0  0  0  0  0  0  0  0
   48.8623    3.2682   18.2845 O   0  0  0  0  0  0  0  0  0  0  0  0
   53.0742    5.0733   18.8730 O   0  0  0  0  0  0  0  0  0  0  0  0
   47.8518   11.5500   20.7325 C   0  0  0  0  0  0  0  0  0  0  0  0
   48.6188    9.2950   21.8678 C   0  0  0  0  0  0  0  0  0  0  0  0
   47.4902   11.0883   22.9922 O   0  0  0  0  0  0  0  0  0  0  0  0
   50.1285    5.5326   20.4772 C   0  0  0  0  0  0  0  0  0  0  0  0
   47.6625   11.0526   19.4374 C   0  0  0  0  0  0  0  0  0  0  0  0
   47.9056   12.9383   20.9375 C   0  0  0  0  0  0  0  0  0  0  0  0
   49.9295    9.2563   21.0798 C   0  0  0  0  0  0  0  0  0  0  0  0
   47.6360    8.1998   21.4317 C   0  0  0  0  0  0  0  0  0  0  0  0
   50.5595    7.8588   21.1232 C   0  0  0  0  0  0  0  0  0  0  0  0
   48.2824    7.1567   20.5149 C   0  0  0  0  0  0  0  0  0  0  0  0
   47.6288   13.3061   18.5771 C   0  0  0  0  0  0  0  0  0  0  0  0
   54.2950    2.6971   18.0140 C   0  0  0  0  0  0  0  0  0  0  0  0
   47.7993   13.8166   19.8574 C   0  0  0  0  0  0  0  0  0  0  0  0
   47.5565   11.9348   18.3580 C   0  0  0  0  0  0  0  0  0  0  0  0
   47.5256   14.1455   17.5390 F   0  0  0  0  0  0  0  0  0  0  0  0
   52.5606    0.6092   17.3354 C   0  0  0  0  0  0  0  0  0  0  0  0
   54.8099    1.4669   17.6027 C   0  0  0  0  0  0  0  0  0  0  0  0
   53.9437    0.4254   17.2640 C   0  0  0  0  0  0  0  0  0  0  0  0
   50.0338    1.2787   17.6072 H   0  0  0  0  0  0  0  0  0  0  0  0
   50.9881    6.3416   18.6396 H   0  0  0  0  0  0  0  0  0  0  0  0
   49.3825    5.6509   18.4331 H   0  0  0  0  0  0  0  0  0  0  0  0
   48.8992    9.0770   22.9104 H   0  0  0  0  0  0  0  0  0  0  0  0
   49.4586    4.7061   20.7490 H   0  0  0  0  0  0  0  0  0  0  0  0
   51.0750    5.2977   20.9822 H   0  0  0  0  0  0  0  0  0  0  0  0
   47.5797    9.9889   19.2427 H   0  0  0  0  0  0  0  0  0  0  0  0
   48.0290   13.3386   21.9428 H   0  0  0  0  0  0  0  0  0  0  0  0
   49.7693    9.5268   20.0311 H   0  0  0  0  0  0  0  0  0  0  0  0
   50.6361    9.9937   21.4798 H   0  0  0  0  0  0  0  0  0  0  0  0
   47.2588    7.6980   22.3335 H   0  0  0  0  0  0  0  0  0  0  0  0
   46.7498    8.6159   20.9395 H   0  0  0  0  0  0  0  0  0  0  0  0
   51.2979    7.8046   20.3149 H   0  0  0  0  0  0  0  0  0  0  0  0
   51.1169    7.7474   22.0612 H   0  0  0  0  0  0  0  0  0  0  0  0
   48.3754    7.5538   19.4966 H   0  0  0  0  0  0  0  0  0  0  0  0
   47.6114    6.2908   20.4616 H   0  0  0  0  0  0  0  0  0  0  0  0
   54.9706    3.5074   18.2799 H   0  0  0  0  0  0  0  0  0  0  0  0
   47.8430   14.8906   20.0094 H   0  0  0  0  0  0  0  0  0  0  0  0
   47.4102   11.5622   17.3485 H   0  0  0  0  0  0  0  0  0  0  0  0
   51.9002   -0.2121   17.0705 H   0  0  0  0  0  0  0  0  0  0  0  0
   55.8863    1.3201   17.5478 H   0  0  0  0  0  0  0  0  0  0  0  0
   54.3485   -0.5327   16.9451 H   0  0  0  0  0  0  0  0  0  0  0  0
  2  1  1  0
  3  1  1  0
  4  3  1  0
  5  2  1  0
  6  4  2  0
  7  1  1  0
  8 13  1  0
  9 15  1  0
 10  2  2  0
 11  3  2  0
 12  8  1  0
 13 19  1  0
 14  8  2  0
 15  7  1  0
 16 12  2  0
 17 12  1  0
 18 20  1  0
 19 21  1  0
 20  9  1  0
 21  9  1  0
 22 24  1  0
 23  4  1  0
 24 17  2  0
 25 16  1  0
 26 22  1  0
 27  6  1  0
 28 23  2  0
 29 28  1  0
  5  6  1  0
 18 13  1  0
 29 27  2  0
 25 22  2  0
  5 30  1  0
  7 31  1  0
  7 32  1  0
 13 33  1  0
 15 34  1  0
 15 35  1  0
 16 36  1  0
 17 37  1  0
 18 38  1  0
 18 39  1  0
 19 40  1  0
 19 41  1  0
 20 42  1  0
 20 43  1  0
 21 44  1  0
 21 45  1  0
 23 46  1  0
 24 47  1  0
 25 48  1  0
 27 49  1  0
 28 50  1  0
 29 51  1  0
M  END
> <Uni-Dock RESULT> 
ENERGY=   -4.178  LOWER_BOUND=    1.448  UPPER_BOUND=    1.666
INTER + INTRA:          -4.178
INTER:                  -4.178
INTRA:                   0.000
UNBOUND:                 0.000

$$$$

     RDKit          3D

 51 54  0  0  0  0  0  0  0  0999 V2000
   47.3740    6.7039   13.1689 N   0  0  0  0  0  0  0  0  0  0  0  0
   46.9751    7.7654   12.3735 C   0  0  0  0  0  0  0  0  0  0  0  0
   46.5557    5.6282   13.5087 C   0  0  0  0  0  0  0  0  0  0  0  0
   45.2209    5.5862   12.8816 C   0  0  0  0  0  0  0  0  0  0  0  0
   45.7266    7.6877   11.8258 N   0  0  0  0  0  0  0  0  0  0  0  0
   44.8459    6.6330   12.0471 C   0  0  0  0  0  0  0  0  0  0  0  0
   48.6930    6.7754   13.7914 C   0  0  0  0  0  0  0  0  0  0  0  0
   53.9291    7.4402   17.4378 C   0  0  0  0  0  0  0  0  0  0  0  0
   49.8997    7.5916   15.9017 N   0  0  0  0  0  0  0  0  0  0  0  0
   47.6708    8.7537   12.1452 O   0  0  0  0  0  0  0  0  0  0  0  0
   46.8817    4.7404   14.2934 O   0  0  0  0  0  0  0  0  0  0  0  0
   54.8674    6.6796   16.5622 C   0  0  0  0  0  0  0  0  0  0  0  0
   52.4329    7.5135   17.1457 C   0  0  0  0  0  0  0  0  0  0  0  0
   54.4033    8.0194   18.4168 O   0  0  0  0  0  0  0  0  0  0  0  0
   48.6393    7.5036   15.1515 C   0  0  0  0  0  0  0  0  0  0  0  0
   54.7041    6.5815   15.1750 C   0  0  0  0  0  0  0  0  0  0  0  0
   55.9797    6.0756   17.1706 C   0  0  0  0  0  0  0  0  0  0  0  0
   51.7987    6.1805   16.7439 C   0  0  0  0  0  0  0  0  0  0  0  0
   52.0868    8.6483   16.1722 C   0  0  0  0  0  0  0  0  0  0  0  0
   50.2864    6.3280   16.5369 C   0  0  0  0  0  0  0  0  0  0  0  0
   50.9773    8.2649   15.1882 C   0  0  0  0  0  0  0  0  0  0  0  0
   56.7156    5.2575   15.0322 C   0  0  0  0  0  0  0  0  0  0  0  0
   44.3417    4.5252   13.1201 C   0  0  0  0  0  0  0  0  0  0  0  0
   56.9016    5.3593   16.4047 C   0  0  0  0  0  0  0  0  0  0  0  0
   55.6290    5.8635   14.4110 C   0  0  0  0  0  0  0  0  0  0  0  0
   57.5982    4.5721   14.2945 F   0  0  0  0  0  0  0  0  0  0  0  0
   43.5899    6.6328   11.4405 C   0  0  0  0  0  0  0  0  0  0  0  0
   43.0849    4.5209   12.5135 C   0  0  0  0  0  0  0  0  0  0  0  0
   42.7104    5.5730   11.6753 C   0  0  0  0  0  0  0  0  0  0  0  0
   45.4599    8.4684   11.2397 H   0  0  0  0  0  0  0  0  0  0  0  0
   49.0806    5.7584   13.9148 H   0  0  0  0  0  0  0  0  0  0  0  0
   49.3771    7.2961   13.1116 H   0  0  0  0  0  0  0  0  0  0  0  0
   51.9774    7.7725   18.1145 H   0  0  0  0  0  0  0  0  0  0  0  0
   48.2686    8.5244   14.9889 H   0  0  0  0  0  0  0  0  0  0  0  0
   47.8801    7.0333   15.7905 H   0  0  0  0  0  0  0  0  0  0  0  0
   53.8784    7.0640   14.6636 H   0  0  0  0  0  0  0  0  0  0  0  0
   56.1308    6.1643   18.2454 H   0  0  0  0  0  0  0  0  0  0  0  0
   52.2354    5.7980   15.8157 H   0  0  0  0  0  0  0  0  0  0  0  0
   51.9953    5.4195   17.5089 H   0  0  0  0  0  0  0  0  0  0  0  0
   51.7586    9.5168   16.7599 H   0  0  0  0  0  0  0  0  0  0  0  0
   52.9647    8.9917   15.6134 H   0  0  0  0  0  0  0  0  0  0  0  0
   49.9452    5.4572   15.9653 H   0  0  0  0  0  0  0  0  0  0  0  0
   49.7858    6.2757   17.5113 H   0  0  0  0  0  0  0  0  0  0  0  0
   51.3822    7.6311   14.3897 H   0  0  0  0  0  0  0  0  0  0  0  0
   50.6128    9.1845   14.7142 H   0  0  0  0  0  0  0  0  0  0  0  0
   44.6318    3.7062   13.7749 H   0  0  0  0  0  0  0  0  0  0  0  0
   57.7618    4.8880   16.8699 H   0  0  0  0  0  0  0  0  0  0  0  0
   55.5138    5.7790   13.3346 H   0  0  0  0  0  0  0  0  0  0  0  0
   43.2823    7.4450   10.7874 H   0  0  0  0  0  0  0  0  0  0  0  0
   42.3971    3.6980   12.6956 H   0  0  0  0  0  0  0  0  0  0  0  0
   41.7294    5.5671   11.2051 H   0  0  0  0  0  0  0  0  0  0  0  0
  2  1  1  0
  3  1  1  0
  4  3  1  0
  5  2  1  0
  6  4  2  0
  7  1  1  0
  8 13  1  0
  9 15  1  0
 10  2  2  0
 11  3  2  0
 12  8  1  0
 13 19  1  0
 14  8  2  0
 15  7  1  0
 16 12  2  0
 17 12  1  0
 18 20  1  0
 19 21  1  0
 20  9  1  0
 21  9  1  0
 22 24  1  0
 23  4  1  0
 24 17  2  0
 25 16  1  0
 26 22  1  0
 27  6  1  0
 28 23  2  0
 29 28  1  0
  5  6  1  0
 18 13  1  0
 29 27  2  0
 25 22  2  0
  5 30  1  0
  7 31  1  0
  7 32  1  0
 13 33  1  0
 15 34  1  0
 15 35  1  0
 16 36  1  0
 17 37  1  0
 18 38  1  0
 18 39  1  0
 19 40  1  0
 19 41  1  0
 20 42  1  0
 20 43  1  0
 21 44  1  0
 21 45  1  0
 23 46  1  0
 24 47  1  0
 25 48  1  0
 27 49  1  0
 28 50  1  0
 29 51  1  0
M  END
> <Uni-Dock RESULT> 
ENERGY=   -4.148  LOWER_BOUND=    6.205  UPPER_BOUND=    9.373
INTER + INTRA:          -4.148
INTER:                  -4.148
INTRA:                   0.000
UNBOUND:                 0.000

$$$$

     RDKit          3D

 51 54  0  0  0  0  0  0  0  0999 V2000
   51.4565    3.7168   18.4096 N   0  0  0  0  0  0  0  0  0  0  0  0
   50.7281    2.6309   17.9525 C   0  0  0  0  0  0  0  0  0  0  0  0
   52.8422    3.7245   18.5583 C   0  0  0  0  0  0  0  0  0  0  0  0
   53.5661    2.5269   18.0910 C   0  0  0  0  0  0  0  0  0  0  0  0
   51.4414    1.5408   17.5432 N   0  0  0  0  0  0  0  0  0  0  0  0
   52.8300    1.4592   17.5900 C   0  0  0  0  0  0  0  0  0  0  0  0
   50.7175    4.8844   18.8816 C   0  0  0  0  0  0  0  0  0  0  0  0
   47.6443    9.5859   21.9811 C   0  0  0  0  0  0  0  0  0  0  0  0
   49.6574    5.9021   20.9831 N   0  0  0  0  0  0  0  0  0  0  0  0
   49.4995    2.5981   17.9027 O   0  0  0  0  0  0  0  0  0  0  0  0
   53.4726    4.6544   19.0564 O   0  0  0  0  0  0  0  0  0  0  0  0
   47.5823   10.5519   20.8461 C   0  0  0  0  0  0  0  0  0  0  0  0
   48.4172    8.2736   21.8826 C   0  0  0  0  0  0  0  0  0  0  0  0
   47.0420    9.8795   23.0154 O   0  0  0  0  0  0  0  0  0  0  0  0
   50.3574    4.7608   20.3776 C   0  0  0  0  0  0  0  0  0  0  0  0
   47.5610   10.1507   19.5048 C   0  0  0  0  0  0  0  0  0  0  0  0
   47.5023   11.9187   21.1589 C   0  0  0  0  0  0  0  0  0  0  0  0
   49.7971    8.3970   21.2334 C   0  0  0  0  0  0  0  0  0  0  0  0
   47.5743    7.1487   21.2666 C   0  0  0  0  0  0  0  0  0  0  0  0
   50.5320    7.0511   21.2370 C   0  0  0  0  0  0  0  0  0  0  0  0
   48.3898    6.2355   20.3460 C   0  0  0  0  0  0  0  0  0  0  0  0
   47.4268   12.4590   18.8166 C   0  0  0  0  0  0  0  0  0  0  0  0
   54.9613    2.4541   18.1526 C   0  0  0  0  0  0  0  0  0  0  0  0
   47.4299   12.8731   20.1423 C   0  0  0  0  0  0  0  0  0  0  0  0
   47.4885   11.1089   18.4892 C   0  0  0  0  0  0  0  0  0  0  0  0
   47.3567   13.3714   17.8392 F   0  0  0  0  0  0  0  0  0  0  0  0
   53.4775    0.3070   17.1442 C   0  0  0  0  0  0  0  0  0  0  0  0
   55.6124    1.3035   17.7058 C   0  0  0  0  0  0  0  0  0  0  0  0
   54.8713    0.2324   17.2025 C   0  0  0  0  0  0  0  0  0  0  0  0
   50.8900    0.7634   17.2030 H   0  0  0  0  0  0  0  0  0  0  0  0
   51.3224    5.7802   18.7044 H   0  0  0  0  0  0  0  0  0  0  0  0
   49.8063    4.9923   18.2821 H   0  0  0  0  0  0  0  0  0  0  0  0
   48.6120    7.9915   22.9293 H   0  0  0  0  0  0  0  0  0  0  0  0
   49.7342    3.8674   20.5162 H   0  0  0  0  0  0  0  0  0  0  0  0
   51.2664    4.5555   20.9587 H   0  0  0  0  0  0  0  0  0  0  0  0
   47.5847    9.1036   19.2236 H   0  0  0  0  0  0  0  0  0  0  0  0
   47.4943   12.2425   22.1987 H   0  0  0  0  0  0  0  0  0  0  0  0
   49.7178    8.7408   20.1970 H   0  0  0  0  0  0  0  0  0  0  0  0
   50.3988    9.1490   21.7584 H   0  0  0  0  0  0  0  0  0  0  0  0
   47.1536    6.5475   22.0845 H   0  0  0  0  0  0  0  0  0  0  0  0
   46.7090    7.5375   20.7180 H   0  0  0  0  0  0  0  0  0  0  0  0
   51.3473    7.1186   20.5075 H   0  0  0  0  0  0  0  0  0  0  0  0
   51.0029    6.9040   22.2165 H   0  0  0  0  0  0  0  0  0  0  0  0
   48.5484    6.7212   19.3753 H   0  0  0  0  0  0  0  0  0  0  0  0
   47.8002    5.3298   20.1590 H   0  0  0  0  0  0  0  0  0  0  0  0
   55.5393    3.2873   18.5468 H   0  0  0  0  0  0  0  0  0  0  0  0
   47.3707   13.9311   20.3780 H   0  0  0  0  0  0  0  0  0  0  0  0
   47.4719   10.8112   17.4451 H   0  0  0  0  0  0  0  0  0  0  0  0
   52.9153   -0.5360   16.7518 H   0  0  0  0  0  0  0  0  0  0  0  0
   56.6976    1.2415   17.7515 H   0  0  0  0  0  0  0  0  0  0  0  0
   55.3822   -0.6635   16.8563 H   0  0  0  0  0  0  0  0  0  0  0  0
  2  1  1  0
  3  1  1  0
  4  3  1  0
  5  2  1  0
  6  4  2  0
  7  1  1  0
  8 13  1  0
  9 15  1  0
 10  2  2  0
 11  3  2  0
 12  8  1  0
 13 19  1  0
 14  8  2  0
 15  7  1  0
 16 12  2  0
 17 12  1  0
 18 20  1  0
 19 21  1  0
 20  9  1  0
 21  9  1  0
 22 24  1  0
 23  4  1  0
 24 17  2  0
 25 16  1  0
 26 22  1  0
 27  6  1  0
 28 23  2  0
 29 28  1  0
  5  6  1  0
 18 13  1  0
 29 27  2  0
 25 22  2  0
  5 30  1  0
  7 31  1  0
  7 32  1  0
 13 33  1  0
 15 34  1  0
 15 35  1  0
 16 36  1  0
 17 37  1  0
 18 38  1  0
 18 39  1  0
 19 40  1  0
 19 41  1  0
 20 42  1  0
 20 43  1  0
 21 44  1  0
 21 45  1  0
 23 46  1  0
 24 47  1  0
 25 48  1  0
 27 49  1  0
 28 50  1  0
 29 51  1  0
M  END
> <Uni-Dock RESULT> 
ENERGY=   -4.098  LOWER_BOUND=    1.260  UPPER_BOUND=    1.461
INTER + INTRA:          -4.098
INTER:                  -4.098
INTRA:                   0.000
UNBOUND:                 0.000

$$$$

     RDKit          3D

 51 54  0  0  0  0  0  0  0  0999 V2000
   48.3184    5.8800   15.3969 N   0  0  0  0  0  0  0  0  0  0  0  0
   48.5662    6.9896   14.6057 C   0  0  0  0  0  0  0  0  0  0  0  0
   47.3622    4.9084   15.1071 C   0  0  0  0  0  0  0  0  0  0  0  0
   46.6583    5.0347   13.8167 C   0  0  0  0  0  0  0  0  0  0  0  0
   47.8813    7.0692   13.4270 N   0  0  0  0  0  0  0  0  0  0  0  0
   46.9470    6.1271   13.0067 C   0  0  0  0  0  0  0  0  0  0  0  0
   49.0151    5.7851   16.6768 C   0  0  0  0  0  0  0  0  0  0  0  0
   51.1223    5.7750   22.7360 C   0  0  0  0  0  0  0  0  0  0  0  0
   48.8123    6.4288   19.1506 N   0  0  0  0  0  0  0  0  0  0  0  0
   49.3502    7.8883   14.9067 O   0  0  0  0  0  0  0  0  0  0  0  0
   47.0783    3.9802   15.8609 O   0  0  0  0  0  0  0  0  0  0  0  0
   52.3213    4.9145   22.5180 C   0  0  0  0  0  0  0  0  0  0  0  0
   50.1019    6.0321   21.6306 C   0  0  0  0  0  0  0  0  0  0  0  0
   50.9781    6.2832   23.8495 O   0  0  0  0  0  0  0  0  0  0  0  0
   48.2364    6.5016   17.8007 C   0  0  0  0  0  0  0  0  0  0  0  0
   53.0003    4.8501   21.2952 C   0  0  0  0  0  0  0  0  0  0  0  0
   52.7982    4.1743   23.6120 C   0  0  0  0  0  0  0  0  0  0  0  0
   49.7074    4.7898   20.8297 C   0  0  0  0  0  0  0  0  0  0  0  0
   50.5039    7.2097   20.7324 C   0  0  0  0  0  0  0  0  0  0  0  0
   48.6306    5.1217   19.7895 C   0  0  0  0  0  0  0  0  0  0  0  0
   50.1598    6.9731   19.2586 C   0  0  0  0  0  0  0  0  0  0  0  0
   54.5752    3.2931   22.2519 C   0  0  0  0  0  0  0  0  0  0  0  0
   45.7145    4.0860   13.4108 C   0  0  0  0  0  0  0  0  0  0  0  0
   53.9234    3.3587   23.4766 C   0  0  0  0  0  0  0  0  0  0  0  0
   54.1266    4.0324   21.1628 C   0  0  0  0  0  0  0  0  0  0  0  0
   55.6550    2.5127   22.1186 F   0  0  0  0  0  0  0  0  0  0  0  0
   46.2980    6.2851   11.7823 C   0  0  0  0  0  0  0  0  0  0  0  0
   45.0645    4.2400   12.1855 C   0  0  0  0  0  0  0  0  0  0  0  0
   45.3563    5.3377   11.3732 C   0  0  0  0  0  0  0  0  0  0  0  0
   48.0856    7.8820   12.8598 H   0  0  0  0  0  0  0  0  0  0  0  0
   49.1591    4.7274   16.9225 H   0  0  0  0  0  0  0  0  0  0  0  0
   50.0131    6.2253   16.5696 H   0  0  0  0  0  0  0  0  0  0  0  0
   49.1886    6.3353   22.1666 H   0  0  0  0  0  0  0  0  0  0  0  0
   48.1295    7.5613   17.5335 H   0  0  0  0  0  0  0  0  0  0  0  0
   47.2069    6.1208   17.8350 H   0  0  0  0  0  0  0  0  0  0  0  0
   52.6847    5.4340   20.4375 H   0  0  0  0  0  0  0  0  0  0  0  0
   52.2930    4.2338   24.5750 H   0  0  0  0  0  0  0  0  0  0  0  0
   50.5701    4.3660   20.3057 H   0  0  0  0  0  0  0  0  0  0  0  0
   49.3431    4.0033   21.5019 H   0  0  0  0  0  0  0  0  0  0  0  0
   49.9741    8.1060   21.0835 H   0  0  0  0  0  0  0  0  0  0  0  0
   51.5695    7.4493   20.8221 H   0  0  0  0  0  0  0  0  0  0  0  0
   48.6140    4.3042   19.0595 H   0  0  0  0  0  0  0  0  0  0  0  0
   47.6491    5.1213   20.2788 H   0  0  0  0  0  0  0  0  0  0  0  0
   50.8973    6.3025   18.8008 H   0  0  0  0  0  0  0  0  0  0  0  0
   50.2323    7.9345   18.7356 H   0  0  0  0  0  0  0  0  0  0  0  0
   45.4849    3.2317   14.0441 H   0  0  0  0  0  0  0  0  0  0  0  0
   54.2949    2.7821   24.3179 H   0  0  0  0  0  0  0  0  0  0  0  0
   54.6619    3.9727   20.2199 H   0  0  0  0  0  0  0  0  0  0  0  0
   46.5120    7.1347   11.1395 H   0  0  0  0  0  0  0  0  0  0  0  0
   44.3294    3.5050   11.8648 H   0  0  0  0  0  0  0  0  0  0  0  0
   44.8467    5.4553   10.4192 H   0  0  0  0  0  0  0  0  0  0  0  0
  2  1  1  0
  3  1  1  0
  4  3  1  0
  5  2  1  0
  6  4  2  0
  7  1  1  0
  8 13  1  0
  9 15  1  0
 10  2  2  0
 11  3  2  0
 12  8  1  0
 13 19  1  0
 14  8  2  0
 15  7  1  0
 16 12  2  0
 17 12  1  0
 18 20  1  0
 19 21  1  0
 20  9  1  0
 21  9  1  0
 22 24  1  0
 23  4  1  0
 24 17  2  0
 25 16  1  0
 26 22  1  0
 27  6  1  0
 28 23  2  0
 29 28  1  0
  5  6  1  0
 18 13  1  0
 29 27  2  0
 25 22  2  0
  5 30  1  0
  7 31  1  0
  7 32  1  0
 13 33  1  0
 15 34  1  0
 15 35  1  0
 16 36  1  0
 17 37  1  0
 18 38  1  0
 18 39  1  0
 19 40  1  0
 19 41  1  0
 20 42  1  0
 20 43  1  0
 21 44  1  0
 21 45  1  0
 23 46  1  0
 24 47  1  0
 25 48  1  0
 27 49  1  0
 28 50  1  0
 29 51  1  0
M  END
> <Uni-Dock RESULT> 
ENERGY=   -4.050  LOWER_BOUND=    5.109  UPPER_BOUND=    8.319
INTER + INTRA:          -4.050
INTER:                  -4.050
INTRA:                   0.000
UNBOUND:                 0.000

$$$$

     RDKit          3D

 51 54  0  0  0  0  0  0  0  0999 V2000
   48.2318    7.3093   14.4341 N   0  0  0  0  0  0  0  0  0  0  0  0
   48.1227    8.6901   14.4299 C   0  0  0  0  0  0  0  0  0  0  0  0
   47.3443    6.4510   13.7876 C   0  0  0  0  0  0  0  0  0  0  0  0
   46.2939    7.0801   12.9644 C   0  0  0  0  0  0  0  0  0  0  0  0
   47.1272    9.2257   13.6638 N   0  0  0  0  0  0  0  0  0  0  0  0
   46.2204    8.4680   12.9285 C   0  0  0  0  0  0  0  0  0  0  0  0
   49.2689    6.7091   15.2686 C   0  0  0  0  0  0  0  0  0  0  0  0
   52.9963    3.9148   19.6793 C   0  0  0  0  0  0  0  0  0  0  0  0
   49.7073    5.8141   17.6314 N   0  0  0  0  0  0  0  0  0  0  0  0
   48.8572    9.4404   15.0706 O   0  0  0  0  0  0  0  0  0  0  0  0
   47.3887    5.2260   13.8760 O   0  0  0  0  0  0  0  0  0  0  0  0
   54.1704    3.6536   18.7968 C   0  0  0  0  0  0  0  0  0  0  0  0
   51.6825    4.4662   19.1322 C   0  0  0  0  0  0  0  0  0  0  0  0
   53.1194    3.6726   20.8813 O   0  0  0  0  0  0  0  0  0  0  0  0
   48.7678    6.4658   16.7083 C   0  0  0  0  0  0  0  0  0  0  0  0
   54.4774    4.4452   17.6835 C   0  0  0  0  0  0  0  0  0  0  0  0
   55.0156    2.5852   19.1382 C   0  0  0  0  0  0  0  0  0  0  0  0
   51.2147    3.8153   17.8292 C   0  0  0  0  0  0  0  0  0  0  0  0
   51.6827    5.9992   19.0586 C   0  0  0  0  0  0  0  0  0  0  0  0
   49.8576    4.3763   17.3872 C   0  0  0  0  0  0  0  0  0  0  0  0
   50.9625    6.5312   17.8158 C   0  0  0  0  0  0  0  0  0  0  0  0
   56.4187    3.0806   17.2488 C   0  0  0  0  0  0  0  0  0  0  0  0
   45.3828    6.3069   12.2381 C   0  0  0  0  0  0  0  0  0  0  0  0
   56.1379    2.2957   18.3596 C   0  0  0  0  0  0  0  0  0  0  0  0
   55.6019    4.1526   16.9060 C   0  0  0  0  0  0  0  0  0  0  0  0
   57.4945    2.8064   16.5004 F   0  0  0  0  0  0  0  0  0  0  0  0
   45.2375    9.1001   12.1671 C   0  0  0  0  0  0  0  0  0  0  0  0
   44.3992    6.9361   11.4738 C   0  0  0  0  0  0  0  0  0  0  0  0
   44.3274    8.3302   11.4387 C   0  0  0  0  0  0  0  0  0  0  0  0
   47.0725   10.2362   13.6667 H   0  0  0  0  0  0  0  0  0  0  0  0
   49.5908    5.7683   14.8093 H   0  0  0  0  0  0  0  0  0  0  0  0
   50.1414    7.3723   15.2800 H   0  0  0  0  0  0  0  0  0  0  0  0
   50.9314    4.1818   19.8859 H   0  0  0  0  0  0  0  0  0  0  0  0
   48.4749    7.4294   17.1458 H   0  0  0  0  0  0  0  0  0  0  0  0
   47.8382    5.8819   16.6802 H   0  0  0  0  0  0  0  0  0  0  0  0
   53.8699    5.3005   17.4084 H   0  0  0  0  0  0  0  0  0  0  0  0
   54.8010    1.9763   20.0152 H   0  0  0  0  0  0  0  0  0  0  0  0
   51.9342    3.9842   17.0215 H   0  0  0  0  0  0  0  0  0  0  0  0
   51.1438    2.7275   17.9511 H   0  0  0  0  0  0  0  0  0  0  0  0
   51.1799    6.3861   19.9557 H   0  0  0  0  0  0  0  0  0  0  0  0
   52.6972    6.4117   19.0944 H   0  0  0  0  0  0  0  0  0  0  0  0
   49.7237    4.1209   16.3297 H   0  0  0  0  0  0  0  0  0  0  0  0
   49.0614    3.8582   17.9352 H   0  0  0  0  0  0  0  0  0  0  0  0
   51.6083    6.4353   16.9343 H   0  0  0  0  0  0  0  0  0  0  0  0
   50.7787    7.6024   17.9637 H   0  0  0  0  0  0  0  0  0  0  0  0
   45.4366    5.2206   12.2667 H   0  0  0  0  0  0  0  0  0  0  0  0
   56.7933    1.4695   18.6170 H   0  0  0  0  0  0  0  0  0  0  0  0
   55.8510    4.7581   16.0397 H   0  0  0  0  0  0  0  0  0  0  0  0
   45.1667   10.1839   12.1308 H   0  0  0  0  0  0  0  0  0  0  0  0
   43.6879    6.3394   10.9068 H   0  0  0  0  0  0  0  0  0  0  0  0
   43.5585    8.8173   10.8428 H   0  0  0  0  0  0  0  0  0  0  0  0
  2  1  1  0
  3  1  1  0
  4  3  1  0
  5  2  1  0
  6  4  2  0
  7  1  1  0
  8 13  1  0
  9 15  1  0
 10  2  2  0
 11  3  2  0
 12  8  1  0
 13 19  1  0
 14  8  2  0
 15  7  1  0
 16 12  2  0
 17 12  1  0
 18 20  1  0
 19 21  1  0
 20  9  1  0
 21  9  1  0
 22 24  1  0
 23  4  1  0
 24 17  2  0
 25 16  1  0
 26 22  1  0
 27  6  1  0
 28 23  2  0
 29 28  1  0
  5  6  1  0
 18 13  1  0
 29 27  2  0
 25 22  2  0
  5 30  1  0
  7 31  1  0
  7 32  1  0
 13 33  1  0
 15 34  1  0
 15 35  1  0
 16 36  1  0
 17 37  1  0
 18 38  1  0
 18 39  1  0
 19 40  1  0
 19 41  1  0
 20 42  1  0
 20 43  1  0
 21 44  1  0
 21 45  1  0
 23 46  1  0
 24 47  1  0
 25 48  1  0
 27 49  1  0
 28 50  1  0
 29 51  1  0
M  END
> <Uni-Dock RESULT> 
ENERGY=   -4.049  LOWER_BOUND=    4.941  UPPER_BOUND=    9.528
INTER + INTRA:          -4.049
INTER:                  -4.049
INTRA:                   0.000
UNBOUND:                 0.000

$$$$

     RDKit          3D

 51 54  0  0  0  0  0  0  0  0999 V2000
   45.2259    7.8448   12.5510 N   0  0  0  0  0  0  0  0  0  0  0  0
   46.3373    7.2518   13.1269 C   0  0  0  0  0  0  0  0  0  0  0  0
   44.2232    7.1459   11.8813 C   0  0  0  0  0  0  0  0  0  0  0  0
   44.3190    5.6737   11.8940 C   0  0  0  0  0  0  0  0  0  0  0  0
   46.3878    5.8874   13.1028 N   0  0  0  0  0  0  0  0  0  0  0  0
   45.4144    5.0847   12.5152 C   0  0  0  0  0  0  0  0  0  0  0  0
   45.1611    9.3035   12.5364 C   0  0  0  0  0  0  0  0  0  0  0  0
   45.2567   15.6197   11.4179 C   0  0  0  0  0  0  0  0  0  0  0  0
   45.8147   11.3503   11.1367 N   0  0  0  0  0  0  0  0  0  0  0  0
   47.2619    7.8780   13.6426 O   0  0  0  0  0  0  0  0  0  0  0  0
   43.2917    7.6848   11.2878 O   0  0  0  0  0  0  0  0  0  0  0  0
   44.4324   16.0322   12.5908 C   0  0  0  0  0  0  0  0  0  0  0  0
   45.4747   14.1520   11.0609 C   0  0  0  0  0  0  0  0  0  0  0  0
   45.7676   16.5105   10.7364 O   0  0  0  0  0  0  0  0  0  0  0  0
   45.8606    9.8897   11.2914 C   0  0  0  0  0  0  0  0  0  0  0  0
   44.3809   15.2974   13.7816 C   0  0  0  0  0  0  0  0  0  0  0  0
   43.7146   17.2351   12.4906 C   0  0  0  0  0  0  0  0  0  0  0  0
   44.2154   13.2865   11.1372 C   0  0  0  0  0  0  0  0  0  0  0  0
   46.6582   13.5394   11.8221 C   0  0  0  0  0  0  0  0  0  0  0  0
   44.5069   11.8466   10.6975 C   0  0  0  0  0  0  0  0  0  0  0  0
   46.4012   12.0903   12.2467 C   0  0  0  0  0  0  0  0  0  0  0  0
   42.8799   16.9330   14.7257 C   0  0  0  0  0  0  0  0  0  0  0  0
   43.3388    4.8790   11.2912 C   0  0  0  0  0  0  0  0  0  0  0  0
   42.9334   17.6826   13.5578 C   0  0  0  0  0  0  0  0  0  0  0  0
   43.5976   15.7483   14.8483 C   0  0  0  0  0  0  0  0  0  0  0  0
   42.1325   17.3596   15.7515 F   0  0  0  0  0  0  0  0  0  0  0  0
   45.5440    3.6962   12.5428 C   0  0  0  0  0  0  0  0  0  0  0  0
   43.4644    3.4894   11.3185 C   0  0  0  0  0  0  0  0  0  0  0  0
   44.5652    2.8997   11.9434 C   0  0  0  0  0  0  0  0  0  0  0  0
   47.2027    5.4749   13.5385 H   0  0  0  0  0  0  0  0  0  0  0  0
   44.1101    9.6103   12.5673 H   0  0  0  0  0  0  0  0  0  0  0  0
   45.6313    9.6874   13.4490 H   0  0  0  0  0  0  0  0  0  0  0  0
   45.7530   14.1680    9.9953 H   0  0  0  0  0  0  0  0  0  0  0  0
   46.9146    9.5822   11.3033 H   0  0  0  0  0  0  0  0  0  0  0  0
   45.4483    9.4256   10.3856 H   0  0  0  0  0  0  0  0  0  0  0  0
   44.9490   14.3827   13.9109 H   0  0  0  0  0  0  0  0  0  0  0  0
   43.7649   17.8279   11.5784 H   0  0  0  0  0  0  0  0  0  0  0  0
   43.8151   13.2588   12.1558 H   0  0  0  0  0  0  0  0  0  0  0  0
   43.4225   13.7120   10.5100 H   0  0  0  0  0  0  0  0  0  0  0  0
   47.5399   13.5686   11.1671 H   0  0  0  0  0  0  0  0  0  0  0  0
   46.9313   14.1323   12.7022 H   0  0  0  0  0  0  0  0  0  0  0  0
   43.6844   11.2185   11.0588 H   0  0  0  0  0  0  0  0  0  0  0  0
   44.4793   11.7951    9.6024 H   0  0  0  0  0  0  0  0  0  0  0  0
   45.7507   12.0644   13.1296 H   0  0  0  0  0  0  0  0  0  0  0  0
   47.3609   11.6490   12.5424 H   0  0  0  0  0  0  0  0  0  0  0  0
   42.4820    5.3377   10.8021 H   0  0  0  0  0  0  0  0  0  0  0  0
   42.3742   18.6103   13.4851 H   0  0  0  0  0  0  0  0  0  0  0  0
   43.5483   15.1876   15.7770 H   0  0  0  0  0  0  0  0  0  0  0  0
   46.3956    3.2218   13.0230 H   0  0  0  0  0  0  0  0  0  0  0  0
   42.7048    2.8665   10.8512 H   0  0  0  0  0  0  0  0  0  0  0  0
   44.6606    1.8162   11.9616 H   0  0  0  0  0  0  0  0  0  0  0  0
  2  1  1  0
  3  1  1  0
  4  3  1  0
  5  2  1  0
  6  4  2  0
  7  1  1  0
  8 13  1  0
  9 15  1  0
 10  2  2  0
 11  3  2  0
 12  8  1  0
 13 19  1  0
 14  8  2  0
 15  7  1  0
 16 12  2  0
 17 12  1  0
 18 20  1  0
 19 21  1  0
 20  9  1  0
 21  9  1  0
 22 24  1  0
 23  4  1  0
 24 17  2  0
 25 16  1  0
 26 22  1  0
 27  6  1  0
 28 23  2  0
 29 28  1  0
  5  6  1  0
 18 13  1  0
 29 27  2  0
 25 22  2  0
  5 30  1  0
  7 31  1  0
  7 32  1  0
 13 33  1  0
 15 34  1  0
 15 35  1  0
 16 36  1  0
 17 37  1  0
 18 38  1  0
 18 39  1  0
 19 40  1  0
 19 41  1  0
 20 42  1  0
 20 43  1  0
 21 44  1  0
 21 45  1  0
 23 46  1  0
 24 47  1  0
 25 48  1  0
 27 49  1  0
 28 50  1  0
 29 51  1  0
M  END
> <Uni-Dock RESULT> 
ENERGY=   -3.989  LOWER_BOUND=    8.104  UPPER_BOUND=   10.267
INTER + INTRA:          -3.989
INTER:                  -3.989
INTRA:                   0.000
UNBOUND:                 0.000

$$$$

     RDKit          3D

 51 54  0  0  0  0  0  0  0  0999 V2000
   46.7671    7.3477   13.2421 N   0  0  0  0  0  0  0  0  0  0  0  0
   47.5051    6.1819   13.3639 C   0  0  0  0  0  0  0  0  0  0  0  0
   45.4515    7.3985   12.7850 C   0  0  0  0  0  0  0  0  0  0  0  0
   44.7898    6.1059   12.5236 C   0  0  0  0  0  0  0  0  0  0  0  0
   46.8534    5.0115   13.0990 N   0  0  0  0  0  0  0  0  0  0  0  0
   45.5240    4.9376   12.6934 C   0  0  0  0  0  0  0  0  0  0  0  0
   47.4478    8.6155   13.4905 C   0  0  0  0  0  0  0  0  0  0  0  0
   50.5334   14.2399   13.4620 C   0  0  0  0  0  0  0  0  0  0  0  0
   48.7973   10.4573   12.3232 N   0  0  0  0  0  0  0  0  0  0  0  0
   48.6916    6.1491   13.6864 O   0  0  0  0  0  0  0  0  0  0  0  0
   44.8353    8.4429   12.5855 O   0  0  0  0  0  0  0  0  0  0  0  0
   50.2450   14.6211   14.8751 C   0  0  0  0  0  0  0  0  0  0  0  0
   49.9143   13.0026   12.8176 C   0  0  0  0  0  0  0  0  0  0  0  0
   51.2998   14.9607   12.8203 O   0  0  0  0  0  0  0  0  0  0  0  0
   48.1236    9.1561   12.2121 C   0  0  0  0  0  0  0  0  0  0  0  0
   50.0327   13.6799   15.8897 C   0  0  0  0  0  0  0  0  0  0  0  0
   50.2295   15.9898   15.1893 C   0  0  0  0  0  0  0  0  0  0  0  0
   48.4247   12.8129   13.1101 C   0  0  0  0  0  0  0  0  0  0  0  0
   50.7349   11.7346   13.0898 C   0  0  0  0  0  0  0  0  0  0  0  0
   47.8677   11.5900   12.3711 C   0  0  0  0  0  0  0  0  0  0  0  0
   49.8569   10.5013   13.3228 C   0  0  0  0  0  0  0  0  0  0  0  0
   49.7520   15.4655   17.4873 C   0  0  0  0  0  0  0  0  0  0  0  0
   43.4562    6.0462   12.1071 C   0  0  0  0  0  0  0  0  0  0  0  0
   49.9773   16.4119   16.4961 C   0  0  0  0  0  0  0  0  0  0  0  0
   49.7804   14.1058   17.1972 C   0  0  0  0  0  0  0  0  0  0  0  0
   49.5107   15.8666   18.7417 F   0  0  0  0  0  0  0  0  0  0  0  0
   44.9359    3.6965   12.4502 C   0  0  0  0  0  0  0  0  0  0  0  0
   42.8641    4.8060   11.8646 C   0  0  0  0  0  0  0  0  0  0  0  0
   43.6031    3.6337   12.0362 C   0  0  0  0  0  0  0  0  0  0  0  0
   47.4081    4.1717   13.2047 H   0  0  0  0  0  0  0  0  0  0  0  0
   46.7196    9.3376   13.8753 H   0  0  0  0  0  0  0  0  0  0  0  0
   48.1952    8.4671   14.2783 H   0  0  0  0  0  0  0  0  0  0  0  0
   49.9760   13.1979   11.7353 H   0  0  0  0  0  0  0  0  0  0  0  0
   48.8613    8.4199   11.8666 H   0  0  0  0  0  0  0  0  0  0  0  0
   47.3857    9.2087   11.4005 H   0  0  0  0  0  0  0  0  0  0  0  0
   50.0724   12.6138   15.6944 H   0  0  0  0  0  0  0  0  0  0  0  0
   50.4164   16.7314   14.4139 H   0  0  0  0  0  0  0  0  0  0  0  0
   48.2458   12.6760   14.1814 H   0  0  0  0  0  0  0  0  0  0  0  0
   47.8626   13.7089   12.8197 H   0  0  0  0  0  0  0  0  0  0  0  0
   51.3836   11.5525   12.2219 H   0  0  0  0  0  0  0  0  0  0  0  0
   51.4158   11.8609   13.9390 H   0  0  0  0  0  0  0  0  0  0  0  0
   46.9161   11.3234   12.8452 H   0  0  0  0  0  0  0  0  0  0  0  0
   47.6316   11.8738   11.3384 H   0  0  0  0  0  0  0  0  0  0  0  0
   49.4443   10.5171   14.3390 H   0  0  0  0  0  0  0  0  0  0  0  0
   50.4956    9.6125   13.2497 H   0  0  0  0  0  0  0  0  0  0  0  0
   42.8804    6.9592   11.9709 H   0  0  0  0  0  0  0  0  0  0  0  0
   49.9613   17.4686   16.7443 H   0  0  0  0  0  0  0  0  0  0  0  0
   49.6134   13.3863   17.9932 H   0  0  0  0  0  0  0  0  0  0  0  0
   45.4978    2.7751   12.5770 H   0  0  0  0  0  0  0  0  0  0  0  0
   41.8270    4.7538   11.5404 H   0  0  0  0  0  0  0  0  0  0  0  0
   43.1387    2.6687   11.8450 H   0  0  0  0  0  0  0  0  0  0  0  0
  2  1  1  0
  3  1  1  0
  4  3  1  0
  5  2  1  0
  6  4  2  0
  7  1  1  0
  8 13  1  0
  9 15  1  0
 10  2  2  0
 11  3  2  0
 12  8  1  0
 13 19  1  0
 14  8  2  0
 15  7  1  0
 16 12  2  0
 17 12  1  0
 18 20  1  0
 19 21  1  0
 20  9  1  0
 21  9  1  0
 22 24  1  0
 23  4  1  0
 24 17  2  0
 25 16  1  0
 26 22  1  0
 27  6  1  0
 28 23  2  0
 29 28  1  0
  5  6  1  0
 18 13  1  0
 29 27  2  0
 25 22  2  0
  5 30  1  0
  7 31  1  0
  7 32  1  0
 13 33  1  0
 15 34  1  0
 15 35  1  0
 16 36  1  0
 17 37  1  0
 18 38  1  0
 18 39  1  0
 19 40  1  0
 19 41  1  0
 20 42  1  0
 20 43  1  0
 21 44  1  0
 21 45  1  0
 23 46  1  0
 24 47  1  0
 25 48  1  0
 27 49  1  0
 28 50  1  0
 29 51  1  0
M  END
> <Uni-Dock RESULT> 
ENERGY=   -3.938  LOWER_BOUND=    6.968  UPPER_BOUND=    8.802
INTER + INTRA:          -3.938
INTER:                  -3.938
INTRA:                   0.000
UNBOUND:                 0.000

$$$$
