
     RDKit          3D

 51 54  0  0  0  0  0  0  0  0999 V2000
   44.2954    3.9075    9.9703 N   0  0  0  0  0  0  0  0  0  0  0  0
   44.1169    2.5642   10.2548 C   0  0  0  0  0  0  0  0  0  0  0  0
   45.1314    4.3930    8.9661 C   0  0  0  0  0  0  0  0  0  0  0  0
   45.9042    3.3911    8.2067 C   0  0  0  0  0  0  0  0  0  0  0  0
   44.8299    1.6742    9.5037 N   0  0  0  0  0  0  0  0  0  0  0  0
   45.7232    2.0454    8.5037 C   0  0  0  0  0  0  0  0  0  0  0  0
   43.6007    4.8744   10.8153 C   0  0  0  0  0  0  0  0  0  0  0  0
   49.0202    7.5482   13.1435 C   0  0  0  0  0  0  0  0  0  0  0  0
   45.6964    5.2258   12.2238 N   0  0  0  0  0  0  0  0  0  0  0  0
   43.3567    2.1377   11.1245 O   0  0  0  0  0  0  0  0  0  0  0  0
   45.2421    5.5807    8.6666 O   0  0  0  0  0  0  0  0  0  0  0  0
   49.4807    8.8971   13.6101 C   0  0  0  0  0  0  0  0  0  0  0  0
   47.6811    6.9940   13.6325 C   0  0  0  0  0  0  0  0  0  0  0  0
   49.7379    6.9258   12.3620 O   0  0  0  0  0  0  0  0  0  0  0  0
   44.2392    5.0095   12.2187 C   0  0  0  0  0  0  0  0  0  0  0  0
   48.6626    9.7729   14.3386 C   0  0  0  0  0  0  0  0  0  0  0  0
   50.7908    9.2933   13.2903 C   0  0  0  0  0  0  0  0  0  0  0  0
   47.6917    5.4561   13.6745 C   0  0  0  0  0  0  0  0  0  0  0  0
   46.5311    7.5296   12.7657 C   0  0  0  0  0  0  0  0  0  0  0  0
   46.2767    4.9034   13.5319 C   0  0  0  0  0  0  0  0  0  0  0  0
   46.1109    6.5287   11.6887 C   0  0  0  0  0  0  0  0  0  0  0  0
   50.4530   11.3886   14.4218 C   0  0  0  0  0  0  0  0  0  0  0  0
   46.8000    3.7757    7.2038 C   0  0  0  0  0  0  0  0  0  0  0  0
   51.2769   10.5378   13.6974 C   0  0  0  0  0  0  0  0  0  0  0  0
   49.1526   11.0187   14.7444 C   0  0  0  0  0  0  0  0  0  0  0  0
   50.9154   12.5826   14.8134 F   0  0  0  0  0  0  0  0  0  0  0  0
   46.4315    1.0689    7.8029 C   0  0  0  0  0  0  0  0  0  0  0  0
   47.5117    2.8019    6.5016 C   0  0  0  0  0  0  0  0  0  0  0  0
   47.3268    1.4507    6.8009 C   0  0  0  0  0  0  0  0  0  0  0  0
   44.6901    0.7002    9.7362 H   0  0  0  0  0  0  0  0  0  0  0  0
   42.5614    4.5437   10.9359 H   0  0  0  0  0  0  0  0  0  0  0  0
   43.5598    5.8514   10.3231 H   0  0  0  0  0  0  0  0  0  0  0  0
   47.5323    7.3317   14.6653 H   0  0  0  0  0  0  0  0  0  0  0  0
   43.7304    5.8101   12.7709 H   0  0  0  0  0  0  0  0  0  0  0  0
   44.0245    4.0799   12.7616 H   0  0  0  0  0  0  0  0  0  0  0  0
   47.6386    9.5219   14.5964 H   0  0  0  0  0  0  0  0  0  0  0  0
   51.4412    8.6310   12.7203 H   0  0  0  0  0  0  0  0  0  0  0  0
   48.3245    5.0271   12.8875 H   0  0  0  0  0  0  0  0  0  0  0  0
   48.1275    5.1233   14.6246 H   0  0  0  0  0  0  0  0  0  0  0  0
   46.7989    8.4790   12.2873 H   0  0  0  0  0  0  0  0  0  0  0  0
   45.6665    7.7420   13.4085 H   0  0  0  0  0  0  0  0  0  0  0  0
   46.3037    3.8140   13.6519 H   0  0  0  0  0  0  0  0  0  0  0  0
   45.6576    5.3038   14.3460 H   0  0  0  0  0  0  0  0  0  0  0  0
   45.3318    6.9870   11.0706 H   0  0  0  0  0  0  0  0  0  0  0  0
   46.9608    6.3595   11.0155 H   0  0  0  0  0  0  0  0  0  0  0  0
   46.9461    4.8285    6.9722 H   0  0  0  0  0  0  0  0  0  0  0  0
   52.2887   10.8448   13.4517 H   0  0  0  0  0  0  0  0  0  0  0  0
   48.5266   11.7048   15.3072 H   0  0  0  0  0  0  0  0  0  0  0  0
   46.3000    0.0137    8.0256 H   0  0  0  0  0  0  0  0  0  0  0  0
   48.2114    3.0976    5.7233 H   0  0  0  0  0  0  0  0  0  0  0  0
   47.8839    0.6941    6.2529 H   0  0  0  0  0  0  0  0  0  0  0  0
  2  1  1  0
  3  1  1  0
  4  3  1  0
  5  2  1  0
  6  4  2  0
  7  1  1  0
  8 13  1  0
  9 15  1  0
 10  2  2  0
 11  3  2  0
 12  8  1  0
 13 19  1  0
 14  8  2  0
 15  7  1  0
 16 12  2  0
 17 12  1  0
 18 20  1  0
 19 21  1  0
 20  9  1  0
 21  9  1  0
 22 24  1  0
 23  4  1  0
 24 17  2  0
 25 16  1  0
 26 22  1  0
 27  6  1  0
 28 23  2  0
 29 28  1  0
  5  6  1  0
 18 13  1  0
 29 27  2  0
 25 22  2  0
  5 30  1  0
  7 31  1  0
  7 32  1  0
 13 33  1  0
 15 34  1  0
 15 35  1  0
 16 36  1  0
 17 37  1  0
 18 38  1  0
 18 39  1  0
 19 40  1  0
 19 41  1  0
 20 42  1  0
 20 43  1  0
 21 44  1  0
 21 45  1  0
 23 46  1  0
 24 47  1  0
 25 48  1  0
 27 49  1  0
 28 50  1  0
 29 51  1  0
M  END
> <Uni-Dock RESULT> 
ENERGY=   -7.435  LOWER_BOUND=    0.000  UPPER_BOUND=    0.000
INTER + INTRA:          -7.435
INTER:                  -7.435
INTRA:                   0.000
UNBOUND:                 0.000

$$$$

     RDKit          3D

 51 54  0  0  0  0  0  0  0  0999 V2000
   47.7417    7.0740   12.7982 N   0  0  0  0  0  0  0  0  0  0  0  0
   47.0994    8.1074   12.1373 C   0  0  0  0  0  0  0  0  0  0  0  0
   47.1317    5.8738   13.1594 C   0  0  0  0  0  0  0  0  0  0  0  0
   45.6942    5.7435   12.8520 C   0  0  0  0  0  0  0  0  0  0  0  0
   45.7774    7.9266   11.8466 N   0  0  0  0  0  0  0  0  0  0  0  0
   45.0564    6.7886   12.1943 C   0  0  0  0  0  0  0  0  0  0  0  0
   49.1337    7.2829   13.1856 C   0  0  0  0  0  0  0  0  0  0  0  0
   47.9913    6.8695   19.5467 C   0  0  0  0  0  0  0  0  0  0  0  0
   48.4321    7.9277   15.5501 N   0  0  0  0  0  0  0  0  0  0  0  0
   47.6483    9.1551   11.7954 O   0  0  0  0  0  0  0  0  0  0  0  0
   47.7148    4.9279   13.6865 O   0  0  0  0  0  0  0  0  0  0  0  0
   48.7105    6.3978   20.7754 C   0  0  0  0  0  0  0  0  0  0  0  0
   48.7174    7.7637   18.5404 C   0  0  0  0  0  0  0  0  0  0  0  0
   46.8276    6.5082   19.3780 O   0  0  0  0  0  0  0  0  0  0  0  0
   49.2816    8.2447   14.3890 C   0  0  0  0  0  0  0  0  0  0  0  0
   50.0867    6.5827   20.9723 C   0  0  0  0  0  0  0  0  0  0  0  0
   47.9621    5.7351   21.7636 C   0  0  0  0  0  0  0  0  0  0  0  0
   47.7357    8.6903   17.8023 C   0  0  0  0  0  0  0  0  0  0  0  0
   49.5378    6.9109   17.5605 C   0  0  0  0  0  0  0  0  0  0  0  0
   48.2917    9.0870   16.4378 C   0  0  0  0  0  0  0  0  0  0  0  0
   48.7998    6.6851   16.2404 C   0  0  0  0  0  0  0  0  0  0  0  0
   49.9385    5.4698   23.1084 C   0  0  0  0  0  0  0  0  0  0  0  0
   44.9791    4.5950   13.2068 C   0  0  0  0  0  0  0  0  0  0  0  0
   48.5759    5.2729   22.9300 C   0  0  0  0  0  0  0  0  0  0  0  0
   50.6982    6.1181   22.1415 C   0  0  0  0  0  0  0  0  0  0  0  0
   50.5304    5.0277   24.2250 F   0  0  0  0  0  0  0  0  0  0  0  0
   43.6997    6.6992   11.8813 C   0  0  0  0  0  0  0  0  0  0  0  0
   43.6215    4.5024   12.8970 C   0  0  0  0  0  0  0  0  0  0  0  0
   42.9836    5.5531   12.2347 C   0  0  0  0  0  0  0  0  0  0  0  0
   45.3279    8.6984   11.3726 H   0  0  0  0  0  0  0  0  0  0  0  0
   49.6699    7.7112   12.3294 H   0  0  0  0  0  0  0  0  0  0  0  0
   49.6164    6.3252   13.4057 H   0  0  0  0  0  0  0  0  0  0  0  0
   49.4000    8.4160   19.0986 H   0  0  0  0  0  0  0  0  0  0  0  0
   50.3371    8.2905   14.6867 H   0  0  0  0  0  0  0  0  0  0  0  0
   49.0210    9.2497   14.0326 H   0  0  0  0  0  0  0  0  0  0  0  0
   50.7122    7.0727   20.2329 H   0  0  0  0  0  0  0  0  0  0  0  0
   46.8931    5.5757   21.6283 H   0  0  0  0  0  0  0  0  0  0  0  0
   46.7522    8.2235   17.6661 H   0  0  0  0  0  0  0  0  0  0  0  0
   47.5605    9.5878   18.4083 H   0  0  0  0  0  0  0  0  0  0  0  0
   49.7978    5.9390   17.9961 H   0  0  0  0  0  0  0  0  0  0  0  0
   50.4887    7.4190   17.3522 H   0  0  0  0  0  0  0  0  0  0  0  0
   47.6149    9.8132   15.9725 H   0  0  0  0  0  0  0  0  0  0  0  0
   49.2571    9.5904   16.5828 H   0  0  0  0  0  0  0  0  0  0  0  0
   49.4061    6.0271   15.6092 H   0  0  0  0  0  0  0  0  0  0  0  0
   47.8759    6.1293   16.4449 H   0  0  0  0  0  0  0  0  0  0  0  0
   45.4754    3.7773   13.7250 H   0  0  0  0  0  0  0  0  0  0  0  0
   47.9990    4.7615   23.6943 H   0  0  0  0  0  0  0  0  0  0  0  0
   51.7634    6.2547   22.3028 H   0  0  0  0  0  0  0  0  0  0  0  0
   43.1889    7.5092   11.3681 H   0  0  0  0  0  0  0  0  0  0  0  0
   43.0616    3.6122   13.1741 H   0  0  0  0  0  0  0  0  0  0  0  0
   41.9250    5.4787   11.9959 H   0  0  0  0  0  0  0  0  0  0  0  0
  2  1  1  0
  3  1  1  0
  4  3  1  0
  5  2  1  0
  6  4  2  0
  7  1  1  0
  8 13  1  0
  9 15  1  0
 10  2  2  0
 11  3  2  0
 12  8  1  0
 13 19  1  0
 14  8  2  0
 15  7  1  0
 16 12  2  0
 17 12  1  0
 18 20  1  0
 19 21  1  0
 20  9  1  0
 21  9  1  0
 22 24  1  0
 23  4  1  0
 24 17  2  0
 25 16  1  0
 26 22  1  0
 27  6  1  0
 28 23  2  0
 29 28  1  0
  5  6  1  0
 18 13  1  0
 29 27  2  0
 25 22  2  0
  5 30  1  0
  7 31  1  0
  7 32  1  0
 13 33  1  0
 15 34  1  0
 15 35  1  0
 16 36  1  0
 17 37  1  0
 18 38  1  0
 18 39  1  0
 19 40  1  0
 19 41  1  0
 20 42  1  0
 20 43  1  0
 21 44  1  0
 21 45  1  0
 23 46  1  0
 24 47  1  0
 25 48  1  0
 27 49  1  0
 28 50  1  0
 29 51  1  0
M  END
> <Uni-Dock RESULT> 
ENERGY=   -4.480  LOWER_BOUND=    5.298  UPPER_BOUND=    7.295
INTER + INTRA:          -4.480
INTER:                  -4.480
INTRA:                   0.000
UNBOUND:                 0.000

$$$$

     RDKit          3D

 51 54  0  0  0  0  0  0  0  0999 V2000
   51.9259    5.7841   18.6926 N   0  0  0  0  0  0  0  0  0  0  0  0
   53.3093    5.8062   18.6372 C   0  0  0  0  0  0  0  0  0  0  0  0
   51.1504    4.6424   18.4972 C   0  0  0  0  0  0  0  0  0  0  0  0
   51.8737    3.4012   18.1594 C   0  0  0  0  0  0  0  0  0  0  0  0
   53.9344    4.6260   18.3524 N   0  0  0  0  0  0  0  0  0  0  0  0
   53.2619    3.4345   18.0996 C   0  0  0  0  0  0  0  0  0  0  0  0
   51.2393    7.0526   18.9184 C   0  0  0  0  0  0  0  0  0  0  0  0
   48.1933    7.0421   13.2034 C   0  0  0  0  0  0  0  0  0  0  0  0
   50.8127    7.3248   16.4198 N   0  0  0  0  0  0  0  0  0  0  0  0
   53.9924    6.8109   18.8374 O   0  0  0  0  0  0  0  0  0  0  0  0
   49.9264    4.6047   18.6111 O   0  0  0  0  0  0  0  0  0  0  0  0
   46.8897    7.5237   12.6394 C   0  0  0  0  0  0  0  0  0  0  0  0
   49.0255    7.9718   14.0880 C   0  0  0  0  0  0  0  0  0  0  0  0
   48.5522    5.8946   12.9432 O   0  0  0  0  0  0  0  0  0  0  0  0
   51.2497    7.9685   17.6709 C   0  0  0  0  0  0  0  0  0  0  0  0
   46.2909    8.7316   13.0256 C   0  0  0  0  0  0  0  0  0  0  0  0
   46.2449    6.7156   11.6871 C   0  0  0  0  0  0  0  0  0  0  0  0
   50.5269    7.6534   13.9807 C   0  0  0  0  0  0  0  0  0  0  0  0
   48.5349    7.9080   15.5426 C   0  0  0  0  0  0  0  0  0  0  0  0
   51.2608    8.0840   15.2473 C   0  0  0  0  0  0  0  0  0  0  0  0
   49.3887    6.9682   16.3948 C   0  0  0  0  0  0  0  0  0  0  0  0
   44.4542    8.3123   11.5176 C   0  0  0  0  0  0  0  0  0  0  0  0
   51.1872    2.2091   17.9066 C   0  0  0  0  0  0  0  0  0  0  0  0
   45.0285    7.1107   11.1256 C   0  0  0  0  0  0  0  0  0  0  0  0
   45.0725    9.1241   12.4615 C   0  0  0  0  0  0  0  0  0  0  0  0
   43.2881    8.6943   10.9819 F   0  0  0  0  0  0  0  0  0  0  0  0
   53.9806    2.2796   17.7894 C   0  0  0  0  0  0  0  0  0  0  0  0
   51.9024    1.0521   17.5942 C   0  0  0  0  0  0  0  0  0  0  0  0
   53.2971    1.0880   17.5365 C   0  0  0  0  0  0  0  0  0  0  0  0
   54.9436    4.6692   18.3080 H   0  0  0  0  0  0  0  0  0  0  0  0
   51.7439    7.5770   19.7396 H   0  0  0  0  0  0  0  0  0  0  0  0
   50.2107    6.8762   19.2492 H   0  0  0  0  0  0  0  0  0  0  0  0
   48.8979    8.9958   13.7165 H   0  0  0  0  0  0  0  0  0  0  0  0
   50.6454    8.8619   17.8742 H   0  0  0  0  0  0  0  0  0  0  0  0
   52.2807    8.3209   17.5380 H   0  0  0  0  0  0  0  0  0  0  0  0
   46.7392    9.3833   13.7689 H   0  0  0  0  0  0  0  0  0  0  0  0
   46.6894    5.7707   11.3772 H   0  0  0  0  0  0  0  0  0  0  0  0
   50.7100    6.5859   13.8063 H   0  0  0  0  0  0  0  0  0  0  0  0
   50.9460    8.1756   13.1118 H   0  0  0  0  0  0  0  0  0  0  0  0
   47.4874    7.5893   15.5984 H   0  0  0  0  0  0  0  0  0  0  0  0
   48.5738    8.9149   15.9787 H   0  0  0  0  0  0  0  0  0  0  0  0
   52.3368    7.9257   15.1092 H   0  0  0  0  0  0  0  0  0  0  0  0
   51.1080    9.1616   15.3948 H   0  0  0  0  0  0  0  0  0  0  0  0
   48.9582    6.9204   17.4005 H   0  0  0  0  0  0  0  0  0  0  0  0
   49.3048    5.9521   15.9888 H   0  0  0  0  0  0  0  0  0  0  0  0
   50.1006    2.1816   17.9490 H   0  0  0  0  0  0  0  0  0  0  0  0
   44.5297    6.4879   10.3896 H   0  0  0  0  0  0  0  0  0  0  0  0
   44.5998   10.0567   12.7550 H   0  0  0  0  0  0  0  0  0  0  0  0
   55.0658    2.2922   17.7387 H   0  0  0  0  0  0  0  0  0  0  0  0
   51.3718    0.1242   17.3940 H   0  0  0  0  0  0  0  0  0  0  0  0
   53.8517    0.1850   17.2914 H   0  0  0  0  0  0  0  0  0  0  0  0
  2  1  1  0
  3  1  1  0
  4  3  1  0
  5  2  1  0
  6  4  2  0
  7  1  1  0
  8 13  1  0
  9 15  1  0
 10  2  2  0
 11  3  2  0
 12  8  1  0
 13 19  1  0
 14  8  2  0
 15  7  1  0
 16 12  2  0
 17 12  1  0
 18 20  1  0
 19 21  1  0
 20  9  1  0
 21  9  1  0
 22 24  1  0
 23  4  1  0
 24 17  2  0
 25 16  1  0
 26 22  1  0
 27  6  1  0
 28 23  2  0
 29 28  1  0
  5  6  1  0
 18 13  1  0
 29 27  2  0
 25 22  2  0
  5 30  1  0
  7 31  1  0
  7 32  1  0
 13 33  1  0
 15 34  1  0
 15 35  1  0
 16 36  1  0
 17 37  1  0
 18 38  1  0
 18 39  1  0
 19 40  1  0
 19 41  1  0
 20 42  1  0
 20 43  1  0
 21 44  1  0
 21 45  1  0
 23 46  1  0
 24 47  1  0
 25 48  1  0
 27 49  1  0
 28 50  1  0
 29 51  1  0
M  END
> <Uni-Dock RESULT> 
ENERGY=   -4.437  LOWER_BOUND=    5.662  UPPER_BOUND=    9.158
INTER + INTRA:          -4.437
INTER:                  -4.437
INTRA:                   0.000
UNBOUND:                 0.000

$$$$
