
     RDKit          3D

 51 54  0  0  0  0  0  0  0  0999 V2000
   50.4779    8.4766   12.9084 N   0  0  0  0  0  0  0  0  0  0  0  0
   50.9860    8.4624   14.1972 C   0  0  0  0  0  0  0  0  0  0  0  0
   49.4090    7.6961   12.4779 C   0  0  0  0  0  0  0  0  0  0  0  0
   48.7730    6.8272   13.4881 C   0  0  0  0  0  0  0  0  0  0  0  0
   50.3639    7.6450   15.0944 N   0  0  0  0  0  0  0  0  0  0  0  0
   49.2684    6.8427   14.7856 C   0  0  0  0  0  0  0  0  0  0  0  0
   51.0996    9.3878   11.9493 C   0  0  0  0  0  0  0  0  0  0  0  0
   45.5295   12.5716   11.6691 C   0  0  0  0  0  0  0  0  0  0  0  0
   49.3535   11.2441   12.2465 N   0  0  0  0  0  0  0  0  0  0  0  0
   51.9465    9.1368   14.5681 O   0  0  0  0  0  0  0  0  0  0  0  0
   48.9756    7.6805   11.3271 O   0  0  0  0  0  0  0  0  0  0  0  0
   45.0420   11.1770   11.5219 C   0  0  0  0  0  0  0  0  0  0  0  0
   47.0123   12.9242   11.5623 C   0  0  0  0  0  0  0  0  0  0  0  0
   44.6865   13.4417   11.8942 O   0  0  0  0  0  0  0  0  0  0  0  0
   50.7867   10.8786   12.2238 C   0  0  0  0  0  0  0  0  0  0  0  0
   43.8863   10.9670   10.7557 C   0  0  0  0  0  0  0  0  0  0  0  0
   45.6495   10.1023   12.1732 C   0  0  0  0  0  0  0  0  0  0  0  0
   47.6942   12.9149   12.9276 C   0  0  0  0  0  0  0  0  0  0  0  0
   47.7976   12.1962   10.4661 C   0  0  0  0  0  0  0  0  0  0  0  0
   49.1779   12.5866   12.8087 C   0  0  0  0  0  0  0  0  0  0  0  0
   48.7031   11.0539   10.9425 C   0  0  0  0  0  0  0  0  0  0  0  0
   43.9867    8.6169   11.2510 C   0  0  0  0  0  0  0  0  0  0  0  0
   47.6895    6.0061   13.1577 C   0  0  0  0  0  0  0  0  0  0  0  0
   45.1177    8.8187   12.0326 C   0  0  0  0  0  0  0  0  0  0  0  0
   43.3629    9.6806   10.6138 C   0  0  0  0  0  0  0  0  0  0  0  0
   43.4879    7.3786   11.1209 F   0  0  0  0  0  0  0  0  0  0  0  0
   48.6756    6.0555   15.7735 C   0  0  0  0  0  0  0  0  0  0  0  0
   47.0911    5.2224   14.1428 C   0  0  0  0  0  0  0  0  0  0  0  0
   47.5805    5.2520   15.4499 C   0  0  0  0  0  0  0  0  0  0  0  0
   50.7419    7.6633   16.0320 H   0  0  0  0  0  0  0  0  0  0  0  0
   52.1868    9.2506   12.0096 H   0  0  0  0  0  0  0  0  0  0  0  0
   50.8107    9.1245   10.9260 H   0  0  0  0  0  0  0  0  0  0  0  0
   46.9991   13.9742   11.2253 H   0  0  0  0  0  0  0  0  0  0  0  0
   51.3149   11.4910   11.4813 H   0  0  0  0  0  0  0  0  0  0  0  0
   51.2270   11.1364   13.1953 H   0  0  0  0  0  0  0  0  0  0  0  0
   43.3912   11.8080   10.2763 H   0  0  0  0  0  0  0  0  0  0  0  0
   46.5208   10.2366   12.8033 H   0  0  0  0  0  0  0  0  0  0  0  0
   47.5760   13.9020   13.3982 H   0  0  0  0  0  0  0  0  0  0  0  0
   47.2106   12.2083   13.6150 H   0  0  0  0  0  0  0  0  0  0  0  0
   47.1323   11.8343    9.6729 H   0  0  0  0  0  0  0  0  0  0  0  0
   48.4505   12.9386    9.9846 H   0  0  0  0  0  0  0  0  0  0  0  0
   49.6102   12.6275   13.8163 H   0  0  0  0  0  0  0  0  0  0  0  0
   49.6936   13.3478   12.2026 H   0  0  0  0  0  0  0  0  0  0  0  0
   49.4421   10.8854   10.1462 H   0  0  0  0  0  0  0  0  0  0  0  0
   48.1148   10.1329   10.9931 H   0  0  0  0  0  0  0  0  0  0  0  0
   47.3083    5.9800   12.1383 H   0  0  0  0  0  0  0  0  0  0  0  0
   45.5779    7.9753   12.5356 H   0  0  0  0  0  0  0  0  0  0  0  0
   42.4735    9.5032   10.0218 H   0  0  0  0  0  0  0  0  0  0  0  0
   49.0487    6.0603   16.7935 H   0  0  0  0  0  0  0  0  0  0  0  0
   46.2461    4.5899   13.8914 H   0  0  0  0  0  0  0  0  0  0  0  0
   47.1059    4.6450   16.2173 H   0  0  0  0  0  0  0  0  0  0  0  0
  2  1  1  0
  3  1  1  0
  4  3  1  0
  5  2  1  0
  6  4  2  0
  7  1  1  0
  8 13  1  0
  9 15  1  0
 10  2  2  0
 11  3  2  0
 12  8  1  0
 13 19  1  0
 14  8  2  0
 15  7  1  0
 16 12  2  0
 17 12  1  0
 18 20  1  0
 19 21  1  0
 20  9  1  0
 21  9  1  0
 22 24  1  0
 23  4  1  0
 24 17  2  0
 25 16  1  0
 26 22  1  0
 27  6  1  0
 28 23  2  0
 29 28  1  0
  5  6  1  0
 18 13  1  0
 29 27  2  0
 25 22  2  0
  5 30  1  0
  7 31  1  0
  7 32  1  0
 13 33  1  0
 15 34  1  0
 15 35  1  0
 16 36  1  0
 17 37  1  0
 18 38  1  0
 18 39  1  0
 19 40  1  0
 19 41  1  0
 20 42  1  0
 20 43  1  0
 21 44  1  0
 21 45  1  0
 23 46  1  0
 24 47  1  0
 25 48  1  0
 27 49  1  0
 28 50  1  0
 29 51  1  0
M  END
> <Uni-Dock RESULT> 
ENERGY=   -4.197  LOWER_BOUND=    0.000  UPPER_BOUND=    0.000
INTER + INTRA:          -4.197
INTER:                  -4.197
INTRA:                   0.000
UNBOUND:                 0.000

$$$$

     RDKit          3D

 51 54  0  0  0  0  0  0  0  0999 V2000
   46.9396   12.3391   11.1478 N   0  0  0  0  0  0  0  0  0  0  0  0
   47.6360   12.7343   10.0171 C   0  0  0  0  0  0  0  0  0  0  0  0
   45.6607   11.7905   11.1295 C   0  0  0  0  0  0  0  0  0  0  0  0
   45.0398   11.5995    9.8037 C   0  0  0  0  0  0  0  0  0  0  0  0
   47.0214   12.5360    8.8158 N   0  0  0  0  0  0  0  0  0  0  0  0
   45.7575   11.9690    8.6735 C   0  0  0  0  0  0  0  0  0  0  0  0
   47.6072   12.4951   12.4388 C   0  0  0  0  0  0  0  0  0  0  0  0
   47.5353    6.1003   13.0220 C   0  0  0  0  0  0  0  0  0  0  0  0
   48.4214   10.0651   12.5602 N   0  0  0  0  0  0  0  0  0  0  0  0
   48.7576   13.2408   10.0389 O   0  0  0  0  0  0  0  0  0  0  0  0
   45.0253   11.4689   12.1322 O   0  0  0  0  0  0  0  0  0  0  0  0
   46.1295    6.3417   12.6100 C   0  0  0  0  0  0  0  0  0  0  0  0
   48.4587    7.2401   13.4490 C   0  0  0  0  0  0  0  0  0  0  0  0
   47.9374    4.9357   12.9959 O   0  0  0  0  0  0  0  0  0  0  0  0
   48.7720   11.4990   12.6545 C   0  0  0  0  0  0  0  0  0  0  0  0
   45.1487    5.4606   13.0880 C   0  0  0  0  0  0  0  0  0  0  0  0
   45.7778    7.3571   11.7193 C   0  0  0  0  0  0  0  0  0  0  0  0
   49.2668    7.7822   12.2732 C   0  0  0  0  0  0  0  0  0  0  0  0
   47.8238    8.3255   14.3247 C   0  0  0  0  0  0  0  0  0  0  0  0
   49.6351    9.2471   12.4767 C   0  0  0  0  0  0  0  0  0  0  0  0
   47.4889    9.6428   13.6146 C   0  0  0  0  0  0  0  0  0  0  0  0
   43.4754    6.6440   11.8318 C   0  0  0  0  0  0  0  0  0  0  0  0
   43.7581   11.0529    9.6766 C   0  0  0  0  0  0  0  0  0  0  0  0
   44.4441    7.5066   11.3331 C   0  0  0  0  0  0  0  0  0  0  0  0
   43.8161    5.6189   12.7034 C   0  0  0  0  0  0  0  0  0  0  0  0
   42.1974    6.8005   11.4563 F   0  0  0  0  0  0  0  0  0  0  0  0
   45.2142   11.7780    7.4025 C   0  0  0  0  0  0  0  0  0  0  0  0
   43.2141   10.8554    8.4086 C   0  0  0  0  0  0  0  0  0  0  0  0
   43.9441   11.2125    7.2735 C   0  0  0  0  0  0  0  0  0  0  0  0
   47.5550   12.8172    8.0044 H   0  0  0  0  0  0  0  0  0  0  0  0
   48.0152   13.5128   12.4867 H   0  0  0  0  0  0  0  0  0  0  0  0
   46.8843   12.4126   13.2577 H   0  0  0  0  0  0  0  0  0  0  0  0
   49.1781    6.7444   14.1221 H   0  0  0  0  0  0  0  0  0  0  0  0
   49.2350   11.7053   13.6284 H   0  0  0  0  0  0  0  0  0  0  0  0
   49.5404   11.7196   11.9028 H   0  0  0  0  0  0  0  0  0  0  0  0
   45.4262    4.6474   13.7542 H   0  0  0  0  0  0  0  0  0  0  0  0
   46.5171    8.0304   11.3018 H   0  0  0  0  0  0  0  0  0  0  0  0
   50.1853    7.1877   12.1603 H   0  0  0  0  0  0  0  0  0  0  0  0
   48.7276    7.6623   11.3242 H   0  0  0  0  0  0  0  0  0  0  0  0
   46.9342    7.9487   14.8437 H   0  0  0  0  0  0  0  0  0  0  0  0
   48.5452    8.5678   15.1186 H   0  0  0  0  0  0  0  0  0  0  0  0
   50.2377    9.5622   11.6156 H   0  0  0  0  0  0  0  0  0  0  0  0
   50.2631    9.3655   13.3736 H   0  0  0  0  0  0  0  0  0  0  0  0
   47.3963   10.4079   14.3984 H   0  0  0  0  0  0  0  0  0  0  0  0
   46.4934    9.5615   13.1682 H   0  0  0  0  0  0  0  0  0  0  0  0
   43.1866   10.7762   10.5608 H   0  0  0  0  0  0  0  0  0  0  0  0
   44.1574    8.2893   10.6395 H   0  0  0  0  0  0  0  0  0  0  0  0
   43.0477    4.9485   13.0681 H   0  0  0  0  0  0  0  0  0  0  0  0
   45.7651   12.0576    6.5092 H   0  0  0  0  0  0  0  0  0  0  0  0
   42.2233   10.4251    8.3063 H   0  0  0  0  0  0  0  0  0  0  0  0
   43.5193   11.0497    6.2858 H   0  0  0  0  0  0  0  0  0  0  0  0
  2  1  1  0
  3  1  1  0
  4  3  1  0
  5  2  1  0
  6  4  2  0
  7  1  1  0
  8 13  1  0
  9 15  1  0
 10  2  2  0
 11  3  2  0
 12  8  1  0
 13 19  1  0
 14  8  2  0
 15  7  1  0
 16 12  2  0
 17 12  1  0
 18 20  1  0
 19 21  1  0
 20  9  1  0
 21  9  1  0
 22 24  1  0
 23  4  1  0
 24 17  2  0
 25 16  1  0
 26 22  1  0
 27  6  1  0
 28 23  2  0
 29 28  1  0
  5  6  1  0
 18 13  1  0
 29 27  2  0
 25 22  2  0
  5 30  1  0
  7 31  1  0
  7 32  1  0
 13 33  1  0
 15 34  1  0
 15 35  1  0
 16 36  1  0
 17 37  1  0
 18 38  1  0
 18 39  1  0
 19 40  1  0
 19 41  1  0
 20 42  1  0
 20 43  1  0
 21 44  1  0
 21 45  1  0
 23 46  1  0
 24 47  1  0
 25 48  1  0
 27 49  1  0
 28 50  1  0
 29 51  1  0
M  END
> <Uni-Dock RESULT> 
ENERGY=   -4.117  LOWER_BOUND=    2.299  UPPER_BOUND=    6.252
INTER + INTRA:          -4.117
INTER:                  -4.117
INTRA:                   0.000
UNBOUND:                 0.000

$$$$

     RDKit          3D

 51 54  0  0  0  0  0  0  0  0999 V2000
   46.9807    5.3849   13.5936 N   0  0  0  0  0  0  0  0  0  0  0  0
   45.6228    5.2427   13.3580 C   0  0  0  0  0  0  0  0  0  0  0  0
   47.6954    6.5596   13.3787 C   0  0  0  0  0  0  0  0  0  0  0  0
   46.9270    7.7247   12.8969 C   0  0  0  0  0  0  0  0  0  0  0  0
   44.9566    6.3473   12.9153 N   0  0  0  0  0  0  0  0  0  0  0  0
   45.5605    7.5824   12.6936 C   0  0  0  0  0  0  0  0  0  0  0  0
   47.6981    4.2251   14.1199 C   0  0  0  0  0  0  0  0  0  0  0  0
   48.8000    7.5905   19.4772 C   0  0  0  0  0  0  0  0  0  0  0  0
   47.5844    4.9885   16.5668 N   0  0  0  0  0  0  0  0  0  0  0  0
   44.9987    4.1954   13.5271 O   0  0  0  0  0  0  0  0  0  0  0  0
   48.9065    6.6814   13.5546 O   0  0  0  0  0  0  0  0  0  0  0  0
   49.1799    8.5961   18.4531 C   0  0  0  0  0  0  0  0  0  0  0  0
   48.5657    6.1234   19.1204 C   0  0  0  0  0  0  0  0  0  0  0  0
   48.6682    7.9891   20.6357 O   0  0  0  0  0  0  0  0  0  0  0  0
   47.3487    3.9008   15.5925 C   0  0  0  0  0  0  0  0  0  0  0  0
   50.1835    9.5181   18.7844 C   0  0  0  0  0  0  0  0  0  0  0  0
   48.5265    8.6912   17.2234 C   0  0  0  0  0  0  0  0  0  0  0  0
   47.0972    5.8456   18.8111 C   0  0  0  0  0  0  0  0  0  0  0  0
   49.5437    5.5144   18.1100 C   0  0  0  0  0  0  0  0  0  0  0  0
   46.9413    4.6758   17.8465 C   0  0  0  0  0  0  0  0  0  0  0  0
   49.0062    5.3410   16.6843 C   0  0  0  0  0  0  0  0  0  0  0  0
   49.9108   10.5811   16.6458 C   0  0  0  0  0  0  0  0  0  0  0  0
   47.5513    8.9528   12.6528 C   0  0  0  0  0  0  0  0  0  0  0  0
   48.8981    9.6877   16.3184 C   0  0  0  0  0  0  0  0  0  0  0  0
   50.5549   10.5081   17.8732 C   0  0  0  0  0  0  0  0  0  0  0  0
   50.2611   11.5313   15.7663 F   0  0  0  0  0  0  0  0  0  0  0  0
   44.7970    8.6689   12.2649 C   0  0  0  0  0  0  0  0  0  0  0  0
   46.7912   10.0420   12.2299 C   0  0  0  0  0  0  0  0  0  0  0  0
   45.4152    9.9008   12.0420 C   0  0  0  0  0  0  0  0  0  0  0  0
   43.9643    6.2241   12.7657 H   0  0  0  0  0  0  0  0  0  0  0  0
   47.4300    3.3557   13.5061 H   0  0  0  0  0  0  0  0  0  0  0  0
   48.7796    4.3598   14.0102 H   0  0  0  0  0  0  0  0  0  0  0  0
   48.7937    5.5947   20.0610 H   0  0  0  0  0  0  0  0  0  0  0  0
   47.9035    3.0032   15.8957 H   0  0  0  0  0  0  0  0  0  0  0  0
   46.2871    3.6253   15.6285 H   0  0  0  0  0  0  0  0  0  0  0  0
   50.6693    9.4675   19.7558 H   0  0  0  0  0  0  0  0  0  0  0  0
   47.7212    8.0187   16.9525 H   0  0  0  0  0  0  0  0  0  0  0  0
   46.5664    5.6192   19.7474 H   0  0  0  0  0  0  0  0  0  0  0  0
   46.5962    6.7335   18.4033 H   0  0  0  0  0  0  0  0  0  0  0  0
   50.4879    6.0716   18.0840 H   0  0  0  0  0  0  0  0  0  0  0  0
   49.8061    4.5105   18.4742 H   0  0  0  0  0  0  0  0  0  0  0  0
   45.8674    4.5112   17.6930 H   0  0  0  0  0  0  0  0  0  0  0  0
   47.3513    3.7543   18.2890 H   0  0  0  0  0  0  0  0  0  0  0  0
   49.6468    4.5932   16.1955 H   0  0  0  0  0  0  0  0  0  0  0  0
   49.1677    6.2698   16.1293 H   0  0  0  0  0  0  0  0  0  0  0  0
   48.6246    9.0638   12.7965 H   0  0  0  0  0  0  0  0  0  0  0  0
   48.3967    9.7749   15.3608 H   0  0  0  0  0  0  0  0  0  0  0  0
   51.3311   11.2241   18.1140 H   0  0  0  0  0  0  0  0  0  0  0  0
   43.7267    8.5745   12.1061 H   0  0  0  0  0  0  0  0  0  0  0  0
   47.2712   10.9976   12.0466 H   0  0  0  0  0  0  0  0  0  0  0  0
   44.8246   10.7550   11.7194 H   0  0  0  0  0  0  0  0  0  0  0  0
  2  1  1  0
  3  1  1  0
  4  3  1  0
  5  2  1  0
  6  4  2  0
  7  1  1  0
  8 13  1  0
  9 15  1  0
 10  2  2  0
 11  3  2  0
 12  8  1  0
 13 19  1  0
 14  8  2  0
 15  7  1  0
 16 12  2  0
 17 12  1  0
 18 20  1  0
 19 21  1  0
 20  9  1  0
 21  9  1  0
 22 24  1  0
 23  4  1  0
 24 17  2  0
 25 16  1  0
 26 22  1  0
 27  6  1  0
 28 23  2  0
 29 28  1  0
  5  6  1  0
 18 13  1  0
 29 27  2  0
 25 22  2  0
  5 30  1  0
  7 31  1  0
  7 32  1  0
 13 33  1  0
 15 34  1  0
 15 35  1  0
 16 36  1  0
 17 37  1  0
 18 38  1  0
 18 39  1  0
 19 40  1  0
 19 41  1  0
 20 42  1  0
 20 43  1  0
 21 44  1  0
 21 45  1  0
 23 46  1  0
 24 47  1  0
 25 48  1  0
 27 49  1  0
 28 50  1  0
 29 51  1  0
M  END
> <Uni-Dock RESULT> 
ENERGY=   -4.031  LOWER_BOUND=    3.719  UPPER_BOUND=    7.585
INTER + INTRA:          -4.031
INTER:                  -4.031
INTRA:                   0.000
UNBOUND:                 0.000

$$$$

     RDKit          3D

 51 54  0  0  0  0  0  0  0  0999 V2000
   44.2689    9.7204   11.5477 N   0  0  0  0  0  0  0  0  0  0  0  0
   44.0981    8.3635   11.3262 C   0  0  0  0  0  0  0  0  0  0  0  0
   45.4419   10.2952   12.0281 C   0  0  0  0  0  0  0  0  0  0  0  0
   46.5733    9.3809   12.2813 C   0  0  0  0  0  0  0  0  0  0  0  0
   45.1722    7.5601   11.5731 N   0  0  0  0  0  0  0  0  0  0  0  0
   46.4036    8.0262   12.0264 C   0  0  0  0  0  0  0  0  0  0  0  0
   43.1443   10.6006   11.2362 C   0  0  0  0  0  0  0  0  0  0  0  0
   46.7675   13.2770    6.6591 C   0  0  0  0  0  0  0  0  0  0  0  0
   44.0181   11.2604    8.9159 N   0  0  0  0  0  0  0  0  0  0  0  0
   43.0515    7.8561   10.9235 O   0  0  0  0  0  0  0  0  0  0  0  0
   45.5877   11.4945   12.2578 O   0  0  0  0  0  0  0  0  0  0  0  0
   47.7297   13.2790    7.7897 C   0  0  0  0  0  0  0  0  0  0  0  0
   45.2826   12.9806    6.8630 C   0  0  0  0  0  0  0  0  0  0  0  0
   47.2173   13.5146    5.5367 O   0  0  0  0  0  0  0  0  0  0  0  0
   42.8836   10.7533    9.7182 C   0  0  0  0  0  0  0  0  0  0  0  0
   48.6793   14.3100    7.8370 C   0  0  0  0  0  0  0  0  0  0  0  0
   47.7594   12.2619    8.7451 C   0  0  0  0  0  0  0  0  0  0  0  0
   44.9713   11.4990    6.6701 C   0  0  0  0  0  0  0  0  0  0  0  0
   44.6406   13.5972    8.1103 C   0  0  0  0  0  0  0  0  0  0  0  0
   43.7563   11.0728    7.4857 C   0  0  0  0  0  0  0  0  0  0  0  0
   44.3945   12.6340    9.2779 C   0  0  0  0  0  0  0  0  0  0  0  0
   49.6389   13.3338    9.8130 C   0  0  0  0  0  0  0  0  0  0  0  0
   47.7969    9.8593   12.7621 C   0  0  0  0  0  0  0  0  0  0  0  0
   48.7179   12.2946    9.7601 C   0  0  0  0  0  0  0  0  0  0  0  0
   49.6311   14.3408    8.8576 C   0  0  0  0  0  0  0  0  0  0  0  0
   50.5520   13.3559   10.7951 F   0  0  0  0  0  0  0  0  0  0  0  0
   47.4589    7.1357   12.2278 C   0  0  0  0  0  0  0  0  0  0  0  0
   48.8553    8.9739   12.9593 C   0  0  0  0  0  0  0  0  0  0  0  0
   48.6874    7.6151   12.6869 C   0  0  0  0  0  0  0  0  0  0  0  0
   45.0290    6.5763   11.3891 H   0  0  0  0  0  0  0  0  0  0  0  0
   42.2441   10.1730   11.6957 H   0  0  0  0  0  0  0  0  0  0  0  0
   43.2882   11.5850   11.6946 H   0  0  0  0  0  0  0  0  0  0  0  0
   44.8009   13.5139    6.0264 H   0  0  0  0  0  0  0  0  0  0  0  0
   42.0084   11.4007    9.5753 H   0  0  0  0  0  0  0  0  0  0  0  0
   42.5960    9.7679    9.3303 H   0  0  0  0  0  0  0  0  0  0  0  0
   48.6800   15.0841    7.0734 H   0  0  0  0  0  0  0  0  0  0  0  0
   47.0644   11.4310    8.7147 H   0  0  0  0  0  0  0  0  0  0  0  0
   44.7813   11.3046    5.6043 H   0  0  0  0  0  0  0  0  0  0  0  0
   45.8328   10.8691    6.9287 H   0  0  0  0  0  0  0  0  0  0  0  0
   45.2085   14.4670    8.4620 H   0  0  0  0  0  0  0  0  0  0  0  0
   43.6582   13.9904    7.8112 H   0  0  0  0  0  0  0  0  0  0  0  0
   43.5705   10.0116    7.2775 H   0  0  0  0  0  0  0  0  0  0  0  0
   42.8618   11.6286    7.1636 H   0  0  0  0  0  0  0  0  0  0  0  0
   43.6335   13.1033    9.9177 H   0  0  0  0  0  0  0  0  0  0  0  0
   45.2988   12.5826    9.8915 H   0  0  0  0  0  0  0  0  0  0  0  0
   47.9287   10.9182   12.9774 H   0  0  0  0  0  0  0  0  0  0  0  0
   48.7542   11.5092   10.5071 H   0  0  0  0  0  0  0  0  0  0  0  0
   50.3676   15.1332    8.9088 H   0  0  0  0  0  0  0  0  0  0  0  0
   47.3432    6.0744   12.0286 H   0  0  0  0  0  0  0  0  0  0  0  0
   49.8077    9.3428   13.3254 H   0  0  0  0  0  0  0  0  0  0  0  0
   49.5179    6.9289   12.8347 H   0  0  0  0  0  0  0  0  0  0  0  0
  2  1  1  0
  3  1  1  0
  4  3  1  0
  5  2  1  0
  6  4  2  0
  7  1  1  0
  8 13  1  0
  9 15  1  0
 10  2  2  0
 11  3  2  0
 12  8  1  0
 13 19  1  0
 14  8  2  0
 15  7  1  0
 16 12  2  0
 17 12  1  0
 18 20  1  0
 19 21  1  0
 20  9  1  0
 21  9  1  0
 22 24  1  0
 23  4  1  0
 24 17  2  0
 25 16  1  0
 26 22  1  0
 27  6  1  0
 28 23  2  0
 29 28  1  0
  5  6  1  0
 18 13  1  0
 29 27  2  0
 25 22  2  0
  5 30  1  0
  7 31  1  0
  7 32  1  0
 13 33  1  0
 15 34  1  0
 15 35  1  0
 16 36  1  0
 17 37  1  0
 18 38  1  0
 18 39  1  0
 19 40  1  0
 19 41  1  0
 20 42  1  0
 20 43  1  0
 21 44  1  0
 21 45  1  0
 23 46  1  0
 24 47  1  0
 25 48  1  0
 27 49  1  0
 28 50  1  0
 29 51  1  0
M  END
> <Uni-Dock RESULT> 
ENERGY=   -3.949  LOWER_BOUND=    3.777  UPPER_BOUND=    6.220
INTER + INTRA:          -3.949
INTER:                  -3.949
INTRA:                   0.000
UNBOUND:                 0.000

$$$$

     RDKit          3D

 51 54  0  0  0  0  0  0  0  0999 V2000
   53.7040    6.9234   19.1864 N   0  0  0  0  0  0  0  0  0  0  0  0
   54.2881    6.8729   20.4417 C   0  0  0  0  0  0  0  0  0  0  0  0
   53.5288    5.8191   18.3577 C   0  0  0  0  0  0  0  0  0  0  0  0
   53.9755    4.5151   18.8870 C   0  0  0  0  0  0  0  0  0  0  0  0
   54.6829    5.6458   20.8872 N   0  0  0  0  0  0  0  0  0  0  0  0
   54.5310    4.4685   20.1590 C   0  0  0  0  0  0  0  0  0  0  0  0
   53.2266    8.2230   18.7175 C   0  0  0  0  0  0  0  0  0  0  0  0
   47.2629    5.8429   18.8183 C   0  0  0  0  0  0  0  0  0  0  0  0
   50.7892    7.8254   19.4130 N   0  0  0  0  0  0  0  0  0  0  0  0
   54.4627    7.8555   21.1621 O   0  0  0  0  0  0  0  0  0  0  0  0
   53.0413    5.8640   17.2295 O   0  0  0  0  0  0  0  0  0  0  0  0
   47.9711    4.7457   18.1119 C   0  0  0  0  0  0  0  0  0  0  0  0
   47.9155    7.2038   19.0560 C   0  0  0  0  0  0  0  0  0  0  0  0
   46.1216    5.6093   19.2200 O   0  0  0  0  0  0  0  0  0  0  0  0
   51.9650    8.7214   19.4629 C   0  0  0  0  0  0  0  0  0  0  0  0
   47.2477    4.0042   17.1665 C   0  0  0  0  0  0  0  0  0  0  0  0
   49.2882    4.3942   18.4116 C   0  0  0  0  0  0  0  0  0  0  0  0
   48.6207    7.2629   20.4082 C   0  0  0  0  0  0  0  0  0  0  0  0
   48.7433    7.7628   17.8939 C   0  0  0  0  0  0  0  0  0  0  0  0
   49.7818    8.2501   20.3898 C   0  0  0  0  0  0  0  0  0  0  0  0
   50.2653    7.6590   18.0502 C   0  0  0  0  0  0  0  0  0  0  0  0
   49.1696    2.6097   16.7919 C   0  0  0  0  0  0  0  0  0  0  0  0
   53.8411    3.3438   18.1337 C   0  0  0  0  0  0  0  0  0  0  0  0
   49.8865    3.3228   17.7451 C   0  0  0  0  0  0  0  0  0  0  0  0
   47.8532    2.9382   16.4989 C   0  0  0  0  0  0  0  0  0  0  0  0
   49.7568    1.5852   16.1559 F   0  0  0  0  0  0  0  0  0  0  0  0
   54.9394    3.2503   20.7032 C   0  0  0  0  0  0  0  0  0  0  0  0
   54.2427    2.1241   18.6759 C   0  0  0  0  0  0  0  0  0  0  0  0
   54.7858    2.0776   19.9611 C   0  0  0  0  0  0  0  0  0  0  0  0
   55.0916    5.6312   21.8119 H   0  0  0  0  0  0  0  0  0  0  0  0
   54.0288    8.9546   18.8773 H   0  0  0  0  0  0  0  0  0  0  0  0
   53.0411    8.1977   17.6382 H   0  0  0  0  0  0  0  0  0  0  0  0
   47.0542    7.8895   19.1211 H   0  0  0  0  0  0  0  0  0  0  0  0
   51.6948    9.7116   19.0731 H   0  0  0  0  0  0  0  0  0  0  0  0
   52.2403    8.8762   20.5138 H   0  0  0  0  0  0  0  0  0  0  0  0
   46.2105    4.2543   16.9571 H   0  0  0  0  0  0  0  0  0  0  0  0
   49.8618    4.9224   19.1641 H   0  0  0  0  0  0  0  0  0  0  0  0
   47.8981    7.5644   21.1806 H   0  0  0  0  0  0  0  0  0  0  0  0
   48.9790    6.2727   20.7196 H   0  0  0  0  0  0  0  0  0  0  0  0
   48.4386    7.3195   16.9383 H   0  0  0  0  0  0  0  0  0  0  0  0
   48.5056    8.8332   17.8091 H   0  0  0  0  0  0  0  0  0  0  0  0
   50.2216    8.2663   21.3949 H   0  0  0  0  0  0  0  0  0  0  0  0
   49.4188    9.2680   20.1775 H   0  0  0  0  0  0  0  0  0  0  0  0
   50.7032    8.3937   17.3594 H   0  0  0  0  0  0  0  0  0  0  0  0
   50.5934    6.6823   17.6823 H   0  0  0  0  0  0  0  0  0  0  0  0
   53.4201    3.3787   17.1304 H   0  0  0  0  0  0  0  0  0  0  0  0
   50.9080    3.0370   17.9704 H   0  0  0  0  0  0  0  0  0  0  0  0
   47.3078    2.3595   15.7635 H   0  0  0  0  0  0  0  0  0  0  0  0
   55.3712    3.1970   21.6984 H   0  0  0  0  0  0  0  0  0  0  0  0
   54.1333    1.2129   18.0971 H   0  0  0  0  0  0  0  0  0  0  0  0
   55.0907    1.1230   20.3834 H   0  0  0  0  0  0  0  0  0  0  0  0
  2  1  1  0
  3  1  1  0
  4  3  1  0
  5  2  1  0
  6  4  2  0
  7  1  1  0
  8 13  1  0
  9 15  1  0
 10  2  2  0
 11  3  2  0
 12  8  1  0
 13 19  1  0
 14  8  2  0
 15  7  1  0
 16 12  2  0
 17 12  1  0
 18 20  1  0
 19 21  1  0
 20  9  1  0
 21  9  1  0
 22 24  1  0
 23  4  1  0
 24 17  2  0
 25 16  1  0
 26 22  1  0
 27  6  1  0
 28 23  2  0
 29 28  1  0
  5  6  1  0
 18 13  1  0
 29 27  2  0
 25 22  2  0
  5 30  1  0
  7 31  1  0
  7 32  1  0
 13 33  1  0
 15 34  1  0
 15 35  1  0
 16 36  1  0
 17 37  1  0
 18 38  1  0
 18 39  1  0
 19 40  1  0
 19 41  1  0
 20 42  1  0
 20 43  1  0
 21 44  1  0
 21 45  1  0
 23 46  1  0
 24 47  1  0
 25 48  1  0
 27 49  1  0
 28 50  1  0
 29 51  1  0
M  END
> <Uni-Dock RESULT> 
ENERGY=   -3.909  LOWER_BOUND=    6.946  UPPER_BOUND=    8.699
INTER + INTRA:          -3.909
INTER:                  -3.909
INTRA:                   0.000
UNBOUND:                 0.000

$$$$

     RDKit          3D

 51 54  0  0  0  0  0  0  0  0999 V2000
   49.4748    4.8465   18.6518 N   0  0  0  0  0  0  0  0  0  0  0  0
   48.5262    3.8370   18.6302 C   0  0  0  0  0  0  0  0  0  0  0  0
   49.7005    5.7334   17.6032 C   0  0  0  0  0  0  0  0  0  0  0  0
   48.8386    5.5870   16.4134 C   0  0  0  0  0  0  0  0  0  0  0  0
   47.7536    3.7432   17.5102 N   0  0  0  0  0  0  0  0  0  0  0  0
   47.8689    4.5927   16.4128 C   0  0  0  0  0  0  0  0  0  0  0  0
   50.2737    4.9942   19.8669 C   0  0  0  0  0  0  0  0  0  0  0  0
   47.5463   10.7451   20.7204 C   0  0  0  0  0  0  0  0  0  0  0  0
   48.8220    6.8628   20.8586 N   0  0  0  0  0  0  0  0  0  0  0  0
   48.3454    3.0397   19.5503 O   0  0  0  0  0  0  0  0  0  0  0  0
   50.5635    6.6097   17.6043 O   0  0  0  0  0  0  0  0  0  0  0  0
   47.9170   10.8411   19.2860 C   0  0  0  0  0  0  0  0  0  0  0  0
   48.0730    9.6260   21.6175 C   0  0  0  0  0  0  0  0  0  0  0  0
   46.7811   11.6038   21.1628 O   0  0  0  0  0  0  0  0  0  0  0  0
   49.4715    5.5504   21.0680 C   0  0  0  0  0  0  0  0  0  0  0  0
   48.2366   12.1086   18.7778 C   0  0  0  0  0  0  0  0  0  0  0  0
   47.8846    9.7374   18.4323 C   0  0  0  0  0  0  0  0  0  0  0  0
   47.1184    8.4357   21.6540 C   0  0  0  0  0  0  0  0  0  0  0  0
   49.5432    9.2426   21.4184 C   0  0  0  0  0  0  0  0  0  0  0  0
   47.8600    7.1333   21.9313 C   0  0  0  0  0  0  0  0  0  0  0  0
   49.7935    7.9439   20.6423 C   0  0  0  0  0  0  0  0  0  0  0  0
   48.5398   11.1543   16.5925 C   0  0  0  0  0  0  0  0  0  0  0  0
   48.9830    6.4306   15.3067 C   0  0  0  0  0  0  0  0  0  0  0  0
   48.2001    9.8987   17.0815 C   0  0  0  0  0  0  0  0  0  0  0  0
   48.5572   12.2626   17.4280 C   0  0  0  0  0  0  0  0  0  0  0  0
   48.8446   11.2955   15.2940 F   0  0  0  0  0  0  0  0  0  0  0  0
   47.0179    4.4418   15.3173 C   0  0  0  0  0  0  0  0  0  0  0  0
   48.1313    6.2868   14.2128 C   0  0  0  0  0  0  0  0  0  0  0  0
   47.1467    5.2972   14.2213 C   0  0  0  0  0  0  0  0  0  0  0  0
   47.0579    3.0096   17.5238 H   0  0  0  0  0  0  0  0  0  0  0  0
   50.6561    4.0028   20.1417 H   0  0  0  0  0  0  0  0  0  0  0  0
   51.1507    5.6223   19.6764 H   0  0  0  0  0  0  0  0  0  0  0  0
   48.0510   10.0767   22.6237 H   0  0  0  0  0  0  0  0  0  0  0  0
   50.1349    5.5990   21.9415 H   0  0  0  0  0  0  0  0  0  0  0  0
   48.6968    4.8147   21.3185 H   0  0  0  0  0  0  0  0  0  0  0  0
   48.2280   12.9756   19.4339 H   0  0  0  0  0  0  0  0  0  0  0  0
   47.6045    8.7519   18.7852 H   0  0  0  0  0  0  0  0  0  0  0  0
   46.3646    8.5999   22.4380 H   0  0  0  0  0  0  0  0  0  0  0  0
   46.5480    8.3476   20.7198 H   0  0  0  0  0  0  0  0  0  0  0  0
   50.1100   10.0622   20.9604 H   0  0  0  0  0  0  0  0  0  0  0  0
   49.9826    9.1049   22.4170 H   0  0  0  0  0  0  0  0  0  0  0  0
   47.1155    6.3285   21.9752 H   0  0  0  0  0  0  0  0  0  0  0  0
   48.3540    7.1731   22.9148 H   0  0  0  0  0  0  0  0  0  0  0  0
   50.8148    7.6212   20.8902 H   0  0  0  0  0  0  0  0  0  0  0  0
   49.8113    8.1687   19.5717 H   0  0  0  0  0  0  0  0  0  0  0  0
   49.7519    7.2012   15.2975 H   0  0  0  0  0  0  0  0  0  0  0  0
   48.1759    9.0503   16.4065 H   0  0  0  0  0  0  0  0  0  0  0  0
   48.8100   13.2347   17.0229 H   0  0  0  0  0  0  0  0  0  0  0  0
   46.2517    3.6721   15.3040 H   0  0  0  0  0  0  0  0  0  0  0  0
   48.2360    6.9441   13.3559 H   0  0  0  0  0  0  0  0  0  0  0  0
   46.4792    5.1934   13.3692 H   0  0  0  0  0  0  0  0  0  0  0  0
  2  1  1  0
  3  1  1  0
  4  3  1  0
  5  2  1  0
  6  4  2  0
  7  1  1  0
  8 13  1  0
  9 15  1  0
 10  2  2  0
 11  3  2  0
 12  8  1  0
 13 19  1  0
 14  8  2  0
 15  7  1  0
 16 12  2  0
 17 12  1  0
 18 20  1  0
 19 21  1  0
 20  9  1  0
 21  9  1  0
 22 24  1  0
 23  4  1  0
 24 17  2  0
 25 16  1  0
 26 22  1  0
 27  6  1  0
 28 23  2  0
 29 28  1  0
  5  6  1  0
 18 13  1  0
 29 27  2  0
 25 22  2  0
  5 30  1  0
  7 31  1  0
  7 32  1  0
 13 33  1  0
 15 34  1  0
 15 35  1  0
 16 36  1  0
 17 37  1  0
 18 38  1  0
 18 39  1  0
 19 40  1  0
 19 41  1  0
 20 42  1  0
 20 43  1  0
 21 44  1  0
 21 45  1  0
 23 46  1  0
 24 47  1  0
 25 48  1  0
 27 49  1  0
 28 50  1  0
 29 51  1  0
M  END
> <Uni-Dock RESULT> 
ENERGY=   -3.892  LOWER_BOUND=    5.308  UPPER_BOUND=    7.803
INTER + INTRA:          -3.892
INTER:                  -3.892
INTRA:                   0.000
UNBOUND:                 0.000

$$$$

     RDKit          3D

 51 54  0  0  0  0  0  0  0  0999 V2000
   49.1641   10.5746   15.8963 N   0  0  0  0  0  0  0  0  0  0  0  0
   50.4071   11.0848   15.5588 C   0  0  0  0  0  0  0  0  0  0  0  0
   48.5103    9.5698   15.1892 C   0  0  0  0  0  0  0  0  0  0  0  0
   49.2229    9.0064   14.0253 C   0  0  0  0  0  0  0  0  0  0  0  0
   51.0260   10.5310   14.4769 N   0  0  0  0  0  0  0  0  0  0  0  0
   50.4823    9.5017   13.7128 C   0  0  0  0  0  0  0  0  0  0  0  0
   48.5121   11.1204   17.0852 C   0  0  0  0  0  0  0  0  0  0  0  0
   49.0238    5.3159   19.7844 C   0  0  0  0  0  0  0  0  0  0  0  0
   49.2829    9.2339   18.6440 N   0  0  0  0  0  0  0  0  0  0  0  0
   50.9719   11.9898   16.1728 O   0  0  0  0  0  0  0  0  0  0  0  0
   47.3927    9.1367   15.4651 O   0  0  0  0  0  0  0  0  0  0  0  0
   48.4812    4.9397   18.4546 C   0  0  0  0  0  0  0  0  0  0  0  0
   49.0504    6.7660   20.2649 C   0  0  0  0  0  0  0  0  0  0  0  0
   49.4669    4.4072   20.4890 O   0  0  0  0  0  0  0  0  0  0  0  0
   49.1876   10.6914   18.4101 C   0  0  0  0  0  0  0  0  0  0  0  0
   47.6636    3.8026   18.3811 C   0  0  0  0  0  0  0  0  0  0  0  0
   48.8169    5.6314   17.2897 C   0  0  0  0  0  0  0  0  0  0  0  0
   50.3718    7.4492   19.9239 C   0  0  0  0  0  0  0  0  0  0  0  0
   47.8101    7.6041   19.9369 C   0  0  0  0  0  0  0  0  0  0  0  0
   50.1956    8.9539   19.7565 C   0  0  0  0  0  0  0  0  0  0  0  0
   47.9651    8.5979   18.7793 C   0  0  0  0  0  0  0  0  0  0  0  0
   47.4814    4.0892   16.0014 C   0  0  0  0  0  0  0  0  0  0  0  0
   48.6533    7.9905   13.2501 C   0  0  0  0  0  0  0  0  0  0  0  0
   48.3110    5.2024   16.0608 C   0  0  0  0  0  0  0  0  0  0  0  0
   47.1558    3.3822   17.1506 C   0  0  0  0  0  0  0  0  0  0  0  0
   46.9988    3.6895   14.8155 F   0  0  0  0  0  0  0  0  0  0  0  0
   51.1973    8.9749   12.6365 C   0  0  0  0  0  0  0  0  0  0  0  0
   49.3666    7.4577   12.1776 C   0  0  0  0  0  0  0  0  0  0  0  0
   50.6390    7.9460   11.8754 C   0  0  0  0  0  0  0  0  0  0  0  0
   51.9385   10.9082   14.2594 H   0  0  0  0  0  0  0  0  0  0  0  0
   48.5536   12.2152   17.0200 H   0  0  0  0  0  0  0  0  0  0  0  0
   47.4504   10.8512   17.0993 H   0  0  0  0  0  0  0  0  0  0  0  0
   49.0215    6.6693   21.3631 H   0  0  0  0  0  0  0  0  0  0  0  0
   48.6578   11.1681   19.2452 H   0  0  0  0  0  0  0  0  0  0  0  0
   50.2012   11.1119   18.4169 H   0  0  0  0  0  0  0  0  0  0  0  0
   47.4296    3.2417   19.2827 H   0  0  0  0  0  0  0  0  0  0  0  0
   49.4769    6.4907   17.3073 H   0  0  0  0  0  0  0  0  0  0  0  0
   51.0980    7.2544   20.7266 H   0  0  0  0  0  0  0  0  0  0  0  0
   50.8232    7.0243   19.0176 H   0  0  0  0  0  0  0  0  0  0  0  0
   46.9339    6.9678   19.7632 H   0  0  0  0  0  0  0  0  0  0  0  0
   47.5697    8.1954   20.8324 H   0  0  0  0  0  0  0  0  0  0  0  0
   51.1828    9.3837   19.5451 H   0  0  0  0  0  0  0  0  0  0  0  0
   49.8381    9.4067   20.6946 H   0  0  0  0  0  0  0  0  0  0  0  0
   47.1686    9.3462   18.8986 H   0  0  0  0  0  0  0  0  0  0  0  0
   47.7431    8.0842   17.8392 H   0  0  0  0  0  0  0  0  0  0  0  0
   47.6601    7.6104   13.4829 H   0  0  0  0  0  0  0  0  0  0  0  0
   48.5662    5.7287   15.1477 H   0  0  0  0  0  0  0  0  0  0  0  0
   46.5199    2.5084   17.0797 H   0  0  0  0  0  0  0  0  0  0  0  0
   52.1850    9.3484   12.3826 H   0  0  0  0  0  0  0  0  0  0  0  0
   48.9306    6.6649   11.5788 H   0  0  0  0  0  0  0  0  0  0  0  0
   51.1954    7.5223   11.0427 H   0  0  0  0  0  0  0  0  0  0  0  0
  2  1  1  0
  3  1  1  0
  4  3  1  0
  5  2  1  0
  6  4  2  0
  7  1  1  0
  8 13  1  0
  9 15  1  0
 10  2  2  0
 11  3  2  0
 12  8  1  0
 13 19  1  0
 14  8  2  0
 15  7  1  0
 16 12  2  0
 17 12  1  0
 18 20  1  0
 19 21  1  0
 20  9  1  0
 21  9  1  0
 22 24  1  0
 23  4  1  0
 24 17  2  0
 25 16  1  0
 26 22  1  0
 27  6  1  0
 28 23  2  0
 29 28  1  0
  5  6  1  0
 18 13  1  0
 29 27  2  0
 25 22  2  0
  5 30  1  0
  7 31  1  0
  7 32  1  0
 13 33  1  0
 15 34  1  0
 15 35  1  0
 16 36  1  0
 17 37  1  0
 18 38  1  0
 18 39  1  0
 19 40  1  0
 19 41  1  0
 20 42  1  0
 20 43  1  0
 21 44  1  0
 21 45  1  0
 23 46  1  0
 24 47  1  0
 25 48  1  0
 27 49  1  0
 28 50  1  0
 29 51  1  0
M  END
> <Uni-Dock RESULT> 
ENERGY=   -3.859  LOWER_BOUND=    3.894  UPPER_BOUND=    7.316
INTER + INTRA:          -3.859
INTER:                  -3.859
INTRA:                   0.000
UNBOUND:                 0.000

$$$$

     RDKit          3D

 51 54  0  0  0  0  0  0  0  0999 V2000
   45.2397   13.1327   11.2203 N   0  0  0  0  0  0  0  0  0  0  0  0
   46.3223   12.8066   12.0210 C   0  0  0  0  0  0  0  0  0  0  0  0
   44.3312   12.2076   10.7145 C   0  0  0  0  0  0  0  0  0  0  0  0
   44.5395   10.7965   11.0960 C   0  0  0  0  0  0  0  0  0  0  0  0
   46.4714   11.4907   12.3473 N   0  0  0  0  0  0  0  0  0  0  0  0
   45.6088   10.4825   11.9249 C   0  0  0  0  0  0  0  0  0  0  0  0
   45.0354   14.5457   10.9066 C   0  0  0  0  0  0  0  0  0  0  0  0
   39.5285   14.2733   14.1990 C   0  0  0  0  0  0  0  0  0  0  0  0
   43.2960   14.9313   12.7528 N   0  0  0  0  0  0  0  0  0  0  0  0
   47.1371   13.6247   12.4472 O   0  0  0  0  0  0  0  0  0  0  0  0
   43.3882   12.4878    9.9765 O   0  0  0  0  0  0  0  0  0  0  0  0
   39.3943   13.0542   13.3624 C   0  0  0  0  0  0  0  0  0  0  0  0
   40.6069   15.3220   13.9309 C   0  0  0  0  0  0  0  0  0  0  0  0
   38.7370   14.4041   15.1344 O   0  0  0  0  0  0  0  0  0  0  0  0
   44.5529   15.3819   12.1163 C   0  0  0  0  0  0  0  0  0  0  0  0
   38.1021   12.6599   12.9859 C   0  0  0  0  0  0  0  0  0  0  0  0
   40.4919   12.2669   13.0107 C   0  0  0  0  0  0  0  0  0  0  0  0
   41.8705   15.0524   14.7433 C   0  0  0  0  0  0  0  0  0  0  0  0
   40.8692   15.6529   12.4578 C   0  0  0  0  0  0  0  0  0  0  0  0
   43.1104   15.5983   14.0450 C   0  0  0  0  0  0  0  0  0  0  0  0
   42.1388   15.0406   11.8537 C   0  0  0  0  0  0  0  0  0  0  0  0
   39.0156   10.7366   11.8702 C   0  0  0  0  0  0  0  0  0  0  0  0
   43.6803    9.7897   10.6427 C   0  0  0  0  0  0  0  0  0  0  0  0
   40.2974   11.1057   12.2598 C   0  0  0  0  0  0  0  0  0  0  0  0
   37.9146   11.5015   12.2300 C   0  0  0  0  0  0  0  0  0  0  0  0
   38.8425    9.6211   11.1459 F   0  0  0  0  0  0  0  0  0  0  0  0
   45.8212    9.1638   12.3286 C   0  0  0  0  0  0  0  0  0  0  0  0
   43.8857    8.4721   11.0482 C   0  0  0  0  0  0  0  0  0  0  0  0
   44.9516    8.1613   11.8946 C   0  0  0  0  0  0  0  0  0  0  0  0
   47.2588   11.2790   12.9452 H   0  0  0  0  0  0  0  0  0  0  0  0
   45.9943   14.9578   10.5674 H   0  0  0  0  0  0  0  0  0  0  0  0
   44.3375   14.6565   10.0696 H   0  0  0  0  0  0  0  0  0  0  0  0
   40.1655   16.2481   14.3355 H   0  0  0  0  0  0  0  0  0  0  0  0
   44.4563   16.4297   11.8030 H   0  0  0  0  0  0  0  0  0  0  0  0
   45.3502   15.3651   12.8701 H   0  0  0  0  0  0  0  0  0  0  0  0
   37.2426   13.2529   13.2889 H   0  0  0  0  0  0  0  0  0  0  0  0
   41.4988   12.5230   13.3183 H   0  0  0  0  0  0  0  0  0  0  0  0
   41.7723   15.5230   15.7325 H   0  0  0  0  0  0  0  0  0  0  0  0
   41.9987   13.9807   14.9455 H   0  0  0  0  0  0  0  0  0  0  0  0
   40.0038   15.4013   11.8329 H   0  0  0  0  0  0  0  0  0  0  0  0
   40.9770   16.7447   12.3828 H   0  0  0  0  0  0  0  0  0  0  0  0
   43.9729   15.3997   14.6935 H   0  0  0  0  0  0  0  0  0  0  0  0
   43.0369   16.6908   13.9276 H   0  0  0  0  0  0  0  0  0  0  0  0
   42.3795   15.6340   10.9600 H   0  0  0  0  0  0  0  0  0  0  0  0
   41.9068   14.0377   11.4832 H   0  0  0  0  0  0  0  0  0  0  0  0
   42.8502   10.0301    9.9808 H   0  0  0  0  0  0  0  0  0  0  0  0
   41.1409   10.4832   11.9823 H   0  0  0  0  0  0  0  0  0  0  0  0
   36.9228   11.1873   11.9287 H   0  0  0  0  0  0  0  0  0  0  0  0
   46.6501    8.9032   12.9803 H   0  0  0  0  0  0  0  0  0  0  0  0
   43.2170    7.6900   10.7042 H   0  0  0  0  0  0  0  0  0  0  0  0
   45.1038    7.1333   12.2148 H   0  0  0  0  0  0  0  0  0  0  0  0
  2  1  1  0
  3  1  1  0
  4  3  1  0
  5  2  1  0
  6  4  2  0
  7  1  1  0
  8 13  1  0
  9 15  1  0
 10  2  2  0
 11  3  2  0
 12  8  1  0
 13 19  1  0
 14  8  2  0
 15  7  1  0
 16 12  2  0
 17 12  1  0
 18 20  1  0
 19 21  1  0
 20  9  1  0
 21  9  1  0
 22 24  1  0
 23  4  1  0
 24 17  2  0
 25 16  1  0
 26 22  1  0
 27  6  1  0
 28 23  2  0
 29 28  1  0
  5  6  1  0
 18 13  1  0
 29 27  2  0
 25 22  2  0
  5 30  1  0
  7 31  1  0
  7 32  1  0
 13 33  1  0
 15 34  1  0
 15 35  1  0
 16 36  1  0
 17 37  1  0
 18 38  1  0
 18 39  1  0
 19 40  1  0
 19 41  1  0
 20 42  1  0
 20 43  1  0
 21 44  1  0
 21 45  1  0
 23 46  1  0
 24 47  1  0
 25 48  1  0
 27 49  1  0
 28 50  1  0
 29 51  1  0
M  END
> <Uni-Dock RESULT> 
ENERGY=   -3.770  LOWER_BOUND=    4.255  UPPER_BOUND=    6.568
INTER + INTRA:          -3.770
INTER:                  -3.770
INTRA:                   0.000
UNBOUND:                 0.000

$$$$

     RDKit          3D

 51 54  0  0  0  0  0  0  0  0999 V2000
   50.1196   10.5820   17.1310 N   0  0  0  0  0  0  0  0  0  0  0  0
   49.2999   11.3684   16.3379 C   0  0  0  0  0  0  0  0  0  0  0  0
   49.9761   10.4390   18.5080 C   0  0  0  0  0  0  0  0  0  0  0  0
   48.8503   11.1590   19.1358 C   0  0  0  0  0  0  0  0  0  0  0  0
   48.2731   12.0122   16.9635 N   0  0  0  0  0  0  0  0  0  0  0  0
   48.0144   11.9198   18.3287 C   0  0  0  0  0  0  0  0  0  0  0  0
   51.1915    9.8427   16.4668 C   0  0  0  0  0  0  0  0  0  0  0  0
   48.2454    4.4070   18.2026 C   0  0  0  0  0  0  0  0  0  0  0  0
   49.8787    7.6438   16.3121 N   0  0  0  0  0  0  0  0  0  0  0  0
   49.4443   11.5109   15.1239 O   0  0  0  0  0  0  0  0  0  0  0  0
   50.7210    9.7688   19.2211 O   0  0  0  0  0  0  0  0  0  0  0  0
   48.2156    5.1442   19.4909 C   0  0  0  0  0  0  0  0  0  0  0  0
   49.0938    4.8777   17.0223 C   0  0  0  0  0  0  0  0  0  0  0  0
   47.5445    3.3972   18.1156 O   0  0  0  0  0  0  0  0  0  0  0  0
   50.6831    8.6630   15.6035 C   0  0  0  0  0  0  0  0  0  0  0  0
   48.2676    4.3931   20.6741 C   0  0  0  0  0  0  0  0  0  0  0  0
   48.0662    6.5306   19.5532 C   0  0  0  0  0  0  0  0  0  0  0  0
   48.3009    5.7819   16.0825 C   0  0  0  0  0  0  0  0  0  0  0  0
   50.4900    5.4060   17.3683 C   0  0  0  0  0  0  0  0  0  0  0  0
   49.2107    6.7615   15.3506 C   0  0  0  0  0  0  0  0  0  0  0  0
   50.6511    6.9307   17.3390 C   0  0  0  0  0  0  0  0  0  0  0  0
   48.0766    6.4131   21.9631 C   0  0  0  0  0  0  0  0  0  0  0  0
   48.6176   11.0786   20.5130 C   0  0  0  0  0  0  0  0  0  0  0  0
   47.9992    7.1635   20.7962 C   0  0  0  0  0  0  0  0  0  0  0  0
   48.2064    5.0320   21.9138 C   0  0  0  0  0  0  0  0  0  0  0  0
   48.0149    7.0333   23.1508 F   0  0  0  0  0  0  0  0  0  0  0  0
   46.9242   12.5921   18.8824 C   0  0  0  0  0  0  0  0  0  0  0  0
   47.5264   11.7441   21.0691 C   0  0  0  0  0  0  0  0  0  0  0  0
   46.6782   12.4950   20.2533 C   0  0  0  0  0  0  0  0  0  0  0  0
   47.6791   12.5671   16.3623 H   0  0  0  0  0  0  0  0  0  0  0  0
   51.7258   10.5409   15.8098 H   0  0  0  0  0  0  0  0  0  0  0  0
   51.9234    9.4855   17.1994 H   0  0  0  0  0  0  0  0  0  0  0  0
   49.2936    3.9461   16.4669 H   0  0  0  0  0  0  0  0  0  0  0  0
   51.5447    8.1855   15.1186 H   0  0  0  0  0  0  0  0  0  0  0  0
   50.0756    9.0835   14.7921 H   0  0  0  0  0  0  0  0  0  0  0  0
   48.3484    3.3098   20.6276 H   0  0  0  0  0  0  0  0  0  0  0  0
   47.9845    7.1357   18.6580 H   0  0  0  0  0  0  0  0  0  0  0  0
   47.7672    5.1614   15.3477 H   0  0  0  0  0  0  0  0  0  0  0  0
   47.5166    6.3320   16.6190 H   0  0  0  0  0  0  0  0  0  0  0  0
   50.8355    5.0162   18.3334 H   0  0  0  0  0  0  0  0  0  0  0  0
   51.1872    4.9991   16.6217 H   0  0  0  0  0  0  0  0  0  0  0  0
   48.5845    7.3556   14.6732 H   0  0  0  0  0  0  0  0  0  0  0  0
   49.9393    6.2191   14.7279 H   0  0  0  0  0  0  0  0  0  0  0  0
   51.7277    7.1314   17.2428 H   0  0  0  0  0  0  0  0  0  0  0  0
   50.3657    7.3361   18.3142 H   0  0  0  0  0  0  0  0  0  0  0  0
   49.2796   10.4955   21.1509 H   0  0  0  0  0  0  0  0  0  0  0  0
   47.8801    8.2396   20.8590 H   0  0  0  0  0  0  0  0  0  0  0  0
   48.2495    4.4649   22.8355 H   0  0  0  0  0  0  0  0  0  0  0  0
   46.2588   13.1871   18.2636 H   0  0  0  0  0  0  0  0  0  0  0  0
   47.3391   11.6780   22.1358 H   0  0  0  0  0  0  0  0  0  0  0  0
   45.8235   13.0064   20.6899 H   0  0  0  0  0  0  0  0  0  0  0  0
  2  1  1  0
  3  1  1  0
  4  3  1  0
  5  2  1  0
  6  4  2  0
  7  1  1  0
  8 13  1  0
  9 15  1  0
 10  2  2  0
 11  3  2  0
 12  8  1  0
 13 19  1  0
 14  8  2  0
 15  7  1  0
 16 12  2  0
 17 12  1  0
 18 20  1  0
 19 21  1  0
 20  9  1  0
 21  9  1  0
 22 24  1  0
 23  4  1  0
 24 17  2  0
 25 16  1  0
 26 22  1  0
 27  6  1  0
 28 23  2  0
 29 28  1  0
  5  6  1  0
 18 13  1  0
 29 27  2  0
 25 22  2  0
  5 30  1  0
  7 31  1  0
  7 32  1  0
 13 33  1  0
 15 34  1  0
 15 35  1  0
 16 36  1  0
 17 37  1  0
 18 38  1  0
 18 39  1  0
 19 40  1  0
 19 41  1  0
 20 42  1  0
 20 43  1  0
 21 44  1  0
 21 45  1  0
 23 46  1  0
 24 47  1  0
 25 48  1  0
 27 49  1  0
 28 50  1  0
 29 51  1  0
M  END
> <Uni-Dock RESULT> 
ENERGY=   -3.746  LOWER_BOUND=    5.270  UPPER_BOUND=    8.681
INTER + INTRA:          -3.746
INTER:                  -3.746
INTRA:                   0.000
UNBOUND:                 0.000

$$$$
