
     RDKit          3D

 63 65  0  0  0  0  0  0  0  0999 V2000
    4.3950    0.5760   -0.0299 C   0  0  0  0  0  0  0  0  0  0  0  0
    5.0840   -0.6887   -0.1461 C   0  0  0  0  0  0  0  0  0  0  0  0
    4.3580   -1.9030   -0.0462 C   0  0  0  0  0  0  0  0  0  0  0  0
    2.9878    0.6076    0.1913 C   0  0  0  0  0  0  0  0  0  0  0  0
    2.2735   -0.6136    0.2961 C   0  0  0  0  0  0  0  0  0  0  0  0
    5.1894    4.3591   -0.1342 C   0  0  0  0  0  0  0  0  0  0  0  0
    2.9695   -1.8290    0.1710 C   0  0  0  0  0  0  0  0  0  0  0  0
    5.0641    1.8285   -0.1279 C   0  0  0  0  0  0  0  0  0  0  0  0
    5.0440   -3.1445   -0.1661 C   0  0  0  0  0  0  0  0  0  0  0  0
    4.4109    3.0694   -0.0319 C   0  0  0  0  0  0  0  0  0  0  0  0
    6.4184   -3.2056   -0.3787 C   0  0  0  0  0  0  0  0  0  0  0  0
    2.3518    1.8691    0.3025 C   0  0  0  0  0  0  0  0  0  0  0  0
    6.4843   -0.7982   -0.3625 C   0  0  0  0  0  0  0  0  0  0  0  0
    7.1328   -2.0281   -0.4745 C   0  0  0  0  0  0  0  0  0  0  0  0
    0.7618   -0.7157    0.5167 C   0  0  2  0  0  0  0  0  0  0  0  0
   -0.0331   -0.3279   -0.7422 C   0  0  0  0  0  0  0  0  0  0  0  0
    3.0422    3.0761    0.1941 C   0  0  0  0  0  0  0  0  0  0  0  0
    4.4369    5.4134   -0.5565 F   0  0  0  0  0  0  0  0  0  0  0  0
    5.7246    4.7357    1.0596 F   0  0  0  0  0  0  0  0  0  0  0  0
    6.2353    4.2775   -1.0056 F   0  0  0  0  0  0  0  0  0  0  0  0
    4.2217   -4.6705   -0.0577 Cl  0  0  0  0  0  0  0  0  0  0  0  0
   -1.4500   -0.9343   -0.7980 C   0  0  0  0  0  0  0  0  0  0  0  0
   -2.3831   -0.5065    0.2501 N   0  0  0  0  0  0  0  0  0  0  0  0
    8.8324   -2.0798   -0.7336 Cl  0  0  0  0  0  0  0  0  0  0  0  0
    0.3878    0.0647    1.6490 O   0  0  0  0  0  0  0  0  0  0  0  0
   -2.6256    0.9435    0.3049 C   0  0  0  0  0  0  0  0  0  0  0  0
   -3.5887   -1.3473    0.2911 C   0  0  0  0  0  0  0  0  0  0  0  0
   -2.9340    1.7159   -0.9917 C   0  0  0  0  0  0  0  0  0  0  0  0
   -4.3071   -1.3065    1.6507 C   0  0  0  0  0  0  0  0  0  0  0  0
   -4.2617    1.4201   -1.6867 C   0  0  0  0  0  0  0  0  0  0  0  0
   -5.4736   -2.2979    1.7364 C   0  0  0  0  0  0  0  0  0  0  0  0
   -5.4805    1.7389   -0.8346 C   0  0  0  0  0  0  0  0  0  0  0  0
   -6.6250   -1.9565    0.7999 C   0  0  0  0  0  0  0  0  0  0  0  0
    2.3924   -2.7516    0.2460 H   0  0  0  0  0  0  0  0  0  0  0  0
    6.1395    1.8679   -0.2888 H   0  0  0  0  0  0  0  0  0  0  0  0
    6.9241   -4.1628   -0.4664 H   0  0  0  0  0  0  0  0  0  0  0  0
    1.2811    1.9415    0.4864 H   0  0  0  0  0  0  0  0  0  0  0  0
    7.1063    0.0885   -0.4481 H   0  0  0  0  0  0  0  0  0  0  0  0
    0.5136   -1.7517    0.7802 H   0  0  0  0  0  0  0  0  0  0  0  0
   -0.0907    0.7594   -0.8501 H   0  0  0  0  0  0  0  0  0  0  0  0
    0.4980   -0.6977   -1.6304 H   0  0  0  0  0  0  0  0  0  0  0  0
    2.4967    4.0140    0.2894 H   0  0  0  0  0  0  0  0  0  0  0  0
   -1.3210   -2.0236   -0.7398 H   0  0  0  0  0  0  0  0  0  0  0  0
   -1.8790   -0.7408   -1.7888 H   0  0  0  0  0  0  0  0  0  0  0  0
    1.0419   -0.1151    2.3465 H   0  0  0  0  0  0  0  0  0  0  0  0
   -3.3884    1.1813    1.0536 H   0  0  0  0  0  0  0  0  0  0  0  0
   -1.7199    1.4002    0.7237 H   0  0  0  0  0  0  0  0  0  0  0  0
   -3.3031   -2.3946    0.1250 H   0  0  0  0  0  0  0  0  0  0  0  0
   -4.2754   -1.0915   -0.5172 H   0  0  0  0  0  0  0  0  0  0  0  0
   -2.9103    2.7865   -0.7486 H   0  0  0  0  0  0  0  0  0  0  0  0
   -2.1252    1.5711   -1.7180 H   0  0  0  0  0  0  0  0  0  0  0  0
   -3.5888   -1.5573    2.4418 H   0  0  0  0  0  0  0  0  0  0  0  0
   -4.6840   -0.3039    1.8696 H   0  0  0  0  0  0  0  0  0  0  0  0
   -4.3119    2.0338   -2.5922 H   0  0  0  0  0  0  0  0  0  0  0  0
   -4.2984    0.3840   -2.0306 H   0  0  0  0  0  0  0  0  0  0  0  0
   -5.1188   -3.3158    1.5243 H   0  0  0  0  0  0  0  0  0  0  0  0
   -5.8516   -2.3032    2.7684 H   0  0  0  0  0  0  0  0  0  0  0  0
   -5.5259    1.1149    0.0613 H   0  0  0  0  0  0  0  0  0  0  0  0
   -5.4725    2.7877   -0.5221 H   0  0  0  0  0  0  0  0  0  0  0  0
   -6.3969    1.5628   -1.4085 H   0  0  0  0  0  0  0  0  0  0  0  0
   -7.4631   -2.6389    0.9713 H   0  0  0  0  0  0  0  0  0  0  0  0
   -6.3337   -2.0533   -0.2517 H   0  0  0  0  0  0  0  0  0  0  0  0
   -6.9789   -0.9336    0.9661 H   0  0  0  0  0  0  0  0  0  0  0  0
  2  1  2  0
  3  2  1  0
  4  1  1  0
  5  4  2  0
  6 10  1  0
  7  5  1  0
  8  1  1  0
  9  3  1  0
 10  8  2  0
 11 14  1  0
 12  4  1  0
 13  2  1  0
 14 13  2  0
 15  5  1  0
 16 15  1  0
 17 10  1  0
 18  6  1  0
 19  6  1  0
 20  6  1  0
 21  9  1  0
 22 16  1  0
 23 22  1  0
 24 14  1  0
 25 15  1  0
 26 23  1  0
 27 23  1  0
 28 26  1  0
 29 27  1  0
 30 28  1  0
 31 29  1  0
 32 30  1  0
 33 31  1  0
 17 12  2  0
  7  3  2  0
  9 11  2  0
  7 34  1  0
  8 35  1  0
 11 36  1  0
 12 37  1  0
 13 38  1  0
 15 39  1  1
 16 40  1  0
 16 41  1  0
 17 42  1  0
 22 43  1  0
 22 44  1  0
 25 45  1  0
 26 46  1  0
 26 47  1  0
 27 48  1  0
 27 49  1  0
 28 50  1  0
 28 51  1  0
 29 52  1  0
 29 53  1  0
 30 54  1  0
 30 55  1  0
 31 56  1  0
 31 57  1  0
 32 58  1  0
 32 59  1  0
 32 60  1  0
 33 61  1  0
 33 62  1  0
 33 63  1  0
M  END
$$$$
