
     RDKit          3D

 63 65  0  0  0  0  0  0  0  0999 V2000
   -3.4239   -0.7615   -0.1772 C   0  0  0  0  0  0  0  0  0  0  0  0
   -3.0698   -1.8973    0.6419 C   0  0  0  0  0  0  0  0  0  0  0  0
   -1.8013   -2.5088    0.4888 C   0  0  0  0  0  0  0  0  0  0  0  0
   -2.4932   -0.2394   -1.1220 C   0  0  0  0  0  0  0  0  0  0  0  0
   -1.1986   -0.8093   -1.2104 C   0  0  0  0  0  0  0  0  0  0  0  0
   -6.4375    1.5841   -0.7704 C   0  0  0  0  0  0  0  0  0  0  0  0
   -0.9030   -1.9445   -0.4344 C   0  0  0  0  0  0  0  0  0  0  0  0
   -4.6947   -0.1264   -0.0981 C   0  0  0  0  0  0  0  0  0  0  0  0
   -1.4728   -3.6555    1.2659 C   0  0  0  0  0  0  0  0  0  0  0  0
   -5.0793    0.9454   -0.9201 C   0  0  0  0  0  0  0  0  0  0  0  0
   -2.3589   -4.1875    2.1985 C   0  0  0  0  0  0  0  0  0  0  0  0
   -2.9100    0.8268   -1.9555 C   0  0  0  0  0  0  0  0  0  0  0  0
   -3.9408   -2.4703    1.6074 C   0  0  0  0  0  0  0  0  0  0  0  0
   -3.5897   -3.5861    2.3681 C   0  0  0  0  0  0  0  0  0  0  0  0
   -0.0764   -0.2894   -2.1063 C   0  0  2  0  0  0  0  0  0  0  0  0
    0.4251    1.1340   -1.8267 C   0  0  0  0  0  0  0  0  0  0  0  0
   -4.1697    1.4152   -1.8559 C   0  0  0  0  0  0  0  0  0  0  0  0
   -6.4396    2.5815    0.1556 F   0  0  0  0  0  0  0  0  0  0  0  0
   -6.8986    2.1412   -1.9245 F   0  0  0  0  0  0  0  0  0  0  0  0
   -7.3981    0.7027   -0.3736 F   0  0  0  0  0  0  0  0  0  0  0  0
    0.0462   -4.4814    1.1022 Cl  0  0  0  0  0  0  0  0  0  0  0  0
    0.9787    1.4222   -0.4226 C   0  0  0  0  0  0  0  0  0  0  0  0
    2.2795    0.8688   -0.0150 N   0  0  0  0  0  0  0  0  0  0  0  0
   -4.7009   -4.2218    3.5179 Cl  0  0  0  0  0  0  0  0  0  0  0  0
   -0.4842   -0.3687   -3.4774 O   0  0  0  0  0  0  0  0  0  0  0  0
    3.3582    1.0207   -0.9996 C   0  0  0  0  0  0  0  0  0  0  0  0
    2.1901   -0.4825    0.5483 C   0  0  0  0  0  0  0  0  0  0  0  0
    3.6936    2.4772   -1.3595 C   0  0  0  0  0  0  0  0  0  0  0  0
    3.3252   -0.7726    1.5443 C   0  0  0  0  0  0  0  0  0  0  0  0
    4.1518    3.2991   -0.1522 C   0  0  0  0  0  0  0  0  0  0  0  0
    3.1662   -2.1219    2.2522 C   0  0  0  0  0  0  0  0  0  0  0  0
    4.5498    4.7088   -0.5605 C   0  0  0  0  0  0  0  0  0  0  0  0
    2.0589   -2.1274    3.2960 C   0  0  0  0  0  0  0  0  0  0  0  0
    0.0805   -2.3975   -0.5550 H   0  0  0  0  0  0  0  0  0  0  0  0
   -5.4382   -0.4695    0.6187 H   0  0  0  0  0  0  0  0  0  0  0  0
   -2.0890   -5.0618    2.7843 H   0  0  0  0  0  0  0  0  0  0  0  0
   -2.2575    1.2175   -2.7333 H   0  0  0  0  0  0  0  0  0  0  0  0
   -4.9273   -2.0520    1.7870 H   0  0  0  0  0  0  0  0  0  0  0  0
    0.7854   -0.9615   -2.0384 H   0  0  0  0  0  0  0  0  0  0  0  0
    1.1682    1.3959   -2.5899 H   0  0  0  0  0  0  0  0  0  0  0  0
   -0.3767    1.8575   -2.0073 H   0  0  0  0  0  0  0  0  0  0  0  0
   -4.4301    2.2375   -2.5206 H   0  0  0  0  0  0  0  0  0  0  0  0
    1.0722    2.5139   -0.3458 H   0  0  0  0  0  0  0  0  0  0  0  0
    0.2154    1.1846    0.3293 H   0  0  0  0  0  0  0  0  0  0  0  0
   -1.0901   -1.1260   -3.5575 H   0  0  0  0  0  0  0  0  0  0  0  0
    4.2844    0.5815   -0.6137 H   0  0  0  0  0  0  0  0  0  0  0  0
    3.1270    0.4623   -1.9145 H   0  0  0  0  0  0  0  0  0  0  0  0
    2.1911   -1.2394   -0.2439 H   0  0  0  0  0  0  0  0  0  0  0  0
    1.2458   -0.5826    1.0925 H   0  0  0  0  0  0  0  0  0  0  0  0
    2.8389    2.9661   -1.8396 H   0  0  0  0  0  0  0  0  0  0  0  0
    4.4963    2.4642   -2.1073 H   0  0  0  0  0  0  0  0  0  0  0  0
    3.3853    0.0289    2.2917 H   0  0  0  0  0  0  0  0  0  0  0  0
    4.2868   -0.7901    1.0190 H   0  0  0  0  0  0  0  0  0  0  0  0
    3.3520    3.3602    0.5937 H   0  0  0  0  0  0  0  0  0  0  0  0
    5.0068    2.8098    0.3280 H   0  0  0  0  0  0  0  0  0  0  0  0
    2.9876   -2.9147    1.5165 H   0  0  0  0  0  0  0  0  0  0  0  0
    4.1107   -2.3629    2.7552 H   0  0  0  0  0  0  0  0  0  0  0  0
    3.7076    5.2366   -1.0196 H   0  0  0  0  0  0  0  0  0  0  0  0
    5.3774    4.6911   -1.2770 H   0  0  0  0  0  0  0  0  0  0  0  0
    4.8721    5.2801    0.3156 H   0  0  0  0  0  0  0  0  0  0  0  0
    2.0289   -3.0957    3.8058 H   0  0  0  0  0  0  0  0  0  0  0  0
    2.2304   -1.3535    4.0517 H   0  0  0  0  0  0  0  0  0  0  0  0
    1.0757   -1.9563    2.8490 H   0  0  0  0  0  0  0  0  0  0  0  0
  2  1  2  0
  3  2  1  0
  4  1  1  0
  5  4  2  0
  6 10  1  0
  7  5  1  0
  8  1  1  0
  9  3  1  0
 10  8  2  0
 11 14  1  0
 12  4  1  0
 13  2  1  0
 14 13  2  0
 15  5  1  0
 16 15  1  0
 17 10  1  0
 18  6  1  0
 19  6  1  0
 20  6  1  0
 21  9  1  0
 22 16  1  0
 23 22  1  0
 24 14  1  0
 25 15  1  0
 26 23  1  0
 27 23  1  0
 28 26  1  0
 29 27  1  0
 30 28  1  0
 31 29  1  0
 32 30  1  0
 33 31  1  0
 17 12  2  0
  7  3  2  0
  9 11  2  0
  7 34  1  0
  8 35  1  0
 11 36  1  0
 12 37  1  0
 13 38  1  0
 15 39  1  6
 16 40  1  0
 16 41  1  0
 17 42  1  0
 22 43  1  0
 22 44  1  0
 25 45  1  0
 26 46  1  0
 26 47  1  0
 27 48  1  0
 27 49  1  0
 28 50  1  0
 28 51  1  0
 29 52  1  0
 29 53  1  0
 30 54  1  0
 30 55  1  0
 31 56  1  0
 31 57  1  0
 32 58  1  0
 32 59  1  0
 32 60  1  0
 33 61  1  0
 33 62  1  0
 33 63  1  0
M  END
$$$$
