
     RDKit          3D

 63 65  0  0  0  0  0  0  0  0999 V2000
    4.0392    0.6001    0.0872 C   0  0  0  0  0  0  0  0  0  0  0  0
    4.7432   -0.5651   -0.3980 C   0  0  0  0  0  0  0  0  0  0  0  0
    4.0300   -1.7595   -0.6752 C   0  0  0  0  0  0  0  0  0  0  0  0
    2.6314    0.5502    0.2978 C   0  0  0  0  0  0  0  0  0  0  0  0
    1.9301   -0.6512    0.0214 C   0  0  0  0  0  0  0  0  0  0  0  0
    4.7870    4.2472    1.1240 C   0  0  0  0  0  0  0  0  0  0  0  0
    2.6403   -1.7665   -0.4586 C   0  0  0  0  0  0  0  0  0  0  0  0
    4.6943    1.8310    0.3748 C   0  0  0  0  0  0  0  0  0  0  0  0
    4.7296   -2.9018   -1.1574 C   0  0  0  0  0  0  0  0  0  0  0  0
    4.0303    2.9696    0.8600 C   0  0  0  0  0  0  0  0  0  0  0  0
    6.1066   -2.8846   -1.3641 C   0  0  0  0  0  0  0  0  0  0  0  0
    1.9809    1.7117    0.7819 C   0  0  0  0  0  0  0  0  0  0  0  0
    6.1462   -0.5945   -0.6200 C   0  0  0  0  0  0  0  0  0  0  0  0
    6.8090   -1.7279   -1.0914 C   0  0  0  0  0  0  0  0  0  0  0  0
    0.4187   -0.8294    0.1854 C   0  0  2  0  0  0  0  0  0  0  0  0
   -0.3731   -0.0738   -0.8951 C   0  0  0  0  0  0  0  0  0  0  0  0
    2.6588    2.8979    1.0552 C   0  0  0  0  0  0  0  0  0  0  0  0
    4.9187    5.0098    0.0041 F   0  0  0  0  0  0  0  0  0  0  0  0
    6.0521    4.0286    1.5786 F   0  0  0  0  0  0  0  0  0  0  0  0
    4.1919    5.0450    2.0533 F   0  0  0  0  0  0  0  0  0  0  0  0
    3.9239   -4.3984   -1.5211 Cl  0  0  0  0  0  0  0  0  0  0  0  0
   -1.7647   -0.6724   -1.1874 C   0  0  0  0  0  0  0  0  0  0  0  0
   -2.7374   -0.6786   -0.0851 N   0  0  0  0  0  0  0  0  0  0  0  0
    8.5124   -1.6837   -1.3347 Cl  0  0  0  0  0  0  0  0  0  0  0  0
    0.0333   -0.4440    1.5010 O   0  0  0  0  0  0  0  0  0  0  0  0
   -2.9557    0.6478    0.5248 C   0  0  0  0  0  0  0  0  0  0  0  0
   -4.0160   -1.3079   -0.4650 C   0  0  0  0  0  0  0  0  0  0  0  0
   -3.5190    1.7362   -0.4028 C   0  0  0  0  0  0  0  0  0  0  0  0
   -3.9120   -2.8336   -0.6013 C   0  0  0  0  0  0  0  0  0  0  0  0
   -3.7221    3.0781    0.3079 C   0  0  0  0  0  0  0  0  0  0  0  0
   -5.2524   -3.4983   -0.9376 C   0  0  0  0  0  0  0  0  0  0  0  0
   -2.4195    3.7457    0.7258 C   0  0  0  0  0  0  0  0  0  0  0  0
   -6.2655   -3.4445    0.1964 C   0  0  0  0  0  0  0  0  0  0  0  0
    2.0736   -2.6738   -0.6701 H   0  0  0  0  0  0  0  0  0  0  0  0
    5.7674    1.9332    0.2241 H   0  0  0  0  0  0  0  0  0  0  0  0
    6.6224   -3.7665   -1.7323 H   0  0  0  0  0  0  0  0  0  0  0  0
    0.9089    1.7151    0.9690 H   0  0  0  0  0  0  0  0  0  0  0  0
    6.7604    0.2794   -0.4226 H   0  0  0  0  0  0  0  0  0  0  0  0
    0.1782   -1.8968    0.1108 H   0  0  0  0  0  0  0  0  0  0  0  0
   -0.4729    0.9872   -0.6472 H   0  0  0  0  0  0  0  0  0  0  0  0
    0.1834   -0.1148   -1.8414 H   0  0  0  0  0  0  0  0  0  0  0  0
    2.1027    3.7576    1.4244 H   0  0  0  0  0  0  0  0  0  0  0  0
   -1.5894   -1.7016   -1.5201 H   0  0  0  0  0  0  0  0  0  0  0  0
   -2.1846   -0.1477   -2.0552 H   0  0  0  0  0  0  0  0  0  0  0  0
    0.6874   -0.8210    2.1137 H   0  0  0  0  0  0  0  0  0  0  0  0
   -3.6304    0.5300    1.3835 H   0  0  0  0  0  0  0  0  0  0  0  0
   -2.0184    0.9928    0.9701 H   0  0  0  0  0  0  0  0  0  0  0  0
   -4.7564   -1.0969    0.3148 H   0  0  0  0  0  0  0  0  0  0  0  0
   -4.4040   -0.8760   -1.3952 H   0  0  0  0  0  0  0  0  0  0  0  0
   -2.8603    1.8921   -1.2641 H   0  0  0  0  0  0  0  0  0  0  0  0
   -4.4902    1.4145   -0.7967 H   0  0  0  0  0  0  0  0  0  0  0  0
   -3.2117   -3.0927   -1.4029 H   0  0  0  0  0  0  0  0  0  0  0  0
   -3.5098   -3.2647    0.3237 H   0  0  0  0  0  0  0  0  0  0  0  0
   -4.3642    2.9450    1.1858 H   0  0  0  0  0  0  0  0  0  0  0  0
   -4.2527    3.7528   -0.3744 H   0  0  0  0  0  0  0  0  0  0  0  0
   -5.6821   -3.0399   -1.8350 H   0  0  0  0  0  0  0  0  0  0  0  0
   -5.0650   -4.5504   -1.1797 H   0  0  0  0  0  0  0  0  0  0  0  0
   -1.7366    3.8441   -0.1246 H   0  0  0  0  0  0  0  0  0  0  0  0
   -2.6203    4.7491    1.1175 H   0  0  0  0  0  0  0  0  0  0  0  0
   -1.9125    3.1799    1.5136 H   0  0  0  0  0  0  0  0  0  0  0  0
   -5.8574   -3.8936    1.1070 H   0  0  0  0  0  0  0  0  0  0  0  0
   -7.1675   -4.0010   -0.0789 H   0  0  0  0  0  0  0  0  0  0  0  0
   -6.5687   -2.4189    0.4209 H   0  0  0  0  0  0  0  0  0  0  0  0
  2  1  2  0
  3  2  1  0
  4  1  1  0
  5  4  2  0
  6 10  1  0
  7  5  1  0
  8  1  1  0
  9  3  1  0
 10  8  2  0
 11 14  1  0
 12  4  1  0
 13  2  1  0
 14 13  2  0
 15  5  1  0
 16 15  1  0
 17 10  1  0
 18  6  1  0
 19  6  1  0
 20  6  1  0
 21  9  1  0
 22 16  1  0
 23 22  1  0
 24 14  1  0
 25 15  1  0
 26 23  1  0
 27 23  1  0
 28 26  1  0
 29 27  1  0
 30 28  1  0
 31 29  1  0
 32 30  1  0
 33 31  1  0
 17 12  2  0
  7  3  2  0
  9 11  2  0
  7 34  1  0
  8 35  1  0
 11 36  1  0
 12 37  1  0
 13 38  1  0
 15 39  1  1
 16 40  1  0
 16 41  1  0
 17 42  1  0
 22 43  1  0
 22 44  1  0
 25 45  1  0
 26 46  1  0
 26 47  1  0
 27 48  1  0
 27 49  1  0
 28 50  1  0
 28 51  1  0
 29 52  1  0
 29 53  1  0
 30 54  1  0
 30 55  1  0
 31 56  1  0
 31 57  1  0
 32 58  1  0
 32 59  1  0
 32 60  1  0
 33 61  1  0
 33 62  1  0
 33 63  1  0
M  END
$$$$
