
     RDKit          2D

 33 35  0  0  0  0  0  0  0  0999 V2000
   -2.0792   -9.5417    0.0000 C   0  0  0  0  0  0  0  0  0  0  0  0
   -2.0750  -10.2417    0.0000 C   0  0  0  0  0  0  0  0  0  0  0  0
   -1.4667  -10.5958    0.0000 C   0  0  0  0  0  0  0  0  0  0  0  0
   -1.4708   -9.1875    0.0000 C   0  0  0  0  0  0  0  0  0  0  0  0
   -0.8583   -9.5333    0.0000 C   0  0  0  0  0  0  0  0  0  0  0  0
   -3.3083   -8.1208    0.0000 C   0  0  0  0  0  0  0  0  0  0  0  0
   -0.8583  -10.2417    0.0000 C   0  0  0  0  0  0  0  0  0  0  0  0
   -2.6958   -9.1875    0.0000 C   0  0  0  0  0  0  0  0  0  0  0  0
   -1.4667  -11.2958    0.0000 C   0  0  0  0  0  0  0  0  0  0  0  0
   -2.6958   -8.4750    0.0000 C   0  0  0  0  0  0  0  0  0  0  0  0
   -2.0750  -11.6458    0.0000 C   0  0  0  0  0  0  0  0  0  0  0  0
   -1.4708   -8.4750    0.0000 C   0  0  0  0  0  0  0  0  0  0  0  0
   -2.6833  -10.5917    0.0000 C   0  0  0  0  0  0  0  0  0  0  0  0
   -2.6875  -11.2958    0.0000 C   0  0  0  0  0  0  0  0  0  0  0  0
   -0.2458   -9.1792    0.0000 C   0  0  0  0  0  0  0  0  0  0  0  0
    0.3708   -9.5292    0.0000 C   0  0  0  0  0  0  0  0  0  0  0  0
   -2.0833   -8.1208    0.0000 C   0  0  0  0  0  0  0  0  0  0  0  0
   -3.6708   -7.5042    0.0000 F   0  0  0  0  0  0  0  0  0  0  0  0
   -3.9208   -8.4750    0.0000 F   0  0  0  0  0  0  0  0  0  0  0  0
   -2.9583   -7.5042    0.0000 F   0  0  0  0  0  0  0  0  0  0  0  0
   -0.8542  -11.6500    0.0000 Cl  0  0  0  0  0  0  0  0  0  0  0  0
    0.9833   -9.1750    0.0000 C   0  0  0  0  0  0  0  0  0  0  0  0
    1.5958   -9.5250    0.0000 N   0  0  0  0  0  0  0  0  0  0  0  0
   -3.3000  -11.6500    0.0000 Cl  0  0  0  0  0  0  0  0  0  0  0  0
   -0.2500   -8.4708    0.0000 O   0  0  0  0  0  0  0  0  0  0  0  0
    2.2083   -9.1708    0.0000 C   0  0  0  0  0  0  0  0  0  0  0  0
    1.6000  -10.2333    0.0000 C   0  0  0  0  0  0  0  0  0  0  0  0
    2.8208   -9.5208    0.0000 C   0  0  0  0  0  0  0  0  0  0  0  0
    2.2125  -10.5875    0.0000 C   0  0  0  0  0  0  0  0  0  0  0  0
    3.4333   -9.1667    0.0000 C   0  0  0  0  0  0  0  0  0  0  0  0
    2.8250  -10.2292    0.0000 C   0  0  0  0  0  0  0  0  0  0  0  0
    4.0500   -9.5167    0.0000 C   0  0  0  0  0  0  0  0  0  0  0  0
    3.4417  -10.5833    0.0000 C   0  0  0  0  0  0  0  0  0  0  0  0
  2  1  1  0
  3  2  2  0
  4  1  2  0
  5  4  1  0
  6 10  1  0
  7  5  2  0
  8  1  1  0
  9  3  1  0
 10  8  2  0
 11 14  1  0
 12  4  1  0
 13  2  1  0
 14 13  2  0
 15  5  1  0
 16 15  1  0
 17 10  1  0
 18  6  1  0
 19  6  1  0
 20  6  1  0
 21  9  1  0
 22 16  1  0
 23 22  1  0
 24 14  1  0
 25 15  1  0
 26 23  1  0
 27 23  1  0
 28 26  1  0
 29 27  1  0
 30 28  1  0
 31 29  1  0
 32 30  1  0
 33 31  1  0
 17 12  2  0
  7  3  1  0
  9 11  2  0
M  END
> <chembl_id>
CHEMBL1107

> <chembl_pref_name>
HALOFANTRINE
