
     RDKit          3D

 63 65  0  0  0  0  0  0  0  0999 V2000
    4.1260   -0.2328   -0.0313 C   0  0  0  0  0  0  0  0  0  0  0  0
    4.6329    0.3460   -1.2549 C   0  0  0  0  0  0  0  0  0  0  0  0
    3.8921    1.3554   -1.9205 C   0  0  0  0  0  0  0  0  0  0  0  0
    2.8911    0.2176    0.5170 C   0  0  0  0  0  0  0  0  0  0  0  0
    2.1797    1.2533   -0.1371 C   0  0  0  0  0  0  0  0  0  0  0  0
    5.0911   -2.9568    2.5332 C   0  0  0  0  0  0  0  0  0  0  0  0
    2.6799    1.7743   -1.3443 C   0  0  0  0  0  0  0  0  0  0  0  0
    4.8078   -1.2643    0.6722 C   0  0  0  0  0  0  0  0  0  0  0  0
    4.3887    1.9093   -3.1340 C   0  0  0  0  0  0  0  0  0  0  0  0
    4.3241   -1.8487    1.8547 C   0  0  0  0  0  0  0  0  0  0  0  0
    5.5942    1.4911   -3.6915 C   0  0  0  0  0  0  0  0  0  0  0  0
    2.4082   -0.3986    1.6987 C   0  0  0  0  0  0  0  0  0  0  0  0
    5.8576   -0.0476   -1.8578 C   0  0  0  0  0  0  0  0  0  0  0  0
    6.3244    0.5132   -3.0471 C   0  0  0  0  0  0  0  0  0  0  0  0
    0.8551    1.8038    0.3857 C   0  0  2  0  0  0  0  0  0  0  0  0
   -0.3352    1.0444   -0.2142 C   0  0  0  0  0  0  0  0  0  0  0  0
    3.1060   -1.4112    2.3554 C   0  0  0  0  0  0  0  0  0  0  0  0
    4.8123   -3.0684    3.8616 F   0  0  0  0  0  0  0  0  0  0  0  0
    6.4409   -2.7949    2.4488 F   0  0  0  0  0  0  0  0  0  0  0  0
    4.8254   -4.1759    1.9898 F   0  0  0  0  0  0  0  0  0  0  0  0
    3.5369    3.1467   -4.0054 Cl  0  0  0  0  0  0  0  0  0  0  0  0
   -1.6559    1.4674    0.4473 C   0  0  0  0  0  0  0  0  0  0  0  0
   -2.8687    0.7576   -0.0044 N   0  0  0  0  0  0  0  0  0  0  0  0
    7.8185   -0.0185   -3.7150 Cl  0  0  0  0  0  0  0  0  0  0  0  0
    0.7299    3.1960    0.0844 O   0  0  0  0  0  0  0  0  0  0  0  0
   -2.8352   -0.7039    0.1803 C   0  0  0  0  0  0  0  0  0  0  0  0
   -3.2139    1.1308   -1.3889 C   0  0  0  0  0  0  0  0  0  0  0  0
   -2.5581   -1.1466    1.6262 C   0  0  0  0  0  0  0  0  0  0  0  0
   -4.6611    0.8113   -1.7975 C   0  0  0  0  0  0  0  0  0  0  0  0
   -2.5914   -2.6677    1.8079 C   0  0  0  0  0  0  0  0  0  0  0  0
   -5.7005    1.4600   -0.8807 C   0  0  0  0  0  0  0  0  0  0  0  0
   -3.9732   -3.2760    1.6244 C   0  0  0  0  0  0  0  0  0  0  0  0
   -7.1156    1.1872   -1.3664 C   0  0  0  0  0  0  0  0  0  0  0  0
    2.0838    2.5371   -1.8474 H   0  0  0  0  0  0  0  0  0  0  0  0
    5.7561   -1.6493    0.3018 H   0  0  0  0  0  0  0  0  0  0  0  0
    5.9569    1.9272   -4.6179 H   0  0  0  0  0  0  0  0  0  0  0  0
    1.4561   -0.1111    2.1386 H   0  0  0  0  0  0  0  0  0  0  0  0
    6.4820   -0.8123   -1.4050 H   0  0  0  0  0  0  0  0  0  0  0  0
    0.8296    1.7543    1.4779 H   0  0  0  0  0  0  0  0  0  0  0  0
   -0.3895    1.2419   -1.2918 H   0  0  0  0  0  0  0  0  0  0  0  0
   -0.1781   -0.0323   -0.0864 H   0  0  0  0  0  0  0  0  0  0  0  0
    2.6872   -1.8521    3.2590 H   0  0  0  0  0  0  0  0  0  0  0  0
   -1.8088    2.5447    0.3001 H   0  0  0  0  0  0  0  0  0  0  0  0
   -1.5691    1.3599    1.5351 H   0  0  0  0  0  0  0  0  0  0  0  0
    1.5645    3.6206    0.3496 H   0  0  0  0  0  0  0  0  0  0  0  0
   -3.8130   -1.1077   -0.0978 H   0  0  0  0  0  0  0  0  0  0  0  0
   -2.1034   -1.1668   -0.4928 H   0  0  0  0  0  0  0  0  0  0  0  0
   -3.0842    2.2136   -1.5172 H   0  0  0  0  0  0  0  0  0  0  0  0
   -2.5313    0.6498   -2.1007 H   0  0  0  0  0  0  0  0  0  0  0  0
   -1.5629   -0.8091    1.9372 H   0  0  0  0  0  0  0  0  0  0  0  0
   -3.2829   -0.6802    2.3047 H   0  0  0  0  0  0  0  0  0  0  0  0
   -4.8211   -0.2720   -1.8372 H   0  0  0  0  0  0  0  0  0  0  0  0
   -4.8111    1.1763   -2.8217 H   0  0  0  0  0  0  0  0  0  0  0  0
   -2.2437   -2.9013    2.8214 H   0  0  0  0  0  0  0  0  0  0  0  0
   -1.8871   -3.1422    1.1149 H   0  0  0  0  0  0  0  0  0  0  0  0
   -5.5368    2.5432   -0.8407 H   0  0  0  0  0  0  0  0  0  0  0  0
   -5.5990    1.0771    0.1409 H   0  0  0  0  0  0  0  0  0  0  0  0
   -4.3174   -3.1902    0.5899 H   0  0  0  0  0  0  0  0  0  0  0  0
   -3.9498   -4.3412    1.8759 H   0  0  0  0  0  0  0  0  0  0  0  0
   -4.7066   -2.7906    2.2758 H   0  0  0  0  0  0  0  0  0  0  0  0
   -7.3215    0.1123   -1.3898 H   0  0  0  0  0  0  0  0  0  0  0  0
   -7.2696    1.5891   -2.3729 H   0  0  0  0  0  0  0  0  0  0  0  0
   -7.8431    1.6580   -0.6979 H   0  0  0  0  0  0  0  0  0  0  0  0
  2  1  2  0
  3  2  1  0
  4  1  1  0
  5  4  2  0
  6 10  1  0
  7  5  1  0
  8  1  1  0
  9  3  1  0
 10  8  2  0
 11 14  1  0
 12  4  1  0
 13  2  1  0
 14 13  2  0
 15  5  1  0
 16 15  1  0
 17 10  1  0
 18  6  1  0
 19  6  1  0
 20  6  1  0
 21  9  1  0
 22 16  1  0
 23 22  1  0
 24 14  1  0
 25 15  1  0
 26 23  1  0
 27 23  1  0
 28 26  1  0
 29 27  1  0
 30 28  1  0
 31 29  1  0
 32 30  1  0
 33 31  1  0
 17 12  2  0
  7  3  2  0
  9 11  2  0
  7 34  1  0
  8 35  1  0
 11 36  1  0
 12 37  1  0
 13 38  1  0
 15 39  1  1
 16 40  1  0
 16 41  1  0
 17 42  1  0
 22 43  1  0
 22 44  1  0
 25 45  1  0
 26 46  1  0
 26 47  1  0
 27 48  1  0
 27 49  1  0
 28 50  1  0
 28 51  1  0
 29 52  1  0
 29 53  1  0
 30 54  1  0
 30 55  1  0
 31 56  1  0
 31 57  1  0
 32 58  1  0
 32 59  1  0
 32 60  1  0
 33 61  1  0
 33 62  1  0
 33 63  1  0
M  END
$$$$
