
     RDKit          3D

 63 65  0  0  0  0  0  0  0  0999 V2000
   -4.1545   -0.1821   -0.0779 C   0  0  0  0  0  0  0  0  0  0  0  0
   -4.1929    1.1138    0.5612 C   0  0  0  0  0  0  0  0  0  0  0  0
   -3.0103    1.6650    1.1151 C   0  0  0  0  0  0  0  0  0  0  0  0
   -2.9327   -0.9117   -0.1491 C   0  0  0  0  0  0  0  0  0  0  0  0
   -1.7592   -0.3540    0.4163 C   0  0  0  0  0  0  0  0  0  0  0  0
   -6.5455   -2.6114   -1.8973 C   0  0  0  0  0  0  0  0  0  0  0  0
   -1.8251    0.9142    1.0228 C   0  0  0  0  0  0  0  0  0  0  0  0
   -5.3043   -0.7856   -0.6596 C   0  0  0  0  0  0  0  0  0  0  0  0
   -3.0535    2.9438    1.7392 C   0  0  0  0  0  0  0  0  0  0  0  0
   -5.2902   -2.0450   -1.2821 C   0  0  0  0  0  0  0  0  0  0  0  0
   -4.2331    3.6784    1.8248 C   0  0  0  0  0  0  0  0  0  0  0  0
   -2.9386   -2.1753   -0.7895 C   0  0  0  0  0  0  0  0  0  0  0  0
   -5.3730    1.8972    0.6727 C   0  0  0  0  0  0  0  0  0  0  0  0
   -5.3896    3.1487    1.2896 C   0  0  0  0  0  0  0  0  0  0  0  0
   -0.3806   -1.0161    0.3976 C   0  0  2  0  0  0  0  0  0  0  0  0
    0.2815   -0.9512   -0.9849 C   0  0  0  0  0  0  0  0  0  0  0  0
   -4.0877   -2.7329   -1.3476 C   0  0  0  0  0  0  0  0  0  0  0  0
   -6.7645   -2.1368   -3.1542 F   0  0  0  0  0  0  0  0  0  0  0  0
   -7.6664   -2.3102   -1.1838 F   0  0  0  0  0  0  0  0  0  0  0  0
   -6.5284   -3.9689   -2.0056 F   0  0  0  0  0  0  0  0  0  0  0  0
   -1.6461    3.6816    2.4409 Cl  0  0  0  0  0  0  0  0  0  0  0  0
    1.7551   -1.3789   -0.9650 C   0  0  0  0  0  0  0  0  0  0  0  0
    2.5729   -0.4110   -0.2020 N   0  0  0  0  0  0  0  0  0  0  0  0
   -6.8605    4.0369    1.3845 Cl  0  0  0  0  0  0  0  0  0  0  0  0
   -0.4482   -2.3645    0.8649 O   0  0  0  0  0  0  0  0  0  0  0  0
    3.5018    0.3347   -1.0764 C   0  0  0  0  0  0  0  0  0  0  0  0
    3.2936   -1.1032    0.8875 C   0  0  0  0  0  0  0  0  0  0  0  0
    2.7767    1.2901   -2.0376 C   0  0  0  0  0  0  0  0  0  0  0  0
    3.7896   -0.1356    1.9736 C   0  0  0  0  0  0  0  0  0  0  0  0
    3.7311    2.0813   -2.9382 C   0  0  0  0  0  0  0  0  0  0  0  0
    4.3503   -0.8555    3.2045 C   0  0  0  0  0  0  0  0  0  0  0  0
    4.6066    3.0712   -2.1852 C   0  0  0  0  0  0  0  0  0  0  0  0
    5.6302   -1.6261    2.9208 C   0  0  0  0  0  0  0  0  0  0  0  0
   -0.9016    1.3256    1.4322 H   0  0  0  0  0  0  0  0  0  0  0  0
   -6.2642   -0.2732   -0.6406 H   0  0  0  0  0  0  0  0  0  0  0  0
   -4.2456    4.6528    2.3050 H   0  0  0  0  0  0  0  0  0  0  0  0
   -2.0289   -2.7667   -0.8692 H   0  0  0  0  0  0  0  0  0  0  0  0
   -6.3184    1.5413    0.2737 H   0  0  0  0  0  0  0  0  0  0  0  0
    0.2561   -0.4992    1.1245 H   0  0  0  0  0  0  0  0  0  0  0  0
    0.1943    0.0625   -1.3946 H   0  0  0  0  0  0  0  0  0  0  0  0
   -0.2384   -1.6155   -1.6848 H   0  0  0  0  0  0  0  0  0  0  0  0
   -4.0291   -3.7073   -1.8302 H   0  0  0  0  0  0  0  0  0  0  0  0
    1.8249   -2.3944   -0.5534 H   0  0  0  0  0  0  0  0  0  0  0  0
    2.1112   -1.4768   -1.9987 H   0  0  0  0  0  0  0  0  0  0  0  0
   -1.1055   -2.3778    1.5824 H   0  0  0  0  0  0  0  0  0  0  0  0
    4.1402   -0.3577   -1.6414 H   0  0  0  0  0  0  0  0  0  0  0  0
    4.1684    0.9437   -0.4601 H   0  0  0  0  0  0  0  0  0  0  0  0
    2.6082   -1.8023    1.3846 H   0  0  0  0  0  0  0  0  0  0  0  0
    4.1200   -1.6985    0.4803 H   0  0  0  0  0  0  0  0  0  0  0  0
    2.1515    1.9870   -1.4660 H   0  0  0  0  0  0  0  0  0  0  0  0
    2.1052    0.7258   -2.6940 H   0  0  0  0  0  0  0  0  0  0  0  0
    2.9519    0.4946    2.2998 H   0  0  0  0  0  0  0  0  0  0  0  0
    4.5598    0.5375    1.5817 H   0  0  0  0  0  0  0  0  0  0  0  0
    4.3654    1.3912   -3.5064 H   0  0  0  0  0  0  0  0  0  0  0  0
    3.1327    2.6373   -3.6703 H   0  0  0  0  0  0  0  0  0  0  0  0
    3.5967   -1.5358    3.6174 H   0  0  0  0  0  0  0  0  0  0  0  0
    4.5585   -0.1073    3.9787 H   0  0  0  0  0  0  0  0  0  0  0  0
    5.3228    2.5615   -1.5335 H   0  0  0  0  0  0  0  0  0  0  0  0
    5.1797    3.6778   -2.8932 H   0  0  0  0  0  0  0  0  0  0  0  0
    4.0007    3.7470   -1.5740 H   0  0  0  0  0  0  0  0  0  0  0  0
    6.3941   -0.9722    2.4898 H   0  0  0  0  0  0  0  0  0  0  0  0
    6.0291   -2.0458    3.8499 H   0  0  0  0  0  0  0  0  0  0  0  0
    5.4556   -2.4558    2.2305 H   0  0  0  0  0  0  0  0  0  0  0  0
  2  1  2  0
  3  2  1  0
  4  1  1  0
  5  4  2  0
  6 10  1  0
  7  5  1  0
  8  1  1  0
  9  3  1  0
 10  8  2  0
 11 14  1  0
 12  4  1  0
 13  2  1  0
 14 13  2  0
 15  5  1  0
 16 15  1  0
 17 10  1  0
 18  6  1  0
 19  6  1  0
 20  6  1  0
 21  9  1  0
 22 16  1  0
 23 22  1  0
 24 14  1  0
 25 15  1  0
 26 23  1  0
 27 23  1  0
 28 26  1  0
 29 27  1  0
 30 28  1  0
 31 29  1  0
 32 30  1  0
 33 31  1  0
 17 12  2  0
  7  3  2  0
  9 11  2  0
  7 34  1  0
  8 35  1  0
 11 36  1  0
 12 37  1  0
 13 38  1  0
 15 39  1  1
 16 40  1  0
 16 41  1  0
 17 42  1  0
 22 43  1  0
 22 44  1  0
 25 45  1  0
 26 46  1  0
 26 47  1  0
 27 48  1  0
 27 49  1  0
 28 50  1  0
 28 51  1  0
 29 52  1  0
 29 53  1  0
 30 54  1  0
 30 55  1  0
 31 56  1  0
 31 57  1  0
 32 58  1  0
 32 59  1  0
 32 60  1  0
 33 61  1  0
 33 62  1  0
 33 63  1  0
M  END
$$$$
