
     RDKit          3D

 33 35  0  0  0  0  0  0  0  0999 V2000
   -2.2536   -0.2179    0.4727 C   0  0  0  0  0  0  0  0  0  0  0  0
   -2.0413    1.1311    0.2885 C   0  0  0  0  0  0  0  0  0  0  0  0
   -0.9243    1.5374   -0.4365 C   0  0  0  0  0  0  0  0  0  0  0  0
   -1.3922   -1.1719   -0.0404 C   0  0  0  0  0  0  0  0  0  0  0  0
   -0.2737   -0.7785   -0.7658 C   0  0  0  0  0  0  0  0  0  0  0  0
   -4.8115   -2.4520    2.1763 C   0  0  0  0  0  0  0  0  0  0  0  0
   -0.0581    0.5714   -0.9519 C   0  0  0  0  0  0  0  0  0  0  0  0
   -3.3720   -0.6357    1.1970 C   0  0  0  0  0  0  0  0  0  0  0  0
   -0.6626    2.8730   -0.6540 C   0  0  0  0  0  0  0  0  0  0  0  0
   -3.6320   -1.9764    1.4092 C   0  0  0  0  0  0  0  0  0  0  0  0
   -1.5331    3.8148   -0.1372 C   0  0  0  0  0  0  0  0  0  0  0  0
   -1.6420   -2.5187    0.1657 C   0  0  0  0  0  0  0  0  0  0  0  0
   -2.9065    2.0900    0.8014 C   0  0  0  0  0  0  0  0  0  0  0  0
   -2.6558    3.4369    0.5905 C   0  0  0  0  0  0  0  0  0  0  0  0
    0.5964   -1.8400   -1.2864 C   0  0  0  0  0  0  0  0  0  0  0  0
    1.6878   -2.2879   -0.3800 C   0  0  0  0  0  0  0  0  0  0  0  0
   -2.7629   -2.9183    0.8908 C   0  0  0  0  0  0  0  0  0  0  0  0
   -5.3546   -1.3400    2.7924 F   0  0  0  0  0  0  0  0  0  0  0  0
   -4.3857   -3.3555    3.1213 F   0  0  0  0  0  0  0  0  0  0  0  0
   -5.8047   -2.9746    1.3499 F   0  0  0  0  0  0  0  0  0  0  0  0
    0.7266    3.4320   -1.5620 Cl  0  0  0  0  0  0  0  0  0  0  0  0
    2.6730   -1.2473    0.0229 C   0  0  0  0  0  0  0  0  0  0  0  0
    3.4040   -0.6289   -1.0224 N   0  0  0  0  0  0  0  0  0  0  0  0
   -3.6939    4.7016    1.2010 Cl  0  0  0  0  0  0  0  0  0  0  0  0
    1.0883   -1.5144   -2.5491 O   0  0  0  0  0  0  0  0  0  0  0  0
    4.3360   -1.4092   -1.7352 C   0  0  0  0  0  0  0  0  0  0  0  0
    3.4865    0.7722   -1.0507 C   0  0  0  0  0  0  0  0  0  0  0  0
    5.4850   -1.8415   -0.9188 C   0  0  0  0  0  0  0  0  0  0  0  0
    4.1933    1.3960   -2.2062 C   0  0  0  0  0  0  0  0  0  0  0  0
    6.3664   -0.8332   -0.3115 C   0  0  0  0  0  0  0  0  0  0  0  0
    4.1526    2.9165   -1.9963 C   0  0  0  0  0  0  0  0  0  0  0  0
    7.0948    0.0882   -1.2214 C   0  0  0  0  0  0  0  0  0  0  0  0
    4.8696    3.1810   -0.6723 C   0  0  0  0  0  0  0  0  0  0  0  0
  2  1  2  0
  3  2  1  0
  4  1  1  0
  5  4  2  0
  6 10  1  0
  7  5  1  0
  8  1  1  0
  9  3  1  0
 10  8  2  0
 11 14  1  0
 12  4  1  0
 13  2  1  0
 14 13  2  0
 15  5  1  0
 16 15  1  0
 17 10  1  0
 18  6  1  0
 19  6  1  0
 20  6  1  0
 21  9  1  0
 22 16  1  0
 23 22  1  0
 24 14  1  0
 25 15  1  0
 26 23  1  0
 27 23  1  0
 28 26  1  0
 29 27  1  0
 30 28  1  0
 31 29  1  0
 32 30  1  0
 33 31  1  0
 17 12  2  0
  7  3  2  0
  9 11  2  0
M  END
