
     RDKit          3D

135142  0  0  0  0  0  0  0  0999 V2000
   -0.6768    0.1316    0.0532 N   0  0  0  0  0  0  0  0  0  0  0  0
   -1.1792   -1.2115   -0.0046 C   0  0  0  0  0  0  0  0  0  0  0  0
   -1.3551    1.3814    0.2586 C   0  0  0  0  0  0  0  0  0  0  0  0
   -2.5362   -1.5667    0.1850 C   0  0  0  0  0  0  0  0  0  0  0  0
   -2.6822    1.6237   -0.1411 C   0  0  0  0  0  0  0  0  0  0  0  0
   -3.6562   -0.5704    0.3271 C   0  0  0  0  0  0  0  0  0  0  0  0
   -3.5454    0.5350   -0.7069 C   0  0  0  0  0  0  0  0  0  0  0  0
    0.7480    0.3328   -0.3632 C   0  0  0  0  0  0  0  0  0  0  0  0
    1.7372    0.0808    0.7909 C   0  0  0  0  0  0  0  0  0  0  0  0
    3.7471   -0.1104   -0.7226 N   0  0  0  0  0  0  0  0  0  0  0  0
   -0.6918    2.4697    0.8771 C   0  0  0  0  0  0  0  0  0  0  0  0
   -0.3055   -2.3086   -0.2248 C   0  0  0  0  0  0  0  0  0  0  0  0
    3.1549    0.5585    0.4474 C   0  0  0  0  0  0  0  0  0  0  0  0
   -3.2666    2.9027    0.0089 C   0  0  0  0  0  0  0  0  0  0  0  0
   -2.9383   -2.9285    0.2206 C   0  0  0  0  0  0  0  0  0  0  0  0
    4.9479    0.6120   -1.1569 C   0  0  0  0  0  0  0  0  0  0  0  0
    4.0997   -1.5041   -0.4317 C   0  0  0  0  0  0  0  0  0  0  0  0
   -0.7152   -3.6496   -0.2135 C   0  0  0  0  0  0  0  0  0  0  0  0
   -1.2789    3.7298    1.0394 C   0  0  0  0  0  0  0  0  0  0  0  0
   -2.0361   -3.9628    0.0234 C   0  0  0  0  0  0  0  0  0  0  0  0
   -2.5674    3.9511    0.5916 C   0  0  0  0  0  0  0  0  0  0  0  0
   -3.2330   -0.6747    1.5075 C   0  0  0  0  0  0  0  0  0  0  0  0
    2.6662    0.9686    1.0571 C   0  0  0  0  0  0  0  0  0  0  0  0
    1.2322   -0.5424   -0.2431 C   0  0  0  0  0  0  0  0  0  0  0  0
   -1.4263   -0.5220   -0.1355 C   0  0  0  0  0  0  0  0  0  0  0  0
   -1.9968   -1.0975    1.0211 C   0  0  0  0  0  0  0  0  0  0  0  0
    1.3930    0.4764    0.7221 C   0  0  0  0  0  0  0  0  0  0  0  0
   -0.1283   -1.0957   -0.6825 C   0  0  0  0  0  0  0  0  0  0  0  0
   -3.9094    0.3591    0.8538 C   0  0  0  0  0  0  0  0  0  0  0  0
    3.7981    0.4196    0.4487 C   0  0  0  0  0  0  0  0  0  0  0  0
   -3.8122   -1.2630    2.7366 C   0  0  0  0  0  0  0  0  0  0  0  0
    2.9158    2.0550    2.0423 C   0  0  0  0  0  0  0  0  0  0  0  0
    2.4081   -1.1093   -0.8486 C   0  0  0  0  0  0  0  0  0  0  0  0
   -2.0975    0.5642   -0.7761 C   0  0  0  0  0  0  0  0  0  0  0  0
   -3.3531    0.9901   -0.2677 C   0  0  0  0  0  0  0  0  0  0  0  0
    3.6874   -0.6127   -0.4856 C   0  0  0  0  0  0  0  0  0  0  0  0
   -3.2266   -1.6374    3.7345 O   0  0  0  0  0  0  0  0  0  0  0  0
    4.0053    2.4746    2.3889 O   0  0  0  0  0  0  0  0  0  0  0  0
   -1.3263   -2.0964    1.6746 O   0  0  0  0  0  0  0  0  0  0  0  0
    0.2762    0.9576    1.3505 O   0  0  0  0  0  0  0  0  0  0  0  0
   -5.1552   -1.3468    2.6533 O   0  0  0  0  0  0  0  0  0  0  0  0
    1.7823    2.5838    2.5491 O   0  0  0  0  0  0  0  0  0  0  0  0
   -1.5853    1.2633   -1.8961 C   0  0  0  0  0  0  0  0  0  0  0  0
    2.3857   -2.1615   -1.7993 C   0  0  0  0  0  0  0  0  0  0  0  0
   -4.0446    2.0495   -0.8795 C   0  0  0  0  0  0  0  0  0  0  0  0
    4.8537   -1.1534   -1.0531 C   0  0  0  0  0  0  0  0  0  0  0  0
    3.5530   -2.6928   -2.3553 C   0  0  0  0  0  0  0  0  0  0  0  0
   -2.2839    2.3175   -2.4926 C   0  0  0  0  0  0  0  0  0  0  0  0
    4.7894   -2.1886   -1.9801 C   0  0  0  0  0  0  0  0  0  0  0  0
   -3.5153    2.7083   -1.9860 C   0  0  0  0  0  0  0  0  0  0  0  0
   -0.6078    0.3057    0.5083 N   0  0  0  0  0  0  0  0  0  0  0  0
   -1.0818   -1.0176    0.6843 C   0  0  0  0  0  0  0  0  0  0  0  0
   -1.3730    1.4940    0.4317 C   0  0  0  0  0  0  0  0  0  0  0  0
   -2.3399   -1.4768    0.2327 C   0  0  0  0  0  0  0  0  0  0  0  0
   -2.4238    1.6384   -0.4833 C   0  0  0  0  0  0  0  0  0  0  0  0
   -3.3446   -0.6585   -0.5527 C   0  0  0  0  0  0  0  0  0  0  0  0
   -2.7922    0.4925   -1.3805 C   0  0  0  0  0  0  0  0  0  0  0  0
    0.8508    0.5327    0.3401 C   0  0  0  0  0  0  0  0  0  0  0  0
    1.3739   -0.1425   -0.9353 C   0  0  0  0  0  0  0  0  0  0  0  0
    3.7802   -0.1153   -0.1449 N   0  0  0  0  0  0  0  0  0  0  0  0
   -1.0800    2.5776    1.2811 C   0  0  0  0  0  0  0  0  0  0  0  0
   -0.2861   -1.9493    1.3950 C   0  0  0  0  0  0  0  0  0  0  0  0
    2.8372    0.2100   -1.2299 C   0  0  0  0  0  0  0  0  0  0  0  0
   -3.1401    2.8475   -0.5544 C   0  0  0  0  0  0  0  0  0  0  0  0
   -2.7481   -2.8046    0.5166 C   0  0  0  0  0  0  0  0  0  0  0  0
    5.1063    0.4262   -0.4603 C   0  0  0  0  0  0  0  0  0  0  0  0
    3.8834   -1.5600    0.0773 C   0  0  0  0  0  0  0  0  0  0  0  0
   -0.6935   -3.2616    1.6487 C   0  0  0  0  0  0  0  0  0  0  0  0
   -1.7966    3.7740    1.2116 C   0  0  0  0  0  0  0  0  0  0  0  0
   -1.9314   -3.6911    1.2101 C   0  0  0  0  0  0  0  0  0  0  0  0
   -2.8245    3.9109    0.2871 C   0  0  0  0  0  0  0  0  0  0  0  0
   -3.6853   -0.1948    1.3578 H   0  0  0  0  0  0  0  0  0  0  0  0
   -4.6164   -1.0745    0.1550 H   0  0  0  0  0  0  0  0  0  0  0  0
   -3.1489    0.1922   -1.6707 H   0  0  0  0  0  0  0  0  0  0  0  0
   -4.5513    0.9244   -0.9086 H   0  0  0  0  0  0  0  0  0  0  0  0
    0.9860   -0.2866   -1.2370 H   0  0  0  0  0  0  0  0  0  0  0  0
    0.9003    1.3487   -0.7554 H   0  0  0  0  0  0  0  0  0  0  0  0
    1.4126    0.6086    1.6944 H   0  0  0  0  0  0  0  0  0  0  0  0
    1.7526   -0.9719    1.0839 H   0  0  0  0  0  0  0  0  0  0  0  0
    0.3128    2.3610    1.2653 H   0  0  0  0  0  0  0  0  0  0  0  0
    0.7521   -2.1674   -0.4122 H   0  0  0  0  0  0  0  0  0  0  0  0
    3.8003    0.4397    1.3289 H   0  0  0  0  0  0  0  0  0  0  0  0
    3.0931    1.6389    0.2554 H   0  0  0  0  0  0  0  0  0  0  0  0
   -4.2877    3.0790   -0.3197 H   0  0  0  0  0  0  0  0  0  0  0  0
   -3.9833   -3.1849    0.3877 H   0  0  0  0  0  0  0  0  0  0  0  0
    5.3867    0.1374   -2.0419 H   0  0  0  0  0  0  0  0  0  0  0  0
    4.6963    1.6381   -1.4480 H   0  0  0  0  0  0  0  0  0  0  0  0
    5.7125    0.6526   -0.3727 H   0  0  0  0  0  0  0  0  0  0  0  0
    4.5366   -1.9798   -1.3175 H   0  0  0  0  0  0  0  0  0  0  0  0
    3.2146   -2.0948   -0.1765 H   0  0  0  0  0  0  0  0  0  0  0  0
    4.8210   -1.5843    0.3908 H   0  0  0  0  0  0  0  0  0  0  0  0
    0.0136   -4.4381   -0.3842 H   0  0  0  0  0  0  0  0  0  0  0  0
   -0.7209    4.5307    1.5180 H   0  0  0  0  0  0  0  0  0  0  0  0
   -2.3675   -4.9963    0.0433 H   0  0  0  0  0  0  0  0  0  0  0  0
   -3.0336    4.9256    0.7058 H   0  0  0  0  0  0  0  0  0  0  0  0
   -0.1251   -2.1734   -0.4643 H   0  0  0  0  0  0  0  0  0  0  0  0
   -0.1804   -1.0444   -1.7780 H   0  0  0  0  0  0  0  0  0  0  0  0
   -4.8704    0.6935    1.2420 H   0  0  0  0  0  0  0  0  0  0  0  0
    4.7841    0.7997    0.7185 H   0  0  0  0  0  0  0  0  0  0  0  0
   -0.4244   -1.7595    1.8381 H   0  0  0  0  0  0  0  0  0  0  0  0
    0.5255    1.7246    1.9066 H   0  0  0  0  0  0  0  0  0  0  0  0
   -5.4030   -1.7756    3.4992 H   0  0  0  0  0  0  0  0  0  0  0  0
    2.1162    3.2756    3.1649 H   0  0  0  0  0  0  0  0  0  0  0  0
   -0.6168    1.0073   -2.3187 H   0  0  0  0  0  0  0  0  0  0  0  0
    1.4461   -2.6011   -2.1267 H   0  0  0  0  0  0  0  0  0  0  0  0
   -5.0075    2.3754   -0.4908 H   0  0  0  0  0  0  0  0  0  0  0  0
    5.8344   -0.7728   -0.7683 H   0  0  0  0  0  0  0  0  0  0  0  0
    3.4905   -3.5027   -3.0780 H   0  0  0  0  0  0  0  0  0  0  0  0
   -1.8602    2.8325   -3.3514 H   0  0  0  0  0  0  0  0  0  0  0  0
    5.6998   -2.5991   -2.4070 H   0  0  0  0  0  0  0  0  0  0  0  0
   -4.0613    3.5265   -2.4454 H   0  0  0  0  0  0  0  0  0  0  0  0
   -4.1127   -0.2983    0.1452 H   0  0  0  0  0  0  0  0  0  0  0  0
   -3.8486   -1.3321   -1.2594 H   0  0  0  0  0  0  0  0  0  0  0  0
   -1.9283    0.1894   -1.9846 H   0  0  0  0  0  0  0  0  0  0  0  0
   -3.5643    0.8151   -2.0921 H   0  0  0  0  0  0  0  0  0  0  0  0
    1.3995    0.2065    1.2297 H   0  0  0  0  0  0  0  0  0  0  0  0
    1.0801    1.6031    0.2479 H   0  0  0  0  0  0  0  0  0  0  0  0
    0.7660    0.1851   -1.7891 H   0  0  0  0  0  0  0  0  0  0  0  0
    1.2537   -1.2302   -0.8851 H   0  0  0  0  0  0  0  0  0  0  0  0
   -0.2947    2.4818    2.0260 H   0  0  0  0  0  0  0  0  0  0  0  0
    0.6748   -1.6547    1.8060 H   0  0  0  0  0  0  0  0  0  0  0  0
    2.8776    1.2915   -1.4228 H   0  0  0  0  0  0  0  0  0  0  0  0
    3.1399   -0.2816   -2.1634 H   0  0  0  0  0  0  0  0  0  0  0  0
   -3.9550    2.9614   -1.2667 H   0  0  0  0  0  0  0  0  0  0  0  0
   -3.7239   -3.1546    0.1831 H   0  0  0  0  0  0  0  0  0  0  0  0
    5.0588    1.5133   -0.5878 H   0  0  0  0  0  0  0  0  0  0  0  0
    5.8049    0.2383    0.3614 H   0  0  0  0  0  0  0  0  0  0  0  0
    5.5208   -0.0106   -1.3751 H   0  0  0  0  0  0  0  0  0  0  0  0
    2.9359   -1.9745    0.4336 H   0  0  0  0  0  0  0  0  0  0  0  0
    4.6188   -1.7759    0.8617 H   0  0  0  0  0  0  0  0  0  0  0  0
    4.1804   -2.0986   -0.8289 H   0  0  0  0  0  0  0  0  0  0  0  0
   -0.0459   -3.9340    2.2046 H   0  0  0  0  0  0  0  0  0  0  0  0
   -1.5516    4.5929    1.8825 H   0  0  0  0  0  0  0  0  0  0  0  0
   -2.2679   -4.7038    1.4091 H   0  0  0  0  0  0  0  0  0  0  0  0
   -3.3870    4.8385    0.2281 H   0  0  0  0  0  0  0  0  0  0  0  0
  2  1  1  0
  3  1  1  0
  4  2  2  0
  5  3  2  0
  6  4  1  0
  7  5  1  0
  8  1  1  0
  9  8  1  0
 10 13  1  0
 11  3  1  0
 12  2  1  0
 13  9  1  0
 14  5  1  0
 15  4  1  0
 16 10  1  0
 17 10  1  0
 18 12  2  0
 19 11  2  0
 20 15  2  0
 21 14  2  0
  6  7  1  0
 18 20  1  0
 19 21  1  0
 23 27  2  0
 24 28  1  0
 25 26  1  0
 26 22  2  0
 27 24  1  0
 28 25  1  0
 29 22  1  0
 30 23  1  0
 31 22  1  0
 32 23  1  0
 33 24  2  0
 34 35  1  0
 35 29  2  0
 36 33  1  0
 37 31  2  0
 38 32  2  0
 39 26  1  0
 40 27  1  0
 41 31  1  0
 42 32  1  0
 43 34  1  0
 44 33  1  0
 45 35  1  0
 46 36  1  0
 47 44  2  0
 48 43  2  0
 49 47  1  0
 50 45  2  0
 25 34  2  0
 48 50  1  0
 30 36  2  0
 46 49  2  0
 52 51  1  0
 53 51  1  0
 54 52  2  0
 55 53  2  0
 56 54  1  0
 57 55  1  0
 58 51  1  0
 59 58  1  0
 60 63  1  0
 61 53  1  0
 62 52  1  0
 63 59  1  0
 64 55  1  0
 65 54  1  0
 66 60  1  0
 67 60  1  0
 68 62  2  0
 69 61  2  0
 70 65  2  0
 71 64  2  0
 56 57  1  0
 68 70  1  0
 69 71  1  0
  6 72  1  0
  6 73  1  0
  7 74  1  0
  7 75  1  0
  8 76  1  0
  8 77  1  0
  9 78  1  0
  9 79  1  0
 11 80  1  0
 12 81  1  0
 13 82  1  0
 13 83  1  0
 14 84  1  0
 15 85  1  0
 16 86  1  0
 16 87  1  0
 16 88  1  0
 17 89  1  0
 17 90  1  0
 17 91  1  0
 18 92  1  0
 19 93  1  0
 20 94  1  0
 21 95  1  0
 28 96  1  0
 28 97  1  0
 29 98  1  0
 30 99  1  0
 39100  1  0
 40101  1  0
 41102  1  0
 42103  1  0
 43104  1  0
 44105  1  0
 45106  1  0
 46107  1  0
 47108  1  0
 48109  1  0
 49110  1  0
 50111  1  0
 56112  1  0
 56113  1  0
 57114  1  0
 57115  1  0
 58116  1  0
 58117  1  0
 59118  1  0
 59119  1  0
 61120  1  0
 62121  1  0
 63122  1  0
 63123  1  0
 64124  1  0
 65125  1  0
 66126  1  0
 66127  1  0
 66128  1  0
 67129  1  0
 67130  1  0
 67131  1  0
 68132  1  0
 69133  1  0
 70134  1  0
 71135  1  0
M  END
$$$$
