
     RDKit          3D

135142  0  0  0  0  0  0  0  0999 V2000
   -0.7921   -0.1504    0.1372 N   0  0  0  0  0  0  0  0  0  0  0  0
   -1.2738   -1.0907   -0.8335 C   0  0  0  0  0  0  0  0  0  0  0  0
   -1.4442    0.9603    0.7709 C   0  0  0  0  0  0  0  0  0  0  0  0
   -2.6139   -1.5111   -0.9129 C   0  0  0  0  0  0  0  0  0  0  0  0
   -2.7763    1.3616    0.5076 C   0  0  0  0  0  0  0  0  0  0  0  0
   -3.6802   -0.9026   -0.0530 C   0  0  0  0  0  0  0  0  0  0  0  0
   -3.7401    0.5850   -0.3506 C   0  0  0  0  0  0  0  0  0  0  0  0
    0.5191   -0.5724    0.7141 C   0  0  0  0  0  0  0  0  0  0  0  0
    1.7089    0.2320    0.1592 C   0  0  0  0  0  0  0  0  0  0  0  0
    4.1951    0.5267    0.4152 N   0  0  0  0  0  0  0  0  0  0  0  0
   -0.7490    1.7837    1.6963 C   0  0  0  0  0  0  0  0  0  0  0  0
   -0.3886   -1.6713   -1.7738 C   0  0  0  0  0  0  0  0  0  0  0  0
    3.0266   -0.3154    0.7251 C   0  0  0  0  0  0  0  0  0  0  0  0
   -3.3108    2.5438    1.0863 C   0  0  0  0  0  0  0  0  0  0  0  0
   -3.0110   -2.5029   -1.8391 C   0  0  0  0  0  0  0  0  0  0  0  0
    5.3762    0.0255    1.1241 C   0  0  0  0  0  0  0  0  0  0  0  0
    4.4712    0.5945   -1.0208 C   0  0  0  0  0  0  0  0  0  0  0  0
   -0.7870   -2.6431   -2.6987 C   0  0  0  0  0  0  0  0  0  0  0  0
   -1.2945    2.9350    2.2827 C   0  0  0  0  0  0  0  0  0  0  0  0
   -2.1018   -3.0701   -2.7222 C   0  0  0  0  0  0  0  0  0  0  0  0
   -2.5775    3.3252    1.9645 C   0  0  0  0  0  0  0  0  0  0  0  0
   -2.6797   -0.6068   -1.1273 C   0  0  0  0  0  0  0  0  0  0  0  0
    3.2346   -1.8105    0.2204 C   0  0  0  0  0  0  0  0  0  0  0  0
    1.4663   -0.1599    0.5945 C   0  0  0  0  0  0  0  0  0  0  0  0
   -1.1690    0.1584    0.6516 C   0  0  0  0  0  0  0  0  0  0  0  0
   -1.4036   -0.5685   -0.5381 C   0  0  0  0  0  0  0  0  0  0  0  0
    2.0774   -1.3978    0.8932 C   0  0  0  0  0  0  0  0  0  0  0  0
    0.1987    0.2379    1.3391 C   0  0  0  0  0  0  0  0  0  0  0  0
   -3.7431    0.0646   -0.5159 C   0  0  0  0  0  0  0  0  0  0  0  0
    3.7977   -0.9731   -0.7481 C   0  0  0  0  0  0  0  0  0  0  0  0
   -3.0052   -1.3366   -2.3814 C   0  0  0  0  0  0  0  0  0  0  0  0
    3.9269   -3.1005    0.4648 C   0  0  0  0  0  0  0  0  0  0  0  0
    2.0421    0.6889   -0.4025 C   0  0  0  0  0  0  0  0  0  0  0  0
   -2.2808    0.8157    1.2872 C   0  0  0  0  0  0  0  0  0  0  0  0
   -3.5622    0.7642    0.6794 C   0  0  0  0  0  0  0  0  0  0  0  0
    3.2206    0.2634   -1.0658 C   0  0  0  0  0  0  0  0  0  0  0  0
   -4.1098   -1.4423   -2.8842 O   0  0  0  0  0  0  0  0  0  0  0  0
    4.9573   -3.4746   -0.0656 O   0  0  0  0  0  0  0  0  0  0  0  0
   -0.3580   -1.2543   -1.1019 O   0  0  0  0  0  0  0  0  0  0  0  0
    1.4938   -2.1715    1.8676 O   0  0  0  0  0  0  0  0  0  0  0  0
   -1.9291   -1.9001   -2.9700 O   0  0  0  0  0  0  0  0  0  0  0  0
    3.2978   -3.8811    1.3698 O   0  0  0  0  0  0  0  0  0  0  0  0
   -2.1941    1.5201    2.5147 C   0  0  0  0  0  0  0  0  0  0  0  0
    1.5046    1.9423   -0.7825 C   0  0  0  0  0  0  0  0  0  0  0  0
   -4.6656    1.3999    1.2746 C   0  0  0  0  0  0  0  0  0  0  0  0
    3.8147    1.0756   -2.0462 C   0  0  0  0  0  0  0  0  0  0  0  0
    2.1045    2.7388   -1.7617 C   0  0  0  0  0  0  0  0  0  0  0  0
   -3.3011    2.1443    3.1004 C   0  0  0  0  0  0  0  0  0  0  0  0
    3.2627    2.3072   -2.3911 C   0  0  0  0  0  0  0  0  0  0  0  0
   -4.5380    2.0874    2.4775 C   0  0  0  0  0  0  0  0  0  0  0  0
   -0.8366    0.2803    0.6711 N   0  0  0  0  0  0  0  0  0  0  0  0
   -1.3926   -1.0208    0.6475 C   0  0  0  0  0  0  0  0  0  0  0  0
   -1.4751    1.4870    0.3009 C   0  0  0  0  0  0  0  0  0  0  0  0
   -2.3600   -1.4492   -0.2893 C   0  0  0  0  0  0  0  0  0  0  0  0
   -2.0492    1.6540   -0.9670 C   0  0  0  0  0  0  0  0  0  0  0  0
   -2.8971   -0.6240   -1.4409 C   0  0  0  0  0  0  0  0  0  0  0  0
   -2.0232    0.5161   -1.9461 C   0  0  0  0  0  0  0  0  0  0  0  0
    0.5657    0.4621    1.1138 C   0  0  0  0  0  0  0  0  0  0  0  0
    1.5497   -0.2979    0.2097 C   0  0  0  0  0  0  0  0  0  0  0  0
    3.9950   -0.7985   -0.1034 N   0  0  0  0  0  0  0  0  0  0  0  0
   -1.5450    2.5610    1.2084 C   0  0  0  0  0  0  0  0  0  0  0  0
   -1.0062   -1.9568    1.6371 C   0  0  0  0  0  0  0  0  0  0  0  0
    2.9975    0.0277    0.5993 C   0  0  0  0  0  0  0  0  0  0  0  0
   -2.6552    2.8743   -1.3144 C   0  0  0  0  0  0  0  0  0  0  0  0
   -2.9052   -2.7524   -0.1891 C   0  0  0  0  0  0  0  0  0  0  0  0
    4.0065   -0.5478   -1.5465 C   0  0  0  0  0  0  0  0  0  0  0  0
    5.3275   -0.5487    0.4533 C   0  0  0  0  0  0  0  0  0  0  0  0
   -1.5392   -3.2461    1.7112 C   0  0  0  0  0  0  0  0  0  0  0  0
   -2.1563    3.7693    0.8636 C   0  0  0  0  0  0  0  0  0  0  0  0
   -2.4962   -3.6447    0.7959 C   0  0  0  0  0  0  0  0  0  0  0  0
   -2.7085    3.9251   -0.4026 C   0  0  0  0  0  0  0  0  0  0  0  0
   -3.4942   -1.1243    1.0056 H   0  0  0  0  0  0  0  0  0  0  0  0
   -4.6531   -1.3451   -0.2945 H   0  0  0  0  0  0  0  0  0  0  0  0
   -3.5603    0.8190   -1.4077 H   0  0  0  0  0  0  0  0  0  0  0  0
   -4.7651    0.9126   -0.1325 H   0  0  0  0  0  0  0  0  0  0  0  0
    0.4900   -0.5195    1.8110 H   0  0  0  0  0  0  0  0  0  0  0  0
    0.6988   -1.6429    0.5401 H   0  0  0  0  0  0  0  0  0  0  0  0
    1.7217    0.1880   -0.9327 H   0  0  0  0  0  0  0  0  0  0  0  0
    1.6212    1.2936    0.4069 H   0  0  0  0  0  0  0  0  0  0  0  0
    0.2689    1.5710    2.0014 H   0  0  0  0  0  0  0  0  0  0  0  0
    0.6500   -1.3665   -1.8217 H   0  0  0  0  0  0  0  0  0  0  0  0
    3.1841   -1.3427    0.3687 H   0  0  0  0  0  0  0  0  0  0  0  0
    2.9217   -0.3682    1.8173 H   0  0  0  0  0  0  0  0  0  0  0  0
   -4.3301    2.8501    0.8545 H   0  0  0  0  0  0  0  0  0  0  0  0
   -4.0487   -2.8270   -1.8803 H   0  0  0  0  0  0  0  0  0  0  0  0
    5.2055    0.0269    2.2069 H   0  0  0  0  0  0  0  0  0  0  0  0
    5.6403   -0.9932    0.8163 H   0  0  0  0  0  0  0  0  0  0  0  0
    6.2393    0.6770    0.9446 H   0  0  0  0  0  0  0  0  0  0  0  0
    5.3729    1.1877   -1.2118 H   0  0  0  0  0  0  0  0  0  0  0  0
    3.6626    1.0998   -1.5569 H   0  0  0  0  0  0  0  0  0  0  0  0
    4.6159   -0.3992   -1.4611 H   0  0  0  0  0  0  0  0  0  0  0  0
   -0.0652   -3.0576   -3.3961 H   0  0  0  0  0  0  0  0  0  0  0  0
   -0.6979    3.5233    2.9748 H   0  0  0  0  0  0  0  0  0  0  0  0
   -2.4250   -3.8251   -3.4327 H   0  0  0  0  0  0  0  0  0  0  0  0
   -3.0096    4.2192    2.4008 H   0  0  0  0  0  0  0  0  0  0  0  0
    0.3703    1.2745    1.6617 H   0  0  0  0  0  0  0  0  0  0  0  0
    0.1191   -0.3304    2.2748 H   0  0  0  0  0  0  0  0  0  0  0  0
   -4.7306    0.0264   -0.9757 H   0  0  0  0  0  0  0  0  0  0  0  0
    4.7012   -1.2930   -1.2660 H   0  0  0  0  0  0  0  0  0  0  0  0
   -0.6594   -1.6581   -1.9396 H   0  0  0  0  0  0  0  0  0  0  0  0
    1.9495   -3.0376    1.8753 H   0  0  0  0  0  0  0  0  0  0  0  0
   -2.3127   -2.3165   -3.7750 H   0  0  0  0  0  0  0  0  0  0  0  0
    3.8827   -4.6693    1.4183 H   0  0  0  0  0  0  0  0  0  0  0  0
   -1.2549    1.5855    3.0585 H   0  0  0  0  0  0  0  0  0  0  0  0
    0.5941    2.3179   -0.3245 H   0  0  0  0  0  0  0  0  0  0  0  0
   -5.6469    1.3571    0.8041 H   0  0  0  0  0  0  0  0  0  0  0  0
    4.7222    0.7523   -2.5542 H   0  0  0  0  0  0  0  0  0  0  0  0
    1.6630    3.6957   -2.0286 H   0  0  0  0  0  0  0  0  0  0  0  0
   -3.1902    2.6720    4.0450 H   0  0  0  0  0  0  0  0  0  0  0  0
    3.7340    2.9224   -3.1535 H   0  0  0  0  0  0  0  0  0  0  0  0
   -5.4018    2.5700    2.9269 H   0  0  0  0  0  0  0  0  0  0  0  0
   -3.8900   -0.2466   -1.1574 H   0  0  0  0  0  0  0  0  0  0  0  0
   -3.0493   -1.2982   -2.2956 H   0  0  0  0  0  0  0  0  0  0  0  0
   -0.9914    0.1915   -2.1250 H   0  0  0  0  0  0  0  0  0  0  0  0
   -2.4088    0.8558   -2.9153 H   0  0  0  0  0  0  0  0  0  0  0  0
    0.6841    0.1720    2.1640 H   0  0  0  0  0  0  0  0  0  0  0  0
    0.8560    1.5220    1.0790 H   0  0  0  0  0  0  0  0  0  0  0  0
    1.3608   -0.0199   -0.8330 H   0  0  0  0  0  0  0  0  0  0  0  0
    1.3877   -1.3791    0.2879 H   0  0  0  0  0  0  0  0  0  0  0  0
   -1.1410    2.4464    2.2115 H   0  0  0  0  0  0  0  0  0  0  0  0
   -0.2915   -1.6842    2.4074 H   0  0  0  0  0  0  0  0  0  0  0  0
    3.1931    1.0940    0.4308 H   0  0  0  0  0  0  0  0  0  0  0  0
    3.0986   -0.1487    1.6766 H   0  0  0  0  0  0  0  0  0  0  0  0
   -3.1014    3.0040   -2.2978 H   0  0  0  0  0  0  0  0  0  0  0  0
   -3.6624   -3.0803   -0.9001 H   0  0  0  0  0  0  0  0  0  0  0  0
    3.0679   -0.8721   -2.0153 H   0  0  0  0  0  0  0  0  0  0  0  0
    4.1690    0.5127   -1.7788 H   0  0  0  0  0  0  0  0  0  0  0  0
    4.8016   -1.1312   -2.0311 H   0  0  0  0  0  0  0  0  0  0  0  0
    6.0877   -1.1498   -0.0577 H   0  0  0  0  0  0  0  0  0  0  0  0
    5.6132    0.5092    0.3757 H   0  0  0  0  0  0  0  0  0  0  0  0
    5.3589   -0.8381    1.5127 H   0  0  0  0  0  0  0  0  0  0  0  0
   -1.2123   -3.9261    2.4929 H   0  0  0  0  0  0  0  0  0  0  0  0
   -2.2132    4.5763    1.5866 H   0  0  0  0  0  0  0  0  0  0  0  0
   -2.9256   -4.6418    0.8460 H   0  0  0  0  0  0  0  0  0  0  0  0
   -3.1881    4.8625   -0.6766 H   0  0  0  0  0  0  0  0  0  0  0  0
  2  1  1  0
  3  1  1  0
  4  2  2  0
  5  3  2  0
  6  4  1  0
  7  5  1  0
  8  1  1  0
  9  8  1  0
 10 13  1  0
 11  3  1  0
 12  2  1  0
 13  9  1  0
 14  5  1  0
 15  4  1  0
 16 10  1  0
 17 10  1  0
 18 12  2  0
 19 11  2  0
 20 15  2  0
 21 14  2  0
  6  7  1  0
 18 20  1  0
 19 21  1  0
 23 27  2  0
 24 28  1  0
 25 26  1  0
 26 22  2  0
 27 24  1  0
 28 25  1  0
 29 22  1  0
 30 23  1  0
 31 22  1  0
 32 23  1  0
 33 24  2  0
 34 35  1  0
 35 29  2  0
 36 33  1  0
 37 31  2  0
 38 32  2  0
 39 26  1  0
 40 27  1  0
 41 31  1  0
 42 32  1  0
 43 34  1  0
 44 33  1  0
 45 35  1  0
 46 36  1  0
 47 44  2  0
 48 43  2  0
 49 47  1  0
 50 45  2  0
 25 34  2  0
 48 50  1  0
 30 36  2  0
 46 49  2  0
 52 51  1  0
 53 51  1  0
 54 52  2  0
 55 53  2  0
 56 54  1  0
 57 55  1  0
 58 51  1  0
 59 58  1  0
 60 63  1  0
 61 53  1  0
 62 52  1  0
 63 59  1  0
 64 55  1  0
 65 54  1  0
 66 60  1  0
 67 60  1  0
 68 62  2  0
 69 61  2  0
 70 65  2  0
 71 64  2  0
 56 57  1  0
 68 70  1  0
 69 71  1  0
  6 72  1  0
  6 73  1  0
  7 74  1  0
  7 75  1  0
  8 76  1  0
  8 77  1  0
  9 78  1  0
  9 79  1  0
 11 80  1  0
 12 81  1  0
 13 82  1  0
 13 83  1  0
 14 84  1  0
 15 85  1  0
 16 86  1  0
 16 87  1  0
 16 88  1  0
 17 89  1  0
 17 90  1  0
 17 91  1  0
 18 92  1  0
 19 93  1  0
 20 94  1  0
 21 95  1  0
 28 96  1  0
 28 97  1  0
 29 98  1  0
 30 99  1  0
 39100  1  0
 40101  1  0
 41102  1  0
 42103  1  0
 43104  1  0
 44105  1  0
 45106  1  0
 46107  1  0
 47108  1  0
 48109  1  0
 49110  1  0
 50111  1  0
 56112  1  0
 56113  1  0
 57114  1  0
 57115  1  0
 58116  1  0
 58117  1  0
 59118  1  0
 59119  1  0
 61120  1  0
 62121  1  0
 63122  1  0
 63123  1  0
 64124  1  0
 65125  1  0
 66126  1  0
 66127  1  0
 66128  1  0
 67129  1  0
 67130  1  0
 67131  1  0
 68132  1  0
 69133  1  0
 70134  1  0
 71135  1  0
M  END
$$$$
