
     RDKit          3D

135142  0  0  0  0  0  0  0  0999 V2000
   -0.5932    0.2675   -1.0698 N   0  0  0  0  0  0  0  0  0  0  0  0
   -1.1269    1.5578   -0.7757 C   0  0  0  0  0  0  0  0  0  0  0  0
   -1.1032   -1.0179   -0.7297 C   0  0  0  0  0  0  0  0  0  0  0  0
   -2.1892    1.7930    0.1346 C   0  0  0  0  0  0  0  0  0  0  0  0
   -1.5854   -1.3307    0.5492 C   0  0  0  0  0  0  0  0  0  0  0  0
   -2.7812    0.7465    1.0529 C   0  0  0  0  0  0  0  0  0  0  0  0
   -1.7623   -0.2558    1.5844 C   0  0  0  0  0  0  0  0  0  0  0  0
    0.7547    0.1938   -1.6979 C   0  0  0  0  0  0  0  0  0  0  0  0
    1.8885    0.4945   -0.7082 C   0  0  0  0  0  0  0  0  0  0  0  0
    3.4876   -0.5471    0.8884 N   0  0  0  0  0  0  0  0  0  0  0  0
   -1.1128   -2.0502   -1.6914 C   0  0  0  0  0  0  0  0  0  0  0  0
   -0.6500    2.7074   -1.4600 C   0  0  0  0  0  0  0  0  0  0  0  0
    2.1976   -0.7163    0.1918 C   0  0  0  0  0  0  0  0  0  0  0  0
   -1.9633   -2.6485    0.8656 C   0  0  0  0  0  0  0  0  0  0  0  0
   -2.7618    3.0830    0.2552 C   0  0  0  0  0  0  0  0  0  0  0  0
    3.3562    0.3177    2.0599 C   0  0  0  0  0  0  0  0  0  0  0  0
    4.0147   -1.8514    1.2983 C   0  0  0  0  0  0  0  0  0  0  0  0
   -1.1979    3.9854   -1.3041 C   0  0  0  0  0  0  0  0  0  0  0  0
   -1.5045   -3.3531   -1.3796 C   0  0  0  0  0  0  0  0  0  0  0  0
   -2.2747    4.1700   -0.4582 C   0  0  0  0  0  0  0  0  0  0  0  0
   -1.9049   -3.6598   -0.0895 C   0  0  0  0  0  0  0  0  0  0  0  0
   -2.5446    0.2475    1.5388 C   0  0  0  0  0  0  0  0  0  0  0  0
    2.9519    2.3351   -0.2276 C   0  0  0  0  0  0  0  0  0  0  0  0
    1.1824    0.7727   -0.8665 C   0  0  0  0  0  0  0  0  0  0  0  0
   -1.3219    0.0550   -0.5833 C   0  0  0  0  0  0  0  0  0  0  0  0
   -1.5432    0.6886    0.6635 C   0  0  0  0  0  0  0  0  0  0  0  0
    1.7411    2.0700   -0.8666 C   0  0  0  0  0  0  0  0  0  0  0  0
   -0.1929    0.5412   -1.4969 C   0  0  0  0  0  0  0  0  0  0  0  0
   -3.3645   -0.8149    1.1513 C   0  0  0  0  0  0  0  0  0  0  0  0
    3.6465    1.3001    0.3957 C   0  0  0  0  0  0  0  0  0  0  0  0
   -2.8084    0.8353    2.8785 C   0  0  0  0  0  0  0  0  0  0  0  0
    3.5285    3.6947   -0.2305 C   0  0  0  0  0  0  0  0  0  0  0  0
    1.9139   -0.2976   -0.2596 C   0  0  0  0  0  0  0  0  0  0  0  0
   -2.2088   -0.9977   -0.9932 C   0  0  0  0  0  0  0  0  0  0  0  0
   -3.2223   -1.4282   -0.0966 C   0  0  0  0  0  0  0  0  0  0  0  0
    3.1504   -0.0075    0.3789 C   0  0  0  0  0  0  0  0  0  0  0  0
   -3.6927    0.5013    3.6464 O   0  0  0  0  0  0  0  0  0  0  0  0
    3.5937    4.4615   -1.1734 O   0  0  0  0  0  0  0  0  0  0  0  0
   -0.7570    1.7652    0.9699 O   0  0  0  0  0  0  0  0  0  0  0  0
    1.0740    3.1152   -1.4478 O   0  0  0  0  0  0  0  0  0  0  0  0
   -1.9472    1.8209    3.2048 O   0  0  0  0  0  0  0  0  0  0  0  0
    4.0034    4.0184    0.9844 O   0  0  0  0  0  0  0  0  0  0  0  0
   -2.1615   -1.6496   -2.2516 C   0  0  0  0  0  0  0  0  0  0  0  0
    1.4886   -1.6475   -0.2419 C   0  0  0  0  0  0  0  0  0  0  0  0
   -4.1022   -2.4646   -0.4548 C   0  0  0  0  0  0  0  0  0  0  0  0
    3.8861   -1.0321    1.0033 C   0  0  0  0  0  0  0  0  0  0  0  0
    2.2284   -2.6533    0.3895 C   0  0  0  0  0  0  0  0  0  0  0  0
   -3.0450   -2.6772   -2.5957 C   0  0  0  0  0  0  0  0  0  0  0  0
    3.4268   -2.3471    1.0144 C   0  0  0  0  0  0  0  0  0  0  0  0
   -4.0161   -3.0859   -1.6969 C   0  0  0  0  0  0  0  0  0  0  0  0
   -0.7663    0.1954    0.0840 N   0  0  0  0  0  0  0  0  0  0  0  0
   -1.4027    1.4726   -0.0618 C   0  0  0  0  0  0  0  0  0  0  0  0
   -1.2981   -1.1337   -0.0286 C   0  0  0  0  0  0  0  0  0  0  0  0
   -2.7441    1.7196    0.2836 C   0  0  0  0  0  0  0  0  0  0  0  0
   -2.6502   -1.4349   -0.3228 C   0  0  0  0  0  0  0  0  0  0  0  0
   -3.6606    0.6119    0.7151 C   0  0  0  0  0  0  0  0  0  0  0  0
   -3.7438   -0.4021   -0.4144 C   0  0  0  0  0  0  0  0  0  0  0  0
    0.5739    0.3226    0.7316 C   0  0  0  0  0  0  0  0  0  0  0  0
    1.7430    0.1492   -0.2551 C   0  0  0  0  0  0  0  0  0  0  0  0
    4.2487   -0.0062   -0.3655 N   0  0  0  0  0  0  0  0  0  0  0  0
   -0.4544   -2.2669    0.1124 C   0  0  0  0  0  0  0  0  0  0  0  0
   -0.6749    2.5759   -0.5589 C   0  0  0  0  0  0  0  0  0  0  0  0
    3.0706    0.0631    0.5113 C   0  0  0  0  0  0  0  0  0  0  0  0
   -3.0699   -2.7739   -0.5317 C   0  0  0  0  0  0  0  0  0  0  0  0
   -3.2828    3.0216    0.1996 C   0  0  0  0  0  0  0  0  0  0  0  0
    5.4704    0.1563    0.4290 C   0  0  0  0  0  0  0  0  0  0  0  0
    4.3160   -1.2725   -1.1008 C   0  0  0  0  0  0  0  0  0  0  0  0
   -1.2179    3.8622   -0.6552 C   0  0  0  0  0  0  0  0  0  0  0  0
   -0.8830   -3.5885   -0.0641 C   0  0  0  0  0  0  0  0  0  0  0  0
   -2.5233    4.0902   -0.2617 C   0  0  0  0  0  0  0  0  0  0  0  0
   -2.1959   -3.8431   -0.4062 C   0  0  0  0  0  0  0  0  0  0  0  0
   -3.6119    0.2545    0.5234 H   0  0  0  0  0  0  0  0  0  0  0  0
   -3.2199    1.2495    1.9281 H   0  0  0  0  0  0  0  0  0  0  0  0
   -0.8033    0.2071    1.8410 H   0  0  0  0  0  0  0  0  0  0  0  0
   -2.1593   -0.6954    2.5082 H   0  0  0  0  0  0  0  0  0  0  0  0
    0.9626   -0.7868   -2.1430 H   0  0  0  0  0  0  0  0  0  0  0  0
    0.8175    0.8580   -2.5636 H   0  0  0  0  0  0  0  0  0  0  0  0
    1.6750    1.3886   -0.1085 H   0  0  0  0  0  0  0  0  0  0  0  0
    2.7890    0.7208   -1.3068 H   0  0  0  0  0  0  0  0  0  0  0  0
   -0.8314   -1.8360   -2.7198 H   0  0  0  0  0  0  0  0  0  0  0  0
    0.1756    2.6537   -2.1644 H   0  0  0  0  0  0  0  0  0  0  0  0
    2.2483   -1.6062   -0.4527 H   0  0  0  0  0  0  0  0  0  0  0  0
    1.3872   -0.8924    0.9110 H   0  0  0  0  0  0  0  0  0  0  0  0
   -2.3215   -2.8908    1.8648 H   0  0  0  0  0  0  0  0  0  0  0  0
   -3.6039    3.2433    0.9292 H   0  0  0  0  0  0  0  0  0  0  0  0
    2.7355   -0.1348    2.8400 H   0  0  0  0  0  0  0  0  0  0  0  0
    4.3454    0.5219    2.4879 H   0  0  0  0  0  0  0  0  0  0  0  0
    2.9255    1.2897    1.8039 H   0  0  0  0  0  0  0  0  0  0  0  0
    4.1854   -2.4888    0.4203 H   0  0  0  0  0  0  0  0  0  0  0  0
    4.9872   -1.7391    1.7911 H   0  0  0  0  0  0  0  0  0  0  0  0
    3.3395   -2.3799    1.9779 H   0  0  0  0  0  0  0  0  0  0  0  0
   -0.7917    4.8260   -1.8627 H   0  0  0  0  0  0  0  0  0  0  0  0
   -1.4872   -4.1247   -2.1471 H   0  0  0  0  0  0  0  0  0  0  0  0
   -2.7300    5.1499   -0.3414 H   0  0  0  0  0  0  0  0  0  0  0  0
   -2.2020   -4.6737    0.1702 H   0  0  0  0  0  0  0  0  0  0  0  0
   -0.5721    1.4468   -1.9864 H   0  0  0  0  0  0  0  0  0  0  0  0
   -0.0005   -0.1589   -2.3136 H   0  0  0  0  0  0  0  0  0  0  0  0
   -4.1406   -1.1588    1.8337 H   0  0  0  0  0  0  0  0  0  0  0  0
    4.5895    1.5160    0.8911 H   0  0  0  0  0  0  0  0  0  0  0  0
   -0.9792    2.0746    1.8729 H   0  0  0  0  0  0  0  0  0  0  0  0
    0.9089    2.8835   -2.3777 H   0  0  0  0  0  0  0  0  0  0  0  0
   -2.2450    2.0837    4.1063 H   0  0  0  0  0  0  0  0  0  0  0  0
    4.2803    4.9552    0.8838 H   0  0  0  0  0  0  0  0  0  0  0  0
   -1.4339   -1.3708   -3.0096 H   0  0  0  0  0  0  0  0  0  0  0  0
    0.5612   -1.9479   -0.7230 H   0  0  0  0  0  0  0  0  0  0  0  0
   -4.8774   -2.7938    0.2353 H   0  0  0  0  0  0  0  0  0  0  0  0
    4.8326   -0.8106    1.4951 H   0  0  0  0  0  0  0  0  0  0  0  0
    1.8623   -3.6769    0.3873 H   0  0  0  0  0  0  0  0  0  0  0  0
   -2.9716   -3.1529   -3.5738 H   0  0  0  0  0  0  0  0  0  0  0  0
    4.0040   -3.1278    1.5022 H   0  0  0  0  0  0  0  0  0  0  0  0
   -4.7061   -3.8809   -1.9598 H   0  0  0  0  0  0  0  0  0  0  0  0
   -4.6641    1.0112    0.9028 H   0  0  0  0  0  0  0  0  0  0  0  0
   -3.3192    0.1796    1.6651 H   0  0  0  0  0  0  0  0  0  0  0  0
   -4.7192   -0.8999   -0.3184 H   0  0  0  0  0  0  0  0  0  0  0  0
   -3.7325    0.0610   -1.4082 H   0  0  0  0  0  0  0  0  0  0  0  0
    0.6560   -0.3952    1.5613 H   0  0  0  0  0  0  0  0  0  0  0  0
    0.6833    1.2887    1.2427 H   0  0  0  0  0  0  0  0  0  0  0  0
    1.7909    0.9907   -0.9542 H   0  0  0  0  0  0  0  0  0  0  0  0
    1.5971   -0.7373   -0.8773 H   0  0  0  0  0  0  0  0  0  0  0  0
    0.5964   -2.1708    0.3603 H   0  0  0  0  0  0  0  0  0  0  0  0
    0.3454    2.4581   -0.9060 H   0  0  0  0  0  0  0  0  0  0  0  0
    3.0488   -0.7911    1.2040 H   0  0  0  0  0  0  0  0  0  0  0  0
    3.1464    0.9679    1.1293 H   0  0  0  0  0  0  0  0  0  0  0  0
   -4.1089   -2.9835   -0.7867 H   0  0  0  0  0  0  0  0  0  0  0  0
   -4.3162    3.2045    0.4837 H   0  0  0  0  0  0  0  0  0  0  0  0
    5.5844   -0.6340    1.1821 H   0  0  0  0  0  0  0  0  0  0  0  0
    6.3571    0.1472   -0.2142 H   0  0  0  0  0  0  0  0  0  0  0  0
    5.4738    1.1226    0.9435 H   0  0  0  0  0  0  0  0  0  0  0  0
    3.4801   -1.3704   -1.8042 H   0  0  0  0  0  0  0  0  0  0  0  0
    4.3108   -2.1427   -0.4314 H   0  0  0  0  0  0  0  0  0  0  0  0
    5.2254   -1.3194   -1.7106 H   0  0  0  0  0  0  0  0  0  0  0  0
   -0.6092    4.6763   -1.0384 H   0  0  0  0  0  0  0  0  0  0  0  0
   -0.1791   -4.4091    0.0470 H   0  0  0  0  0  0  0  0  0  0  0  0
   -2.9550    5.0857   -0.3238 H   0  0  0  0  0  0  0  0  0  0  0  0
   -2.5474   -4.8591   -0.5614 H   0  0  0  0  0  0  0  0  0  0  0  0
  2  1  1  0
  3  1  1  0
  4  2  2  0
  5  3  2  0
  6  4  1  0
  7  5  1  0
  8  1  1  0
  9  8  1  0
 10 13  1  0
 11  3  1  0
 12  2  1  0
 13  9  1  0
 14  5  1  0
 15  4  1  0
 16 10  1  0
 17 10  1  0
 18 12  2  0
 19 11  2  0
 20 15  2  0
 21 14  2  0
  6  7  1  0
 18 20  1  0
 19 21  1  0
 23 27  2  0
 24 28  1  0
 25 26  1  0
 26 22  2  0
 27 24  1  0
 28 25  1  0
 29 22  1  0
 30 23  1  0
 31 22  1  0
 32 23  1  0
 33 24  2  0
 34 35  1  0
 35 29  2  0
 36 33  1  0
 37 31  2  0
 38 32  2  0
 39 26  1  0
 40 27  1  0
 41 31  1  0
 42 32  1  0
 43 34  1  0
 44 33  1  0
 45 35  1  0
 46 36  1  0
 47 44  2  0
 48 43  2  0
 49 47  1  0
 50 45  2  0
 25 34  2  0
 48 50  1  0
 30 36  2  0
 46 49  2  0
 52 51  1  0
 53 51  1  0
 54 52  2  0
 55 53  2  0
 56 54  1  0
 57 55  1  0
 58 51  1  0
 59 58  1  0
 60 63  1  0
 61 53  1  0
 62 52  1  0
 63 59  1  0
 64 55  1  0
 65 54  1  0
 66 60  1  0
 67 60  1  0
 68 62  2  0
 69 61  2  0
 70 65  2  0
 71 64  2  0
 56 57  1  0
 68 70  1  0
 69 71  1  0
  6 72  1  0
  6 73  1  0
  7 74  1  0
  7 75  1  0
  8 76  1  0
  8 77  1  0
  9 78  1  0
  9 79  1  0
 11 80  1  0
 12 81  1  0
 13 82  1  0
 13 83  1  0
 14 84  1  0
 15 85  1  0
 16 86  1  0
 16 87  1  0
 16 88  1  0
 17 89  1  0
 17 90  1  0
 17 91  1  0
 18 92  1  0
 19 93  1  0
 20 94  1  0
 21 95  1  0
 28 96  1  0
 28 97  1  0
 29 98  1  0
 30 99  1  0
 39100  1  0
 40101  1  0
 41102  1  0
 42103  1  0
 43104  1  0
 44105  1  0
 45106  1  0
 46107  1  0
 47108  1  0
 48109  1  0
 49110  1  0
 50111  1  0
 56112  1  0
 56113  1  0
 57114  1  0
 57115  1  0
 58116  1  0
 58117  1  0
 59118  1  0
 59119  1  0
 61120  1  0
 62121  1  0
 63122  1  0
 63123  1  0
 64124  1  0
 65125  1  0
 66126  1  0
 66127  1  0
 66128  1  0
 67129  1  0
 67130  1  0
 67131  1  0
 68132  1  0
 69133  1  0
 70134  1  0
 71135  1  0
M  END
$$$$
