
     RDKit          3D

135142  0  0  0  0  0  0  0  0999 V2000
   -0.5921    0.3418    0.2386 N   0  0  0  0  0  0  0  0  0  0  0  0
   -1.3857    1.4756    0.5497 C   0  0  0  0  0  0  0  0  0  0  0  0
   -0.9753   -0.9867    0.5390 C   0  0  0  0  0  0  0  0  0  0  0  0
   -2.7801    1.5261    0.3178 C   0  0  0  0  0  0  0  0  0  0  0  0
   -2.1015   -1.5469   -0.0840 C   0  0  0  0  0  0  0  0  0  0  0  0
   -3.6138    0.4198   -0.3001 C   0  0  0  0  0  0  0  0  0  0  0  0
   -2.8962   -0.7028   -1.0418 C   0  0  0  0  0  0  0  0  0  0  0  0
    0.8455    0.5564   -0.0560 C   0  0  0  0  0  0  0  0  0  0  0  0
    1.3302   -0.3388   -1.2082 C   0  0  0  0  0  0  0  0  0  0  0  0
    3.7731   -0.0135   -0.6437 N   0  0  0  0  0  0  0  0  0  0  0  0
   -0.2503   -1.7819    1.4407 C   0  0  0  0  0  0  0  0  0  0  0  0
   -0.7926    2.6099    1.1544 C   0  0  0  0  0  0  0  0  0  0  0  0
    2.7376    0.0386   -1.6895 C   0  0  0  0  0  0  0  0  0  0  0  0
   -2.4764   -2.8729    0.1814 C   0  0  0  0  0  0  0  0  0  0  0  0
   -3.5074    2.6838    0.6864 C   0  0  0  0  0  0  0  0  0  0  0  0
    4.0335   -1.3866   -0.2025 C   0  0  0  0  0  0  0  0  0  0  0  0
    5.0159    0.5823   -1.1438 C   0  0  0  0  0  0  0  0  0  0  0  0
   -1.5241    3.7486    1.5024 C   0  0  0  0  0  0  0  0  0  0  0  0
   -0.6264   -3.1021    1.7061 C   0  0  0  0  0  0  0  0  0  0  0  0
   -2.8871    3.7867    1.2644 C   0  0  0  0  0  0  0  0  0  0  0  0
   -1.7363   -3.6486    1.0718 C   0  0  0  0  0  0  0  0  0  0  0  0
    2.8714   -0.7353   -0.9592 C   0  0  0  0  0  0  0  0  0  0  0  0
   -2.6592    1.4371   -0.9575 C   0  0  0  0  0  0  0  0  0  0  0  0
   -1.3955   -0.2016    0.3545 C   0  0  0  0  0  0  0  0  0  0  0  0
    1.1773   -0.2577    0.7481 C   0  0  0  0  0  0  0  0  0  0  0  0
    1.6085   -0.9638   -0.3975 C   0  0  0  0  0  0  0  0  0  0  0  0
   -1.5759    1.1166   -0.1332 C   0  0  0  0  0  0  0  0  0  0  0  0
   -0.2249   -0.5287    1.2862 C   0  0  0  0  0  0  0  0  0  0  0  0
    3.7248    0.1989   -0.3703 C   0  0  0  0  0  0  0  0  0  0  0  0
   -3.5690    0.4488   -1.3306 C   0  0  0  0  0  0  0  0  0  0  0  0
    3.2906   -1.4857   -2.1648 C   0  0  0  0  0  0  0  0  0  0  0  0
   -2.9204    2.7977   -1.4676 C   0  0  0  0  0  0  0  0  0  0  0  0
   -2.3506   -1.2148   -0.0158 C   0  0  0  0  0  0  0  0  0  0  0  0
    2.0790    0.6600    1.3825 C   0  0  0  0  0  0  0  0  0  0  0  0
    3.3502    0.8880    0.7895 C   0  0  0  0  0  0  0  0  0  0  0  0
   -3.4343   -0.8627   -0.8673 C   0  0  0  0  0  0  0  0  0  0  0  0
    2.5649   -2.2344   -2.7961 O   0  0  0  0  0  0  0  0  0  0  0  0
   -3.3427    3.0697   -2.5795 O   0  0  0  0  0  0  0  0  0  0  0  0
    0.7505   -1.9005   -0.9179 O   0  0  0  0  0  0  0  0  0  0  0  0
   -0.6848    2.1169    0.1507 O   0  0  0  0  0  0  0  0  0  0  0  0
    4.5743   -1.2922   -2.5068 O   0  0  0  0  0  0  0  0  0  0  0  0
   -2.7736    3.7476   -0.5246 O   0  0  0  0  0  0  0  0  0  0  0  0
    1.8044    1.3711    2.5792 C   0  0  0  0  0  0  0  0  0  0  0  0
   -2.3030   -2.5718    0.3984 C   0  0  0  0  0  0  0  0  0  0  0  0
    4.2502    1.8052    1.3592 C   0  0  0  0  0  0  0  0  0  0  0  0
   -4.3900   -1.8190   -1.2550 C   0  0  0  0  0  0  0  0  0  0  0  0
   -3.2603   -3.5144    0.0056 C   0  0  0  0  0  0  0  0  0  0  0  0
    2.7128    2.2770    3.1376 C   0  0  0  0  0  0  0  0  0  0  0  0
   -4.3068   -3.1374   -0.8199 C   0  0  0  0  0  0  0  0  0  0  0  0
    3.9345    2.4976    2.5237 C   0  0  0  0  0  0  0  0  0  0  0  0
   -0.6910   -0.0359   -0.0662 N   0  0  0  0  0  0  0  0  0  0  0  0
   -1.2649   -1.3098   -0.3962 C   0  0  0  0  0  0  0  0  0  0  0  0
   -1.3082    1.2188    0.2541 C   0  0  0  0  0  0  0  0  0  0  0  0
   -2.4935   -1.7645    0.1140 C   0  0  0  0  0  0  0  0  0  0  0  0
   -2.7054    1.4375    0.2738 C   0  0  0  0  0  0  0  0  0  0  0  0
   -3.3762   -0.8785    0.9406 C   0  0  0  0  0  0  0  0  0  0  0  0
   -3.7332    0.3465    0.1184 C   0  0  0  0  0  0  0  0  0  0  0  0
    0.7817   -0.1359    0.1717 C   0  0  0  0  0  0  0  0  0  0  0  0
    1.6049    0.3891   -1.0140 C   0  0  0  0  0  0  0  0  0  0  0  0
    3.9706    0.5868   -0.1233 N   0  0  0  0  0  0  0  0  0  0  0  0
   -0.5234    2.3676    0.5373 C   0  0  0  0  0  0  0  0  0  0  0  0
   -0.5857   -2.2030   -1.2619 C   0  0  0  0  0  0  0  0  0  0  0  0
    3.0591   -0.1085   -1.0500 C   0  0  0  0  0  0  0  0  0  0  0  0
   -3.2376    2.7374    0.4832 C   0  0  0  0  0  0  0  0  0  0  0  0
   -2.9599   -3.0681   -0.1710 C   0  0  0  0  0  0  0  0  0  0  0  0
    5.3419    0.5462   -0.6503 C   0  0  0  0  0  0  0  0  0  0  0  0
    3.9699    0.0025    1.2207 C   0  0  0  0  0  0  0  0  0  0  0  0
   -1.0620   -3.4863   -1.5576 C   0  0  0  0  0  0  0  0  0  0  0  0
   -1.0588    3.6420    0.7733 C   0  0  0  0  0  0  0  0  0  0  0  0
   -2.2440   -3.9271   -0.9955 C   0  0  0  0  0  0  0  0  0  0  0  0
   -2.4229    3.8319    0.7308 C   0  0  0  0  0  0  0  0  0  0  0  0
   -4.3000    0.8839   -1.0223 H   0  0  0  0  0  0  0  0  0  0  0  0
   -4.2368   -0.0105    0.4984 H   0  0  0  0  0  0  0  0  0  0  0  0
   -2.2420   -0.3080   -1.8304 H   0  0  0  0  0  0  0  0  0  0  0  0
   -3.6423   -1.3244   -1.5511 H   0  0  0  0  0  0  0  0  0  0  0  0
    1.4512    0.4195    0.8468 H   0  0  0  0  0  0  0  0  0  0  0  0
    1.0092    1.5882   -0.3926 H   0  0  0  0  0  0  0  0  0  0  0  0
    0.6411   -0.2358   -2.0565 H   0  0  0  0  0  0  0  0  0  0  0  0
    1.3042   -1.3968   -0.9277 H   0  0  0  0  0  0  0  0  0  0  0  0
    0.6096   -1.3725    1.9639 H   0  0  0  0  0  0  0  0  0  0  0  0
    0.2663    2.6122    1.4049 H   0  0  0  0  0  0  0  0  0  0  0  0
    2.6805    1.0607   -2.0877 H   0  0  0  0  0  0  0  0  0  0  0  0
    3.0106   -0.6065   -2.5353 H   0  0  0  0  0  0  0  0  0  0  0  0
   -3.3474   -3.3063   -0.3039 H   0  0  0  0  0  0  0  0  0  0  0  0
   -4.5821    2.7231    0.5164 H   0  0  0  0  0  0  0  0  0  0  0  0
    4.8269   -1.4014    0.5535 H   0  0  0  0  0  0  0  0  0  0  0  0
    4.3389   -2.0348   -1.0308 H   0  0  0  0  0  0  0  0  0  0  0  0
    3.1525   -1.8243    0.2763 H   0  0  0  0  0  0  0  0  0  0  0  0
    4.8574    1.6307   -1.4212 H   0  0  0  0  0  0  0  0  0  0  0  0
    5.4076    0.0487   -2.0172 H   0  0  0  0  0  0  0  0  0  0  0  0
    5.7858    0.5809   -0.3643 H   0  0  0  0  0  0  0  0  0  0  0  0
   -1.0272    4.5939    1.9699 H   0  0  0  0  0  0  0  0  0  0  0  0
   -0.0525   -3.6973    2.4110 H   0  0  0  0  0  0  0  0  0  0  0  0
   -3.4696    4.6610    1.5386 H   0  0  0  0  0  0  0  0  0  0  0  0
   -2.0327   -4.6732    1.2779 H   0  0  0  0  0  0  0  0  0  0  0  0
   -0.2202   -1.5701    1.6167 H   0  0  0  0  0  0  0  0  0  0  0  0
   -0.4277    0.0202    2.2082 H   0  0  0  0  0  0  0  0  0  0  0  0
    4.7022    0.3868   -0.8105 H   0  0  0  0  0  0  0  0  0  0  0  0
   -4.3995    0.7137   -1.9833 H   0  0  0  0  0  0  0  0  0  0  0  0
    1.1206   -2.2648   -1.7535 H   0  0  0  0  0  0  0  0  0  0  0  0
   -0.2552    1.9483    1.0028 H   0  0  0  0  0  0  0  0  0  0  0  0
    4.7071   -1.8532   -3.3008 H   0  0  0  0  0  0  0  0  0  0  0  0
   -2.9810    4.5776   -0.9976 H   0  0  0  0  0  0  0  0  0  0  0  0
    0.8737    1.2340    3.1220 H   0  0  0  0  0  0  0  0  0  0  0  0
   -1.5028   -2.9445    1.0295 H   0  0  0  0  0  0  0  0  0  0  0  0
    5.2192    1.9874    0.8975 H   0  0  0  0  0  0  0  0  0  0  0  0
   -5.2162   -1.5420   -1.9071 H   0  0  0  0  0  0  0  0  0  0  0  0
   -3.1757   -4.5440    0.3448 H   0  0  0  0  0  0  0  0  0  0  0  0
    2.4607    2.8033    4.0552 H   0  0  0  0  0  0  0  0  0  0  0  0
   -5.0512   -3.8653   -1.1285 H   0  0  0  0  0  0  0  0  0  0  0  0
    4.6436    3.2004    2.9527 H   0  0  0  0  0  0  0  0  0  0  0  0
   -2.8919   -0.6364    1.8943 H   0  0  0  0  0  0  0  0  0  0  0  0
   -4.3032   -1.4097    1.1915 H   0  0  0  0  0  0  0  0  0  0  0  0
   -3.8727    0.1237   -0.9480 H   0  0  0  0  0  0  0  0  0  0  0  0
   -4.7022    0.7067    0.4875 H   0  0  0  0  0  0  0  0  0  0  0  0
    1.0728   -1.1754    0.3847 H   0  0  0  0  0  0  0  0  0  0  0  0
    1.0403    0.3789    1.1018 H   0  0  0  0  0  0  0  0  0  0  0  0
    1.1308    0.0873   -1.9542 H   0  0  0  0  0  0  0  0  0  0  0  0
    1.6038    1.4841   -1.0485 H   0  0  0  0  0  0  0  0  0  0  0  0
    0.5596    2.3277    0.5807 H   0  0  0  0  0  0  0  0  0  0  0  0
    0.3359   -1.9096   -1.7493 H   0  0  0  0  0  0  0  0  0  0  0  0
    3.1055   -1.1984   -0.9232 H   0  0  0  0  0  0  0  0  0  0  0  0
    3.3954    0.0869   -2.0755 H   0  0  0  0  0  0  0  0  0  0  0  0
   -4.3155    2.8943    0.4711 H   0  0  0  0  0  0  0  0  0  0  0  0
   -3.9051   -3.4130    0.2440 H   0  0  0  0  0  0  0  0  0  0  0  0
    5.3950    1.0322   -1.6325 H   0  0  0  0  0  0  0  0  0  0  0  0
    5.7130   -0.4818   -0.7506 H   0  0  0  0  0  0  0  0  0  0  0  0
    6.0253    1.0996    0.0042 H   0  0  0  0  0  0  0  0  0  0  0  0
    3.0153    0.1600    1.7263 H   0  0  0  0  0  0  0  0  0  0  0  0
    4.1849   -1.0730    1.2070 H   0  0  0  0  0  0  0  0  0  0  0  0
    4.7193    0.4904    1.8545 H   0  0  0  0  0  0  0  0  0  0  0  0
   -0.5005   -4.1322   -2.2277 H   0  0  0  0  0  0  0  0  0  0  0  0
   -0.3938    4.4774    0.9776 H   0  0  0  0  0  0  0  0  0  0  0  0
   -2.6221   -4.9223   -1.2106 H   0  0  0  0  0  0  0  0  0  0  0  0
   -2.8515    4.8141    0.8997 H   0  0  0  0  0  0  0  0  0  0  0  0
  2  1  1  0
  3  1  1  0
  4  2  2  0
  5  3  2  0
  6  4  1  0
  7  5  1  0
  8  1  1  0
  9  8  1  0
 10 13  1  0
 11  3  1  0
 12  2  1  0
 13  9  1  0
 14  5  1  0
 15  4  1  0
 16 10  1  0
 17 10  1  0
 18 12  2  0
 19 11  2  0
 20 15  2  0
 21 14  2  0
  6  7  1  0
 18 20  1  0
 19 21  1  0
 23 27  2  0
 24 28  1  0
 25 26  1  0
 26 22  2  0
 27 24  1  0
 28 25  1  0
 29 22  1  0
 30 23  1  0
 31 22  1  0
 32 23  1  0
 33 24  2  0
 34 35  1  0
 35 29  2  0
 36 33  1  0
 37 31  2  0
 38 32  2  0
 39 26  1  0
 40 27  1  0
 41 31  1  0
 42 32  1  0
 43 34  1  0
 44 33  1  0
 45 35  1  0
 46 36  1  0
 47 44  2  0
 48 43  2  0
 49 47  1  0
 50 45  2  0
 25 34  2  0
 48 50  1  0
 30 36  2  0
 46 49  2  0
 52 51  1  0
 53 51  1  0
 54 52  2  0
 55 53  2  0
 56 54  1  0
 57 55  1  0
 58 51  1  0
 59 58  1  0
 60 63  1  0
 61 53  1  0
 62 52  1  0
 63 59  1  0
 64 55  1  0
 65 54  1  0
 66 60  1  0
 67 60  1  0
 68 62  2  0
 69 61  2  0
 70 65  2  0
 71 64  2  0
 56 57  1  0
 68 70  1  0
 69 71  1  0
  6 72  1  0
  6 73  1  0
  7 74  1  0
  7 75  1  0
  8 76  1  0
  8 77  1  0
  9 78  1  0
  9 79  1  0
 11 80  1  0
 12 81  1  0
 13 82  1  0
 13 83  1  0
 14 84  1  0
 15 85  1  0
 16 86  1  0
 16 87  1  0
 16 88  1  0
 17 89  1  0
 17 90  1  0
 17 91  1  0
 18 92  1  0
 19 93  1  0
 20 94  1  0
 21 95  1  0
 28 96  1  0
 28 97  1  0
 29 98  1  0
 30 99  1  0
 39100  1  0
 40101  1  0
 41102  1  0
 42103  1  0
 43104  1  0
 44105  1  0
 45106  1  0
 46107  1  0
 47108  1  0
 48109  1  0
 49110  1  0
 50111  1  0
 56112  1  0
 56113  1  0
 57114  1  0
 57115  1  0
 58116  1  0
 58117  1  0
 59118  1  0
 59119  1  0
 61120  1  0
 62121  1  0
 63122  1  0
 63123  1  0
 64124  1  0
 65125  1  0
 66126  1  0
 66127  1  0
 66128  1  0
 67129  1  0
 67130  1  0
 67131  1  0
 68132  1  0
 69133  1  0
 70134  1  0
 71135  1  0
M  END
$$$$
