
     RDKit          3D

135142  0  0  0  0  0  0  0  0999 V2000
   -0.6452   -0.0618   -0.4321 N   0  0  0  0  0  0  0  0  0  0  0  0
   -1.0934    1.2823   -0.4623 C   0  0  0  0  0  0  0  0  0  0  0  0
   -1.4484   -1.2221   -0.5517 C   0  0  0  0  0  0  0  0  0  0  0  0
   -2.3457    1.7061    0.0416 C   0  0  0  0  0  0  0  0  0  0  0  0
   -2.5132   -1.4633    0.3273 C   0  0  0  0  0  0  0  0  0  0  0  0
   -3.3554    0.8266    0.7518 C   0  0  0  0  0  0  0  0  0  0  0  0
   -2.8351   -0.4539    1.3906 C   0  0  0  0  0  0  0  0  0  0  0  0
    0.8115   -0.3460   -0.3867 C   0  0  0  0  0  0  0  0  0  0  0  0
    1.4457    0.2004    0.8970 C   0  0  0  0  0  0  0  0  0  0  0  0
    3.9622    0.1963    0.5360 N   0  0  0  0  0  0  0  0  0  0  0  0
   -1.1920   -2.1728   -1.5577 C   0  0  0  0  0  0  0  0  0  0  0  0
   -0.2852    2.2773   -1.0642 C   0  0  0  0  0  0  0  0  0  0  0  0
    2.8152   -0.4033    1.2436 C   0  0  0  0  0  0  0  0  0  0  0  0
   -3.2804   -2.6348    0.2085 C   0  0  0  0  0  0  0  0  0  0  0  0
   -2.7398    3.0604   -0.0999 C   0  0  0  0  0  0  0  0  0  0  0  0
    5.1863   -0.0038    1.3231 C   0  0  0  0  0  0  0  0  0  0  0  0
    4.1641   -0.3678   -0.7987 C   0  0  0  0  0  0  0  0  0  0  0  0
   -0.6801    3.6136   -1.1776 C   0  0  0  0  0  0  0  0  0  0  0  0
   -1.9573   -3.3349   -1.6749 C   0  0  0  0  0  0  0  0  0  0  0  0
   -1.9154    4.0062   -0.6979 C   0  0  0  0  0  0  0  0  0  0  0  0
   -3.0004   -3.5680   -0.7869 C   0  0  0  0  0  0  0  0  0  0  0  0
    2.8267    0.3591   -1.2991 C   0  0  0  0  0  0  0  0  0  0  0  0
   -2.0309    0.4400    2.3989 C   0  0  0  0  0  0  0  0  0  0  0  0
   -1.5112    0.1546    0.0159 C   0  0  0  0  0  0  0  0  0  0  0  0
    0.6711   -0.7835   -1.0315 C   0  0  0  0  0  0  0  0  0  0  0  0
    1.4256    0.3669   -1.3513 C   0  0  0  0  0  0  0  0  0  0  0  0
   -1.4762   -0.3076    1.3518 C   0  0  0  0  0  0  0  0  0  0  0  0
   -0.8567   -0.6971   -1.0758 C   0  0  0  0  0  0  0  0  0  0  0  0
    3.4932   -0.8164   -0.9515 C   0  0  0  0  0  0  0  0  0  0  0  0
   -2.6634    1.6507    2.1095 C   0  0  0  0  0  0  0  0  0  0  0  0
    3.5855    1.5912   -1.6175 C   0  0  0  0  0  0  0  0  0  0  0  0
   -2.0078    0.0285    3.8256 C   0  0  0  0  0  0  0  0  0  0  0  0
   -2.1799    1.3904   -0.2738 C   0  0  0  0  0  0  0  0  0  0  0  0
    1.3630   -1.9959   -0.7005 C   0  0  0  0  0  0  0  0  0  0  0  0
    2.7840   -1.9881   -0.6643 C   0  0  0  0  0  0  0  0  0  0  0  0
   -2.7536    2.1267    0.7972 C   0  0  0  0  0  0  0  0  0  0  0  0
    3.0750    2.6516   -1.9419 O   0  0  0  0  0  0  0  0  0  0  0  0
   -2.5124    0.6301    4.7560 O   0  0  0  0  0  0  0  0  0  0  0  0
    0.7357    1.4876   -1.7441 O   0  0  0  0  0  0  0  0  0  0  0  0
   -0.9040   -1.5337    1.5782 O   0  0  0  0  0  0  0  0  0  0  0  0
    4.9187    1.4554   -1.5157 O   0  0  0  0  0  0  0  0  0  0  0  0
   -1.3408   -1.1264    4.0382 O   0  0  0  0  0  0  0  0  0  0  0  0
    0.7350   -3.2319   -0.4028 C   0  0  0  0  0  0  0  0  0  0  0  0
   -2.3252    1.9517   -1.5680 C   0  0  0  0  0  0  0  0  0  0  0  0
    3.4996   -3.1544   -0.3425 C   0  0  0  0  0  0  0  0  0  0  0  0
   -3.4199    3.3413    0.5593 C   0  0  0  0  0  0  0  0  0  0  0  0
   -2.9900    3.1617   -1.7925 C   0  0  0  0  0  0  0  0  0  0  0  0
    1.4587   -4.3861   -0.0853 C   0  0  0  0  0  0  0  0  0  0  0  0
   -3.5396    3.8568   -0.7275 C   0  0  0  0  0  0  0  0  0  0  0  0
    2.8430   -4.3473   -0.0552 C   0  0  0  0  0  0  0  0  0  0  0  0
   -0.6614    0.2149   -0.0027 N   0  0  0  0  0  0  0  0  0  0  0  0
   -1.2899    1.3555    0.6034 C   0  0  0  0  0  0  0  0  0  0  0  0
   -1.2239   -0.9929   -0.5386 C   0  0  0  0  0  0  0  0  0  0  0  0
   -2.5783    1.8050    0.2618 C   0  0  0  0  0  0  0  0  0  0  0  0
   -2.6062   -1.2980   -0.5477 C   0  0  0  0  0  0  0  0  0  0  0  0
   -3.4385    1.0559   -0.7095 C   0  0  0  0  0  0  0  0  0  0  0  0
   -3.6908   -0.3315   -0.1495 C   0  0  0  0  0  0  0  0  0  0  0  0
    0.8087    0.4114   -0.1978 C   0  0  0  0  0  0  0  0  0  0  0  0
    1.6426   -0.3220    0.8709 C   0  0  0  0  0  0  0  0  0  0  0  0
    3.7767   -0.2265   -0.4611 N   0  0  0  0  0  0  0  0  0  0  0  0
   -0.3913   -2.0103   -1.0764 C   0  0  0  0  0  0  0  0  0  0  0  0
   -0.6199    2.1147    1.5941 C   0  0  0  0  0  0  0  0  0  0  0  0
    3.1220    0.0806    0.8214 C   0  0  0  0  0  0  0  0  0  0  0  0
   -3.0715   -2.5695   -0.9781 C   0  0  0  0  0  0  0  0  0  0  0  0
   -3.1256    2.9692    0.8503 C   0  0  0  0  0  0  0  0  0  0  0  0
    5.0483    0.4966   -0.5620 C   0  0  0  0  0  0  0  0  0  0  0  0
    4.0211   -1.6644   -0.6132 C   0  0  0  0  0  0  0  0  0  0  0  0
   -1.1681    3.2605    2.1829 C   0  0  0  0  0  0  0  0  0  0  0  0
   -0.8617   -3.2520   -1.5251 C   0  0  0  0  0  0  0  0  0  0  0  0
   -2.4243    3.6948    1.8029 C   0  0  0  0  0  0  0  0  0  0  0  0
   -2.2083   -3.5405   -1.4600 C   0  0  0  0  0  0  0  0  0  0  0  0
   -3.7996    1.4173    1.5644 H   0  0  0  0  0  0  0  0  0  0  0  0
   -4.1647    0.5987    0.0451 H   0  0  0  0  0  0  0  0  0  0  0  0
   -3.6076   -0.8552    2.0583 H   0  0  0  0  0  0  0  0  0  0  0  0
   -1.9557   -0.2691    2.0197 H   0  0  0  0  0  0  0  0  0  0  0  0
    1.2948    0.0380   -1.2883 H   0  0  0  0  0  0  0  0  0  0  0  0
    0.9984   -1.4282   -0.3943 H   0  0  0  0  0  0  0  0  0  0  0  0
    0.7717   -0.0251    1.7356 H   0  0  0  0  0  0  0  0  0  0  0  0
    1.5233    1.2934    0.8634 H   0  0  0  0  0  0  0  0  0  0  0  0
   -0.3969   -1.9976   -2.2783 H   0  0  0  0  0  0  0  0  0  0  0  0
    0.6802    2.0253   -1.4938 H   0  0  0  0  0  0  0  0  0  0  0  0
    2.8029   -1.4954    1.1367 H   0  0  0  0  0  0  0  0  0  0  0  0
    2.9411   -0.2129    2.3185 H   0  0  0  0  0  0  0  0  0  0  0  0
   -4.1067   -2.8212    0.8905 H   0  0  0  0  0  0  0  0  0  0  0  0
   -3.7108    3.3830    0.2734 H   0  0  0  0  0  0  0  0  0  0  0  0
    5.0980    0.4746    2.3054 H   0  0  0  0  0  0  0  0  0  0  0  0
    5.4101   -1.0668    1.4737 H   0  0  0  0  0  0  0  0  0  0  0  0
    6.0457    0.4646    0.8300 H   0  0  0  0  0  0  0  0  0  0  0  0
    3.3531   -0.0956   -1.4756 H   0  0  0  0  0  0  0  0  0  0  0  0
    5.0729    0.0406   -1.2568 H   0  0  0  0  0  0  0  0  0  0  0  0
    4.2556   -1.4602   -0.7802 H   0  0  0  0  0  0  0  0  0  0  0  0
   -0.0226    4.3350   -1.6536 H   0  0  0  0  0  0  0  0  0  0  0  0
   -1.7408   -4.0505   -2.4630 H   0  0  0  0  0  0  0  0  0  0  0  0
   -2.2392    5.0390   -0.7877 H   0  0  0  0  0  0  0  0  0  0  0  0
   -3.6012   -4.4686   -0.8743 H   0  0  0  0  0  0  0  0  0  0  0  0
   -1.1287   -0.3607   -2.0803 H   0  0  0  0  0  0  0  0  0  0  0  0
   -1.3279   -1.6835   -1.0366 H   0  0  0  0  0  0  0  0  0  0  0  0
    4.5808   -0.8259   -0.9135 H   0  0  0  0  0  0  0  0  0  0  0  0
   -3.1018    2.2270    2.9236 H   0  0  0  0  0  0  0  0  0  0  0  0
    1.3575    2.2362   -1.8662 H   0  0  0  0  0  0  0  0  0  0  0  0
   -0.8423   -1.6700    2.5458 H   0  0  0  0  0  0  0  0  0  0  0  0
    5.2749    2.3393   -1.7457 H   0  0  0  0  0  0  0  0  0  0  0  0
   -1.4160   -1.2436    5.0123 H   0  0  0  0  0  0  0  0  0  0  0  0
   -0.3475   -3.3223   -0.3946 H   0  0  0  0  0  0  0  0  0  0  0  0
   -1.9015    1.4639   -2.4413 H   0  0  0  0  0  0  0  0  0  0  0  0
    4.5877   -3.1440   -0.3147 H   0  0  0  0  0  0  0  0  0  0  0  0
   -3.8569    3.9015    1.3842 H   0  0  0  0  0  0  0  0  0  0  0  0
   -3.0683    3.5566   -2.8024 H   0  0  0  0  0  0  0  0  0  0  0  0
    0.9316   -5.3092    0.1418 H   0  0  0  0  0  0  0  0  0  0  0  0
   -4.0564    4.7980   -0.8945 H   0  0  0  0  0  0  0  0  0  0  0  0
    3.4114   -5.2393    0.1922 H   0  0  0  0  0  0  0  0  0  0  0  0
   -2.9768    1.0453   -1.7045 H   0  0  0  0  0  0  0  0  0  0  0  0
   -4.4035    1.5658   -0.8249 H   0  0  0  0  0  0  0  0  0  0  0  0
   -4.6481   -0.6719   -0.5646 H   0  0  0  0  0  0  0  0  0  0  0  0
   -3.8063   -0.3393    0.9421 H   0  0  0  0  0  0  0  0  0  0  0  0
    1.0647    1.4809   -0.1904 H   0  0  0  0  0  0  0  0  0  0  0  0
    1.1063    0.1166   -1.2122 H   0  0  0  0  0  0  0  0  0  0  0  0
    1.2635   -0.0947    1.8736 H   0  0  0  0  0  0  0  0  0  0  0  0
    1.5431   -1.4081    0.7835 H   0  0  0  0  0  0  0  0  0  0  0  0
    0.6813   -1.8836   -1.1641 H   0  0  0  0  0  0  0  0  0  0  0  0
    0.3610    1.8251    1.9530 H   0  0  0  0  0  0  0  0  0  0  0  0
    3.6576   -0.3947    1.6535 H   0  0  0  0  0  0  0  0  0  0  0  0
    3.1667    1.1628    1.0055 H   0  0  0  0  0  0  0  0  0  0  0  0
   -4.1360   -2.7969   -0.9521 H   0  0  0  0  0  0  0  0  0  0  0  0
   -4.1221    3.3065    0.5703 H   0  0  0  0  0  0  0  0  0  0  0  0
    5.7442    0.2231    0.2390 H   0  0  0  0  0  0  0  0  0  0  0  0
    5.5316    0.2949   -1.5250 H   0  0  0  0  0  0  0  0  0  0  0  0
    4.8795    1.5790   -0.5206 H   0  0  0  0  0  0  0  0  0  0  0  0
    4.5118   -1.8690   -1.5719 H   0  0  0  0  0  0  0  0  0  0  0  0
    4.6546   -2.0624    0.1877 H   0  0  0  0  0  0  0  0  0  0  0  0
    3.0845   -2.2287   -0.6256 H   0  0  0  0  0  0  0  0  0  0  0  0
   -0.6066    3.8040    2.9384 H   0  0  0  0  0  0  0  0  0  0  0  0
   -0.1624   -3.9870   -1.9142 H   0  0  0  0  0  0  0  0  0  0  0  0
   -2.8610    4.5822    2.2512 H   0  0  0  0  0  0  0  0  0  0  0  0
   -2.5872   -4.5012   -1.7937 H   0  0  0  0  0  0  0  0  0  0  0  0
  2  1  1  0
  3  1  1  0
  4  2  2  0
  5  3  2  0
  6  4  1  0
  7  5  1  0
  8  1  1  0
  9  8  1  0
 10 13  1  0
 11  3  1  0
 12  2  1  0
 13  9  1  0
 14  5  1  0
 15  4  1  0
 16 10  1  0
 17 10  1  0
 18 12  2  0
 19 11  2  0
 20 15  2  0
 21 14  2  0
  6  7  1  0
 18 20  1  0
 19 21  1  0
 23 27  2  0
 24 28  1  0
 25 26  1  0
 26 22  2  0
 27 24  1  0
 28 25  1  0
 29 22  1  0
 30 23  1  0
 31 22  1  0
 32 23  1  0
 33 24  2  0
 34 35  1  0
 35 29  2  0
 36 33  1  0
 37 31  2  0
 38 32  2  0
 39 26  1  0
 40 27  1  0
 41 31  1  0
 42 32  1  0
 43 34  1  0
 44 33  1  0
 45 35  1  0
 46 36  1  0
 47 44  2  0
 48 43  2  0
 49 47  1  0
 50 45  2  0
 25 34  2  0
 48 50  1  0
 30 36  2  0
 46 49  2  0
 52 51  1  0
 53 51  1  0
 54 52  2  0
 55 53  2  0
 56 54  1  0
 57 55  1  0
 58 51  1  0
 59 58  1  0
 60 63  1  0
 61 53  1  0
 62 52  1  0
 63 59  1  0
 64 55  1  0
 65 54  1  0
 66 60  1  0
 67 60  1  0
 68 62  2  0
 69 61  2  0
 70 65  2  0
 71 64  2  0
 56 57  1  0
 68 70  1  0
 69 71  1  0
  6 72  1  0
  6 73  1  0
  7 74  1  0
  7 75  1  0
  8 76  1  0
  8 77  1  0
  9 78  1  0
  9 79  1  0
 11 80  1  0
 12 81  1  0
 13 82  1  0
 13 83  1  0
 14 84  1  0
 15 85  1  0
 16 86  1  0
 16 87  1  0
 16 88  1  0
 17 89  1  0
 17 90  1  0
 17 91  1  0
 18 92  1  0
 19 93  1  0
 20 94  1  0
 21 95  1  0
 28 96  1  0
 28 97  1  0
 29 98  1  0
 30 99  1  0
 39100  1  0
 40101  1  0
 41102  1  0
 42103  1  0
 43104  1  0
 44105  1  0
 45106  1  0
 46107  1  0
 47108  1  0
 48109  1  0
 49110  1  0
 50111  1  0
 56112  1  0
 56113  1  0
 57114  1  0
 57115  1  0
 58116  1  0
 58117  1  0
 59118  1  0
 59119  1  0
 61120  1  0
 62121  1  0
 63122  1  0
 63123  1  0
 64124  1  0
 65125  1  0
 66126  1  0
 66127  1  0
 66128  1  0
 67129  1  0
 67130  1  0
 67131  1  0
 68132  1  0
 69133  1  0
 70134  1  0
 71135  1  0
M  END
$$$$
