
     RDKit          3D

135142  0  0  0  0  0  0  0  0999 V2000
   -0.6668   -0.0463   -0.0675 N   0  0  0  0  0  0  0  0  0  0  0  0
   -1.1043   -1.3827   -0.3624 C   0  0  0  0  0  0  0  0  0  0  0  0
   -1.4163    1.1595    0.1568 C   0  0  0  0  0  0  0  0  0  0  0  0
   -2.4632   -1.7551   -0.5270 C   0  0  0  0  0  0  0  0  0  0  0  0
   -2.6891    1.1835    0.7601 C   0  0  0  0  0  0  0  0  0  0  0  0
   -3.6336   -0.8485   -0.2339 C   0  0  0  0  0  0  0  0  0  0  0  0
   -3.4344   -0.0838    1.0649 C   0  0  0  0  0  0  0  0  0  0  0  0
    0.7779    0.1246    0.2704 C   0  0  0  0  0  0  0  0  0  0  0  0
    1.6663    0.2475   -0.9776 C   0  0  0  0  0  0  0  0  0  0  0  0
    3.8377   -0.0084    0.2526 N   0  0  0  0  0  0  0  0  0  0  0  0
   -0.8760    2.4171   -0.1983 C   0  0  0  0  0  0  0  0  0  0  0  0
   -0.1748   -2.4369   -0.5481 C   0  0  0  0  0  0  0  0  0  0  0  0
    3.0605    0.8152   -0.6870 C   0  0  0  0  0  0  0  0  0  0  0  0
   -3.3318    2.4059    1.0591 C   0  0  0  0  0  0  0  0  0  0  0  0
   -2.8131   -3.0579   -0.9707 C   0  0  0  0  0  0  0  0  0  0  0  0
    3.8799    0.5980    1.5843 C   0  0  0  0  0  0  0  0  0  0  0  0
    5.2089   -0.2041   -0.2271 C   0  0  0  0  0  0  0  0  0  0  0  0
   -0.5306   -3.7297   -0.9524 C   0  0  0  0  0  0  0  0  0  0  0  0
   -1.5221    3.6275    0.0801 C   0  0  0  0  0  0  0  0  0  0  0  0
   -1.8565   -4.0380   -1.1840 C   0  0  0  0  0  0  0  0  0  0  0  0
   -2.7495    3.6216    0.7273 C   0  0  0  0  0  0  0  0  0  0  0  0
   -3.3302   -0.8320    1.5924 C   0  0  0  0  0  0  0  0  0  0  0  0
    2.4316    1.3873    0.8309 C   0  0  0  0  0  0  0  0  0  0  0  0
    1.2464   -0.5721   -0.0495 C   0  0  0  0  0  0  0  0  0  0  0  0
   -1.3820   -0.8786    0.1143 C   0  0  0  0  0  0  0  0  0  0  0  0
   -2.0798   -1.3591    1.2418 C   0  0  0  0  0  0  0  0  0  0  0  0
    1.2748    0.5934    0.7489 C   0  0  0  0  0  0  0  0  0  0  0  0
   -0.0028   -1.4427   -0.2057 C   0  0  0  0  0  0  0  0  0  0  0  0
   -3.9091    0.1607    0.7947 C   0  0  0  0  0  0  0  0  0  0  0  0
    3.5919    0.9942    0.1607 C   0  0  0  0  0  0  0  0  0  0  0  0
   -4.0250   -1.3268    2.8052 C   0  0  0  0  0  0  0  0  0  0  0  0
    2.4154    2.6471    1.6126 C   0  0  0  0  0  0  0  0  0  0  0  0
    2.4491   -0.9749   -0.7322 C   0  0  0  0  0  0  0  0  0  0  0  0
   -1.9763    0.1350   -0.7025 C   0  0  0  0  0  0  0  0  0  0  0  0
   -3.2499    0.6472   -0.3404 C   0  0  0  0  0  0  0  0  0  0  0  0
    3.6116   -0.1678   -0.6153 C   0  0  0  0  0  0  0  0  0  0  0  0
   -3.5970   -2.2059    3.5376 O   0  0  0  0  0  0  0  0  0  0  0  0
    1.3993    3.1972    2.0098 O   0  0  0  0  0  0  0  0  0  0  0  0
   -1.4850   -2.3572    1.9781 O   0  0  0  0  0  0  0  0  0  0  0  0
    0.1569    0.9394    1.4675 O   0  0  0  0  0  0  0  0  0  0  0  0
   -5.1873   -0.7072    3.0657 O   0  0  0  0  0  0  0  0  0  0  0  0
    3.6327    3.1620    1.8524 O   0  0  0  0  0  0  0  0  0  0  0  0
   -1.3689    0.6789   -1.8571 C   0  0  0  0  0  0  0  0  0  0  0  0
    2.5657   -2.1391   -1.5326 C   0  0  0  0  0  0  0  0  0  0  0  0
   -3.8538    1.6557   -1.1085 C   0  0  0  0  0  0  0  0  0  0  0  0
    4.7983   -0.5219   -1.2789 C   0  0  0  0  0  0  0  0  0  0  0  0
    3.7500   -2.4819   -2.1879 C   0  0  0  0  0  0  0  0  0  0  0  0
   -1.9789    1.6816   -2.6136 C   0  0  0  0  0  0  0  0  0  0  0  0
    4.8691   -1.6731   -2.0601 C   0  0  0  0  0  0  0  0  0  0  0  0
   -3.2251    2.1681   -2.2382 C   0  0  0  0  0  0  0  0  0  0  0  0
   -0.5027    0.0659    1.2961 N   0  0  0  0  0  0  0  0  0  0  0  0
   -1.0518   -1.2529    1.3502 C   0  0  0  0  0  0  0  0  0  0  0  0
   -1.0290    1.2271    0.6661 C   0  0  0  0  0  0  0  0  0  0  0  0
   -2.0951   -1.7235    0.5107 C   0  0  0  0  0  0  0  0  0  0  0  0
   -1.5684    1.2137   -0.6293 C   0  0  0  0  0  0  0  0  0  0  0  0
   -2.6876   -0.9605   -0.6437 C   0  0  0  0  0  0  0  0  0  0  0  0
   -1.6976   -0.0794   -1.3795 C   0  0  0  0  0  0  0  0  0  0  0  0
    0.8862    0.2681    1.7861 C   0  0  0  0  0  0  0  0  0  0  0  0
    1.9363   -0.3023    0.8229 C   0  0  0  0  0  0  0  0  0  0  0  0
    3.4097    0.2676   -1.1417 N   0  0  0  0  0  0  0  0  0  0  0  0
   -1.0101    2.4691    1.3414 C   0  0  0  0  0  0  0  0  0  0  0  0
   -0.5991   -2.1691    2.3319 C   0  0  0  0  0  0  0  0  0  0  0  0
    2.2696    0.6938   -0.3019 C   0  0  0  0  0  0  0  0  0  0  0  0
   -2.0267    2.4042   -1.2339 C   0  0  0  0  0  0  0  0  0  0  0  0
   -2.6569   -3.0102    0.7162 C   0  0  0  0  0  0  0  0  0  0  0  0
    3.0696   -0.9172   -1.9423 C   0  0  0  0  0  0  0  0  0  0  0  0
    3.7894    1.3667   -2.0375 C   0  0  0  0  0  0  0  0  0  0  0  0
   -1.1395   -3.4500    2.5015 C   0  0  0  0  0  0  0  0  0  0  0  0
   -1.4571    3.6484    0.7377 C   0  0  0  0  0  0  0  0  0  0  0  0
   -2.1872   -3.8707    1.6980 C   0  0  0  0  0  0  0  0  0  0  0  0
   -1.9628    3.6168   -0.5514 C   0  0  0  0  0  0  0  0  0  0  0  0
   -4.5379   -1.4539   -0.1121 H   0  0  0  0  0  0  0  0  0  0  0  0
   -3.8129   -0.1940   -1.0952 H   0  0  0  0  0  0  0  0  0  0  0  0
   -4.4173    0.1540    1.4806 H   0  0  0  0  0  0  0  0  0  0  0  0
   -2.9064   -0.6599    1.8324 H   0  0  0  0  0  0  0  0  0  0  0  0
    1.1192   -0.6931    0.9214 H   0  0  0  0  0  0  0  0  0  0  0  0
    0.9199    1.0127    0.8982 H   0  0  0  0  0  0  0  0  0  0  0  0
    1.7822   -0.7278   -1.4739 H   0  0  0  0  0  0  0  0  0  0  0  0
    1.1829    0.8866   -1.7294 H   0  0  0  0  0  0  0  0  0  0  0  0
    0.0689    2.4882   -0.7233 H   0  0  0  0  0  0  0  0  0  0  0  0
    0.8873   -2.2913   -0.4070 H   0  0  0  0  0  0  0  0  0  0  0  0
    2.9829    1.8534   -0.3473 H   0  0  0  0  0  0  0  0  0  0  0  0
    3.5741    0.8726   -1.6546 H   0  0  0  0  0  0  0  0  0  0  0  0
   -4.3063    2.4057    1.5421 H   0  0  0  0  0  0  0  0  0  0  0  0
   -3.8605   -3.3156   -1.1352 H   0  0  0  0  0  0  0  0  0  0  0  0
    4.4978    0.0078    2.2744 H   0  0  0  0  0  0  0  0  0  0  0  0
    2.8797    0.6415    2.0334 H   0  0  0  0  0  0  0  0  0  0  0  0
    4.2861    1.6194    1.5652 H   0  0  0  0  0  0  0  0  0  0  0  0
    5.7736   -0.8369    0.4705 H   0  0  0  0  0  0  0  0  0  0  0  0
    5.2111   -0.7303   -1.1901 H   0  0  0  0  0  0  0  0  0  0  0  0
    5.7375    0.7438   -0.3410 H   0  0  0  0  0  0  0  0  0  0  0  0
    0.2367   -4.4859   -1.0895 H   0  0  0  0  0  0  0  0  0  0  0  0
   -1.0644    4.5736   -0.2068 H   0  0  0  0  0  0  0  0  0  0  0  0
   -2.1464   -5.0323   -1.5096 H   0  0  0  0  0  0  0  0  0  0  0  0
   -3.2569    4.5529    0.9592 H   0  0  0  0  0  0  0  0  0  0  0  0
   -0.0798   -1.7773   -1.2447 H   0  0  0  0  0  0  0  0  0  0  0  0
    0.1845   -2.3575    0.3696 H   0  0  0  0  0  0  0  0  0  0  0  0
   -4.8783    0.5744    1.0747 H   0  0  0  0  0  0  0  0  0  0  0  0
    4.4883    1.6136    0.2325 H   0  0  0  0  0  0  0  0  0  0  0  0
   -2.0400   -2.5558    2.7624 H   0  0  0  0  0  0  0  0  0  0  0  0
    0.2271    1.8669    1.7696 H   0  0  0  0  0  0  0  0  0  0  0  0
   -5.5043   -1.1265    3.8972 H   0  0  0  0  0  0  0  0  0  0  0  0
    3.4579    3.9732    2.3712 H   0  0  0  0  0  0  0  0  0  0  0  0
   -0.3955    0.3329   -2.1906 H   0  0  0  0  0  0  0  0  0  0  0  0
    1.7280   -2.8192   -1.6543 H   0  0  0  0  0  0  0  0  0  0  0  0
   -4.8280    2.0492   -0.8268 H   0  0  0  0  0  0  0  0  0  0  0  0
    5.6908    0.0955   -1.1892 H   0  0  0  0  0  0  0  0  0  0  0  0
    3.7936   -3.3854   -2.7888 H   0  0  0  0  0  0  0  0  0  0  0  0
   -1.4787    2.0874   -3.4897 H   0  0  0  0  0  0  0  0  0  0  0  0
    5.7961   -1.9338   -2.5686 H   0  0  0  0  0  0  0  0  0  0  0  0
   -3.7034    2.9547   -2.8149 H   0  0  0  0  0  0  0  0  0  0  0  0
   -3.0803   -1.6801   -1.3804 H   0  0  0  0  0  0  0  0  0  0  0  0
   -3.5522   -0.3833   -0.2778 H   0  0  0  0  0  0  0  0  0  0  0  0
   -0.7126   -0.5471   -1.4999 H   0  0  0  0  0  0  0  0  0  0  0  0
   -2.0698    0.1121   -2.3951 H   0  0  0  0  0  0  0  0  0  0  0  0
    1.0202   -0.1666    2.7821 H   0  0  0  0  0  0  0  0  0  0  0  0
    1.1244    1.3252    1.9630 H   0  0  0  0  0  0  0  0  0  0  0  0
    1.6056   -1.2598    0.4078 H   0  0  0  0  0  0  0  0  0  0  0  0
    2.8535   -0.4965    1.3910 H   0  0  0  0  0  0  0  0  0  0  0  0
   -0.6464    2.5262    2.3667 H   0  0  0  0  0  0  0  0  0  0  0  0
    0.1916   -1.9138    3.0289 H   0  0  0  0  0  0  0  0  0  0  0  0
    2.5379    1.6431    0.1734 H   0  0  0  0  0  0  0  0  0  0  0  0
    1.3865    0.8871   -0.9194 H   0  0  0  0  0  0  0  0  0  0  0  0
   -2.4574    2.3824   -2.2351 H   0  0  0  0  0  0  0  0  0  0  0  0
   -3.4807   -3.3542    0.0867 H   0  0  0  0  0  0  0  0  0  0  0  0
    2.1770   -0.7579   -2.5504 H   0  0  0  0  0  0  0  0  0  0  0  0
    2.9141   -1.7946   -1.3032 H   0  0  0  0  0  0  0  0  0  0  0  0
    3.8960   -1.1798   -2.6126 H   0  0  0  0  0  0  0  0  0  0  0  0
    4.0961    2.2467   -1.4591 H   0  0  0  0  0  0  0  0  0  0  0  0
    4.6501    1.0833   -2.6533 H   0  0  0  0  0  0  0  0  0  0  0  0
    2.9726    1.6616   -2.7072 H   0  0  0  0  0  0  0  0  0  0  0  0
   -0.7553   -4.1063    3.2797 H   0  0  0  0  0  0  0  0  0  0  0  0
   -1.4090    4.5935    1.2807 H   0  0  0  0  0  0  0  0  0  0  0  0
   -2.6303   -4.8543    1.8306 H   0  0  0  0  0  0  0  0  0  0  0  0
   -2.3204    4.5272   -1.0229 H   0  0  0  0  0  0  0  0  0  0  0  0
  2  1  1  0
  3  1  1  0
  4  2  2  0
  5  3  2  0
  6  4  1  0
  7  5  1  0
  8  1  1  0
  9  8  1  0
 10 13  1  0
 11  3  1  0
 12  2  1  0
 13  9  1  0
 14  5  1  0
 15  4  1  0
 16 10  1  0
 17 10  1  0
 18 12  2  0
 19 11  2  0
 20 15  2  0
 21 14  2  0
  6  7  1  0
 18 20  1  0
 19 21  1  0
 23 27  2  0
 24 28  1  0
 25 26  1  0
 26 22  2  0
 27 24  1  0
 28 25  1  0
 29 22  1  0
 30 23  1  0
 31 22  1  0
 32 23  1  0
 33 24  2  0
 34 35  1  0
 35 29  2  0
 36 33  1  0
 37 31  2  0
 38 32  2  0
 39 26  1  0
 40 27  1  0
 41 31  1  0
 42 32  1  0
 43 34  1  0
 44 33  1  0
 45 35  1  0
 46 36  1  0
 47 44  2  0
 48 43  2  0
 49 47  1  0
 50 45  2  0
 25 34  2  0
 48 50  1  0
 30 36  2  0
 46 49  2  0
 52 51  1  0
 53 51  1  0
 54 52  2  0
 55 53  2  0
 56 54  1  0
 57 55  1  0
 58 51  1  0
 59 58  1  0
 60 63  1  0
 61 53  1  0
 62 52  1  0
 63 59  1  0
 64 55  1  0
 65 54  1  0
 66 60  1  0
 67 60  1  0
 68 62  2  0
 69 61  2  0
 70 65  2  0
 71 64  2  0
 56 57  1  0
 68 70  1  0
 69 71  1  0
  6 72  1  0
  6 73  1  0
  7 74  1  0
  7 75  1  0
  8 76  1  0
  8 77  1  0
  9 78  1  0
  9 79  1  0
 11 80  1  0
 12 81  1  0
 13 82  1  0
 13 83  1  0
 14 84  1  0
 15 85  1  0
 16 86  1  0
 16 87  1  0
 16 88  1  0
 17 89  1  0
 17 90  1  0
 17 91  1  0
 18 92  1  0
 19 93  1  0
 20 94  1  0
 21 95  1  0
 28 96  1  0
 28 97  1  0
 29 98  1  0
 30 99  1  0
 39100  1  0
 40101  1  0
 41102  1  0
 42103  1  0
 43104  1  0
 44105  1  0
 45106  1  0
 46107  1  0
 47108  1  0
 48109  1  0
 49110  1  0
 50111  1  0
 56112  1  0
 56113  1  0
 57114  1  0
 57115  1  0
 58116  1  0
 58117  1  0
 59118  1  0
 59119  1  0
 61120  1  0
 62121  1  0
 63122  1  0
 63123  1  0
 64124  1  0
 65125  1  0
 66126  1  0
 66127  1  0
 66128  1  0
 67129  1  0
 67130  1  0
 67131  1  0
 68132  1  0
 69133  1  0
 70134  1  0
 71135  1  0
M  END
$$$$
