
     RDKit          3D

135142  0  0  0  0  0  0  0  0999 V2000
   -0.6154    0.1085    0.5978 N   0  0  0  0  0  0  0  0  0  0  0  0
   -1.0155    1.3138   -0.0308 C   0  0  0  0  0  0  0  0  0  0  0  0
   -1.3890   -1.0538    0.8471 C   0  0  0  0  0  0  0  0  0  0  0  0
   -1.6762    1.3362   -1.2655 C   0  0  0  0  0  0  0  0  0  0  0  0
   -2.5259   -1.4344    0.0999 C   0  0  0  0  0  0  0  0  0  0  0  0
   -2.0319    0.0491   -1.9486 C   0  0  0  0  0  0  0  0  0  0  0  0
   -3.0557   -0.7110   -1.1194 C   0  0  0  0  0  0  0  0  0  0  0  0
    0.8557    0.0256    0.7927 C   0  0  0  0  0  0  0  0  0  0  0  0
    1.5029   -0.9534   -0.1938 C   0  0  0  0  0  0  0  0  0  0  0  0
    3.9928   -0.2139   -0.0453 N   0  0  0  0  0  0  0  0  0  0  0  0
   -1.0505   -1.8793    1.9483 C   0  0  0  0  0  0  0  0  0  0  0  0
   -0.7355    2.5468    0.5902 C   0  0  0  0  0  0  0  0  0  0  0  0
    2.9793   -1.2615    0.1046 C   0  0  0  0  0  0  0  0  0  0  0  0
   -3.2686   -2.5794    0.4818 C   0  0  0  0  0  0  0  0  0  0  0  0
   -2.0168    2.5629   -1.8640 C   0  0  0  0  0  0  0  0  0  0  0  0
    3.8629    0.5735   -1.2659 C   0  0  0  0  0  0  0  0  0  0  0  0
    4.1816    0.6221    1.1311 C   0  0  0  0  0  0  0  0  0  0  0  0
   -1.0775    3.7632   -0.0050 C   0  0  0  0  0  0  0  0  0  0  0  0
   -1.7785   -3.0195    2.2981 C   0  0  0  0  0  0  0  0  0  0  0  0
   -1.7158    3.7700   -1.2382 C   0  0  0  0  0  0  0  0  0  0  0  0
   -2.8951   -3.3707    1.5620 C   0  0  0  0  0  0  0  0  0  0  0  0
    2.5246    1.4508   -0.1670 C   0  0  0  0  0  0  0  0  0  0  0  0
   -3.5037    0.5619   -1.3419 C   0  0  0  0  0  0  0  0  0  0  0  0
   -1.5134   -0.5080   -0.4006 C   0  0  0  0  0  0  0  0  0  0  0  0
    1.1340   -0.5583   -0.4021 C   0  0  0  0  0  0  0  0  0  0  0  0
    1.2821    0.8464   -0.4262 C   0  0  0  0  0  0  0  0  0  0  0  0
   -2.3153   -0.1588   -1.5099 C   0  0  0  0  0  0  0  0  0  0  0  0
   -0.2085   -1.2599   -0.6369 C   0  0  0  0  0  0  0  0  0  0  0  0
    3.6461    0.6536    0.0719 C   0  0  0  0  0  0  0  0  0  0  0  0
   -3.9098    0.9165   -0.0499 C   0  0  0  0  0  0  0  0  0  0  0  0
    2.6418    2.9285   -0.1538 C   0  0  0  0  0  0  0  0  0  0  0  0
   -4.3827    0.9950   -2.4581 C   0  0  0  0  0  0  0  0  0  0  0  0
   -1.9360   -0.1456    0.9168 C   0  0  0  0  0  0  0  0  0  0  0  0
    2.3058   -1.3696   -0.2040 C   0  0  0  0  0  0  0  0  0  0  0  0
    3.5546   -0.7407    0.0423 C   0  0  0  0  0  0  0  0  0  0  0  0
   -3.1484    0.5716    1.0745 C   0  0  0  0  0  0  0  0  0  0  0  0
    1.7177    3.6971   -0.3654 O   0  0  0  0  0  0  0  0  0  0  0  0
   -5.4135    1.6342   -2.3541 O   0  0  0  0  0  0  0  0  0  0  0  0
    0.1862    1.6158   -0.7252 O   0  0  0  0  0  0  0  0  0  0  0  0
   -1.8800   -0.5576   -2.7509 O   0  0  0  0  0  0  0  0  0  0  0  0
    3.8755    3.3787    0.1257 O   0  0  0  0  0  0  0  0  0  0  0  0
   -3.9353    0.6114   -3.6708 O   0  0  0  0  0  0  0  0  0  0  0  0
    2.3117   -2.7862   -0.2498 C   0  0  0  0  0  0  0  0  0  0  0  0
   -1.2126   -0.4552    2.0937 C   0  0  0  0  0  0  0  0  0  0  0  0
    4.7148   -1.5076    0.2491 C   0  0  0  0  0  0  0  0  0  0  0  0
   -3.5903    0.9463    2.3541 C   0  0  0  0  0  0  0  0  0  0  0  0
   -1.6617   -0.0734    3.3608 C   0  0  0  0  0  0  0  0  0  0  0  0
    3.4735   -3.5385   -0.0485 C   0  0  0  0  0  0  0  0  0  0  0  0
   -2.8518    0.6273    3.4910 C   0  0  0  0  0  0  0  0  0  0  0  0
    4.6762   -2.8981    0.2051 C   0  0  0  0  0  0  0  0  0  0  0  0
   -0.6043   -0.3794   -0.2081 N   0  0  0  0  0  0  0  0  0  0  0  0
   -1.0179    0.9118   -0.6123 C   0  0  0  0  0  0  0  0  0  0  0  0
   -1.4094   -1.5416   -0.3124 C   0  0  0  0  0  0  0  0  0  0  0  0
   -2.0868    1.5414    0.0446 C   0  0  0  0  0  0  0  0  0  0  0  0
   -2.7841   -1.5598    0.0199 C   0  0  0  0  0  0  0  0  0  0  0  0
   -2.8108    0.8008    1.1340 C   0  0  0  0  0  0  0  0  0  0  0  0
   -3.5787   -0.3836    0.5547 C   0  0  0  0  0  0  0  0  0  0  0  0
    0.8509   -0.5528    0.0244 C   0  0  0  0  0  0  0  0  0  0  0  0
    1.3921    0.4747    1.0328 C   0  0  0  0  0  0  0  0  0  0  0  0
    3.8220    0.0734    0.4221 N   0  0  0  0  0  0  0  0  0  0  0  0
   -0.8521   -2.7445   -0.8082 C   0  0  0  0  0  0  0  0  0  0  0  0
   -0.3673    1.6047   -1.6461 C   0  0  0  0  0  0  0  0  0  0  0  0
    2.8177    0.1526    1.4982 C   0  0  0  0  0  0  0  0  0  0  0  0
   -3.5289   -2.7517   -0.1521 C   0  0  0  0  0  0  0  0  0  0  0  0
   -2.4716    2.8430   -0.3149 C   0  0  0  0  0  0  0  0  0  0  0  0
    4.0165    1.3687   -0.2403 C   0  0  0  0  0  0  0  0  0  0  0  0
    5.0995   -0.3873    0.9766 C   0  0  0  0  0  0  0  0  0  0  0  0
   -0.7570    2.8976   -2.0043 C   0  0  0  0  0  0  0  0  0  0  0  0
   -1.5988   -3.9162   -0.9566 C   0  0  0  0  0  0  0  0  0  0  0  0
   -1.8032    3.5193   -1.3332 C   0  0  0  0  0  0  0  0  0  0  0  0
   -2.9430   -3.9204   -0.6291 C   0  0  0  0  0  0  0  0  0  0  0  0
   -1.1286   -0.5458   -2.1378 H   0  0  0  0  0  0  0  0  0  0  0  0
   -2.4667    0.2634   -2.9333 H   0  0  0  0  0  0  0  0  0  0  0  0
   -3.5016   -1.4577   -1.7895 H   0  0  0  0  0  0  0  0  0  0  0  0
   -3.8703   -0.0474   -0.7982 H   0  0  0  0  0  0  0  0  0  0  0  0
    1.3210    1.0056    0.6361 H   0  0  0  0  0  0  0  0  0  0  0  0
    1.0986   -0.2374    1.8286 H   0  0  0  0  0  0  0  0  0  0  0  0
    0.9692   -1.9110   -0.1762 H   0  0  0  0  0  0  0  0  0  0  0  0
    1.3895   -0.5775   -1.2184 H   0  0  0  0  0  0  0  0  0  0  0  0
   -0.2171   -1.6238    2.5968 H   0  0  0  0  0  0  0  0  0  0  0  0
   -0.2572    2.5600    1.5670 H   0  0  0  0  0  0  0  0  0  0  0  0
    3.0584   -1.7140    1.1025 H   0  0  0  0  0  0  0  0  0  0  0  0
    3.2702   -2.0682   -0.5841 H   0  0  0  0  0  0  0  0  0  0  0  0
   -4.1568   -2.8639   -0.0821 H   0  0  0  0  0  0  0  0  0  0  0  0
   -2.5288    2.5812   -2.8235 H   0  0  0  0  0  0  0  0  0  0  0  0
    4.7533    1.1932   -1.4167 H   0  0  0  0  0  0  0  0  0  0  0  0
    2.9920    1.2377   -1.2432 H   0  0  0  0  0  0  0  0  0  0  0  0
    3.7843   -0.0769   -2.1436 H   0  0  0  0  0  0  0  0  0  0  0  0
    3.3372    1.2849    1.3278 H   0  0  0  0  0  0  0  0  0  0  0  0
    4.3516    0.0080    2.0206 H   0  0  0  0  0  0  0  0  0  0  0  0
    5.0734    1.2465    1.0133 H   0  0  0  0  0  0  0  0  0  0  0  0
   -0.8521    4.6978    0.4991 H   0  0  0  0  0  0  0  0  0  0  0  0
   -1.4793   -3.6148    3.1558 H   0  0  0  0  0  0  0  0  0  0  0  0
   -1.9883    4.7110   -1.7071 H   0  0  0  0  0  0  0  0  0  0  0  0
   -3.4792   -4.2455    1.8287 H   0  0  0  0  0  0  0  0  0  0  0  0
   -0.2755   -2.1340    0.0266 H   0  0  0  0  0  0  0  0  0  0  0  0
   -0.1757   -1.6795   -1.6515 H   0  0  0  0  0  0  0  0  0  0  0  0
    4.6099    1.1226    0.2650 H   0  0  0  0  0  0  0  0  0  0  0  0
   -4.8353    1.4782    0.0785 H   0  0  0  0  0  0  0  0  0  0  0  0
    0.4127    2.5676   -0.6707 H   0  0  0  0  0  0  0  0  0  0  0  0
   -2.5088   -0.2098   -3.4176 H   0  0  0  0  0  0  0  0  0  0  0  0
    3.7895    4.3556    0.1079 H   0  0  0  0  0  0  0  0  0  0  0  0
   -4.6143    0.9810   -4.2824 H   0  0  0  0  0  0  0  0  0  0  0  0
    1.4009   -3.3430   -0.4608 H   0  0  0  0  0  0  0  0  0  0  0  0
   -0.2721   -0.9976    2.0427 H   0  0  0  0  0  0  0  0  0  0  0  0
    5.6716   -1.0225    0.4370 H   0  0  0  0  0  0  0  0  0  0  0  0
   -4.5193    1.4989    2.4776 H   0  0  0  0  0  0  0  0  0  0  0  0
   -1.0755   -0.3215    4.2407 H   0  0  0  0  0  0  0  0  0  0  0  0
    3.4320   -4.6237   -0.0960 H   0  0  0  0  0  0  0  0  0  0  0  0
   -3.2055    0.9273    4.4747 H   0  0  0  0  0  0  0  0  0  0  0  0
    5.5835   -3.4772    0.3583 H   0  0  0  0  0  0  0  0  0  0  0  0
   -2.1048    0.4831    1.9110 H   0  0  0  0  0  0  0  0  0  0  0  0
   -3.5220    1.4751    1.6276 H   0  0  0  0  0  0  0  0  0  0  0  0
   -4.2368   -0.0334   -0.2537 H   0  0  0  0  0  0  0  0  0  0  0  0
   -4.2299   -0.7574    1.3569 H   0  0  0  0  0  0  0  0  0  0  0  0
    1.4014   -0.5146   -0.9236 H   0  0  0  0  0  0  0  0  0  0  0  0
    1.0462   -1.5390    0.4671 H   0  0  0  0  0  0  0  0  0  0  0  0
    1.3569    1.4895    0.6214 H   0  0  0  0  0  0  0  0  0  0  0  0
    0.7421    0.4848    1.9179 H   0  0  0  0  0  0  0  0  0  0  0  0
    0.1860   -2.7827   -1.1292 H   0  0  0  0  0  0  0  0  0  0  0  0
    0.4412    1.1329   -2.1947 H   0  0  0  0  0  0  0  0  0  0  0  0
    2.7802   -0.8138    2.0183 H   0  0  0  0  0  0  0  0  0  0  0  0
    3.1178    0.8960    2.2485 H   0  0  0  0  0  0  0  0  0  0  0  0
   -4.5914   -2.7679    0.0906 H   0  0  0  0  0  0  0  0  0  0  0  0
   -3.2945    3.3339    0.1984 H   0  0  0  0  0  0  0  0  0  0  0  0
    4.2621    2.1652    0.4711 H   0  0  0  0  0  0  0  0  0  0  0  0
    4.8269    1.3063   -0.9744 H   0  0  0  0  0  0  0  0  0  0  0  0
    3.1217    1.6606   -0.7992 H   0  0  0  0  0  0  0  0  0  0  0  0
    4.9858   -1.3756    1.4373 H   0  0  0  0  0  0  0  0  0  0  0  0
    5.4957    0.3010    1.7306 H   0  0  0  0  0  0  0  0  0  0  0  0
    5.8473   -0.4997    0.1839 H   0  0  0  0  0  0  0  0  0  0  0  0
   -0.2419    3.4157   -2.8077 H   0  0  0  0  0  0  0  0  0  0  0  0
   -1.1301   -4.8149   -1.3488 H   0  0  0  0  0  0  0  0  0  0  0  0
   -2.1073    4.5254   -1.6086 H   0  0  0  0  0  0  0  0  0  0  0  0
   -3.5374   -4.8211   -0.7504 H   0  0  0  0  0  0  0  0  0  0  0  0
  2  1  1  0
  3  1  1  0
  4  2  2  0
  5  3  2  0
  6  4  1  0
  7  5  1  0
  8  1  1  0
  9  8  1  0
 10 13  1  0
 11  3  1  0
 12  2  1  0
 13  9  1  0
 14  5  1  0
 15  4  1  0
 16 10  1  0
 17 10  1  0
 18 12  2  0
 19 11  2  0
 20 15  2  0
 21 14  2  0
  6  7  1  0
 18 20  1  0
 19 21  1  0
 23 27  2  0
 24 28  1  0
 25 26  1  0
 26 22  2  0
 27 24  1  0
 28 25  1  0
 29 22  1  0
 30 23  1  0
 31 22  1  0
 32 23  1  0
 33 24  2  0
 34 35  1  0
 35 29  2  0
 36 33  1  0
 37 31  2  0
 38 32  2  0
 39 26  1  0
 40 27  1  0
 41 31  1  0
 42 32  1  0
 43 34  1  0
 44 33  1  0
 45 35  1  0
 46 36  1  0
 47 44  2  0
 48 43  2  0
 49 47  1  0
 50 45  2  0
 25 34  2  0
 48 50  1  0
 30 36  2  0
 46 49  2  0
 52 51  1  0
 53 51  1  0
 54 52  2  0
 55 53  2  0
 56 54  1  0
 57 55  1  0
 58 51  1  0
 59 58  1  0
 60 63  1  0
 61 53  1  0
 62 52  1  0
 63 59  1  0
 64 55  1  0
 65 54  1  0
 66 60  1  0
 67 60  1  0
 68 62  2  0
 69 61  2  0
 70 65  2  0
 71 64  2  0
 56 57  1  0
 68 70  1  0
 69 71  1  0
  6 72  1  0
  6 73  1  0
  7 74  1  0
  7 75  1  0
  8 76  1  0
  8 77  1  0
  9 78  1  0
  9 79  1  0
 11 80  1  0
 12 81  1  0
 13 82  1  0
 13 83  1  0
 14 84  1  0
 15 85  1  0
 16 86  1  0
 16 87  1  0
 16 88  1  0
 17 89  1  0
 17 90  1  0
 17 91  1  0
 18 92  1  0
 19 93  1  0
 20 94  1  0
 21 95  1  0
 28 96  1  0
 28 97  1  0
 29 98  1  0
 30 99  1  0
 39100  1  0
 40101  1  0
 41102  1  0
 42103  1  0
 43104  1  0
 44105  1  0
 45106  1  0
 46107  1  0
 47108  1  0
 48109  1  0
 49110  1  0
 50111  1  0
 56112  1  0
 56113  1  0
 57114  1  0
 57115  1  0
 58116  1  0
 58117  1  0
 59118  1  0
 59119  1  0
 61120  1  0
 62121  1  0
 63122  1  0
 63123  1  0
 64124  1  0
 65125  1  0
 66126  1  0
 66127  1  0
 66128  1  0
 67129  1  0
 67130  1  0
 67131  1  0
 68132  1  0
 69133  1  0
 70134  1  0
 71135  1  0
M  END
$$$$
