
     RDKit          3D

135142  0  0  0  0  0  0  0  0999 V2000
   -0.6965    0.0812   -0.2999 N   0  0  0  0  0  0  0  0  0  0  0  0
   -1.2693   -1.1607    0.1383 C   0  0  0  0  0  0  0  0  0  0  0  0
   -1.2475    1.4054   -0.3389 C   0  0  0  0  0  0  0  0  0  0  0  0
   -2.5763   -1.2966    0.6640 C   0  0  0  0  0  0  0  0  0  0  0  0
   -2.6117    1.6758   -0.5470 C   0  0  0  0  0  0  0  0  0  0  0  0
   -3.6004   -0.1917    0.6842 C   0  0  0  0  0  0  0  0  0  0  0  0
   -3.6259    0.5753   -0.6260 C   0  0  0  0  0  0  0  0  0  0  0  0
    0.5781   -0.0116   -1.0713 C   0  0  0  0  0  0  0  0  0  0  0  0
    1.8231   -0.0744   -0.1656 C   0  0  0  0  0  0  0  0  0  0  0  0
    4.3539   -0.4361   -0.2942 N   0  0  0  0  0  0  0  0  0  0  0  0
   -0.4112    2.5365   -0.1820 C   0  0  0  0  0  0  0  0  0  0  0  0
   -0.5105   -2.3616    0.1151 C   0  0  0  0  0  0  0  0  0  0  0  0
    3.0766   -0.3370   -1.0118 C   0  0  0  0  0  0  0  0  0  0  0  0
   -3.0816    3.0053   -0.6535 C   0  0  0  0  0  0  0  0  0  0  0  0
   -3.0251   -2.5361    1.1911 C   0  0  0  0  0  0  0  0  0  0  0  0
    4.3888   -1.5404    0.6603 C   0  0  0  0  0  0  0  0  0  0  0  0
    4.7469    0.8172    0.3436 C   0  0  0  0  0  0  0  0  0  0  0  0
   -0.9721   -3.5878    0.6130 C   0  0  0  0  0  0  0  0  0  0  0  0
   -0.8809    3.8517   -0.2751 C   0  0  0  0  0  0  0  0  0  0  0  0
   -2.2317   -3.6727    1.1676 C   0  0  0  0  0  0  0  0  0  0  0  0
   -2.2205    4.0871   -0.5240 C   0  0  0  0  0  0  0  0  0  0  0  0
    3.4375   -0.7754   -0.9633 C   0  0  0  0  0  0  0  0  0  0  0  0
   -2.6445    0.1641   -1.4086 C   0  0  0  0  0  0  0  0  0  0  0  0
   -1.1643   -0.5087    0.4302 C   0  0  0  0  0  0  0  0  0  0  0  0
    1.4849   -0.2234    0.4075 C   0  0  0  0  0  0  0  0  0  0  0  0
    2.2438   -1.1544   -0.3364 C   0  0  0  0  0  0  0  0  0  0  0  0
   -1.3557    0.0308   -0.8616 C   0  0  0  0  0  0  0  0  0  0  0  0
    0.2075   -0.6901    1.0889 C   0  0  0  0  0  0  0  0  0  0  0  0
    3.8842    0.5445   -0.8384 C   0  0  0  0  0  0  0  0  0  0  0  0
   -3.7552   -0.2497   -0.6677 C   0  0  0  0  0  0  0  0  0  0  0  0
    4.2884   -1.6918   -1.7633 C   0  0  0  0  0  0  0  0  0  0  0  0
   -2.9338    0.7253   -2.7553 C   0  0  0  0  0  0  0  0  0  0  0  0
   -2.3190   -0.9368    1.1782 C   0  0  0  0  0  0  0  0  0  0  0  0
    1.9333    1.1307    0.5082 C   0  0  0  0  0  0  0  0  0  0  0  0
    3.1514    1.4968   -0.1174 C   0  0  0  0  0  0  0  0  0  0  0  0
   -3.6101   -0.7969    0.6086 C   0  0  0  0  0  0  0  0  0  0  0  0
    5.3476   -1.4110   -2.2926 O   0  0  0  0  0  0  0  0  0  0  0  0
   -4.0332    0.8385   -3.2660 O   0  0  0  0  0  0  0  0  0  0  0  0
    1.7620   -2.4398   -0.4108 O   0  0  0  0  0  0  0  0  0  0  0  0
   -0.2568    0.4217   -1.5780 O   0  0  0  0  0  0  0  0  0  0  0  0
    3.7771   -2.9364   -1.8726 O   0  0  0  0  0  0  0  0  0  0  0  0
   -1.8291    1.1322   -3.4157 O   0  0  0  0  0  0  0  0  0  0  0  0
    1.2276    2.1504    1.1913 C   0  0  0  0  0  0  0  0  0  0  0  0
   -2.2618   -1.5087    2.4753 C   0  0  0  0  0  0  0  0  0  0  0  0
    3.6282    2.8154   -0.0244 C   0  0  0  0  0  0  0  0  0  0  0  0
   -4.7547   -1.2081    1.3140 C   0  0  0  0  0  0  0  0  0  0  0  0
   -3.4068   -1.9146    3.1676 C   0  0  0  0  0  0  0  0  0  0  0  0
    1.7105    3.4594    1.2711 C   0  0  0  0  0  0  0  0  0  0  0  0
   -4.6552   -1.7638    2.5858 C   0  0  0  0  0  0  0  0  0  0  0  0
    2.9141    3.7907    0.6674 C   0  0  0  0  0  0  0  0  0  0  0  0
   -0.7883    0.1614   -0.1861 N   0  0  0  0  0  0  0  0  0  0  0  0
   -1.4470   -1.0929   -0.4175 C   0  0  0  0  0  0  0  0  0  0  0  0
   -1.2601    1.3690    0.4299 C   0  0  0  0  0  0  0  0  0  0  0  0
   -2.8269   -1.2143   -0.6601 C   0  0  0  0  0  0  0  0  0  0  0  0
   -2.5564    1.5347    0.9741 C   0  0  0  0  0  0  0  0  0  0  0  0
   -3.7448   -0.0327   -0.5727 C   0  0  0  0  0  0  0  0  0  0  0  0
   -3.6674    0.5266    0.8366 C   0  0  0  0  0  0  0  0  0  0  0  0
    0.5213    0.2414   -0.8977 C   0  0  0  0  0  0  0  0  0  0  0  0
    1.7286    0.0534    0.0404 C   0  0  0  0  0  0  0  0  0  0  0  0
    4.2419    0.0247    0.0647 N   0  0  0  0  0  0  0  0  0  0  0  0
   -0.4079    2.4956    0.5766 C   0  0  0  0  0  0  0  0  0  0  0  0
   -0.7111   -2.3029   -0.4322 C   0  0  0  0  0  0  0  0  0  0  0  0
    3.0303    0.0270   -0.7723 C   0  0  0  0  0  0  0  0  0  0  0  0
   -2.9071    2.7163    1.6795 C   0  0  0  0  0  0  0  0  0  0  0  0
   -3.4063   -2.4689   -0.9602 C   0  0  0  0  0  0  0  0  0  0  0  0
    5.4307    0.2037   -0.7743 C   0  0  0  0  0  0  0  0  0  0  0  0
    4.3739   -1.2042    0.8495 C   0  0  0  0  0  0  0  0  0  0  0  0
   -1.2892   -3.5457   -0.7156 C   0  0  0  0  0  0  0  0  0  0  0  0
   -0.7718    3.6696    1.2507 C   0  0  0  0  0  0  0  0  0  0  0  0
   -2.6413   -3.6272   -0.9932 C   0  0  0  0  0  0  0  0  0  0  0  0
   -2.0237    3.7753    1.8192 C   0  0  0  0  0  0  0  0  0  0  0  0
   -3.4254    0.4538    1.5551 H   0  0  0  0  0  0  0  0  0  0  0  0
   -4.5996   -0.6264    0.8176 H   0  0  0  0  0  0  0  0  0  0  0  0
   -3.4397   -0.0577   -1.5021 H   0  0  0  0  0  0  0  0  0  0  0  0
   -4.6288    1.0004   -0.7608 H   0  0  0  0  0  0  0  0  0  0  0  0
    0.5439   -0.8728   -1.7528 H   0  0  0  0  0  0  0  0  0  0  0  0
    0.6885    0.8328   -1.7678 H   0  0  0  0  0  0  0  0  0  0  0  0
    1.7129   -0.8513    0.5956 H   0  0  0  0  0  0  0  0  0  0  0  0
    1.9384    0.8602    0.3887 H   0  0  0  0  0  0  0  0  0  0  0  0
    0.6434    2.4226    0.0361 H   0  0  0  0  0  0  0  0  0  0  0  0
    0.4958   -2.3957   -0.2864 H   0  0  0  0  0  0  0  0  0  0  0  0
    2.9345   -1.2658   -1.5805 H   0  0  0  0  0  0  0  0  0  0  0  0
    3.1671    0.4506   -1.7719 H   0  0  0  0  0  0  0  0  0  0  0  0
   -4.1381    3.1999   -0.8259 H   0  0  0  0  0  0  0  0  0  0  0  0
   -4.0251   -2.6180    1.6145 H   0  0  0  0  0  0  0  0  0  0  0  0
    4.0823   -2.4785    0.1842 H   0  0  0  0  0  0  0  0  0  0  0  0
    3.7460   -1.3681    1.5307 H   0  0  0  0  0  0  0  0  0  0  0  0
    5.4118   -1.6949    1.0234 H   0  0  0  0  0  0  0  0  0  0  0  0
    4.0888    1.0946    1.1739 H   0  0  0  0  0  0  0  0  0  0  0  0
    4.7533    1.6371   -0.3831 H   0  0  0  0  0  0  0  0  0  0  0  0
    5.7685    0.7396    0.7343 H   0  0  0  0  0  0  0  0  0  0  0  0
   -0.3324   -4.4652    0.5719 H   0  0  0  0  0  0  0  0  0  0  0  0
   -0.1935    4.6836   -0.1491 H   0  0  0  0  0  0  0  0  0  0  0  0
   -2.6004   -4.6124    1.5675 H   0  0  0  0  0  0  0  0  0  0  0  0
   -2.5979    5.1027   -0.6009 H   0  0  0  0  0  0  0  0  0  0  0  0
    0.1801   -0.2059    2.0743 H   0  0  0  0  0  0  0  0  0  0  0  0
    0.3162   -1.7583    1.3203 H   0  0  0  0  0  0  0  0  0  0  0  0
    4.8167    0.8362   -1.3208 H   0  0  0  0  0  0  0  0  0  0  0  0
   -4.7508   -0.1468   -1.0998 H   0  0  0  0  0  0  0  0  0  0  0  0
    2.3609   -2.9533   -0.9925 H   0  0  0  0  0  0  0  0  0  0  0  0
   -0.5483    0.7891   -2.4375 H   0  0  0  0  0  0  0  0  0  0  0  0
    4.4488   -3.3994   -2.4223 H   0  0  0  0  0  0  0  0  0  0  0  0
   -2.1959    1.4727   -4.2629 H   0  0  0  0  0  0  0  0  0  0  0  0
    0.2713    1.9435    1.6645 H   0  0  0  0  0  0  0  0  0  0  0  0
   -1.3092   -1.6581    2.9788 H   0  0  0  0  0  0  0  0  0  0  0  0
    4.5663    3.0970   -0.4986 H   0  0  0  0  0  0  0  0  0  0  0  0
   -5.7435   -1.1001    0.8713 H   0  0  0  0  0  0  0  0  0  0  0  0
   -3.3154   -2.3509    4.1590 H   0  0  0  0  0  0  0  0  0  0  0  0
    1.1395    4.2158    1.8027 H   0  0  0  0  0  0  0  0  0  0  0  0
   -5.5496   -2.0792    3.1158 H   0  0  0  0  0  0  0  0  0  0  0  0
    3.2950    4.8067    0.7258 H   0  0  0  0  0  0  0  0  0  0  0  0
   -4.7784   -0.3471   -0.7663 H   0  0  0  0  0  0  0  0  0  0  0  0
   -3.4978    0.7046   -1.3464 H   0  0  0  0  0  0  0  0  0  0  0  0
   -4.6292    1.0172    1.0377 H   0  0  0  0  0  0  0  0  0  0  0  0
   -3.5523   -0.2522    1.6014 H   0  0  0  0  0  0  0  0  0  0  0  0
    0.5758   -0.5024   -1.7061 H   0  0  0  0  0  0  0  0  0  0  0  0
    0.6010    1.1873   -1.4509 H   0  0  0  0  0  0  0  0  0  0  0  0
    1.6203   -0.8700    0.6157 H   0  0  0  0  0  0  0  0  0  0  0  0
    1.7823    0.8542    0.7839 H   0  0  0  0  0  0  0  0  0  0  0  0
    0.6004    2.5079    0.1791 H   0  0  0  0  0  0  0  0  0  0  0  0
    0.3488   -2.3130   -0.2047 H   0  0  0  0  0  0  0  0  0  0  0  0
    3.0438    0.9280   -1.4005 H   0  0  0  0  0  0  0  0  0  0  0  0
    3.0267   -0.8356   -1.4521 H   0  0  0  0  0  0  0  0  0  0  0  0
   -3.8996    2.8164    2.1158 H   0  0  0  0  0  0  0  0  0  0  0  0
   -4.4741   -2.5454   -1.1563 H   0  0  0  0  0  0  0  0  0  0  0  0
    5.3771    1.1506   -1.3232 H   0  0  0  0  0  0  0  0  0  0  0  0
    5.5513   -0.6100   -1.4989 H   0  0  0  0  0  0  0  0  0  0  0  0
    6.3348    0.2545   -0.1571 H   0  0  0  0  0  0  0  0  0  0  0  0
    4.3691   -2.1000    0.2180 H   0  0  0  0  0  0  0  0  0  0  0  0
    5.3076   -1.1960    1.4243 H   0  0  0  0  0  0  0  0  0  0  0  0
    3.5701   -1.2922    1.5872 H   0  0  0  0  0  0  0  0  0  0  0  0
   -0.6759   -4.4423   -0.7142 H   0  0  0  0  0  0  0  0  0  0  0  0
   -0.0612    4.4880    1.3348 H   0  0  0  0  0  0  0  0  0  0  0  0
   -3.1024   -4.5847   -1.2165 H   0  0  0  0  0  0  0  0  0  0  0  0
   -2.3158    4.6724    2.3562 H   0  0  0  0  0  0  0  0  0  0  0  0
  2  1  1  0
  3  1  1  0
  4  2  2  0
  5  3  2  0
  6  4  1  0
  7  5  1  0
  8  1  1  0
  9  8  1  0
 10 13  1  0
 11  3  1  0
 12  2  1  0
 13  9  1  0
 14  5  1  0
 15  4  1  0
 16 10  1  0
 17 10  1  0
 18 12  2  0
 19 11  2  0
 20 15  2  0
 21 14  2  0
  6  7  1  0
 18 20  1  0
 19 21  1  0
 23 27  2  0
 24 28  1  0
 25 26  1  0
 26 22  2  0
 27 24  1  0
 28 25  1  0
 29 22  1  0
 30 23  1  0
 31 22  1  0
 32 23  1  0
 33 24  2  0
 34 35  1  0
 35 29  2  0
 36 33  1  0
 37 31  2  0
 38 32  2  0
 39 26  1  0
 40 27  1  0
 41 31  1  0
 42 32  1  0
 43 34  1  0
 44 33  1  0
 45 35  1  0
 46 36  1  0
 47 44  2  0
 48 43  2  0
 49 47  1  0
 50 45  2  0
 25 34  2  0
 48 50  1  0
 30 36  2  0
 46 49  2  0
 52 51  1  0
 53 51  1  0
 54 52  2  0
 55 53  2  0
 56 54  1  0
 57 55  1  0
 58 51  1  0
 59 58  1  0
 60 63  1  0
 61 53  1  0
 62 52  1  0
 63 59  1  0
 64 55  1  0
 65 54  1  0
 66 60  1  0
 67 60  1  0
 68 62  2  0
 69 61  2  0
 70 65  2  0
 71 64  2  0
 56 57  1  0
 68 70  1  0
 69 71  1  0
  6 72  1  0
  6 73  1  0
  7 74  1  0
  7 75  1  0
  8 76  1  0
  8 77  1  0
  9 78  1  0
  9 79  1  0
 11 80  1  0
 12 81  1  0
 13 82  1  0
 13 83  1  0
 14 84  1  0
 15 85  1  0
 16 86  1  0
 16 87  1  0
 16 88  1  0
 17 89  1  0
 17 90  1  0
 17 91  1  0
 18 92  1  0
 19 93  1  0
 20 94  1  0
 21 95  1  0
 28 96  1  0
 28 97  1  0
 29 98  1  0
 30 99  1  0
 39100  1  0
 40101  1  0
 41102  1  0
 42103  1  0
 43104  1  0
 44105  1  0
 45106  1  0
 46107  1  0
 47108  1  0
 48109  1  0
 49110  1  0
 50111  1  0
 56112  1  0
 56113  1  0
 57114  1  0
 57115  1  0
 58116  1  0
 58117  1  0
 59118  1  0
 59119  1  0
 61120  1  0
 62121  1  0
 63122  1  0
 63123  1  0
 64124  1  0
 65125  1  0
 66126  1  0
 66127  1  0
 66128  1  0
 67129  1  0
 67130  1  0
 67131  1  0
 68132  1  0
 69133  1  0
 70134  1  0
 71135  1  0
M  END
$$$$
