
     RDKit          3D

 84 92  0  0  0  0  0  0  0  0999 V2000
   32.2403    8.6703   27.4865 C   0  0  0  0  0  0  0  0  0  0  0  0
   31.6282    8.9591   28.7119 C   0  0  0  0  0  0  0  0  0  0  0  0
   32.2563    9.8335   29.6060 C   0  0  0  0  0  0  0  0  0  0  0  0
   33.4816   10.4005   29.2725 C   0  0  0  0  0  0  0  0  0  0  0  0
   34.0940   10.1119   28.0533 C   0  0  0  0  0  0  0  0  0  0  0  0
   33.4693    9.2434   27.1575 C   0  0  0  0  0  0  0  0  0  0  0  0
   25.9238   12.1719   30.8717 C   0  0  0  0  0  0  0  0  0  0  0  0
   25.6599   13.5111   31.1432 C   0  0  0  0  0  0  0  0  0  0  0  0
   24.6508   14.1918   30.4710 C   0  0  0  0  0  0  0  0  0  0  0  0
   23.8920   13.5301   29.5049 C   0  0  0  0  0  0  0  0  0  0  0  0
   24.1526   12.1885   29.2210 C   0  0  0  0  0  0  0  0  0  0  0  0
   25.1632   11.4987   29.9062 C   0  0  0  0  0  0  0  0  0  0  0  0
   29.0922    6.4805   30.0567 N   0  0  0  0  0  0  0  0  0  0  0  0
   30.2161    7.1469   29.6672 C   0  0  0  0  0  0  0  0  0  0  0  0
   31.4244    6.3407   30.0530 C   0  0  0  0  0  0  0  0  0  0  0  0
   30.8490    4.9624   30.2548 C   0  0  0  0  0  0  0  0  0  0  0  0
   29.3619    5.2072   30.4679 C   0  0  0  0  0  0  0  0  0  0  0  0
   27.8261    8.9229   29.3877 N   0  0  0  0  0  0  0  0  0  0  0  0
   26.8931    9.8149   28.9363 C   0  0  0  0  0  0  0  0  0  0  0  0
   27.4425   10.5084   27.8747 C   0  0  0  0  0  0  0  0  0  0  0  0
   28.7887   10.0797   27.7375 C   0  0  0  0  0  0  0  0  0  0  0  0
   29.0037    9.1334   28.7120 C   0  0  0  0  0  0  0  0  0  0  0  0
   24.8774    7.6253   30.2015 N   0  0  0  0  0  0  0  0  0  0  0  0
   23.7600    6.9214   30.5835 C   0  0  0  0  0  0  0  0  0  0  0  0
   22.6648    7.7481   30.4728 C   0  0  0  0  0  0  0  0  0  0  0  0
   23.1465    9.0104   30.0454 C   0  0  0  0  0  0  0  0  0  0  0  0
   24.5189    8.9187   29.9131 C   0  0  0  0  0  0  0  0  0  0  0  0
   26.2668    5.2598   30.9117 N   0  0  0  0  0  0  0  0  0  0  0  0
   27.1946    4.2675   31.1164 C   0  0  0  0  0  0  0  0  0  0  0  0
   26.4291    3.1201   31.5947 C   0  0  0  0  0  0  0  0  0  0  0  0
   25.1418    3.4388   31.6379 C   0  0  0  0  0  0  0  0  0  0  0  0
   25.0044    4.8044   31.1905 C   0  0  0  0  0  0  0  0  0  0  0  0
   28.5554    4.1995   30.9412 C   0  0  0  0  0  0  0  0  0  0  0  0
   30.3284    8.3503   29.0440 C   0  0  0  0  0  0  0  0  0  0  0  0
   25.4870   10.0971   29.5573 C   0  0  0  0  0  0  0  0  0  0  0  0
   23.7989    5.4250   31.0926 C   0  0  0  0  0  0  0  0  0  0  0  0
   29.2320    2.9054   31.2607 C   0  0  0  0  0  0  0  0  0  0  0  0
   29.6942    2.6549   32.5589 C   0  0  0  0  0  0  0  0  0  0  0  0
   30.3330    1.4495   32.8434 C   0  0  0  0  0  0  0  0  0  0  0  0
   30.5235    0.4858   31.8582 C   0  0  0  0  0  0  0  0  0  0  0  0
   30.0621    0.7283   30.5635 C   0  0  0  0  0  0  0  0  0  0  0  0
   29.4164    1.9318   30.2669 C   0  0  0  0  0  0  0  0  0  0  0  0
   22.5318    4.7627   31.4651 C   0  0  0  0  0  0  0  0  0  0  0  0
   22.1007    4.7789   32.7972 C   0  0  0  0  0  0  0  0  0  0  0  0
   20.9073    4.1493   33.1445 C   0  0  0  0  0  0  0  0  0  0  0  0
   20.1318    3.5104   32.1821 C   0  0  0  0  0  0  0  0  0  0  0  0
   20.5607    3.4920   30.8537 C   0  0  0  0  0  0  0  0  0  0  0  0
   21.7596    4.1152   30.4950 C   0  0  0  0  0  0  0  0  0  0  0  0
   20.4712    4.1408   34.4399 O   0  0  0  0  0  0  0  0  0  0  0  0
   30.7907    1.1832   34.1049 O   0  0  0  0  0  0  0  0  0  0  0  0
   34.0699   11.2468   30.1678 O   0  0  0  0  0  0  0  0  0  0  0  0
   26.3923   14.1988   32.0711 O   0  0  0  0  0  0  0  0  0  0  0  0
   31.7458    7.9842   26.8025 H   0  0  0  0  0  0  0  0  0  0  0  0
   31.7826   10.0587   30.5568 H   0  0  0  0  0  0  0  0  0  0  0  0
   35.0498   10.5486   27.7894 H   0  0  0  0  0  0  0  0  0  0  0  0
   33.9309    9.0078   26.2045 H   0  0  0  0  0  0  0  0  0  0  0  0
   26.7175   11.6399   31.3872 H   0  0  0  0  0  0  0  0  0  0  0  0
   24.4617   15.2363   30.6968 H   0  0  0  0  0  0  0  0  0  0  0  0
   23.1123   14.0576   28.9655 H   0  0  0  0  0  0  0  0  0  0  0  0
   23.5853   11.6810   28.4437 H   0  0  0  0  0  0  0  0  0  0  0  0
   31.8518    6.7214   30.9892 H   0  0  0  0  0  0  0  0  0  0  0  0
   32.2110    6.3162   29.2914 H   0  0  0  0  0  0  0  0  0  0  0  0
   31.3522    4.4742   31.0960 H   0  0  0  0  0  0  0  0  0  0  0  0
   31.0034    4.3602   29.3479 H   0  0  0  0  0  0  0  0  0  0  0  0
   27.7385    8.1768   30.0782 H   0  0  0  0  0  0  0  0  0  0  0  0
   26.9479   11.2747   27.2953 H   0  0  0  0  0  0  0  0  0  0  0  0
   29.5201   10.4354   27.0271 H   0  0  0  0  0  0  0  0  0  0  0  0
   25.8034    7.1920   30.2104 H   0  0  0  0  0  0  0  0  0  0  0  0
   21.6431    7.4827   30.7009 H   0  0  0  0  0  0  0  0  0  0  0  0
   22.5477    9.8954   29.8960 H   0  0  0  0  0  0  0  0  0  0  0  0
   26.8308    2.1595   31.8611 H   0  0  0  0  0  0  0  0  0  0  0  0
   24.3472    2.7826   31.9446 H   0  0  0  0  0  0  0  0  0  0  0  0
   29.5397    3.4252   33.3088 H   0  0  0  0  0  0  0  0  0  0  0  0
   31.0207   -0.4480   32.1000 H   0  0  0  0  0  0  0  0  0  0  0  0
   30.2031   -0.0094   29.7810 H   0  0  0  0  0  0  0  0  0  0  0  0
   29.0508    2.1426   29.2649 H   0  0  0  0  0  0  0  0  0  0  0  0
   22.7216    5.2804   33.5338 H   0  0  0  0  0  0  0  0  0  0  0  0
   19.2079    3.0189   32.4629 H   0  0  0  0  0  0  0  0  0  0  0  0
   19.9702    2.9859   30.0961 H   0  0  0  0  0  0  0  0  0  0  0  0
   22.1115    4.1003   29.4661 H   0  0  0  0  0  0  0  0  0  0  0  0
   21.1918    4.5258   34.9691 H   0  0  0  0  0  0  0  0  0  0  0  0
   30.5091    1.9365   34.6510 H   0  0  0  0  0  0  0  0  0  0  0  0
   34.9361   11.4963   29.8135 H   0  0  0  0  0  0  0  0  0  0  0  0
   27.0559   13.5781   32.4198 H   0  0  0  0  0  0  0  0  0  0  0  0
 25 26  2  0
 26 27  1  0
 27 23  1  0
 28 29  1  0
  1  2  2  0
  3  4  2  0
  7  8  2  0
 14 15  1  0
 29 30  1  0
 30 31  2  0
 31 32  1  0
 32 28  2  0
 15 16  1  0
 29 33  2  0
 17 33  1  0
 16 17  1  0
 14 34  2  0
 22 34  1  0
 17 13  2  0
 27 35  2  0
 19 35  1  0
 18 19  1  0
 24 36  2  0
 32 36  1  0
  8  9  1  0
  4  5  1  0
 37 38  2  0
  9 10  2  0
 38 39  1  0
  2  3  1  0
 39 40  2  0
 10 11  1  0
 40 41  1  0
 19 20  2  0
 41 42  2  0
 42 37  1  0
 33 37  1  0
 20 21  1  0
 21 22  2  0
 43 44  2  0
 22 18  1  0
 44 45  1  0
 23 24  1  0
 45 46  2  0
  5  6  2  0
 46 47  1  0
 11 12  2  0
 47 48  2  0
 48 43  1  0
 36 43  1  0
 12  7  1  0
 45 49  1  0
 13 14  1  0
 39 50  1  0
 35 12  1  0
 34  2  1  0
  6  1  1  0
  4 51  1  0
 24 25  1  0
  8 52  1  0
  1 53  1  0
  3 54  1  0
  5 55  1  0
  6 56  1  0
  7 57  1  0
  9 58  1  0
 10 59  1  0
 11 60  1  0
 15 61  1  0
 15 62  1  0
 16 63  1  0
 16 64  1  0
 18 65  1  0
 20 66  1  0
 21 67  1  0
 23 68  1  0
 25 69  1  0
 26 70  1  0
 30 71  1  0
 31 72  1  0
 38 73  1  0
 40 74  1  0
 41 75  1  0
 42 76  1  0
 44 77  1  0
 46 78  1  0
 47 79  1  0
 48 80  1  0
 49 81  1  0
 50 82  1  0
 51 83  1  0
 52 84  1  0
M  END
> <Uni-Dock RESULT> 
ENERGY=   -5.983  LOWER_BOUND=    0.000  UPPER_BOUND=    0.000
INTER + INTRA:          -5.983
INTER:                  -5.983
INTRA:                   0.000
UNBOUND:                 0.000

$$$$

     RDKit          3D

 84 92  0  0  0  0  0  0  0  0999 V2000
   30.4405   10.4208   27.0305 C   0  0  0  0  0  0  0  0  0  0  0  0
   29.9062   10.4852   28.3227 C   0  0  0  0  0  0  0  0  0  0  0  0
   30.2817   11.5327   29.1715 C   0  0  0  0  0  0  0  0  0  0  0  0
   31.1838   12.4930   28.7266 C   0  0  0  0  0  0  0  0  0  0  0  0
   31.7190   12.4290   27.4405 C   0  0  0  0  0  0  0  0  0  0  0  0
   31.3445   11.3882   26.5900 C   0  0  0  0  0  0  0  0  0  0  0  0
   23.7140   11.4945   31.1803 C   0  0  0  0  0  0  0  0  0  0  0  0
   23.0277   12.6564   31.5203 C   0  0  0  0  0  0  0  0  0  0  0  0
   21.7755   12.9312   30.9816 C   0  0  0  0  0  0  0  0  0  0  0  0
   21.1957   12.0359   30.0820 C   0  0  0  0  0  0  0  0  0  0  0  0
   21.8785   10.8703   29.7299 C   0  0  0  0  0  0  0  0  0  0  0  0
   23.1366   10.5879   30.2811 C   0  0  0  0  0  0  0  0  0  0  0  0
   28.5709    7.2822   29.8529 N   0  0  0  0  0  0  0  0  0  0  0  0
   29.3377    8.2993   29.3664 C   0  0  0  0  0  0  0  0  0  0  0  0
   30.7873    7.9752   29.5952 C   0  0  0  0  0  0  0  0  0  0  0  0
   30.7600    6.4842   29.8141 C   0  0  0  0  0  0  0  0  0  0  0  0
   29.3154    6.1898   30.1927 C   0  0  0  0  0  0  0  0  0  0  0  0
   26.4604    9.1143   29.4001 N   0  0  0  0  0  0  0  0  0  0  0  0
   25.2291    9.6154   29.0794 C   0  0  0  0  0  0  0  0  0  0  0  0
   25.3777   10.4491   27.9873 C   0  0  0  0  0  0  0  0  0  0  0  0
   26.7644   10.5223   27.6935 C   0  0  0  0  0  0  0  0  0  0  0  0
   27.4056    9.7213   28.6092 C   0  0  0  0  0  0  0  0  0  0  0  0
   24.2669    6.8659   30.4838 N   0  0  0  0  0  0  0  0  0  0  0  0
   23.5186    5.8159   30.9609 C   0  0  0  0  0  0  0  0  0  0  0  0
   22.1975    6.2015   30.9940 C   0  0  0  0  0  0  0  0  0  0  0  0
   22.1534    7.5490   30.5573 C   0  0  0  0  0  0  0  0  0  0  0  0
   23.4465    7.9467   30.2761 C   0  0  0  0  0  0  0  0  0  0  0  0
   26.4696    5.1497   30.9667 N   0  0  0  0  0  0  0  0  0  0  0  0
   27.7039    4.5508   31.0397 C   0  0  0  0  0  0  0  0  0  0  0  0
   27.4494    3.2111   31.5610 C   0  0  0  0  0  0  0  0  0  0  0  0
   26.1456    3.0549   31.7517 C   0  0  0  0  0  0  0  0  0  0  0  0
   25.4876    4.2802   31.3646 C   0  0  0  0  0  0  0  0  0  0  0  0
   28.9731    4.9663   30.7179 C   0  0  0  0  0  0  0  0  0  0  0  0
   28.9493    9.4594   28.7728 C   0  0  0  0  0  0  0  0  0  0  0  0
   23.8921    9.3880   29.8558 C   0  0  0  0  0  0  0  0  0  0  0  0
   24.1379    4.4341   31.4158 C   0  0  0  0  0  0  0  0  0  0  0  0
   30.0928    3.9974   30.9224 C   0  0  0  0  0  0  0  0  0  0  0  0
   30.7550    3.9373   32.1551 C   0  0  0  0  0  0  0  0  0  0  0  0
   31.8044    3.0377   32.3318 C   0  0  0  0  0  0  0  0  0  0  0  0
   32.2111    2.1951   31.3021 C   0  0  0  0  0  0  0  0  0  0  0  0
   31.5530    2.2478   30.0725 C   0  0  0  0  0  0  0  0  0  0  0  0
   30.4964    3.1432   29.8846 C   0  0  0  0  0  0  0  0  0  0  0  0
   23.2348    3.3702   31.9008 C   0  0  0  0  0  0  0  0  0  0  0  0
   22.9765    3.2444   33.2713 C   0  0  0  0  0  0  0  0  0  0  0  0
   22.1275    2.2369   33.7243 C   0  0  0  0  0  0  0  0  0  0  0  0
   21.5246    1.3571   32.8309 C   0  0  0  0  0  0  0  0  0  0  0  0
   21.7820    1.4800   31.4643 C   0  0  0  0  0  0  0  0  0  0  0  0
   22.6371    2.4834   30.9991 C   0  0  0  0  0  0  0  0  0  0  0  0
   21.8692    2.0859   35.0581 O   0  0  0  0  0  0  0  0  0  0  0  0
   32.4638    2.9610   33.5280 O   0  0  0  0  0  0  0  0  0  0  0  0
   31.5323   13.5002   29.5800 O   0  0  0  0  0  0  0  0  0  0  0  0
   23.5696   13.5664   32.3856 O   0  0  0  0  0  0  0  0  0  0  0  0
   30.1462    9.5984   26.3821 H   0  0  0  0  0  0  0  0  0  0  0  0
   29.8678   11.5842   30.1741 H   0  0  0  0  0  0  0  0  0  0  0  0
   32.4243   13.1728   27.0897 H   0  0  0  0  0  0  0  0  0  0  0  0
   31.7504   11.3227   25.5861 H   0  0  0  0  0  0  0  0  0  0  0  0
   24.6963   11.2815   31.5910 H   0  0  0  0  0  0  0  0  0  0  0  0
   21.2573   13.8434   31.2589 H   0  0  0  0  0  0  0  0  0  0  0  0
   20.2255   12.2493   29.6459 H   0  0  0  0  0  0  0  0  0  0  0  0
   21.4434   10.1886   29.0023 H   0  0  0  0  0  0  0  0  0  0  0  0
   31.1547    8.4902   30.4918 H   0  0  0  0  0  0  0  0  0  0  0  0
   31.4423    8.2235   28.7535 H   0  0  0  0  0  0  0  0  0  0  0  0
   31.4930    6.2124   30.5810 H   0  0  0  0  0  0  0  0  0  0  0  0
   31.0146    5.9677   28.8775 H   0  0  0  0  0  0  0  0  0  0  0  0
   26.7183    8.3912   30.0723 H   0  0  0  0  0  0  0  0  0  0  0  0
   24.5839   10.9864   27.4885 H   0  0  0  0  0  0  0  0  0  0  0  0
   27.2401   11.1073   26.9204 H   0  0  0  0  0  0  0  0  0  0  0  0
   25.2811    6.7876   30.3799 H   0  0  0  0  0  0  0  0  0  0  0  0
   21.3667    5.5943   31.3217 H   0  0  0  0  0  0  0  0  0  0  0  0
   21.2688    8.1641   30.5006 H   0  0  0  0  0  0  0  0  0  0  0  0
   28.1904    2.4566   31.7526 H   0  0  0  0  0  0  0  0  0  0  0  0
   25.6721    2.1630   32.1209 H   0  0  0  0  0  0  0  0  0  0  0  0
   30.4236    4.6098   32.9411 H   0  0  0  0  0  0  0  0  0  0  0  0
   33.0287    1.4991   31.4599 H   0  0  0  0  0  0  0  0  0  0  0  0
   31.8566    1.6009   29.2567 H   0  0  0  0  0  0  0  0  0  0  0  0
   29.9709    3.2027   28.9345 H   0  0  0  0  0  0  0  0  0  0  0  0
   23.4590    3.9392   33.9525 H   0  0  0  0  0  0  0  0  0  0  0  0
   20.8701    0.5734   33.1934 H   0  0  0  0  0  0  0  0  0  0  0  0
   21.3271    0.7915   30.7588 H   0  0  0  0  0  0  0  0  0  0  0  0
   22.8550    2.5849   29.9385 H   0  0  0  0  0  0  0  0  0  0  0  0
   22.4624    2.7051   35.5190 H   0  0  0  0  0  0  0  0  0  0  0  0
   31.9977    3.5710   34.1245 H   0  0  0  0  0  0  0  0  0  0  0  0
   32.2102   14.0365   29.1430 H   0  0  0  0  0  0  0  0  0  0  0  0
   24.4435   13.2231   32.6417 H   0  0  0  0  0  0  0  0  0  0  0  0
 25 26  2  0
 26 27  1  0
 27 23  1  0
 28 29  1  0
  1  2  2  0
  3  4  2  0
  7  8  2  0
 14 15  1  0
 29 30  1  0
 30 31  2  0
 31 32  1  0
 32 28  2  0
 15 16  1  0
 29 33  2  0
 17 33  1  0
 16 17  1  0
 14 34  2  0
 22 34  1  0
 17 13  2  0
 27 35  2  0
 19 35  1  0
 18 19  1  0
 24 36  2  0
 32 36  1  0
  8  9  1  0
  4  5  1  0
 37 38  2  0
  9 10  2  0
 38 39  1  0
  2  3  1  0
 39 40  2  0
 10 11  1  0
 40 41  1  0
 19 20  2  0
 41 42  2  0
 42 37  1  0
 33 37  1  0
 20 21  1  0
 21 22  2  0
 43 44  2  0
 22 18  1  0
 44 45  1  0
 23 24  1  0
 45 46  2  0
  5  6  2  0
 46 47  1  0
 11 12  2  0
 47 48  2  0
 48 43  1  0
 36 43  1  0
 12  7  1  0
 45 49  1  0
 13 14  1  0
 39 50  1  0
 35 12  1  0
 34  2  1  0
  6  1  1  0
  4 51  1  0
 24 25  1  0
  8 52  1  0
  1 53  1  0
  3 54  1  0
  5 55  1  0
  6 56  1  0
  7 57  1  0
  9 58  1  0
 10 59  1  0
 11 60  1  0
 15 61  1  0
 15 62  1  0
 16 63  1  0
 16 64  1  0
 18 65  1  0
 20 66  1  0
 21 67  1  0
 23 68  1  0
 25 69  1  0
 26 70  1  0
 30 71  1  0
 31 72  1  0
 38 73  1  0
 40 74  1  0
 41 75  1  0
 42 76  1  0
 44 77  1  0
 46 78  1  0
 47 79  1  0
 48 80  1  0
 49 81  1  0
 50 82  1  0
 51 83  1  0
 52 84  1  0
M  END
> <Uni-Dock RESULT> 
ENERGY=   -5.688  LOWER_BOUND=    1.855  UPPER_BOUND=    2.097
INTER + INTRA:          -5.688
INTER:                  -5.688
INTRA:                   0.000
UNBOUND:                 0.000

$$$$

     RDKit          3D

 84 92  0  0  0  0  0  0  0  0999 V2000
   26.6975    2.0500   31.8261 C   0  0  0  0  0  0  0  0  0  0  0  0
   27.1949    3.2414   32.3672 C   0  0  0  0  0  0  0  0  0  0  0  0
   27.7292    3.2397   33.6606 C   0  0  0  0  0  0  0  0  0  0  0  0
   27.7553    2.0598   34.3961 C   0  0  0  0  0  0  0  0  0  0  0  0
   27.2579    0.8725   33.8596 C   0  0  0  0  0  0  0  0  0  0  0  0
   26.7276    0.8691   32.5691 C   0  0  0  0  0  0  0  0  0  0  0  0
   32.4169    7.5631   31.1100 C   0  0  0  0  0  0  0  0  0  0  0  0
   33.7449    7.5591   31.5263 C   0  0  0  0  0  0  0  0  0  0  0  0
   34.7840    7.5368   30.6024 C   0  0  0  0  0  0  0  0  0  0  0  0
   34.4979    7.5123   29.2369 C   0  0  0  0  0  0  0  0  0  0  0  0
   33.1691    7.5102   28.8092 C   0  0  0  0  0  0  0  0  0  0  0  0
   32.1211    7.5432   29.7404 C   0  0  0  0  0  0  0  0  0  0  0  0
   25.9401    6.5113   30.9123 N   0  0  0  0  0  0  0  0  0  0  0  0
   26.0987    5.3288   31.5722 C   0  0  0  0  0  0  0  0  0  0  0  0
   24.8677    5.0524   32.3890 C   0  0  0  0  0  0  0  0  0  0  0  0
   23.8383    5.9443   31.7437 C   0  0  0  0  0  0  0  0  0  0  0  0
   24.6619    6.9828   30.9954 C   0  0  0  0  0  0  0  0  0  0  0  0
   28.6938    6.1723   30.3480 N   0  0  0  0  0  0  0  0  0  0  0  0
   29.8925    6.2017   29.6907 C   0  0  0  0  0  0  0  0  0  0  0  0
   30.3166    4.8981   29.5156 C   0  0  0  0  0  0  0  0  0  0  0  0
   29.3811    4.0548   30.1701 C   0  0  0  0  0  0  0  0  0  0  0  0
   28.4173    4.8755   30.7076 C   0  0  0  0  0  0  0  0  0  0  0  0
   28.6921    9.0017   28.6057 N   0  0  0  0  0  0  0  0  0  0  0  0
   28.4966   10.1849   27.9336 C   0  0  0  0  0  0  0  0  0  0  0  0
   29.6973   10.5804   27.3885 C   0  0  0  0  0  0  0  0  0  0  0  0
   30.6614    9.6187   27.7809 C   0  0  0  0  0  0  0  0  0  0  0  0
   30.0232    8.6695   28.5563 C   0  0  0  0  0  0  0  0  0  0  0  0
   25.9583    9.2700   29.3020 N   0  0  0  0  0  0  0  0  0  0  0  0
   24.6729    9.0947   29.7540 C   0  0  0  0  0  0  0  0  0  0  0  0
   23.9283   10.2432   29.2464 C   0  0  0  0  0  0  0  0  0  0  0  0
   24.7406   11.0116   28.5319 C   0  0  0  0  0  0  0  0  0  0  0  0
   26.0500   10.4039   28.5374 C   0  0  0  0  0  0  0  0  0  0  0  0
   24.0617    8.1157   30.4992 C   0  0  0  0  0  0  0  0  0  0  0  0
   27.1608    4.4796   31.5697 C   0  0  0  0  0  0  0  0  0  0  0  0
   30.7126    7.4705   29.2907 C   0  0  0  0  0  0  0  0  0  0  0  0
   27.1068   10.9358   27.8679 C   0  0  0  0  0  0  0  0  0  0  0  0
   22.6008    8.2665   30.7775 C   0  0  0  0  0  0  0  0  0  0  0  0
   22.1691    8.9697   31.9092 C   0  0  0  0  0  0  0  0  0  0  0  0
   20.8050    9.0954   32.1650 C   0  0  0  0  0  0  0  0  0  0  0  0
   19.8585    8.5316   31.3153 C   0  0  0  0  0  0  0  0  0  0  0  0
   20.2824    7.8326   30.1841 C   0  0  0  0  0  0  0  0  0  0  0  0
   21.6478    7.7033   29.9149 C   0  0  0  0  0  0  0  0  0  0  0  0
   27.0101   12.1967   27.1039 C   0  0  0  0  0  0  0  0  0  0  0  0
   27.1837   13.4236   27.7562 C   0  0  0  0  0  0  0  0  0  0  0  0
   27.0874   14.6102   27.0324 C   0  0  0  0  0  0  0  0  0  0  0  0
   26.8288   14.5926   25.6655 C   0  0  0  0  0  0  0  0  0  0  0  0
   26.6540   13.3705   25.0137 C   0  0  0  0  0  0  0  0  0  0  0  0
   26.7424   12.1740   25.7312 C   0  0  0  0  0  0  0  0  0  0  0  0
   27.2408   15.8207   27.6485 O   0  0  0  0  0  0  0  0  0  0  0  0
   20.3612    9.7795   33.2634 O   0  0  0  0  0  0  0  0  0  0  0  0
   28.2802    2.0922   35.6561 O   0  0  0  0  0  0  0  0  0  0  0  0
   34.0660    7.5661   32.8556 O   0  0  0  0  0  0  0  0  0  0  0  0
   26.2786    2.0649   30.8224 H   0  0  0  0  0  0  0  0  0  0  0  0
   28.1158    4.1631   34.0816 H   0  0  0  0  0  0  0  0  0  0  0  0
   27.2732   -0.0491   34.4291 H   0  0  0  0  0  0  0  0  0  0  0  0
   26.3365   -0.0452   32.1355 H   0  0  0  0  0  0  0  0  0  0  0  0
   31.6029    7.5701   31.8285 H   0  0  0  0  0  0  0  0  0  0  0  0
   35.8127    7.5331   30.9477 H   0  0  0  0  0  0  0  0  0  0  0  0
   35.3023    7.4804   28.5096 H   0  0  0  0  0  0  0  0  0  0  0  0
   32.9441    7.4558   27.7462 H   0  0  0  0  0  0  0  0  0  0  0  0
   25.0315    5.3452   33.4337 H   0  0  0  0  0  0  0  0  0  0  0  0
   24.5358    4.0091   32.3637 H   0  0  0  0  0  0  0  0  0  0  0  0
   23.1781    6.3590   32.5128 H   0  0  0  0  0  0  0  0  0  0  0  0
   23.2360    5.3606   31.0328 H   0  0  0  0  0  0  0  0  0  0  0  0
   28.0389    6.9284   30.5499 H   0  0  0  0  0  0  0  0  0  0  0  0
   31.2244    4.5893   29.0175 H   0  0  0  0  0  0  0  0  0  0  0  0
   29.4184    2.9791   30.2579 H   0  0  0  0  0  0  0  0  0  0  0  0
   27.9208    8.5336   29.0867 H   0  0  0  0  0  0  0  0  0  0  0  0
   29.8658   11.4715   26.8021 H   0  0  0  0  0  0  0  0  0  0  0  0
   31.7147    9.6522   27.5499 H   0  0  0  0  0  0  0  0  0  0  0  0
   22.8843   10.4405   29.4079 H   0  0  0  0  0  0  0  0  0  0  0  0
   24.4588   11.9209   28.0320 H   0  0  0  0  0  0  0  0  0  0  0  0
   22.9270    9.3949   32.5607 H   0  0  0  0  0  0  0  0  0  0  0  0
   18.8005    8.6428   31.5298 H   0  0  0  0  0  0  0  0  0  0  0  0
   19.5602    7.3839   29.5108 H   0  0  0  0  0  0  0  0  0  0  0  0
   22.0005    7.1613   29.0408 H   0  0  0  0  0  0  0  0  0  0  0  0
   27.3820   13.4159   28.8241 H   0  0  0  0  0  0  0  0  0  0  0  0
   26.7503   15.5209   25.1123 H   0  0  0  0  0  0  0  0  0  0  0  0
   26.4394   13.3448   23.9497 H   0  0  0  0  0  0  0  0  0  0  0  0
   26.5984   11.2150   25.2390 H   0  0  0  0  0  0  0  0  0  0  0  0
   27.2946   15.6325   28.6021 H   0  0  0  0  0  0  0  0  0  0  0  0
   21.1575   10.1447   33.6850 H   0  0  0  0  0  0  0  0  0  0  0  0
   28.1616    1.2146   36.0483 H   0  0  0  0  0  0  0  0  0  0  0  0
   33.2256    7.5612   33.3465 H   0  0  0  0  0  0  0  0  0  0  0  0
 25 26  2  0
 26 27  1  0
 27 23  1  0
 28 29  1  0
  1  2  2  0
  3  4  2  0
  7  8  2  0
 14 15  1  0
 29 30  1  0
 30 31  2  0
 31 32  1  0
 32 28  2  0
 15 16  1  0
 29 33  2  0
 17 33  1  0
 16 17  1  0
 14 34  2  0
 22 34  1  0
 17 13  2  0
 27 35  2  0
 19 35  1  0
 18 19  1  0
 24 36  2  0
 32 36  1  0
  8  9  1  0
  4  5  1  0
 37 38  2  0
  9 10  2  0
 38 39  1  0
  2  3  1  0
 39 40  2  0
 10 11  1  0
 40 41  1  0
 19 20  2  0
 41 42  2  0
 42 37  1  0
 33 37  1  0
 20 21  1  0
 21 22  2  0
 43 44  2  0
 22 18  1  0
 44 45  1  0
 23 24  1  0
 45 46  2  0
  5  6  2  0
 46 47  1  0
 11 12  2  0
 47 48  2  0
 48 43  1  0
 36 43  1  0
 12  7  1  0
 45 49  1  0
 13 14  1  0
 39 50  1  0
 35 12  1  0
 34  2  1  0
  6  1  1  0
  4 51  1  0
 24 25  1  0
  8 52  1  0
  1 53  1  0
  3 54  1  0
  5 55  1  0
  6 56  1  0
  7 57  1  0
  9 58  1  0
 10 59  1  0
 11 60  1  0
 15 61  1  0
 15 62  1  0
 16 63  1  0
 16 64  1  0
 18 65  1  0
 20 66  1  0
 21 67  1  0
 23 68  1  0
 25 69  1  0
 26 70  1  0
 30 71  1  0
 31 72  1  0
 38 73  1  0
 40 74  1  0
 41 75  1  0
 42 76  1  0
 44 77  1  0
 46 78  1  0
 47 79  1  0
 48 80  1  0
 49 81  1  0
 50 82  1  0
 51 83  1  0
 52 84  1  0
M  END
> <Uni-Dock RESULT> 
ENERGY=   -5.028  LOWER_BOUND=    2.448  UPPER_BOUND=    9.301
INTER + INTRA:          -5.028
INTER:                  -5.028
INTRA:                   0.000
UNBOUND:                 0.000

$$$$

     RDKit          3D

 84 92  0  0  0  0  0  0  0  0999 V2000
   29.4160    1.7625   30.1759 C   0  0  0  0  0  0  0  0  0  0  0  0
   29.3094    2.7503   31.1620 C   0  0  0  0  0  0  0  0  0  0  0  0
   29.9979    2.5939   32.3703 C   0  0  0  0  0  0  0  0  0  0  0  0
   30.7741    1.4596   32.5816 C   0  0  0  0  0  0  0  0  0  0  0  0
   30.8795    0.4734   31.6013 C   0  0  0  0  0  0  0  0  0  0  0  0
   30.1974    0.6271   30.3939 C   0  0  0  0  0  0  0  0  0  0  0  0
   31.1600    9.3480   31.9188 C   0  0  0  0  0  0  0  0  0  0  0  0
   32.3449    9.9350   32.3524 C   0  0  0  0  0  0  0  0  0  0  0  0
   33.0471   10.8155   31.5367 C   0  0  0  0  0  0  0  0  0  0  0  0
   32.5652   11.1146   30.2618 C   0  0  0  0  0  0  0  0  0  0  0  0
   31.3805   10.5265   29.8153 C   0  0  0  0  0  0  0  0  0  0  0  0
   30.6666    9.6467   30.6416 C   0  0  0  0  0  0  0  0  0  0  0  0
   26.2844    5.0359   31.0648 N   0  0  0  0  0  0  0  0  0  0  0  0
   27.1580    3.9993   31.2111 C   0  0  0  0  0  0  0  0  0  0  0  0
   26.4320    2.8240   31.8030 C   0  0  0  0  0  0  0  0  0  0  0  0
   24.9885    3.1536   31.5210 C   0  0  0  0  0  0  0  0  0  0  0  0
   24.9906    4.6559   31.2760 C   0  0  0  0  0  0  0  0  0  0  0  0
   28.6459    6.5007   30.5228 N   0  0  0  0  0  0  0  0  0  0  0  0
   29.5041    7.4157   29.9785 C   0  0  0  0  0  0  0  0  0  0  0  0
   30.5047    6.7256   29.3210 C   0  0  0  0  0  0  0  0  0  0  0  0
   30.2899    5.3417   29.5523 C   0  0  0  0  0  0  0  0  0  0  0  0
   29.1607    5.2414   30.3309 C   0  0  0  0  0  0  0  0  0  0  0  0
   26.8394    9.2470   30.0380 N   0  0  0  0  0  0  0  0  0  0  0  0
   25.9324   10.2679   29.8793 C   0  0  0  0  0  0  0  0  0  0  0  0
   26.6222   11.4218   29.5825 C   0  0  0  0  0  0  0  0  0  0  0  0
   28.0001   11.0913   29.6022 C   0  0  0  0  0  0  0  0  0  0  0  0
   28.1107    9.7499   29.9147 C   0  0  0  0  0  0  0  0  0  0  0  0
   24.5561    7.6938   30.6742 N   0  0  0  0  0  0  0  0  0  0  0  0
   23.6635    6.6919   30.9689 C   0  0  0  0  0  0  0  0  0  0  0  0
   22.3489    7.3253   30.9258 C   0  0  0  0  0  0  0  0  0  0  0  0
   22.4889    8.6052   30.6050 C   0  0  0  0  0  0  0  0  0  0  0  0
   23.8965    8.8686   30.4226 C   0  0  0  0  0  0  0  0  0  0  0  0
   23.8064    5.3534   31.2430 C   0  0  0  0  0  0  0  0  0  0  0  0
   28.4844    3.9460   30.9163 C   0  0  0  0  0  0  0  0  0  0  0  0
   29.4485    8.9687   30.1440 C   0  0  0  0  0  0  0  0  0  0  0  0
   24.3719   10.0894   30.0597 C   0  0  0  0  0  0  0  0  0  0  0  0
   22.5647    4.5617   31.4998 C   0  0  0  0  0  0  0  0  0  0  0  0
   22.0512    4.4600   32.7989 C   0  0  0  0  0  0  0  0  0  0  0  0
   20.8990    3.7107   33.0289 C   0  0  0  0  0  0  0  0  0  0  0  0
   20.2463    3.0565   31.9888 C   0  0  0  0  0  0  0  0  0  0  0  0
   20.7512    3.1569   30.6916 C   0  0  0  0  0  0  0  0  0  0  0  0
   21.9039    3.9088   30.4478 C   0  0  0  0  0  0  0  0  0  0  0  0
   23.4893   11.2558   29.8512 C   0  0  0  0  0  0  0  0  0  0  0  0
   23.1157   12.0523   30.9405 C   0  0  0  0  0  0  0  0  0  0  0  0
   22.2798   13.1487   30.7398 C   0  0  0  0  0  0  0  0  0  0  0  0
   21.8168   13.4689   29.4674 C   0  0  0  0  0  0  0  0  0  0  0  0
   22.1871   12.6751   28.3803 C   0  0  0  0  0  0  0  0  0  0  0  0
   23.0204   11.5689   28.5711 C   0  0  0  0  0  0  0  0  0  0  0  0
   21.8912   13.9344   31.7886 O   0  0  0  0  0  0  0  0  0  0  0  0
   20.3792    3.5995   34.2894 O   0  0  0  0  0  0  0  0  0  0  0  0
   31.4307    1.3355   33.7722 O   0  0  0  0  0  0  0  0  0  0  0  0
   32.8584    9.6547   33.5885 O   0  0  0  0  0  0  0  0  0  0  0  0
   28.8710    1.8919   29.2434 H   0  0  0  0  0  0  0  0  0  0  0  0
   29.9165    3.3595   33.1361 H   0  0  0  0  0  0  0  0  0  0  0  0
   31.4805   -0.4137   31.7617 H   0  0  0  0  0  0  0  0  0  0  0  0
   30.2680   -0.1297   29.6199 H   0  0  0  0  0  0  0  0  0  0  0  0
   30.6143    8.6522   32.5489 H   0  0  0  0  0  0  0  0  0  0  0  0
   33.9698   11.2619   31.8932 H   0  0  0  0  0  0  0  0  0  0  0  0
   33.1142   11.7894   29.6135 H   0  0  0  0  0  0  0  0  0  0  0  0
   31.0219   10.7314   28.8089 H   0  0  0  0  0  0  0  0  0  0  0  0
   26.6118    2.7719   32.8842 H   0  0  0  0  0  0  0  0  0  0  0  0
   26.6959    1.8601   31.3555 H   0  0  0  0  0  0  0  0  0  0  0  0
   24.3675    2.8337   32.3644 H   0  0  0  0  0  0  0  0  0  0  0  0
   24.6587    2.6266   30.6142 H   0  0  0  0  0  0  0  0  0  0  0  0
   27.7443    6.6396   30.9800 H   0  0  0  0  0  0  0  0  0  0  0  0
   31.3274    7.1682   28.7780 H   0  0  0  0  0  0  0  0  0  0  0  0
   30.8992    4.5183   29.2104 H   0  0  0  0  0  0  0  0  0  0  0  0
   26.5326    8.2983   30.2644 H   0  0  0  0  0  0  0  0  0  0  0  0
   26.1867   12.3934   29.4020 H   0  0  0  0  0  0  0  0  0  0  0  0
   28.8154   11.7804   29.4452 H   0  0  0  0  0  0  0  0  0  0  0  0
   21.4077    6.8403   31.1102 H   0  0  0  0  0  0  0  0  0  0  0  0
   21.6857    9.3112   30.4931 H   0  0  0  0  0  0  0  0  0  0  0  0
   22.5822    4.9740   33.5948 H   0  0  0  0  0  0  0  0  0  0  0  0
   19.3486    2.4801   32.1875 H   0  0  0  0  0  0  0  0  0  0  0  0
   20.2582    2.6524   29.8677 H   0  0  0  0  0  0  0  0  0  0  0  0
   22.3159    3.9989   29.4456 H   0  0  0  0  0  0  0  0  0  0  0  0
   23.4854   11.7840   31.9259 H   0  0  0  0  0  0  0  0  0  0  0  0
   21.1628   14.3204   29.3221 H   0  0  0  0  0  0  0  0  0  0  0  0
   21.8219   12.9077   27.3847 H   0  0  0  0  0  0  0  0  0  0  0  0
   23.3088   10.9356   27.7355 H   0  0  0  0  0  0  0  0  0  0  0  0
   22.2135   13.4895   32.5922 H   0  0  0  0  0  0  0  0  0  0  0  0
   20.9302    4.1695   34.8521 H   0  0  0  0  0  0  0  0  0  0  0  0
   31.8642    0.4693   33.7818 H   0  0  0  0  0  0  0  0  0  0  0  0
   32.2541    9.0146   34.0039 H   0  0  0  0  0  0  0  0  0  0  0  0
 25 26  2  0
 26 27  1  0
 27 23  1  0
 28 29  1  0
  1  2  2  0
  3  4  2  0
  7  8  2  0
 14 15  1  0
 29 30  1  0
 30 31  2  0
 31 32  1  0
 32 28  2  0
 15 16  1  0
 29 33  2  0
 17 33  1  0
 16 17  1  0
 14 34  2  0
 22 34  1  0
 17 13  2  0
 27 35  2  0
 19 35  1  0
 18 19  1  0
 24 36  2  0
 32 36  1  0
  8  9  1  0
  4  5  1  0
 37 38  2  0
  9 10  2  0
 38 39  1  0
  2  3  1  0
 39 40  2  0
 10 11  1  0
 40 41  1  0
 19 20  2  0
 41 42  2  0
 42 37  1  0
 33 37  1  0
 20 21  1  0
 21 22  2  0
 43 44  2  0
 22 18  1  0
 44 45  1  0
 23 24  1  0
 45 46  2  0
  5  6  2  0
 46 47  1  0
 11 12  2  0
 47 48  2  0
 48 43  1  0
 36 43  1  0
 12  7  1  0
 45 49  1  0
 13 14  1  0
 39 50  1  0
 35 12  1  0
 34  2  1  0
  6  1  1  0
  4 51  1  0
 24 25  1  0
  8 52  1  0
  1 53  1  0
  3 54  1  0
  5 55  1  0
  6 56  1  0
  7 57  1  0
  9 58  1  0
 10 59  1  0
 11 60  1  0
 15 61  1  0
 15 62  1  0
 16 63  1  0
 16 64  1  0
 18 65  1  0
 20 66  1  0
 21 67  1  0
 23 68  1  0
 25 69  1  0
 26 70  1  0
 30 71  1  0
 31 72  1  0
 38 73  1  0
 40 74  1  0
 41 75  1  0
 42 76  1  0
 44 77  1  0
 46 78  1  0
 47 79  1  0
 48 80  1  0
 49 81  1  0
 50 82  1  0
 51 83  1  0
 52 84  1  0
M  END
> <Uni-Dock RESULT> 
ENERGY=   -4.963  LOWER_BOUND=    1.554  UPPER_BOUND=    7.190
INTER + INTRA:          -4.963
INTER:                  -4.963
INTRA:                   0.000
UNBOUND:                 0.000

$$$$

     RDKit          3D

 84 92  0  0  0  0  0  0  0  0999 V2000
   28.6307    3.3420   33.7847 C   0  0  0  0  0  0  0  0  0  0  0  0
   28.0953    3.4438   32.4953 C   0  0  0  0  0  0  0  0  0  0  0  0
   27.8009    2.2787   31.7781 C   0  0  0  0  0  0  0  0  0  0  0  0
   28.0479    1.0349   32.3489 C   0  0  0  0  0  0  0  0  0  0  0  0
   28.5835    0.9315   33.6322 C   0  0  0  0  0  0  0  0  0  0  0  0
   28.8751    2.0907   34.3520 C   0  0  0  0  0  0  0  0  0  0  0  0
   22.2485    5.6976   29.6208 C   0  0  0  0  0  0  0  0  0  0  0  0
   21.0249    5.0739   29.3962 C   0  0  0  0  0  0  0  0  0  0  0  0
   19.8501    5.5899   29.9322 C   0  0  0  0  0  0  0  0  0  0  0  0
   19.8925    6.7463   30.7120 C   0  0  0  0  0  0  0  0  0  0  0  0
   21.1157    7.3762   30.9479 C   0  0  0  0  0  0  0  0  0  0  0  0
   22.2992    6.8619   30.3989 C   0  0  0  0  0  0  0  0  0  0  0  0
   28.6687    6.6698   30.5854 N   0  0  0  0  0  0  0  0  0  0  0  0
   28.7732    5.4576   31.2007 C   0  0  0  0  0  0  0  0  0  0  0  0
   30.1529    4.9072   30.9719 C   0  0  0  0  0  0  0  0  0  0  0  0
   30.9370    6.1356   30.5872 C   0  0  0  0  0  0  0  0  0  0  0  0
   29.8748    7.1316   30.1436 C   0  0  0  0  0  0  0  0  0  0  0  0
   25.9206    6.3556   31.1892 N   0  0  0  0  0  0  0  0  0  0  0  0
   24.6303    6.6493   31.5343 C   0  0  0  0  0  0  0  0  0  0  0  0
   24.3434    5.9925   32.7159 C   0  0  0  0  0  0  0  0  0  0  0  0
   25.4747    5.2027   33.0493 C   0  0  0  0  0  0  0  0  0  0  0  0
   26.4112    5.4180   32.0655 C   0  0  0  0  0  0  0  0  0  0  0  0
   25.2726    9.3079   29.8090 N   0  0  0  0  0  0  0  0  0  0  0  0
   25.2020   10.5383   29.1998 C   0  0  0  0  0  0  0  0  0  0  0  0
   23.8852   10.9393   29.1783 C   0  0  0  0  0  0  0  0  0  0  0  0
   23.1290    9.8923   29.7616 C   0  0  0  0  0  0  0  0  0  0  0  0
   24.0039    8.8833   30.1164 C   0  0  0  0  0  0  0  0  0  0  0  0
   28.0332    9.4723   29.1903 N   0  0  0  0  0  0  0  0  0  0  0  0
   29.3897    9.2845   29.0805 C   0  0  0  0  0  0  0  0  0  0  0  0
   29.8886   10.4798   28.4070 C   0  0  0  0  0  0  0  0  0  0  0  0
   28.8763   11.3039   28.1688 C   0  0  0  0  0  0  0  0  0  0  0  0
   27.6717   10.6896   28.6744 C   0  0  0  0  0  0  0  0  0  0  0  0
   30.2366    8.2782   29.4771 C   0  0  0  0  0  0  0  0  0  0  0  0
   27.8382    4.7714   31.9106 C   0  0  0  0  0  0  0  0  0  0  0  0
   23.6050    7.4883   30.7056 C   0  0  0  0  0  0  0  0  0  0  0  0
   26.4570   11.2965   28.6084 C   0  0  0  0  0  0  0  0  0  0  0  0
   31.6944    8.4462   29.1925 C   0  0  0  0  0  0  0  0  0  0  0  0
   32.2298    8.0017   27.9770 C   0  0  0  0  0  0  0  0  0  0  0  0
   33.5921    8.1537   27.7262 C   0  0  0  0  0  0  0  0  0  0  0  0
   34.4358    8.7393   28.6648 C   0  0  0  0  0  0  0  0  0  0  0  0
   33.9076    9.1873   29.8765 C   0  0  0  0  0  0  0  0  0  0  0  0
   32.5421    9.0440   30.1378 C   0  0  0  0  0  0  0  0  0  0  0  0
   26.2643   12.6226   27.9861 C   0  0  0  0  0  0  0  0  0  0  0  0
   26.0605   12.7226   26.6044 C   0  0  0  0  0  0  0  0  0  0  0  0
   25.8835   13.9755   26.0214 C   0  0  0  0  0  0  0  0  0  0  0  0
   25.8979   15.1310   26.7962 C   0  0  0  0  0  0  0  0  0  0  0  0
   26.1023   15.0334   28.1738 C   0  0  0  0  0  0  0  0  0  0  0  0
   26.2873   13.7818   28.7685 C   0  0  0  0  0  0  0  0  0  0  0  0
   25.6950   14.1004   24.6733 O   0  0  0  0  0  0  0  0  0  0  0  0
   34.1358    7.7284   26.5450 O   0  0  0  0  0  0  0  0  0  0  0  0
   27.7527   -0.0825   31.6219 O   0  0  0  0  0  0  0  0  0  0  0  0
   20.9440    3.9299   28.6513 O   0  0  0  0  0  0  0  0  0  0  0  0
   28.8616    4.2544   34.3299 H   0  0  0  0  0  0  0  0  0  0  0  0
   27.3853    2.3561   30.7779 H   0  0  0  0  0  0  0  0  0  0  0  0
   28.7805   -0.0349   34.0807 H   0  0  0  0  0  0  0  0  0  0  0  0
   29.2919    2.0293   35.3517 H   0  0  0  0  0  0  0  0  0  0  0  0
   23.1692    5.2920   29.2125 H   0  0  0  0  0  0  0  0  0  0  0  0
   18.9062    5.0879   29.7461 H   0  0  0  0  0  0  0  0  0  0  0  0
   18.9827    7.1476   31.1458 H   0  0  0  0  0  0  0  0  0  0  0  0
   21.1552    8.2577   31.5842 H   0  0  0  0  0  0  0  0  0  0  0  0
   30.1411    4.1832   30.1475 H   0  0  0  0  0  0  0  0  0  0  0  0
   30.5993    4.4317   31.8516 H   0  0  0  0  0  0  0  0  0  0  0  0
   31.6668    5.8775   29.8126 H   0  0  0  0  0  0  0  0  0  0  0  0
   31.4712    6.5242   31.4662 H   0  0  0  0  0  0  0  0  0  0  0  0
   26.5041    6.7424   30.4469 H   0  0  0  0  0  0  0  0  0  0  0  0
   23.4065    6.0352   33.2525 H   0  0  0  0  0  0  0  0  0  0  0  0
   25.5842    4.5389   33.8941 H   0  0  0  0  0  0  0  0  0  0  0  0
   26.1675    8.8278   29.9278 H   0  0  0  0  0  0  0  0  0  0  0  0
   23.5094   11.8636   28.7650 H   0  0  0  0  0  0  0  0  0  0  0  0
   22.0553    9.8732   29.8654 H   0  0  0  0  0  0  0  0  0  0  0  0
   30.9130   10.6789   28.1500 H   0  0  0  0  0  0  0  0  0  0  0  0
   28.9533   12.2640   27.6910 H   0  0  0  0  0  0  0  0  0  0  0  0
   31.5523    7.5419   27.2633 H   0  0  0  0  0  0  0  0  0  0  0  0
   35.4936    8.8515   28.4499 H   0  0  0  0  0  0  0  0  0  0  0  0
   34.5493    9.6443   30.6219 H   0  0  0  0  0  0  0  0  0  0  0  0
   32.1096    9.3838   31.0757 H   0  0  0  0  0  0  0  0  0  0  0  0
   26.0555   11.8091   26.0168 H   0  0  0  0  0  0  0  0  0  0  0  0
   25.7647   16.1013   26.3329 H   0  0  0  0  0  0  0  0  0  0  0  0
   26.1280   15.9291   28.7869 H   0  0  0  0  0  0  0  0  0  0  0  0
   26.4577   13.6911   29.8387 H   0  0  0  0  0  0  0  0  0  0  0  0
   25.8329   13.2125   24.2988 H   0  0  0  0  0  0  0  0  0  0  0  0
   33.3877    7.4145   26.0094 H   0  0  0  0  0  0  0  0  0  0  0  0
   28.0439   -0.8525   32.1322 H   0  0  0  0  0  0  0  0  0  0  0  0
   21.8520    3.7082   28.3795 H   0  0  0  0  0  0  0  0  0  0  0  0
 25 26  2  0
 26 27  1  0
 27 23  1  0
 28 29  1  0
  1  2  2  0
  3  4  2  0
  7  8  2  0
 14 15  1  0
 29 30  1  0
 30 31  2  0
 31 32  1  0
 32 28  2  0
 15 16  1  0
 29 33  2  0
 17 33  1  0
 16 17  1  0
 14 34  2  0
 22 34  1  0
 17 13  2  0
 27 35  2  0
 19 35  1  0
 18 19  1  0
 24 36  2  0
 32 36  1  0
  8  9  1  0
  4  5  1  0
 37 38  2  0
  9 10  2  0
 38 39  1  0
  2  3  1  0
 39 40  2  0
 10 11  1  0
 40 41  1  0
 19 20  2  0
 41 42  2  0
 42 37  1  0
 33 37  1  0
 20 21  1  0
 21 22  2  0
 43 44  2  0
 22 18  1  0
 44 45  1  0
 23 24  1  0
 45 46  2  0
  5  6  2  0
 46 47  1  0
 11 12  2  0
 47 48  2  0
 48 43  1  0
 36 43  1  0
 12  7  1  0
 45 49  1  0
 13 14  1  0
 39 50  1  0
 35 12  1  0
 34  2  1  0
  6  1  1  0
  4 51  1  0
 24 25  1  0
  8 52  1  0
  1 53  1  0
  3 54  1  0
  5 55  1  0
  6 56  1  0
  7 57  1  0
  9 58  1  0
 10 59  1  0
 11 60  1  0
 15 61  1  0
 15 62  1  0
 16 63  1  0
 16 64  1  0
 18 65  1  0
 20 66  1  0
 21 67  1  0
 23 68  1  0
 25 69  1  0
 26 70  1  0
 30 71  1  0
 31 72  1  0
 38 73  1  0
 40 74  1  0
 41 75  1  0
 42 76  1  0
 44 77  1  0
 46 78  1  0
 47 79  1  0
 48 80  1  0
 49 81  1  0
 50 82  1  0
 51 83  1  0
 52 84  1  0
M  END
> <Uni-Dock RESULT> 
ENERGY=   -4.923  LOWER_BOUND=    2.305  UPPER_BOUND=    8.253
INTER + INTRA:          -4.923
INTER:                  -4.923
INTRA:                   0.000
UNBOUND:                 0.000

$$$$

     RDKit          3D

 84 92  0  0  0  0  0  0  0  0999 V2000
   23.9543   10.6506   28.6499 C   0  0  0  0  0  0  0  0  0  0  0  0
   24.3516   10.2685   29.9366 C   0  0  0  0  0  0  0  0  0  0  0  0
   24.0215   11.0796   31.0283 C   0  0  0  0  0  0  0  0  0  0  0  0
   23.3095   12.2566   30.8245 C   0  0  0  0  0  0  0  0  0  0  0  0
   22.9151   12.6401   29.5431 C   0  0  0  0  0  0  0  0  0  0  0  0
   23.2391   11.8325   28.4524 C   0  0  0  0  0  0  0  0  0  0  0  0
   22.9284    5.1704   34.3537 C   0  0  0  0  0  0  0  0  0  0  0  0
   21.9231    5.0204   35.3043 C   0  0  0  0  0  0  0  0  0  0  0  0
   21.0419    3.9460   35.2500 C   0  0  0  0  0  0  0  0  0  0  0  0
   21.1582    3.0043   34.2269 C   0  0  0  0  0  0  0  0  0  0  0  0
   22.1596    3.1489   33.2651 C   0  0  0  0  0  0  0  0  0  0  0  0
   23.0550    4.2265   33.3256 C   0  0  0  0  0  0  0  0  0  0  0  0
   27.2806    7.8802   30.2537 N   0  0  0  0  0  0  0  0  0  0  0  0
   26.4592    8.9529   30.0698 C   0  0  0  0  0  0  0  0  0  0  0  0
   27.2948   10.1691   29.7846 C   0  0  0  0  0  0  0  0  0  0  0  0
   28.6105    9.5708   29.3571 C   0  0  0  0  0  0  0  0  0  0  0  0
   28.5736    8.1543   29.9132 C   0  0  0  0  0  0  0  0  0  0  0  0
   24.8941    6.6376   31.1350 N   0  0  0  0  0  0  0  0  0  0  0  0
   23.9391    5.6855   31.3614 C   0  0  0  0  0  0  0  0  0  0  0  0
   22.7806    6.0805   30.7198 C   0  0  0  0  0  0  0  0  0  0  0  0
   23.0206    7.3621   30.1590 C   0  0  0  0  0  0  0  0  0  0  0  0
   24.3188    7.6930   30.4696 C   0  0  0  0  0  0  0  0  0  0  0  0
   26.5555    3.8099   31.6688 N   0  0  0  0  0  0  0  0  0  0  0  0
   27.4051    2.7407   31.8262 C   0  0  0  0  0  0  0  0  0  0  0  0
   26.6856    1.6832   32.3355 C   0  0  0  0  0  0  0  0  0  0  0  0
   25.3602    2.1457   32.5293 C   0  0  0  0  0  0  0  0  0  0  0  0
   25.3111    3.4701   32.1383 C   0  0  0  0  0  0  0  0  0  0  0  0
   28.8909    5.1846   30.8402 N   0  0  0  0  0  0  0  0  0  0  0  0
   29.8081    6.0851   30.3552 C   0  0  0  0  0  0  0  0  0  0  0  0
   31.0728    5.3574   30.3107 C   0  0  0  0  0  0  0  0  0  0  0  0
   30.8776    4.1125   30.7264 C   0  0  0  0  0  0  0  0  0  0  0  0
   29.4807    3.9670   31.0604 C   0  0  0  0  0  0  0  0  0  0  0  0
   29.7174    7.3921   29.9420 C   0  0  0  0  0  0  0  0  0  0  0  0
   25.1022    9.0158   30.1308 C   0  0  0  0  0  0  0  0  0  0  0  0
   24.0724    4.4195   32.2678 C   0  0  0  0  0  0  0  0  0  0  0  0
   28.9502    2.7933   31.4952 C   0  0  0  0  0  0  0  0  0  0  0  0
   30.9639    8.0502   29.4444 C   0  0  0  0  0  0  0  0  0  0  0  0
   31.8148    8.7124   30.3384 C   0  0  0  0  0  0  0  0  0  0  0  0
   32.9689    9.3316   29.8624 C   0  0  0  0  0  0  0  0  0  0  0  0
   33.2934    9.3069   28.5098 C   0  0  0  0  0  0  0  0  0  0  0  0
   32.4511    8.6458   27.6145 C   0  0  0  0  0  0  0  0  0  0  0  0
   31.2929    8.0176   28.0805 C   0  0  0  0  0  0  0  0  0  0  0  0
   29.7659    1.5771   31.6909 C   0  0  0  0  0  0  0  0  0  0  0  0
   30.4441    1.3781   32.8997 C   0  0  0  0  0  0  0  0  0  0  0  0
   31.2155    0.2317   33.0782 C   0  0  0  0  0  0  0  0  0  0  0  0
   31.3147   -0.7246   32.0726 C   0  0  0  0  0  0  0  0  0  0  0  0
   30.6405   -0.5274   30.8661 C   0  0  0  0  0  0  0  0  0  0  0  0
   29.8686    0.6222   30.6739 C   0  0  0  0  0  0  0  0  0  0  0  0
   31.8966    0.0205   34.2443 O   0  0  0  0  0  0  0  0  0  0  0  0
   33.8151    9.9823   30.7182 O   0  0  0  0  0  0  0  0  0  0  0  0
   23.0059   13.0273   31.9099 O   0  0  0  0  0  0  0  0  0  0  0  0
   21.7662    5.9308   36.3126 O   0  0  0  0  0  0  0  0  0  0  0  0
   24.2222   10.0156   27.8084 H   0  0  0  0  0  0  0  0  0  0  0  0
   24.3287   10.7843   32.0271 H   0  0  0  0  0  0  0  0  0  0  0  0
   22.3626   13.5574   29.3781 H   0  0  0  0  0  0  0  0  0  0  0  0
   22.9402   12.1149   27.4485 H   0  0  0  0  0  0  0  0  0  0  0  0
   23.6119    6.0134   34.3869 H   0  0  0  0  0  0  0  0  0  0  0  0
   20.2642    3.8479   36.0004 H   0  0  0  0  0  0  0  0  0  0  0  0
   20.4661    2.1710   34.1687 H   0  0  0  0  0  0  0  0  0  0  0  0
   22.2298    2.4350   32.4472 H   0  0  0  0  0  0  0  0  0  0  0  0
   27.4205   10.7659   30.6967 H   0  0  0  0  0  0  0  0  0  0  0  0
   26.8962   10.8138   28.9942 H   0  0  0  0  0  0  0  0  0  0  0  0
   29.4337   10.1848   29.7375 H   0  0  0  0  0  0  0  0  0  0  0  0
   28.6646    9.5410   28.2594 H   0  0  0  0  0  0  0  0  0  0  0  0
   25.8899    6.6322   31.3577 H   0  0  0  0  0  0  0  0  0  0  0  0
   21.8495    5.5324   30.7000 H   0  0  0  0  0  0  0  0  0  0  0  0
   22.3225    7.9794   29.6132 H   0  0  0  0  0  0  0  0  0  0  0  0
   26.8920    4.7024   31.3005 H   0  0  0  0  0  0  0  0  0  0  0  0
   27.0753    0.7031   32.5678 H   0  0  0  0  0  0  0  0  0  0  0  0
   24.5487    1.5732   32.9510 H   0  0  0  0  0  0  0  0  0  0  0  0
   32.0174    5.7519   29.9832 H   0  0  0  0  0  0  0  0  0  0  0  0
   31.6336    3.3506   30.7894 H   0  0  0  0  0  0  0  0  0  0  0  0
   31.5365    8.7235   31.3882 H   0  0  0  0  0  0  0  0  0  0  0  0
   34.1981    9.7926   28.1587 H   0  0  0  0  0  0  0  0  0  0  0  0
   32.6854    8.6174   26.5559 H   0  0  0  0  0  0  0  0  0  0  0  0
   30.6214    7.4987   27.4008 H   0  0  0  0  0  0  0  0  0  0  0  0
   30.3560    2.1377   33.6711 H   0  0  0  0  0  0  0  0  0  0  0  0
   31.9215   -1.6103   32.2188 H   0  0  0  0  0  0  0  0  0  0  0  0
   30.7205   -1.2607   30.0695 H   0  0  0  0  0  0  0  0  0  0  0  0
   29.3461    0.7943   29.7358 H   0  0  0  0  0  0  0  0  0  0  0  0
   31.7999    0.8377   34.7644 H   0  0  0  0  0  0  0  0  0  0  0  0
   33.4542    9.8332   31.6085 H   0  0  0  0  0  0  0  0  0  0  0  0
   22.5732   13.8323   31.5890 H   0  0  0  0  0  0  0  0  0  0  0  0
   22.4477    6.6133   36.1819 H   0  0  0  0  0  0  0  0  0  0  0  0
 25 26  2  0
 26 27  1  0
 27 23  1  0
 28 29  1  0
  1  2  2  0
  3  4  2  0
  7  8  2  0
 14 15  1  0
 29 30  1  0
 30 31  2  0
 31 32  1  0
 32 28  2  0
 15 16  1  0
 29 33  2  0
 17 33  1  0
 16 17  1  0
 14 34  2  0
 22 34  1  0
 17 13  2  0
 27 35  2  0
 19 35  1  0
 18 19  1  0
 24 36  2  0
 32 36  1  0
  8  9  1  0
  4  5  1  0
 37 38  2  0
  9 10  2  0
 38 39  1  0
  2  3  1  0
 39 40  2  0
 10 11  1  0
 40 41  1  0
 19 20  2  0
 41 42  2  0
 42 37  1  0
 33 37  1  0
 20 21  1  0
 21 22  2  0
 43 44  2  0
 22 18  1  0
 44 45  1  0
 23 24  1  0
 45 46  2  0
  5  6  2  0
 46 47  1  0
 11 12  2  0
 47 48  2  0
 48 43  1  0
 36 43  1  0
 12  7  1  0
 45 49  1  0
 13 14  1  0
 39 50  1  0
 35 12  1  0
 34  2  1  0
  6  1  1  0
  4 51  1  0
 24 25  1  0
  8 52  1  0
  1 53  1  0
  3 54  1  0
  5 55  1  0
  6 56  1  0
  7 57  1  0
  9 58  1  0
 10 59  1  0
 11 60  1  0
 15 61  1  0
 15 62  1  0
 16 63  1  0
 16 64  1  0
 18 65  1  0
 20 66  1  0
 21 67  1  0
 23 68  1  0
 25 69  1  0
 26 70  1  0
 30 71  1  0
 31 72  1  0
 38 73  1  0
 40 74  1  0
 41 75  1  0
 42 76  1  0
 44 77  1  0
 46 78  1  0
 47 79  1  0
 48 80  1  0
 49 81  1  0
 50 82  1  0
 51 83  1  0
 52 84  1  0
M  END
> <Uni-Dock RESULT> 
ENERGY=   -4.877  LOWER_BOUND=    1.528  UPPER_BOUND=    7.999
INTER + INTRA:          -4.877
INTER:                  -4.877
INTRA:                   0.000
UNBOUND:                 0.000

$$$$

     RDKit          3D

 84 92  0  0  0  0  0  0  0  0999 V2000
   30.5921   12.0849   19.7754 C   0  0  0  0  0  0  0  0  0  0  0  0
   29.7542   11.3881   20.6539 C   0  0  0  0  0  0  0  0  0  0  0  0
   29.6077   10.0035   20.5129 C   0  0  0  0  0  0  0  0  0  0  0  0
   30.2889    9.3360   19.5008 C   0  0  0  0  0  0  0  0  0  0  0  0
   31.1222   10.0289   18.6232 C   0  0  0  0  0  0  0  0  0  0  0  0
   31.2737   11.4089   18.7626 C   0  0  0  0  0  0  0  0  0  0  0  0
   29.6267    9.8807   27.3799 C   0  0  0  0  0  0  0  0  0  0  0  0
   30.2017    8.8443   28.1092 C   0  0  0  0  0  0  0  0  0  0  0  0
   31.0859    9.1068   29.1499 C   0  0  0  0  0  0  0  0  0  0  0  0
   31.4099   10.4260   29.4690 C   0  0  0  0  0  0  0  0  0  0  0  0
   30.8430   11.4726   28.7397 C   0  0  0  0  0  0  0  0  0  0  0  0
   29.9432   11.2086   27.6970 C   0  0  0  0  0  0  0  0  0  0  0  0
   27.0368   13.3410   22.4388 N   0  0  0  0  0  0  0  0  0  0  0  0
   27.8164   12.6706   21.5434 C   0  0  0  0  0  0  0  0  0  0  0  0
   27.0967   12.5926   20.2262 C   0  0  0  0  0  0  0  0  0  0  0  0
   26.0706   13.6900   20.3471 C   0  0  0  0  0  0  0  0  0  0  0  0
   25.9586   13.9316   21.8458 C   0  0  0  0  0  0  0  0  0  0  0  0
   28.9645   12.4122   24.2928 N   0  0  0  0  0  0  0  0  0  0  0  0
   29.8048   12.3650   25.3706 C   0  0  0  0  0  0  0  0  0  0  0  0
   31.1007   12.2743   24.8992 C   0  0  0  0  0  0  0  0  0  0  0  0
   31.0330   12.1742   23.4850 C   0  0  0  0  0  0  0  0  0  0  0  0
   29.7003   12.2202   23.1485 C   0  0  0  0  0  0  0  0  0  0  0  0
   27.3565   13.9634   26.7523 N   0  0  0  0  0  0  0  0  0  0  0  0
   26.5607   14.6631   27.6281 C   0  0  0  0  0  0  0  0  0  0  0  0
   27.0807   14.5253   28.8953 C   0  0  0  0  0  0  0  0  0  0  0  0
   28.2107   13.6774   28.7839 C   0  0  0  0  0  0  0  0  0  0  0  0
   28.3437   13.3194   27.4559 C   0  0  0  0  0  0  0  0  0  0  0  0
   25.4498   14.7672   24.8161 N   0  0  0  0  0  0  0  0  0  0  0  0
   24.7451   15.0323   23.6670 C   0  0  0  0  0  0  0  0  0  0  0  0
   23.6267   15.8707   24.0884 C   0  0  0  0  0  0  0  0  0  0  0  0
   23.7064   16.0839   25.3956 C   0  0  0  0  0  0  0  0  0  0  0  0
   24.8772   15.3986   25.8894 C   0  0  0  0  0  0  0  0  0  0  0  0
   24.9258   14.6860   22.3500 C   0  0  0  0  0  0  0  0  0  0  0  0
   29.0443   12.1141   21.7214 C   0  0  0  0  0  0  0  0  0  0  0  0
   29.3956   12.3135   26.8780 C   0  0  0  0  0  0  0  0  0  0  0  0
   25.2561   15.4438   27.1941 C   0  0  0  0  0  0  0  0  0  0  0  0
   23.9327   15.1963   21.3561 C   0  0  0  0  0  0  0  0  0  0  0  0
   22.7767   14.4576   21.0738 C   0  0  0  0  0  0  0  0  0  0  0  0
   21.8625   14.9373   20.1378 C   0  0  0  0  0  0  0  0  0  0  0  0
   22.0772   16.1406   19.4733 C   0  0  0  0  0  0  0  0  0  0  0  0
   23.2255   16.8829   19.7528 C   0  0  0  0  0  0  0  0  0  0  0  0
   24.1478   16.4140   20.6925 C   0  0  0  0  0  0  0  0  0  0  0  0
   24.4839   16.1735   28.2209 C   0  0  0  0  0  0  0  0  0  0  0  0
   23.4076   15.5472   28.8613 C   0  0  0  0  0  0  0  0  0  0  0  0
   22.6797   16.2407   29.8258 C   0  0  0  0  0  0  0  0  0  0  0  0
   23.0134   17.5472   30.1684 C   0  0  0  0  0  0  0  0  0  0  0  0
   24.0853   18.1737   29.5300 C   0  0  0  0  0  0  0  0  0  0  0  0
   24.8188   17.4895   28.5563 C   0  0  0  0  0  0  0  0  0  0  0  0
   21.6173   15.6555   30.4563 O   0  0  0  0  0  0  0  0  0  0  0  0
   20.7260   14.2329   19.8482 O   0  0  0  0  0  0  0  0  0  0  0  0
   30.1222    7.9856   19.3879 O   0  0  0  0  0  0  0  0  0  0  0  0
   29.9223    7.5380   27.8164 O   0  0  0  0  0  0  0  0  0  0  0  0
   30.6930   13.1618   19.8907 H   0  0  0  0  0  0  0  0  0  0  0  0
   28.9582    9.4615   21.1938 H   0  0  0  0  0  0  0  0  0  0  0  0
   31.6531    9.5144   17.8311 H   0  0  0  0  0  0  0  0  0  0  0  0
   31.9179   11.9642   18.0891 H   0  0  0  0  0  0  0  0  0  0  0  0
   28.9439    9.6795   26.5601 H   0  0  0  0  0  0  0  0  0  0  0  0
   31.5242    8.2843   29.7056 H   0  0  0  0  0  0  0  0  0  0  0  0
   32.1098   10.6393   30.2700 H   0  0  0  0  0  0  0  0  0  0  0  0
   31.1212   12.5000   28.9643 H   0  0  0  0  0  0  0  0  0  0  0  0
   26.6070   11.6166   20.1183 H   0  0  0  0  0  0  0  0  0  0  0  0
   27.7355   12.7644   19.3535 H   0  0  0  0  0  0  0  0  0  0  0  0
   25.1374   13.3742   19.8689 H   0  0  0  0  0  0  0  0  0  0  0  0
   26.4387   14.5978   19.8478 H   0  0  0  0  0  0  0  0  0  0  0  0
   27.9601   12.5876   24.2527 H   0  0  0  0  0  0  0  0  0  0  0  0
   31.9937   12.2327   25.5063 H   0  0  0  0  0  0  0  0  0  0  0  0
   31.8568   12.0595   22.7963 H   0  0  0  0  0  0  0  0  0  0  0  0
   27.1443   13.9355   25.7525 H   0  0  0  0  0  0  0  0  0  0  0  0
   26.6774   14.9598   29.7980 H   0  0  0  0  0  0  0  0  0  0  0  0
   28.8268   13.3382   29.6022 H   0  0  0  0  0  0  0  0  0  0  0  0
   22.8601   16.2692   23.4492 H   0  0  0  0  0  0  0  0  0  0  0  0
   23.0188   16.6746   25.9739 H   0  0  0  0  0  0  0  0  0  0  0  0
   22.6349   13.5183   21.6005 H   0  0  0  0  0  0  0  0  0  0  0  0
   21.3521   16.4990   18.7498 H   0  0  0  0  0  0  0  0  0  0  0  0
   23.4120   17.8222   19.2436 H   0  0  0  0  0  0  0  0  0  0  0  0
   25.0500   16.9748   20.9243 H   0  0  0  0  0  0  0  0  0  0  0  0
   23.1614   14.5281   28.5777 H   0  0  0  0  0  0  0  0  0  0  0  0
   22.4379   18.0801   30.9159 H   0  0  0  0  0  0  0  0  0  0  0  0
   24.3473   19.1972   29.7801 H   0  0  0  0  0  0  0  0  0  0  0  0
   25.6497   17.9681   28.0433 H   0  0  0  0  0  0  0  0  0  0  0  0
   21.4719   14.8051   30.0056 H   0  0  0  0  0  0  0  0  0  0  0  0
   20.7284   13.4706   20.4514 H   0  0  0  0  0  0  0  0  0  0  0  0
   30.6069    7.6927   18.6021 H   0  0  0  0  0  0  0  0  0  0  0  0
   29.3108    7.5455   27.0592 H   0  0  0  0  0  0  0  0  0  0  0  0
 25 26  2  0
 26 27  1  0
 27 23  1  0
 28 29  1  0
  1  2  2  0
  3  4  2  0
  7  8  2  0
 14 15  1  0
 29 30  1  0
 30 31  2  0
 31 32  1  0
 32 28  2  0
 15 16  1  0
 29 33  2  0
 17 33  1  0
 16 17  1  0
 14 34  2  0
 22 34  1  0
 17 13  2  0
 27 35  2  0
 19 35  1  0
 18 19  1  0
 24 36  2  0
 32 36  1  0
  8  9  1  0
  4  5  1  0
 37 38  2  0
  9 10  2  0
 38 39  1  0
  2  3  1  0
 39 40  2  0
 10 11  1  0
 40 41  1  0
 19 20  2  0
 41 42  2  0
 42 37  1  0
 33 37  1  0
 20 21  1  0
 21 22  2  0
 43 44  2  0
 22 18  1  0
 44 45  1  0
 23 24  1  0
 45 46  2  0
  5  6  2  0
 46 47  1  0
 11 12  2  0
 47 48  2  0
 48 43  1  0
 36 43  1  0
 12  7  1  0
 45 49  1  0
 13 14  1  0
 39 50  1  0
 35 12  1  0
 34  2  1  0
  6  1  1  0
  4 51  1  0
 24 25  1  0
  8 52  1  0
  1 53  1  0
  3 54  1  0
  5 55  1  0
  6 56  1  0
  7 57  1  0
  9 58  1  0
 10 59  1  0
 11 60  1  0
 15 61  1  0
 15 62  1  0
 16 63  1  0
 16 64  1  0
 18 65  1  0
 20 66  1  0
 21 67  1  0
 23 68  1  0
 25 69  1  0
 26 70  1  0
 30 71  1  0
 31 72  1  0
 38 73  1  0
 40 74  1  0
 41 75  1  0
 42 76  1  0
 44 77  1  0
 46 78  1  0
 47 79  1  0
 48 80  1  0
 49 81  1  0
 50 82  1  0
 51 83  1  0
 52 84  1  0
M  END
> <Uni-Dock RESULT> 
ENERGY=   -4.560  LOWER_BOUND=    6.655  UPPER_BOUND=   11.948
INTER + INTRA:          -4.560
INTER:                  -4.560
INTRA:                   0.000
UNBOUND:                 0.000

$$$$

     RDKit          3D

 84 92  0  0  0  0  0  0  0  0999 V2000
   32.9534    8.7274   32.3475 C   0  0  0  0  0  0  0  0  0  0  0  0
   32.3910    7.8981   31.3699 C   0  0  0  0  0  0  0  0  0  0  0  0
   33.2241    7.2736   30.4348 C   0  0  0  0  0  0  0  0  0  0  0  0
   34.5975    7.4868   30.4816 C   0  0  0  0  0  0  0  0  0  0  0  0
   35.1591    8.3146   31.4531 C   0  0  0  0  0  0  0  0  0  0  0  0
   34.3324    8.9364   32.3895 C   0  0  0  0  0  0  0  0  0  0  0  0
   29.0460    1.8731   31.1767 C   0  0  0  0  0  0  0  0  0  0  0  0
   29.5032    0.5597   31.1267 C   0  0  0  0  0  0  0  0  0  0  0  0
   29.1559   -0.3566   32.1134 C   0  0  0  0  0  0  0  0  0  0  0  0
   28.3424    0.0417   33.1748 C   0  0  0  0  0  0  0  0  0  0  0  0
   27.8833    1.3586   33.2372 C   0  0  0  0  0  0  0  0  0  0  0  0
   28.2247    2.2800   32.2368 C   0  0  0  0  0  0  0  0  0  0  0  0
   28.7306    8.3964   30.5115 N   0  0  0  0  0  0  0  0  0  0  0  0
   30.0839    8.4890   30.6496 C   0  0  0  0  0  0  0  0  0  0  0  0
   30.5777    9.6755   29.8703 C   0  0  0  0  0  0  0  0  0  0  0  0
   29.3253   10.4945   29.6900 C   0  0  0  0  0  0  0  0  0  0  0  0
   28.1948    9.5000   29.9133 C   0  0  0  0  0  0  0  0  0  0  0  0
   29.1208    5.8789   31.7468 N   0  0  0  0  0  0  0  0  0  0  0  0
   28.9116    4.7729   32.5234 C   0  0  0  0  0  0  0  0  0  0  0  0
   29.9233    4.7121   33.4628 C   0  0  0  0  0  0  0  0  0  0  0  0
   30.8253    5.7725   33.1860 C   0  0  0  0  0  0  0  0  0  0  0  0
   30.3224    6.4455   32.0972 C   0  0  0  0  0  0  0  0  0  0  0  0
   25.8496    5.3071   31.6305 N   0  0  0  0  0  0  0  0  0  0  0  0
   24.4828    5.2509   31.4940 C   0  0  0  0  0  0  0  0  0  0  0  0
   24.0453    4.0400   31.9816 C   0  0  0  0  0  0  0  0  0  0  0  0
   25.1973    3.3235   32.3911 C   0  0  0  0  0  0  0  0  0  0  0  0
   26.3018    4.1142   32.1373 C   0  0  0  0  0  0  0  0  0  0  0  0
   25.5954    7.8122   30.3304 N   0  0  0  0  0  0  0  0  0  0  0  0
   25.7892    9.0564   29.7811 C   0  0  0  0  0  0  0  0  0  0  0  0
   24.4565    9.5238   29.4114 C   0  0  0  0  0  0  0  0  0  0  0  0
   23.5600    8.6064   29.7509 C   0  0  0  0  0  0  0  0  0  0  0  0
   24.2611    7.4998   30.3576 C   0  0  0  0  0  0  0  0  0  0  0  0
   26.9044    9.8314   29.5739 C   0  0  0  0  0  0  0  0  0  0  0  0
   30.9339    7.6830   31.3403 C   0  0  0  0  0  0  0  0  0  0  0  0
   27.7968    3.6935   32.3382 C   0  0  0  0  0  0  0  0  0  0  0  0
   23.6194    6.4034   30.8414 C   0  0  0  0  0  0  0  0  0  0  0  0
   26.7086   11.1762   28.9513 C   0  0  0  0  0  0  0  0  0  0  0  0
   26.7280   11.3160   27.5578 C   0  0  0  0  0  0  0  0  0  0  0  0
   26.5549   12.5759   26.9881 C   0  0  0  0  0  0  0  0  0  0  0  0
   26.3642   13.7038   27.7799 C   0  0  0  0  0  0  0  0  0  0  0  0
   26.3404   13.5704   29.1690 C   0  0  0  0  0  0  0  0  0  0  0  0
   26.5090   12.3114   29.7519 C   0  0  0  0  0  0  0  0  0  0  0  0
   22.1533    6.2400   30.7587 C   0  0  0  0  0  0  0  0  0  0  0  0
   21.5745    5.7041   29.6018 C   0  0  0  0  0  0  0  0  0  0  0  0
   20.1912    5.5558   29.5268 C   0  0  0  0  0  0  0  0  0  0  0  0
   19.3756    5.9259   30.5915 C   0  0  0  0  0  0  0  0  0  0  0  0
   19.9507    6.4617   31.7452 C   0  0  0  0  0  0  0  0  0  0  0  0
   21.3371    6.6207   31.8290 C   0  0  0  0  0  0  0  0  0  0  0  0
   19.6013    5.0465   28.4038 O   0  0  0  0  0  0  0  0  0  0  0  0
   26.5685   12.7350   25.6294 O   0  0  0  0  0  0  0  0  0  0  0  0
   35.3824    6.8655   29.5531 O   0  0  0  0  0  0  0  0  0  0  0  0
   30.3156    0.1352   30.1118 O   0  0  0  0  0  0  0  0  0  0  0  0
   32.2953    9.2126   33.0649 H   0  0  0  0  0  0  0  0  0  0  0  0
   32.7893    6.6298   29.6760 H   0  0  0  0  0  0  0  0  0  0  0  0
   36.2282    8.4865   31.4926 H   0  0  0  0  0  0  0  0  0  0  0  0
   34.7520    9.5833   33.1526 H   0  0  0  0  0  0  0  0  0  0  0  0
   29.3233    2.5940   30.4137 H   0  0  0  0  0  0  0  0  0  0  0  0
   29.5238   -1.3759   32.0565 H   0  0  0  0  0  0  0  0  0  0  0  0
   28.0784   -0.6628   33.9564 H   0  0  0  0  0  0  0  0  0  0  0  0
   27.2779    1.6798   34.0821 H   0  0  0  0  0  0  0  0  0  0  0  0
   30.9718    9.3539   28.8980 H   0  0  0  0  0  0  0  0  0  0  0  0
   31.3454   10.2636   30.3841 H   0  0  0  0  0  0  0  0  0  0  0  0
   29.3301   10.9588   28.6982 H   0  0  0  0  0  0  0  0  0  0  0  0
   29.2861   11.2841   30.4541 H   0  0  0  0  0  0  0  0  0  0  0  0
   28.5259    6.2995   31.0324 H   0  0  0  0  0  0  0  0  0  0  0  0
   30.0298    3.9591   34.2305 H   0  0  0  0  0  0  0  0  0  0  0  0
   31.7436    6.0035   33.7051 H   0  0  0  0  0  0  0  0  0  0  0  0
   26.3775    6.1285   31.3269 H   0  0  0  0  0  0  0  0  0  0  0  0
   23.0206    3.7004   32.0119 H   0  0  0  0  0  0  0  0  0  0  0  0
   25.2070    2.3201   32.7876 H   0  0  0  0  0  0  0  0  0  0  0  0
   24.2232   10.4652   28.9484 H   0  0  0  0  0  0  0  0  0  0  0  0
   22.4980    8.6884   29.6042 H   0  0  0  0  0  0  0  0  0  0  0  0
   26.8852   10.4219   26.9615 H   0  0  0  0  0  0  0  0  0  0  0  0
   26.2283   14.6761   27.3175 H   0  0  0  0  0  0  0  0  0  0  0  0
   26.1954   14.4380   29.8035 H   0  0  0  0  0  0  0  0  0  0  0  0
   26.4961   12.1845   30.8318 H   0  0  0  0  0  0  0  0  0  0  0  0
   22.2281    5.4239   28.7808 H   0  0  0  0  0  0  0  0  0  0  0  0
   18.3004    5.8118   30.5216 H   0  0  0  0  0  0  0  0  0  0  0  0
   19.3234    6.7658   32.5776 H   0  0  0  0  0  0  0  0  0  0  0  0
   21.7984    7.0461   32.7172 H   0  0  0  0  0  0  0  0  0  0  0  0
   20.3104    4.9614   27.7423 H   0  0  0  0  0  0  0  0  0  0  0  0
   26.6474   11.8389   25.2606 H   0  0  0  0  0  0  0  0  0  0  0  0
   36.2924    7.1702   29.6840 H   0  0  0  0  0  0  0  0  0  0  0  0
   30.4670    0.9040   29.5344 H   0  0  0  0  0  0  0  0  0  0  0  0
 25 26  2  0
 26 27  1  0
 27 23  1  0
 28 29  1  0
  1  2  2  0
  3  4  2  0
  7  8  2  0
 14 15  1  0
 29 30  1  0
 30 31  2  0
 31 32  1  0
 32 28  2  0
 15 16  1  0
 29 33  2  0
 17 33  1  0
 16 17  1  0
 14 34  2  0
 22 34  1  0
 17 13  2  0
 27 35  2  0
 19 35  1  0
 18 19  1  0
 24 36  2  0
 32 36  1  0
  8  9  1  0
  4  5  1  0
 37 38  2  0
  9 10  2  0
 38 39  1  0
  2  3  1  0
 39 40  2  0
 10 11  1  0
 40 41  1  0
 19 20  2  0
 41 42  2  0
 42 37  1  0
 33 37  1  0
 20 21  1  0
 21 22  2  0
 43 44  2  0
 22 18  1  0
 44 45  1  0
 23 24  1  0
 45 46  2  0
  5  6  2  0
 46 47  1  0
 11 12  2  0
 47 48  2  0
 48 43  1  0
 36 43  1  0
 12  7  1  0
 45 49  1  0
 13 14  1  0
 39 50  1  0
 35 12  1  0
 34  2  1  0
  6  1  1  0
  4 51  1  0
 24 25  1  0
  8 52  1  0
  1 53  1  0
  3 54  1  0
  5 55  1  0
  6 56  1  0
  7 57  1  0
  9 58  1  0
 10 59  1  0
 11 60  1  0
 15 61  1  0
 15 62  1  0
 16 63  1  0
 16 64  1  0
 18 65  1  0
 20 66  1  0
 21 67  1  0
 23 68  1  0
 25 69  1  0
 26 70  1  0
 30 71  1  0
 31 72  1  0
 38 73  1  0
 40 74  1  0
 41 75  1  0
 42 76  1  0
 44 77  1  0
 46 78  1  0
 47 79  1  0
 48 80  1  0
 49 81  1  0
 50 82  1  0
 51 83  1  0
 52 84  1  0
M  END
> <Uni-Dock RESULT> 
ENERGY=   -4.447  LOWER_BOUND=    2.409  UPPER_BOUND=    7.741
INTER + INTRA:          -4.447
INTER:                  -4.447
INTRA:                   0.000
UNBOUND:                 0.000

$$$$
