
     RDKit          3D

 84 92  0  0  0  0  0  0  0  0999 V2000
   21.5206    4.5338   32.4171 C   0  0  0  0  0  0  0  0  0  0  0  0
   22.2184    4.4668   31.2048 C   0  0  0  0  0  0  0  0  0  0  0  0
   21.6533    3.7933   30.1157 C   0  0  0  0  0  0  0  0  0  0  0  0
   20.4034    3.1972   30.2499 C   0  0  0  0  0  0  0  0  0  0  0  0
   19.7060    3.2624   31.4519 C   0  0  0  0  0  0  0  0  0  0  0  0
   20.2668    3.9319   32.5413 C   0  0  0  0  0  0  0  0  0  0  0  0
   26.0622   11.2409   32.2992 C   0  0  0  0  0  0  0  0  0  0  0  0
   25.8595   12.4037   33.0372 C   0  0  0  0  0  0  0  0  0  0  0  0
   24.9562   13.3760   32.6103 C   0  0  0  0  0  0  0  0  0  0  0  0
   24.2474   13.1817   31.4254 C   0  0  0  0  0  0  0  0  0  0  0  0
   24.4453   12.0178   30.6791 C   0  0  0  0  0  0  0  0  0  0  0  0
   25.3486   11.0375   31.1130 C   0  0  0  0  0  0  0  0  0  0  0  0
   25.9906    4.8466   31.0845 N   0  0  0  0  0  0  0  0  0  0  0  0
   24.7005    4.4214   31.2201 C   0  0  0  0  0  0  0  0  0  0  0  0
   24.6982    2.9556   31.5577 C   0  0  0  0  0  0  0  0  0  0  0  0
   26.1181    2.7119   32.0000 C   0  0  0  0  0  0  0  0  0  0  0  0
   26.8947    3.8685   31.3915 C   0  0  0  0  0  0  0  0  0  0  0  0
   24.7866    7.3452   30.6321 N   0  0  0  0  0  0  0  0  0  0  0  0
   24.5146    8.6572   30.3426 C   0  0  0  0  0  0  0  0  0  0  0  0
   23.1543    8.7712   30.1366 C   0  0  0  0  0  0  0  0  0  0  0  0
   22.5776    7.4918   30.3577 C   0  0  0  0  0  0  0  0  0  0  0  0
   23.6080    6.6418   30.6884 C   0  0  0  0  0  0  0  0  0  0  0  0
   27.7804    8.5609   29.8054 N   0  0  0  0  0  0  0  0  0  0  0  0
   28.9437    8.7855   29.1129 C   0  0  0  0  0  0  0  0  0  0  0  0
   28.7907    9.9303   28.3653 C   0  0  0  0  0  0  0  0  0  0  0  0
   27.5030   10.4521   28.6708 C   0  0  0  0  0  0  0  0  0  0  0  0
   26.9226    9.6021   29.5910 C   0  0  0  0  0  0  0  0  0  0  0  0
   28.8311    6.0097   30.2123 N   0  0  0  0  0  0  0  0  0  0  0  0
   29.0763    4.7633   30.7276 C   0  0  0  0  0  0  0  0  0  0  0  0
   30.5217    4.5836   30.6097 C   0  0  0  0  0  0  0  0  0  0  0  0
   31.0547    5.6602   30.0401 C   0  0  0  0  0  0  0  0  0  0  0  0
   29.9903    6.5970   29.7762 C   0  0  0  0  0  0  0  0  0  0  0  0
   28.2623    3.7930   31.2587 C   0  0  0  0  0  0  0  0  0  0  0  0
   23.5373    5.1103   31.0626 C   0  0  0  0  0  0  0  0  0  0  0  0
   25.5582    9.8183   30.3120 C   0  0  0  0  0  0  0  0  0  0  0  0
   30.1943    7.8236   29.2243 C   0  0  0  0  0  0  0  0  0  0  0  0
   28.9139    2.5426   31.7512 C   0  0  0  0  0  0  0  0  0  0  0  0
   29.2920    2.4407   33.0968 C   0  0  0  0  0  0  0  0  0  0  0  0
   29.8996    1.2773   33.5575 C   0  0  0  0  0  0  0  0  0  0  0  0
   30.1408    0.2093   32.6987 C   0  0  0  0  0  0  0  0  0  0  0  0
   29.7700    0.3031   31.3562 C   0  0  0  0  0  0  0  0  0  0  0  0
   29.1585    1.4664   30.8839 C   0  0  0  0  0  0  0  0  0  0  0  0
   31.5294    8.3396   28.8650 C   0  0  0  0  0  0  0  0  0  0  0  0
   32.1474    7.9785   27.6618 C   0  0  0  0  0  0  0  0  0  0  0  0
   33.4055    8.4857   27.3547 C   0  0  0  0  0  0  0  0  0  0  0  0
   34.0613    9.3528   28.2278 C   0  0  0  0  0  0  0  0  0  0  0  0
   33.4489    9.7153   29.4274 C   0  0  0  0  0  0  0  0  0  0  0  0
   32.1877    9.2102   29.7437 C   0  0  0  0  0  0  0  0  0  0  0  0
   33.9830    8.1138   26.1733 O   0  0  0  0  0  0  0  0  0  0  0  0
   30.2743    1.1563   34.8667 O   0  0  0  0  0  0  0  0  0  0  0  0
   19.8272    2.5323   29.2049 O   0  0  0  0  0  0  0  0  0  0  0  0
   26.5703   12.5677   34.1913 O   0  0  0  0  0  0  0  0  0  0  0  0
   21.9715    5.0545   33.2600 H   0  0  0  0  0  0  0  0  0  0  0  0
   22.2170    3.7514   29.1874 H   0  0  0  0  0  0  0  0  0  0  0  0
   18.7340    2.7900   31.5419 H   0  0  0  0  0  0  0  0  0  0  0  0
   19.7356    3.9851   33.4869 H   0  0  0  0  0  0  0  0  0  0  0  0
   26.7694   10.4882   32.6427 H   0  0  0  0  0  0  0  0  0  0  0  0
   24.7966   14.2838   33.1808 H   0  0  0  0  0  0  0  0  0  0  0  0
   23.5449   13.9323   31.0762 H   0  0  0  0  0  0  0  0  0  0  0  0
   23.8994   11.8721   29.7504 H   0  0  0  0  0  0  0  0  0  0  0  0
   23.9991    2.6860   32.3556 H   0  0  0  0  0  0  0  0  0  0  0  0
   24.4652    2.3598   30.6661 H   0  0  0  0  0  0  0  0  0  0  0  0
   26.4375    1.7221   31.6624 H   0  0  0  0  0  0  0  0  0  0  0  0
   26.1860    2.7500   33.0949 H   0  0  0  0  0  0  0  0  0  0  0  0
   25.6853    6.8855   30.7961 H   0  0  0  0  0  0  0  0  0  0  0  0
   22.6231    9.6759   29.8851 H   0  0  0  0  0  0  0  0  0  0  0  0
   21.5323    7.2275   30.2991 H   0  0  0  0  0  0  0  0  0  0  0  0
   27.6465    7.7118   30.3578 H   0  0  0  0  0  0  0  0  0  0  0  0
   29.5282   10.3516   27.6978 H   0  0  0  0  0  0  0  0  0  0  0  0
   27.0638   11.3603   28.2857 H   0  0  0  0  0  0  0  0  0  0  0  0
   31.0796    3.7206   30.9240 H   0  0  0  0  0  0  0  0  0  0  0  0
   32.0985    5.8058   29.8298 H   0  0  0  0  0  0  0  0  0  0  0  0
   29.0951    3.2902   33.7444 H   0  0  0  0  0  0  0  0  0  0  0  0
   30.6149   -0.6905   33.0712 H   0  0  0  0  0  0  0  0  0  0  0  0
   29.9548   -0.5216   30.6762 H   0  0  0  0  0  0  0  0  0  0  0  0
   28.8638    1.5631   29.8413 H   0  0  0  0  0  0  0  0  0  0  0  0
   31.6412    7.2964   26.9846 H   0  0  0  0  0  0  0  0  0  0  0  0
   35.0396    9.7535   27.9928 H   0  0  0  0  0  0  0  0  0  0  0  0
   33.9447   10.3860   30.1211 H   0  0  0  0  0  0  0  0  0  0  0  0
   31.7025    9.4799   30.6800 H   0  0  0  0  0  0  0  0  0  0  0  0
   34.8818    8.4728   26.1566 H   0  0  0  0  0  0  0  0  0  0  0  0
   30.0165    1.9933   35.2925 H   0  0  0  0  0  0  0  0  0  0  0  0
   20.4803    2.5365   28.4826 H   0  0  0  0  0  0  0  0  0  0  0  0
   26.2957   13.4002   34.6030 H   0  0  0  0  0  0  0  0  0  0  0  0
 25 26  2  0
 26 27  1  0
 27 23  1  0
 28 29  1  0
  1  2  2  0
  3  4  2  0
  7  8  2  0
 14 15  1  0
 29 30  1  0
 30 31  2  0
 31 32  1  0
 32 28  2  0
 15 16  1  0
 29 33  2  0
 17 33  1  0
 16 17  1  0
 14 34  2  0
 22 34  1  0
 17 13  2  0
 27 35  2  0
 19 35  1  0
 18 19  1  0
 24 36  2  0
 32 36  1  0
  8  9  1  0
  4  5  1  0
 37 38  2  0
  9 10  2  0
 38 39  1  0
  2  3  1  0
 39 40  2  0
 10 11  1  0
 40 41  1  0
 19 20  2  0
 41 42  2  0
 42 37  1  0
 33 37  1  0
 20 21  1  0
 21 22  2  0
 43 44  2  0
 22 18  1  0
 44 45  1  0
 23 24  1  0
 45 46  2  0
  5  6  2  0
 46 47  1  0
 11 12  2  0
 47 48  2  0
 48 43  1  0
 36 43  1  0
 12  7  1  0
 45 49  1  0
 13 14  1  0
 39 50  1  0
 35 12  1  0
 34  2  1  0
  6  1  1  0
  4 51  1  0
 24 25  1  0
  8 52  1  0
  1 53  1  0
  3 54  1  0
  5 55  1  0
  6 56  1  0
  7 57  1  0
  9 58  1  0
 10 59  1  0
 11 60  1  0
 15 61  1  0
 15 62  1  0
 16 63  1  0
 16 64  1  0
 18 65  1  0
 20 66  1  0
 21 67  1  0
 23 68  1  0
 25 69  1  0
 26 70  1  0
 30 71  1  0
 31 72  1  0
 38 73  1  0
 40 74  1  0
 41 75  1  0
 42 76  1  0
 44 77  1  0
 46 78  1  0
 47 79  1  0
 48 80  1  0
 49 81  1  0
 50 82  1  0
 51 83  1  0
 52 84  1  0
M  END
> <Uni-Dock RESULT> 
ENERGY=   -5.772  LOWER_BOUND=    0.000  UPPER_BOUND=    0.000
INTER + INTRA:          -5.772
INTER:                  -5.772
INTRA:                   0.000
UNBOUND:                 0.000

$$$$

     RDKit          3D

 84 92  0  0  0  0  0  0  0  0999 V2000
   27.9293   12.7691   27.9062 C   0  0  0  0  0  0  0  0  0  0  0  0
   27.4138   11.5851   27.3646 C   0  0  0  0  0  0  0  0  0  0  0  0
   27.0806   11.5315   26.0062 C   0  0  0  0  0  0  0  0  0  0  0  0
   27.2653   12.6564   25.2086 C   0  0  0  0  0  0  0  0  0  0  0  0
   27.7784   13.8343   25.7422 C   0  0  0  0  0  0  0  0  0  0  0  0
   28.1106   13.8925   27.0971 C   0  0  0  0  0  0  0  0  0  0  0  0
   31.0915    6.8803   32.4831 C   0  0  0  0  0  0  0  0  0  0  0  0
   32.2263    6.9600   33.2856 C   0  0  0  0  0  0  0  0  0  0  0  0
   33.5010    6.8036   32.7431 C   0  0  0  0  0  0  0  0  0  0  0  0
   33.6408    6.5611   31.3771 C   0  0  0  0  0  0  0  0  0  0  0  0
   32.5071    6.4796   30.5653 C   0  0  0  0  0  0  0  0  0  0  0  0
   31.2262    6.6442   31.1107 C   0  0  0  0  0  0  0  0  0  0  0  0
   25.6854    9.0122   29.5511 N   0  0  0  0  0  0  0  0  0  0  0  0
   26.0353   10.0860   28.7842 C   0  0  0  0  0  0  0  0  0  0  0  0
   24.8301   10.9644   28.5881 C   0  0  0  0  0  0  0  0  0  0  0  0
   23.8884   10.4851   29.6626 C   0  0  0  0  0  0  0  0  0  0  0  0
   24.3974    9.0932   30.0012 C   0  0  0  0  0  0  0  0  0  0  0  0
   28.4009    8.3387   29.2868 N   0  0  0  0  0  0  0  0  0  0  0  0
   29.6286    7.7294   29.3150 C   0  0  0  0  0  0  0  0  0  0  0  0
   30.4454    8.3832   28.4143 C   0  0  0  0  0  0  0  0  0  0  0  0
   29.6991    9.4565   27.8579 C   0  0  0  0  0  0  0  0  0  0  0  0
   28.4518    9.4175   28.4379 C   0  0  0  0  0  0  0  0  0  0  0  0
   27.7464    5.4129   30.7482 N   0  0  0  0  0  0  0  0  0  0  0  0
   27.2591    4.1472   30.9578 C   0  0  0  0  0  0  0  0  0  0  0  0
   28.2511    3.2435   30.6546 C   0  0  0  0  0  0  0  0  0  0  0  0
   29.4054    4.0001   30.3095 C   0  0  0  0  0  0  0  0  0  0  0  0
   29.0686    5.3349   30.4144 C   0  0  0  0  0  0  0  0  0  0  0  0
   25.0666    6.1751   30.8739 N   0  0  0  0  0  0  0  0  0  0  0  0
   23.9237    6.9174   31.0222 C   0  0  0  0  0  0  0  0  0  0  0  0
   22.9838    6.0313   31.7055 C   0  0  0  0  0  0  0  0  0  0  0  0
   23.5600    4.8506   31.9094 C   0  0  0  0  0  0  0  0  0  0  0  0
   24.9030    4.9148   31.3876 C   0  0  0  0  0  0  0  0  0  0  0  0
   23.5859    8.1986   30.6606 C   0  0  0  0  0  0  0  0  0  0  0  0
   27.2310   10.3912   28.2102 C   0  0  0  0  0  0  0  0  0  0  0  0
   30.0362    6.5449   30.2470 C   0  0  0  0  0  0  0  0  0  0  0  0
   25.7841    3.8809   31.4627 C   0  0  0  0  0  0  0  0  0  0  0  0
   22.2185    8.6775   31.0232 C   0  0  0  0  0  0  0  0  0  0  0  0
   22.0199    9.3607   32.2306 C   0  0  0  0  0  0  0  0  0  0  0  0
   20.7471    9.8071   32.5705 C   0  0  0  0  0  0  0  0  0  0  0  0
   19.6629    9.5830   31.7276 C   0  0  0  0  0  0  0  0  0  0  0  0
   19.8509    8.9009   30.5242 C   0  0  0  0  0  0  0  0  0  0  0  0
   21.1250    8.4495   30.1732 C   0  0  0  0  0  0  0  0  0  0  0  0
   25.4708    2.5940   32.1135 C   0  0  0  0  0  0  0  0  0  0  0  0
   24.7524    1.5972   31.4424 C   0  0  0  0  0  0  0  0  0  0  0  0
   24.4771    0.3955   32.0860 C   0  0  0  0  0  0  0  0  0  0  0  0
   24.9089    0.1664   33.3919 C   0  0  0  0  0  0  0  0  0  0  0  0
   25.6253    1.1568   34.0639 C   0  0  0  0  0  0  0  0  0  0  0  0
   25.9047    2.3655   33.4261 C   0  0  0  0  0  0  0  0  0  0  0  0
   23.7729   -0.5574   31.4050 O   0  0  0  0  0  0  0  0  0  0  0  0
   20.5318   10.4774   33.7425 O   0  0  0  0  0  0  0  0  0  0  0  0
   26.9483   12.6343   23.8800 O   0  0  0  0  0  0  0  0  0  0  0  0
   32.0579    7.1948   34.6200 O   0  0  0  0  0  0  0  0  0  0  0  0
   28.1794   12.8024   28.9652 H   0  0  0  0  0  0  0  0  0  0  0  0
   26.6779   10.6026   25.6110 H   0  0  0  0  0  0  0  0  0  0  0  0
   27.9137   14.7037   25.1083 H   0  0  0  0  0  0  0  0  0  0  0  0
   28.5064   14.8076   27.5274 H   0  0  0  0  0  0  0  0  0  0  0  0
   30.1014    7.0050   32.9175 H   0  0  0  0  0  0  0  0  0  0  0  0
   34.3872    6.8630   33.3644 H   0  0  0  0  0  0  0  0  0  0  0  0
   34.6263    6.4309   30.9404 H   0  0  0  0  0  0  0  0  0  0  0  0
   32.6170    6.2807   29.5022 H   0  0  0  0  0  0  0  0  0  0  0  0
   25.0360   12.0325   28.7107 H   0  0  0  0  0  0  0  0  0  0  0  0
   24.3960   10.7991   27.5939 H   0  0  0  0  0  0  0  0  0  0  0  0
   22.8628   10.5148   29.2844 H   0  0  0  0  0  0  0  0  0  0  0  0
   23.9579   11.1344   30.5449 H   0  0  0  0  0  0  0  0  0  0  0  0
   27.5408    8.0975   29.7848 H   0  0  0  0  0  0  0  0  0  0  0  0
   31.4742    8.1413   28.1973 H   0  0  0  0  0  0  0  0  0  0  0  0
   30.0385   10.1814   27.1333 H   0  0  0  0  0  0  0  0  0  0  0  0
   27.1441    6.2342   30.8298 H   0  0  0  0  0  0  0  0  0  0  0  0
   28.1606    2.1680   30.6998 H   0  0  0  0  0  0  0  0  0  0  0  0
   30.3783    3.6135   30.0450 H   0  0  0  0  0  0  0  0  0  0  0  0
   21.9799    6.2787   31.9981 H   0  0  0  0  0  0  0  0  0  0  0  0
   23.1038    4.0060   32.3925 H   0  0  0  0  0  0  0  0  0  0  0  0
   22.8826    9.5191   32.8712 H   0  0  0  0  0  0  0  0  0  0  0  0
   18.6773    9.9361   32.0052 H   0  0  0  0  0  0  0  0  0  0  0  0
   19.0133    8.7179   29.8597 H   0  0  0  0  0  0  0  0  0  0  0  0
   21.2947    7.9133   29.2421 H   0  0  0  0  0  0  0  0  0  0  0  0
   24.4081    1.7777   30.4281 H   0  0  0  0  0  0  0  0  0  0  0  0
   24.7003   -0.7685   33.8972 H   0  0  0  0  0  0  0  0  0  0  0  0
   25.9668    0.9986   35.0813 H   0  0  0  0  0  0  0  0  0  0  0  0
   26.4566    3.1489   33.9424 H   0  0  0  0  0  0  0  0  0  0  0  0
   23.5871   -1.2834   32.0177 H   0  0  0  0  0  0  0  0  0  0  0  0
   21.4019   10.5355   34.1758 H   0  0  0  0  0  0  0  0  0  0  0  0
   26.5499   11.7628   23.7068 H   0  0  0  0  0  0  0  0  0  0  0  0
   32.9324    7.2562   35.0316 H   0  0  0  0  0  0  0  0  0  0  0  0
 25 26  2  0
 26 27  1  0
 27 23  1  0
 28 29  1  0
  1  2  2  0
  3  4  2  0
  7  8  2  0
 14 15  1  0
 29 30  1  0
 30 31  2  0
 31 32  1  0
 32 28  2  0
 15 16  1  0
 29 33  2  0
 17 33  1  0
 16 17  1  0
 14 34  2  0
 22 34  1  0
 17 13  2  0
 27 35  2  0
 19 35  1  0
 18 19  1  0
 24 36  2  0
 32 36  1  0
  8  9  1  0
  4  5  1  0
 37 38  2  0
  9 10  2  0
 38 39  1  0
  2  3  1  0
 39 40  2  0
 10 11  1  0
 40 41  1  0
 19 20  2  0
 41 42  2  0
 42 37  1  0
 33 37  1  0
 20 21  1  0
 21 22  2  0
 43 44  2  0
 22 18  1  0
 44 45  1  0
 23 24  1  0
 45 46  2  0
  5  6  2  0
 46 47  1  0
 11 12  2  0
 47 48  2  0
 48 43  1  0
 36 43  1  0
 12  7  1  0
 45 49  1  0
 13 14  1  0
 39 50  1  0
 35 12  1  0
 34  2  1  0
  6  1  1  0
  4 51  1  0
 24 25  1  0
  8 52  1  0
  1 53  1  0
  3 54  1  0
  5 55  1  0
  6 56  1  0
  7 57  1  0
  9 58  1  0
 10 59  1  0
 11 60  1  0
 15 61  1  0
 15 62  1  0
 16 63  1  0
 16 64  1  0
 18 65  1  0
 20 66  1  0
 21 67  1  0
 23 68  1  0
 25 69  1  0
 26 70  1  0
 30 71  1  0
 31 72  1  0
 38 73  1  0
 40 74  1  0
 41 75  1  0
 42 76  1  0
 44 77  1  0
 46 78  1  0
 47 79  1  0
 48 80  1  0
 49 81  1  0
 50 82  1  0
 51 83  1  0
 52 84  1  0
M  END
> <Uni-Dock RESULT> 
ENERGY=   -5.750  LOWER_BOUND=    2.912  UPPER_BOUND=    9.430
INTER + INTRA:          -5.750
INTER:                  -5.750
INTRA:                   0.000
UNBOUND:                 0.000

$$$$

     RDKit          3D

 84 92  0  0  0  0  0  0  0  0999 V2000
   27.9433   12.7432   27.9080 C   0  0  0  0  0  0  0  0  0  0  0  0
   27.4284   11.5589   27.3664 C   0  0  0  0  0  0  0  0  0  0  0  0
   27.0979   11.5041   26.0074 C   0  0  0  0  0  0  0  0  0  0  0  0
   27.2847   12.6281   25.2091 C   0  0  0  0  0  0  0  0  0  0  0  0
   27.7972   13.8063   25.7426 C   0  0  0  0  0  0  0  0  0  0  0  0
   28.1267   13.8657   27.0980 C   0  0  0  0  0  0  0  0  0  0  0  0
   31.0936    6.8574   32.4970 C   0  0  0  0  0  0  0  0  0  0  0  0
   32.2268    6.9374   33.3017 C   0  0  0  0  0  0  0  0  0  0  0  0
   33.5025    6.7800   32.7619 C   0  0  0  0  0  0  0  0  0  0  0  0
   33.6450    6.5361   31.3964 C   0  0  0  0  0  0  0  0  0  0  0  0
   32.5129    6.4543   30.5824 C   0  0  0  0  0  0  0  0  0  0  0  0
   31.2310    6.6200   31.1250 C   0  0  0  0  0  0  0  0  0  0  0  0
   25.6944    8.9889   29.5520 N   0  0  0  0  0  0  0  0  0  0  0  0
   26.0463   10.0618   28.7847 C   0  0  0  0  0  0  0  0  0  0  0  0
   24.8419   10.9405   28.5853 C   0  0  0  0  0  0  0  0  0  0  0  0
   23.8978   10.4627   29.6583 C   0  0  0  0  0  0  0  0  0  0  0  0
   24.4055    9.0709   29.9994 C   0  0  0  0  0  0  0  0  0  0  0  0
   28.4101    8.3139   29.2938 N   0  0  0  0  0  0  0  0  0  0  0  0
   29.6375    7.7041   29.3251 C   0  0  0  0  0  0  0  0  0  0  0  0
   30.4564    8.3566   28.4254 C   0  0  0  0  0  0  0  0  0  0  0  0
   29.7117    9.4297   27.8665 C   0  0  0  0  0  0  0  0  0  0  0  0
   28.4632    9.3918   28.4439 C   0  0  0  0  0  0  0  0  0  0  0  0
   27.7514    5.3899   30.7567 N   0  0  0  0  0  0  0  0  0  0  0  0
   27.2630    4.1246   30.9665 C   0  0  0  0  0  0  0  0  0  0  0  0
   28.2553    3.2201   30.6662 C   0  0  0  0  0  0  0  0  0  0  0  0
   29.4106    3.9759   30.3228 C   0  0  0  0  0  0  0  0  0  0  0  0
   29.0742    5.3109   30.4257 C   0  0  0  0  0  0  0  0  0  0  0  0
   25.0716    6.1534   30.8763 N   0  0  0  0  0  0  0  0  0  0  0  0
   23.9287    6.8963   31.0215 C   0  0  0  0  0  0  0  0  0  0  0  0
   22.9871    6.0113   31.7037 C   0  0  0  0  0  0  0  0  0  0  0  0
   23.5624    4.8305   31.9100 C   0  0  0  0  0  0  0  0  0  0  0  0
   24.9064    4.8936   31.3908 C   0  0  0  0  0  0  0  0  0  0  0  0
   23.5922    8.1773   30.6580 C   0  0  0  0  0  0  0  0  0  0  0  0
   27.2433   10.3659   28.2128 C   0  0  0  0  0  0  0  0  0  0  0  0
   30.0427    6.5203   30.2591 C   0  0  0  0  0  0  0  0  0  0  0  0
   25.7869    3.8594   31.4688 C   0  0  0  0  0  0  0  0  0  0  0  0
   22.2243    8.6572   31.0173 C   0  0  0  0  0  0  0  0  0  0  0  0
   22.0236    9.3416   32.2236 C   0  0  0  0  0  0  0  0  0  0  0  0
   20.7503    9.7889   32.5605 C   0  0  0  0  0  0  0  0  0  0  0  0
   19.6677    9.5644   31.7156 C   0  0  0  0  0  0  0  0  0  0  0  0
   19.8579    8.8811   30.5133 C   0  0  0  0  0  0  0  0  0  0  0  0
   21.1324    8.4288   30.1653 C   0  0  0  0  0  0  0  0  0  0  0  0
   25.4718    2.5732   32.1202 C   0  0  0  0  0  0  0  0  0  0  0  0
   24.7543    1.5762   31.4486 C   0  0  0  0  0  0  0  0  0  0  0  0
   24.4771    0.3751   32.0928 C   0  0  0  0  0  0  0  0  0  0  0  0
   24.9062    0.1472   33.3998 C   0  0  0  0  0  0  0  0  0  0  0  0
   25.6216    1.1379   34.0722 C   0  0  0  0  0  0  0  0  0  0  0  0
   25.9029    2.3459   33.4339 C   0  0  0  0  0  0  0  0  0  0  0  0
   23.7739   -0.5781   31.4113 O   0  0  0  0  0  0  0  0  0  0  0  0
   20.5330   10.4604   33.7314 O   0  0  0  0  0  0  0  0  0  0  0  0
   26.9704   12.6048   23.8798 O   0  0  0  0  0  0  0  0  0  0  0  0
   32.0558    7.1736   34.6355 O   0  0  0  0  0  0  0  0  0  0  0  0
   28.1913   12.7774   28.9674 H   0  0  0  0  0  0  0  0  0  0  0  0
   26.6955   10.5750   25.6123 H   0  0  0  0  0  0  0  0  0  0  0  0
   27.9342   14.6751   25.1080 H   0  0  0  0  0  0  0  0  0  0  0  0
   28.5220   14.7810   27.5283 H   0  0  0  0  0  0  0  0  0  0  0  0
   30.1027    6.9830   32.9293 H   0  0  0  0  0  0  0  0  0  0  0  0
   34.3875    6.8396   33.3850 H   0  0  0  0  0  0  0  0  0  0  0  0
   34.6313    6.4050   30.9619 H   0  0  0  0  0  0  0  0  0  0  0  0
   32.6249    6.2543   29.5198 H   0  0  0  0  0  0  0  0  0  0  0  0
   25.0480   12.0086   28.7073 H   0  0  0  0  0  0  0  0  0  0  0  0
   24.4097   10.7744   27.5904 H   0  0  0  0  0  0  0  0  0  0  0  0
   22.8730   10.4924   29.2780 H   0  0  0  0  0  0  0  0  0  0  0  0
   23.9657   11.1128   30.5401 H   0  0  0  0  0  0  0  0  0  0  0  0
   27.5489    8.0736   29.7903 H   0  0  0  0  0  0  0  0  0  0  0  0
   31.4855    8.1141   28.2108 H   0  0  0  0  0  0  0  0  0  0  0  0
   30.0529   10.1538   27.1418 H   0  0  0  0  0  0  0  0  0  0  0  0
   27.1493    6.2115   30.8363 H   0  0  0  0  0  0  0  0  0  0  0  0
   28.1643    2.1447   30.7123 H   0  0  0  0  0  0  0  0  0  0  0  0
   30.3839    3.5886   30.0606 H   0  0  0  0  0  0  0  0  0  0  0  0
   21.9827    6.2593   31.9941 H   0  0  0  0  0  0  0  0  0  0  0  0
   23.1048    3.9866   32.3930 H   0  0  0  0  0  0  0  0  0  0  0  0
   22.8850    9.5003   32.8658 H   0  0  0  0  0  0  0  0  0  0  0  0
   18.6817    9.9182   31.9909 H   0  0  0  0  0  0  0  0  0  0  0  0
   19.0216    8.6978   29.8473 H   0  0  0  0  0  0  0  0  0  0  0  0
   21.3038    7.8916   29.2351 H   0  0  0  0  0  0  0  0  0  0  0  0
   24.4121    1.7557   30.4334 H   0  0  0  0  0  0  0  0  0  0  0  0
   24.6962   -0.7871   33.9056 H   0  0  0  0  0  0  0  0  0  0  0  0
   25.9610    0.9805   35.0905 H   0  0  0  0  0  0  0  0  0  0  0  0
   26.4541    3.1295   33.9505 H   0  0  0  0  0  0  0  0  0  0  0  0
   23.5865   -1.3034   32.0244 H   0  0  0  0  0  0  0  0  0  0  0  0
   21.4022   10.5186   34.1664 H   0  0  0  0  0  0  0  0  0  0  0  0
   26.5719   11.7333   23.7067 H   0  0  0  0  0  0  0  0  0  0  0  0
   32.9294    7.2351   35.0488 H   0  0  0  0  0  0  0  0  0  0  0  0
 25 26  2  0
 26 27  1  0
 27 23  1  0
 28 29  1  0
  1  2  2  0
  3  4  2  0
  7  8  2  0
 14 15  1  0
 29 30  1  0
 30 31  2  0
 31 32  1  0
 32 28  2  0
 15 16  1  0
 29 33  2  0
 17 33  1  0
 16 17  1  0
 14 34  2  0
 22 34  1  0
 17 13  2  0
 27 35  2  0
 19 35  1  0
 18 19  1  0
 24 36  2  0
 32 36  1  0
  8  9  1  0
  4  5  1  0
 37 38  2  0
  9 10  2  0
 38 39  1  0
  2  3  1  0
 39 40  2  0
 10 11  1  0
 40 41  1  0
 19 20  2  0
 41 42  2  0
 42 37  1  0
 33 37  1  0
 20 21  1  0
 21 22  2  0
 43 44  2  0
 22 18  1  0
 44 45  1  0
 23 24  1  0
 45 46  2  0
  5  6  2  0
 46 47  1  0
 11 12  2  0
 47 48  2  0
 48 43  1  0
 36 43  1  0
 12  7  1  0
 45 49  1  0
 13 14  1  0
 39 50  1  0
 35 12  1  0
 34  2  1  0
  6  1  1  0
  4 51  1  0
 24 25  1  0
  8 52  1  0
  1 53  1  0
  3 54  1  0
  5 55  1  0
  6 56  1  0
  7 57  1  0
  9 58  1  0
 10 59  1  0
 11 60  1  0
 15 61  1  0
 15 62  1  0
 16 63  1  0
 16 64  1  0
 18 65  1  0
 20 66  1  0
 21 67  1  0
 23 68  1  0
 25 69  1  0
 26 70  1  0
 30 71  1  0
 31 72  1  0
 38 73  1  0
 40 74  1  0
 41 75  1  0
 42 76  1  0
 44 77  1  0
 46 78  1  0
 47 79  1  0
 48 80  1  0
 49 81  1  0
 50 82  1  0
 51 83  1  0
 52 84  1  0
M  END
> <Uni-Dock RESULT> 
ENERGY=   -5.748  LOWER_BOUND=    2.907  UPPER_BOUND=    9.430
INTER + INTRA:          -5.748
INTER:                  -5.748
INTRA:                   0.000
UNBOUND:                 0.000

$$$$

     RDKit          3D

 84 92  0  0  0  0  0  0  0  0999 V2000
   23.5956    2.7505   33.3179 C   0  0  0  0  0  0  0  0  0  0  0  0
   24.1172    2.8901   32.0259 C   0  0  0  0  0  0  0  0  0  0  0  0
   24.0032    1.8342   31.1142 C   0  0  0  0  0  0  0  0  0  0  0  0
   23.3723    0.6565   31.5023 C   0  0  0  0  0  0  0  0  0  0  0  0
   22.8513    0.5140   32.7844 C   0  0  0  0  0  0  0  0  0  0  0  0
   22.9644    1.5642   33.6974 C   0  0  0  0  0  0  0  0  0  0  0  0
   23.1862   10.6966   31.7953 C   0  0  0  0  0  0  0  0  0  0  0  0
   22.3725   11.6310   32.4299 C   0  0  0  0  0  0  0  0  0  0  0  0
   21.0422   11.8001   32.0488 C   0  0  0  0  0  0  0  0  0  0  0  0
   20.5201   11.0236   31.0150 C   0  0  0  0  0  0  0  0  0  0  0  0
   21.3301   10.0840   30.3732 C   0  0  0  0  0  0  0  0  0  0  0  0
   22.6656    9.9098   30.7621 C   0  0  0  0  0  0  0  0  0  0  0  0
   26.8906    5.3690   31.2829 N   0  0  0  0  0  0  0  0  0  0  0  0
   26.1251    4.3037   31.6608 C   0  0  0  0  0  0  0  0  0  0  0  0
   27.0237    3.1995   32.1462 C   0  0  0  0  0  0  0  0  0  0  0  0
   28.3298    3.9120   32.3861 C   0  0  0  0  0  0  0  0  0  0  0  0
   28.2175    5.1745   31.5468 C   0  0  0  0  0  0  0  0  0  0  0  0
   24.4031    6.5689   30.7635 N   0  0  0  0  0  0  0  0  0  0  0  0
   23.3810    7.3998   30.3839 C   0  0  0  0  0  0  0  0  0  0  0  0
   22.2149    6.6609   30.3806 C   0  0  0  0  0  0  0  0  0  0  0  0
   22.5362    5.3490   30.8212 C   0  0  0  0  0  0  0  0  0  0  0  0
   23.8886    5.3339   31.0753 C   0  0  0  0  0  0  0  0  0  0  0  0
   26.0102    9.1323   29.3599 N   0  0  0  0  0  0  0  0  0  0  0  0
   26.7604    9.8663   28.4757 C   0  0  0  0  0  0  0  0  0  0  0  0
   25.9052   10.5530   27.6451 C   0  0  0  0  0  0  0  0  0  0  0  0
   24.5839   10.2701   28.0902 C   0  0  0  0  0  0  0  0  0  0  0  0
   24.6881    9.4202   29.1732 C   0  0  0  0  0  0  0  0  0  0  0  0
   28.4041    7.7933   29.8638 N   0  0  0  0  0  0  0  0  0  0  0  0
   29.3796    7.0387   30.4626 C   0  0  0  0  0  0  0  0  0  0  0  0
   30.6329    7.7180   30.1415 C   0  0  0  0  0  0  0  0  0  0  0  0
   30.3767    8.7819   29.3865 C   0  0  0  0  0  0  0  0  0  0  0  0
   28.9494    8.8578   29.1942 C   0  0  0  0  0  0  0  0  0  0  0  0
   29.3454    5.8884   31.2122 C   0  0  0  0  0  0  0  0  0  0  0  0
   24.7743    4.1442   31.6142 C   0  0  0  0  0  0  0  0  0  0  0  0
   23.5147    8.9236   30.0704 C   0  0  0  0  0  0  0  0  0  0  0  0
   28.3419    9.8521   28.4919 C   0  0  0  0  0  0  0  0  0  0  0  0
   30.6459    5.3635   31.7259 C   0  0  0  0  0  0  0  0  0  0  0  0
   31.0919    5.7408   32.9998 C   0  0  0  0  0  0  0  0  0  0  0  0
   32.3031    5.2536   33.4799 C   0  0  0  0  0  0  0  0  0  0  0  0
   33.0831    4.3956   32.7108 C   0  0  0  0  0  0  0  0  0  0  0  0
   32.6480    4.0167   31.4397 C   0  0  0  0  0  0  0  0  0  0  0  0
   31.4330    4.4994   30.9487 C   0  0  0  0  0  0  0  0  0  0  0  0
   29.0749   10.9761   27.8778 C   0  0  0  0  0  0  0  0  0  0  0  0
   29.7100   10.8375   26.6379 C   0  0  0  0  0  0  0  0  0  0  0  0
   30.3900   11.9189   26.0881 C   0  0  0  0  0  0  0  0  0  0  0  0
   30.4469   13.1431   26.7532 C   0  0  0  0  0  0  0  0  0  0  0  0
   29.8152   13.2854   27.9886 C   0  0  0  0  0  0  0  0  0  0  0  0
   29.1320   12.2055   28.5478 C   0  0  0  0  0  0  0  0  0  0  0  0
   31.0007   11.7520   24.8769 O   0  0  0  0  0  0  0  0  0  0  0  0
   32.7556    5.6073   34.7206 O   0  0  0  0  0  0  0  0  0  0  0  0
   23.2469   -0.3912   30.6347 O   0  0  0  0  0  0  0  0  0  0  0  0
   22.9125   12.3792   33.4362 O   0  0  0  0  0  0  0  0  0  0  0  0
   23.6950    3.5752   34.0215 H   0  0  0  0  0  0  0  0  0  0  0  0
   24.4205    1.9656   30.1192 H   0  0  0  0  0  0  0  0  0  0  0  0
   22.3651   -0.4114   33.0730 H   0  0  0  0  0  0  0  0  0  0  0  0
   22.5673    1.4637   34.7031 H   0  0  0  0  0  0  0  0  0  0  0  0
   24.2231   10.5725   32.1019 H   0  0  0  0  0  0  0  0  0  0  0  0
   20.4056   12.5278   32.5389 H   0  0  0  0  0  0  0  0  0  0  0  0
   19.4878   11.1477   30.7023 H   0  0  0  0  0  0  0  0  0  0  0  0
   20.9246    9.4863   29.5608 H   0  0  0  0  0  0  0  0  0  0  0  0
   26.6773    2.7190   33.0667 H   0  0  0  0  0  0  0  0  0  0  0  0
   27.1402    2.4336   31.3689 H   0  0  0  0  0  0  0  0  0  0  0  0
   29.1575    3.2535   32.1086 H   0  0  0  0  0  0  0  0  0  0  0  0
   28.4289    4.1751   33.4472 H   0  0  0  0  0  0  0  0  0  0  0  0
   25.4058    6.7572   30.8334 H   0  0  0  0  0  0  0  0  0  0  0  0
   21.2327    7.0243   30.1211 H   0  0  0  0  0  0  0  0  0  0  0  0
   21.8575    4.5198   30.9534 H   0  0  0  0  0  0  0  0  0  0  0  0
   26.4471    8.4784   30.0122 H   0  0  0  0  0  0  0  0  0  0  0  0
   26.1993   11.1992   26.8309 H   0  0  0  0  0  0  0  0  0  0  0  0
   23.6649   10.6664   27.6849 H   0  0  0  0  0  0  0  0  0  0  0  0
   31.6151    7.4142   30.4541 H   0  0  0  0  0  0  0  0  0  0  0  0
   31.1088    9.4687   29.0028 H   0  0  0  0  0  0  0  0  0  0  0  0
   30.4653    6.4141   33.5775 H   0  0  0  0  0  0  0  0  0  0  0  0
   34.0242    4.0240   33.0974 H   0  0  0  0  0  0  0  0  0  0  0  0
   33.2481    3.3502   30.8295 H   0  0  0  0  0  0  0  0  0  0  0  0
   31.0754    4.2202   29.9601 H   0  0  0  0  0  0  0  0  0  0  0  0
   29.6735    9.8819   26.1227 H   0  0  0  0  0  0  0  0  0  0  0  0
   30.9722   13.9897   26.3287 H   0  0  0  0  0  0  0  0  0  0  0  0
   29.8512   14.2289   28.5229 H   0  0  0  0  0  0  0  0  0  0  0  0
   28.6411   12.3019   29.5145 H   0  0  0  0  0  0  0  0  0  0  0  0
   31.5011   12.5577   24.6835 H   0  0  0  0  0  0  0  0  0  0  0  0
   32.0742    6.1960   35.0912 H   0  0  0  0  0  0  0  0  0  0  0  0
   23.7206   -0.1347   29.8235 H   0  0  0  0  0  0  0  0  0  0  0  0
   22.2195   12.9520   33.7960 H   0  0  0  0  0  0  0  0  0  0  0  0
 25 26  2  0
 26 27  1  0
 27 23  1  0
 28 29  1  0
  1  2  2  0
  3  4  2  0
  7  8  2  0
 14 15  1  0
 29 30  1  0
 30 31  2  0
 31 32  1  0
 32 28  2  0
 15 16  1  0
 29 33  2  0
 17 33  1  0
 16 17  1  0
 14 34  2  0
 22 34  1  0
 17 13  2  0
 27 35  2  0
 19 35  1  0
 18 19  1  0
 24 36  2  0
 32 36  1  0
  8  9  1  0
  4  5  1  0
 37 38  2  0
  9 10  2  0
 38 39  1  0
  2  3  1  0
 39 40  2  0
 10 11  1  0
 40 41  1  0
 19 20  2  0
 41 42  2  0
 42 37  1  0
 33 37  1  0
 20 21  1  0
 21 22  2  0
 43 44  2  0
 22 18  1  0
 44 45  1  0
 23 24  1  0
 45 46  2  0
  5  6  2  0
 46 47  1  0
 11 12  2  0
 47 48  2  0
 48 43  1  0
 36 43  1  0
 12  7  1  0
 45 49  1  0
 13 14  1  0
 39 50  1  0
 35 12  1  0
 34  2  1  0
  6  1  1  0
  4 51  1  0
 24 25  1  0
  8 52  1  0
  1 53  1  0
  3 54  1  0
  5 55  1  0
  6 56  1  0
  7 57  1  0
  9 58  1  0
 10 59  1  0
 11 60  1  0
 15 61  1  0
 15 62  1  0
 16 63  1  0
 16 64  1  0
 18 65  1  0
 20 66  1  0
 21 67  1  0
 23 68  1  0
 25 69  1  0
 26 70  1  0
 30 71  1  0
 31 72  1  0
 38 73  1  0
 40 74  1  0
 41 75  1  0
 42 76  1  0
 44 77  1  0
 46 78  1  0
 47 79  1  0
 48 80  1  0
 49 81  1  0
 50 82  1  0
 51 83  1  0
 52 84  1  0
M  END
> <Uni-Dock RESULT> 
ENERGY=   -5.352  LOWER_BOUND=    2.439  UPPER_BOUND=    3.416
INTER + INTRA:          -5.352
INTER:                  -5.352
INTRA:                   0.000
UNBOUND:                 0.000

$$$$

     RDKit          3D

 84 92  0  0  0  0  0  0  0  0999 V2000
   21.9109    7.1007   29.9742 C   0  0  0  0  0  0  0  0  0  0  0  0
   22.7096    7.9443   30.7561 C   0  0  0  0  0  0  0  0  0  0  0  0
   22.1126    8.7758   31.7107 C   0  0  0  0  0  0  0  0  0  0  0  0
   20.7309    8.7550   31.8720 C   0  0  0  0  0  0  0  0  0  0  0  0
   19.9337    7.9174   31.0984 C   0  0  0  0  0  0  0  0  0  0  0  0
   20.5251    7.0875   30.1440 C   0  0  0  0  0  0  0  0  0  0  0  0
   29.0400    3.2854   30.4701 C   0  0  0  0  0  0  0  0  0  0  0  0
   29.2825    1.9309   30.2591 C   0  0  0  0  0  0  0  0  0  0  0  0
   29.0583    0.9962   31.2689 C   0  0  0  0  0  0  0  0  0  0  0  0
   28.5868    1.4250   32.5091 C   0  0  0  0  0  0  0  0  0  0  0  0
   28.3413    2.7824   32.7287 C   0  0  0  0  0  0  0  0  0  0  0  0
   28.5602    3.7205   31.7103 C   0  0  0  0  0  0  0  0  0  0  0  0
   26.1435    9.0461   29.5802 N   0  0  0  0  0  0  0  0  0  0  0  0
   24.8091    8.8698   29.8082 C   0  0  0  0  0  0  0  0  0  0  0  0
   24.0386    9.9226   29.0596 C   0  0  0  0  0  0  0  0  0  0  0  0
   25.0516   10.4386   28.0703 C   0  0  0  0  0  0  0  0  0  0  0  0
   26.3886   10.0389   28.6733 C   0  0  0  0  0  0  0  0  0  0  0  0
   26.3996    6.7616   31.1965 N   0  0  0  0  0  0  0  0  0  0  0  0
   26.8524    5.7148   31.9570 C   0  0  0  0  0  0  0  0  0  0  0  0
   25.7826    5.2220   32.6771 C   0  0  0  0  0  0  0  0  0  0  0  0
   24.6323    5.9662   32.3013 C   0  0  0  0  0  0  0  0  0  0  0  0
   25.0424    6.8889   31.3664 C   0  0  0  0  0  0  0  0  0  0  0  0
   29.7046    7.2094   31.1865 N   0  0  0  0  0  0  0  0  0  0  0  0
   30.9416    7.7514   31.4310 C   0  0  0  0  0  0  0  0  0  0  0  0
   31.5042    7.0877   32.4968 C   0  0  0  0  0  0  0  0  0  0  0  0
   30.5936    6.0597   32.8684 C   0  0  0  0  0  0  0  0  0  0  0  0
   29.5117    6.1405   32.0147 C   0  0  0  0  0  0  0  0  0  0  0  0
   29.3009    9.5021   29.6507 N   0  0  0  0  0  0  0  0  0  0  0  0
   28.8132   10.3853   28.7226 C   0  0  0  0  0  0  0  0  0  0  0  0
   29.9867   11.1062   28.2342 C   0  0  0  0  0  0  0  0  0  0  0  0
   31.0694   10.6671   28.8687 C   0  0  0  0  0  0  0  0  0  0  0  0
   30.6590    9.6312   29.7845 C   0  0  0  0  0  0  0  0  0  0  0  0
   27.5484   10.6529   28.2590 C   0  0  0  0  0  0  0  0  0  0  0  0
   24.1747    7.9548   30.5908 C   0  0  0  0  0  0  0  0  0  0  0  0
   28.3087    5.1516   31.9563 C   0  0  0  0  0  0  0  0  0  0  0  0
   31.5287    8.9425   30.5719 C   0  0  0  0  0  0  0  0  0  0  0  0
   27.4110   11.6960   27.1990 C   0  0  0  0  0  0  0  0  0  0  0  0
   27.4264   11.3198   25.8490 C   0  0  0  0  0  0  0  0  0  0  0  0
   27.2992   12.2898   24.8602 C   0  0  0  0  0  0  0  0  0  0  0  0
   27.1584   13.6338   25.1919 C   0  0  0  0  0  0  0  0  0  0  0  0
   27.1449   14.0179   26.5339 C   0  0  0  0  0  0  0  0  0  0  0  0
   27.2709   13.0518   27.5344 C   0  0  0  0  0  0  0  0  0  0  0  0
   32.9882    9.1596   30.5512 C   0  0  0  0  0  0  0  0  0  0  0  0
   33.5757   10.2118   31.2636 C   0  0  0  0  0  0  0  0  0  0  0  0
   34.9550   10.3852   31.2231 C   0  0  0  0  0  0  0  0  0  0  0  0
   35.7643    9.5232   30.4839 C   0  0  0  0  0  0  0  0  0  0  0  0
   35.1829    8.4734   29.7729 C   0  0  0  0  0  0  0  0  0  0  0  0
   33.8001    8.2931   29.8072 C   0  0  0  0  0  0  0  0  0  0  0  0
   35.4985   11.4221   31.9281 O   0  0  0  0  0  0  0  0  0  0  0  0
   27.3095   11.9442   23.5374 O   0  0  0  0  0  0  0  0  0  0  0  0
   20.1200    9.5558   32.7948 O   0  0  0  0  0  0  0  0  0  0  0  0
   29.7471    1.5413   29.0359 O   0  0  0  0  0  0  0  0  0  0  0  0
   22.3844    6.4624   29.2301 H   0  0  0  0  0  0  0  0  0  0  0  0
   22.7538    9.4248   32.3014 H   0  0  0  0  0  0  0  0  0  0  0  0
   18.8577    7.9148   31.2338 H   0  0  0  0  0  0  0  0  0  0  0  0
   19.9137    6.4334   29.5295 H   0  0  0  0  0  0  0  0  0  0  0  0
   29.2177    4.0060   29.6740 H   0  0  0  0  0  0  0  0  0  0  0  0
   29.2475   -0.0592   31.1097 H   0  0  0  0  0  0  0  0  0  0  0  0
   28.4132    0.7103   33.3078 H   0  0  0  0  0  0  0  0  0  0  0  0
   27.9831    3.1166   33.6992 H   0  0  0  0  0  0  0  0  0  0  0  0
   23.1571    9.5383   28.5367 H   0  0  0  0  0  0  0  0  0  0  0  0
   23.7250   10.7226   29.7421 H   0  0  0  0  0  0  0  0  0  0  0  0
   24.9148   11.5158   27.9410 H   0  0  0  0  0  0  0  0  0  0  0  0
   24.9169    9.9468   27.0983 H   0  0  0  0  0  0  0  0  0  0  0  0
   26.9165    7.3902   30.5773 H   0  0  0  0  0  0  0  0  0  0  0  0
   25.8107    4.3993   33.3745 H   0  0  0  0  0  0  0  0  0  0  0  0
   23.6222    5.8321   32.6583 H   0  0  0  0  0  0  0  0  0  0  0  0
   29.0761    7.6133   30.4896 H   0  0  0  0  0  0  0  0  0  0  0  0
   32.4662    7.3035   32.9382 H   0  0  0  0  0  0  0  0  0  0  0  0
   30.7280    5.3265   33.6497 H   0  0  0  0  0  0  0  0  0  0  0  0
   29.9893   11.8764   27.4849 H   0  0  0  0  0  0  0  0  0  0  0  0
   32.0731   11.0171   28.7108 H   0  0  0  0  0  0  0  0  0  0  0  0
   27.5408   10.2648   25.6181 H   0  0  0  0  0  0  0  0  0  0  0  0
   27.0605   14.3783   24.4113 H   0  0  0  0  0  0  0  0  0  0  0  0
   27.0381   15.0627   26.8054 H   0  0  0  0  0  0  0  0  0  0  0  0
   27.2660   13.3280   28.5865 H   0  0  0  0  0  0  0  0  0  0  0  0
   32.9455   10.8891   31.8331 H   0  0  0  0  0  0  0  0  0  0  0  0
   36.8392    9.6512   30.4509 H   0  0  0  0  0  0  0  0  0  0  0  0
   35.7955    7.7944   29.1894 H   0  0  0  0  0  0  0  0  0  0  0  0
   33.3339    7.4819   29.2509 H   0  0  0  0  0  0  0  0  0  0  0  0
   36.4432   11.4589   31.7206 H   0  0  0  0  0  0  0  0  0  0  0  0
   27.4085   10.9757   23.5194 H   0  0  0  0  0  0  0  0  0  0  0  0
   20.8202   10.1079   33.1863 H   0  0  0  0  0  0  0  0  0  0  0  0
   29.8323    0.5766   29.0350 H   0  0  0  0  0  0  0  0  0  0  0  0
 25 26  2  0
 26 27  1  0
 27 23  1  0
 28 29  1  0
  1  2  2  0
  3  4  2  0
  7  8  2  0
 14 15  1  0
 29 30  1  0
 30 31  2  0
 31 32  1  0
 32 28  2  0
 15 16  1  0
 29 33  2  0
 17 33  1  0
 16 17  1  0
 14 34  2  0
 22 34  1  0
 17 13  2  0
 27 35  2  0
 19 35  1  0
 18 19  1  0
 24 36  2  0
 32 36  1  0
  8  9  1  0
  4  5  1  0
 37 38  2  0
  9 10  2  0
 38 39  1  0
  2  3  1  0
 39 40  2  0
 10 11  1  0
 40 41  1  0
 19 20  2  0
 41 42  2  0
 42 37  1  0
 33 37  1  0
 20 21  1  0
 21 22  2  0
 43 44  2  0
 22 18  1  0
 44 45  1  0
 23 24  1  0
 45 46  2  0
  5  6  2  0
 46 47  1  0
 11 12  2  0
 47 48  2  0
 48 43  1  0
 36 43  1  0
 12  7  1  0
 45 49  1  0
 13 14  1  0
 39 50  1  0
 35 12  1  0
 34  2  1  0
  6  1  1  0
  4 51  1  0
 24 25  1  0
  8 52  1  0
  1 53  1  0
  3 54  1  0
  5 55  1  0
  6 56  1  0
  7 57  1  0
  9 58  1  0
 10 59  1  0
 11 60  1  0
 15 61  1  0
 15 62  1  0
 16 63  1  0
 16 64  1  0
 18 65  1  0
 20 66  1  0
 21 67  1  0
 23 68  1  0
 25 69  1  0
 26 70  1  0
 30 71  1  0
 31 72  1  0
 38 73  1  0
 40 74  1  0
 41 75  1  0
 42 76  1  0
 44 77  1  0
 46 78  1  0
 47 79  1  0
 48 80  1  0
 49 81  1  0
 50 82  1  0
 51 83  1  0
 52 84  1  0
M  END
> <Uni-Dock RESULT> 
ENERGY=   -4.901  LOWER_BOUND=    3.007  UPPER_BOUND=    7.725
INTER + INTRA:          -4.901
INTER:                  -4.901
INTRA:                   0.000
UNBOUND:                 0.000

$$$$

     RDKit          3D

 84 92  0  0  0  0  0  0  0  0999 V2000
   21.7399    7.2129   29.9751 C   0  0  0  0  0  0  0  0  0  0  0  0
   22.5263    7.9743   30.8485 C   0  0  0  0  0  0  0  0  0  0  0  0
   21.9466    8.5373   31.9914 C   0  0  0  0  0  0  0  0  0  0  0  0
   20.5941    8.3341   32.2469 C   0  0  0  0  0  0  0  0  0  0  0  0
   19.8095    7.5772   31.3826 C   0  0  0  0  0  0  0  0  0  0  0  0
   20.3834    7.0151   30.2407 C   0  0  0  0  0  0  0  0  0  0  0  0
   29.2091    4.1812   29.1715 C   0  0  0  0  0  0  0  0  0  0  0  0
   29.5561    2.9269   28.6770 C   0  0  0  0  0  0  0  0  0  0  0  0
   29.5162    1.7977   29.4936 C   0  0  0  0  0  0  0  0  0  0  0  0
   29.1254    1.9272   30.8258 C   0  0  0  0  0  0  0  0  0  0  0  0
   28.7758    3.1822   31.3295 C   0  0  0  0  0  0  0  0  0  0  0  0
   28.8095    4.3159   30.5055 C   0  0  0  0  0  0  0  0  0  0  0  0
   25.7164    9.6515   29.6661 N   0  0  0  0  0  0  0  0  0  0  0  0
   24.4317    9.2891   29.9521 C   0  0  0  0  0  0  0  0  0  0  0  0
   23.4993   10.3742   29.4878 C   0  0  0  0  0  0  0  0  0  0  0  0
   24.3621   11.1780   28.5495 C   0  0  0  0  0  0  0  0  0  0  0  0
   25.7814   10.8201   28.9601 C   0  0  0  0  0  0  0  0  0  0  0  0
   26.3356    7.1425   30.7702 N   0  0  0  0  0  0  0  0  0  0  0  0
   26.9537    6.0261   31.2709 C   0  0  0  0  0  0  0  0  0  0  0  0
   26.0070    5.2901   31.9551 C   0  0  0  0  0  0  0  0  0  0  0  0
   24.7620    5.9612   31.8214 C   0  0  0  0  0  0  0  0  0  0  0  0
   24.9944    7.0850   31.0619 C   0  0  0  0  0  0  0  0  0  0  0  0
   29.5687    7.9449   30.6059 N   0  0  0  0  0  0  0  0  0  0  0  0
   30.7671    8.5630   30.8617 C   0  0  0  0  0  0  0  0  0  0  0  0
   31.4869    7.7740   31.7290 C   0  0  0  0  0  0  0  0  0  0  0  0
   30.7153    6.6001   31.9541 C   0  0  0  0  0  0  0  0  0  0  0  0
   29.5551    6.7229   31.2160 C   0  0  0  0  0  0  0  0  0  0  0  0
   28.8100   10.4301   29.5929 N   0  0  0  0  0  0  0  0  0  0  0  0
   28.1569   11.4153   28.8984 C   0  0  0  0  0  0  0  0  0  0  0  0
   29.2068   12.3408   28.4784 C   0  0  0  0  0  0  0  0  0  0  0  0
   30.3806   11.9104   28.9308 C   0  0  0  0  0  0  0  0  0  0  0  0
   30.1566   10.6800   29.6491 C   0  0  0  0  0  0  0  0  0  0  0  0
   26.8346   11.6257   28.5922 C   0  0  0  0  0  0  0  0  0  0  0  0
   23.9619    8.1773   30.5809 C   0  0  0  0  0  0  0  0  0  0  0  0
   28.4497    5.6371   31.0503 C   0  0  0  0  0  0  0  0  0  0  0  0
   31.1570    9.9535   30.2168 C   0  0  0  0  0  0  0  0  0  0  0  0
   26.5014   12.8305   27.7749 C   0  0  0  0  0  0  0  0  0  0  0  0
   26.4249   12.7231   26.3797 C   0  0  0  0  0  0  0  0  0  0  0  0
   26.1152   13.8441   25.6166 C   0  0  0  0  0  0  0  0  0  0  0  0
   25.8814   15.0762   26.2194 C   0  0  0  0  0  0  0  0  0  0  0  0
   25.9582   15.1930   27.6084 C   0  0  0  0  0  0  0  0  0  0  0  0
   26.2673   14.0734   28.3837 C   0  0  0  0  0  0  0  0  0  0  0  0
   32.5814   10.3298   30.1321 C   0  0  0  0  0  0  0  0  0  0  0  0
   33.1324   11.2848   30.9949 C   0  0  0  0  0  0  0  0  0  0  0  0
   34.4795   11.6133   30.8880 C   0  0  0  0  0  0  0  0  0  0  0  0
   35.2927   11.0028   29.9339 C   0  0  0  0  0  0  0  0  0  0  0  0
   34.7477   10.0507   29.0726 C   0  0  0  0  0  0  0  0  0  0  0  0
   33.3972    9.7161   29.1722 C   0  0  0  0  0  0  0  0  0  0  0  0
   34.9876   12.5499   31.7438 O   0  0  0  0  0  0  0  0  0  0  0  0
   26.0334   13.7608   24.2544 O   0  0  0  0  0  0  0  0  0  0  0  0
   20.0006    8.8718   33.3536 O   0  0  0  0  0  0  0  0  0  0  0  0
   29.9381    2.8317   27.3697 O   0  0  0  0  0  0  0  0  0  0  0  0
   22.1989    6.7845   29.0857 H   0  0  0  0  0  0  0  0  0  0  0  0
   22.5770    9.1280   32.6508 H   0  0  0  0  0  0  0  0  0  0  0  0
   18.7560    7.4304   31.5939 H   0  0  0  0  0  0  0  0  0  0  0  0
   19.7808    6.4272   29.5549 H   0  0  0  0  0  0  0  0  0  0  0  0
   29.2431    5.0556   28.5244 H   0  0  0  0  0  0  0  0  0  0  0  0
   29.7873    0.8195   29.1133 H   0  0  0  0  0  0  0  0  0  0  0  0
   29.0951    1.0584   31.4762 H   0  0  0  0  0  0  0  0  0  0  0  0
   28.4808    3.2834   32.3709 H   0  0  0  0  0  0  0  0  0  0  0  0
   22.6122   10.0022   28.9653 H   0  0  0  0  0  0  0  0  0  0  0  0
   23.1778   10.9897   30.3376 H   0  0  0  0  0  0  0  0  0  0  0  0
   24.1138   12.2383   28.6483 H   0  0  0  0  0  0  0  0  0  0  0  0
   24.1832   10.8691   27.5114 H   0  0  0  0  0  0  0  0  0  0  0  0
   26.7310    7.9309   30.2526 H   0  0  0  0  0  0  0  0  0  0  0  0
   26.1772    4.3575   32.4701 H   0  0  0  0  0  0  0  0  0  0  0  0
   23.8069    5.6511   32.2181 H   0  0  0  0  0  0  0  0  0  0  0  0
   28.8424    8.4029   30.0520 H   0  0  0  0  0  0  0  0  0  0  0  0
   32.4618    8.0061   32.1323 H   0  0  0  0  0  0  0  0  0  0  0  0
   30.9904    5.7505   32.5611 H   0  0  0  0  0  0  0  0  0  0  0  0
   29.0670   13.2355   27.9000 H   0  0  0  0  0  0  0  0  0  0  0  0
   31.3279   12.3925   28.7723 H   0  0  0  0  0  0  0  0  0  0  0  0
   26.6152   11.7507   25.9349 H   0  0  0  0  0  0  0  0  0  0  0  0
   25.6414   15.9407   25.6127 H   0  0  0  0  0  0  0  0  0  0  0  0
   25.7803   16.1484   28.0901 H   0  0  0  0  0  0  0  0  0  0  0  0
   26.3356   14.1413   29.4672 H   0  0  0  0  0  0  0  0  0  0  0  0
   32.4980   11.7673   31.7330 H   0  0  0  0  0  0  0  0  0  0  0  0
   36.3431   11.2522   29.8479 H   0  0  0  0  0  0  0  0  0  0  0  0
   35.3635    9.5672   28.3216 H   0  0  0  0  0  0  0  0  0  0  0  0
   32.9585    8.9799   28.5011 H   0  0  0  0  0  0  0  0  0  0  0  0
   35.9011   12.7294   31.4787 H   0  0  0  0  0  0  0  0  0  0  0  0
   26.2203   12.8304   24.0361 H   0  0  0  0  0  0  0  0  0  0  0  0
   20.6798    9.4126   33.7946 H   0  0  0  0  0  0  0  0  0  0  0  0
   30.1126    1.9003   27.1699 H   0  0  0  0  0  0  0  0  0  0  0  0
 25 26  2  0
 26 27  1  0
 27 23  1  0
 28 29  1  0
  1  2  2  0
  3  4  2  0
  7  8  2  0
 14 15  1  0
 29 30  1  0
 30 31  2  0
 31 32  1  0
 32 28  2  0
 15 16  1  0
 29 33  2  0
 17 33  1  0
 16 17  1  0
 14 34  2  0
 22 34  1  0
 17 13  2  0
 27 35  2  0
 19 35  1  0
 18 19  1  0
 24 36  2  0
 32 36  1  0
  8  9  1  0
  4  5  1  0
 37 38  2  0
  9 10  2  0
 38 39  1  0
  2  3  1  0
 39 40  2  0
 10 11  1  0
 40 41  1  0
 19 20  2  0
 41 42  2  0
 42 37  1  0
 33 37  1  0
 20 21  1  0
 21 22  2  0
 43 44  2  0
 22 18  1  0
 44 45  1  0
 23 24  1  0
 45 46  2  0
  5  6  2  0
 46 47  1  0
 11 12  2  0
 47 48  2  0
 48 43  1  0
 36 43  1  0
 12  7  1  0
 45 49  1  0
 13 14  1  0
 39 50  1  0
 35 12  1  0
 34  2  1  0
  6  1  1  0
  4 51  1  0
 24 25  1  0
  8 52  1  0
  1 53  1  0
  3 54  1  0
  5 55  1  0
  6 56  1  0
  7 57  1  0
  9 58  1  0
 10 59  1  0
 11 60  1  0
 15 61  1  0
 15 62  1  0
 16 63  1  0
 16 64  1  0
 18 65  1  0
 20 66  1  0
 21 67  1  0
 23 68  1  0
 25 69  1  0
 26 70  1  0
 30 71  1  0
 31 72  1  0
 38 73  1  0
 40 74  1  0
 41 75  1  0
 42 76  1  0
 44 77  1  0
 46 78  1  0
 47 79  1  0
 48 80  1  0
 49 81  1  0
 50 82  1  0
 51 83  1  0
 52 84  1  0
M  END
> <Uni-Dock RESULT> 
ENERGY=   -4.798  LOWER_BOUND=    3.110  UPPER_BOUND=    7.988
INTER + INTRA:          -4.798
INTER:                  -4.798
INTRA:                   0.000
UNBOUND:                 0.000

$$$$

     RDKit          3D

 84 92  0  0  0  0  0  0  0  0999 V2000
   27.6871   16.0826   21.2561 C   0  0  0  0  0  0  0  0  0  0  0  0
   28.1130   14.7489   21.2830 C   0  0  0  0  0  0  0  0  0  0  0  0
   27.7865   13.8952   20.2229 C   0  0  0  0  0  0  0  0  0  0  0  0
   27.0415   14.3818   19.1534 C   0  0  0  0  0  0  0  0  0  0  0  0
   26.6175   15.7064   19.1218 C   0  0  0  0  0  0  0  0  0  0  0  0
   26.9397   16.5609   20.1779 C   0  0  0  0  0  0  0  0  0  0  0  0
   34.5125   16.2036   25.6178 C   0  0  0  0  0  0  0  0  0  0  0  0
   35.3271   17.3040   25.8697 C   0  0  0  0  0  0  0  0  0  0  0  0
   36.2766   17.7219   24.9383 C   0  0  0  0  0  0  0  0  0  0  0  0
   36.4139   17.0255   23.7381 C   0  0  0  0  0  0  0  0  0  0  0  0
   35.6004   15.9203   23.4780 C   0  0  0  0  0  0  0  0  0  0  0  0
   34.6411   15.5054   24.4121 C   0  0  0  0  0  0  0  0  0  0  0  0
   28.9388   13.0146   24.5539 N   0  0  0  0  0  0  0  0  0  0  0  0
   28.3485   13.5811   23.4610 C   0  0  0  0  0  0  0  0  0  0  0  0
   26.8647   13.3429   23.5241 C   0  0  0  0  0  0  0  0  0  0  0  0
   26.6498   12.9502   24.9631 C   0  0  0  0  0  0  0  0  0  0  0  0
   28.0244   12.4972   25.4282 C   0  0  0  0  0  0  0  0  0  0  0  0
   31.2888   14.0869   23.4473 N   0  0  0  0  0  0  0  0  0  0  0  0
   32.5815   14.4389   23.1569 C   0  0  0  0  0  0  0  0  0  0  0  0
   32.6023   14.9499   21.8746 C   0  0  0  0  0  0  0  0  0  0  0  0
   31.2664   14.9520   21.3911 C   0  0  0  0  0  0  0  0  0  0  0  0
   30.4781   14.4394   22.3959 C   0  0  0  0  0  0  0  0  0  0  0  0
   33.0452   12.4377   25.7536 N   0  0  0  0  0  0  0  0  0  0  0  0
   33.6214   11.4090   26.4560 C   0  0  0  0  0  0  0  0  0  0  0  0
   34.9259   11.2752   26.0396 C   0  0  0  0  0  0  0  0  0  0  0  0
   35.1635   12.3096   25.0923 C   0  0  0  0  0  0  0  0  0  0  0  0
   33.9927   13.0305   24.9683 C   0  0  0  0  0  0  0  0  0  0  0  0
   30.6439   11.3820   26.7007 N   0  0  0  0  0  0  0  0  0  0  0  0
   29.3333   11.2486   27.0800 C   0  0  0  0  0  0  0  0  0  0  0  0
   29.3701   10.4121   28.2777 C   0  0  0  0  0  0  0  0  0  0  0  0
   30.6290   10.0769   28.5427 C   0  0  0  0  0  0  0  0  0  0  0  0
   31.4720   10.6901   27.5459 C   0  0  0  0  0  0  0  0  0  0  0  0
   28.1546   11.7216   26.5574 C   0  0  0  0  0  0  0  0  0  0  0  0
   28.9127   14.2400   22.4123 C   0  0  0  0  0  0  0  0  0  0  0  0
   33.7958   14.3309   24.1325 C   0  0  0  0  0  0  0  0  0  0  0  0
   32.8277   10.5761   27.5412 C   0  0  0  0  0  0  0  0  0  0  0  0
   26.8944   11.3777   27.2814 C   0  0  0  0  0  0  0  0  0  0  0  0
   26.3885   12.2558   28.2494 C   0  0  0  0  0  0  0  0  0  0  0  0
   25.2152   11.9372   28.9254 C   0  0  0  0  0  0  0  0  0  0  0  0
   24.5344   10.7540   28.6557 C   0  0  0  0  0  0  0  0  0  0  0  0
   25.0325    9.8721   27.6950 C   0  0  0  0  0  0  0  0  0  0  0  0
   26.2091   10.1831   27.0100 C   0  0  0  0  0  0  0  0  0  0  0  0
   33.5833    9.8390   28.5725 C   0  0  0  0  0  0  0  0  0  0  0  0
   33.7222    8.4471   28.5145 C   0  0  0  0  0  0  0  0  0  0  0  0
   34.4433    7.7855   29.5027 C   0  0  0  0  0  0  0  0  0  0  0  0
   35.0338    8.4892   30.5516 C   0  0  0  0  0  0  0  0  0  0  0  0
   34.8981    9.8760   30.6128 C   0  0  0  0  0  0  0  0  0  0  0  0
   34.1755   10.5474   29.6264 C   0  0  0  0  0  0  0  0  0  0  0  0
   34.5600    6.4264   29.4190 O   0  0  0  0  0  0  0  0  0  0  0  0
   24.7034   12.7807   29.8718 O   0  0  0  0  0  0  0  0  0  0  0  0
   26.7070   13.5720   18.1052 O   0  0  0  0  0  0  0  0  0  0  0  0
   35.1722   17.9638   27.0549 O   0  0  0  0  0  0  0  0  0  0  0  0
   27.9408   16.7368   22.0884 H   0  0  0  0  0  0  0  0  0  0  0  0
   28.1247   12.8633   20.2698 H   0  0  0  0  0  0  0  0  0  0  0  0
   26.0349   16.0700   18.2825 H   0  0  0  0  0  0  0  0  0  0  0  0
   26.6099   17.5955   20.1685 H   0  0  0  0  0  0  0  0  0  0  0  0
   33.7740   15.8870   26.3519 H   0  0  0  0  0  0  0  0  0  0  0  0
   36.9143   18.5770   25.1311 H   0  0  0  0  0  0  0  0  0  0  0  0
   37.1529   17.3346   23.0052 H   0  0  0  0  0  0  0  0  0  0  0  0
   35.7152   15.3723   22.5461 H   0  0  0  0  0  0  0  0  0  0  0  0
   26.2638   14.2235   23.2758 H   0  0  0  0  0  0  0  0  0  0  0  0
   26.5820   12.5207   22.8545 H   0  0  0  0  0  0  0  0  0  0  0  0
   25.8751   12.1803   25.0163 H   0  0  0  0  0  0  0  0  0  0  0  0
   26.3238   13.8196   25.5487 H   0  0  0  0  0  0  0  0  0  0  0  0
   30.9065   13.6375   24.2826 H   0  0  0  0  0  0  0  0  0  0  0  0
   33.4719   15.3118   21.3485 H   0  0  0  0  0  0  0  0  0  0  0  0
   30.9200   15.3024   20.4304 H   0  0  0  0  0  0  0  0  0  0  0  0
   32.0502   12.6513   25.8448 H   0  0  0  0  0  0  0  0  0  0  0  0
   35.6288   10.5355   26.3939 H   0  0  0  0  0  0  0  0  0  0  0  0
   36.0920   12.5212   24.5832 H   0  0  0  0  0  0  0  0  0  0  0  0
   28.5213   10.1033   28.8597 H   0  0  0  0  0  0  0  0  0  0  0  0
   30.9551    9.4678   29.3658 H   0  0  0  0  0  0  0  0  0  0  0  0
   26.9414   13.1705   28.4426 H   0  0  0  0  0  0  0  0  0  0  0  0
   23.6220   10.5187   29.1899 H   0  0  0  0  0  0  0  0  0  0  0  0
   24.5123    8.9455   27.4774 H   0  0  0  0  0  0  0  0  0  0  0  0
   26.6175    9.5098   26.2597 H   0  0  0  0  0  0  0  0  0  0  0  0
   33.2554    7.8968   27.7025 H   0  0  0  0  0  0  0  0  0  0  0  0
   35.5992    7.9799   31.3223 H   0  0  0  0  0  0  0  0  0  0  0  0
   35.3474   10.4406   31.4229 H   0  0  0  0  0  0  0  0  0  0  0  0
   34.0565   11.6286   29.6670 H   0  0  0  0  0  0  0  0  0  0  0  0
   35.0037    6.1169   30.2217 H   0  0  0  0  0  0  0  0  0  0  0  0
   25.3124   13.5397   29.9046 H   0  0  0  0  0  0  0  0  0  0  0  0
   27.0290   12.6814   18.3320 H   0  0  0  0  0  0  0  0  0  0  0  0
   35.7799   18.7177   27.0660 H   0  0  0  0  0  0  0  0  0  0  0  0
 25 26  2  0
 26 27  1  0
 27 23  1  0
 28 29  1  0
  1  2  2  0
  3  4  2  0
  7  8  2  0
 14 15  1  0
 29 30  1  0
 30 31  2  0
 31 32  1  0
 32 28  2  0
 15 16  1  0
 29 33  2  0
 17 33  1  0
 16 17  1  0
 14 34  2  0
 22 34  1  0
 17 13  2  0
 27 35  2  0
 19 35  1  0
 18 19  1  0
 24 36  2  0
 32 36  1  0
  8  9  1  0
  4  5  1  0
 37 38  2  0
  9 10  2  0
 38 39  1  0
  2  3  1  0
 39 40  2  0
 10 11  1  0
 40 41  1  0
 19 20  2  0
 41 42  2  0
 42 37  1  0
 33 37  1  0
 20 21  1  0
 21 22  2  0
 43 44  2  0
 22 18  1  0
 44 45  1  0
 23 24  1  0
 45 46  2  0
  5  6  2  0
 46 47  1  0
 11 12  2  0
 47 48  2  0
 48 43  1  0
 36 43  1  0
 12  7  1  0
 45 49  1  0
 13 14  1  0
 39 50  1  0
 35 12  1  0
 34  2  1  0
  6  1  1  0
  4 51  1  0
 24 25  1  0
  8 52  1  0
  1 53  1  0
  3 54  1  0
  5 55  1  0
  6 56  1  0
  7 57  1  0
  9 58  1  0
 10 59  1  0
 11 60  1  0
 15 61  1  0
 15 62  1  0
 16 63  1  0
 16 64  1  0
 18 65  1  0
 20 66  1  0
 21 67  1  0
 23 68  1  0
 25 69  1  0
 26 70  1  0
 30 71  1  0
 31 72  1  0
 38 73  1  0
 40 74  1  0
 41 75  1  0
 42 76  1  0
 44 77  1  0
 46 78  1  0
 47 79  1  0
 48 80  1  0
 49 81  1  0
 50 82  1  0
 51 83  1  0
 52 84  1  0
M  END
> <Uni-Dock RESULT> 
ENERGY=   -4.757  LOWER_BOUND=    6.344  UPPER_BOUND=   11.437
INTER + INTRA:          -4.757
INTER:                  -4.757
INTRA:                   0.000
UNBOUND:                 0.000

$$$$

     RDKit          3D

 84 92  0  0  0  0  0  0  0  0999 V2000
   31.5123   14.2552   23.4623 C   0  0  0  0  0  0  0  0  0  0  0  0
   31.3917   12.8666   23.5978 C   0  0  0  0  0  0  0  0  0  0  0  0
   31.2700   12.0664   22.4559 C   0  0  0  0  0  0  0  0  0  0  0  0
   31.2700   12.6603   21.1977 C   0  0  0  0  0  0  0  0  0  0  0  0
   31.3909   14.0392   21.0584 C   0  0  0  0  0  0  0  0  0  0  0  0
   31.5110   14.8412   22.1949 C   0  0  0  0  0  0  0  0  0  0  0  0
   35.4131   12.5265   30.3487 C   0  0  0  0  0  0  0  0  0  0  0  0
   36.3712   13.3079   30.9883 C   0  0  0  0  0  0  0  0  0  0  0  0
   37.7053   13.2809   30.5844 C   0  0  0  0  0  0  0  0  0  0  0  0
   38.0855   12.4569   29.5258 C   0  0  0  0  0  0  0  0  0  0  0  0
   37.1301   11.6697   28.8789 C   0  0  0  0  0  0  0  0  0  0  0  0
   35.7877   11.7031   29.2813 C   0  0  0  0  0  0  0  0  0  0  0  0
   30.0917   11.3098   26.8032 N   0  0  0  0  0  0  0  0  0  0  0  0
   30.2587   11.9237   25.5954 C   0  0  0  0  0  0  0  0  0  0  0  0
   28.9084   12.2077   24.9967 C   0  0  0  0  0  0  0  0  0  0  0  0
   27.9822   12.0641   26.1768 C   0  0  0  0  0  0  0  0  0  0  0  0
   28.7764   11.2259   27.1656 C   0  0  0  0  0  0  0  0  0  0  0  0
   32.8991   11.4045   26.8839 N   0  0  0  0  0  0  0  0  0  0  0  0
   34.2256   11.2675   27.2017 C   0  0  0  0  0  0  0  0  0  0  0  0
   34.9644   11.6037   26.0850 C   0  0  0  0  0  0  0  0  0  0  0  0
   34.0530   12.0051   25.0717 C   0  0  0  0  0  0  0  0  0  0  0  0
   32.7896   11.8969   25.6062 C   0  0  0  0  0  0  0  0  0  0  0  0
   32.8153    9.5120   29.6290 N   0  0  0  0  0  0  0  0  0  0  0  0
   32.6407    8.4293   30.4540 C   0  0  0  0  0  0  0  0  0  0  0  0
   33.8609    7.8206   30.6369 C   0  0  0  0  0  0  0  0  0  0  0  0
   34.8216    8.6086   29.9442 C   0  0  0  0  0  0  0  0  0  0  0  0
   34.1468    9.6648   29.3652 C   0  0  0  0  0  0  0  0  0  0  0  0
   30.0384    9.4334   29.3835 N   0  0  0  0  0  0  0  0  0  0  0  0
   28.7355    9.7902   29.1501 C   0  0  0  0  0  0  0  0  0  0  0  0
   27.9672    9.1212   30.1977 C   0  0  0  0  0  0  0  0  0  0  0  0
   28.7905    8.4111   30.9628 C   0  0  0  0  0  0  0  0  0  0  0  0
   30.1313    8.5958   30.4646 C   0  0  0  0  0  0  0  0  0  0  0  0
   28.1364   10.5751   28.1954 C   0  0  0  0  0  0  0  0  0  0  0  0
   31.4044   12.2397   24.9323 C   0  0  0  0  0  0  0  0  0  0  0  0
   34.7899   10.8598   28.5993 C   0  0  0  0  0  0  0  0  0  0  0  0
   31.2269    8.0317   31.0411 C   0  0  0  0  0  0  0  0  0  0  0  0
   26.6562   10.7543   28.2823 C   0  0  0  0  0  0  0  0  0  0  0  0
   26.1296   11.8482   28.9824 C   0  0  0  0  0  0  0  0  0  0  0  0
   24.7513   12.0166   29.0651 C   0  0  0  0  0  0  0  0  0  0  0  0
   23.8836   11.1108   28.4628 C   0  0  0  0  0  0  0  0  0  0  0  0
   24.3994   10.0167   27.7658 C   0  0  0  0  0  0  0  0  0  0  0  0
   25.7816    9.8391   27.6759 C   0  0  0  0  0  0  0  0  0  0  0  0
   31.1647    7.1958   32.2557 C   0  0  0  0  0  0  0  0  0  0  0  0
   30.8198    5.8407   32.1874 C   0  0  0  0  0  0  0  0  0  0  0  0
   30.7733    5.0826   33.3524 C   0  0  0  0  0  0  0  0  0  0  0  0
   31.0682    5.6522   34.5905 C   0  0  0  0  0  0  0  0  0  0  0  0
   31.4125    7.0020   34.6628 C   0  0  0  0  0  0  0  0  0  0  0  0
   31.4605    7.7699   33.4993 C   0  0  0  0  0  0  0  0  0  0  0  0
   30.4323    3.7629   33.2531 O   0  0  0  0  0  0  0  0  0  0  0  0
   24.2167   13.0779   29.7412 O   0  0  0  0  0  0  0  0  0  0  0  0
   31.1518   11.9052   20.0654 O   0  0  0  0  0  0  0  0  0  0  0  0
   35.9699   14.1021   32.0238 O   0  0  0  0  0  0  0  0  0  0  0  0
   31.6001   14.8692   24.3570 H   0  0  0  0  0  0  0  0  0  0  0  0
   31.1729   10.9920   22.5879 H   0  0  0  0  0  0  0  0  0  0  0  0
   31.3862   14.4875   20.0709 H   0  0  0  0  0  0  0  0  0  0  0  0
   31.6001   15.9193   22.1004 H   0  0  0  0  0  0  0  0  0  0  0  0
   34.3743   12.5565   30.6720 H   0  0  0  0  0  0  0  0  0  0  0  0
   38.4550   13.8863   31.0808 H   0  0  0  0  0  0  0  0  0  0  0  0
   39.1216   12.4199   29.2033 H   0  0  0  0  0  0  0  0  0  0  0  0
   37.4297   11.0203   28.0602 H   0  0  0  0  0  0  0  0  0  0  0  0
   28.8184   13.2080   24.5614 H   0  0  0  0  0  0  0  0  0  0  0  0
   28.6690   11.4633   24.2267 H   0  0  0  0  0  0  0  0  0  0  0  0
   27.0435   11.6105   25.8470 H   0  0  0  0  0  0  0  0  0  0  0  0
   27.7649   13.0489   26.6102 H   0  0  0  0  0  0  0  0  0  0  0  0
   32.0690   11.2007   27.4453 H   0  0  0  0  0  0  0  0  0  0  0  0
   36.0404   11.5938   26.0080 H   0  0  0  0  0  0  0  0  0  0  0  0
   34.2926   12.3486   24.0765 H   0  0  0  0  0  0  0  0  0  0  0  0
   32.0194   10.0568   29.2920 H   0  0  0  0  0  0  0  0  0  0  0  0
   34.0405    6.9288   31.2195 H   0  0  0  0  0  0  0  0  0  0  0  0
   35.8873    8.4401   29.8998 H   0  0  0  0  0  0  0  0  0  0  0  0
   26.9033    9.1796   30.3369 H   0  0  0  0  0  0  0  0  0  0  0  0
   28.5019    7.8179   31.8112 H   0  0  0  0  0  0  0  0  0  0  0  0
   26.8290   12.5379   29.4457 H   0  0  0  0  0  0  0  0  0  0  0  0
   22.8125   11.2544   28.5355 H   0  0  0  0  0  0  0  0  0  0  0  0
   23.7334    9.3023   27.2939 H   0  0  0  0  0  0  0  0  0  0  0  0
   26.2060    8.9926   27.1407 H   0  0  0  0  0  0  0  0  0  0  0  0
   30.5816    5.3978   31.2245 H   0  0  0  0  0  0  0  0  0  0  0  0
   31.0367    5.0663   35.5007 H   0  0  0  0  0  0  0  0  0  0  0  0
   31.6420    7.4639   35.6172 H   0  0  0  0  0  0  0  0  0  0  0  0
   31.7208    8.8258   33.5436 H   0  0  0  0  0  0  0  0  0  0  0  0
   30.3552    3.4082   34.1505 H   0  0  0  0  0  0  0  0  0  0  0  0
   24.9767   13.5862   30.0761 H   0  0  0  0  0  0  0  0  0  0  0  0
   31.0143   10.9873   20.3601 H   0  0  0  0  0  0  0  0  0  0  0  0
   36.7362   14.6038   32.3383 H   0  0  0  0  0  0  0  0  0  0  0  0
 25 26  2  0
 26 27  1  0
 27 23  1  0
 28 29  1  0
  1  2  2  0
  3  4  2  0
  7  8  2  0
 14 15  1  0
 29 30  1  0
 30 31  2  0
 31 32  1  0
 32 28  2  0
 15 16  1  0
 29 33  2  0
 17 33  1  0
 16 17  1  0
 14 34  2  0
 22 34  1  0
 17 13  2  0
 27 35  2  0
 19 35  1  0
 18 19  1  0
 24 36  2  0
 32 36  1  0
  8  9  1  0
  4  5  1  0
 37 38  2  0
  9 10  2  0
 38 39  1  0
  2  3  1  0
 39 40  2  0
 10 11  1  0
 40 41  1  0
 19 20  2  0
 41 42  2  0
 42 37  1  0
 33 37  1  0
 20 21  1  0
 21 22  2  0
 43 44  2  0
 22 18  1  0
 44 45  1  0
 23 24  1  0
 45 46  2  0
  5  6  2  0
 46 47  1  0
 11 12  2  0
 47 48  2  0
 48 43  1  0
 36 43  1  0
 12  7  1  0
 45 49  1  0
 13 14  1  0
 39 50  1  0
 35 12  1  0
 34  2  1  0
  6  1  1  0
  4 51  1  0
 24 25  1  0
  8 52  1  0
  1 53  1  0
  3 54  1  0
  5 55  1  0
  6 56  1  0
  7 57  1  0
  9 58  1  0
 10 59  1  0
 11 60  1  0
 15 61  1  0
 15 62  1  0
 16 63  1  0
 16 64  1  0
 18 65  1  0
 20 66  1  0
 21 67  1  0
 23 68  1  0
 25 69  1  0
 26 70  1  0
 30 71  1  0
 31 72  1  0
 38 73  1  0
 40 74  1  0
 41 75  1  0
 42 76  1  0
 44 77  1  0
 46 78  1  0
 47 79  1  0
 48 80  1  0
 49 81  1  0
 50 82  1  0
 51 83  1  0
 52 84  1  0
M  END
> <Uni-Dock RESULT> 
ENERGY=   -4.627  LOWER_BOUND=    4.713  UPPER_BOUND=   10.763
INTER + INTRA:          -4.627
INTER:                  -4.627
INTRA:                   0.000
UNBOUND:                 0.000

$$$$

     RDKit          3D

 84 92  0  0  0  0  0  0  0  0999 V2000
   28.1043    3.3033   33.8285 C   0  0  0  0  0  0  0  0  0  0  0  0
   28.0416    3.4234   32.4347 C   0  0  0  0  0  0  0  0  0  0  0  0
   28.1110    2.2760   31.6361 C   0  0  0  0  0  0  0  0  0  0  0  0
   28.2418    1.0278   32.2367 C   0  0  0  0  0  0  0  0  0  0  0  0
   28.3031    0.9038   33.6210 C   0  0  0  0  0  0  0  0  0  0  0  0
   28.2358    2.0459   34.4212 C   0  0  0  0  0  0  0  0  0  0  0  0
   23.7161    9.9913   32.5476 C   0  0  0  0  0  0  0  0  0  0  0  0
   22.8376   10.6011   33.4388 C   0  0  0  0  0  0  0  0  0  0  0  0
   21.5301   10.1404   33.5857 C   0  0  0  0  0  0  0  0  0  0  0  0
   21.0953    9.0546   32.8266 C   0  0  0  0  0  0  0  0  0  0  0  0
   21.9707    8.4374   31.9301 C   0  0  0  0  0  0  0  0  0  0  0  0
   23.2875    8.8969   31.7885 C   0  0  0  0  0  0  0  0  0  0  0  0
   28.9911    6.6578   30.6955 N   0  0  0  0  0  0  0  0  0  0  0  0
   28.9567    5.4532   31.3368 C   0  0  0  0  0  0  0  0  0  0  0  0
   30.3572    4.9167   31.4519 C   0  0  0  0  0  0  0  0  0  0  0  0
   31.2048    6.1329   31.1807 C   0  0  0  0  0  0  0  0  0  0  0  0
   30.2678    7.0745   30.4414 C   0  0  0  0  0  0  0  0  0  0  0  0
   26.2176    6.6205   31.1464 N   0  0  0  0  0  0  0  0  0  0  0  0
   24.8718    6.8795   31.1766 C   0  0  0  0  0  0  0  0  0  0  0  0
   24.2315    5.7374   31.6145 C   0  0  0  0  0  0  0  0  0  0  0  0
   25.2302    4.7698   31.9058 C   0  0  0  0  0  0  0  0  0  0  0  0
   26.4449    5.3560   31.6326 C   0  0  0  0  0  0  0  0  0  0  0  0
   25.9396    9.3385   29.2335 N   0  0  0  0  0  0  0  0  0  0  0  0
   25.9389   10.1541   28.1298 C   0  0  0  0  0  0  0  0  0  0  0  0
   24.6444   10.2759   27.6798 C   0  0  0  0  0  0  0  0  0  0  0  0
   23.8229    9.5547   28.5902 C   0  0  0  0  0  0  0  0  0  0  0  0
   24.6511    9.0206   29.5570 C   0  0  0  0  0  0  0  0  0  0  0  0
   28.6922    9.2101   28.8039 N   0  0  0  0  0  0  0  0  0  0  0  0
   30.0388    9.0376   28.9940 C   0  0  0  0  0  0  0  0  0  0  0  0
   30.6692   10.1069   28.2230 C   0  0  0  0  0  0  0  0  0  0  0  0
   29.7295   10.8259   27.6165 C   0  0  0  0  0  0  0  0  0  0  0  0
   28.4462   10.2739   27.9751 C   0  0  0  0  0  0  0  0  0  0  0  0
   30.7741    8.1209   29.7049 C   0  0  0  0  0  0  0  0  0  0  0  0
   27.8907    4.7467   31.8023 C   0  0  0  0  0  0  0  0  0  0  0  0
   24.1993    8.2456   30.8312 C   0  0  0  0  0  0  0  0  0  0  0  0
   27.2635   10.7948   27.5499 C   0  0  0  0  0  0  0  0  0  0  0  0
   32.2598    8.2733   29.6932 C   0  0  0  0  0  0  0  0  0  0  0  0
   32.8896    9.0112   30.7046 C   0  0  0  0  0  0  0  0  0  0  0  0
   34.2732    9.1549   30.6953 C   0  0  0  0  0  0  0  0  0  0  0  0
   35.0446    8.5768   29.6919 C   0  0  0  0  0  0  0  0  0  0  0  0
   34.4254    7.8424   28.6790 C   0  0  0  0  0  0  0  0  0  0  0  0
   33.0371    7.6913   28.6797 C   0  0  0  0  0  0  0  0  0  0  0  0
   27.1656   11.9986   26.7018 C   0  0  0  0  0  0  0  0  0  0  0  0
   27.3384   11.9250   25.3145 C   0  0  0  0  0  0  0  0  0  0  0  0
   27.2370   13.0796   24.5459 C   0  0  0  0  0  0  0  0  0  0  0  0
   26.9625   14.3123   25.1371 C   0  0  0  0  0  0  0  0  0  0  0  0
   26.7894   14.3898   26.5189 C   0  0  0  0  0  0  0  0  0  0  0  0
   26.8906   13.2368   27.2974 C   0  0  0  0  0  0  0  0  0  0  0  0
   27.4118   12.9755   23.1945 O   0  0  0  0  0  0  0  0  0  0  0  0
   34.9078    9.8688   31.6736 O   0  0  0  0  0  0  0  0  0  0  0  0
   28.3130   -0.1095   31.4832 O   0  0  0  0  0  0  0  0  0  0  0  0
   23.2905   11.6643   34.1658 O   0  0  0  0  0  0  0  0  0  0  0  0
   28.0558    4.2024   34.4405 H   0  0  0  0  0  0  0  0  0  0  0  0
   28.0650    2.3962   30.5569 H   0  0  0  0  0  0  0  0  0  0  0  0
   28.4082   -0.0759   34.0741 H   0  0  0  0  0  0  0  0  0  0  0  0
   28.2884    1.9635   35.5027 H   0  0  0  0  0  0  0  0  0  0  0  0
   24.7351   10.3590   32.4420 H   0  0  0  0  0  0  0  0  0  0  0  0
   20.8420   10.6134   34.2771 H   0  0  0  0  0  0  0  0  0  0  0  0
   20.0781    8.6878   32.9249 H   0  0  0  0  0  0  0  0  0  0  0  0
   21.6275    7.5972   31.3317 H   0  0  0  0  0  0  0  0  0  0  0  0
   30.5924    4.5004   32.4366 H   0  0  0  0  0  0  0  0  0  0  0  0
   30.5339    4.1467   30.6903 H   0  0  0  0  0  0  0  0  0  0  0  0
   32.0919    5.8366   30.6142 H   0  0  0  0  0  0  0  0  0  0  0  0
   31.5260    6.5896   32.1257 H   0  0  0  0  0  0  0  0  0  0  0  0
   26.9896    7.2135   30.8334 H   0  0  0  0  0  0  0  0  0  0  0  0
   23.1673    5.6146   31.7424 H   0  0  0  0  0  0  0  0  0  0  0  0
   25.0802    3.7705   32.2862 H   0  0  0  0  0  0  0  0  0  0  0  0
   26.8123    9.0436   29.6755 H   0  0  0  0  0  0  0  0  0  0  0  0
   24.3277   10.8372   26.8129 H   0  0  0  0  0  0  0  0  0  0  0  0
   22.7475    9.4625   28.5592 H   0  0  0  0  0  0  0  0  0  0  0  0
   31.7247   10.2922   28.1440 H   0  0  0  0  0  0  0  0  0  0  0  0
   29.9028   11.6769   26.9836 H   0  0  0  0  0  0  0  0  0  0  0  0
   32.2636    9.4545   31.4735 H   0  0  0  0  0  0  0  0  0  0  0  0
   36.1210    8.6971   29.6972 H   0  0  0  0  0  0  0  0  0  0  0  0
   35.0155    7.3888   27.8899 H   0  0  0  0  0  0  0  0  0  0  0  0
   32.5327    7.1261   27.8991 H   0  0  0  0  0  0  0  0  0  0  0  0
   27.5607   10.9667   24.8537 H   0  0  0  0  0  0  0  0  0  0  0  0
   26.8793   15.2144   24.5435 H   0  0  0  0  0  0  0  0  0  0  0  0
   26.5786   15.3403   26.9976 H   0  0  0  0  0  0  0  0  0  0  0  0
   26.7646   13.2855   28.3774 H   0  0  0  0  0  0  0  0  0  0  0  0
   27.4037   13.8700   22.8246 H   0  0  0  0  0  0  0  0  0  0  0  0
   34.2044   10.1785   32.2715 H   0  0  0  0  0  0  0  0  0  0  0  0
   28.3198    0.1772   30.5525 H   0  0  0  0  0  0  0  0  0  0  0  0
   22.5810   11.9533   34.7582 H   0  0  0  0  0  0  0  0  0  0  0  0
 25 26  2  0
 26 27  1  0
 27 23  1  0
 28 29  1  0
  1  2  2  0
  3  4  2  0
  7  8  2  0
 14 15  1  0
 29 30  1  0
 30 31  2  0
 31 32  1  0
 32 28  2  0
 15 16  1  0
 29 33  2  0
 17 33  1  0
 16 17  1  0
 14 34  2  0
 22 34  1  0
 17 13  2  0
 27 35  2  0
 19 35  1  0
 18 19  1  0
 24 36  2  0
 32 36  1  0
  8  9  1  0
  4  5  1  0
 37 38  2  0
  9 10  2  0
 38 39  1  0
  2  3  1  0
 39 40  2  0
 10 11  1  0
 40 41  1  0
 19 20  2  0
 41 42  2  0
 42 37  1  0
 33 37  1  0
 20 21  1  0
 21 22  2  0
 43 44  2  0
 22 18  1  0
 44 45  1  0
 23 24  1  0
 45 46  2  0
  5  6  2  0
 46 47  1  0
 11 12  2  0
 47 48  2  0
 48 43  1  0
 36 43  1  0
 12  7  1  0
 45 49  1  0
 13 14  1  0
 39 50  1  0
 35 12  1  0
 34  2  1  0
  6  1  1  0
  4 51  1  0
 24 25  1  0
  8 52  1  0
  1 53  1  0
  3 54  1  0
  5 55  1  0
  6 56  1  0
  7 57  1  0
  9 58  1  0
 10 59  1  0
 11 60  1  0
 15 61  1  0
 15 62  1  0
 16 63  1  0
 16 64  1  0
 18 65  1  0
 20 66  1  0
 21 67  1  0
 23 68  1  0
 25 69  1  0
 26 70  1  0
 30 71  1  0
 31 72  1  0
 38 73  1  0
 40 74  1  0
 41 75  1  0
 42 76  1  0
 44 77  1  0
 46 78  1  0
 47 79  1  0
 48 80  1  0
 49 81  1  0
 50 82  1  0
 51 83  1  0
 52 84  1  0
M  END
> <Uni-Dock RESULT> 
ENERGY=   -4.411  LOWER_BOUND=    2.674  UPPER_BOUND=    6.147
INTER + INTRA:          -4.411
INTER:                  -4.411
INTRA:                   0.000
UNBOUND:                 0.000

$$$$
