
     RDKit          3D

 84 92  0  0  0  0  0  0  0  0999 V2000
   21.6132    4.7649   32.3363 C   0  0  0  0  0  0  0  0  0  0  0  0
   22.3194    4.7755   31.1264 C   0  0  0  0  0  0  0  0  0  0  0  0
   21.7873    4.1218   30.0083 C   0  0  0  0  0  0  0  0  0  0  0  0
   20.5621    3.4680   30.1099 C   0  0  0  0  0  0  0  0  0  0  0  0
   19.8555    3.4588   31.3086 C   0  0  0  0  0  0  0  0  0  0  0  0
   20.3831    4.1077   32.4264 C   0  0  0  0  0  0  0  0  0  0  0  0
   23.8866   11.9377   28.6814 C   0  0  0  0  0  0  0  0  0  0  0  0
   23.4632   13.2643   28.6598 C   0  0  0  0  0  0  0  0  0  0  0  0
   24.0656   14.2187   29.4725 C   0  0  0  0  0  0  0  0  0  0  0  0
   25.1103   13.8448   30.3189 C   0  0  0  0  0  0  0  0  0  0  0  0
   25.5404   12.5164   30.3512 C   0  0  0  0  0  0  0  0  0  0  0  0
   24.9257   11.5546   29.5401 C   0  0  0  0  0  0  0  0  0  0  0  0
   26.0768    5.2404   30.9906 N   0  0  0  0  0  0  0  0  0  0  0  0
   24.7974    4.7916   31.1372 C   0  0  0  0  0  0  0  0  0  0  0  0
   24.8259    3.3190   31.4417 C   0  0  0  0  0  0  0  0  0  0  0  0
   26.2417    3.1043   31.9054 C   0  0  0  0  0  0  0  0  0  0  0  0
   26.9972    4.2773   31.3017 C   0  0  0  0  0  0  0  0  0  0  0  0
   24.7586    7.6662   30.2017 N   0  0  0  0  0  0  0  0  0  0  0  0
   24.4513    8.9965   30.0492 C   0  0  0  0  0  0  0  0  0  0  0  0
   23.1485    9.1733   30.4865 C   0  0  0  0  0  0  0  0  0  0  0  0
   22.6406    7.9116   30.8763 C   0  0  0  0  0  0  0  0  0  0  0  0
   23.6545    7.0027   30.6903 C   0  0  0  0  0  0  0  0  0  0  0  0
   27.7373    8.9545   29.4556 N   0  0  0  0  0  0  0  0  0  0  0  0
   28.9052    9.0882   28.7421 C   0  0  0  0  0  0  0  0  0  0  0  0
   28.7145   10.0250   27.7533 C   0  0  0  0  0  0  0  0  0  0  0  0
   27.3893   10.5054   27.8988 C   0  0  0  0  0  0  0  0  0  0  0  0
   26.8227    9.8539   28.9795 C   0  0  0  0  0  0  0  0  0  0  0  0
   28.8868    6.4346   30.0970 N   0  0  0  0  0  0  0  0  0  0  0  0
   29.1618    5.2134   30.6561 C   0  0  0  0  0  0  0  0  0  0  0  0
   30.6152    5.0814   30.5869 C   0  0  0  0  0  0  0  0  0  0  0  0
   31.1252    6.1604   30.0027 C   0  0  0  0  0  0  0  0  0  0  0  0
   30.0335    7.0390   29.6581 C   0  0  0  0  0  0  0  0  0  0  0  0
   28.3668    4.2298   31.1888 C   0  0  0  0  0  0  0  0  0  0  0  0
   23.6220    5.4620   31.0179 C   0  0  0  0  0  0  0  0  0  0  0  0
   25.3980   10.1518   29.5561 C   0  0  0  0  0  0  0  0  0  0  0  0
   30.2014    8.2302   29.0248 C   0  0  0  0  0  0  0  0  0  0  0  0
   29.0393    2.9857   31.6701 C   0  0  0  0  0  0  0  0  0  0  0  0
   29.3023    1.9444   30.7679 C   0  0  0  0  0  0  0  0  0  0  0  0
   29.9243    0.7827   31.2148 C   0  0  0  0  0  0  0  0  0  0  0  0
   30.2922    0.6364   32.5488 C   0  0  0  0  0  0  0  0  0  0  0  0
   30.0403    1.6710   33.4526 C   0  0  0  0  0  0  0  0  0  0  0  0
   29.4163    2.8421   33.0144 C   0  0  0  0  0  0  0  0  0  0  0  0
   31.5160    8.7551   28.5990 C   0  0  0  0  0  0  0  0  0  0  0  0
   32.0948    9.8468   29.2585 C   0  0  0  0  0  0  0  0  0  0  0  0
   33.3267   10.3369   28.8332 C   0  0  0  0  0  0  0  0  0  0  0  0
   33.9947    9.7604   27.7532 C   0  0  0  0  0  0  0  0  0  0  0  0
   33.4191    8.6765   27.0897 C   0  0  0  0  0  0  0  0  0  0  0  0
   32.1840    8.1768   27.5090 C   0  0  0  0  0  0  0  0  0  0  0  0
   33.8638   11.4013   29.5020 O   0  0  0  0  0  0  0  0  0  0  0  0
   30.1879   -0.2434   30.3505 O   0  0  0  0  0  0  0  0  0  0  0  0
   20.0254    2.8156   29.0361 O   0  0  0  0  0  0  0  0  0  0  0  0
   22.4494   13.6652   27.8374 O   0  0  0  0  0  0  0  0  0  0  0  0
   22.0396    5.2678   33.2023 H   0  0  0  0  0  0  0  0  0  0  0  0
   22.3594    4.1329   29.0835 H   0  0  0  0  0  0  0  0  0  0  0  0
   18.9033    2.9429   31.3727 H   0  0  0  0  0  0  0  0  0  0  0  0
   19.8445    4.1006   33.3690 H   0  0  0  0  0  0  0  0  0  0  0  0
   23.4324   11.1877   28.0392 H   0  0  0  0  0  0  0  0  0  0  0  0
   23.7265   15.2489   29.4437 H   0  0  0  0  0  0  0  0  0  0  0  0
   25.5957   14.5818   30.9517 H   0  0  0  0  0  0  0  0  0  0  0  0
   26.3600   12.2240   31.0056 H   0  0  0  0  0  0  0  0  0  0  0  0
   24.1221    3.0106   32.2213 H   0  0  0  0  0  0  0  0  0  0  0  0
   24.6270    2.7392   30.5311 H   0  0  0  0  0  0  0  0  0  0  0  0
   26.5845    2.1189   31.5747 H   0  0  0  0  0  0  0  0  0  0  0  0
   26.2965    3.1501   33.0017 H   0  0  0  0  0  0  0  0  0  0  0  0
   25.6521    7.1874   30.0718 H   0  0  0  0  0  0  0  0  0  0  0  0
   22.6161   10.1106   30.5368 H   0  0  0  0  0  0  0  0  0  0  0  0
   21.6585    7.6963   31.2699 H   0  0  0  0  0  0  0  0  0  0  0  0
   27.6216    8.2260   30.1616 H   0  0  0  0  0  0  0  0  0  0  0  0
   29.4442   10.3218   27.0147 H   0  0  0  0  0  0  0  0  0  0  0  0
   26.9115   11.2637   27.2961 H   0  0  0  0  0  0  0  0  0  0  0  0
   31.1925    4.2509   30.9518 H   0  0  0  0  0  0  0  0  0  0  0  0
   32.1693    6.3409   29.8265 H   0  0  0  0  0  0  0  0  0  0  0  0
   29.0047    2.0837   29.7319 H   0  0  0  0  0  0  0  0  0  0  0  0
   30.7743   -0.2767   32.8807 H   0  0  0  0  0  0  0  0  0  0  0  0
   30.3296    1.5729   34.4933 H   0  0  0  0  0  0  0  0  0  0  0  0
   29.2097    3.6603   33.7016 H   0  0  0  0  0  0  0  0  0  0  0  0
   31.5819   10.2973   30.1045 H   0  0  0  0  0  0  0  0  0  0  0  0
   34.9561   10.1355   27.4178 H   0  0  0  0  0  0  0  0  0  0  0  0
   33.9273    8.2095   26.2502 H   0  0  0  0  0  0  0  0  0  0  0  0
   31.7298    7.3268   27.0008 H   0  0  0  0  0  0  0  0  0  0  0  0
   34.7388   11.5774   29.1252 H   0  0  0  0  0  0  0  0  0  0  0  0
   29.8900    0.0647   29.4769 H   0  0  0  0  0  0  0  0  0  0  0  0
   20.6642    2.9135   28.3106 H   0  0  0  0  0  0  0  0  0  0  0  0
   22.1414   12.8761   27.3602 H   0  0  0  0  0  0  0  0  0  0  0  0
 25 26  2  0
 26 27  1  0
 27 23  1  0
 28 29  1  0
  1  2  2  0
  3  4  2  0
  7  8  2  0
 14 15  1  0
 29 30  1  0
 30 31  2  0
 31 32  1  0
 32 28  2  0
 15 16  1  0
 29 33  2  0
 17 33  1  0
 16 17  1  0
 14 34  2  0
 22 34  1  0
 17 13  2  0
 27 35  2  0
 19 35  1  0
 18 19  1  0
 24 36  2  0
 32 36  1  0
  8  9  1  0
  4  5  1  0
 37 38  2  0
  9 10  2  0
 38 39  1  0
  2  3  1  0
 39 40  2  0
 10 11  1  0
 40 41  1  0
 19 20  2  0
 41 42  2  0
 42 37  1  0
 33 37  1  0
 20 21  1  0
 21 22  2  0
 43 44  2  0
 22 18  1  0
 44 45  1  0
 23 24  1  0
 45 46  2  0
  5  6  2  0
 46 47  1  0
 11 12  2  0
 47 48  2  0
 48 43  1  0
 36 43  1  0
 12  7  1  0
 45 49  1  0
 13 14  1  0
 39 50  1  0
 35 12  1  0
 34  2  1  0
  6  1  1  0
  4 51  1  0
 24 25  1  0
  8 52  1  0
  1 53  1  0
  3 54  1  0
  5 55  1  0
  6 56  1  0
  7 57  1  0
  9 58  1  0
 10 59  1  0
 11 60  1  0
 15 61  1  0
 15 62  1  0
 16 63  1  0
 16 64  1  0
 18 65  1  0
 20 66  1  0
 21 67  1  0
 23 68  1  0
 25 69  1  0
 26 70  1  0
 30 71  1  0
 31 72  1  0
 38 73  1  0
 40 74  1  0
 41 75  1  0
 42 76  1  0
 44 77  1  0
 46 78  1  0
 47 79  1  0
 48 80  1  0
 49 81  1  0
 50 82  1  0
 51 83  1  0
 52 84  1  0
M  END
> <Uni-Dock RESULT> 
ENERGY=   -5.955  LOWER_BOUND=    0.000  UPPER_BOUND=    0.000
INTER + INTRA:          -5.955
INTER:                  -5.955
INTRA:                   0.000
UNBOUND:                 0.000

$$$$

     RDKit          3D

 84 92  0  0  0  0  0  0  0  0999 V2000
   27.9628    0.9649   31.7292 C   0  0  0  0  0  0  0  0  0  0  0  0
   27.8379    2.1754   32.4232 C   0  0  0  0  0  0  0  0  0  0  0  0
   28.0009    2.1964   33.8138 C   0  0  0  0  0  0  0  0  0  0  0  0
   28.2856    1.0144   34.4927 C   0  0  0  0  0  0  0  0  0  0  0  0
   28.4147   -0.1892   33.8066 C   0  0  0  0  0  0  0  0  0  0  0  0
   28.2512   -0.2150   32.4204 C   0  0  0  0  0  0  0  0  0  0  0  0
   32.6524    7.6109   29.7760 C   0  0  0  0  0  0  0  0  0  0  0  0
   33.8868    7.8644   29.1832 C   0  0  0  0  0  0  0  0  0  0  0  0
   33.9765    8.1942   27.8350 C   0  0  0  0  0  0  0  0  0  0  0  0
   32.8152    8.2757   27.0654 C   0  0  0  0  0  0  0  0  0  0  0  0
   31.5723    8.0199   27.6489 C   0  0  0  0  0  0  0  0  0  0  0  0
   31.4847    7.6776   29.0039 C   0  0  0  0  0  0  0  0  0  0  0  0
   25.8065    5.0730   31.0706 N   0  0  0  0  0  0  0  0  0  0  0  0
   26.2619    3.9097   31.6174 C   0  0  0  0  0  0  0  0  0  0  0  0
   25.1000    3.1542   32.2016 C   0  0  0  0  0  0  0  0  0  0  0  0
   23.9172    3.7851   31.5171 C   0  0  0  0  0  0  0  0  0  0  0  0
   24.4403    5.1441   31.0802 C   0  0  0  0  0  0  0  0  0  0  0  0
   28.6092    5.5970   30.7324 N   0  0  0  0  0  0  0  0  0  0  0  0
   29.8067    6.0102   30.2005 C   0  0  0  0  0  0  0  0  0  0  0  0
   30.6521    4.9128   30.1818 C   0  0  0  0  0  0  0  0  0  0  0  0
   29.9631    3.8172   30.7532 C   0  0  0  0  0  0  0  0  0  0  0  0
   28.7074    4.2682   31.0825 C   0  0  0  0  0  0  0  0  0  0  0  0
   27.8313    8.6422   29.6322 N   0  0  0  0  0  0  0  0  0  0  0  0
   27.3691    9.9335   29.7309 C   0  0  0  0  0  0  0  0  0  0  0  0
   28.4282   10.7613   30.0218 C   0  0  0  0  0  0  0  0  0  0  0  0
   29.5843    9.9428   30.0629 C   0  0  0  0  0  0  0  0  0  0  0  0
   29.1912    8.6465   29.7826 C   0  0  0  0  0  0  0  0  0  0  0  0
   25.1073    8.0489   30.1895 N   0  0  0  0  0  0  0  0  0  0  0  0
   23.9022    7.4179   30.3597 C   0  0  0  0  0  0  0  0  0  0  0  0
   22.8956    8.4223   30.0240 C   0  0  0  0  0  0  0  0  0  0  0  0
   23.5026    9.5598   29.7031 C   0  0  0  0  0  0  0  0  0  0  0  0
   24.9261    9.3544   29.8211 C   0  0  0  0  0  0  0  0  0  0  0  0
   23.5598    6.1497   30.7572 C   0  0  0  0  0  0  0  0  0  0  0  0
   27.5292    3.4287   31.7065 C   0  0  0  0  0  0  0  0  0  0  0  0
   30.1654    7.4307   29.6282 C   0  0  0  0  0  0  0  0  0  0  0  0
   25.8460   10.3268   29.5835 C   0  0  0  0  0  0  0  0  0  0  0  0
   22.1045    5.8334   30.8732 C   0  0  0  0  0  0  0  0  0  0  0  0
   21.4222    6.1268   32.0631 C   0  0  0  0  0  0  0  0  0  0  0  0
   20.0677    5.8288   32.1751 C   0  0  0  0  0  0  0  0  0  0  0  0
   19.3750    5.2419   31.1206 C   0  0  0  0  0  0  0  0  0  0  0  0
   20.0449    4.9526   29.9296 C   0  0  0  0  0  0  0  0  0  0  0  0
   21.4052    5.2480   29.8063 C   0  0  0  0  0  0  0  0  0  0  0  0
   25.4965   11.7099   29.1962 C   0  0  0  0  0  0  0  0  0  0  0  0
   25.7408   12.1689   27.8957 C   0  0  0  0  0  0  0  0  0  0  0  0
   25.4190   13.4797   27.5538 C   0  0  0  0  0  0  0  0  0  0  0  0
   24.8603   14.3493   28.4900 C   0  0  0  0  0  0  0  0  0  0  0  0
   24.6206   13.8982   29.7882 C   0  0  0  0  0  0  0  0  0  0  0  0
   24.9392   12.5848   30.1411 C   0  0  0  0  0  0  0  0  0  0  0  0
   25.6679   13.8930   26.2747 O   0  0  0  0  0  0  0  0  0  0  0  0
   19.3860    6.1064   33.3274 O   0  0  0  0  0  0  0  0  0  0  0  0
   28.4408    1.0067   35.8501 O   0  0  0  0  0  0  0  0  0  0  0  0
   35.0415    7.8012   29.9095 O   0  0  0  0  0  0  0  0  0  0  0  0
   27.8250    0.9572   30.6495 H   0  0  0  0  0  0  0  0  0  0  0  0
   27.8869    3.1454   34.3323 H   0  0  0  0  0  0  0  0  0  0  0  0
   28.6343   -1.1021   34.3500 H   0  0  0  0  0  0  0  0  0  0  0  0
   28.3420   -1.1496   31.8753 H   0  0  0  0  0  0  0  0  0  0  0  0
   32.5705    7.3673   30.8320 H   0  0  0  0  0  0  0  0  0  0  0  0
   34.9449    8.3909   27.3871 H   0  0  0  0  0  0  0  0  0  0  0  0
   32.8701    8.5414   26.0139 H   0  0  0  0  0  0  0  0  0  0  0  0
   30.6645    8.0899   27.0519 H   0  0  0  0  0  0  0  0  0  0  0  0
   25.1218    2.0780   32.0027 H   0  0  0  0  0  0  0  0  0  0  0  0
   25.0485    3.3161   33.2860 H   0  0  0  0  0  0  0  0  0  0  0  0
   23.0736    3.8207   32.2134 H   0  0  0  0  0  0  0  0  0  0  0  0
   23.6262    3.1969   30.6360 H   0  0  0  0  0  0  0  0  0  0  0  0
   27.7263    6.1049   30.8159 H   0  0  0  0  0  0  0  0  0  0  0  0
   31.6562    4.8901   29.7870 H   0  0  0  0  0  0  0  0  0  0  0  0
   30.3320    2.8110   30.8856 H   0  0  0  0  0  0  0  0  0  0  0  0
   27.1931    7.8508   29.5380 H   0  0  0  0  0  0  0  0  0  0  0  0
   28.3707   11.8268   30.1876 H   0  0  0  0  0  0  0  0  0  0  0  0
   30.5964   10.2702   30.2502 H   0  0  0  0  0  0  0  0  0  0  0  0
   21.8305    8.2753   30.0272 H   0  0  0  0  0  0  0  0  0  0  0  0
   23.0117   10.4673   29.4043 H   0  0  0  0  0  0  0  0  0  0  0  0
   21.9862    6.5847   32.8714 H   0  0  0  0  0  0  0  0  0  0  0  0
   18.3197    5.0143   31.2257 H   0  0  0  0  0  0  0  0  0  0  0  0
   19.5146    4.5029   29.0972 H   0  0  0  0  0  0  0  0  0  0  0  0
   21.9469    5.0303   28.8879 H   0  0  0  0  0  0  0  0  0  0  0  0
   26.1711   11.4945   27.1596 H   0  0  0  0  0  0  0  0  0  0  0  0
   24.6048   15.3714   28.2301 H   0  0  0  0  0  0  0  0  0  0  0  0
   24.1798   14.5587   30.5301 H   0  0  0  0  0  0  0  0  0  0  0  0
   24.7498   12.2218   31.1508 H   0  0  0  0  0  0  0  0  0  0  0  0
   25.3348   14.7983   26.1855 H   0  0  0  0  0  0  0  0  0  0  0  0
   20.0294    6.5368   33.9171 H   0  0  0  0  0  0  0  0  0  0  0  0
   28.2943    1.9203   36.1464 H   0  0  0  0  0  0  0  0  0  0  0  0
   34.7945    7.5470   30.8148 H   0  0  0  0  0  0  0  0  0  0  0  0
 25 26  2  0
 26 27  1  0
 27 23  1  0
 28 29  1  0
  1  2  2  0
  3  4  2  0
  7  8  2  0
 14 15  1  0
 29 30  1  0
 30 31  2  0
 31 32  1  0
 32 28  2  0
 15 16  1  0
 29 33  2  0
 17 33  1  0
 16 17  1  0
 14 34  2  0
 22 34  1  0
 17 13  2  0
 27 35  2  0
 19 35  1  0
 18 19  1  0
 24 36  2  0
 32 36  1  0
  8  9  1  0
  4  5  1  0
 37 38  2  0
  9 10  2  0
 38 39  1  0
  2  3  1  0
 39 40  2  0
 10 11  1  0
 40 41  1  0
 19 20  2  0
 41 42  2  0
 42 37  1  0
 33 37  1  0
 20 21  1  0
 21 22  2  0
 43 44  2  0
 22 18  1  0
 44 45  1  0
 23 24  1  0
 45 46  2  0
  5  6  2  0
 46 47  1  0
 11 12  2  0
 47 48  2  0
 48 43  1  0
 36 43  1  0
 12  7  1  0
 45 49  1  0
 13 14  1  0
 39 50  1  0
 35 12  1  0
 34  2  1  0
  6  1  1  0
  4 51  1  0
 24 25  1  0
  8 52  1  0
  1 53  1  0
  3 54  1  0
  5 55  1  0
  6 56  1  0
  7 57  1  0
  9 58  1  0
 10 59  1  0
 11 60  1  0
 15 61  1  0
 15 62  1  0
 16 63  1  0
 16 64  1  0
 18 65  1  0
 20 66  1  0
 21 67  1  0
 23 68  1  0
 25 69  1  0
 26 70  1  0
 30 71  1  0
 31 72  1  0
 38 73  1  0
 40 74  1  0
 41 75  1  0
 42 76  1  0
 44 77  1  0
 46 78  1  0
 47 79  1  0
 48 80  1  0
 49 81  1  0
 50 82  1  0
 51 83  1  0
 52 84  1  0
M  END
> <Uni-Dock RESULT> 
ENERGY=   -5.687  LOWER_BOUND=    1.845  UPPER_BOUND=    7.899
INTER + INTRA:          -5.687
INTER:                  -5.687
INTRA:                   0.000
UNBOUND:                 0.000

$$$$

     RDKit          3D

 84 92  0  0  0  0  0  0  0  0999 V2000
   29.4789    1.5710   30.6753 C   0  0  0  0  0  0  0  0  0  0  0  0
   29.0719    2.5615   31.5787 C   0  0  0  0  0  0  0  0  0  0  0  0
   29.4668    2.4801   32.9197 C   0  0  0  0  0  0  0  0  0  0  0  0
   30.2596    1.4161   33.3419 C   0  0  0  0  0  0  0  0  0  0  0  0
   30.6695    0.4326   32.4468 C   0  0  0  0  0  0  0  0  0  0  0  0
   30.2767    0.5088   31.1093 C   0  0  0  0  0  0  0  0  0  0  0  0
   31.1514    9.6548   29.3223 C   0  0  0  0  0  0  0  0  0  0  0  0
   32.0934   10.4119   28.6302 C   0  0  0  0  0  0  0  0  0  0  0  0
   31.8181   10.9050   27.3592 C   0  0  0  0  0  0  0  0  0  0  0  0
   30.5811   10.6415   26.7695 C   0  0  0  0  0  0  0  0  0  0  0  0
   29.6303    9.8803   27.4531 C   0  0  0  0  0  0  0  0  0  0  0  0
   29.9132    9.3757   28.7283 C   0  0  0  0  0  0  0  0  0  0  0  0
   25.9565    4.6428   31.0179 N   0  0  0  0  0  0  0  0  0  0  0  0
   26.8763    3.6742   31.2926 C   0  0  0  0  0  0  0  0  0  0  0  0
   26.1726    2.4817   31.8801 C   0  0  0  0  0  0  0  0  0  0  0  0
   24.7417    2.7073   31.4713 C   0  0  0  0  0  0  0  0  0  0  0  0
   24.6755    4.2041   31.2134 C   0  0  0  0  0  0  0  0  0  0  0  0
   28.2957    6.1974   30.4219 N   0  0  0  0  0  0  0  0  0  0  0  0
   29.1597    7.0811   29.8217 C   0  0  0  0  0  0  0  0  0  0  0  0
   30.3135    6.3823   29.5057 C   0  0  0  0  0  0  0  0  0  0  0  0
   30.1604    5.0518   29.9617 C   0  0  0  0  0  0  0  0  0  0  0  0
   28.9080    4.9673   30.5212 C   0  0  0  0  0  0  0  0  0  0  0  0
   26.3296    8.8473   29.9738 N   0  0  0  0  0  0  0  0  0  0  0  0
   25.4763    9.8570   30.3526 C   0  0  0  0  0  0  0  0  0  0  0  0
   26.2189   10.9770   30.6454 C   0  0  0  0  0  0  0  0  0  0  0  0
   27.5734   10.6429   30.3967 C   0  0  0  0  0  0  0  0  0  0  0  0
   27.6078    9.3347   29.9484 C   0  0  0  0  0  0  0  0  0  0  0  0
   24.1265    7.2324   30.7618 N   0  0  0  0  0  0  0  0  0  0  0  0
   23.2650    6.1868   30.9720 C   0  0  0  0  0  0  0  0  0  0  0  0
   21.9308    6.7815   30.9462 C   0  0  0  0  0  0  0  0  0  0  0  0
   22.0393    8.0915   30.7526 C   0  0  0  0  0  0  0  0  0  0  0  0
   23.4425    8.4126   30.6511 C   0  0  0  0  0  0  0  0  0  0  0  0
   23.4592    4.8449   31.1842 C   0  0  0  0  0  0  0  0  0  0  0  0
   28.2255    3.6869   31.1351 C   0  0  0  0  0  0  0  0  0  0  0  0
   28.8964    8.5899   29.4631 C   0  0  0  0  0  0  0  0  0  0  0  0
   23.9112    9.6759   30.4706 C   0  0  0  0  0  0  0  0  0  0  0  0
   22.2490    4.0038   31.4278 C   0  0  0  0  0  0  0  0  0  0  0  0
   21.7350    3.8855   32.7275 C   0  0  0  0  0  0  0  0  0  0  0  0
   20.6106    3.0988   32.9576 C   0  0  0  0  0  0  0  0  0  0  0  0
   19.9841    2.4242   31.9141 C   0  0  0  0  0  0  0  0  0  0  0  0
   20.4851    2.5418   30.6157 C   0  0  0  0  0  0  0  0  0  0  0  0
   21.6137    3.3295   30.3734 C   0  0  0  0  0  0  0  0  0  0  0  0
   23.0421   10.8679   30.3763 C   0  0  0  0  0  0  0  0  0  0  0  0
   22.8732   11.5317   29.1546 C   0  0  0  0  0  0  0  0  0  0  0  0
   22.0627   12.6619   29.0886 C   0  0  0  0  0  0  0  0  0  0  0  0
   21.4177   13.1501   30.2247 C   0  0  0  0  0  0  0  0  0  0  0  0
   21.5878   12.4955   31.4449 C   0  0  0  0  0  0  0  0  0  0  0  0
   22.3981   11.3604   31.5215 C   0  0  0  0  0  0  0  0  0  0  0  0
   21.9177   13.2827   27.8793 O   0  0  0  0  0  0  0  0  0  0  0  0
   20.0957    2.9706   34.2178 O   0  0  0  0  0  0  0  0  0  0  0  0
   30.6511    1.3091   34.6465 O   0  0  0  0  0  0  0  0  0  0  0  0
   33.3102   10.6948   29.1817 O   0  0  0  0  0  0  0  0  0  0  0  0
   29.1590    1.6380   29.6371 H   0  0  0  0  0  0  0  0  0  0  0  0
   29.1283    3.2536   33.6050 H   0  0  0  0  0  0  0  0  0  0  0  0
   31.2851   -0.3915   32.7915 H   0  0  0  0  0  0  0  0  0  0  0  0
   30.5840   -0.2568   30.4036 H   0  0  0  0  0  0  0  0  0  0  0  0
   31.3514    9.2778   30.3219 H   0  0  0  0  0  0  0  0  0  0  0  0
   32.5610   11.4949   26.8327 H   0  0  0  0  0  0  0  0  0  0  0  0
   30.3495   11.0284   25.7815 H   0  0  0  0  0  0  0  0  0  0  0  0
   28.6620    9.6796   26.9977 H   0  0  0  0  0  0  0  0  0  0  0  0
   26.5280    1.5200   31.4967 H   0  0  0  0  0  0  0  0  0  0  0  0
   26.2658    2.4868   32.9738 H   0  0  0  0  0  0  0  0  0  0  0  0
   24.0786    2.3490   32.2648 H   0  0  0  0  0  0  0  0  0  0  0  0
   24.5170    2.1594   30.5460 H   0  0  0  0  0  0  0  0  0  0  0  0
   27.3225    6.3311   30.7037 H   0  0  0  0  0  0  0  0  0  0  0  0
   31.1746    6.7768   28.9885 H   0  0  0  0  0  0  0  0  0  0  0  0
   30.8712    4.2441   29.8699 H   0  0  0  0  0  0  0  0  0  0  0  0
   25.9977    7.8931   29.8258 H   0  0  0  0  0  0  0  0  0  0  0  0
   25.8283   11.9195   30.9991 H   0  0  0  0  0  0  0  0  0  0  0  0
   28.4265   11.2960   30.5076 H   0  0  0  0  0  0  0  0  0  0  0  0
   21.0011    6.2532   31.0594 H   0  0  0  0  0  0  0  0  0  0  0  0
   21.2200    8.7824   30.6804 H   0  0  0  0  0  0  0  0  0  0  0  0
   22.2429    4.4221   33.5245 H   0  0  0  0  0  0  0  0  0  0  0  0
   19.1098    1.8135   32.1116 H   0  0  0  0  0  0  0  0  0  0  0  0
   20.0011    2.0279   29.7923 H   0  0  0  0  0  0  0  0  0  0  0  0
   22.0214    3.4343   29.3698 H   0  0  0  0  0  0  0  0  0  0  0  0
   23.3688   11.1531   28.2641 H   0  0  0  0  0  0  0  0  0  0  0  0
   20.7827   14.0289   30.1803 H   0  0  0  0  0  0  0  0  0  0  0  0
   21.0882   12.8567   32.3399 H   0  0  0  0  0  0  0  0  0  0  0  0
   22.5318   10.8391   32.4688 H   0  0  0  0  0  0  0  0  0  0  0  0
   21.2824   14.0055   27.9914 H   0  0  0  0  0  0  0  0  0  0  0  0
   20.6466    3.5364   34.7863 H   0  0  0  0  0  0  0  0  0  0  0  0
   30.2547    2.0637   35.1127 H   0  0  0  0  0  0  0  0  0  0  0  0
   33.3345   10.2647   30.0533 H   0  0  0  0  0  0  0  0  0  0  0  0
 25 26  2  0
 26 27  1  0
 27 23  1  0
 28 29  1  0
  1  2  2  0
  3  4  2  0
  7  8  2  0
 14 15  1  0
 29 30  1  0
 30 31  2  0
 31 32  1  0
 32 28  2  0
 15 16  1  0
 29 33  2  0
 17 33  1  0
 16 17  1  0
 14 34  2  0
 22 34  1  0
 17 13  2  0
 27 35  2  0
 19 35  1  0
 18 19  1  0
 24 36  2  0
 32 36  1  0
  8  9  1  0
  4  5  1  0
 37 38  2  0
  9 10  2  0
 38 39  1  0
  2  3  1  0
 39 40  2  0
 10 11  1  0
 40 41  1  0
 19 20  2  0
 41 42  2  0
 42 37  1  0
 33 37  1  0
 20 21  1  0
 21 22  2  0
 43 44  2  0
 22 18  1  0
 44 45  1  0
 23 24  1  0
 45 46  2  0
  5  6  2  0
 46 47  1  0
 11 12  2  0
 47 48  2  0
 48 43  1  0
 36 43  1  0
 12  7  1  0
 45 49  1  0
 13 14  1  0
 39 50  1  0
 35 12  1  0
 34  2  1  0
  6  1  1  0
  4 51  1  0
 24 25  1  0
  8 52  1  0
  1 53  1  0
  3 54  1  0
  5 55  1  0
  6 56  1  0
  7 57  1  0
  9 58  1  0
 10 59  1  0
 11 60  1  0
 15 61  1  0
 15 62  1  0
 16 63  1  0
 16 64  1  0
 18 65  1  0
 20 66  1  0
 21 67  1  0
 23 68  1  0
 25 69  1  0
 26 70  1  0
 30 71  1  0
 31 72  1  0
 38 73  1  0
 40 74  1  0
 41 75  1  0
 42 76  1  0
 44 77  1  0
 46 78  1  0
 47 79  1  0
 48 80  1  0
 49 81  1  0
 50 82  1  0
 51 83  1  0
 52 84  1  0
M  END
> <Uni-Dock RESULT> 
ENERGY=   -5.386  LOWER_BOUND=    1.567  UPPER_BOUND=    7.987
INTER + INTRA:          -5.386
INTER:                  -5.386
INTRA:                   0.000
UNBOUND:                 0.000

$$$$

     RDKit          3D

 84 92  0  0  0  0  0  0  0  0999 V2000
   21.2006    7.0222   29.7957 C   0  0  0  0  0  0  0  0  0  0  0  0
   22.1230    7.5816   30.6897 C   0  0  0  0  0  0  0  0  0  0  0  0
   21.6631    8.2541   31.8285 C   0  0  0  0  0  0  0  0  0  0  0  0
   20.2943    8.3603   32.0611 C   0  0  0  0  0  0  0  0  0  0  0  0
   19.3751    7.8023   31.1779 C   0  0  0  0  0  0  0  0  0  0  0  0
   19.8291    7.1325   30.0403 C   0  0  0  0  0  0  0  0  0  0  0  0
   27.1789    2.3815   33.3594 C   0  0  0  0  0  0  0  0  0  0  0  0
   27.3879    1.0451   33.6907 C   0  0  0  0  0  0  0  0  0  0  0  0
   28.1152    0.2074   32.8517 C   0  0  0  0  0  0  0  0  0  0  0  0
   28.6461    0.7118   31.6637 C   0  0  0  0  0  0  0  0  0  0  0  0
   28.4395    2.0497   31.3200 C   0  0  0  0  0  0  0  0  0  0  0  0
   27.6980    2.8889   32.1606 C   0  0  0  0  0  0  0  0  0  0  0  0
   25.6139    8.5880   29.6160 N   0  0  0  0  0  0  0  0  0  0  0  0
   24.2750    8.4794   29.8509 C   0  0  0  0  0  0  0  0  0  0  0  0
   23.5894    9.7286   29.3694 C   0  0  0  0  0  0  0  0  0  0  0  0
   24.6071   10.3251   28.4345 C   0  0  0  0  0  0  0  0  0  0  0  0
   25.9189    9.7094   28.8942 C   0  0  0  0  0  0  0  0  0  0  0  0
   25.7138    6.1341   31.1035 N   0  0  0  0  0  0  0  0  0  0  0  0
   26.0580    4.8704   31.5184 C   0  0  0  0  0  0  0  0  0  0  0  0
   24.8944    4.1201   31.5695 C   0  0  0  0  0  0  0  0  0  0  0  0
   23.8132    4.9609   31.2152 C   0  0  0  0  0  0  0  0  0  0  0  0
   24.3481    6.1950   30.9331 C   0  0  0  0  0  0  0  0  0  0  0  0
   29.0381    6.2724   30.9655 N   0  0  0  0  0  0  0  0  0  0  0  0
   30.2881    6.7658   31.2570 C   0  0  0  0  0  0  0  0  0  0  0  0
   30.7754    6.1100   32.3632 C   0  0  0  0  0  0  0  0  0  0  0  0
   29.7967    5.1543   32.7330 C   0  0  0  0  0  0  0  0  0  0  0  0
   28.7524    5.2521   31.8311 C   0  0  0  0  0  0  0  0  0  0  0  0
   28.7887    8.7857   29.6601 N   0  0  0  0  0  0  0  0  0  0  0  0
   28.3608    9.8363   28.8904 C   0  0  0  0  0  0  0  0  0  0  0  0
   29.5812   10.5085   28.4508 C   0  0  0  0  0  0  0  0  0  0  0  0
   30.6348    9.8813   28.9627 C   0  0  0  0  0  0  0  0  0  0  0  0
   30.1535    8.7807   29.7624 C   0  0  0  0  0  0  0  0  0  0  0  0
   27.1141   10.2863   28.5343 C   0  0  0  0  0  0  0  0  0  0  0  0
   23.5746    7.4765   30.4417 C   0  0  0  0  0  0  0  0  0  0  0  0
   27.5000    4.3130   31.8085 C   0  0  0  0  0  0  0  0  0  0  0  0
   30.9711    7.9393   30.4491 C   0  0  0  0  0  0  0  0  0  0  0  0
   27.0404   11.5239   27.7010 C   0  0  0  0  0  0  0  0  0  0  0  0
   27.0484   12.7815   28.3223 C   0  0  0  0  0  0  0  0  0  0  0  0
   26.9752   13.9356   27.5485 C   0  0  0  0  0  0  0  0  0  0  0  0
   26.8941   13.8625   26.1613 C   0  0  0  0  0  0  0  0  0  0  0  0
   26.8924   12.6146   25.5339 C   0  0  0  0  0  0  0  0  0  0  0  0
   26.9659   11.4491   26.3015 C   0  0  0  0  0  0  0  0  0  0  0  0
   32.4439    8.0640   30.4727 C   0  0  0  0  0  0  0  0  0  0  0  0
   33.2485    7.1340   29.8022 C   0  0  0  0  0  0  0  0  0  0  0  0
   34.6344    7.2591   29.8485 C   0  0  0  0  0  0  0  0  0  0  0  0
   35.2383    8.2961   30.5592 C   0  0  0  0  0  0  0  0  0  0  0  0
   34.4409    9.2213   31.2334 C   0  0  0  0  0  0  0  0  0  0  0  0
   33.0496    9.1050   31.1925 C   0  0  0  0  0  0  0  0  0  0  0  0
   35.3888    6.3357   29.1799 O   0  0  0  0  0  0  0  0  0  0  0  0
   26.9807   15.1702   28.1361 O   0  0  0  0  0  0  0  0  0  0  0  0
   19.8198    9.0187   33.1603 O   0  0  0  0  0  0  0  0  0  0  0  0
   26.8893    0.5219   34.8493 O   0  0  0  0  0  0  0  0  0  0  0  0
   21.5678    6.5096   28.9085 H   0  0  0  0  0  0  0  0  0  0  0  0
   22.3973    8.6910   32.5013 H   0  0  0  0  0  0  0  0  0  0  0  0
   18.3118    7.8955   31.3716 H   0  0  0  0  0  0  0  0  0  0  0  0
   19.1211    6.6999   29.3401 H   0  0  0  0  0  0  0  0  0  0  0  0
   26.6249    3.0477   34.0155 H   0  0  0  0  0  0  0  0  0  0  0  0
   28.2716   -0.8312   33.1236 H   0  0  0  0  0  0  0  0  0  0  0  0
   29.2239    0.0711   31.0041 H   0  0  0  0  0  0  0  0  0  0  0  0
   28.8587    2.4469   30.3971 H   0  0  0  0  0  0  0  0  0  0  0  0
   22.6499    9.5458   28.8384 H   0  0  0  0  0  0  0  0  0  0  0  0
   23.3977   10.4052   30.2121 H   0  0  0  0  0  0  0  0  0  0  0  0
   24.5641   11.4166   28.5027 H   0  0  0  0  0  0  0  0  0  0  0  0
   24.3974   10.0252   27.3986 H   0  0  0  0  0  0  0  0  0  0  0  0
   26.3152    6.9250   30.8642 H   0  0  0  0  0  0  0  0  0  0  0  0
   24.8234    3.0729   31.8206 H   0  0  0  0  0  0  0  0  0  0  0  0
   22.7699    4.6905   31.1496 H   0  0  0  0  0  0  0  0  0  0  0  0
   28.4462    6.7010   30.2523 H   0  0  0  0  0  0  0  0  0  0  0  0
   31.7221    6.3022   32.8459 H   0  0  0  0  0  0  0  0  0  0  0  0
   29.8609    4.4536   33.5525 H   0  0  0  0  0  0  0  0  0  0  0  0
   29.6323   11.3710   27.8108 H   0  0  0  0  0  0  0  0  0  0  0  0
   31.6619   10.1504   28.8001 H   0  0  0  0  0  0  0  0  0  0  0  0
   27.1122   12.8110   29.4068 H   0  0  0  0  0  0  0  0  0  0  0  0
   26.8355   14.7722   25.5735 H   0  0  0  0  0  0  0  0  0  0  0  0
   26.8380   12.5441   24.4530 H   0  0  0  0  0  0  0  0  0  0  0  0
   26.9651   10.4667   25.8335 H   0  0  0  0  0  0  0  0  0  0  0  0
   32.7839    6.3265   29.2418 H   0  0  0  0  0  0  0  0  0  0  0  0
   36.3176    8.4012   30.5978 H   0  0  0  0  0  0  0  0  0  0  0  0
   34.8926   10.0400   31.7871 H   0  0  0  0  0  0  0  0  0  0  0  0
   32.4187    9.8265   31.7108 H   0  0  0  0  0  0  0  0  0  0  0  0
   36.3181    6.5974   29.2607 H   0  0  0  0  0  0  0  0  0  0  0  0
   27.0756   15.0073   29.0908 H   0  0  0  0  0  0  0  0  0  0  0  0
   20.5989    9.3517   33.6358 H   0  0  0  0  0  0  0  0  0  0  0  0
   26.4035    1.2349   35.2975 H   0  0  0  0  0  0  0  0  0  0  0  0
 25 26  2  0
 26 27  1  0
 27 23  1  0
 28 29  1  0
  1  2  2  0
  3  4  2  0
  7  8  2  0
 14 15  1  0
 29 30  1  0
 30 31  2  0
 31 32  1  0
 32 28  2  0
 15 16  1  0
 29 33  2  0
 17 33  1  0
 16 17  1  0
 14 34  2  0
 22 34  1  0
 17 13  2  0
 27 35  2  0
 19 35  1  0
 18 19  1  0
 24 36  2  0
 32 36  1  0
  8  9  1  0
  4  5  1  0
 37 38  2  0
  9 10  2  0
 38 39  1  0
  2  3  1  0
 39 40  2  0
 10 11  1  0
 40 41  1  0
 19 20  2  0
 41 42  2  0
 42 37  1  0
 33 37  1  0
 20 21  1  0
 21 22  2  0
 43 44  2  0
 22 18  1  0
 44 45  1  0
 23 24  1  0
 45 46  2  0
  5  6  2  0
 46 47  1  0
 11 12  2  0
 47 48  2  0
 48 43  1  0
 36 43  1  0
 12  7  1  0
 45 49  1  0
 13 14  1  0
 39 50  1  0
 35 12  1  0
 34  2  1  0
  6  1  1  0
  4 51  1  0
 24 25  1  0
  8 52  1  0
  1 53  1  0
  3 54  1  0
  5 55  1  0
  6 56  1  0
  7 57  1  0
  9 58  1  0
 10 59  1  0
 11 60  1  0
 15 61  1  0
 15 62  1  0
 16 63  1  0
 16 64  1  0
 18 65  1  0
 20 66  1  0
 21 67  1  0
 23 68  1  0
 25 69  1  0
 26 70  1  0
 30 71  1  0
 31 72  1  0
 38 73  1  0
 40 74  1  0
 41 75  1  0
 42 76  1  0
 44 77  1  0
 46 78  1  0
 47 79  1  0
 48 80  1  0
 49 81  1  0
 50 82  1  0
 51 83  1  0
 52 84  1  0
M  END
> <Uni-Dock RESULT> 
ENERGY=   -5.251  LOWER_BOUND=    2.497  UPPER_BOUND=    7.880
INTER + INTRA:          -5.251
INTER:                  -5.251
INTRA:                   0.000
UNBOUND:                 0.000

$$$$

     RDKit          3D

 84 92  0  0  0  0  0  0  0  0999 V2000
   27.1689   12.6426   28.3519 C   0  0  0  0  0  0  0  0  0  0  0  0
   27.1298   11.3379   27.8429 C   0  0  0  0  0  0  0  0  0  0  0  0
   27.0720   11.1363   26.4584 C   0  0  0  0  0  0  0  0  0  0  0  0
   27.0539   12.2338   25.6017 C   0  0  0  0  0  0  0  0  0  0  0  0
   27.0970   13.5311   26.1032 C   0  0  0  0  0  0  0  0  0  0  0  0
   27.1529   13.7369   27.4828 C   0  0  0  0  0  0  0  0  0  0  0  0
   33.1050    7.0548   30.2268 C   0  0  0  0  0  0  0  0  0  0  0  0
   34.4421    7.0611   30.6161 C   0  0  0  0  0  0  0  0  0  0  0  0
   34.7953    6.9474   31.9566 C   0  0  0  0  0  0  0  0  0  0  0  0
   33.7984    6.8218   32.9250 C   0  0  0  0  0  0  0  0  0  0  0  0
   32.4542    6.8180   32.5459 C   0  0  0  0  0  0  0  0  0  0  0  0
   32.1000    6.9433   31.1970 C   0  0  0  0  0  0  0  0  0  0  0  0
   25.8251    8.4199   29.8765 N   0  0  0  0  0  0  0  0  0  0  0  0
   25.9974    9.5418   29.1206 C   0  0  0  0  0  0  0  0  0  0  0  0
   24.6525   10.0385   28.6660 C   0  0  0  0  0  0  0  0  0  0  0  0
   23.7086    9.3593   29.6216 C   0  0  0  0  0  0  0  0  0  0  0  0
   24.5036    8.1629   30.1194 C   0  0  0  0  0  0  0  0  0  0  0  0
   28.6933    8.3376   29.7703 N   0  0  0  0  0  0  0  0  0  0  0  0
   30.0101    8.1736   30.1261 C   0  0  0  0  0  0  0  0  0  0  0  0
   30.6624    9.3667   29.8609 C   0  0  0  0  0  0  0  0  0  0  0  0
   29.7263   10.2629   29.2933 C   0  0  0  0  0  0  0  0  0  0  0  0
   28.5222    9.6019   29.2502 C   0  0  0  0  0  0  0  0  0  0  0  0
   28.5937    5.4088   31.3516 N   0  0  0  0  0  0  0  0  0  0  0  0
   28.3330    4.0661   31.4939 C   0  0  0  0  0  0  0  0  0  0  0  0
   29.4507    3.3568   31.1211 C   0  0  0  0  0  0  0  0  0  0  0  0
   30.4407    4.3101   30.7758 C   0  0  0  0  0  0  0  0  0  0  0  0
   29.8958    5.5678   30.9628 C   0  0  0  0  0  0  0  0  0  0  0  0
   25.7566    5.5378   31.2214 N   0  0  0  0  0  0  0  0  0  0  0  0
   24.4549    5.9670   31.1939 C   0  0  0  0  0  0  0  0  0  0  0  0
   23.6868    4.8949   31.8226 C   0  0  0  0  0  0  0  0  0  0  0  0
   24.5101    3.9099   32.1654 C   0  0  0  0  0  0  0  0  0  0  0  0
   25.8459    4.2878   31.7715 C   0  0  0  0  0  0  0  0  0  0  0  0
   23.8567    7.1048   30.7134 C   0  0  0  0  0  0  0  0  0  0  0  0
   27.1418   10.1726   28.7494 C   0  0  0  0  0  0  0  0  0  0  0  0
   30.6763    6.9142   30.7928 C   0  0  0  0  0  0  0  0  0  0  0  0
   26.9346    3.4949   31.9570 C   0  0  0  0  0  0  0  0  0  0  0  0
   22.3698    7.1996   30.8214 C   0  0  0  0  0  0  0  0  0  0  0  0
   21.5632    6.6453   29.8166 C   0  0  0  0  0  0  0  0  0  0  0  0
   20.1781    6.7364   29.9127 C   0  0  0  0  0  0  0  0  0  0  0  0
   19.5766    7.3714   30.9950 C   0  0  0  0  0  0  0  0  0  0  0  0
   20.3719    7.9202   32.0036 C   0  0  0  0  0  0  0  0  0  0  0  0
   21.7641    7.8340   31.9171 C   0  0  0  0  0  0  0  0  0  0  0  0
   26.8753    2.1488   32.5648 C   0  0  0  0  0  0  0  0  0  0  0  0
   27.3923    1.9225   33.8467 C   0  0  0  0  0  0  0  0  0  0  0  0
   27.3412    0.6443   34.3965 C   0  0  0  0  0  0  0  0  0  0  0  0
   26.7869   -0.4208   33.6871 C   0  0  0  0  0  0  0  0  0  0  0  0
   26.2761   -0.2012   32.4076 C   0  0  0  0  0  0  0  0  0  0  0  0
   26.3218    1.0775   31.8474 C   0  0  0  0  0  0  0  0  0  0  0  0
   27.8519    0.4603   35.6511 O   0  0  0  0  0  0  0  0  0  0  0  0
   19.3755    6.2031   28.9427 O   0  0  0  0  0  0  0  0  0  0  0  0
   26.9891   12.0641   24.2476 O   0  0  0  0  0  0  0  0  0  0  0  0
   35.4423    7.1740   29.6934 O   0  0  0  0  0  0  0  0  0  0  0  0
   27.2042   12.7891   29.4299 H   0  0  0  0  0  0  0  0  0  0  0  0
   27.0297   10.1150   26.0872 H   0  0  0  0  0  0  0  0  0  0  0  0
   27.0797   14.3761   25.4230 H   0  0  0  0  0  0  0  0  0  0  0  0
   27.1790   14.7447   27.8858 H   0  0  0  0  0  0  0  0  0  0  0  0
   32.8194    7.1279   29.1807 H   0  0  0  0  0  0  0  0  0  0  0  0
   35.8412    6.9520   32.2450 H   0  0  0  0  0  0  0  0  0  0  0  0
   34.0606    6.7228   33.9742 H   0  0  0  0  0  0  0  0  0  0  0  0
   31.6751    6.7131   33.2993 H   0  0  0  0  0  0  0  0  0  0  0  0
   24.5341   11.1250   28.7261 H   0  0  0  0  0  0  0  0  0  0  0  0
   24.4565    9.7142   27.6358 H   0  0  0  0  0  0  0  0  0  0  0  0
   22.7819    9.1077   29.0964 H   0  0  0  0  0  0  0  0  0  0  0  0
   23.4708   10.0249   30.4627 H   0  0  0  0  0  0  0  0  0  0  0  0
   27.9004    7.7076   29.9076 H   0  0  0  0  0  0  0  0  0  0  0  0
   31.6998    9.5834   30.0646 H   0  0  0  0  0  0  0  0  0  0  0  0
   29.9048   11.2796   28.9765 H   0  0  0  0  0  0  0  0  0  0  0  0
   27.8607    6.1111   31.4618 H   0  0  0  0  0  0  0  0  0  0  0  0
   29.5379    2.2807   31.0983 H   0  0  0  0  0  0  0  0  0  0  0  0
   31.4493    4.0998   30.4520 H   0  0  0  0  0  0  0  0  0  0  0  0
   22.6249    4.8935   31.9917 H   0  0  0  0  0  0  0  0  0  0  0  0
   24.2233    2.9976   32.6545 H   0  0  0  0  0  0  0  0  0  0  0  0
   22.0577    6.1553   28.9821 H   0  0  0  0  0  0  0  0  0  0  0  0
   18.4954    7.4353   31.0531 H   0  0  0  0  0  0  0  0  0  0  0  0
   19.9154    8.4104   32.8566 H   0  0  0  0  0  0  0  0  0  0  0  0
   22.4026    8.2555   32.6910 H   0  0  0  0  0  0  0  0  0  0  0  0
   27.8208    2.7495   34.4072 H   0  0  0  0  0  0  0  0  0  0  0  0
   26.7416   -1.4190   34.1102 H   0  0  0  0  0  0  0  0  0  0  0  0
   25.8341   -1.0169   31.8417 H   0  0  0  0  0  0  0  0  0  0  0  0
   25.9197    1.2597   30.8512 H   0  0  0  0  0  0  0  0  0  0  0  0
   27.6854   -0.4591   35.9072 H   0  0  0  0  0  0  0  0  0  0  0  0
   19.9776    5.7828   28.3042 H   0  0  0  0  0  0  0  0  0  0  0  0
   26.9448   11.1056   24.0949 H   0  0  0  0  0  0  0  0  0  0  0  0
   35.0179    7.2571   28.8226 H   0  0  0  0  0  0  0  0  0  0  0  0
 25 26  2  0
 26 27  1  0
 27 23  1  0
 28 29  1  0
  1  2  2  0
  3  4  2  0
  7  8  2  0
 14 15  1  0
 29 30  1  0
 30 31  2  0
 31 32  1  0
 32 28  2  0
 15 16  1  0
 29 33  2  0
 17 33  1  0
 16 17  1  0
 14 34  2  0
 22 34  1  0
 17 13  2  0
 27 35  2  0
 19 35  1  0
 18 19  1  0
 24 36  2  0
 32 36  1  0
  8  9  1  0
  4  5  1  0
 37 38  2  0
  9 10  2  0
 38 39  1  0
  2  3  1  0
 39 40  2  0
 10 11  1  0
 40 41  1  0
 19 20  2  0
 41 42  2  0
 42 37  1  0
 33 37  1  0
 20 21  1  0
 21 22  2  0
 43 44  2  0
 22 18  1  0
 44 45  1  0
 23 24  1  0
 45 46  2  0
  5  6  2  0
 46 47  1  0
 11 12  2  0
 47 48  2  0
 48 43  1  0
 36 43  1  0
 12  7  1  0
 45 49  1  0
 13 14  1  0
 39 50  1  0
 35 12  1  0
 34  2  1  0
  6  1  1  0
  4 51  1  0
 24 25  1  0
  8 52  1  0
  1 53  1  0
  3 54  1  0
  5 55  1  0
  6 56  1  0
  7 57  1  0
  9 58  1  0
 10 59  1  0
 11 60  1  0
 15 61  1  0
 15 62  1  0
 16 63  1  0
 16 64  1  0
 18 65  1  0
 20 66  1  0
 21 67  1  0
 23 68  1  0
 25 69  1  0
 26 70  1  0
 30 71  1  0
 31 72  1  0
 38 73  1  0
 40 74  1  0
 41 75  1  0
 42 76  1  0
 44 77  1  0
 46 78  1  0
 47 79  1  0
 48 80  1  0
 49 81  1  0
 50 82  1  0
 51 83  1  0
 52 84  1  0
M  END
> <Uni-Dock RESULT> 
ENERGY=   -4.745  LOWER_BOUND=    2.432  UPPER_BOUND=    9.362
INTER + INTRA:          -4.745
INTER:                  -4.745
INTRA:                   0.000
UNBOUND:                 0.000

$$$$

     RDKit          3D

 84 92  0  0  0  0  0  0  0  0999 V2000
   22.8706   11.2794   29.1307 C   0  0  0  0  0  0  0  0  0  0  0  0
   23.5729   10.8217   30.2533 C   0  0  0  0  0  0  0  0  0  0  0  0
   23.5274   11.5553   31.4451 C   0  0  0  0  0  0  0  0  0  0  0  0
   22.7850   12.7319   31.5028 C   0  0  0  0  0  0  0  0  0  0  0  0
   22.0826   13.1876   30.3914 C   0  0  0  0  0  0  0  0  0  0  0  0
   22.1266   12.4603   29.2006 C   0  0  0  0  0  0  0  0  0  0  0  0
   21.5673    3.6345   32.2665 C   0  0  0  0  0  0  0  0  0  0  0  0
   20.5445    2.6897   32.2907 C   0  0  0  0  0  0  0  0  0  0  0  0
   20.5259    1.6350   31.3843 C   0  0  0  0  0  0  0  0  0  0  0  0
   21.5465    1.5183   30.4397 C   0  0  0  0  0  0  0  0  0  0  0  0
   22.5753    2.4623   30.4041 C   0  0  0  0  0  0  0  0  0  0  0  0
   22.5867    3.5295   31.3105 C   0  0  0  0  0  0  0  0  0  0  0  0
   26.6004    8.5641   29.9534 N   0  0  0  0  0  0  0  0  0  0  0  0
   25.7058    9.5932   29.9656 C   0  0  0  0  0  0  0  0  0  0  0  0
   26.4372   10.8823   29.7094 C   0  0  0  0  0  0  0  0  0  0  0  0
   27.7301   10.4132   29.0981 C   0  0  0  0  0  0  0  0  0  0  0  0
   27.8492    8.9743   29.5741 C   0  0  0  0  0  0  0  0  0  0  0  0
   24.3200    7.0400   30.8026 N   0  0  0  0  0  0  0  0  0  0  0  0
   23.4060    6.0240   30.9436 C   0  0  0  0  0  0  0  0  0  0  0  0
   22.1572    6.5466   30.6487 C   0  0  0  0  0  0  0  0  0  0  0  0
   22.3134    7.9229   30.3607 C   0  0  0  0  0  0  0  0  0  0  0  0
   23.6559    8.1983   30.4628 C   0  0  0  0  0  0  0  0  0  0  0  0
   26.3146    4.3987   31.1681 N   0  0  0  0  0  0  0  0  0  0  0  0
   27.3149    3.6496   31.7420 C   0  0  0  0  0  0  0  0  0  0  0  0
   26.7643    2.8472   32.7138 C   0  0  0  0  0  0  0  0  0  0  0  0
   25.3688    3.0927   32.7011 C   0  0  0  0  0  0  0  0  0  0  0  0
   25.1157    4.0269   31.7127 C   0  0  0  0  0  0  0  0  0  0  0  0
   28.5078    6.0746   30.4873 N   0  0  0  0  0  0  0  0  0  0  0  0
   29.3070    7.0461   29.9423 C   0  0  0  0  0  0  0  0  0  0  0  0
   30.6343    6.4419   29.8533 C   0  0  0  0  0  0  0  0  0  0  0  0
   30.5862    5.2066   30.3405 C   0  0  0  0  0  0  0  0  0  0  0  0
   29.2341    4.9509   30.7750 C   0  0  0  0  0  0  0  0  0  0  0  0
   29.0655    8.3342   29.5349 C   0  0  0  0  0  0  0  0  0  0  0  0
   24.3665    9.5782   30.1927 C   0  0  0  0  0  0  0  0  0  0  0  0
   23.6902    4.5160   31.2890 C   0  0  0  0  0  0  0  0  0  0  0  0
   28.8385    3.7820   31.3453 C   0  0  0  0  0  0  0  0  0  0  0  0
   30.2258    9.1240   29.0237 C   0  0  0  0  0  0  0  0  0  0  0  0
   31.0427    9.8221   29.9253 C   0  0  0  0  0  0  0  0  0  0  0  0
   32.1213   10.5623   29.4511 C   0  0  0  0  0  0  0  0  0  0  0  0
   32.4047   10.6214   28.0900 C   0  0  0  0  0  0  0  0  0  0  0  0
   31.6007    9.9238   27.1857 C   0  0  0  0  0  0  0  0  0  0  0  0
   30.5150    9.1771   27.6513 C   0  0  0  0  0  0  0  0  0  0  0  0
   29.7483    2.6459   31.6039 C   0  0  0  0  0  0  0  0  0  0  0  0
   29.6535    1.4708   30.8477 C   0  0  0  0  0  0  0  0  0  0  0  0
   30.5090    0.4056   31.1162 C   0  0  0  0  0  0  0  0  0  0  0  0
   31.4593    0.4868   32.1337 C   0  0  0  0  0  0  0  0  0  0  0  0
   31.5534    1.6533   32.8933 C   0  0  0  0  0  0  0  0  0  0  0  0
   30.7003    2.7279   32.6314 C   0  0  0  0  0  0  0  0  0  0  0  0
   30.3909   -0.7246   30.3564 O   0  0  0  0  0  0  0  0  0  0  0  0
   32.9280   11.2501   30.3145 O   0  0  0  0  0  0  0  0  0  0  0  0
   22.7313   13.4704   32.6511 O   0  0  0  0  0  0  0  0  0  0  0  0
   19.5352    2.7698   33.2071 O   0  0  0  0  0  0  0  0  0  0  0  0
   22.9199   10.7071   28.2062 H   0  0  0  0  0  0  0  0  0  0  0  0
   24.0906   11.1871   32.2994 H   0  0  0  0  0  0  0  0  0  0  0  0
   21.5106   14.1075   30.4513 H   0  0  0  0  0  0  0  0  0  0  0  0
   21.5889   12.8102   28.3247 H   0  0  0  0  0  0  0  0  0  0  0  0
   21.5988    4.4536   32.9801 H   0  0  0  0  0  0  0  0  0  0  0  0
   19.7236    0.9053   31.4161 H   0  0  0  0  0  0  0  0  0  0  0  0
   21.5492    0.6944   29.7322 H   0  0  0  0  0  0  0  0  0  0  0  0
   23.3762    2.3692   29.6725 H   0  0  0  0  0  0  0  0  0  0  0  0
   25.9194   11.5607   29.0240 H   0  0  0  0  0  0  0  0  0  0  0  0
   26.6263   11.4059   30.6554 H   0  0  0  0  0  0  0  0  0  0  0  0
   28.5423   11.0718   29.4214 H   0  0  0  0  0  0  0  0  0  0  0  0
   27.6667   10.4391   28.0016 H   0  0  0  0  0  0  0  0  0  0  0  0
   25.3404    7.0061   30.8480 H   0  0  0  0  0  0  0  0  0  0  0  0
   21.2275    5.9989   30.6267 H   0  0  0  0  0  0  0  0  0  0  0  0
   21.5398    8.6246   30.0865 H   0  0  0  0  0  0  0  0  0  0  0  0
   26.5196    5.1468   30.5042 H   0  0  0  0  0  0  0  0  0  0  0  0
   27.3069    2.1695   33.3560 H   0  0  0  0  0  0  0  0  0  0  0  0
   24.6277    2.6185   33.3275 H   0  0  0  0  0  0  0  0  0  0  0  0
   31.5163    6.9099   29.4543 H   0  0  0  0  0  0  0  0  0  0  0  0
   31.4131    4.5231   30.3929 H   0  0  0  0  0  0  0  0  0  0  0  0
   30.7996    9.7598   30.9828 H   0  0  0  0  0  0  0  0  0  0  0  0
   33.2482   11.2049   27.7372 H   0  0  0  0  0  0  0  0  0  0  0  0
   31.8159    9.9549   26.1231 H   0  0  0  0  0  0  0  0  0  0  0  0
   29.8751    8.6268   26.9643 H   0  0  0  0  0  0  0  0  0  0  0  0
   28.9185    1.4030   30.0496 H   0  0  0  0  0  0  0  0  0  0  0  0
   32.1309   -0.3383   32.3470 H   0  0  0  0  0  0  0  0  0  0  0  0
   32.2919    1.7383   33.6860 H   0  0  0  0  0  0  0  0  0  0  0  0
   30.7706    3.6450   33.2153 H   0  0  0  0  0  0  0  0  0  0  0  0
   31.0900   -1.3383   30.6271 H   0  0  0  0  0  0  0  0  0  0  0  0
   32.5876   11.0552   31.2050 H   0  0  0  0  0  0  0  0  0  0  0  0
   23.2930   13.0109   33.2971 H   0  0  0  0  0  0  0  0  0  0  0  0
   19.6991    3.5651   33.7419 H   0  0  0  0  0  0  0  0  0  0  0  0
 25 26  2  0
 26 27  1  0
 27 23  1  0
 28 29  1  0
  1  2  2  0
  3  4  2  0
  7  8  2  0
 14 15  1  0
 29 30  1  0
 30 31  2  0
 31 32  1  0
 32 28  2  0
 15 16  1  0
 29 33  2  0
 17 33  1  0
 16 17  1  0
 14 34  2  0
 22 34  1  0
 17 13  2  0
 27 35  2  0
 19 35  1  0
 18 19  1  0
 24 36  2  0
 32 36  1  0
  8  9  1  0
  4  5  1  0
 37 38  2  0
  9 10  2  0
 38 39  1  0
  2  3  1  0
 39 40  2  0
 10 11  1  0
 40 41  1  0
 19 20  2  0
 41 42  2  0
 42 37  1  0
 33 37  1  0
 20 21  1  0
 21 22  2  0
 43 44  2  0
 22 18  1  0
 44 45  1  0
 23 24  1  0
 45 46  2  0
  5  6  2  0
 46 47  1  0
 11 12  2  0
 47 48  2  0
 48 43  1  0
 36 43  1  0
 12  7  1  0
 45 49  1  0
 13 14  1  0
 39 50  1  0
 35 12  1  0
 34  2  1  0
  6  1  1  0
  4 51  1  0
 24 25  1  0
  8 52  1  0
  1 53  1  0
  3 54  1  0
  5 55  1  0
  6 56  1  0
  7 57  1  0
  9 58  1  0
 10 59  1  0
 11 60  1  0
 15 61  1  0
 15 62  1  0
 16 63  1  0
 16 64  1  0
 18 65  1  0
 20 66  1  0
 21 67  1  0
 23 68  1  0
 25 69  1  0
 26 70  1  0
 30 71  1  0
 31 72  1  0
 38 73  1  0
 40 74  1  0
 41 75  1  0
 42 76  1  0
 44 77  1  0
 46 78  1  0
 47 79  1  0
 48 80  1  0
 49 81  1  0
 50 82  1  0
 51 83  1  0
 52 84  1  0
M  END
> <Uni-Dock RESULT> 
ENERGY=   -4.481  LOWER_BOUND=    1.551  UPPER_BOUND=    8.061
INTER + INTRA:          -4.481
INTER:                  -4.481
INTRA:                   0.000
UNBOUND:                 0.000

$$$$

     RDKit          3D

 84 92  0  0  0  0  0  0  0  0999 V2000
   27.0011   16.1082   28.7530 C   0  0  0  0  0  0  0  0  0  0  0  0
   27.6669   15.3350   29.7130 C   0  0  0  0  0  0  0  0  0  0  0  0
   28.1462   15.9423   30.8802 C   0  0  0  0  0  0  0  0  0  0  0  0
   27.9565   17.3079   31.0750 C   0  0  0  0  0  0  0  0  0  0  0  0
   27.2919   18.0785   30.1260 C   0  0  0  0  0  0  0  0  0  0  0  0
   26.8139   17.4776   28.9600 C   0  0  0  0  0  0  0  0  0  0  0  0
   23.4093    9.3748   32.1787 C   0  0  0  0  0  0  0  0  0  0  0  0
   22.1216    8.9041   32.4232 C   0  0  0  0  0  0  0  0  0  0  0  0
   21.5126    8.0068   31.5522 C   0  0  0  0  0  0  0  0  0  0  0  0
   22.2007    7.5688   30.4199 C   0  0  0  0  0  0  0  0  0  0  0  0
   23.4912    8.0372   30.1631 C   0  0  0  0  0  0  0  0  0  0  0  0
   24.0987    8.9487   31.0354 C   0  0  0  0  0  0  0  0  0  0  0  0
   29.4336   12.1035   28.8254 N   0  0  0  0  0  0  0  0  0  0  0  0
   29.0401   13.3962   29.0087 C   0  0  0  0  0  0  0  0  0  0  0  0
   30.1576   14.3130   28.5929 C   0  0  0  0  0  0  0  0  0  0  0  0
   31.0150   13.4216   27.7350 C   0  0  0  0  0  0  0  0  0  0  0  0
   30.6440   12.0203   28.1934 C   0  0  0  0  0  0  0  0  0  0  0  0
   26.9466   11.5326   30.1418 N   0  0  0  0  0  0  0  0  0  0  0  0
   25.7509   10.9459   30.4791 C   0  0  0  0  0  0  0  0  0  0  0  0
   24.7797   11.9332   30.4404 C   0  0  0  0  0  0  0  0  0  0  0  0
   25.4092   13.1565   30.1103 C   0  0  0  0  0  0  0  0  0  0  0  0
   26.7433   12.8790   29.9318 C   0  0  0  0  0  0  0  0  0  0  0  0
   27.7623    8.3042   30.1216 N   0  0  0  0  0  0  0  0  0  0  0  0
   28.4746    7.1861   30.4870 C   0  0  0  0  0  0  0  0  0  0  0  0
   27.8500    6.5952   31.5604 C   0  0  0  0  0  0  0  0  0  0  0  0
   26.6917    7.3653   31.8311 C   0  0  0  0  0  0  0  0  0  0  0  0
   26.6438    8.3916   30.9048 C   0  0  0  0  0  0  0  0  0  0  0  0
   30.2637    9.0366   28.9861 N   0  0  0  0  0  0  0  0  0  0  0  0
   31.2607    9.6557   28.2775 C   0  0  0  0  0  0  0  0  0  0  0  0
   32.1961    8.5900   27.9254 C   0  0  0  0  0  0  0  0  0  0  0  0
   31.7579    7.4401   28.4265 C   0  0  0  0  0  0  0  0  0  0  0  0
   30.5264    7.7015   29.1319 C   0  0  0  0  0  0  0  0  0  0  0  0
   31.4752   10.9613   27.9132 C   0  0  0  0  0  0  0  0  0  0  0  0
   27.8754   13.8883   29.5056 C   0  0  0  0  0  0  0  0  0  0  0  0
   25.4758    9.4260   30.7766 C   0  0  0  0  0  0  0  0  0  0  0  0
   29.8185    6.7419   29.7849 C   0  0  0  0  0  0  0  0  0  0  0  0
   32.7311   11.2706   27.1657 C   0  0  0  0  0  0  0  0  0  0  0  0
   33.9147   11.5296   27.8725 C   0  0  0  0  0  0  0  0  0  0  0  0
   35.0846   11.8225   27.1786 C   0  0  0  0  0  0  0  0  0  0  0  0
   35.1001   11.8624   25.7877 C   0  0  0  0  0  0  0  0  0  0  0  0
   33.9277   11.5990   25.0757 C   0  0  0  0  0  0  0  0  0  0  0  0
   32.7472   11.3035   25.7627 C   0  0  0  0  0  0  0  0  0  0  0  0
   30.2355    5.3260   29.8648 C   0  0  0  0  0  0  0  0  0  0  0  0
   29.5394    4.3373   29.1580 C   0  0  0  0  0  0  0  0  0  0  0  0
   29.9377    3.0069   29.2578 C   0  0  0  0  0  0  0  0  0  0  0  0
   31.0193    2.6393   30.0579 C   0  0  0  0  0  0  0  0  0  0  0  0
   31.7119    3.6201   30.7683 C   0  0  0  0  0  0  0  0  0  0  0  0
   31.3208    4.9577   30.6743 C   0  0  0  0  0  0  0  0  0  0  0  0
   29.2378    2.0687   28.5517 O   0  0  0  0  0  0  0  0  0  0  0  0
   36.2477   12.0787   27.8502 O   0  0  0  0  0  0  0  0  0  0  0  0
   28.4220   17.9258   32.2012 O   0  0  0  0  0  0  0  0  0  0  0  0
   21.4238    9.3062   33.5260 O   0  0  0  0  0  0  0  0  0  0  0  0
   26.6405   15.6289   27.8448 H   0  0  0  0  0  0  0  0  0  0  0  0
   28.6708   15.3243   31.6051 H   0  0  0  0  0  0  0  0  0  0  0  0
   27.1540   19.1418   30.2911 H   0  0  0  0  0  0  0  0  0  0  0  0
   26.3008   18.0703   28.2090 H   0  0  0  0  0  0  0  0  0  0  0  0
   23.8994   10.0643   32.8611 H   0  0  0  0  0  0  0  0  0  0  0  0
   20.5096    7.6472   31.7564 H   0  0  0  0  0  0  0  0  0  0  0  0
   21.7406    6.8611   29.7366 H   0  0  0  0  0  0  0  0  0  0  0  0
   24.0324    7.6912   29.2841 H   0  0  0  0  0  0  0  0  0  0  0  0
   29.8291   15.1862   28.0202 H   0  0  0  0  0  0  0  0  0  0  0  0
   30.7171   14.6533   29.4738 H   0  0  0  0  0  0  0  0  0  0  0  0
   32.0672   13.6871   27.8772 H   0  0  0  0  0  0  0  0  0  0  0  0
   30.7569   13.5475   26.6746 H   0  0  0  0  0  0  0  0  0  0  0  0
   27.8581   11.1007   29.9775 H   0  0  0  0  0  0  0  0  0  0  0  0
   23.7240   11.7941   30.6159 H   0  0  0  0  0  0  0  0  0  0  0  0
   24.9396   14.1216   29.9923 H   0  0  0  0  0  0  0  0  0  0  0  0
   28.1146    8.9582   29.4210 H   0  0  0  0  0  0  0  0  0  0  0  0
   28.1927    5.7161   32.0856 H   0  0  0  0  0  0  0  0  0  0  0  0
   25.9594    7.1744   32.6017 H   0  0  0  0  0  0  0  0  0  0  0  0
   33.0963    8.7042   27.3486 H   0  0  0  0  0  0  0  0  0  0  0  0
   32.2399    6.4865   28.3164 H   0  0  0  0  0  0  0  0  0  0  0  0
   33.8756   11.4925   28.9580 H   0  0  0  0  0  0  0  0  0  0  0  0
   36.0204   12.0945   25.2627 H   0  0  0  0  0  0  0  0  0  0  0  0
   33.9283   11.6188   23.9913 H   0  0  0  0  0  0  0  0  0  0  0  0
   31.8223   11.0961   25.2280 H   0  0  0  0  0  0  0  0  0  0  0  0
   28.6988    4.6178   28.5283 H   0  0  0  0  0  0  0  0  0  0  0  0
   31.3367    1.6048   30.1386 H   0  0  0  0  0  0  0  0  0  0  0  0
   32.5614    3.3544   31.3918 H   0  0  0  0  0  0  0  0  0  0  0  0
   31.8596    5.7313   31.2206 H   0  0  0  0  0  0  0  0  0  0  0  0
   29.6747    1.2137   28.6805 H   0  0  0  0  0  0  0  0  0  0  0  0
   36.0367   11.9696   28.7938 H   0  0  0  0  0  0  0  0  0  0  0  0
   28.8690   17.2394   32.7237 H   0  0  0  0  0  0  0  0  0  0  0  0
   21.9889    9.9348   34.0065 H   0  0  0  0  0  0  0  0  0  0  0  0
 25 26  2  0
 26 27  1  0
 27 23  1  0
 28 29  1  0
  1  2  2  0
  3  4  2  0
  7  8  2  0
 14 15  1  0
 29 30  1  0
 30 31  2  0
 31 32  1  0
 32 28  2  0
 15 16  1  0
 29 33  2  0
 17 33  1  0
 16 17  1  0
 14 34  2  0
 22 34  1  0
 17 13  2  0
 27 35  2  0
 19 35  1  0
 18 19  1  0
 24 36  2  0
 32 36  1  0
  8  9  1  0
  4  5  1  0
 37 38  2  0
  9 10  2  0
 38 39  1  0
  2  3  1  0
 39 40  2  0
 10 11  1  0
 40 41  1  0
 19 20  2  0
 41 42  2  0
 42 37  1  0
 33 37  1  0
 20 21  1  0
 21 22  2  0
 43 44  2  0
 22 18  1  0
 44 45  1  0
 23 24  1  0
 45 46  2  0
  5  6  2  0
 46 47  1  0
 11 12  2  0
 47 48  2  0
 48 43  1  0
 36 43  1  0
 12  7  1  0
 45 49  1  0
 13 14  1  0
 39 50  1  0
 35 12  1  0
 34  2  1  0
  6  1  1  0
  4 51  1  0
 24 25  1  0
  8 52  1  0
  1 53  1  0
  3 54  1  0
  5 55  1  0
  6 56  1  0
  7 57  1  0
  9 58  1  0
 10 59  1  0
 11 60  1  0
 15 61  1  0
 15 62  1  0
 16 63  1  0
 16 64  1  0
 18 65  1  0
 20 66  1  0
 21 67  1  0
 23 68  1  0
 25 69  1  0
 26 70  1  0
 30 71  1  0
 31 72  1  0
 38 73  1  0
 40 74  1  0
 41 75  1  0
 42 76  1  0
 44 77  1  0
 46 78  1  0
 47 79  1  0
 48 80  1  0
 49 81  1  0
 50 82  1  0
 51 83  1  0
 52 84  1  0
M  END
> <Uni-Dock RESULT> 
ENERGY=   -4.444  LOWER_BOUND=    2.899  UPPER_BOUND=    8.988
INTER + INTRA:          -4.444
INTER:                  -4.444
INTRA:                   0.000
UNBOUND:                 0.000

$$$$

     RDKit          3D

 84 92  0  0  0  0  0  0  0  0999 V2000
   34.4472   11.3281   28.4826 C   0  0  0  0  0  0  0  0  0  0  0  0
   33.6187   10.3517   27.9143 C   0  0  0  0  0  0  0  0  0  0  0  0
   33.5879   10.1940   26.5233 C   0  0  0  0  0  0  0  0  0  0  0  0
   34.3806   11.0088   25.7190 C   0  0  0  0  0  0  0  0  0  0  0  0
   35.2080   11.9768   26.2799 C   0  0  0  0  0  0  0  0  0  0  0  0
   35.2405   12.1387   27.6662 C   0  0  0  0  0  0  0  0  0  0  0  0
   35.0535    3.2807   30.6843 C   0  0  0  0  0  0  0  0  0  0  0  0
   36.0198    2.4231   31.2042 C   0  0  0  0  0  0  0  0  0  0  0  0
   36.0707    2.1479   32.5666 C   0  0  0  0  0  0  0  0  0  0  0  0
   35.1402    2.7351   33.4248 C   0  0  0  0  0  0  0  0  0  0  0  0
   34.1690    3.5996   32.9146 C   0  0  0  0  0  0  0  0  0  0  0  0
   34.1258    3.8839   31.5442 C   0  0  0  0  0  0  0  0  0  0  0  0
   30.5222    9.0628   29.6757 N   0  0  0  0  0  0  0  0  0  0  0  0
   31.4630    9.7746   28.9916 C   0  0  0  0  0  0  0  0  0  0  0  0
   30.8262   11.0154   28.4286 C   0  0  0  0  0  0  0  0  0  0  0  0
   29.5750   11.1492   29.2546 C   0  0  0  0  0  0  0  0  0  0  0  0
   29.3378    9.7404   29.7746 C   0  0  0  0  0  0  0  0  0  0  0  0
   32.6305    7.1215   29.8507 N   0  0  0  0  0  0  0  0  0  0  0  0
   33.4738    6.1473   30.3275 C   0  0  0  0  0  0  0  0  0  0  0  0
   34.7700    6.6143   30.1821 C   0  0  0  0  0  0  0  0  0  0  0  0
   34.7125    7.8862   29.5652 C   0  0  0  0  0  0  0  0  0  0  0  0
   33.3822    8.1727   29.3734 C   0  0  0  0  0  0  0  0  0  0  0  0
   30.4778    5.0221   31.2815 N   0  0  0  0  0  0  0  0  0  0  0  0
   29.3904    4.1822   31.3369 C   0  0  0  0  0  0  0  0  0  0  0  0
   29.8041    2.9034   31.0453 C   0  0  0  0  0  0  0  0  0  0  0  0
   31.2053    2.9658   30.8429 C   0  0  0  0  0  0  0  0  0  0  0  0
   31.5987    4.2786   31.0312 C   0  0  0  0  0  0  0  0  0  0  0  0
   28.4479    6.9710   30.8766 N   0  0  0  0  0  0  0  0  0  0  0  0
   27.7549    8.1460   30.7395 C   0  0  0  0  0  0  0  0  0  0  0  0
   26.4131    7.8575   31.2403 C   0  0  0  0  0  0  0  0  0  0  0  0
   26.3513    6.5852   31.6185 C   0  0  0  0  0  0  0  0  0  0  0  0
   27.6410    5.9849   31.3763 C   0  0  0  0  0  0  0  0  0  0  0  0
   28.0996    9.3823   30.2535 C   0  0  0  0  0  0  0  0  0  0  0  0
   32.7720    9.4913   28.7643 C   0  0  0  0  0  0  0  0  0  0  0  0
   33.0812    4.7805   30.9999 C   0  0  0  0  0  0  0  0  0  0  0  0
   27.9203    4.6795   31.6330 C   0  0  0  0  0  0  0  0  0  0  0  0
   27.0352   10.4297   30.2178 C   0  0  0  0  0  0  0  0  0  0  0  0
   26.1729   10.5070   29.1142 C   0  0  0  0  0  0  0  0  0  0  0  0
   25.1836   11.4847   29.0764 C   0  0  0  0  0  0  0  0  0  0  0  0
   25.0345   12.3917   30.1212 C   0  0  0  0  0  0  0  0  0  0  0  0
   25.8843   12.3178   31.2272 C   0  0  0  0  0  0  0  0  0  0  0  0
   26.8811   11.3395   31.2754 C   0  0  0  0  0  0  0  0  0  0  0  0
   26.9331    3.7196   32.1710 C   0  0  0  0  0  0  0  0  0  0  0  0
   27.0393    3.2504   33.4865 C   0  0  0  0  0  0  0  0  0  0  0  0
   26.1089    2.3348   33.9706 C   0  0  0  0  0  0  0  0  0  0  0  0
   25.0713    1.8702   33.1628 C   0  0  0  0  0  0  0  0  0  0  0  0
   24.9651    2.3305   31.8500 C   0  0  0  0  0  0  0  0  0  0  0  0
   25.8930    3.2496   31.3549 C   0  0  0  0  0  0  0  0  0  0  0  0
   26.2409    1.9008   35.2602 O   0  0  0  0  0  0  0  0  0  0  0  0
   24.3345   11.5763   28.0087 O   0  0  0  0  0  0  0  0  0  0  0  0
   34.3623   10.8807   24.3589 O   0  0  0  0  0  0  0  0  0  0  0  0
   36.9399    1.8256   30.3911 O   0  0  0  0  0  0  0  0  0  0  0  0
   34.4570   11.4494   29.5642 H   0  0  0  0  0  0  0  0  0  0  0  0
   32.9278    9.4382   26.1043 H   0  0  0  0  0  0  0  0  0  0  0  0
   35.8179   12.6055   25.6399 H   0  0  0  0  0  0  0  0  0  0  0  0
   35.8764   12.8959   28.1145 H   0  0  0  0  0  0  0  0  0  0  0  0
   34.9961    3.4902   29.6194 H   0  0  0  0  0  0  0  0  0  0  0  0
   36.8280    1.4763   32.9572 H   0  0  0  0  0  0  0  0  0  0  0  0
   35.1627    2.5215   34.4893 H   0  0  0  0  0  0  0  0  0  0  0  0
   33.4377    4.0532   33.5815 H   0  0  0  0  0  0  0  0  0  0  0  0
   31.4409   11.9160   28.5254 H   0  0  0  0  0  0  0  0  0  0  0  0
   30.5748   10.8664   27.3706 H   0  0  0  0  0  0  0  0  0  0  0  0
   28.7705   11.5487   28.6294 H   0  0  0  0  0  0  0  0  0  0  0  0
   29.7438   11.8339   30.0970 H   0  0  0  0  0  0  0  0  0  0  0  0
   31.6100    7.1680   29.8804 H   0  0  0  0  0  0  0  0  0  0  0  0
   35.6683    6.1059   30.4971 H   0  0  0  0  0  0  0  0  0  0  0  0
   35.5435    8.5281   29.3136 H   0  0  0  0  0  0  0  0  0  0  0  0
   30.3754    6.0357   31.3498 H   0  0  0  0  0  0  0  0  0  0  0  0
   29.1689    2.0323   30.9831 H   0  0  0  0  0  0  0  0  0  0  0  0
   31.8581    2.1371   30.6116 H   0  0  0  0  0  0  0  0  0  0  0  0
   25.5981    8.5562   31.3030 H   0  0  0  0  0  0  0  0  0  0  0  0
   25.4893    6.0985   32.0353 H   0  0  0  0  0  0  0  0  0  0  0  0
   26.3107    9.7872   28.3116 H   0  0  0  0  0  0  0  0  0  0  0  0
   24.2594   13.1490   30.0746 H   0  0  0  0  0  0  0  0  0  0  0  0
   25.7732   13.0135   32.0518 H   0  0  0  0  0  0  0  0  0  0  0  0
   27.5546   11.2645   32.1269 H   0  0  0  0  0  0  0  0  0  0  0  0
   27.8426    3.6127   34.1232 H   0  0  0  0  0  0  0  0  0  0  0  0
   24.3412    1.1586   33.5341 H   0  0  0  0  0  0  0  0  0  0  0  0
   24.1597    1.9853   31.2071 H   0  0  0  0  0  0  0  0  0  0  0  0
   25.8143    3.6193   30.3331 H   0  0  0  0  0  0  0  0  0  0  0  0
   25.4887    1.3227   35.4570 H   0  0  0  0  0  0  0  0  0  0  0  0
   24.5781   10.8449   27.4148 H   0  0  0  0  0  0  0  0  0  0  0  0
   33.7189   10.1805   24.1597 H   0  0  0  0  0  0  0  0  0  0  0  0
   36.7667    2.1388   29.4871 H   0  0  0  0  0  0  0  0  0  0  0  0
 25 26  2  0
 26 27  1  0
 27 23  1  0
 28 29  1  0
  1  2  2  0
  3  4  2  0
  7  8  2  0
 14 15  1  0
 29 30  1  0
 30 31  2  0
 31 32  1  0
 32 28  2  0
 15 16  1  0
 29 33  2  0
 17 33  1  0
 16 17  1  0
 14 34  2  0
 22 34  1  0
 17 13  2  0
 27 35  2  0
 19 35  1  0
 18 19  1  0
 24 36  2  0
 32 36  1  0
  8  9  1  0
  4  5  1  0
 37 38  2  0
  9 10  2  0
 38 39  1  0
  2  3  1  0
 39 40  2  0
 10 11  1  0
 40 41  1  0
 19 20  2  0
 41 42  2  0
 42 37  1  0
 33 37  1  0
 20 21  1  0
 21 22  2  0
 43 44  2  0
 22 18  1  0
 44 45  1  0
 23 24  1  0
 45 46  2  0
  5  6  2  0
 46 47  1  0
 11 12  2  0
 47 48  2  0
 48 43  1  0
 36 43  1  0
 12  7  1  0
 45 49  1  0
 13 14  1  0
 39 50  1  0
 35 12  1  0
 34  2  1  0
  6  1  1  0
  4 51  1  0
 24 25  1  0
  8 52  1  0
  1 53  1  0
  3 54  1  0
  5 55  1  0
  6 56  1  0
  7 57  1  0
  9 58  1  0
 10 59  1  0
 11 60  1  0
 15 61  1  0
 15 62  1  0
 16 63  1  0
 16 64  1  0
 18 65  1  0
 20 66  1  0
 21 67  1  0
 23 68  1  0
 25 69  1  0
 26 70  1  0
 30 71  1  0
 31 72  1  0
 38 73  1  0
 40 74  1  0
 41 75  1  0
 42 76  1  0
 44 77  1  0
 46 78  1  0
 47 79  1  0
 48 80  1  0
 49 81  1  0
 50 82  1  0
 51 83  1  0
 52 84  1  0
M  END
> <Uni-Dock RESULT> 
ENERGY=   -4.378  LOWER_BOUND=    2.935  UPPER_BOUND=   11.290
INTER + INTRA:          -4.378
INTER:                  -4.378
INTRA:                   0.000
UNBOUND:                 0.000

$$$$

     RDKit          3D

 84 92  0  0  0  0  0  0  0  0999 V2000
   26.5201   12.5772   29.1964 C   0  0  0  0  0  0  0  0  0  0  0  0
   26.7586   11.3264   28.6120 C   0  0  0  0  0  0  0  0  0  0  0  0
   26.8671   11.2220   27.2199 C   0  0  0  0  0  0  0  0  0  0  0  0
   26.7371   12.3617   26.4305 C   0  0  0  0  0  0  0  0  0  0  0  0
   26.5045   13.6064   27.0073 C   0  0  0  0  0  0  0  0  0  0  0  0
   26.3938   13.7149   28.3948 C   0  0  0  0  0  0  0  0  0  0  0  0
   33.1426    7.9479   31.3618 C   0  0  0  0  0  0  0  0  0  0  0  0
   34.4153    8.1508   31.8895 C   0  0  0  0  0  0  0  0  0  0  0  0
   34.6557    7.9985   33.2509 C   0  0  0  0  0  0  0  0  0  0  0  0
   33.6100    7.6343   34.1002 C   0  0  0  0  0  0  0  0  0  0  0  0
   32.3288    7.4318   33.5821 C   0  0  0  0  0  0  0  0  0  0  0  0
   32.0862    7.5960   32.2128 C   0  0  0  0  0  0  0  0  0  0  0  0
   25.8015    8.0862   30.3259 N   0  0  0  0  0  0  0  0  0  0  0  0
   25.8443    9.2744   29.6580 C   0  0  0  0  0  0  0  0  0  0  0  0
   24.4817    9.5694   29.0936 C   0  0  0  0  0  0  0  0  0  0  0  0
   23.5863    8.6710   29.9040 C   0  0  0  0  0  0  0  0  0  0  0  0
   24.5288    7.5922   30.4131 C   0  0  0  0  0  0  0  0  0  0  0  0
   28.6367    8.4977   30.5177 N   0  0  0  0  0  0  0  0  0  0  0  0
   29.9226    8.5323   31.0002 C   0  0  0  0  0  0  0  0  0  0  0  0
   30.3773    9.8349   30.8742 C   0  0  0  0  0  0  0  0  0  0  0  0
   29.3558   10.6000   30.2636 C   0  0  0  0  0  0  0  0  0  0  0  0
   28.2959    9.7502   30.0560 C   0  0  0  0  0  0  0  0  0  0  0  0
   28.9049    5.4842   31.9090 N   0  0  0  0  0  0  0  0  0  0  0  0
   28.8719    4.1100   31.9457 C   0  0  0  0  0  0  0  0  0  0  0  0
   30.1267    3.6295   31.6524 C   0  0  0  0  0  0  0  0  0  0  0  0
   30.9619    4.7595   31.4686 C   0  0  0  0  0  0  0  0  0  0  0  0
   30.1896    5.8895   31.6692 C   0  0  0  0  0  0  0  0  0  0  0  0
   26.1142    5.1415   31.4884 N   0  0  0  0  0  0  0  0  0  0  0  0
   24.7658    5.3456   31.3486 C   0  0  0  0  0  0  0  0  0  0  0  0
   24.1423    4.1152   31.8304 C   0  0  0  0  0  0  0  0  0  0  0  0
   25.0899    3.2605   32.2007 C   0  0  0  0  0  0  0  0  0  0  0  0
   26.3696    3.8870   31.9721 C   0  0  0  0  0  0  0  0  0  0  0  0
   24.0248    6.3987   30.8739 C   0  0  0  0  0  0  0  0  0  0  0  0
   26.8899   10.1154   29.4462 C   0  0  0  0  0  0  0  0  0  0  0  0
   30.7340    7.3573   31.6599 C   0  0  0  0  0  0  0  0  0  0  0  0
   27.5583    3.2778   32.2253 C   0  0  0  0  0  0  0  0  0  0  0  0
   22.5409    6.2327   30.8301 C   0  0  0  0  0  0  0  0  0  0  0  0
   21.9420    5.6268   29.7158 C   0  0  0  0  0  0  0  0  0  0  0  0
   20.5596    5.4752   29.6705 C   0  0  0  0  0  0  0  0  0  0  0  0
   19.7572    5.9168   30.7182 C   0  0  0  0  0  0  0  0  0  0  0  0
   20.3457    6.5150   31.8347 C   0  0  0  0  0  0  0  0  0  0  0  0
   21.7332    6.6719   31.8905 C   0  0  0  0  0  0  0  0  0  0  0  0
   27.6795    1.8993   32.7452 C   0  0  0  0  0  0  0  0  0  0  0  0
   28.1056    1.6684   34.0593 C   0  0  0  0  0  0  0  0  0  0  0  0
   28.2284    0.3625   34.5263 C   0  0  0  0  0  0  0  0  0  0  0  0
   27.9387   -0.7249   33.7025 C   0  0  0  0  0  0  0  0  0  0  0  0
   27.5196   -0.4997   32.3910 C   0  0  0  0  0  0  0  0  0  0  0  0
   27.3924    0.8066   31.9131 C   0  0  0  0  0  0  0  0  0  0  0  0
   28.6436    0.1741   35.8151 O   0  0  0  0  0  0  0  0  0  0  0  0
   19.9577    4.8880   28.5924 O   0  0  0  0  0  0  0  0  0  0  0  0
   26.8304   12.2852   25.0695 O   0  0  0  0  0  0  0  0  0  0  0  0
   35.4622    8.4998   31.0852 O   0  0  0  0  0  0  0  0  0  0  0  0
   26.4279   12.6466   30.2787 H   0  0  0  0  0  0  0  0  0  0  0  0
   27.0398   10.2389   26.7882 H   0  0  0  0  0  0  0  0  0  0  0  0
   26.4031   14.4848   26.3788 H   0  0  0  0  0  0  0  0  0  0  0  0
   26.2047   14.6796   28.8555 H   0  0  0  0  0  0  0  0  0  0  0  0
   32.9479    8.0498   30.2974 H   0  0  0  0  0  0  0  0  0  0  0  0
   35.6528    8.1581   33.6477 H   0  0  0  0  0  0  0  0  0  0  0  0
   33.7859    7.5028   35.1638 H   0  0  0  0  0  0  0  0  0  0  0  0
   31.5131    7.1408   34.2419 H   0  0  0  0  0  0  0  0  0  0  0  0
   24.1693   10.6127   29.2033 H   0  0  0  0  0  0  0  0  0  0  0  0
   24.4432    9.2946   28.0316 H   0  0  0  0  0  0  0  0  0  0  0  0
   22.7716    8.3065   29.2705 H   0  0  0  0  0  0  0  0  0  0  0  0
   23.1576    9.2221   30.7522 H   0  0  0  0  0  0  0  0  0  0  0  0
   27.9574    7.7343   30.5344 H   0  0  0  0  0  0  0  0  0  0  0  0
   31.3368   10.2078   31.1981 H   0  0  0  0  0  0  0  0  0  0  0  0
   29.3819   11.6530   30.0262 H   0  0  0  0  0  0  0  0  0  0  0  0
   28.0531    6.0424   31.9815 H   0  0  0  0  0  0  0  0  0  0  0  0
   30.4032    2.5883   31.5772 H   0  0  0  0  0  0  0  0  0  0  0  0
   32.0177    4.7473   31.2413 H   0  0  0  0  0  0  0  0  0  0  0  0
   23.0861    3.9218   31.8863 H   0  0  0  0  0  0  0  0  0  0  0  0
   24.9231    2.2789   32.6037 H   0  0  0  0  0  0  0  0  0  0  0  0
   22.5909    5.2911   28.9111 H   0  0  0  0  0  0  0  0  0  0  0  0
   18.6810    5.7926   30.6656 H   0  0  0  0  0  0  0  0  0  0  0  0
   19.7322    6.8559   32.6617 H   0  0  0  0  0  0  0  0  0  0  0  0
   22.2124    7.1361   32.7503 H   0  0  0  0  0  0  0  0  0  0  0  0
   28.3278    2.5117   34.7084 H   0  0  0  0  0  0  0  0  0  0  0  0
   28.0299   -1.7452   34.0604 H   0  0  0  0  0  0  0  0  0  0  0  0
   27.2827   -1.3337   31.7358 H   0  0  0  0  0  0  0  0  0  0  0  0
   27.0598    0.9923   30.8923 H   0  0  0  0  0  0  0  0  0  0  0  0
   28.6178   -0.7768   35.9989 H   0  0  0  0  0  0  0  0  0  0  0  0
   20.6815    4.6244   27.9977 H   0  0  0  0  0  0  0  0  0  0  0  0
   26.9695   11.3471   24.8582 H   0  0  0  0  0  0  0  0  0  0  0  0
   35.1134    8.5749   30.1808 H   0  0  0  0  0  0  0  0  0  0  0  0
 25 26  2  0
 26 27  1  0
 27 23  1  0
 28 29  1  0
  1  2  2  0
  3  4  2  0
  7  8  2  0
 14 15  1  0
 29 30  1  0
 30 31  2  0
 31 32  1  0
 32 28  2  0
 15 16  1  0
 29 33  2  0
 17 33  1  0
 16 17  1  0
 14 34  2  0
 22 34  1  0
 17 13  2  0
 27 35  2  0
 19 35  1  0
 18 19  1  0
 24 36  2  0
 32 36  1  0
  8  9  1  0
  4  5  1  0
 37 38  2  0
  9 10  2  0
 38 39  1  0
  2  3  1  0
 39 40  2  0
 10 11  1  0
 40 41  1  0
 19 20  2  0
 41 42  2  0
 42 37  1  0
 33 37  1  0
 20 21  1  0
 21 22  2  0
 43 44  2  0
 22 18  1  0
 44 45  1  0
 23 24  1  0
 45 46  2  0
  5  6  2  0
 46 47  1  0
 11 12  2  0
 47 48  2  0
 48 43  1  0
 36 43  1  0
 12  7  1  0
 45 49  1  0
 13 14  1  0
 39 50  1  0
 35 12  1  0
 34  2  1  0
  6  1  1  0
  4 51  1  0
 24 25  1  0
  8 52  1  0
  1 53  1  0
  3 54  1  0
  5 55  1  0
  6 56  1  0
  7 57  1  0
  9 58  1  0
 10 59  1  0
 11 60  1  0
 15 61  1  0
 15 62  1  0
 16 63  1  0
 16 64  1  0
 18 65  1  0
 20 66  1  0
 21 67  1  0
 23 68  1  0
 25 69  1  0
 26 70  1  0
 30 71  1  0
 31 72  1  0
 38 73  1  0
 40 74  1  0
 41 75  1  0
 42 76  1  0
 44 77  1  0
 46 78  1  0
 47 79  1  0
 48 80  1  0
 49 81  1  0
 50 82  1  0
 51 83  1  0
 52 84  1  0
M  END
> <Uni-Dock RESULT> 
ENERGY=   -4.306  LOWER_BOUND=    2.444  UPPER_BOUND=    9.036
INTER + INTRA:          -4.306
INTER:                  -4.306
INTRA:                   0.000
UNBOUND:                 0.000

$$$$
