
     RDKit          3D

 84 92  0  0  0  0  0  0  0  0999 V2000
   29.9765   11.3532   29.2405 C   0  0  0  0  0  0  0  0  0  0  0  0
   29.3417   10.3902   28.4408 C   0  0  0  0  0  0  0  0  0  0  0  0
   29.5314   10.4125   27.0555 C   0  0  0  0  0  0  0  0  0  0  0  0
   30.3511   11.3829   26.4912 C   0  0  0  0  0  0  0  0  0  0  0  0
   30.9841   12.3416   27.2858 C   0  0  0  0  0  0  0  0  0  0  0  0
   30.7961   12.3255   28.6660 C   0  0  0  0  0  0  0  0  0  0  0  0
   21.5820   10.2074   30.2325 C   0  0  0  0  0  0  0  0  0  0  0  0
   20.5828   11.0233   30.7560 C   0  0  0  0  0  0  0  0  0  0  0  0
   20.4749   11.2275   32.1271 C   0  0  0  0  0  0  0  0  0  0  0  0
   21.3777   10.6075   32.9915 C   0  0  0  0  0  0  0  0  0  0  0  0
   22.3878    9.7890   32.4770 C   0  0  0  0  0  0  0  0  0  0  0  0
   22.4961    9.5892   31.0960 C   0  0  0  0  0  0  0  0  0  0  0  0
   28.3782    7.1319   30.1333 N   0  0  0  0  0  0  0  0  0  0  0  0
   29.0017    8.1800   29.5200 C   0  0  0  0  0  0  0  0  0  0  0  0
   30.4545    7.8443   29.3263 C   0  0  0  0  0  0  0  0  0  0  0  0
   30.6607    6.6952   30.2767 C   0  0  0  0  0  0  0  0  0  0  0  0
   29.2588    6.1517   30.5016 C   0  0  0  0  0  0  0  0  0  0  0  0
   26.0772    8.7510   29.8412 N   0  0  0  0  0  0  0  0  0  0  0  0
   24.8255    9.3107   29.8802 C   0  0  0  0  0  0  0  0  0  0  0  0
   24.9062   10.5548   29.2796 C   0  0  0  0  0  0  0  0  0  0  0  0
   26.2494   10.7617   28.8830 C   0  0  0  0  0  0  0  0  0  0  0  0
   26.9508    9.6380   29.2552 C   0  0  0  0  0  0  0  0  0  0  0  0
   24.2285    6.1979   30.9053 N   0  0  0  0  0  0  0  0  0  0  0  0
   23.5970    4.9773   30.9758 C   0  0  0  0  0  0  0  0  0  0  0  0
   22.2822    5.1410   30.6137 C   0  0  0  0  0  0  0  0  0  0  0  0
   22.0979    6.5278   30.3695 C   0  0  0  0  0  0  0  0  0  0  0  0
   23.3078    7.1579   30.5881 C   0  0  0  0  0  0  0  0  0  0  0  0
   26.5733    4.6864   31.1070 N   0  0  0  0  0  0  0  0  0  0  0  0
   27.8747    4.2746   31.2515 C   0  0  0  0  0  0  0  0  0  0  0  0
   27.7862    2.9076   31.7613 C   0  0  0  0  0  0  0  0  0  0  0  0
   26.5074    2.5583   31.8614 C   0  0  0  0  0  0  0  0  0  0  0  0
   25.7044    3.6766   31.4299 C   0  0  0  0  0  0  0  0  0  0  0  0
   29.0825    4.8818   31.0034 C   0  0  0  0  0  0  0  0  0  0  0  0
   28.4921    9.3594   29.0737 C   0  0  0  0  0  0  0  0  0  0  0  0
   23.5427    8.7029   30.5451 C   0  0  0  0  0  0  0  0  0  0  0  0
   24.3444    3.6466   31.3961 C   0  0  0  0  0  0  0  0  0  0  0  0
   30.3235    4.0885   31.2595 C   0  0  0  0  0  0  0  0  0  0  0  0
   31.0180    4.1972   32.4717 C   0  0  0  0  0  0  0  0  0  0  0  0
   32.1791    3.4584   32.6678 C   0  0  0  0  0  0  0  0  0  0  0  0
   32.6604    2.6022   31.6766 C   0  0  0  0  0  0  0  0  0  0  0  0
   31.9666    2.4782   30.4736 C   0  0  0  0  0  0  0  0  0  0  0  0
   30.8067    3.2223   30.2645 C   0  0  0  0  0  0  0  0  0  0  0  0
   23.5437    2.4511   31.7353 C   0  0  0  0  0  0  0  0  0  0  0  0
   22.7712    2.4104   32.9013 C   0  0  0  0  0  0  0  0  0  0  0  0
   22.0093    1.2806   33.1874 C   0  0  0  0  0  0  0  0  0  0  0  0
   22.0031    0.1833   32.3247 C   0  0  0  0  0  0  0  0  0  0  0  0
   22.7695    0.2189   31.1594 C   0  0  0  0  0  0  0  0  0  0  0  0
   23.5296    1.3523   30.8644 C   0  0  0  0  0  0  0  0  0  0  0  0
   21.2649    1.2761   34.3335 O   0  0  0  0  0  0  0  0  0  0  0  0
   32.8427    3.5922   33.8550 O   0  0  0  0  0  0  0  0  0  0  0  0
   30.5271   11.3729   25.1354 O   0  0  0  0  0  0  0  0  0  0  0  0
   19.6824   11.6477   29.9387 O   0  0  0  0  0  0  0  0  0  0  0  0
   29.8296   11.3245   30.3183 H   0  0  0  0  0  0  0  0  0  0  0  0
   29.0518    9.6599   26.4336 H   0  0  0  0  0  0  0  0  0  0  0  0
   31.6214   13.1013   26.8459 H   0  0  0  0  0  0  0  0  0  0  0  0
   31.2853   13.0592   29.2997 H   0  0  0  0  0  0  0  0  0  0  0  0
   21.6689   10.0347   29.1626 H   0  0  0  0  0  0  0  0  0  0  0  0
   19.6900   11.8645   32.5209 H   0  0  0  0  0  0  0  0  0  0  0  0
   21.3066   10.7632   34.0650 H   0  0  0  0  0  0  0  0  0  0  0  0
   23.0971    9.3059   33.1486 H   0  0  0  0  0  0  0  0  0  0  0  0
   31.1441    8.6645   29.5594 H   0  0  0  0  0  0  0  0  0  0  0  0
   30.6302    7.5252   28.2895 H   0  0  0  0  0  0  0  0  0  0  0  0
   31.3623    5.9828   29.8313 H   0  0  0  0  0  0  0  0  0  0  0  0
   31.0779    7.0630   31.2248 H   0  0  0  0  0  0  0  0  0  0  0  0
   26.3997    7.8441   30.1843 H   0  0  0  0  0  0  0  0  0  0  0  0
   24.0973   11.2571   29.1536 H   0  0  0  0  0  0  0  0  0  0  0  0
   26.6618   11.6377   28.4009 H   0  0  0  0  0  0  0  0  0  0  0  0
   25.2354    6.2806   31.0607 H   0  0  0  0  0  0  0  0  0  0  0  0
   21.5378    4.3601   30.5496 H   0  0  0  0  0  0  0  0  0  0  0  0
   21.1738    7.0149   30.0951 H   0  0  0  0  0  0  0  0  0  0  0  0
   28.6160    2.2749   32.0211 H   0  0  0  0  0  0  0  0  0  0  0  0
   26.1395    1.6128   32.2171 H   0  0  0  0  0  0  0  0  0  0  0  0
   30.6378    4.8666   33.2356 H   0  0  0  0  0  0  0  0  0  0  0  0
   33.5631    2.0235   31.8241 H   0  0  0  0  0  0  0  0  0  0  0  0
   32.3208    1.8118   29.6951 H   0  0  0  0  0  0  0  0  0  0  0  0
   30.2510    3.1499   29.3310 H   0  0  0  0  0  0  0  0  0  0  0  0
   22.7758    3.2597   33.5778 H   0  0  0  0  0  0  0  0  0  0  0  0
   21.4063   -0.6980   32.5397 H   0  0  0  0  0  0  0  0  0  0  0  0
   22.7787   -0.6261   30.4784 H   0  0  0  0  0  0  0  0  0  0  0  0
   24.1333    1.3939   29.9580 H   0  0  0  0  0  0  0  0  0  0  0  0
   20.8285    0.4126   34.4061 H   0  0  0  0  0  0  0  0  0  0  0  0
   33.6555    3.0701   33.7991 H   0  0  0  0  0  0  0  0  0  0  0  0
   31.2383   11.9978   24.9298 H   0  0  0  0  0  0  0  0  0  0  0  0
   19.9428   11.4504   29.0230 H   0  0  0  0  0  0  0  0  0  0  0  0
 25 26  2  0
 26 27  1  0
 27 23  1  0
 28 29  1  0
  1  2  2  0
  3  4  2  0
  7  8  2  0
 14 15  1  0
 29 30  1  0
 30 31  2  0
 31 32  1  0
 32 28  2  0
 15 16  1  0
 29 33  2  0
 17 33  1  0
 16 17  1  0
 14 34  2  0
 22 34  1  0
 17 13  2  0
 27 35  2  0
 19 35  1  0
 18 19  1  0
 24 36  2  0
 32 36  1  0
  8  9  1  0
  4  5  1  0
 37 38  2  0
  9 10  2  0
 38 39  1  0
  2  3  1  0
 39 40  2  0
 10 11  1  0
 40 41  1  0
 19 20  2  0
 41 42  2  0
 42 37  1  0
 33 37  1  0
 20 21  1  0
 21 22  2  0
 43 44  2  0
 22 18  1  0
 44 45  1  0
 23 24  1  0
 45 46  2  0
  5  6  2  0
 46 47  1  0
 11 12  2  0
 47 48  2  0
 48 43  1  0
 36 43  1  0
 12  7  1  0
 45 49  1  0
 13 14  1  0
 39 50  1  0
 35 12  1  0
 34  2  1  0
  6  1  1  0
  4 51  1  0
 24 25  1  0
  8 52  1  0
  1 53  1  0
  3 54  1  0
  5 55  1  0
  6 56  1  0
  7 57  1  0
  9 58  1  0
 10 59  1  0
 11 60  1  0
 15 61  1  0
 15 62  1  0
 16 63  1  0
 16 64  1  0
 18 65  1  0
 20 66  1  0
 21 67  1  0
 23 68  1  0
 25 69  1  0
 26 70  1  0
 30 71  1  0
 31 72  1  0
 38 73  1  0
 40 74  1  0
 41 75  1  0
 42 76  1  0
 44 77  1  0
 46 78  1  0
 47 79  1  0
 48 80  1  0
 49 81  1  0
 50 82  1  0
 51 83  1  0
 52 84  1  0
M  END
> <Uni-Dock RESULT> 
ENERGY=   -5.376  LOWER_BOUND=    0.000  UPPER_BOUND=    0.000
INTER + INTRA:          -5.376
INTER:                  -5.376
INTRA:                   0.000
UNBOUND:                 0.000

$$$$

     RDKit          3D

 84 92  0  0  0  0  0  0  0  0999 V2000
   23.4263   11.5156   28.8951 C   0  0  0  0  0  0  0  0  0  0  0  0
   23.8462   11.0545   30.1524 C   0  0  0  0  0  0  0  0  0  0  0  0
   23.5996   11.8321   31.2882 C   0  0  0  0  0  0  0  0  0  0  0  0
   22.9363   13.0465   31.1569 C   0  0  0  0  0  0  0  0  0  0  0  0
   22.5171   13.5065   29.9064 C   0  0  0  0  0  0  0  0  0  0  0  0
   22.7629   12.7370   28.7715 C   0  0  0  0  0  0  0  0  0  0  0  0
   31.5298    8.9915   29.7479 C   0  0  0  0  0  0  0  0  0  0  0  0
   32.6789    9.2742   29.0144 C   0  0  0  0  0  0  0  0  0  0  0  0
   32.8837    8.7041   27.7629 C   0  0  0  0  0  0  0  0  0  0  0  0
   31.9276    7.8369   27.2334 C   0  0  0  0  0  0  0  0  0  0  0  0
   30.7678    7.5486   27.9591 C   0  0  0  0  0  0  0  0  0  0  0  0
   30.5627    8.1276   29.2167 C   0  0  0  0  0  0  0  0  0  0  0  0
   24.3047    7.3052   30.5296 N   0  0  0  0  0  0  0  0  0  0  0  0
   23.8456    8.5865   30.4255 C   0  0  0  0  0  0  0  0  0  0  0  0
   22.3492    8.5874   30.5724 C   0  0  0  0  0  0  0  0  0  0  0  0
   21.9901    7.1448   30.3347 C   0  0  0  0  0  0  0  0  0  0  0  0
   23.2848    6.3966   30.6089 C   0  0  0  0  0  0  0  0  0  0  0  0
   26.8365    8.5335   30.2421 N   0  0  0  0  0  0  0  0  0  0  0  0
   28.1669    8.8274   30.0841 C   0  0  0  0  0  0  0  0  0  0  0  0
   28.2765   10.1993   29.9390 C   0  0  0  0  0  0  0  0  0  0  0  0
   26.9730   10.7492   29.9916 C   0  0  0  0  0  0  0  0  0  0  0  0
   26.1046    9.6962   30.1652 C   0  0  0  0  0  0  0  0  0  0  0  0
   28.2595    5.5998   30.9028 N   0  0  0  0  0  0  0  0  0  0  0  0
   28.6714    4.4610   31.5565 C   0  0  0  0  0  0  0  0  0  0  0  0
   29.9765    4.6281   31.9506 C   0  0  0  0  0  0  0  0  0  0  0  0
   30.3880    5.8976   31.4651 C   0  0  0  0  0  0  0  0  0  0  0  0
   29.3176    6.4593   30.7960 C   0  0  0  0  0  0  0  0  0  0  0  0
   25.6992    4.5150   31.2056 N   0  0  0  0  0  0  0  0  0  0  0  0
   24.3540    4.2539   31.1255 C   0  0  0  0  0  0  0  0  0  0  0  0
   24.2266    2.8262   31.4118 C   0  0  0  0  0  0  0  0  0  0  0  0
   25.4282    2.3222   31.6751 C   0  0  0  0  0  0  0  0  0  0  0  0
   26.3929    3.3897   31.5679 C   0  0  0  0  0  0  0  0  0  0  0  0
   23.2602    5.0438   30.8634 C   0  0  0  0  0  0  0  0  0  0  0  0
   24.5316    9.7493   30.2607 C   0  0  0  0  0  0  0  0  0  0  0  0
   29.3536    7.8064   30.0035 C   0  0  0  0  0  0  0  0  0  0  0  0
   27.7239    3.2146   31.7902 C   0  0  0  0  0  0  0  0  0  0  0  0
   21.9133    4.3961   30.8938 C   0  0  0  0  0  0  0  0  0  0  0  0
   21.3049    3.9294   29.7209 C   0  0  0  0  0  0  0  0  0  0  0  0
   20.0432    3.3493   29.7844 C   0  0  0  0  0  0  0  0  0  0  0  0
   19.3750    3.2172   31.0023 C   0  0  0  0  0  0  0  0  0  0  0  0
   19.9804    3.6662   32.1752 C   0  0  0  0  0  0  0  0  0  0  0  0
   21.2413    4.2579   32.1198 C   0  0  0  0  0  0  0  0  0  0  0  0
   28.3190    1.9333   32.2256 C   0  0  0  0  0  0  0  0  0  0  0  0
   29.1255    1.1847   31.3614 C   0  0  0  0  0  0  0  0  0  0  0  0
   29.6915   -0.0085   31.8027 C   0  0  0  0  0  0  0  0  0  0  0  0
   29.4668   -0.4711   33.1003 C   0  0  0  0  0  0  0  0  0  0  0  0
   28.6654    0.2720   33.9675 C   0  0  0  0  0  0  0  0  0  0  0  0
   28.1015    1.4728   33.5321 C   0  0  0  0  0  0  0  0  0  0  0  0
   30.4757   -0.7127   30.9328 O   0  0  0  0  0  0  0  0  0  0  0  0
   19.4685    2.9131   28.6237 O   0  0  0  0  0  0  0  0  0  0  0  0
   22.6989   13.7797   32.2862 O   0  0  0  0  0  0  0  0  0  0  0  0
   33.6355   10.1204   29.5015 O   0  0  0  0  0  0  0  0  0  0  0  0
   23.6154   10.9012   28.0172 H   0  0  0  0  0  0  0  0  0  0  0  0
   23.9117   11.4721   32.2661 H   0  0  0  0  0  0  0  0  0  0  0  0
   22.0022   14.4557   29.8027 H   0  0  0  0  0  0  0  0  0  0  0  0
   22.4386   13.0762   27.7922 H   0  0  0  0  0  0  0  0  0  0  0  0
   31.3649    9.4255   30.7310 H   0  0  0  0  0  0  0  0  0  0  0  0
   33.7848    8.9321   27.2035 H   0  0  0  0  0  0  0  0  0  0  0  0
   32.0741    7.3887   26.2540 H   0  0  0  0  0  0  0  0  0  0  0  0
   30.0169    6.8746   27.5474 H   0  0  0  0  0  0  0  0  0  0  0  0
   21.8244    9.2364   29.8610 H   0  0  0  0  0  0  0  0  0  0  0  0
   22.0730    8.8920   31.5914 H   0  0  0  0  0  0  0  0  0  0  0  0
   21.1554    6.8707   30.9876 H   0  0  0  0  0  0  0  0  0  0  0  0
   21.6874    7.0014   29.2878 H   0  0  0  0  0  0  0  0  0  0  0  0
   26.3772    7.6309   30.3779 H   0  0  0  0  0  0  0  0  0  0  0  0
   29.1886   10.7550   29.7888 H   0  0  0  0  0  0  0  0  0  0  0  0
   26.6976   11.7905   29.8930 H   0  0  0  0  0  0  0  0  0  0  0  0
   27.2907    5.7110   30.5966 H   0  0  0  0  0  0  0  0  0  0  0  0
   30.5698    3.9155   32.5058 H   0  0  0  0  0  0  0  0  0  0  0  0
   31.3691    6.3376   31.5667 H   0  0  0  0  0  0  0  0  0  0  0  0
   23.3122    2.2603   31.4100 H   0  0  0  0  0  0  0  0  0  0  0  0
   25.6419    1.2953   31.9108 H   0  0  0  0  0  0  0  0  0  0  0  0
   21.8306    4.0380   28.7785 H   0  0  0  0  0  0  0  0  0  0  0  0
   18.3931    2.7652   31.0581 H   0  0  0  0  0  0  0  0  0  0  0  0
   19.4801    3.5647   33.1318 H   0  0  0  0  0  0  0  0  0  0  0  0
   21.7322    4.6241   33.0200 H   0  0  0  0  0  0  0  0  0  0  0  0
   29.3001    1.5381   30.3496 H   0  0  0  0  0  0  0  0  0  0  0  0
   29.9102   -1.3978   33.4519 H   0  0  0  0  0  0  0  0  0  0  0  0
   28.4778   -0.0736   34.9790 H   0  0  0  0  0  0  0  0  0  0  0  0
   27.4730    2.0634   34.1984 H   0  0  0  0  0  0  0  0  0  0  0  0
   30.7580   -1.5290   31.3746 H   0  0  0  0  0  0  0  0  0  0  0  0
   18.5754    2.6055   28.8342 H   0  0  0  0  0  0  0  0  0  0  0  0
   22.0987   14.5006   32.0442 H   0  0  0  0  0  0  0  0  0  0  0  0
   33.3028   10.4733   30.3441 H   0  0  0  0  0  0  0  0  0  0  0  0
 25 26  2  0
 26 27  1  0
 27 23  1  0
 28 29  1  0
  1  2  2  0
  3  4  2  0
  7  8  2  0
 14 15  1  0
 29 30  1  0
 30 31  2  0
 31 32  1  0
 32 28  2  0
 15 16  1  0
 29 33  2  0
 17 33  1  0
 16 17  1  0
 14 34  2  0
 22 34  1  0
 17 13  2  0
 27 35  2  0
 19 35  1  0
 18 19  1  0
 24 36  2  0
 32 36  1  0
  8  9  1  0
  4  5  1  0
 37 38  2  0
  9 10  2  0
 38 39  1  0
  2  3  1  0
 39 40  2  0
 10 11  1  0
 40 41  1  0
 19 20  2  0
 41 42  2  0
 42 37  1  0
 33 37  1  0
 20 21  1  0
 21 22  2  0
 43 44  2  0
 22 18  1  0
 44 45  1  0
 23 24  1  0
 45 46  2  0
  5  6  2  0
 46 47  1  0
 11 12  2  0
 47 48  2  0
 48 43  1  0
 36 43  1  0
 12  7  1  0
 45 49  1  0
 13 14  1  0
 39 50  1  0
 35 12  1  0
 34  2  1  0
  6  1  1  0
  4 51  1  0
 24 25  1  0
  8 52  1  0
  1 53  1  0
  3 54  1  0
  5 55  1  0
  6 56  1  0
  7 57  1  0
  9 58  1  0
 10 59  1  0
 11 60  1  0
 15 61  1  0
 15 62  1  0
 16 63  1  0
 16 64  1  0
 18 65  1  0
 20 66  1  0
 21 67  1  0
 23 68  1  0
 25 69  1  0
 26 70  1  0
 30 71  1  0
 31 72  1  0
 38 73  1  0
 40 74  1  0
 41 75  1  0
 42 76  1  0
 44 77  1  0
 46 78  1  0
 47 79  1  0
 48 80  1  0
 49 81  1  0
 50 82  1  0
 51 83  1  0
 52 84  1  0
M  END
> <Uni-Dock RESULT> 
ENERGY=   -5.317  LOWER_BOUND=    2.473  UPPER_BOUND=    7.996
INTER + INTRA:          -5.317
INTER:                  -5.317
INTRA:                   0.000
UNBOUND:                 0.000

$$$$

     RDKit          3D

 84 92  0  0  0  0  0  0  0  0999 V2000
   29.2857    1.0426   31.0013 C   0  0  0  0  0  0  0  0  0  0  0  0
   29.0962    2.0745   31.9336 C   0  0  0  0  0  0  0  0  0  0  0  0
   29.4980    1.8862   33.2597 C   0  0  0  0  0  0  0  0  0  0  0  0
   30.0852    0.6833   33.6340 C   0  0  0  0  0  0  0  0  0  0  0  0
   30.2751   -0.3444   32.7072 C   0  0  0  0  0  0  0  0  0  0  0  0
   29.8740   -0.1629   31.3856 C   0  0  0  0  0  0  0  0  0  0  0  0
   21.5328    4.5510   31.5915 C   0  0  0  0  0  0  0  0  0  0  0  0
   20.2688    4.0906   31.2329 C   0  0  0  0  0  0  0  0  0  0  0  0
   19.8814    4.0383   29.8986 C   0  0  0  0  0  0  0  0  0  0  0  0
   20.7685    4.4524   28.9045 C   0  0  0  0  0  0  0  0  0  0  0  0
   22.0419    4.9130   29.2523 C   0  0  0  0  0  0  0  0  0  0  0  0
   22.4301    4.9603   30.5961 C   0  0  0  0  0  0  0  0  0  0  0  0
   28.8451    5.6003   30.5497 N   0  0  0  0  0  0  0  0  0  0  0  0
   29.2331    4.3735   31.0054 C   0  0  0  0  0  0  0  0  0  0  0  0
   30.7322    4.2756   30.9419 C   0  0  0  0  0  0  0  0  0  0  0  0
   31.1001    5.3967   30.0070 C   0  0  0  0  0  0  0  0  0  0  0  0
   29.8970    6.3246   30.0586 C   0  0  0  0  0  0  0  0  0  0  0  0
   26.2569    4.6652   31.2040 N   0  0  0  0  0  0  0  0  0  0  0  0
   24.9087    4.4800   31.3758 C   0  0  0  0  0  0  0  0  0  0  0  0
   24.7262    3.2173   31.9116 C   0  0  0  0  0  0  0  0  0  0  0  0
   25.9992    2.6137   32.0501 C   0  0  0  0  0  0  0  0  0  0  0  0
   26.9227    3.5253   31.5925 C   0  0  0  0  0  0  0  0  0  0  0  0
   25.0718    7.7098   30.5764 N   0  0  0  0  0  0  0  0  0  0  0  0
   24.8157    9.0592   30.6611 C   0  0  0  0  0  0  0  0  0  0  0  0
   23.5883    9.2375   31.2511 C   0  0  0  0  0  0  0  0  0  0  0  0
   23.0557    7.9412   31.4804 C   0  0  0  0  0  0  0  0  0  0  0  0
   23.9795    7.0202   31.0251 C   0  0  0  0  0  0  0  0  0  0  0  0
   27.6852    8.5224   29.9995 N   0  0  0  0  0  0  0  0  0  0  0  0
   29.0075    8.5673   29.6336 C   0  0  0  0  0  0  0  0  0  0  0  0
   29.2330    9.9423   29.1924 C   0  0  0  0  0  0  0  0  0  0  0  0
   28.1107   10.6399   29.3380 C   0  0  0  0  0  0  0  0  0  0  0  0
   27.1028    9.7568   29.8726 C   0  0  0  0  0  0  0  0  0  0  0  0
   30.0131    7.6304   29.6382 C   0  0  0  0  0  0  0  0  0  0  0  0
   28.4868    3.3492   31.4991 C   0  0  0  0  0  0  0  0  0  0  0  0
   23.7635    5.4727   30.9753 C   0  0  0  0  0  0  0  0  0  0  0  0
   25.8342   10.1601   30.1544 C   0  0  0  0  0  0  0  0  0  0  0  0
   31.3696    8.0664   29.1858 C   0  0  0  0  0  0  0  0  0  0  0  0
   31.7929    7.8696   27.8646 C   0  0  0  0  0  0  0  0  0  0  0  0
   33.0684    8.2707   27.4840 C   0  0  0  0  0  0  0  0  0  0  0  0
   33.9327    8.8749   28.3978 C   0  0  0  0  0  0  0  0  0  0  0  0
   33.5130    9.0869   29.7103 C   0  0  0  0  0  0  0  0  0  0  0  0
   32.2393    8.6793   30.1033 C   0  0  0  0  0  0  0  0  0  0  0  0
   25.3668   11.5546   30.0050 C   0  0  0  0  0  0  0  0  0  0  0  0
   24.4569   11.9042   29.0011 C   0  0  0  0  0  0  0  0  0  0  0  0
   24.0160   13.2207   28.8947 C   0  0  0  0  0  0  0  0  0  0  0  0
   24.4687   14.2015   29.7787 C   0  0  0  0  0  0  0  0  0  0  0  0
   25.3741   13.8586   30.7832 C   0  0  0  0  0  0  0  0  0  0  0  0
   25.8137   12.5384   30.8986 C   0  0  0  0  0  0  0  0  0  0  0  0
   23.1255   13.5261   27.9040 O   0  0  0  0  0  0  0  0  0  0  0  0
   33.4594    8.0564   26.1922 O   0  0  0  0  0  0  0  0  0  0  0  0
   30.4785    0.5322   34.9347 O   0  0  0  0  0  0  0  0  0  0  0  0
   19.3750    3.6754   32.1802 O   0  0  0  0  0  0  0  0  0  0  0  0
   28.9771    1.1998   29.9697 H   0  0  0  0  0  0  0  0  0  0  0  0
   29.3650    2.6884   33.9823 H   0  0  0  0  0  0  0  0  0  0  0  0
   30.7304   -1.2847   32.9992 H   0  0  0  0  0  0  0  0  0  0  0  0
   30.0195   -0.9487   30.6503 H   0  0  0  0  0  0  0  0  0  0  0  0
   21.8415    4.6039   32.6326 H   0  0  0  0  0  0  0  0  0  0  0  0
   18.8926    3.6789   29.6341 H   0  0  0  0  0  0  0  0  0  0  0  0
   20.4790    4.4117   27.8575 H   0  0  0  0  0  0  0  0  0  0  0  0
   22.7389    5.2340   28.4785 H   0  0  0  0  0  0  0  0  0  0  0  0
   31.1080    3.3184   30.5611 H   0  0  0  0  0  0  0  0  0  0  0  0
   31.1612    4.4467   31.9390 H   0  0  0  0  0  0  0  0  0  0  0  0
   32.0406    5.8471   30.3397 H   0  0  0  0  0  0  0  0  0  0  0  0
   31.2310    5.0070   28.9876 H   0  0  0  0  0  0  0  0  0  0  0  0
   26.7654    5.4719   30.8370 H   0  0  0  0  0  0  0  0  0  0  0  0
   23.7818    2.7591   32.1602 H   0  0  0  0  0  0  0  0  0  0  0  0
   26.2159    1.6210   32.4209 H   0  0  0  0  0  0  0  0  0  0  0  0
   25.9720    7.3640   30.2377 H   0  0  0  0  0  0  0  0  0  0  0  0
   23.1214   10.1863   31.4746 H   0  0  0  0  0  0  0  0  0  0  0  0
   22.0892    7.7087   31.9027 H   0  0  0  0  0  0  0  0  0  0  0  0
   30.1549   10.3391   28.8061 H   0  0  0  0  0  0  0  0  0  0  0  0
   27.9770   11.6764   29.0856 H   0  0  0  0  0  0  0  0  0  0  0  0
   31.1153    7.3975   27.1616 H   0  0  0  0  0  0  0  0  0  0  0  0
   34.9264    9.1904   28.1070 H   0  0  0  0  0  0  0  0  0  0  0  0
   34.1677    9.5621   30.4322 H   0  0  0  0  0  0  0  0  0  0  0  0
   31.8904    8.8258   31.1243 H   0  0  0  0  0  0  0  0  0  0  0  0
   24.1049   11.1458   28.3083 H   0  0  0  0  0  0  0  0  0  0  0  0
   24.1238   15.2284   29.7042 H   0  0  0  0  0  0  0  0  0  0  0  0
   25.7387   14.6086   31.4778 H   0  0  0  0  0  0  0  0  0  0  0  0
   26.5212   12.2562   31.6781 H   0  0  0  0  0  0  0  0  0  0  0  0
   22.9503   14.4797   27.9397 H   0  0  0  0  0  0  0  0  0  0  0  0
   34.3857    8.3259   26.1158 H   0  0  0  0  0  0  0  0  0  0  0  0
   31.0035   -0.2803   34.9873 H   0  0  0  0  0  0  0  0  0  0  0  0
   19.8289    3.7165   33.0389 H   0  0  0  0  0  0  0  0  0  0  0  0
 25 26  2  0
 26 27  1  0
 27 23  1  0
 28 29  1  0
  1  2  2  0
  3  4  2  0
  7  8  2  0
 14 15  1  0
 29 30  1  0
 30 31  2  0
 31 32  1  0
 32 28  2  0
 15 16  1  0
 29 33  2  0
 17 33  1  0
 16 17  1  0
 14 34  2  0
 22 34  1  0
 17 13  2  0
 27 35  2  0
 19 35  1  0
 18 19  1  0
 24 36  2  0
 32 36  1  0
  8  9  1  0
  4  5  1  0
 37 38  2  0
  9 10  2  0
 38 39  1  0
  2  3  1  0
 39 40  2  0
 10 11  1  0
 40 41  1  0
 19 20  2  0
 41 42  2  0
 42 37  1  0
 33 37  1  0
 20 21  1  0
 21 22  2  0
 43 44  2  0
 22 18  1  0
 44 45  1  0
 23 24  1  0
 45 46  2  0
  5  6  2  0
 46 47  1  0
 11 12  2  0
 47 48  2  0
 48 43  1  0
 36 43  1  0
 12  7  1  0
 45 49  1  0
 13 14  1  0
 39 50  1  0
 35 12  1  0
 34  2  1  0
  6  1  1  0
  4 51  1  0
 24 25  1  0
  8 52  1  0
  1 53  1  0
  3 54  1  0
  5 55  1  0
  6 56  1  0
  7 57  1  0
  9 58  1  0
 10 59  1  0
 11 60  1  0
 15 61  1  0
 15 62  1  0
 16 63  1  0
 16 64  1  0
 18 65  1  0
 20 66  1  0
 21 67  1  0
 23 68  1  0
 25 69  1  0
 26 70  1  0
 30 71  1  0
 31 72  1  0
 38 73  1  0
 40 74  1  0
 41 75  1  0
 42 76  1  0
 44 77  1  0
 46 78  1  0
 47 79  1  0
 48 80  1  0
 49 81  1  0
 50 82  1  0
 51 83  1  0
 52 84  1  0
M  END
> <Uni-Dock RESULT> 
ENERGY=   -5.038  LOWER_BOUND=    2.252  UPPER_BOUND=    8.075
INTER + INTRA:          -5.038
INTER:                  -5.038
INTRA:                   0.000
UNBOUND:                 0.000

$$$$

     RDKit          3D

 84 92  0  0  0  0  0  0  0  0999 V2000
   32.4994    8.5290   30.2882 C   0  0  0  0  0  0  0  0  0  0  0  0
   31.6073    7.9573   29.3678 C   0  0  0  0  0  0  0  0  0  0  0  0
   31.9784    7.8529   28.0236 C   0  0  0  0  0  0  0  0  0  0  0  0
   33.2273    8.3101   27.6195 C   0  0  0  0  0  0  0  0  0  0  0  0
   34.1165    8.8787   28.5345 C   0  0  0  0  0  0  0  0  0  0  0  0
   33.7506    8.9876   29.8742 C   0  0  0  0  0  0  0  0  0  0  0  0
   24.5008   11.4858   30.0769 C   0  0  0  0  0  0  0  0  0  0  0  0
   23.9375   12.6884   30.4951 C   0  0  0  0  0  0  0  0  0  0  0  0
   23.7459   12.9537   31.8464 C   0  0  0  0  0  0  0  0  0  0  0  0
   24.1213   12.0043   32.7974 C   0  0  0  0  0  0  0  0  0  0  0  0
   24.6915   10.7947   32.3895 C   0  0  0  0  0  0  0  0  0  0  0  0
   24.8870   10.5326   31.0287 C   0  0  0  0  0  0  0  0  0  0  0  0
   29.0026    5.5771   30.7678 N   0  0  0  0  0  0  0  0  0  0  0  0
   30.1237    6.1937   30.2920 C   0  0  0  0  0  0  0  0  0  0  0  0
   31.2610    5.2102   30.2831 C   0  0  0  0  0  0  0  0  0  0  0  0
   30.7689    4.1232   31.2011 C   0  0  0  0  0  0  0  0  0  0  0  0
   29.2599    4.3077   31.2089 C   0  0  0  0  0  0  0  0  0  0  0  0
   27.7949    8.0793   30.2371 N   0  0  0  0  0  0  0  0  0  0  0  0
   26.9597    9.1621   30.1300 C   0  0  0  0  0  0  0  0  0  0  0  0
   27.6973   10.2069   29.6016 C   0  0  0  0  0  0  0  0  0  0  0  0
   29.0217    9.7486   29.4011 C   0  0  0  0  0  0  0  0  0  0  0  0
   29.0549    8.4370   29.8152 C   0  0  0  0  0  0  0  0  0  0  0  0
   24.8369    6.7214   30.9258 N   0  0  0  0  0  0  0  0  0  0  0  0
   23.7044    5.9427   30.8557 C   0  0  0  0  0  0  0  0  0  0  0  0
   22.6853    6.6956   30.3256 C   0  0  0  0  0  0  0  0  0  0  0  0
   23.2083    7.9998   30.1201 C   0  0  0  0  0  0  0  0  0  0  0  0
   24.5280    7.9931   30.5290 C   0  0  0  0  0  0  0  0  0  0  0  0
   26.1459    4.2913   31.3778 N   0  0  0  0  0  0  0  0  0  0  0  0
   27.0679    3.3203   31.6797 C   0  0  0  0  0  0  0  0  0  0  0  0
   26.2787    2.1684   32.1118 C   0  0  0  0  0  0  0  0  0  0  0  0
   24.9856    2.4633   32.0214 C   0  0  0  0  0  0  0  0  0  0  0  0
   24.8696    3.8164   31.5345 C   0  0  0  0  0  0  0  0  0  0  0  0
   28.4408    3.2825   31.6254 C   0  0  0  0  0  0  0  0  0  0  0  0
   30.2944    7.4626   29.8330 C   0  0  0  0  0  0  0  0  0  0  0  0
   25.4624    9.2451   30.5867 C   0  0  0  0  0  0  0  0  0  0  0  0
   23.6741    4.4279   31.3146 C   0  0  0  0  0  0  0  0  0  0  0  0
   29.1156    2.0061   32.0127 C   0  0  0  0  0  0  0  0  0  0  0  0
   29.6016    1.8063   33.3117 C   0  0  0  0  0  0  0  0  0  0  0  0
   30.2408    0.6139   33.6312 C   0  0  0  0  0  0  0  0  0  0  0  0
   30.3992   -0.3927   32.6779 C   0  0  0  0  0  0  0  0  0  0  0  0
   29.9054   -0.2066   31.3874 C   0  0  0  0  0  0  0  0  0  0  0  0
   29.2716    0.9897   31.0554 C   0  0  0  0  0  0  0  0  0  0  0  0
   22.3680    3.7576   31.4886 C   0  0  0  0  0  0  0  0  0  0  0  0
   21.5108    4.1138   32.5356 C   0  0  0  0  0  0  0  0  0  0  0  0
   20.2769    3.4819   32.6651 C   0  0  0  0  0  0  0  0  0  0  0  0
   19.8791    2.4948   31.7620 C   0  0  0  0  0  0  0  0  0  0  0  0
   20.7284    2.1369   30.7146 C   0  0  0  0  0  0  0  0  0  0  0  0
   21.9638    2.7727   30.5761 C   0  0  0  0  0  0  0  0  0  0  0  0
   19.4641    3.8565   33.6979 O   0  0  0  0  0  0  0  0  0  0  0  0
   30.7150    0.4502   34.9024 O   0  0  0  0  0  0  0  0  0  0  0  0
   33.5671    8.1844   26.3012 O   0  0  0  0  0  0  0  0  0  0  0  0
   23.5597   13.6416   29.5912 O   0  0  0  0  0  0  0  0  0  0  0  0
   32.2060    8.5998   31.3336 H   0  0  0  0  0  0  0  0  0  0  0  0
   31.2952    7.3984   27.3095 H   0  0  0  0  0  0  0  0  0  0  0  0
   35.0901    9.2387   28.2194 H   0  0  0  0  0  0  0  0  0  0  0  0
   34.4316    9.4213   30.6003 H   0  0  0  0  0  0  0  0  0  0  0  0
   24.6465   11.2656   29.0222 H   0  0  0  0  0  0  0  0  0  0  0  0
   23.3041   13.8945   32.1575 H   0  0  0  0  0  0  0  0  0  0  0  0
   23.9810   12.2022   33.8571 H   0  0  0  0  0  0  0  0  0  0  0  0
   24.9894   10.0521   33.1294 H   0  0  0  0  0  0  0  0  0  0  0  0
   32.2138    5.6160   30.6439 H   0  0  0  0  0  0  0  0  0  0  0  0
   31.4109    4.8200   29.2669 H   0  0  0  0  0  0  0  0  0  0  0  0
   31.1100    3.1538   30.8243 H   0  0  0  0  0  0  0  0  0  0  0  0
   31.1715    4.2758   32.2124 H   0  0  0  0  0  0  0  0  0  0  0  0
   27.6032    7.1362   30.5805 H   0  0  0  0  0  0  0  0  0  0  0  0
   27.3384   11.2035   29.3979 H   0  0  0  0  0  0  0  0  0  0  0  0
   29.8595   10.3158   29.0187 H   0  0  0  0  0  0  0  0  0  0  0  0
   25.7319    6.3254   31.2203 H   0  0  0  0  0  0  0  0  0  0  0  0
   21.6793    6.3545   30.1263 H   0  0  0  0  0  0  0  0  0  0  0  0
   22.6691    8.8568   29.7444 H   0  0  0  0  0  0  0  0  0  0  0  0
   26.6696    1.2268   32.4540 H   0  0  0  0  0  0  0  0  0  0  0  0
   24.1718    1.8106   32.2816 H   0  0  0  0  0  0  0  0  0  0  0  0
   29.4758    2.5949   34.0457 H   0  0  0  0  0  0  0  0  0  0  0  0
   30.8949   -1.3236   32.9211 H   0  0  0  0  0  0  0  0  0  0  0  0
   30.0120   -0.9805   30.6356 H   0  0  0  0  0  0  0  0  0  0  0  0
   28.8845    1.1632   30.0527 H   0  0  0  0  0  0  0  0  0  0  0  0
   21.8173    4.8782   33.2433 H   0  0  0  0  0  0  0  0  0  0  0  0
   18.9156    2.0028   31.8546 H   0  0  0  0  0  0  0  0  0  0  0  0
   20.4367    1.3697   30.0045 H   0  0  0  0  0  0  0  0  0  0  0  0
   22.6376    2.5029   29.7631 H   0  0  0  0  0  0  0  0  0  0  0  0
   18.6688    3.3013   33.6722 H   0  0  0  0  0  0  0  0  0  0  0  0
   31.1874   -0.3937   34.9346 H   0  0  0  0  0  0  0  0  0  0  0  0
   34.5090    8.3966   26.2221 H   0  0  0  0  0  0  0  0  0  0  0  0
   23.8234   13.3221   28.7117 H   0  0  0  0  0  0  0  0  0  0  0  0
 25 26  2  0
 26 27  1  0
 27 23  1  0
 28 29  1  0
  1  2  2  0
  3  4  2  0
  7  8  2  0
 14 15  1  0
 29 30  1  0
 30 31  2  0
 31 32  1  0
 32 28  2  0
 15 16  1  0
 29 33  2  0
 17 33  1  0
 16 17  1  0
 14 34  2  0
 22 34  1  0
 17 13  2  0
 27 35  2  0
 19 35  1  0
 18 19  1  0
 24 36  2  0
 32 36  1  0
  8  9  1  0
  4  5  1  0
 37 38  2  0
  9 10  2  0
 38 39  1  0
  2  3  1  0
 39 40  2  0
 10 11  1  0
 40 41  1  0
 19 20  2  0
 41 42  2  0
 42 37  1  0
 33 37  1  0
 20 21  1  0
 21 22  2  0
 43 44  2  0
 22 18  1  0
 44 45  1  0
 23 24  1  0
 45 46  2  0
  5  6  2  0
 46 47  1  0
 11 12  2  0
 47 48  2  0
 48 43  1  0
 36 43  1  0
 12  7  1  0
 45 49  1  0
 13 14  1  0
 39 50  1  0
 35 12  1  0
 34  2  1  0
  6  1  1  0
  4 51  1  0
 24 25  1  0
  8 52  1  0
  1 53  1  0
  3 54  1  0
  5 55  1  0
  6 56  1  0
  7 57  1  0
  9 58  1  0
 10 59  1  0
 11 60  1  0
 15 61  1  0
 15 62  1  0
 16 63  1  0
 16 64  1  0
 18 65  1  0
 20 66  1  0
 21 67  1  0
 23 68  1  0
 25 69  1  0
 26 70  1  0
 30 71  1  0
 31 72  1  0
 38 73  1  0
 40 74  1  0
 41 75  1  0
 42 76  1  0
 44 77  1  0
 46 78  1  0
 47 79  1  0
 48 80  1  0
 49 81  1  0
 50 82  1  0
 51 83  1  0
 52 84  1  0
M  END
> <Uni-Dock RESULT> 
ENERGY=   -5.018  LOWER_BOUND=    2.258  UPPER_BOUND=    2.864
INTER + INTRA:          -5.018
INTER:                  -5.018
INTRA:                   0.000
UNBOUND:                 0.000

$$$$

     RDKit          3D

 84 92  0  0  0  0  0  0  0  0999 V2000
   21.5912    4.3070   32.5606 C   0  0  0  0  0  0  0  0  0  0  0  0
   22.1597    4.3820   31.2796 C   0  0  0  0  0  0  0  0  0  0  0  0
   21.5349    3.7323   30.2104 C   0  0  0  0  0  0  0  0  0  0  0  0
   20.3569    3.0279   30.4299 C   0  0  0  0  0  0  0  0  0  0  0  0
   19.7896    2.9529   31.7041 C   0  0  0  0  0  0  0  0  0  0  0  0
   20.4095    3.5959   32.7731 C   0  0  0  0  0  0  0  0  0  0  0  0
   29.8541    2.3656   31.7112 C   0  0  0  0  0  0  0  0  0  0  0  0
   30.7235    1.6149   32.4980 C   0  0  0  0  0  0  0  0  0  0  0  0
   31.2108    2.1169   33.6995 C   0  0  0  0  0  0  0  0  0  0  0  0
   30.8259    3.3889   34.1241 C   0  0  0  0  0  0  0  0  0  0  0  0
   29.9502    4.1505   33.3443 C   0  0  0  0  0  0  0  0  0  0  0  0
   29.4581    3.6404   32.1375 C   0  0  0  0  0  0  0  0  0  0  0  0
   24.4200    7.3517   30.5862 N   0  0  0  0  0  0  0  0  0  0  0  0
   23.3850    6.4854   30.7902 C   0  0  0  0  0  0  0  0  0  0  0  0
   22.0852    7.2177   30.6030 C   0  0  0  0  0  0  0  0  0  0  0  0
   22.4987    8.6617   30.7027 C   0  0  0  0  0  0  0  0  0  0  0  0
   23.9881    8.6365   30.3993 C   0  0  0  0  0  0  0  0  0  0  0  0
   26.0065    5.0563   31.0501 N   0  0  0  0  0  0  0  0  0  0  0  0
   27.0156    4.1537   31.2698 C   0  0  0  0  0  0  0  0  0  0  0  0
   26.4290    2.9294   31.5381 C   0  0  0  0  0  0  0  0  0  0  0  0
   25.0242    3.1006   31.4984 C   0  0  0  0  0  0  0  0  0  0  0  0
   24.7937    4.4258   31.2090 C   0  0  0  0  0  0  0  0  0  0  0  0
   28.6898    6.8165   30.1728 N   0  0  0  0  0  0  0  0  0  0  0  0
   29.6016    7.5339   29.4329 C   0  0  0  0  0  0  0  0  0  0  0  0
   30.6409    6.7036   29.0909 C   0  0  0  0  0  0  0  0  0  0  0  0
   30.3738    5.4477   29.6975 C   0  0  0  0  0  0  0  0  0  0  0  0
   29.1798    5.5574   30.3838 C   0  0  0  0  0  0  0  0  0  0  0  0
   27.0067    9.0010   29.7056 N   0  0  0  0  0  0  0  0  0  0  0  0
   25.9732    9.9042   29.7255 C   0  0  0  0  0  0  0  0  0  0  0  0
   26.5694   11.1728   29.3111 C   0  0  0  0  0  0  0  0  0  0  0  0
   27.8566   10.9843   29.0374 C   0  0  0  0  0  0  0  0  0  0  0  0
   28.1619    9.5927   29.2647 C   0  0  0  0  0  0  0  0  0  0  0  0
   24.6367    9.7921   30.0260 C   0  0  0  0  0  0  0  0  0  0  0  0
   23.4025    5.1557   31.0755 C   0  0  0  0  0  0  0  0  0  0  0  0
   28.5549    4.4494   31.2926 C   0  0  0  0  0  0  0  0  0  0  0  0
   29.3979    9.0600   29.0644 C   0  0  0  0  0  0  0  0  0  0  0  0
   23.7924   11.0195   29.9018 C   0  0  0  0  0  0  0  0  0  0  0  0
   23.5220   11.8307   31.0119 C   0  0  0  0  0  0  0  0  0  0  0  0
   22.7170   12.9543   30.8630 C   0  0  0  0  0  0  0  0  0  0  0  0
   22.1794   13.2918   29.6203 C   0  0  0  0  0  0  0  0  0  0  0  0
   22.4560   12.4972   28.5086 C   0  0  0  0  0  0  0  0  0  0  0  0
   23.2542   11.3634   28.6504 C   0  0  0  0  0  0  0  0  0  0  0  0
   30.5440    9.8287   28.5342 C   0  0  0  0  0  0  0  0  0  0  0  0
   31.6338   10.1497   29.3509 C   0  0  0  0  0  0  0  0  0  0  0  0
   32.7106   10.8564   28.8219 C   0  0  0  0  0  0  0  0  0  0  0  0
   32.7204   11.2505   27.4829 C   0  0  0  0  0  0  0  0  0  0  0  0
   31.6377   10.9314   26.6629 C   0  0  0  0  0  0  0  0  0  0  0  0
   30.5588   10.2165   27.1868 C   0  0  0  0  0  0  0  0  0  0  0  0
   33.7590   11.1507   29.6475 O   0  0  0  0  0  0  0  0  0  0  0  0
   22.4603   13.7214   31.9645 O   0  0  0  0  0  0  0  0  0  0  0  0
   19.7625    2.4126   29.3635 O   0  0  0  0  0  0  0  0  0  0  0  0
   31.1201    0.3645   32.1137 O   0  0  0  0  0  0  0  0  0  0  0  0
   22.0796    4.8214   33.3858 H   0  0  0  0  0  0  0  0  0  0  0  0
   21.9651    3.7991   29.2135 H   0  0  0  0  0  0  0  0  0  0  0  0
   18.8720    2.4007   31.8769 H   0  0  0  0  0  0  0  0  0  0  0  0
   19.9793    3.5534   33.7693 H   0  0  0  0  0  0  0  0  0  0  0  0
   29.4747    1.9851   30.7660 H   0  0  0  0  0  0  0  0  0  0  0  0
   31.8891    1.5213   34.3013 H   0  0  0  0  0  0  0  0  0  0  0  0
   31.1964    3.7905   35.0639 H   0  0  0  0  0  0  0  0  0  0  0  0
   29.6444    5.1430   33.6743 H   0  0  0  0  0  0  0  0  0  0  0  0
   21.3211    6.9838   31.3541 H   0  0  0  0  0  0  0  0  0  0  0  0
   21.6732    7.0010   29.6076 H   0  0  0  0  0  0  0  0  0  0  0  0
   21.8991    9.2555   30.0056 H   0  0  0  0  0  0  0  0  0  0  0  0
   22.3293    9.0305   31.7243 H   0  0  0  0  0  0  0  0  0  0  0  0
   26.0562    6.0512   30.8228 H   0  0  0  0  0  0  0  0  0  0  0  0
   26.9450    2.0089   31.7616 H   0  0  0  0  0  0  0  0  0  0  0  0
   24.2680    2.3490   31.6808 H   0  0  0  0  0  0  0  0  0  0  0  0
   27.8011    7.2312   30.4609 H   0  0  0  0  0  0  0  0  0  0  0  0
   31.4992    6.9722   28.4915 H   0  0  0  0  0  0  0  0  0  0  0  0
   31.0023    4.5700   29.6619 H   0  0  0  0  0  0  0  0  0  0  0  0
   26.0596   12.1168   29.2380 H   0  0  0  0  0  0  0  0  0  0  0  0
   28.5493   11.7420   28.7181 H   0  0  0  0  0  0  0  0  0  0  0  0
   23.9424   11.5598   31.9742 H   0  0  0  0  0  0  0  0  0  0  0  0
   21.5531   14.1660   29.4980 H   0  0  0  0  0  0  0  0  0  0  0  0
   22.0538   12.7481   27.5334 H   0  0  0  0  0  0  0  0  0  0  0  0
   23.4786   10.7218   27.7998 H   0  0  0  0  0  0  0  0  0  0  0  0
   31.6292    9.8490   30.3943 H   0  0  0  0  0  0  0  0  0  0  0  0
   33.5599   11.7967   27.0634 H   0  0  0  0  0  0  0  0  0  0  0  0
   31.6271   11.2319   25.6201 H   0  0  0  0  0  0  0  0  0  0  0  0
   29.7061    9.9608   26.5582 H   0  0  0  0  0  0  0  0  0  0  0  0
   34.4020   11.6740   29.1434 H   0  0  0  0  0  0  0  0  0  0  0  0
   21.8358   14.4129   31.7034 H   0  0  0  0  0  0  0  0  0  0  0  0
   18.8877    2.1122   29.6515 H   0  0  0  0  0  0  0  0  0  0  0  0
   30.6387    0.1504   31.2967 H   0  0  0  0  0  0  0  0  0  0  0  0
 25 26  2  0
 26 27  1  0
 27 23  1  0
 28 29  1  0
  1  2  2  0
  3  4  2  0
  7  8  2  0
 14 15  1  0
 29 30  1  0
 30 31  2  0
 31 32  1  0
 32 28  2  0
 15 16  1  0
 29 33  2  0
 17 33  1  0
 16 17  1  0
 14 34  2  0
 22 34  1  0
 17 13  2  0
 27 35  2  0
 19 35  1  0
 18 19  1  0
 24 36  2  0
 32 36  1  0
  8  9  1  0
  4  5  1  0
 37 38  2  0
  9 10  2  0
 38 39  1  0
  2  3  1  0
 39 40  2  0
 10 11  1  0
 40 41  1  0
 19 20  2  0
 41 42  2  0
 42 37  1  0
 33 37  1  0
 20 21  1  0
 21 22  2  0
 43 44  2  0
 22 18  1  0
 44 45  1  0
 23 24  1  0
 45 46  2  0
  5  6  2  0
 46 47  1  0
 11 12  2  0
 47 48  2  0
 48 43  1  0
 36 43  1  0
 12  7  1  0
 45 49  1  0
 13 14  1  0
 39 50  1  0
 35 12  1  0
 34  2  1  0
  6  1  1  0
  4 51  1  0
 24 25  1  0
  8 52  1  0
  1 53  1  0
  3 54  1  0
  5 55  1  0
  6 56  1  0
  7 57  1  0
  9 58  1  0
 10 59  1  0
 11 60  1  0
 15 61  1  0
 15 62  1  0
 16 63  1  0
 16 64  1  0
 18 65  1  0
 20 66  1  0
 21 67  1  0
 23 68  1  0
 25 69  1  0
 26 70  1  0
 30 71  1  0
 31 72  1  0
 38 73  1  0
 40 74  1  0
 41 75  1  0
 42 76  1  0
 44 77  1  0
 46 78  1  0
 47 79  1  0
 48 80  1  0
 49 81  1  0
 50 82  1  0
 51 83  1  0
 52 84  1  0
M  END
> <Uni-Dock RESULT> 
ENERGY=   -4.868  LOWER_BOUND=    2.115  UPPER_BOUND=   10.717
INTER + INTRA:          -4.868
INTER:                  -4.868
INTRA:                   0.000
UNBOUND:                 0.000

$$$$

     RDKit          3D

 84 92  0  0  0  0  0  0  0  0999 V2000
   23.0978    4.0758   33.1779 C   0  0  0  0  0  0  0  0  0  0  0  0
   23.3586    4.2204   31.8064 C   0  0  0  0  0  0  0  0  0  0  0  0
   22.6159    3.4783   30.8827 C   0  0  0  0  0  0  0  0  0  0  0  0
   21.6259    2.6139   31.3351 C   0  0  0  0  0  0  0  0  0  0  0  0
   21.3647    2.4695   32.6997 C   0  0  0  0  0  0  0  0  0  0  0  0
   22.1036    3.2042   33.6241 C   0  0  0  0  0  0  0  0  0  0  0  0
   31.1704    3.3343   30.5228 C   0  0  0  0  0  0  0  0  0  0  0  0
   32.2872    2.7233   31.0864 C   0  0  0  0  0  0  0  0  0  0  0  0
   32.9469    3.3007   32.1656 C   0  0  0  0  0  0  0  0  0  0  0  0
   32.4863    4.5079   32.6919 C   0  0  0  0  0  0  0  0  0  0  0  0
   31.3633    5.1288   32.1367 C   0  0  0  0  0  0  0  0  0  0  0  0
   30.6991    4.5427   31.0532 C   0  0  0  0  0  0  0  0  0  0  0  0
   24.9694    7.4779   30.7093 N   0  0  0  0  0  0  0  0  0  0  0  0
   24.1371    6.4737   31.1120 C   0  0  0  0  0  0  0  0  0  0  0  0
   22.7370    7.0099   31.2262 C   0  0  0  0  0  0  0  0  0  0  0  0
   22.9527    8.4992   31.2670 C   0  0  0  0  0  0  0  0  0  0  0  0
   24.3291    8.6856   30.6490 C   0  0  0  0  0  0  0  0  0  0  0  0
   26.9285    5.4383   30.7681 N   0  0  0  0  0  0  0  0  0  0  0  0
   28.0791    4.6921   30.7445 C   0  0  0  0  0  0  0  0  0  0  0  0
   27.7446    3.3986   31.1052 C   0  0  0  0  0  0  0  0  0  0  0  0
   26.3549    3.3658   31.3733 C   0  0  0  0  0  0  0  0  0  0  0  0
   25.8812    4.6416   31.1705 C   0  0  0  0  0  0  0  0  0  0  0  0
   29.0798    7.5580   29.3727 N   0  0  0  0  0  0  0  0  0  0  0  0
   29.6982    8.3925   28.4700 C   0  0  0  0  0  0  0  0  0  0  0  0
   30.7459    7.7171   27.8932 C   0  0  0  0  0  0  0  0  0  0  0  0
   30.7979    6.4412   28.5146 C   0  0  0  0  0  0  0  0  0  0  0  0
   29.7778    6.3843   29.4446 C   0  0  0  0  0  0  0  0  0  0  0  0
   27.0424    9.4739   29.3290 N   0  0  0  0  0  0  0  0  0  0  0  0
   25.9202   10.2193   29.5917 C   0  0  0  0  0  0  0  0  0  0  0  0
   26.2258   11.5567   29.0874 C   0  0  0  0  0  0  0  0  0  0  0  0
   27.4366   11.5527   28.5383 C   0  0  0  0  0  0  0  0  0  0  0  0
   27.9785   10.2214   28.6629 C   0  0  0  0  0  0  0  0  0  0  0  0
   24.7104    9.9190   30.1708 C   0  0  0  0  0  0  0  0  0  0  0  0
   24.4048    5.1628   31.3567 C   0  0  0  0  0  0  0  0  0  0  0  0
   29.5287    5.2061   30.4415 C   0  0  0  0  0  0  0  0  0  0  0  0
   29.2046    9.8701   28.1887 C   0  0  0  0  0  0  0  0  0  0  0  0
   23.6935   11.0112   30.2594 C   0  0  0  0  0  0  0  0  0  0  0  0
   23.5575   11.7849   31.4197 C   0  0  0  0  0  0  0  0  0  0  0  0
   22.5880   12.7798   31.4734 C   0  0  0  0  0  0  0  0  0  0  0  0
   21.7515   13.0256   30.3839 C   0  0  0  0  0  0  0  0  0  0  0  0
   21.8908   12.2693   29.2210 C   0  0  0  0  0  0  0  0  0  0  0  0
   22.8537   11.2632   29.1616 C   0  0  0  0  0  0  0  0  0  0  0  0
   30.0874   10.7908   27.4414 C   0  0  0  0  0  0  0  0  0  0  0  0
   31.2714   11.2722   28.0109 C   0  0  0  0  0  0  0  0  0  0  0  0
   32.0962   12.1216   27.2782 C   0  0  0  0  0  0  0  0  0  0  0  0
   31.7596   12.5013   25.9778 C   0  0  0  0  0  0  0  0  0  0  0  0
   30.5815   12.0227   25.4037 C   0  0  0  0  0  0  0  0  0  0  0  0
   29.7546   11.1649   26.1317 C   0  0  0  0  0  0  0  0  0  0  0  0
   33.2459   12.5709   27.8647 O   0  0  0  0  0  0  0  0  0  0  0  0
   22.4697   13.5118   32.6214 O   0  0  0  0  0  0  0  0  0  0  0  0
   20.9082    1.9102   30.4083 O   0  0  0  0  0  0  0  0  0  0  0  0
   32.7649    1.5395   30.5974 O   0  0  0  0  0  0  0  0  0  0  0  0
   23.6751    4.6623   33.8898 H   0  0  0  0  0  0  0  0  0  0  0  0
   22.8059    3.5974   29.8183 H   0  0  0  0  0  0  0  0  0  0  0  0
   20.5944    1.7927   33.0538 H   0  0  0  0  0  0  0  0  0  0  0  0
   21.9100    3.1091   34.6884 H   0  0  0  0  0  0  0  0  0  0  0  0
   30.6532    2.8950   29.6733 H   0  0  0  0  0  0  0  0  0  0  0  0
   33.8171    2.8141   32.5933 H   0  0  0  0  0  0  0  0  0  0  0  0
   32.9907    4.9668   33.5385 H   0  0  0  0  0  0  0  0  0  0  0  0
   30.9983    6.0700   32.5472 H   0  0  0  0  0  0  0  0  0  0  0  0
   22.1950    6.6753   32.1189 H   0  0  0  0  0  0  0  0  0  0  0  0
   22.1542    6.7275   30.3384 H   0  0  0  0  0  0  0  0  0  0  0  0
   22.1381    8.9945   30.7292 H   0  0  0  0  0  0  0  0  0  0  0  0
   22.9580    8.8488   32.3091 H   0  0  0  0  0  0  0  0  0  0  0  0
   26.7858    6.4281   30.5580 H   0  0  0  0  0  0  0  0  0  0  0  0
   28.4223    2.5638   31.1913 H   0  0  0  0  0  0  0  0  0  0  0  0
   25.7709    2.5150   31.6975 H   0  0  0  0  0  0  0  0  0  0  0  0
   28.2250    7.8433   29.8550 H   0  0  0  0  0  0  0  0  0  0  0  0
   31.4069    8.1009   27.1291 H   0  0  0  0  0  0  0  0  0  0  0  0
   31.5220    5.6627   28.3245 H   0  0  0  0  0  0  0  0  0  0  0  0
   25.5834   12.4170   29.1473 H   0  0  0  0  0  0  0  0  0  0  0  0
   27.9288   12.3992   28.0943 H   0  0  0  0  0  0  0  0  0  0  0  0
   24.2105   11.5857   32.2624 H   0  0  0  0  0  0  0  0  0  0  0  0
   20.9959   13.7996   30.4194 H   0  0  0  0  0  0  0  0  0  0  0  0
   21.2554   12.4512   28.3615 H   0  0  0  0  0  0  0  0  0  0  0  0
   22.9773   10.6530   28.2684 H   0  0  0  0  0  0  0  0  0  0  0  0
   31.5357   10.9832   29.0237 H   0  0  0  0  0  0  0  0  0  0  0  0
   32.4018   13.1587   25.3996 H   0  0  0  0  0  0  0  0  0  0  0  0
   30.3027   12.3093   24.3948 H   0  0  0  0  0  0  0  0  0  0  0  0
   28.8312   10.7837   25.6960 H   0  0  0  0  0  0  0  0  0  0  0  0
   33.6833   13.1766   27.2458 H   0  0  0  0  0  0  0  0  0  0  0  0
   21.7117   14.1041   32.5168 H   0  0  0  0  0  0  0  0  0  0  0  0
   20.1684    1.4898   30.8714 H   0  0  0  0  0  0  0  0  0  0  0  0
   32.1533    1.2512   29.8988 H   0  0  0  0  0  0  0  0  0  0  0  0
 25 26  2  0
 26 27  1  0
 27 23  1  0
 28 29  1  0
  1  2  2  0
  3  4  2  0
  7  8  2  0
 14 15  1  0
 29 30  1  0
 30 31  2  0
 31 32  1  0
 32 28  2  0
 15 16  1  0
 29 33  2  0
 17 33  1  0
 16 17  1  0
 14 34  2  0
 22 34  1  0
 17 13  2  0
 27 35  2  0
 19 35  1  0
 18 19  1  0
 24 36  2  0
 32 36  1  0
  8  9  1  0
  4  5  1  0
 37 38  2  0
  9 10  2  0
 38 39  1  0
  2  3  1  0
 39 40  2  0
 10 11  1  0
 40 41  1  0
 19 20  2  0
 41 42  2  0
 42 37  1  0
 33 37  1  0
 20 21  1  0
 21 22  2  0
 43 44  2  0
 22 18  1  0
 44 45  1  0
 23 24  1  0
 45 46  2  0
  5  6  2  0
 46 47  1  0
 11 12  2  0
 47 48  2  0
 48 43  1  0
 36 43  1  0
 12  7  1  0
 45 49  1  0
 13 14  1  0
 39 50  1  0
 35 12  1  0
 34  2  1  0
  6  1  1  0
  4 51  1  0
 24 25  1  0
  8 52  1  0
  1 53  1  0
  3 54  1  0
  5 55  1  0
  6 56  1  0
  7 57  1  0
  9 58  1  0
 10 59  1  0
 11 60  1  0
 15 61  1  0
 15 62  1  0
 16 63  1  0
 16 64  1  0
 18 65  1  0
 20 66  1  0
 21 67  1  0
 23 68  1  0
 25 69  1  0
 26 70  1  0
 30 71  1  0
 31 72  1  0
 38 73  1  0
 40 74  1  0
 41 75  1  0
 42 76  1  0
 44 77  1  0
 46 78  1  0
 47 79  1  0
 48 80  1  0
 49 81  1  0
 50 82  1  0
 51 83  1  0
 52 84  1  0
M  END
> <Uni-Dock RESULT> 
ENERGY=   -4.853  LOWER_BOUND=    1.751  UPPER_BOUND=   10.913
INTER + INTRA:          -4.853
INTER:                  -4.853
INTRA:                   0.000
UNBOUND:                 0.000

$$$$

     RDKit          3D

 84 92  0  0  0  0  0  0  0  0999 V2000
   33.8087    8.6242   29.5767 C   0  0  0  0  0  0  0  0  0  0  0  0
   32.8986    9.1800   30.4893 C   0  0  0  0  0  0  0  0  0  0  0  0
   33.3621   10.0542   31.4774 C   0  0  0  0  0  0  0  0  0  0  0  0
   34.7154   10.3658   31.5374 C   0  0  0  0  0  0  0  0  0  0  0  0
   35.6222    9.8141   30.6294 C   0  0  0  0  0  0  0  0  0  0  0  0
   35.1661    8.9403   29.6450 C   0  0  0  0  0  0  0  0  0  0  0  0
   28.5209    3.3484   33.6963 C   0  0  0  0  0  0  0  0  0  0  0  0
   28.5847    1.9841   33.9662 C   0  0  0  0  0  0  0  0  0  0  0  0
   28.3540    1.0479   32.9644 C   0  0  0  0  0  0  0  0  0  0  0  0
   28.0540    1.4785   31.6717 C   0  0  0  0  0  0  0  0  0  0  0  0
   27.9910    2.8461   31.3878 C   0  0  0  0  0  0  0  0  0  0  0  0
   28.2281    3.7858   32.3976 C   0  0  0  0  0  0  0  0  0  0  0  0
   29.2751    9.3841   29.3768 N   0  0  0  0  0  0  0  0  0  0  0  0
   30.6105    9.5561   29.6014 C   0  0  0  0  0  0  0  0  0  0  0  0
   31.0846   10.7686   28.8491 C   0  0  0  0  0  0  0  0  0  0  0  0
   29.9819   10.9928   27.8492 C   0  0  0  0  0  0  0  0  0  0  0  0
   28.7893   10.2685   28.4527 C   0  0  0  0  0  0  0  0  0  0  0  0
   29.5858    7.2097   31.1592 N   0  0  0  0  0  0  0  0  0  0  0  0
   29.4361    6.0903   31.9376 C   0  0  0  0  0  0  0  0  0  0  0  0
   30.6685    5.8043   32.4981 C   0  0  0  0  0  0  0  0  0  0  0  0
   31.5948    6.7672   32.0302 C   0  0  0  0  0  0  0  0  0  0  0  0
   30.9011    7.6126   31.1952 C   0  0  0  0  0  0  0  0  0  0  0  0
   26.2821    6.8183   31.1506 N   0  0  0  0  0  0  0  0  0  0  0  0
   24.9367    7.0339   31.3433 C   0  0  0  0  0  0  0  0  0  0  0  0
   24.5272    6.3090   32.4356 C   0  0  0  0  0  0  0  0  0  0  0  0
   25.6595    5.5806   32.8873 C   0  0  0  0  0  0  0  0  0  0  0  0
   26.7185    5.8910   32.0560 C   0  0  0  0  0  0  0  0  0  0  0  0
   26.1055    9.0126   29.4252 N   0  0  0  0  0  0  0  0  0  0  0  0
   26.3564    9.9828   28.4871 C   0  0  0  0  0  0  0  0  0  0  0  0
   25.0405   10.3800   27.9902 C   0  0  0  0  0  0  0  0  0  0  0  0
   24.1018    9.6986   28.6397 C   0  0  0  0  0  0  0  0  0  0  0  0
   24.7569    8.8242   29.5821 C   0  0  0  0  0  0  0  0  0  0  0  0
   27.5140   10.5621   28.0251 C   0  0  0  0  0  0  0  0  0  0  0  0
   31.4629    8.8439   30.3863 C   0  0  0  0  0  0  0  0  0  0  0  0
   28.1355    5.2332   32.1137 C   0  0  0  0  0  0  0  0  0  0  0  0
   24.0799    7.9933   30.4204 C   0  0  0  0  0  0  0  0  0  0  0  0
   27.3881   11.6373   26.9941 C   0  0  0  0  0  0  0  0  0  0  0  0
   27.5078   11.3511   25.6276 C   0  0  0  0  0  0  0  0  0  0  0  0
   27.4039   12.3793   24.6978 C   0  0  0  0  0  0  0  0  0  0  0  0
   27.1740   13.6940   25.1050 C   0  0  0  0  0  0  0  0  0  0  0  0
   27.0396   13.9838   26.4622 C   0  0  0  0  0  0  0  0  0  0  0  0
   27.1518   12.9607   27.4021 C   0  0  0  0  0  0  0  0  0  0  0  0
   22.6050    7.9392   30.5037 C   0  0  0  0  0  0  0  0  0  0  0  0
   21.8988    6.8250   30.0369 C   0  0  0  0  0  0  0  0  0  0  0  0
   20.5112    6.7896   30.1461 C   0  0  0  0  0  0  0  0  0  0  0  0
   19.8102    7.8527   30.7178 C   0  0  0  0  0  0  0  0  0  0  0  0
   20.5088    8.9654   31.1872 C   0  0  0  0  0  0  0  0  0  0  0  0
   21.9009    9.0026   31.0866 C   0  0  0  0  0  0  0  0  0  0  0  0
   19.8542    5.6849   29.6820 O   0  0  0  0  0  0  0  0  0  0  0  0
   27.5359   12.0737   23.3723 O   0  0  0  0  0  0  0  0  0  0  0  0
   35.1376   11.2325   32.5068 O   0  0  0  0  0  0  0  0  0  0  0  0
   28.8776    1.5268   35.2206 O   0  0  0  0  0  0  0  0  0  0  0  0
   33.4389    7.9505   28.8063 H   0  0  0  0  0  0  0  0  0  0  0  0
   32.6581   10.4974   32.1782 H   0  0  0  0  0  0  0  0  0  0  0  0
   36.6790   10.0542   30.6775 H   0  0  0  0  0  0  0  0  0  0  0  0
   35.8560    8.5069   28.9271 H   0  0  0  0  0  0  0  0  0  0  0  0
   28.6911    4.0879   34.4750 H   0  0  0  0  0  0  0  0  0  0  0  0
   28.4052   -0.0120   33.1898 H   0  0  0  0  0  0  0  0  0  0  0  0
   27.8764    0.7563   30.8789 H   0  0  0  0  0  0  0  0  0  0  0  0
   27.7606    3.1864   30.3786 H   0  0  0  0  0  0  0  0  0  0  0  0
   32.0461   10.6375   28.3383 H   0  0  0  0  0  0  0  0  0  0  0  0
   31.1671   11.6250   29.5328 H   0  0  0  0  0  0  0  0  0  0  0  0
   29.8403   12.0688   27.7066 H   0  0  0  0  0  0  0  0  0  0  0  0
   30.2508   10.5366   26.8859 H   0  0  0  0  0  0  0  0  0  0  0  0
   28.8968    7.7132   30.5972 H   0  0  0  0  0  0  0  0  0  0  0  0
   30.8950    4.9812   33.1573 H   0  0  0  0  0  0  0  0  0  0  0  0
   32.6504    6.8250   32.2589 H   0  0  0  0  0  0  0  0  0  0  0  0
   26.8007    7.3288   30.4330 H   0  0  0  0  0  0  0  0  0  0  0  0
   23.5289    6.2906   32.8494 H   0  0  0  0  0  0  0  0  0  0  0  0
   25.6880    4.8818   33.7104 H   0  0  0  0  0  0  0  0  0  0  0  0
   24.8483   11.1050   27.2196 H   0  0  0  0  0  0  0  0  0  0  0  0
   23.0420    9.7764   28.4772 H   0  0  0  0  0  0  0  0  0  0  0  0
   27.6884   10.3268   25.3202 H   0  0  0  0  0  0  0  0  0  0  0  0
   27.0910   14.4984   24.3857 H   0  0  0  0  0  0  0  0  0  0  0  0
   26.8526   14.9980   26.7970 H   0  0  0  0  0  0  0  0  0  0  0  0
   27.0590   13.1618   28.4682 H   0  0  0  0  0  0  0  0  0  0  0  0
   22.4391    5.9972   29.5875 H   0  0  0  0  0  0  0  0  0  0  0  0
   18.7287    7.8281   30.8109 H   0  0  0  0  0  0  0  0  0  0  0  0
   19.9801    9.8021   31.6323 H   0  0  0  0  0  0  0  0  0  0  0  0
   22.4597    9.8654   31.4486 H   0  0  0  0  0  0  0  0  0  0  0  0
   18.9017    5.8314   29.7940 H   0  0  0  0  0  0  0  0  0  0  0  0
   27.5083   12.9029   22.8742 H   0  0  0  0  0  0  0  0  0  0  0  0
   36.0579   11.4627   32.3104 H   0  0  0  0  0  0  0  0  0  0  0  0
   29.0721    2.3046   35.7703 H   0  0  0  0  0  0  0  0  0  0  0  0
 25 26  2  0
 26 27  1  0
 27 23  1  0
 28 29  1  0
  1  2  2  0
  3  4  2  0
  7  8  2  0
 14 15  1  0
 29 30  1  0
 30 31  2  0
 31 32  1  0
 32 28  2  0
 15 16  1  0
 29 33  2  0
 17 33  1  0
 16 17  1  0
 14 34  2  0
 22 34  1  0
 17 13  2  0
 27 35  2  0
 19 35  1  0
 18 19  1  0
 24 36  2  0
 32 36  1  0
  8  9  1  0
  4  5  1  0
 37 38  2  0
  9 10  2  0
 38 39  1  0
  2  3  1  0
 39 40  2  0
 10 11  1  0
 40 41  1  0
 19 20  2  0
 41 42  2  0
 42 37  1  0
 33 37  1  0
 20 21  1  0
 21 22  2  0
 43 44  2  0
 22 18  1  0
 44 45  1  0
 23 24  1  0
 45 46  2  0
  5  6  2  0
 46 47  1  0
 11 12  2  0
 47 48  2  0
 48 43  1  0
 36 43  1  0
 12  7  1  0
 45 49  1  0
 13 14  1  0
 39 50  1  0
 35 12  1  0
 34  2  1  0
  6  1  1  0
  4 51  1  0
 24 25  1  0
  8 52  1  0
  1 53  1  0
  3 54  1  0
  5 55  1  0
  6 56  1  0
  7 57  1  0
  9 58  1  0
 10 59  1  0
 11 60  1  0
 15 61  1  0
 15 62  1  0
 16 63  1  0
 16 64  1  0
 18 65  1  0
 20 66  1  0
 21 67  1  0
 23 68  1  0
 25 69  1  0
 26 70  1  0
 30 71  1  0
 31 72  1  0
 38 73  1  0
 40 74  1  0
 41 75  1  0
 42 76  1  0
 44 77  1  0
 46 78  1  0
 47 79  1  0
 48 80  1  0
 49 81  1  0
 50 82  1  0
 51 83  1  0
 52 84  1  0
M  END
> <Uni-Dock RESULT> 
ENERGY=   -4.824  LOWER_BOUND=    2.849  UPPER_BOUND=    7.928
INTER + INTRA:          -4.824
INTER:                  -4.824
INTRA:                   0.000
UNBOUND:                 0.000

$$$$

     RDKit          3D

 84 92  0  0  0  0  0  0  0  0999 V2000
   29.6005    1.9895   30.5637 C   0  0  0  0  0  0  0  0  0  0  0  0
   29.2254    2.9115   31.5532 C   0  0  0  0  0  0  0  0  0  0  0  0
   29.6694    2.7301   32.8667 C   0  0  0  0  0  0  0  0  0  0  0  0
   30.4812    1.6439   33.1723 C   0  0  0  0  0  0  0  0  0  0  0  0
   30.8560    0.7259   32.1885 C   0  0  0  0  0  0  0  0  0  0  0  0
   30.4140    0.9005   30.8790 C   0  0  0  0  0  0  0  0  0  0  0  0
   21.3234    3.8977   31.3468 C   0  0  0  0  0  0  0  0  0  0  0  0
   20.1682    3.2230   30.9615 C   0  0  0  0  0  0  0  0  0  0  0  0
   19.7846    3.1719   29.6261 C   0  0  0  0  0  0  0  0  0  0  0  0
   20.5651    3.8046   28.6580 C   0  0  0  0  0  0  0  0  0  0  0  0
   21.7294    4.4819   29.0325 C   0  0  0  0  0  0  0  0  0  0  0  0
   22.1149    4.5277   30.3772 C   0  0  0  0  0  0  0  0  0  0  0  0
   28.2856    6.3947   30.3725 N   0  0  0  0  0  0  0  0  0  0  0  0
   28.9074    5.2421   30.7578 C   0  0  0  0  0  0  0  0  0  0  0  0
   30.3965    5.4390   30.6901 C   0  0  0  0  0  0  0  0  0  0  0  0
   30.5320    6.6607   29.8210 C   0  0  0  0  0  0  0  0  0  0  0  0
   29.1733    7.3346   29.9245 C   0  0  0  0  0  0  0  0  0  0  0  0
   25.9329    4.9426   30.9704 N   0  0  0  0  0  0  0  0  0  0  0  0
   24.6475    4.4915   31.1302 C   0  0  0  0  0  0  0  0  0  0  0  0
   24.7171    3.1892   31.5929 C   0  0  0  0  0  0  0  0  0  0  0  0
   26.0839    2.8358   31.6978 C   0  0  0  0  0  0  0  0  0  0  0  0
   26.8097    3.9326   31.2937 C   0  0  0  0  0  0  0  0  0  0  0  0
   24.1772    7.7317   30.5165 N   0  0  0  0  0  0  0  0  0  0  0  0
   23.6668    8.9995   30.6779 C   0  0  0  0  0  0  0  0  0  0  0  0
   22.4341    8.9043   31.2762 C   0  0  0  0  0  0  0  0  0  0  0  0
   22.1636    7.5187   31.4306 C   0  0  0  0  0  0  0  0  0  0  0  0
   23.2428    6.8204   30.9243 C   0  0  0  0  0  0  0  0  0  0  0  0
   26.5791    9.0644   29.9890 N   0  0  0  0  0  0  0  0  0  0  0  0
   27.8641    9.3839   29.6275 C   0  0  0  0  0  0  0  0  0  0  0  0
   27.8160   10.7992   29.2655 C   0  0  0  0  0  0  0  0  0  0  0  0
   26.5819   11.2579   29.4498 C   0  0  0  0  0  0  0  0  0  0  0  0
   25.7685   10.1683   29.9324 C   0  0  0  0  0  0  0  0  0  0  0  0
   29.0314    8.6598   29.5793 C   0  0  0  0  0  0  0  0  0  0  0  0
   28.3774    4.0670   31.1917 C   0  0  0  0  0  0  0  0  0  0  0  0
   23.3285    5.2655   30.7861 C   0  0  0  0  0  0  0  0  0  0  0  0
   24.4489   10.3029   30.2357 C   0  0  0  0  0  0  0  0  0  0  0  0
   30.2738    9.3740   29.1537 C   0  0  0  0  0  0  0  0  0  0  0  0
   30.7136    9.3371   27.8238 C   0  0  0  0  0  0  0  0  0  0  0  0
   31.8839    9.9975   27.4677 C   0  0  0  0  0  0  0  0  0  0  0  0
   32.6250   10.7047   28.4152 C   0  0  0  0  0  0  0  0  0  0  0  0
   32.1857   10.7577   29.7373 C   0  0  0  0  0  0  0  0  0  0  0  0
   31.0185   10.0906   30.1054 C   0  0  0  0  0  0  0  0  0  0  0  0
   23.7201   11.5872   30.1657 C   0  0  0  0  0  0  0  0  0  0  0  0
   22.7497   11.8105   29.1827 C   0  0  0  0  0  0  0  0  0  0  0  0
   22.0624   13.0210   29.1512 C   0  0  0  0  0  0  0  0  0  0  0  0
   22.3267   14.0195   30.0901 C   0  0  0  0  0  0  0  0  0  0  0  0
   23.2914   13.8019   31.0741 C   0  0  0  0  0  0  0  0  0  0  0  0
   23.9783   12.5869   31.1144 C   0  0  0  0  0  0  0  0  0  0  0  0
   21.1197   13.2041   28.1789 O   0  0  0  0  0  0  0  0  0  0  0  0
   32.2957    9.9355   26.1661 O   0  0  0  0  0  0  0  0  0  0  0  0
   30.9094    1.4987   34.4625 O   0  0  0  0  0  0  0  0  0  0  0  0
   19.3809    2.5907   31.8829 O   0  0  0  0  0  0  0  0  0  0  0  0
   29.2569    2.1419   29.5425 H   0  0  0  0  0  0  0  0  0  0  0  0
   29.3918    3.4497   33.6338 H   0  0  0  0  0  0  0  0  0  0  0  0
   31.4868   -0.1239   32.4267 H   0  0  0  0  0  0  0  0  0  0  0  0
   30.7006    0.2001   30.1002 H   0  0  0  0  0  0  0  0  0  0  0  0
   21.6268    3.9506   32.3896 H   0  0  0  0  0  0  0  0  0  0  0  0
   18.8809    2.6439   29.3408 H   0  0  0  0  0  0  0  0  0  0  0  0
   20.2782    3.7677   27.6101 H   0  0  0  0  0  0  0  0  0  0  0  0
   22.3436    4.9743   28.2789 H   0  0  0  0  0  0  0  0  0  0  0  0
   30.9458    4.5952   30.2556 H   0  0  0  0  0  0  0  0  0  0  0  0
   30.7947    5.6334   31.6957 H   0  0  0  0  0  0  0  0  0  0  0  0
   31.3715    7.2646   30.1796 H   0  0  0  0  0  0  0  0  0  0  0  0
   30.7251    6.3615   28.7811 H   0  0  0  0  0  0  0  0  0  0  0  0
   26.2726    5.8516   30.6504 H   0  0  0  0  0  0  0  0  0  0  0  0
   23.8813    2.5443   31.8142 H   0  0  0  0  0  0  0  0  0  0  0  0
   26.4915    1.8843   32.0115 H   0  0  0  0  0  0  0  0  0  0  0  0
   25.1236    7.5857   30.1594 H   0  0  0  0  0  0  0  0  0  0  0  0
   21.7955    9.7311   31.5530 H   0  0  0  0  0  0  0  0  0  0  0  0
   21.2643    7.0808   31.8382 H   0  0  0  0  0  0  0  0  0  0  0  0
   28.6402   11.3874   28.9033 H   0  0  0  0  0  0  0  0  0  0  0  0
   26.2484   12.2616   29.2569 H   0  0  0  0  0  0  0  0  0  0  0  0
   30.1324    8.7834   27.0944 H   0  0  0  0  0  0  0  0  0  0  0  0
   33.5362   11.2218   28.1437 H   0  0  0  0  0  0  0  0  0  0  0  0
   32.7439   11.3090   30.4857 H   0  0  0  0  0  0  0  0  0  0  0  0
   30.6583   10.1096   31.1327 H   0  0  0  0  0  0  0  0  0  0  0  0
   22.5434   11.0386   28.4474 H   0  0  0  0  0  0  0  0  0  0  0  0
   21.7897   14.9632   30.0741 H   0  0  0  0  0  0  0  0  0  0  0  0
   23.5118   14.5679   31.8107 H   0  0  0  0  0  0  0  0  0  0  0  0
   24.7348   12.4032   31.8770 H   0  0  0  0  0  0  0  0  0  0  0  0
   20.7645   14.1025   28.2688 H   0  0  0  0  0  0  0  0  0  0  0  0
   33.1519   10.3825   26.1060 H   0  0  0  0  0  0  0  0  0  0  0  0
   31.5816    0.8011   34.4691 H   0  0  0  0  0  0  0  0  0  0  0  0
   19.8271    2.6702   32.7429 H   0  0  0  0  0  0  0  0  0  0  0  0
 25 26  2  0
 26 27  1  0
 27 23  1  0
 28 29  1  0
  1  2  2  0
  3  4  2  0
  7  8  2  0
 14 15  1  0
 29 30  1  0
 30 31  2  0
 31 32  1  0
 32 28  2  0
 15 16  1  0
 29 33  2  0
 17 33  1  0
 16 17  1  0
 14 34  2  0
 22 34  1  0
 17 13  2  0
 27 35  2  0
 19 35  1  0
 18 19  1  0
 24 36  2  0
 32 36  1  0
  8  9  1  0
  4  5  1  0
 37 38  2  0
  9 10  2  0
 38 39  1  0
  2  3  1  0
 39 40  2  0
 10 11  1  0
 40 41  1  0
 19 20  2  0
 41 42  2  0
 42 37  1  0
 33 37  1  0
 20 21  1  0
 21 22  2  0
 43 44  2  0
 22 18  1  0
 44 45  1  0
 23 24  1  0
 45 46  2  0
  5  6  2  0
 46 47  1  0
 11 12  2  0
 47 48  2  0
 48 43  1  0
 36 43  1  0
 12  7  1  0
 45 49  1  0
 13 14  1  0
 39 50  1  0
 35 12  1  0
 34  2  1  0
  6  1  1  0
  4 51  1  0
 24 25  1  0
  8 52  1  0
  1 53  1  0
  3 54  1  0
  5 55  1  0
  6 56  1  0
  7 57  1  0
  9 58  1  0
 10 59  1  0
 11 60  1  0
 15 61  1  0
 15 62  1  0
 16 63  1  0
 16 64  1  0
 18 65  1  0
 20 66  1  0
 21 67  1  0
 23 68  1  0
 25 69  1  0
 26 70  1  0
 30 71  1  0
 31 72  1  0
 38 73  1  0
 40 74  1  0
 41 75  1  0
 42 76  1  0
 44 77  1  0
 46 78  1  0
 47 79  1  0
 48 80  1  0
 49 81  1  0
 50 82  1  0
 51 83  1  0
 52 84  1  0
M  END
> <Uni-Dock RESULT> 
ENERGY=   -4.753  LOWER_BOUND=    1.934  UPPER_BOUND=    8.021
INTER + INTRA:          -4.753
INTER:                  -4.753
INTRA:                   0.000
UNBOUND:                 0.000

$$$$

     RDKit          3D

 84 92  0  0  0  0  0  0  0  0999 V2000
   33.6929   10.7655   26.0292 C   0  0  0  0  0  0  0  0  0  0  0  0
   33.1729   11.0930   27.2910 C   0  0  0  0  0  0  0  0  0  0  0  0
   33.9382   11.8640   28.1717 C   0  0  0  0  0  0  0  0  0  0  0  0
   35.1991   12.3006   27.7826 C   0  0  0  0  0  0  0  0  0  0  0  0
   35.7176   11.9761   26.5268 C   0  0  0  0  0  0  0  0  0  0  0  0
   34.9606   11.2060   25.6469 C   0  0  0  0  0  0  0  0  0  0  0  0
   30.5847    4.4557   30.8552 C   0  0  0  0  0  0  0  0  0  0  0  0
   30.8035    3.0808   30.8505 C   0  0  0  0  0  0  0  0  0  0  0  0
   30.2510    2.2747   29.8617 C   0  0  0  0  0  0  0  0  0  0  0  0
   29.4664    2.8481   28.8606 C   0  0  0  0  0  0  0  0  0  0  0  0
   29.2429    4.2282   28.8528 C   0  0  0  0  0  0  0  0  0  0  0  0
   29.8042    5.0374   29.8473 C   0  0  0  0  0  0  0  0  0  0  0  0
   29.3927   11.0791   27.6355 N   0  0  0  0  0  0  0  0  0  0  0  0
   30.7052   11.3536   27.3803 C   0  0  0  0  0  0  0  0  0  0  0  0
   30.8078   12.7010   26.7209 C   0  0  0  0  0  0  0  0  0  0  0  0
   29.4004   12.9485   26.2476 C   0  0  0  0  0  0  0  0  0  0  0  0
   28.5564   12.0293   27.1159 C   0  0  0  0  0  0  0  0  0  0  0  0
   30.4463    8.7210   28.7890 N   0  0  0  0  0  0  0  0  0  0  0  0
   30.6496    7.4948   29.3690 C   0  0  0  0  0  0  0  0  0  0  0  0
   32.0134    7.2608   29.3823 C   0  0  0  0  0  0  0  0  0  0  0  0
   32.6523    8.3689   28.7755 C   0  0  0  0  0  0  0  0  0  0  0  0
   31.6591    9.2470   28.4072 C   0  0  0  0  0  0  0  0  0  0  0  0
   27.4045    7.9994   29.9269 N   0  0  0  0  0  0  0  0  0  0  0  0
   26.2241    8.0476   30.6326 C   0  0  0  0  0  0  0  0  0  0  0  0
   26.2893    7.1397   31.6611 C   0  0  0  0  0  0  0  0  0  0  0  0
   27.5381    6.4749   31.5375 C   0  0  0  0  0  0  0  0  0  0  0  0
   28.1898    7.0045   30.4404 C   0  0  0  0  0  0  0  0  0  0  0  0
   26.4956   10.3829   28.7798 N   0  0  0  0  0  0  0  0  0  0  0  0
   26.3318   11.4947   27.9916 C   0  0  0  0  0  0  0  0  0  0  0  0
   24.9101   11.8209   28.0858 C   0  0  0  0  0  0  0  0  0  0  0  0
   24.3166   10.9635   28.9103 C   0  0  0  0  0  0  0  0  0  0  0  0
   25.3158   10.0379   29.3863 C   0  0  0  0  0  0  0  0  0  0  0  0
   27.2030   12.2479   27.2413 C   0  0  0  0  0  0  0  0  0  0  0  0
   31.8205   10.6298   27.6669 C   0  0  0  0  0  0  0  0  0  0  0  0
   29.5498    6.4932   29.8636 C   0  0  0  0  0  0  0  0  0  0  0  0
   25.0421    9.0336   30.2627 C   0  0  0  0  0  0  0  0  0  0  0  0
   26.6511   13.4376   26.5238 C   0  0  0  0  0  0  0  0  0  0  0  0
   26.2570   13.3581   25.1814 C   0  0  0  0  0  0  0  0  0  0  0  0
   25.7657   14.4898   24.5407 C   0  0  0  0  0  0  0  0  0  0  0  0
   25.6514   15.7045   25.2177 C   0  0  0  0  0  0  0  0  0  0  0  0
   26.0281   15.7874   26.5575 C   0  0  0  0  0  0  0  0  0  0  0  0
   26.5307   14.6602   27.2054 C   0  0  0  0  0  0  0  0  0  0  0  0
   23.7119    8.8182   30.8707 C   0  0  0  0  0  0  0  0  0  0  0  0
   22.9296    7.7137   30.5158 C   0  0  0  0  0  0  0  0  0  0  0  0
   21.6892    7.5220   31.1186 C   0  0  0  0  0  0  0  0  0  0  0  0
   21.2121    8.4180   32.0768 C   0  0  0  0  0  0  0  0  0  0  0  0
   21.9886    9.5199   32.4364 C   0  0  0  0  0  0  0  0  0  0  0  0
   23.2363    9.7126   31.8402 C   0  0  0  0  0  0  0  0  0  0  0  0
   20.9529    6.4313   30.7499 O   0  0  0  0  0  0  0  0  0  0  0  0
   25.3994   14.3867   23.2281 O   0  0  0  0  0  0  0  0  0  0  0  0
   35.9195   13.0624   28.6600 O   0  0  0  0  0  0  0  0  0  0  0  0
   31.5682    2.4856   31.8147 O   0  0  0  0  0  0  0  0  0  0  0  0
   33.0882   10.1715   25.3469 H   0  0  0  0  0  0  0  0  0  0  0  0
   33.5335   12.1311   29.1454 H   0  0  0  0  0  0  0  0  0  0  0  0
   36.7030   12.3138   26.2236 H   0  0  0  0  0  0  0  0  0  0  0  0
   35.3454   10.9494   24.6644 H   0  0  0  0  0  0  0  0  0  0  0  0
   31.0053    5.0931   31.6292 H   0  0  0  0  0  0  0  0  0  0  0  0
   30.4285    1.2045   29.8718 H   0  0  0  0  0  0  0  0  0  0  0  0
   29.0329    2.2290   28.0793 H   0  0  0  0  0  0  0  0  0  0  0  0
   28.6336    4.6804   28.0705 H   0  0  0  0  0  0  0  0  0  0  0  0
   31.5093   12.7412   25.8789 H   0  0  0  0  0  0  0  0  0  0  0  0
   31.1063   13.4578   27.4596 H   0  0  0  0  0  0  0  0  0  0  0  0
   29.1699   14.0137   26.3491 H   0  0  0  0  0  0  0  0  0  0  0  0
   29.3041   12.6607   25.1911 H   0  0  0  0  0  0  0  0  0  0  0  0
   29.5752    9.2248   28.6116 H   0  0  0  0  0  0  0  0  0  0  0  0
   32.5071    6.3813   29.7648 H   0  0  0  0  0  0  0  0  0  0  0  0
   33.7125    8.5017   28.6075 H   0  0  0  0  0  0  0  0  0  0  0  0
   27.5910    8.6551   29.1654 H   0  0  0  0  0  0  0  0  0  0  0  0
   25.5234    6.9621   32.4028 H   0  0  0  0  0  0  0  0  0  0  0  0
   27.9053    5.6750   32.1634 H   0  0  0  0  0  0  0  0  0  0  0  0
   24.4102   12.6227   27.5724 H   0  0  0  0  0  0  0  0  0  0  0  0
   23.2717   10.9546   29.1633 H   0  0  0  0  0  0  0  0  0  0  0  0
   26.3512   12.4105   24.6625 H   0  0  0  0  0  0  0  0  0  0  0  0
   25.2685   16.5886   24.7244 H   0  0  0  0  0  0  0  0  0  0  0  0
   25.9388   16.7206   27.1022 H   0  0  0  0  0  0  0  0  0  0  0  0
   26.8396   14.7004   28.2487 H   0  0  0  0  0  0  0  0  0  0  0  0
   23.2943    7.0160   29.7680 H   0  0  0  0  0  0  0  0  0  0  0  0
   20.2482    8.2703   32.5544 H   0  0  0  0  0  0  0  0  0  0  0  0
   21.6325   10.2281   33.1777 H   0  0  0  0  0  0  0  0  0  0  0  0
   23.8533   10.5692   32.1110 H   0  0  0  0  0  0  0  0  0  0  0  0
   20.1082    6.4629   31.2261 H   0  0  0  0  0  0  0  0  0  0  0  0
   25.1504   15.2700   22.9211 H   0  0  0  0  0  0  0  0  0  0  0  0
   36.6865   13.4105   28.1814 H   0  0  0  0  0  0  0  0  0  0  0  0
   31.9231    3.1952   32.3766 H   0  0  0  0  0  0  0  0  0  0  0  0
 25 26  2  0
 26 27  1  0
 27 23  1  0
 28 29  1  0
  1  2  2  0
  3  4  2  0
  7  8  2  0
 14 15  1  0
 29 30  1  0
 30 31  2  0
 31 32  1  0
 32 28  2  0
 15 16  1  0
 29 33  2  0
 17 33  1  0
 16 17  1  0
 14 34  2  0
 22 34  1  0
 17 13  2  0
 27 35  2  0
 19 35  1  0
 18 19  1  0
 24 36  2  0
 32 36  1  0
  8  9  1  0
  4  5  1  0
 37 38  2  0
  9 10  2  0
 38 39  1  0
  2  3  1  0
 39 40  2  0
 10 11  1  0
 40 41  1  0
 19 20  2  0
 41 42  2  0
 42 37  1  0
 33 37  1  0
 20 21  1  0
 21 22  2  0
 43 44  2  0
 22 18  1  0
 44 45  1  0
 23 24  1  0
 45 46  2  0
  5  6  2  0
 46 47  1  0
 11 12  2  0
 47 48  2  0
 48 43  1  0
 36 43  1  0
 12  7  1  0
 45 49  1  0
 13 14  1  0
 39 50  1  0
 35 12  1  0
 34  2  1  0
  6  1  1  0
  4 51  1  0
 24 25  1  0
  8 52  1  0
  1 53  1  0
  3 54  1  0
  5 55  1  0
  6 56  1  0
  7 57  1  0
  9 58  1  0
 10 59  1  0
 11 60  1  0
 15 61  1  0
 15 62  1  0
 16 63  1  0
 16 64  1  0
 18 65  1  0
 20 66  1  0
 21 67  1  0
 23 68  1  0
 25 69  1  0
 26 70  1  0
 30 71  1  0
 31 72  1  0
 38 73  1  0
 40 74  1  0
 41 75  1  0
 42 76  1  0
 44 77  1  0
 46 78  1  0
 47 79  1  0
 48 80  1  0
 49 81  1  0
 50 82  1  0
 51 83  1  0
 52 84  1  0
M  END
> <Uni-Dock RESULT> 
ENERGY=   -4.716  LOWER_BOUND=    3.241  UPPER_BOUND=    8.748
INTER + INTRA:          -4.716
INTER:                  -4.716
INTRA:                   0.000
UNBOUND:                 0.000

$$$$
