
     RDKit          3D

 84 92  0  0  0  0  0  0  0  0999 V2000
   23.3201    2.4848   33.5972 C   0  0  0  0  0  0  0  0  0  0  0  0
   23.5741    2.4857   32.2186 C   0  0  0  0  0  0  0  0  0  0  0  0
   23.0979    1.4326   31.4292 C   0  0  0  0  0  0  0  0  0  0  0  0
   22.3754    0.4004   32.0212 C   0  0  0  0  0  0  0  0  0  0  0  0
   22.1241    0.3956   33.3930 C   0  0  0  0  0  0  0  0  0  0  0  0
   22.6011    1.4415   34.1832 C   0  0  0  0  0  0  0  0  0  0  0  0
   22.5100    9.3496   32.4009 C   0  0  0  0  0  0  0  0  0  0  0  0
   21.6418   10.1208   33.1708 C   0  0  0  0  0  0  0  0  0  0  0  0
   20.5697   10.7894   32.5880 C   0  0  0  0  0  0  0  0  0  0  0  0
   20.3602   10.6903   31.2105 C   0  0  0  0  0  0  0  0  0  0  0  0
   21.2218    9.9173   30.4281 C   0  0  0  0  0  0  0  0  0  0  0  0
   22.2993    9.2471   31.0210 C   0  0  0  0  0  0  0  0  0  0  0  0
   26.5031    4.7201   31.2962 N   0  0  0  0  0  0  0  0  0  0  0  0
   25.6807    3.7195   31.7263 C   0  0  0  0  0  0  0  0  0  0  0  0
   26.5006    2.6730   32.4265 C   0  0  0  0  0  0  0  0  0  0  0  0
   27.9104    3.0037   32.0091 C   0  0  0  0  0  0  0  0  0  0  0  0
   27.8253    4.4192   31.4584 C   0  0  0  0  0  0  0  0  0  0  0  0
   24.0755    6.0336   30.7651 N   0  0  0  0  0  0  0  0  0  0  0  0
   23.1124    6.8790   30.2890 C   0  0  0  0  0  0  0  0  0  0  0  0
   21.9906    6.1251   30.0089 C   0  0  0  0  0  0  0  0  0  0  0  0
   22.2607    4.7893   30.4127 C   0  0  0  0  0  0  0  0  0  0  0  0
   23.5362    4.7827   30.9264 C   0  0  0  0  0  0  0  0  0  0  0  0
   25.7515    8.6671   29.6136 N   0  0  0  0  0  0  0  0  0  0  0  0
   26.5846    9.6234   29.0866 C   0  0  0  0  0  0  0  0  0  0  0  0
   25.8134   10.6486   28.5936 C   0  0  0  0  0  0  0  0  0  0  0  0
   24.4615   10.3219   28.8798 C   0  0  0  0  0  0  0  0  0  0  0  0
   24.4590    9.1105   29.5414 C   0  0  0  0  0  0  0  0  0  0  0  0
   28.1132    7.2828   30.2204 N   0  0  0  0  0  0  0  0  0  0  0  0
   29.0572    6.3736   30.6278 C   0  0  0  0  0  0  0  0  0  0  0  0
   30.3438    7.0066   30.3372 C   0  0  0  0  0  0  0  0  0  0  0  0
   30.1351    8.1917   29.7753 C   0  0  0  0  0  0  0  0  0  0  0  0
   28.7093    8.3900   29.6740 C   0  0  0  0  0  0  0  0  0  0  0  0
   28.9774    5.1175   31.1795 C   0  0  0  0  0  0  0  0  0  0  0  0
   24.3275    3.6035   31.6145 C   0  0  0  0  0  0  0  0  0  0  0  0
   23.2139    8.4325   30.1946 C   0  0  0  0  0  0  0  0  0  0  0  0
   28.1598    9.5039   29.1216 C   0  0  0  0  0  0  0  0  0  0  0  0
   30.2662    4.4157   31.4614 C   0  0  0  0  0  0  0  0  0  0  0  0
   30.8281    3.5748   30.4903 C   0  0  0  0  0  0  0  0  0  0  0  0
   32.0345    2.9307   30.7456 C   0  0  0  0  0  0  0  0  0  0  0  0
   32.6984    3.1070   31.9528 C   0  0  0  0  0  0  0  0  0  0  0  0
   32.1497    3.9444   32.9241 C   0  0  0  0  0  0  0  0  0  0  0  0
   30.9375    4.5947   32.6783 C   0  0  0  0  0  0  0  0  0  0  0  0
   28.9709   10.6063   28.5712 C   0  0  0  0  0  0  0  0  0  0  0  0
   29.4352   10.5473   27.2539 C   0  0  0  0  0  0  0  0  0  0  0  0
   30.2027   11.5940   26.7484 C   0  0  0  0  0  0  0  0  0  0  0  0
   30.5092   12.7015   27.5331 C   0  0  0  0  0  0  0  0  0  0  0  0
   30.0466   12.7627   28.8486 C   0  0  0  0  0  0  0  0  0  0  0  0
   29.2799   11.7167   29.3661 C   0  0  0  0  0  0  0  0  0  0  0  0
   30.6796   11.5588   25.4674 O   0  0  0  0  0  0  0  0  0  0  0  0
   32.6011    2.1090   29.8094 O   0  0  0  0  0  0  0  0  0  0  0  0
   21.9117   -0.6080   31.2247 O   0  0  0  0  0  0  0  0  0  0  0  0
   21.8209   10.2464   34.5188 O   0  0  0  0  0  0  0  0  0  0  0  0
   23.6986    3.3068   34.2023 H   0  0  0  0  0  0  0  0  0  0  0  0
   23.2989    1.4300   30.3615 H   0  0  0  0  0  0  0  0  0  0  0  0
   21.5625   -0.4051   33.8610 H   0  0  0  0  0  0  0  0  0  0  0  0
   22.4207    1.4519   35.2542 H   0  0  0  0  0  0  0  0  0  0  0  0
   23.3522    8.8188   32.8458 H   0  0  0  0  0  0  0  0  0  0  0  0
   19.9020   11.3857   33.2030 H   0  0  0  0  0  0  0  0  0  0  0  0
   19.5305   11.2122   30.7434 H   0  0  0  0  0  0  0  0  0  0  0  0
   21.0602    9.8357   29.3536 H   0  0  0  0  0  0  0  0  0  0  0  0
   26.3950    2.7697   33.5147 H   0  0  0  0  0  0  0  0  0  0  0  0
   26.2445    1.6481   32.1369 H   0  0  0  0  0  0  0  0  0  0  0  0
   28.5783    2.9058   32.8727 H   0  0  0  0  0  0  0  0  0  0  0  0
   28.2318    2.3089   31.2244 H   0  0  0  0  0  0  0  0  0  0  0  0
   25.0500    6.2210   31.0040 H   0  0  0  0  0  0  0  0  0  0  0  0
   21.0627    6.4972   29.6048 H   0  0  0  0  0  0  0  0  0  0  0  0
   21.5880    3.9462   30.3698 H   0  0  0  0  0  0  0  0  0  0  0  0
   26.1234    7.8106   30.0275 H   0  0  0  0  0  0  0  0  0  0  0  0
   26.1793   11.5430   28.1148 H   0  0  0  0  0  0  0  0  0  0  0  0
   23.5962   10.9338   28.6719 H   0  0  0  0  0  0  0  0  0  0  0  0
   31.3161    6.5918   30.5339 H   0  0  0  0  0  0  0  0  0  0  0  0
   30.9008    8.8746   29.4536 H   0  0  0  0  0  0  0  0  0  0  0  0
   30.2888    3.4548   29.5547 H   0  0  0  0  0  0  0  0  0  0  0  0
   33.6378    2.6020   32.1358 H   0  0  0  0  0  0  0  0  0  0  0  0
   32.6627    4.0980   33.8669 H   0  0  0  0  0  0  0  0  0  0  0  0
   30.5006    5.2572   33.4209 H   0  0  0  0  0  0  0  0  0  0  0  0
   29.1847    9.6744   26.6576 H   0  0  0  0  0  0  0  0  0  0  0  0
   31.1111   13.5077   27.1279 H   0  0  0  0  0  0  0  0  0  0  0  0
   30.2822   13.6175   29.4753 H   0  0  0  0  0  0  0  0  0  0  0  0
   28.9185   11.7496   30.3931 H   0  0  0  0  0  0  0  0  0  0  0  0
   30.4334   10.6882   25.1058 H   0  0  0  0  0  0  0  0  0  0  0  0
   32.0263    2.1659   29.0246 H   0  0  0  0  0  0  0  0  0  0  0  0
   21.4879   -1.2628   31.7999 H   0  0  0  0  0  0  0  0  0  0  0  0
   22.6409    9.7665   34.7350 H   0  0  0  0  0  0  0  0  0  0  0  0
 25 26  2  0
 26 27  1  0
 27 23  1  0
 28 29  1  0
  1  2  2  0
  3  4  2  0
  7  8  2  0
 14 15  1  0
 29 30  1  0
 30 31  2  0
 31 32  1  0
 32 28  2  0
 15 16  1  0
 29 33  2  0
 17 33  1  0
 16 17  1  0
 14 34  2  0
 22 34  1  0
 17 13  2  0
 27 35  2  0
 19 35  1  0
 18 19  1  0
 24 36  2  0
 32 36  1  0
  8  9  1  0
  4  5  1  0
 37 38  2  0
  9 10  2  0
 38 39  1  0
  2  3  1  0
 39 40  2  0
 10 11  1  0
 40 41  1  0
 19 20  2  0
 41 42  2  0
 42 37  1  0
 33 37  1  0
 20 21  1  0
 21 22  2  0
 43 44  2  0
 22 18  1  0
 44 45  1  0
 23 24  1  0
 45 46  2  0
  5  6  2  0
 46 47  1  0
 11 12  2  0
 47 48  2  0
 48 43  1  0
 36 43  1  0
 12  7  1  0
 45 49  1  0
 13 14  1  0
 39 50  1  0
 35 12  1  0
 34  2  1  0
  6  1  1  0
  4 51  1  0
 24 25  1  0
  8 52  1  0
  1 53  1  0
  3 54  1  0
  5 55  1  0
  6 56  1  0
  7 57  1  0
  9 58  1  0
 10 59  1  0
 11 60  1  0
 15 61  1  0
 15 62  1  0
 16 63  1  0
 16 64  1  0
 18 65  1  0
 20 66  1  0
 21 67  1  0
 23 68  1  0
 25 69  1  0
 26 70  1  0
 30 71  1  0
 31 72  1  0
 38 73  1  0
 40 74  1  0
 41 75  1  0
 42 76  1  0
 44 77  1  0
 46 78  1  0
 47 79  1  0
 48 80  1  0
 49 81  1  0
 50 82  1  0
 51 83  1  0
 52 84  1  0
M  END
> <Uni-Dock RESULT> 
ENERGY=   -5.231  LOWER_BOUND=    0.000  UPPER_BOUND=    0.000
INTER + INTRA:          -5.231
INTER:                  -5.231
INTRA:                   0.000
UNBOUND:                 0.000

$$$$

     RDKit          3D

 84 92  0  0  0  0  0  0  0  0999 V2000
   33.5975    8.5944   29.6100 C   0  0  0  0  0  0  0  0  0  0  0  0
   32.9747    8.6432   30.8649 C   0  0  0  0  0  0  0  0  0  0  0  0
   33.6932    9.1054   31.9735 C   0  0  0  0  0  0  0  0  0  0  0  0
   35.0146    9.5141   31.8161 C   0  0  0  0  0  0  0  0  0  0  0  0
   35.6375    9.4635   30.5693 C   0  0  0  0  0  0  0  0  0  0  0  0
   34.9255    8.9992   29.4632 C   0  0  0  0  0  0  0  0  0  0  0  0
   27.2406   10.7075   27.5277 C   0  0  0  0  0  0  0  0  0  0  0  0
   27.0772   11.5018   26.3947 C   0  0  0  0  0  0  0  0  0  0  0  0
   26.4998   12.7648   26.4827 C   0  0  0  0  0  0  0  0  0  0  0  0
   26.0741   13.2448   27.7235 C   0  0  0  0  0  0  0  0  0  0  0  0
   26.2355   12.4592   28.8676 C   0  0  0  0  0  0  0  0  0  0  0  0
   26.8171   11.1886   28.7720 C   0  0  0  0  0  0  0  0  0  0  0  0
   29.9418    6.3657   31.0560 N   0  0  0  0  0  0  0  0  0  0  0  0
   31.1926    6.9102   31.0159 C   0  0  0  0  0  0  0  0  0  0  0  0
   32.2102    5.8062   30.9600 C   0  0  0  0  0  0  0  0  0  0  0  0
   31.4185    4.5874   31.3587 C   0  0  0  0  0  0  0  0  0  0  0  0
   29.9645    5.0089   31.2094 C   0  0  0  0  0  0  0  0  0  0  0  0
   29.1333    9.0260   30.6442 N   0  0  0  0  0  0  0  0  0  0  0  0
   28.4181   10.1889   30.5726 C   0  0  0  0  0  0  0  0  0  0  0  0
   29.2313   11.2121   31.0165 C   0  0  0  0  0  0  0  0  0  0  0  0
   30.5118   10.6560   31.2838 C   0  0  0  0  0  0  0  0  0  0  0  0
   30.4292    9.3155   30.9888 C   0  0  0  0  0  0  0  0  0  0  0  0
   25.9476    8.0683   30.7065 N   0  0  0  0  0  0  0  0  0  0  0  0
   24.6938    7.5271   30.8535 C   0  0  0  0  0  0  0  0  0  0  0  0
   23.7681    8.5368   30.7411 C   0  0  0  0  0  0  0  0  0  0  0  0
   24.4893    9.7283   30.4643 C   0  0  0  0  0  0  0  0  0  0  0  0
   25.8289    9.3997   30.4138 C   0  0  0  0  0  0  0  0  0  0  0  0
   26.8649    5.4443   31.0744 N   0  0  0  0  0  0  0  0  0  0  0  0
   27.6128    4.3045   31.2328 C   0  0  0  0  0  0  0  0  0  0  0  0
   26.6349    3.2249   31.3696 C   0  0  0  0  0  0  0  0  0  0  0  0
   25.4085    3.7319   31.3171 C   0  0  0  0  0  0  0  0  0  0  0  0
   25.5254    5.1595   31.1423 C   0  0  0  0  0  0  0  0  0  0  0  0
   28.9651    4.0668   31.2901 C   0  0  0  0  0  0  0  0  0  0  0  0
   31.5656    8.2208   30.9989 C   0  0  0  0  0  0  0  0  0  0  0  0
   26.9849   10.3549   29.9801 C   0  0  0  0  0  0  0  0  0  0  0  0
   24.4454    5.9819   31.0708 C   0  0  0  0  0  0  0  0  0  0  0  0
   29.3982    2.6538   31.5108 C   0  0  0  0  0  0  0  0  0  0  0  0
   29.6126    2.1869   32.8154 C   0  0  0  0  0  0  0  0  0  0  0  0
   30.0032    0.8680   33.0239 C   0  0  0  0  0  0  0  0  0  0  0  0
   30.1852   -0.0018   31.9563 C   0  0  0  0  0  0  0  0  0  0  0  0
   29.9709    0.4519   30.6549 C   0  0  0  0  0  0  0  0  0  0  0  0
   29.5800    1.7752   30.4344 C   0  0  0  0  0  0  0  0  0  0  0  0
   23.0583    5.4899   31.1711 C   0  0  0  0  0  0  0  0  0  0  0  0
   22.4642    5.3136   32.4242 C   0  0  0  0  0  0  0  0  0  0  0  0
   21.1548    4.8453   32.5040 C   0  0  0  0  0  0  0  0  0  0  0  0
   20.4260    4.5563   31.3543 C   0  0  0  0  0  0  0  0  0  0  0  0
   21.0171    4.7318   30.1021 C   0  0  0  0  0  0  0  0  0  0  0  0
   22.3305    5.1968   30.0114 C   0  0  0  0  0  0  0  0  0  0  0  0
   20.5515    4.6528   33.7159 O   0  0  0  0  0  0  0  0  0  0  0  0
   30.2139    0.3921   34.2895 O   0  0  0  0  0  0  0  0  0  0  0  0
   35.6878    9.9727   32.9128 O   0  0  0  0  0  0  0  0  0  0  0  0
   27.4746   11.0616   25.1646 O   0  0  0  0  0  0  0  0  0  0  0  0
   33.0307    8.2294   28.7553 H   0  0  0  0  0  0  0  0  0  0  0  0
   33.2128    9.1386   32.9474 H   0  0  0  0  0  0  0  0  0  0  0  0
   36.6664    9.7797   30.4393 H   0  0  0  0  0  0  0  0  0  0  0  0
   35.3956    8.9466   28.4855 H   0  0  0  0  0  0  0  0  0  0  0  0
   27.6937    9.7173   27.4726 H   0  0  0  0  0  0  0  0  0  0  0  0
   26.3807   13.3712   25.5896 H   0  0  0  0  0  0  0  0  0  0  0  0
   25.6168   14.2263   27.8039 H   0  0  0  0  0  0  0  0  0  0  0  0
   25.9068   12.8311   29.8376 H   0  0  0  0  0  0  0  0  0  0  0  0
   32.5937    5.6913   29.9380 H   0  0  0  0  0  0  0  0  0  0  0  0
   33.0564    5.9540   31.6398 H   0  0  0  0  0  0  0  0  0  0  0  0
   31.7013    3.7440   30.7182 H   0  0  0  0  0  0  0  0  0  0  0  0
   31.6363    4.3356   32.4032 H   0  0  0  0  0  0  0  0  0  0  0  0
   28.8376    8.0647   30.4698 H   0  0  0  0  0  0  0  0  0  0  0  0
   28.9548   12.2514   31.0952 H   0  0  0  0  0  0  0  0  0  0  0  0
   31.3956   11.1815   31.6123 H   0  0  0  0  0  0  0  0  0  0  0  0
   26.7854    7.4871   30.7649 H   0  0  0  0  0  0  0  0  0  0  0  0
   22.6979    8.4263   30.8149 H   0  0  0  0  0  0  0  0  0  0  0  0
   24.0667   10.7030   30.2703 H   0  0  0  0  0  0  0  0  0  0  0  0
   26.8539    2.1803   31.4995 H   0  0  0  0  0  0  0  0  0  0  0  0
   24.4956    3.1691   31.3948 H   0  0  0  0  0  0  0  0  0  0  0  0
   29.4627    2.8874   33.6323 H   0  0  0  0  0  0  0  0  0  0  0  0
   30.4860   -1.0260   32.1343 H   0  0  0  0  0  0  0  0  0  0  0  0
   30.1002   -0.2197   29.8133 H   0  0  0  0  0  0  0  0  0  0  0  0
   29.4006    2.1423   29.4273 H   0  0  0  0  0  0  0  0  0  0  0  0
   23.0497    5.5452   33.3096 H   0  0  0  0  0  0  0  0  0  0  0  0
   19.4085    4.1888   31.4311 H   0  0  0  0  0  0  0  0  0  0  0  0
   20.4634    4.5053   29.1960 H   0  0  0  0  0  0  0  0  0  0  0  0
   22.8052    5.3317   29.0403 H   0  0  0  0  0  0  0  0  0  0  0  0
   21.2298    4.8307   34.3923 H   0  0  0  0  0  0  0  0  0  0  0  0
   29.9777    1.1225   34.8898 H   0  0  0  0  0  0  0  0  0  0  0  0
   36.5995   10.1561   32.6400 H   0  0  0  0  0  0  0  0  0  0  0  0
   27.7947   10.1495   25.2871 H   0  0  0  0  0  0  0  0  0  0  0  0
 25 26  2  0
 26 27  1  0
 27 23  1  0
 28 29  1  0
  1  2  2  0
  3  4  2  0
  7  8  2  0
 14 15  1  0
 29 30  1  0
 30 31  2  0
 31 32  1  0
 32 28  2  0
 15 16  1  0
 29 33  2  0
 17 33  1  0
 16 17  1  0
 14 34  2  0
 22 34  1  0
 17 13  2  0
 27 35  2  0
 19 35  1  0
 18 19  1  0
 24 36  2  0
 32 36  1  0
  8  9  1  0
  4  5  1  0
 37 38  2  0
  9 10  2  0
 38 39  1  0
  2  3  1  0
 39 40  2  0
 10 11  1  0
 40 41  1  0
 19 20  2  0
 41 42  2  0
 42 37  1  0
 33 37  1  0
 20 21  1  0
 21 22  2  0
 43 44  2  0
 22 18  1  0
 44 45  1  0
 23 24  1  0
 45 46  2  0
  5  6  2  0
 46 47  1  0
 11 12  2  0
 47 48  2  0
 48 43  1  0
 36 43  1  0
 12  7  1  0
 45 49  1  0
 13 14  1  0
 39 50  1  0
 35 12  1  0
 34  2  1  0
  6  1  1  0
  4 51  1  0
 24 25  1  0
  8 52  1  0
  1 53  1  0
  3 54  1  0
  5 55  1  0
  6 56  1  0
  7 57  1  0
  9 58  1  0
 10 59  1  0
 11 60  1  0
 15 61  1  0
 15 62  1  0
 16 63  1  0
 16 64  1  0
 18 65  1  0
 20 66  1  0
 21 67  1  0
 23 68  1  0
 25 69  1  0
 26 70  1  0
 30 71  1  0
 31 72  1  0
 38 73  1  0
 40 74  1  0
 41 75  1  0
 42 76  1  0
 44 77  1  0
 46 78  1  0
 47 79  1  0
 48 80  1  0
 49 81  1  0
 50 82  1  0
 51 83  1  0
 52 84  1  0
M  END
> <Uni-Dock RESULT> 
ENERGY=   -4.827  LOWER_BOUND=    2.869  UPPER_BOUND=    8.473
INTER + INTRA:          -4.827
INTER:                  -4.827
INTRA:                   0.000
UNBOUND:                 0.000

$$$$

     RDKit          3D

 84 92  0  0  0  0  0  0  0  0999 V2000
   22.8099   11.7404   28.9079 C   0  0  0  0  0  0  0  0  0  0  0  0
   23.3886   11.5389   30.1687 C   0  0  0  0  0  0  0  0  0  0  0  0
   23.1585   12.4686   31.1893 C   0  0  0  0  0  0  0  0  0  0  0  0
   22.3556   13.5785   30.9415 C   0  0  0  0  0  0  0  0  0  0  0  0
   21.7814   13.7829   29.6872 C   0  0  0  0  0  0  0  0  0  0  0  0
   22.0124   12.8605   28.6665 C   0  0  0  0  0  0  0  0  0  0  0  0
   22.0432    4.7781   29.2968 C   0  0  0  0  0  0  0  0  0  0  0  0
   20.9854    4.1300   28.6625 C   0  0  0  0  0  0  0  0  0  0  0  0
   20.0600    3.3884   29.3905 C   0  0  0  0  0  0  0  0  0  0  0  0
   20.1929    3.2880   30.7774 C   0  0  0  0  0  0  0  0  0  0  0  0
   21.2474    3.9361   31.4254 C   0  0  0  0  0  0  0  0  0  0  0  0
   22.1756    4.6806   30.6868 C   0  0  0  0  0  0  0  0  0  0  0  0
   26.3635    9.1826   30.0270 N   0  0  0  0  0  0  0  0  0  0  0  0
   25.5016   10.2382   29.9545 C   0  0  0  0  0  0  0  0  0  0  0  0
   26.1689   11.3717   29.2283 C   0  0  0  0  0  0  0  0  0  0  0  0
   27.6237   10.9783   29.2384 C   0  0  0  0  0  0  0  0  0  0  0  0
   27.6183    9.4984   29.5903 C   0  0  0  0  0  0  0  0  0  0  0  0
   24.0859    7.8160   30.9465 N   0  0  0  0  0  0  0  0  0  0  0  0
   23.2335    6.9144   31.5207 C   0  0  0  0  0  0  0  0  0  0  0  0
   22.2429    7.6245   32.1686 C   0  0  0  0  0  0  0  0  0  0  0  0
   22.4599    9.0035   31.9013 C   0  0  0  0  0  0  0  0  0  0  0  0
   23.5731    9.0792   31.0977 C   0  0  0  0  0  0  0  0  0  0  0  0
   25.8853    5.0367   31.2751 N   0  0  0  0  0  0  0  0  0  0  0  0
   26.7827    4.0108   31.4440 C   0  0  0  0  0  0  0  0  0  0  0  0
   26.1134    2.9281   31.9626 C   0  0  0  0  0  0  0  0  0  0  0  0
   24.7463    3.2984   32.0637 C   0  0  0  0  0  0  0  0  0  0  0  0
   24.6320    4.5927   31.5983 C   0  0  0  0  0  0  0  0  0  0  0  0
   28.0835    6.4846   30.3089 N   0  0  0  0  0  0  0  0  0  0  0  0
   28.9364    7.4393   29.8141 C   0  0  0  0  0  0  0  0  0  0  0  0
   30.2292    6.7657   29.6905 C   0  0  0  0  0  0  0  0  0  0  0  0
   30.1158    5.5126   30.1155 C   0  0  0  0  0  0  0  0  0  0  0  0
   28.7499    5.3076   30.5333 C   0  0  0  0  0  0  0  0  0  0  0  0
   28.7753    8.7624   29.4793 C   0  0  0  0  0  0  0  0  0  0  0  0
   24.2209   10.3424   30.4086 C   0  0  0  0  0  0  0  0  0  0  0  0
   23.2937    5.3633   31.3700 C   0  0  0  0  0  0  0  0  0  0  0  0
   28.3064    4.1277   31.0424 C   0  0  0  0  0  0  0  0  0  0  0  0
   29.9847    9.4923   28.9918 C   0  0  0  0  0  0  0  0  0  0  0  0
   30.7967   10.1815   29.9037 C   0  0  0  0  0  0  0  0  0  0  0  0
   31.9303   10.8508   29.4538 C   0  0  0  0  0  0  0  0  0  0  0  0
   32.2762   10.8484   28.1086 C   0  0  0  0  0  0  0  0  0  0  0  0
   31.4770   10.1628   27.1938 C   0  0  0  0  0  0  0  0  0  0  0  0
   30.3352    9.4886   27.6351 C   0  0  0  0  0  0  0  0  0  0  0  0
   29.1824    2.9539   31.2188 C   0  0  0  0  0  0  0  0  0  0  0  0
   29.9525    2.8197   32.3778 C   0  0  0  0  0  0  0  0  0  0  0  0
   30.7776    1.7077   32.5295 C   0  0  0  0  0  0  0  0  0  0  0  0
   30.8421    0.7242   31.5472 C   0  0  0  0  0  0  0  0  0  0  0  0
   30.0739    0.8560   30.3893 C   0  0  0  0  0  0  0  0  0  0  0  0
   29.2468    1.9690   30.2258 C   0  0  0  0  0  0  0  0  0  0  0  0
   31.5502    1.5552   33.6472 O   0  0  0  0  0  0  0  0  0  0  0  0
   32.7377   11.5261   30.3284 O   0  0  0  0  0  0  0  0  0  0  0  0
   22.1376   14.4629   31.9597 O   0  0  0  0  0  0  0  0  0  0  0  0
   20.8292    4.2001   27.3077 O   0  0  0  0  0  0  0  0  0  0  0  0
   22.9988   11.0131   28.1201 H   0  0  0  0  0  0  0  0  0  0  0  0
   23.6109   12.3158   32.1652 H   0  0  0  0  0  0  0  0  0  0  0  0
   21.1555   14.6452   29.4868 H   0  0  0  0  0  0  0  0  0  0  0  0
   21.5788   13.0060   27.6813 H   0  0  0  0  0  0  0  0  0  0  0  0
   22.7735    5.3643   28.7382 H   0  0  0  0  0  0  0  0  0  0  0  0
   19.2409    2.8902   28.8802 H   0  0  0  0  0  0  0  0  0  0  0  0
   19.4804    2.7073   31.3555 H   0  0  0  0  0  0  0  0  0  0  0  0
   21.3530    3.8619   32.5075 H   0  0  0  0  0  0  0  0  0  0  0  0
   25.8004   11.4340   28.1963 H   0  0  0  0  0  0  0  0  0  0  0  0
   26.0306   12.3449   29.7116 H   0  0  0  0  0  0  0  0  0  0  0  0
   28.0669   11.1975   28.2601 H   0  0  0  0  0  0  0  0  0  0  0  0
   28.1518   11.5509   30.0098 H   0  0  0  0  0  0  0  0  0  0  0  0
   24.9660    7.6611   30.4531 H   0  0  0  0  0  0  0  0  0  0  0  0
   21.4259    7.2015   32.7312 H   0  0  0  0  0  0  0  0  0  0  0  0
   21.8510    9.8343   32.2243 H   0  0  0  0  0  0  0  0  0  0  0  0
   26.1798    5.9425   30.9064 H   0  0  0  0  0  0  0  0  0  0  0  0
   26.5486    1.9724   32.2080 H   0  0  0  0  0  0  0  0  0  0  0  0
   23.9334    2.6664   32.3892 H   0  0  0  0  0  0  0  0  0  0  0  0
   31.1410    7.2006   29.3221 H   0  0  0  0  0  0  0  0  0  0  0  0
   30.9090    4.7873   30.1420 H   0  0  0  0  0  0  0  0  0  0  0  0
   30.5040   10.1670   30.9500 H   0  0  0  0  0  0  0  0  0  0  0  0
   33.1628   11.3708   27.7739 H   0  0  0  0  0  0  0  0  0  0  0  0
   31.7411   10.1451   26.1423 H   0  0  0  0  0  0  0  0  0  0  0  0
   29.7066    8.9424   26.9368 H   0  0  0  0  0  0  0  0  0  0  0  0
   29.8876    3.5981   33.1329 H   0  0  0  0  0  0  0  0  0  0  0  0
   31.4917   -0.1346   31.6767 H   0  0  0  0  0  0  0  0  0  0  0  0
   30.1177    0.0999   29.6112 H   0  0  0  0  0  0  0  0  0  0  0  0
   28.6474    2.0866   29.3238 H   0  0  0  0  0  0  0  0  0  0  0  0
   31.4328    2.3652   34.1757 H   0  0  0  0  0  0  0  0  0  0  0  0
   32.3673   11.3585   31.2140 H   0  0  0  0  0  0  0  0  0  0  0  0
   21.6137   15.1958   31.6025 H   0  0  0  0  0  0  0  0  0  0  0  0
   21.5910    4.7030   26.9668 H   0  0  0  0  0  0  0  0  0  0  0  0
 25 26  2  0
 26 27  1  0
 27 23  1  0
 28 29  1  0
  1  2  2  0
  3  4  2  0
  7  8  2  0
 14 15  1  0
 29 30  1  0
 30 31  2  0
 31 32  1  0
 32 28  2  0
 15 16  1  0
 29 33  2  0
 17 33  1  0
 16 17  1  0
 14 34  2  0
 22 34  1  0
 17 13  2  0
 27 35  2  0
 19 35  1  0
 18 19  1  0
 24 36  2  0
 32 36  1  0
  8  9  1  0
  4  5  1  0
 37 38  2  0
  9 10  2  0
 38 39  1  0
  2  3  1  0
 39 40  2  0
 10 11  1  0
 40 41  1  0
 19 20  2  0
 41 42  2  0
 42 37  1  0
 33 37  1  0
 20 21  1  0
 21 22  2  0
 43 44  2  0
 22 18  1  0
 44 45  1  0
 23 24  1  0
 45 46  2  0
  5  6  2  0
 46 47  1  0
 11 12  2  0
 47 48  2  0
 48 43  1  0
 36 43  1  0
 12  7  1  0
 45 49  1  0
 13 14  1  0
 39 50  1  0
 35 12  1  0
 34  2  1  0
  6  1  1  0
  4 51  1  0
 24 25  1  0
  8 52  1  0
  1 53  1  0
  3 54  1  0
  5 55  1  0
  6 56  1  0
  7 57  1  0
  9 58  1  0
 10 59  1  0
 11 60  1  0
 15 61  1  0
 15 62  1  0
 16 63  1  0
 16 64  1  0
 18 65  1  0
 20 66  1  0
 21 67  1  0
 23 68  1  0
 25 69  1  0
 26 70  1  0
 30 71  1  0
 31 72  1  0
 38 73  1  0
 40 74  1  0
 41 75  1  0
 42 76  1  0
 44 77  1  0
 46 78  1  0
 47 79  1  0
 48 80  1  0
 49 81  1  0
 50 82  1  0
 51 83  1  0
 52 84  1  0
M  END
> <Uni-Dock RESULT> 
ENERGY=   -4.810  LOWER_BOUND=    2.311  UPPER_BOUND=    8.019
INTER + INTRA:          -4.810
INTER:                  -4.810
INTRA:                   0.000
UNBOUND:                 0.000

$$$$

     RDKit          3D

 84 92  0  0  0  0  0  0  0  0999 V2000
   27.1354   13.0378   28.2666 C   0  0  0  0  0  0  0  0  0  0  0  0
   27.0141   11.8833   27.4807 C   0  0  0  0  0  0  0  0  0  0  0  0
   26.8507   12.0060   26.0961 C   0  0  0  0  0  0  0  0  0  0  0  0
   26.8145   13.2711   25.5164 C   0  0  0  0  0  0  0  0  0  0  0  0
   26.9316   14.4212   26.2964 C   0  0  0  0  0  0  0  0  0  0  0  0
   27.0902   14.3025   27.6772 C   0  0  0  0  0  0  0  0  0  0  0  0
   31.7982    9.0099   31.6200 C   0  0  0  0  0  0  0  0  0  0  0  0
   32.9014    9.5643   32.2658 C   0  0  0  0  0  0  0  0  0  0  0  0
   34.1971    9.2233   31.8902 C   0  0  0  0  0  0  0  0  0  0  0  0
   34.3978    8.3096   30.8528 C   0  0  0  0  0  0  0  0  0  0  0  0
   33.2998    7.7494   30.1952 C   0  0  0  0  0  0  0  0  0  0  0  0
   31.9982    8.0966   30.5784 C   0  0  0  0  0  0  0  0  0  0  0  0
   25.9536    8.8596   29.5190 N   0  0  0  0  0  0  0  0  0  0  0  0
   26.0273   10.0264   28.8150 C   0  0  0  0  0  0  0  0  0  0  0  0
   24.7145   10.7498   28.9192 C   0  0  0  0  0  0  0  0  0  0  0  0
   23.7764    9.6887   29.4344 C   0  0  0  0  0  0  0  0  0  0  0  0
   24.6899    8.5931   29.9629 C   0  0  0  0  0  0  0  0  0  0  0  0
   28.7235    8.7888   29.0471 N   0  0  0  0  0  0  0  0  0  0  0  0
   30.0246    8.3957   28.8991 C   0  0  0  0  0  0  0  0  0  0  0  0
   30.5285    9.0203   27.7760 C   0  0  0  0  0  0  0  0  0  0  0  0
   29.5185    9.8883   27.2792 C   0  0  0  0  0  0  0  0  0  0  0  0
   28.4393    9.7608   28.1218 C   0  0  0  0  0  0  0  0  0  0  0  0
   28.9305    5.9029   30.6900 N   0  0  0  0  0  0  0  0  0  0  0  0
   28.8288    4.6802   31.3071 C   0  0  0  0  0  0  0  0  0  0  0  0
   30.0767    4.1053   31.3423 C   0  0  0  0  0  0  0  0  0  0  0  0
   30.9778    5.0408   30.7685 C   0  0  0  0  0  0  0  0  0  0  0  0
   30.2459    6.1542   30.4085 C   0  0  0  0  0  0  0  0  0  0  0  0
   26.1692    6.0939   31.1381 N   0  0  0  0  0  0  0  0  0  0  0  0
   24.8517    6.4745   31.1927 C   0  0  0  0  0  0  0  0  0  0  0  0
   24.1794    5.4086   31.9359 C   0  0  0  0  0  0  0  0  0  0  0  0
   25.0629    4.4707   32.2578 C   0  0  0  0  0  0  0  0  0  0  0  0
   26.3488    4.8775   31.7448 C   0  0  0  0  0  0  0  0  0  0  0  0
   24.1642    7.5583   30.7016 C   0  0  0  0  0  0  0  0  0  0  0  0
   27.0748   10.5533   28.1206 C   0  0  0  0  0  0  0  0  0  0  0  0
   30.8358    7.5020   29.8868 C   0  0  0  0  0  0  0  0  0  0  0  0
   27.4698    4.1222   31.8888 C   0  0  0  0  0  0  0  0  0  0  0  0
   22.6911    7.5981   30.9492 C   0  0  0  0  0  0  0  0  0  0  0  0
   21.8112    7.0508   30.0046 C   0  0  0  0  0  0  0  0  0  0  0  0
   20.4401    7.0750   30.2392 C   0  0  0  0  0  0  0  0  0  0  0  0
   19.9225    7.6342   31.4005 C   0  0  0  0  0  0  0  0  0  0  0  0
   20.7896    8.1780   32.3481 C   0  0  0  0  0  0  0  0  0  0  0  0
   22.1684    8.1603   32.1215 C   0  0  0  0  0  0  0  0  0  0  0  0
   27.4711    2.8171   32.5767 C   0  0  0  0  0  0  0  0  0  0  0  0
   27.1399    1.6534   31.8765 C   0  0  0  0  0  0  0  0  0  0  0  0
   27.1421    0.4285   32.5397 C   0  0  0  0  0  0  0  0  0  0  0  0
   27.4758    0.3444   33.8880 C   0  0  0  0  0  0  0  0  0  0  0  0
   27.8070    1.5050   34.5890 C   0  0  0  0  0  0  0  0  0  0  0  0
   27.8038    2.7383   33.9345 C   0  0  0  0  0  0  0  0  0  0  0  0
   26.8119   -0.7247   31.8834 O   0  0  0  0  0  0  0  0  0  0  0  0
   19.5652    6.5428   29.3314 O   0  0  0  0  0  0  0  0  0  0  0  0
   26.6668   13.3607   24.1612 O   0  0  0  0  0  0  0  0  0  0  0  0
   32.7426   10.4546   33.2891 O   0  0  0  0  0  0  0  0  0  0  0  0
   27.2579   12.9309   29.3430 H   0  0  0  0  0  0  0  0  0  0  0  0
   26.7514   11.1118   25.4870 H   0  0  0  0  0  0  0  0  0  0  0  0
   26.9039   15.4097   25.8520 H   0  0  0  0  0  0  0  0  0  0  0  0
   27.1769   15.1869   28.3018 H   0  0  0  0  0  0  0  0  0  0  0  0
   30.7781    9.2706   31.9031 H   0  0  0  0  0  0  0  0  0  0  0  0
   35.0458    9.6655   32.4037 H   0  0  0  0  0  0  0  0  0  0  0  0
   35.4041    8.0313   30.5547 H   0  0  0  0  0  0  0  0  0  0  0  0
   33.4524    7.0380   29.3839 H   0  0  0  0  0  0  0  0  0  0  0  0
   24.7882   11.5732   29.6411 H   0  0  0  0  0  0  0  0  0  0  0  0
   24.3559   11.1488   27.9642 H   0  0  0  0  0  0  0  0  0  0  0  0
   23.1202   10.1223   30.1978 H   0  0  0  0  0  0  0  0  0  0  0  0
   23.1651    9.3085   28.6076 H   0  0  0  0  0  0  0  0  0  0  0  0
   28.0187    8.4778   29.7167 H   0  0  0  0  0  0  0  0  0  0  0  0
   31.5255    8.9053   27.3817 H   0  0  0  0  0  0  0  0  0  0  0  0
   29.5893   10.5545   26.4328 H   0  0  0  0  0  0  0  0  0  0  0  0
   28.1107    6.4962   30.5517 H   0  0  0  0  0  0  0  0  0  0  0  0
   30.3187    3.1416   31.7615 H   0  0  0  0  0  0  0  0  0  0  0  0
   32.0485    4.9292   30.6816 H   0  0  0  0  0  0  0  0  0  0  0  0
   23.1346    5.3687   32.1867 H   0  0  0  0  0  0  0  0  0  0  0  0
   24.8471    3.5693   32.8027 H   0  0  0  0  0  0  0  0  0  0  0  0
   22.2421    6.6192   29.1054 H   0  0  0  0  0  0  0  0  0  0  0  0
   18.8538    7.6428   31.5706 H   0  0  0  0  0  0  0  0  0  0  0  0
   20.3989    8.6089   33.2633 H   0  0  0  0  0  0  0  0  0  0  0  0
   22.8582    8.5719   32.8535 H   0  0  0  0  0  0  0  0  0  0  0  0
   26.8828    1.7402   30.8245 H   0  0  0  0  0  0  0  0  0  0  0  0
   27.4698   -0.6156   34.3928 H   0  0  0  0  0  0  0  0  0  0  0  0
   28.0641    1.4565   35.6429 H   0  0  0  0  0  0  0  0  0  0  0  0
   28.0540    3.6520   34.4721 H   0  0  0  0  0  0  0  0  0  0  0  0
   26.5380   -0.4621   30.9860 H   0  0  0  0  0  0  0  0  0  0  0  0
   20.1169    6.1517   28.6298 H   0  0  0  0  0  0  0  0  0  0  0  0
   26.6031   14.3012   23.9362 H   0  0  0  0  0  0  0  0  0  0  0  0
   31.7839   10.5248   33.4487 H   0  0  0  0  0  0  0  0  0  0  0  0
 25 26  2  0
 26 27  1  0
 27 23  1  0
 28 29  1  0
  1  2  2  0
  3  4  2  0
  7  8  2  0
 14 15  1  0
 29 30  1  0
 30 31  2  0
 31 32  1  0
 32 28  2  0
 15 16  1  0
 29 33  2  0
 17 33  1  0
 16 17  1  0
 14 34  2  0
 22 34  1  0
 17 13  2  0
 27 35  2  0
 19 35  1  0
 18 19  1  0
 24 36  2  0
 32 36  1  0
  8  9  1  0
  4  5  1  0
 37 38  2  0
  9 10  2  0
 38 39  1  0
  2  3  1  0
 39 40  2  0
 10 11  1  0
 40 41  1  0
 19 20  2  0
 41 42  2  0
 42 37  1  0
 33 37  1  0
 20 21  1  0
 21 22  2  0
 43 44  2  0
 22 18  1  0
 44 45  1  0
 23 24  1  0
 45 46  2  0
  5  6  2  0
 46 47  1  0
 11 12  2  0
 47 48  2  0
 48 43  1  0
 36 43  1  0
 12  7  1  0
 45 49  1  0
 13 14  1  0
 39 50  1  0
 35 12  1  0
 34  2  1  0
  6  1  1  0
  4 51  1  0
 24 25  1  0
  8 52  1  0
  1 53  1  0
  3 54  1  0
  5 55  1  0
  6 56  1  0
  7 57  1  0
  9 58  1  0
 10 59  1  0
 11 60  1  0
 15 61  1  0
 15 62  1  0
 16 63  1  0
 16 64  1  0
 18 65  1  0
 20 66  1  0
 21 67  1  0
 23 68  1  0
 25 69  1  0
 26 70  1  0
 30 71  1  0
 31 72  1  0
 38 73  1  0
 40 74  1  0
 41 75  1  0
 42 76  1  0
 44 77  1  0
 46 78  1  0
 47 79  1  0
 48 80  1  0
 49 81  1  0
 50 82  1  0
 51 83  1  0
 52 84  1  0
M  END
> <Uni-Dock RESULT> 
ENERGY=   -4.785  LOWER_BOUND=    2.706  UPPER_BOUND=   10.268
INTER + INTRA:          -4.785
INTER:                  -4.785
INTRA:                   0.000
UNBOUND:                 0.000

$$$$

     RDKit          3D

 84 92  0  0  0  0  0  0  0  0999 V2000
   27.9781    3.7450   33.6502 C   0  0  0  0  0  0  0  0  0  0  0  0
   27.7195    3.6742   32.2743 C   0  0  0  0  0  0  0  0  0  0  0  0
   27.6467    2.4236   31.6500 C   0  0  0  0  0  0  0  0  0  0  0  0
   27.8280    1.2667   32.4027 C   0  0  0  0  0  0  0  0  0  0  0  0
   28.0887    1.3346   33.7711 C   0  0  0  0  0  0  0  0  0  0  0  0
   28.1662    2.5796   34.3954 C   0  0  0  0  0  0  0  0  0  0  0  0
   23.3015    8.9552   33.2078 C   0  0  0  0  0  0  0  0  0  0  0  0
   22.4695    9.2736   34.2791 C   0  0  0  0  0  0  0  0  0  0  0  0
   21.0852    9.2023   34.1566 C   0  0  0  0  0  0  0  0  0  0  0  0
   20.5186    8.8088   32.9419 C   0  0  0  0  0  0  0  0  0  0  0  0
   21.3424    8.4836   31.8613 C   0  0  0  0  0  0  0  0  0  0  0  0
   22.7350    8.5579   31.9912 C   0  0  0  0  0  0  0  0  0  0  0  0
   28.5100    6.9328   30.4915 N   0  0  0  0  0  0  0  0  0  0  0  0
   28.5431    5.7276   31.1307 C   0  0  0  0  0  0  0  0  0  0  0  0
   29.9703    5.3672   31.4317 C   0  0  0  0  0  0  0  0  0  0  0  0
   30.7556    6.3101   30.5568 C   0  0  0  0  0  0  0  0  0  0  0  0
   29.7545    7.3819   30.1529 C   0  0  0  0  0  0  0  0  0  0  0  0
   25.7433    6.7173   30.9380 N   0  0  0  0  0  0  0  0  0  0  0  0
   24.3854    6.8671   30.8859 C   0  0  0  0  0  0  0  0  0  0  0  0
   23.8188    5.6122   30.9840 C   0  0  0  0  0  0  0  0  0  0  0  0
   24.8732    4.6812   31.1892 C   0  0  0  0  0  0  0  0  0  0  0  0
   26.0412    5.4066   31.2115 C   0  0  0  0  0  0  0  0  0  0  0  0
   25.2690    9.6357   29.4120 N   0  0  0  0  0  0  0  0  0  0  0  0
   25.2358   10.7949   28.6762 C   0  0  0  0  0  0  0  0  0  0  0  0
   23.9263   11.1926   28.5496 C   0  0  0  0  0  0  0  0  0  0  0  0
   23.1407   10.2636   29.2818 C   0  0  0  0  0  0  0  0  0  0  0  0
   24.0016    9.3356   29.8317 C   0  0  0  0  0  0  0  0  0  0  0  0
   28.0470    9.7685   29.0557 N   0  0  0  0  0  0  0  0  0  0  0  0
   29.4012    9.5451   29.0470 C   0  0  0  0  0  0  0  0  0  0  0  0
   29.9716   10.6987   28.3513 C   0  0  0  0  0  0  0  0  0  0  0  0
   28.9929   11.5107   27.9682 C   0  0  0  0  0  0  0  0  0  0  0  0
   27.7424   10.9306   28.3949 C   0  0  0  0  0  0  0  0  0  0  0  0
   30.1893    8.5233   29.5198 C   0  0  0  0  0  0  0  0  0  0  0  0
   27.5127    4.9175   31.5040 C   0  0  0  0  0  0  0  0  0  0  0  0
   23.6075    8.2183   30.8483 C   0  0  0  0  0  0  0  0  0  0  0  0
   26.5390   11.5085   28.1386 C   0  0  0  0  0  0  0  0  0  0  0  0
   31.6605    8.6340   29.2824 C   0  0  0  0  0  0  0  0  0  0  0  0
   32.2241    8.0697   28.1293 C   0  0  0  0  0  0  0  0  0  0  0  0
   33.5916    8.1828   27.8998 C   0  0  0  0  0  0  0  0  0  0  0  0
   34.4151    8.8501   28.7975 C   0  0  0  0  0  0  0  0  0  0  0  0
   33.8636    9.4181   29.9458 C   0  0  0  0  0  0  0  0  0  0  0  0
   32.4915    9.3088   30.1866 C   0  0  0  0  0  0  0  0  0  0  0  0
   26.4032   12.7765   27.3969 C   0  0  0  0  0  0  0  0  0  0  0  0
   26.3605   12.7721   25.9996 C   0  0  0  0  0  0  0  0  0  0  0  0
   26.2352   13.9771   25.3123 C   0  0  0  0  0  0  0  0  0  0  0  0
   26.1452   15.1858   25.9959 C   0  0  0  0  0  0  0  0  0  0  0  0
   26.1874   15.1926   27.3911 C   0  0  0  0  0  0  0  0  0  0  0  0
   26.3169   13.9904   28.0893 C   0  0  0  0  0  0  0  0  0  0  0  0
   26.2017   14.0046   23.9456 O   0  0  0  0  0  0  0  0  0  0  0  0
   34.1603    7.6422   26.7786 O   0  0  0  0  0  0  0  0  0  0  0  0
   27.7389    0.0593   31.7698 O   0  0  0  0  0  0  0  0  0  0  0  0
   22.9885    9.6696   35.4786 O   0  0  0  0  0  0  0  0  0  0  0  0
   28.0367    4.7230   34.1247 H   0  0  0  0  0  0  0  0  0  0  0  0
   27.4514    2.3681   30.5827 H   0  0  0  0  0  0  0  0  0  0  0  0
   28.2314    0.4379   34.3636 H   0  0  0  0  0  0  0  0  0  0  0  0
   28.3745    2.6528   35.4589 H   0  0  0  0  0  0  0  0  0  0  0  0
   24.3875    9.0047   33.2916 H   0  0  0  0  0  0  0  0  0  0  0  0
   20.4513    9.4532   35.0020 H   0  0  0  0  0  0  0  0  0  0  0  0
   19.4397    8.7549   32.8325 H   0  0  0  0  0  0  0  0  0  0  0  0
   20.9041    8.1740   30.9129 H   0  0  0  0  0  0  0  0  0  0  0  0
   30.1968    5.5542   32.4893 H   0  0  0  0  0  0  0  0  0  0  0  0
   30.2196    4.3268   31.1962 H   0  0  0  0  0  0  0  0  0  0  0  0
   31.6142    6.6972   31.1175 H   0  0  0  0  0  0  0  0  0  0  0  0
   31.1158    5.7729   29.6716 H   0  0  0  0  0  0  0  0  0  0  0  0
   26.4826    7.4117   30.8225 H   0  0  0  0  0  0  0  0  0  0  0  0
   22.7638    5.3905   30.9599 H   0  0  0  0  0  0  0  0  0  0  0  0
   24.7827    3.6166   31.3429 H   0  0  0  0  0  0  0  0  0  0  0  0
   26.1512    9.1637   29.6171 H   0  0  0  0  0  0  0  0  0  0  0  0
   23.5777   12.0664   28.0223 H   0  0  0  0  0  0  0  0  0  0  0  0
   22.0720   10.3056   29.4316 H   0  0  0  0  0  0  0  0  0  0  0  0
   31.0153   10.8767   28.1636 H   0  0  0  0  0  0  0  0  0  0  0  0
   29.1205   12.4342   27.4326 H   0  0  0  0  0  0  0  0  0  0  0  0
   31.5577    7.5539   27.4433 H   0  0  0  0  0  0  0  0  0  0  0  0
   35.4766    8.9329   28.6038 H   0  0  0  0  0  0  0  0  0  0  0  0
   34.4940    9.9500   30.6498 H   0  0  0  0  0  0  0  0  0  0  0  0
   32.0445    9.7530   31.0721 H   0  0  0  0  0  0  0  0  0  0  0  0
   26.4318   11.8181   25.4846 H   0  0  0  0  0  0  0  0  0  0  0  0
   26.0518   16.1171   25.4479 H   0  0  0  0  0  0  0  0  0  0  0  0
   26.1241   16.1281   27.9386 H   0  0  0  0  0  0  0  0  0  0  0  0
   26.3577   13.9830   29.1778 H   0  0  0  0  0  0  0  0  0  0  0  0
   26.3528   13.0892   23.6481 H   0  0  0  0  0  0  0  0  0  0  0  0
   33.4221    7.2798   26.2557 H   0  0  0  0  0  0  0  0  0  0  0  0
   27.9469   -0.6276   32.4211 H   0  0  0  0  0  0  0  0  0  0  0  0
   23.9545    9.7171   35.3601 H   0  0  0  0  0  0  0  0  0  0  0  0
 25 26  2  0
 26 27  1  0
 27 23  1  0
 28 29  1  0
  1  2  2  0
  3  4  2  0
  7  8  2  0
 14 15  1  0
 29 30  1  0
 30 31  2  0
 31 32  1  0
 32 28  2  0
 15 16  1  0
 29 33  2  0
 17 33  1  0
 16 17  1  0
 14 34  2  0
 22 34  1  0
 17 13  2  0
 27 35  2  0
 19 35  1  0
 18 19  1  0
 24 36  2  0
 32 36  1  0
  8  9  1  0
  4  5  1  0
 37 38  2  0
  9 10  2  0
 38 39  1  0
  2  3  1  0
 39 40  2  0
 10 11  1  0
 40 41  1  0
 19 20  2  0
 41 42  2  0
 42 37  1  0
 33 37  1  0
 20 21  1  0
 21 22  2  0
 43 44  2  0
 22 18  1  0
 44 45  1  0
 23 24  1  0
 45 46  2  0
  5  6  2  0
 46 47  1  0
 11 12  2  0
 47 48  2  0
 48 43  1  0
 36 43  1  0
 12  7  1  0
 45 49  1  0
 13 14  1  0
 39 50  1  0
 35 12  1  0
 34  2  1  0
  6  1  1  0
  4 51  1  0
 24 25  1  0
  8 52  1  0
  1 53  1  0
  3 54  1  0
  5 55  1  0
  6 56  1  0
  7 57  1  0
  9 58  1  0
 10 59  1  0
 11 60  1  0
 15 61  1  0
 15 62  1  0
 16 63  1  0
 16 64  1  0
 18 65  1  0
 20 66  1  0
 21 67  1  0
 23 68  1  0
 25 69  1  0
 26 70  1  0
 30 71  1  0
 31 72  1  0
 38 73  1  0
 40 74  1  0
 41 75  1  0
 42 76  1  0
 44 77  1  0
 46 78  1  0
 47 79  1  0
 48 80  1  0
 49 81  1  0
 50 82  1  0
 51 83  1  0
 52 84  1  0
M  END
> <Uni-Dock RESULT> 
ENERGY=   -4.612  LOWER_BOUND=    2.504  UPPER_BOUND=    3.997
INTER + INTRA:          -4.612
INTER:                  -4.612
INTRA:                   0.000
UNBOUND:                 0.000

$$$$

     RDKit          3D

 84 92  0  0  0  0  0  0  0  0999 V2000
   26.7148   15.8069   26.0978 C   0  0  0  0  0  0  0  0  0  0  0  0
   26.4363   14.5732   25.4931 C   0  0  0  0  0  0  0  0  0  0  0  0
   25.8012   14.5445   24.2462 C   0  0  0  0  0  0  0  0  0  0  0  0
   25.4578   15.7398   23.6206 C   0  0  0  0  0  0  0  0  0  0  0  0
   25.7308   16.9682   24.2217 C   0  0  0  0  0  0  0  0  0  0  0  0
   26.3597   17.0003   25.4664 C   0  0  0  0  0  0  0  0  0  0  0  0
   32.5786   12.4149   27.9206 C   0  0  0  0  0  0  0  0  0  0  0  0
   33.7818   13.0944   28.0992 C   0  0  0  0  0  0  0  0  0  0  0  0
   34.8972   12.7914   27.3244 C   0  0  0  0  0  0  0  0  0  0  0  0
   34.8131   11.7896   26.3545 C   0  0  0  0  0  0  0  0  0  0  0  0
   33.6112   11.1034   26.1635 C   0  0  0  0  0  0  0  0  0  0  0  0
   32.4923   11.4131   26.9470 C   0  0  0  0  0  0  0  0  0  0  0  0
   26.4057   11.7176   27.9964 N   0  0  0  0  0  0  0  0  0  0  0  0
   26.1315   12.8088   27.2241 C   0  0  0  0  0  0  0  0  0  0  0  0
   24.8738   13.4629   27.7220 C   0  0  0  0  0  0  0  0  0  0  0  0
   24.2652   12.4081   28.6098 C   0  0  0  0  0  0  0  0  0  0  0  0
   25.3974   11.4260   28.8702 C   0  0  0  0  0  0  0  0  0  0  0  0
   28.8443   11.7574   26.5994 N   0  0  0  0  0  0  0  0  0  0  0  0
   30.0468   11.4262   26.0394 C   0  0  0  0  0  0  0  0  0  0  0  0
   30.0809   11.9606   24.7672 C   0  0  0  0  0  0  0  0  0  0  0  0
   28.8893   12.7143   24.5873 C   0  0  0  0  0  0  0  0  0  0  0  0
   28.1771   12.6121   25.7592 C   0  0  0  0  0  0  0  0  0  0  0  0
   29.8534    9.0707   28.2827 N   0  0  0  0  0  0  0  0  0  0  0  0
   30.0768    7.9134   28.9879 C   0  0  0  0  0  0  0  0  0  0  0  0
   31.3079    7.4173   28.6314 C   0  0  0  0  0  0  0  0  0  0  0  0
   31.8732    8.3393   27.7112 C   0  0  0  0  0  0  0  0  0  0  0  0
   30.9666    9.3666   27.5440 C   0  0  0  0  0  0  0  0  0  0  0  0
   27.4040    9.1483   29.6454 N   0  0  0  0  0  0  0  0  0  0  0  0
   26.1555    9.4566   30.1247 C   0  0  0  0  0  0  0  0  0  0  0  0
   25.8737    8.4355   31.1338 C   0  0  0  0  0  0  0  0  0  0  0  0
   26.8936    7.5873   31.1994 C   0  0  0  0  0  0  0  0  0  0  0  0
   27.8867    8.0124   30.2426 C   0  0  0  0  0  0  0  0  0  0  0  0
   25.2486   10.4437   29.8218 C   0  0  0  0  0  0  0  0  0  0  0  0
   26.8290   13.3211   26.1713 C   0  0  0  0  0  0  0  0  0  0  0  0
   31.2217   10.6856   26.7491 C   0  0  0  0  0  0  0  0  0  0  0  0
   29.0521    7.3410   30.0457 C   0  0  0  0  0  0  0  0  0  0  0  0
   23.9503   10.4243   30.5615 C   0  0  0  0  0  0  0  0  0  0  0  0
   22.8538    9.7342   30.0255 C   0  0  0  0  0  0  0  0  0  0  0  0
   21.6480    9.7038   30.7187 C   0  0  0  0  0  0  0  0  0  0  0  0
   21.5090   10.3481   31.9414 C   0  0  0  0  0  0  0  0  0  0  0  0
   22.5949   11.0344   32.4849 C   0  0  0  0  0  0  0  0  0  0  0  0
   23.8101   11.0724   31.7959 C   0  0  0  0  0  0  0  0  0  0  0  0
   29.4033    6.1151   30.7875 C   0  0  0  0  0  0  0  0  0  0  0  0
   28.9582    4.8690   30.3364 C   0  0  0  0  0  0  0  0  0  0  0  0
   29.2947    3.7203   31.0487 C   0  0  0  0  0  0  0  0  0  0  0  0
   30.0734    3.7933   32.1996 C   0  0  0  0  0  0  0  0  0  0  0  0
   30.5190    5.0364   32.6517 C   0  0  0  0  0  0  0  0  0  0  0  0
   30.1837    6.1943   31.9472 C   0  0  0  0  0  0  0  0  0  0  0  0
   28.8646    2.4891   30.6376 O   0  0  0  0  0  0  0  0  0  0  0  0
   20.5673    9.0327   30.2143 O   0  0  0  0  0  0  0  0  0  0  0  0
   24.8504   15.6821   22.3983 O   0  0  0  0  0  0  0  0  0  0  0  0
   33.9023   14.0738   29.0432 O   0  0  0  0  0  0  0  0  0  0  0  0
   27.2054   15.8175   27.0696 H   0  0  0  0  0  0  0  0  0  0  0  0
   25.5805   13.5886   23.7793 H   0  0  0  0  0  0  0  0  0  0  0  0
   25.4658   17.9031   23.7407 H   0  0  0  0  0  0  0  0  0  0  0  0
   26.5749   17.9472   25.9529 H   0  0  0  0  0  0  0  0  0  0  0  0
   31.6968   12.6445   28.5194 H   0  0  0  0  0  0  0  0  0  0  0  0
   35.8272   13.3314   27.4763 H   0  0  0  0  0  0  0  0  0  0  0  0
   35.6784   11.5403   25.7478 H   0  0  0  0  0  0  0  0  0  0  0  0
   33.5411   10.3230   25.4063 H   0  0  0  0  0  0  0  0  0  0  0  0
   25.1154   14.3586   28.3086 H   0  0  0  0  0  0  0  0  0  0  0  0
   24.1778   13.7413   26.9234 H   0  0  0  0  0  0  0  0  0  0  0  0
   23.8723   12.8791   29.5182 H   0  0  0  0  0  0  0  0  0  0  0  0
   23.4454   11.9113   28.0780 H   0  0  0  0  0  0  0  0  0  0  0  0
   28.4400   11.4765   27.4935 H   0  0  0  0  0  0  0  0  0  0  0  0
   30.8902   11.8631   24.0613 H   0  0  0  0  0  0  0  0  0  0  0  0
   28.6083   13.2937   23.7210 H   0  0  0  0  0  0  0  0  0  0  0  0
   28.9862    9.5989   28.3929 H   0  0  0  0  0  0  0  0  0  0  0  0
   31.7627    6.5168   29.0126 H   0  0  0  0  0  0  0  0  0  0  0  0
   32.8557    8.2808   27.2668 H   0  0  0  0  0  0  0  0  0  0  0  0
   24.9845    8.3618   31.7339 H   0  0  0  0  0  0  0  0  0  0  0  0
   26.9571    6.7353   31.8522 H   0  0  0  0  0  0  0  0  0  0  0  0
   22.9895    9.2384   29.0682 H   0  0  0  0  0  0  0  0  0  0  0  0
   20.5658   10.3130   32.4706 H   0  0  0  0  0  0  0  0  0  0  0  0
   22.5024   11.5334   33.4431 H   0  0  0  0  0  0  0  0  0  0  0  0
   24.6684   11.5953   32.2095 H   0  0  0  0  0  0  0  0  0  0  0  0
   28.3519    4.8333   29.4357 H   0  0  0  0  0  0  0  0  0  0  0  0
   30.3248    2.8911   32.7466 H   0  0  0  0  0  0  0  0  0  0  0  0
   31.1226    5.1104   33.5513 H   0  0  0  0  0  0  0  0  0  0  0  0
   30.5199    7.1709   32.2934 H   0  0  0  0  0  0  0  0  0  0  0  0
   28.2796    2.6429   29.8738 H   0  0  0  0  0  0  0  0  0  0  0  0
   20.8797    8.6043   29.3967 H   0  0  0  0  0  0  0  0  0  0  0  0
   24.6307   16.5896   22.1386 H   0  0  0  0  0  0  0  0  0  0  0  0
   33.0530   14.1051   29.5197 H   0  0  0  0  0  0  0  0  0  0  0  0
 25 26  2  0
 26 27  1  0
 27 23  1  0
 28 29  1  0
  1  2  2  0
  3  4  2  0
  7  8  2  0
 14 15  1  0
 29 30  1  0
 30 31  2  0
 31 32  1  0
 32 28  2  0
 15 16  1  0
 29 33  2  0
 17 33  1  0
 16 17  1  0
 14 34  2  0
 22 34  1  0
 17 13  2  0
 27 35  2  0
 19 35  1  0
 18 19  1  0
 24 36  2  0
 32 36  1  0
  8  9  1  0
  4  5  1  0
 37 38  2  0
  9 10  2  0
 38 39  1  0
  2  3  1  0
 39 40  2  0
 10 11  1  0
 40 41  1  0
 19 20  2  0
 41 42  2  0
 42 37  1  0
 33 37  1  0
 20 21  1  0
 21 22  2  0
 43 44  2  0
 22 18  1  0
 44 45  1  0
 23 24  1  0
 45 46  2  0
  5  6  2  0
 46 47  1  0
 11 12  2  0
 47 48  2  0
 48 43  1  0
 36 43  1  0
 12  7  1  0
 45 49  1  0
 13 14  1  0
 39 50  1  0
 35 12  1  0
 34  2  1  0
  6  1  1  0
  4 51  1  0
 24 25  1  0
  8 52  1  0
  1 53  1  0
  3 54  1  0
  5 55  1  0
  6 56  1  0
  7 57  1  0
  9 58  1  0
 10 59  1  0
 11 60  1  0
 15 61  1  0
 15 62  1  0
 16 63  1  0
 16 64  1  0
 18 65  1  0
 20 66  1  0
 21 67  1  0
 23 68  1  0
 25 69  1  0
 26 70  1  0
 30 71  1  0
 31 72  1  0
 38 73  1  0
 40 74  1  0
 41 75  1  0
 42 76  1  0
 44 77  1  0
 46 78  1  0
 47 79  1  0
 48 80  1  0
 49 81  1  0
 50 82  1  0
 51 83  1  0
 52 84  1  0
M  END
> <Uni-Dock RESULT> 
ENERGY=   -4.434  LOWER_BOUND=    3.630  UPPER_BOUND=   10.963
INTER + INTRA:          -4.434
INTER:                  -4.434
INTRA:                   0.000
UNBOUND:                 0.000

$$$$

     RDKit          3D

 84 92  0  0  0  0  0  0  0  0999 V2000
   23.0363    7.3556   30.0768 C   0  0  0  0  0  0  0  0  0  0  0  0
   23.7693    8.1531   30.9666 C   0  0  0  0  0  0  0  0  0  0  0  0
   23.2197    8.4812   32.2113 C   0  0  0  0  0  0  0  0  0  0  0  0
   21.9552    8.0091   32.5517 C   0  0  0  0  0  0  0  0  0  0  0  0
   21.2225    7.2183   31.6670 C   0  0  0  0  0  0  0  0  0  0  0  0
   21.7656    6.8931   30.4239 C   0  0  0  0  0  0  0  0  0  0  0  0
   29.4057    4.6820   28.8544 C   0  0  0  0  0  0  0  0  0  0  0  0
   29.5709    3.3532   28.4691 C   0  0  0  0  0  0  0  0  0  0  0  0
   30.3155    2.4700   29.2447 C   0  0  0  0  0  0  0  0  0  0  0  0
   30.9097    2.9201   30.4261 C   0  0  0  0  0  0  0  0  0  0  0  0
   30.7485    4.2494   30.8250 C   0  0  0  0  0  0  0  0  0  0  0  0
   29.9980    5.1333   30.0394 C   0  0  0  0  0  0  0  0  0  0  0  0
   26.4798   10.1509   29.2106 N   0  0  0  0  0  0  0  0  0  0  0  0
   25.3134    9.6537   29.7150 C   0  0  0  0  0  0  0  0  0  0  0  0
   24.1580   10.4166   29.1315 C   0  0  0  0  0  0  0  0  0  0  0  0
   24.8142   11.6396   28.5443 C   0  0  0  0  0  0  0  0  0  0  0  0
   26.2920   11.2857   28.4743 C   0  0  0  0  0  0  0  0  0  0  0  0
   27.5926    7.8883   30.4526 N   0  0  0  0  0  0  0  0  0  0  0  0
   28.4459    6.9850   31.0227 C   0  0  0  0  0  0  0  0  0  0  0  0
   27.8177    6.4525   32.1304 C   0  0  0  0  0  0  0  0  0  0  0  0
   26.5039    6.9929   32.1786 C   0  0  0  0  0  0  0  0  0  0  0  0
   26.3822    7.8314   31.0956 C   0  0  0  0  0  0  0  0  0  0  0  0
   30.6168    8.8012   29.4082 N   0  0  0  0  0  0  0  0  0  0  0  0
   31.7962    9.3649   28.9866 C   0  0  0  0  0  0  0  0  0  0  0  0
   32.8334    8.5617   29.3967 C   0  0  0  0  0  0  0  0  0  0  0  0
   32.2541    7.4410   30.0485 C   0  0  0  0  0  0  0  0  0  0  0  0
   30.8837    7.6005   30.0077 C   0  0  0  0  0  0  0  0  0  0  0  0
   29.3975   11.0031   28.1722 N   0  0  0  0  0  0  0  0  0  0  0  0
   28.5227   11.9432   27.6878 C   0  0  0  0  0  0  0  0  0  0  0  0
   29.3578   12.8995   26.9609 C   0  0  0  0  0  0  0  0  0  0  0  0
   30.6309   12.5325   27.0533 C   0  0  0  0  0  0  0  0  0  0  0  0
   30.6883   11.3237   27.8392 C   0  0  0  0  0  0  0  0  0  0  0  0
   27.1614   12.1019   27.7883 C   0  0  0  0  0  0  0  0  0  0  0  0
   25.1166    8.6245   30.5864 C   0  0  0  0  0  0  0  0  0  0  0  0
   29.8299    6.5403   30.4576 C   0  0  0  0  0  0  0  0  0  0  0  0
   31.8567   10.6967   28.1386 C   0  0  0  0  0  0  0  0  0  0  0  0
   26.5669   13.3048   27.1306 C   0  0  0  0  0  0  0  0  0  0  0  0
   26.4098   14.4914   27.8607 C   0  0  0  0  0  0  0  0  0  0  0  0
   25.8686   15.6164   27.2467 C   0  0  0  0  0  0  0  0  0  0  0  0
   25.4790   15.5865   25.9138 C   0  0  0  0  0  0  0  0  0  0  0  0
   25.6346   14.4120   25.1776 C   0  0  0  0  0  0  0  0  0  0  0  0
   26.1756   13.2759   25.7854 C   0  0  0  0  0  0  0  0  0  0  0  0
   33.1702   11.1986   27.6921 C   0  0  0  0  0  0  0  0  0  0  0  0
   33.8450   12.1658   28.4429 C   0  0  0  0  0  0  0  0  0  0  0  0
   35.0829   12.6329   28.0077 C   0  0  0  0  0  0  0  0  0  0  0  0
   35.6618   12.1465   26.8395 C   0  0  0  0  0  0  0  0  0  0  0  0
   34.9900   11.1807   26.0885 C   0  0  0  0  0  0  0  0  0  0  0  0
   33.7466   10.7089   26.5140 C   0  0  0  0  0  0  0  0  0  0  0  0
   35.7610   13.5863   28.7155 O   0  0  0  0  0  0  0  0  0  0  0  0
   25.7105   16.7850   27.9411 O   0  0  0  0  0  0  0  0  0  0  0  0
   21.4488    8.3343   33.7781 O   0  0  0  0  0  0  0  0  0  0  0  0
   29.0109    2.8809   27.3166 O   0  0  0  0  0  0  0  0  0  0  0  0
   23.4716    7.1099   29.1098 H   0  0  0  0  0  0  0  0  0  0  0  0
   23.7852    9.1035   32.8994 H   0  0  0  0  0  0  0  0  0  0  0  0
   20.2369    6.8475   31.9250 H   0  0  0  0  0  0  0  0  0  0  0  0
   21.2075    6.2836   29.7191 H   0  0  0  0  0  0  0  0  0  0  0  0
   28.8227    5.3833   28.2568 H   0  0  0  0  0  0  0  0  0  0  0  0
   30.4336    1.4372   28.9300 H   0  0  0  0  0  0  0  0  0  0  0  0
   31.4979    2.2417   31.0366 H   0  0  0  0  0  0  0  0  0  0  0  0
   31.2085    4.6036   31.7471 H   0  0  0  0  0  0  0  0  0  0  0  0
   23.6732    9.8301   28.3405 H   0  0  0  0  0  0  0  0  0  0  0  0
   23.4027   10.7035   29.8712 H   0  0  0  0  0  0  0  0  0  0  0  0
   24.3666   11.8598   27.5682 H   0  0  0  0  0  0  0  0  0  0  0  0
   24.6589   12.4944   29.2130 H   0  0  0  0  0  0  0  0  0  0  0  0
   27.7421    8.5240   29.6681 H   0  0  0  0  0  0  0  0  0  0  0  0
   28.2348    5.7209   32.8039 H   0  0  0  0  0  0  0  0  0  0  0  0
   25.7300    6.7634   32.8953 H   0  0  0  0  0  0  0  0  0  0  0  0
   29.7181    9.2460   29.2139 H   0  0  0  0  0  0  0  0  0  0  0  0
   33.8819    8.7410   29.2193 H   0  0  0  0  0  0  0  0  0  0  0  0
   32.7827    6.5899   30.4515 H   0  0  0  0  0  0  0  0  0  0  0  0
   29.0152   13.7719   26.4339 H   0  0  0  0  0  0  0  0  0  0  0  0
   31.4647   13.0530   26.6175 H   0  0  0  0  0  0  0  0  0  0  0  0
   26.7230   14.4880   28.9012 H   0  0  0  0  0  0  0  0  0  0  0  0
   25.0627   16.4705   25.4488 H   0  0  0  0  0  0  0  0  0  0  0  0
   25.3433   14.3782   24.1337 H   0  0  0  0  0  0  0  0  0  0  0  0
   26.3115   12.3554   25.2237 H   0  0  0  0  0  0  0  0  0  0  0  0
   33.3764   12.5323   29.3520 H   0  0  0  0  0  0  0  0  0  0  0  0
   36.6247   12.5218   26.5103 H   0  0  0  0  0  0  0  0  0  0  0  0
   35.4260   10.7954   25.1717 H   0  0  0  0  0  0  0  0  0  0  0  0
   33.2094    9.9601   25.9333 H   0  0  0  0  0  0  0  0  0  0  0  0
   35.1751   13.8554   29.4459 H   0  0  0  0  0  0  0  0  0  0  0  0
   26.0935   16.6232   28.8224 H   0  0  0  0  0  0  0  0  0  0  0  0
   20.5486    7.9783   33.8259 H   0  0  0  0  0  0  0  0  0  0  0  0
   28.5854    3.6427   26.8831 H   0  0  0  0  0  0  0  0  0  0  0  0
 25 26  2  0
 26 27  1  0
 27 23  1  0
 28 29  1  0
  1  2  2  0
  3  4  2  0
  7  8  2  0
 14 15  1  0
 29 30  1  0
 30 31  2  0
 31 32  1  0
 32 28  2  0
 15 16  1  0
 29 33  2  0
 17 33  1  0
 16 17  1  0
 14 34  2  0
 22 34  1  0
 17 13  2  0
 27 35  2  0
 19 35  1  0
 18 19  1  0
 24 36  2  0
 32 36  1  0
  8  9  1  0
  4  5  1  0
 37 38  2  0
  9 10  2  0
 38 39  1  0
  2  3  1  0
 39 40  2  0
 10 11  1  0
 40 41  1  0
 19 20  2  0
 41 42  2  0
 42 37  1  0
 33 37  1  0
 20 21  1  0
 21 22  2  0
 43 44  2  0
 22 18  1  0
 44 45  1  0
 23 24  1  0
 45 46  2  0
  5  6  2  0
 46 47  1  0
 11 12  2  0
 47 48  2  0
 48 43  1  0
 36 43  1  0
 12  7  1  0
 45 49  1  0
 13 14  1  0
 39 50  1  0
 35 12  1  0
 34  2  1  0
  6  1  1  0
  4 51  1  0
 24 25  1  0
  8 52  1  0
  1 53  1  0
  3 54  1  0
  5 55  1  0
  6 56  1  0
  7 57  1  0
  9 58  1  0
 10 59  1  0
 11 60  1  0
 15 61  1  0
 15 62  1  0
 16 63  1  0
 16 64  1  0
 18 65  1  0
 20 66  1  0
 21 67  1  0
 23 68  1  0
 25 69  1  0
 26 70  1  0
 30 71  1  0
 31 72  1  0
 38 73  1  0
 40 74  1  0
 41 75  1  0
 42 76  1  0
 44 77  1  0
 46 78  1  0
 47 79  1  0
 48 80  1  0
 49 81  1  0
 50 82  1  0
 51 83  1  0
 52 84  1  0
M  END
> <Uni-Dock RESULT> 
ENERGY=   -4.406  LOWER_BOUND=    3.293  UPPER_BOUND=    8.513
INTER + INTRA:          -4.406
INTER:                  -4.406
INTRA:                   0.000
UNBOUND:                 0.000

$$$$

     RDKit          3D

 84 92  0  0  0  0  0  0  0  0999 V2000
   21.7997   12.7870   30.9626 C   0  0  0  0  0  0  0  0  0  0  0  0
   22.3010   12.1560   29.8156 C   0  0  0  0  0  0  0  0  0  0  0  0
   21.9737   12.6614   28.5521 C   0  0  0  0  0  0  0  0  0  0  0  0
   21.1586   13.7853   28.4500 C   0  0  0  0  0  0  0  0  0  0  0  0
   20.6560   14.4128   29.5895 C   0  0  0  0  0  0  0  0  0  0  0  0
   20.9768   13.9090   30.8502 C   0  0  0  0  0  0  0  0  0  0  0  0
   28.2115   11.2403   33.3520 C   0  0  0  0  0  0  0  0  0  0  0  0
   28.8407   12.0387   34.3049 C   0  0  0  0  0  0  0  0  0  0  0  0
   30.0540   12.6617   34.0289 C   0  0  0  0  0  0  0  0  0  0  0  0
   30.6537   12.4833   32.7799 C   0  0  0  0  0  0  0  0  0  0  0  0
   30.0309   11.6879   31.8148 C   0  0  0  0  0  0  0  0  0  0  0  0
   28.8100   11.0633   32.0992 C   0  0  0  0  0  0  0  0  0  0  0  0
   23.3790    8.5786   30.4956 N   0  0  0  0  0  0  0  0  0  0  0  0
   22.6987    9.7381   30.2603 C   0  0  0  0  0  0  0  0  0  0  0  0
   21.2256    9.4866   30.4156 C   0  0  0  0  0  0  0  0  0  0  0  0
   21.1278    7.9830   30.3857 C   0  0  0  0  0  0  0  0  0  0  0  0
   22.5502    7.5013   30.6283 C   0  0  0  0  0  0  0  0  0  0  0  0
   25.6203   10.2738   30.4409 N   0  0  0  0  0  0  0  0  0  0  0  0
   26.8884   10.7780   30.3583 C   0  0  0  0  0  0  0  0  0  0  0  0
   26.8336   11.9363   29.6095 C   0  0  0  0  0  0  0  0  0  0  0  0
   25.4679   12.1839   29.3030 C   0  0  0  0  0  0  0  0  0  0  0  0
   24.7435   11.1676   29.8804 C   0  0  0  0  0  0  0  0  0  0  0  0
   27.6091    7.6633   30.9889 N   0  0  0  0  0  0  0  0  0  0  0  0
   28.2913    6.4786   31.1202 C   0  0  0  0  0  0  0  0  0  0  0  0
   29.6383    6.7515   31.1361 C   0  0  0  0  0  0  0  0  0  0  0  0
   29.7738    8.1630   31.0626 C   0  0  0  0  0  0  0  0  0  0  0  0
   28.5030    8.6991   31.0089 C   0  0  0  0  0  0  0  0  0  0  0  0
   25.3029    6.0703   31.0646 N   0  0  0  0  0  0  0  0  0  0  0  0
   24.0203    5.5818   31.0540 C   0  0  0  0  0  0  0  0  0  0  0  0
   24.1609    4.1420   31.2727 C   0  0  0  0  0  0  0  0  0  0  0  0
   25.4491    3.8353   31.3744 C   0  0  0  0  0  0  0  0  0  0  0  0
   26.2082    5.0539   31.2298 C   0  0  0  0  0  0  0  0  0  0  0  0
   22.7910    6.1695   30.8752 C   0  0  0  0  0  0  0  0  0  0  0  0
   23.1790   10.9763   29.9545 C   0  0  0  0  0  0  0  0  0  0  0  0
   28.1521   10.2185   31.0812 C   0  0  0  0  0  0  0  0  0  0  0  0
   27.5669    5.0819   31.2651 C   0  0  0  0  0  0  0  0  0  0  0  0
   21.5975    5.2707   30.9019 C   0  0  0  0  0  0  0  0  0  0  0  0
   21.1182    4.7141   29.7076 C   0  0  0  0  0  0  0  0  0  0  0  0
   20.0151    3.8667   29.7318 C   0  0  0  0  0  0  0  0  0  0  0  0
   19.3755    3.5584   30.9256 C   0  0  0  0  0  0  0  0  0  0  0  0
   19.8468    4.1041   32.1196 C   0  0  0  0  0  0  0  0  0  0  0  0
   20.9530    4.9578   32.1062 C   0  0  0  0  0  0  0  0  0  0  0  0
   28.3865    3.8691   31.4484 C   0  0  0  0  0  0  0  0  0  0  0  0
   28.7309    3.0805   30.3466 C   0  0  0  0  0  0  0  0  0  0  0  0
   29.5026    1.9364   30.5350 C   0  0  0  0  0  0  0  0  0  0  0  0
   29.9422    1.5695   31.8032 C   0  0  0  0  0  0  0  0  0  0  0  0
   29.5998    2.3554   32.9048 C   0  0  0  0  0  0  0  0  0  0  0  0
   28.8230    3.5021   32.7271 C   0  0  0  0  0  0  0  0  0  0  0  0
   29.8456    1.1400   29.4777 O   0  0  0  0  0  0  0  0  0  0  0  0
   19.5343    3.3104   28.5776 O   0  0  0  0  0  0  0  0  0  0  0  0
   20.8658   14.2644   27.2046 O   0  0  0  0  0  0  0  0  0  0  0  0
   28.2872   12.2288   35.5387 O   0  0  0  0  0  0  0  0  0  0  0  0
   22.0573   12.3831   31.9402 H   0  0  0  0  0  0  0  0  0  0  0  0
   22.3576   12.1698   27.6625 H   0  0  0  0  0  0  0  0  0  0  0  0
   20.0203   15.2882   29.5177 H   0  0  0  0  0  0  0  0  0  0  0  0
   20.5897   14.3806   31.7488 H   0  0  0  0  0  0  0  0  0  0  0  0
   27.2596   10.7488   33.5549 H   0  0  0  0  0  0  0  0  0  0  0  0
   30.5304   13.2814   34.7828 H   0  0  0  0  0  0  0  0  0  0  0  0
   31.6032   12.9596   32.5550 H   0  0  0  0  0  0  0  0  0  0  0  0
   30.4946   11.5483   30.8386 H   0  0  0  0  0  0  0  0  0  0  0  0
   20.8721    9.8702   31.3812 H   0  0  0  0  0  0  0  0  0  0  0  0
   20.6184    9.9271   29.6173 H   0  0  0  0  0  0  0  0  0  0  0  0
   20.4133    7.6494   31.1471 H   0  0  0  0  0  0  0  0  0  0  0  0
   20.7795    7.6589   29.3981 H   0  0  0  0  0  0  0  0  0  0  0  0
   25.2901    9.3986   30.8492 H   0  0  0  0  0  0  0  0  0  0  0  0
   27.6722   12.5629   29.3509 H   0  0  0  0  0  0  0  0  0  0  0  0
   25.0630   13.0252   28.7614 H   0  0  0  0  0  0  0  0  0  0  0  0
   26.5888    7.6851   30.9468 H   0  0  0  0  0  0  0  0  0  0  0  0
   30.4308    6.0254   31.2247 H   0  0  0  0  0  0  0  0  0  0  0  0
   30.6975    8.7212   31.1005 H   0  0  0  0  0  0  0  0  0  0  0  0
   23.3606    3.4269   31.3376 H   0  0  0  0  0  0  0  0  0  0  0  0
   25.8461    2.8489   31.5338 H   0  0  0  0  0  0  0  0  0  0  0  0
   21.6370    4.9709   28.7881 H   0  0  0  0  0  0  0  0  0  0  0  0
   18.5206    2.8950   30.9292 H   0  0  0  0  0  0  0  0  0  0  0  0
   19.3624    3.8638   33.0595 H   0  0  0  0  0  0  0  0  0  0  0  0
   21.3381    5.3845   33.0285 H   0  0  0  0  0  0  0  0  0  0  0  0
   28.3783    3.3843   29.3649 H   0  0  0  0  0  0  0  0  0  0  0  0
   30.5394    0.6739   31.9360 H   0  0  0  0  0  0  0  0  0  0  0  0
   29.9303    2.0792   33.9015 H   0  0  0  0  0  0  0  0  0  0  0  0
   28.5437    4.1201   33.5795 H   0  0  0  0  0  0  0  0  0  0  0  0
   29.3912    1.5070   28.6979 H   0  0  0  0  0  0  0  0  0  0  0  0
   20.1451    3.5932   27.8729 H   0  0  0  0  0  0  0  0  0  0  0  0
   20.2485   15.0035   27.3140 H   0  0  0  0  0  0  0  0  0  0  0  0
   27.4846   11.6772   35.5701 H   0  0  0  0  0  0  0  0  0  0  0  0
 25 26  2  0
 26 27  1  0
 27 23  1  0
 28 29  1  0
  1  2  2  0
  3  4  2  0
  7  8  2  0
 14 15  1  0
 29 30  1  0
 30 31  2  0
 31 32  1  0
 32 28  2  0
 15 16  1  0
 29 33  2  0
 17 33  1  0
 16 17  1  0
 14 34  2  0
 22 34  1  0
 17 13  2  0
 27 35  2  0
 19 35  1  0
 18 19  1  0
 24 36  2  0
 32 36  1  0
  8  9  1  0
  4  5  1  0
 37 38  2  0
  9 10  2  0
 38 39  1  0
  2  3  1  0
 39 40  2  0
 10 11  1  0
 40 41  1  0
 19 20  2  0
 41 42  2  0
 42 37  1  0
 33 37  1  0
 20 21  1  0
 21 22  2  0
 43 44  2  0
 22 18  1  0
 44 45  1  0
 23 24  1  0
 45 46  2  0
  5  6  2  0
 46 47  1  0
 11 12  2  0
 47 48  2  0
 48 43  1  0
 36 43  1  0
 12  7  1  0
 45 49  1  0
 13 14  1  0
 39 50  1  0
 35 12  1  0
 34  2  1  0
  6  1  1  0
  4 51  1  0
 24 25  1  0
  8 52  1  0
  1 53  1  0
  3 54  1  0
  5 55  1  0
  6 56  1  0
  7 57  1  0
  9 58  1  0
 10 59  1  0
 11 60  1  0
 15 61  1  0
 15 62  1  0
 16 63  1  0
 16 64  1  0
 18 65  1  0
 20 66  1  0
 21 67  1  0
 23 68  1  0
 25 69  1  0
 26 70  1  0
 30 71  1  0
 31 72  1  0
 38 73  1  0
 40 74  1  0
 41 75  1  0
 42 76  1  0
 44 77  1  0
 46 78  1  0
 47 79  1  0
 48 80  1  0
 49 81  1  0
 50 82  1  0
 51 83  1  0
 52 84  1  0
M  END
> <Uni-Dock RESULT> 
ENERGY=   -4.306  LOWER_BOUND=    2.948  UPPER_BOUND=    8.943
INTER + INTRA:          -4.306
INTER:                  -4.306
INTRA:                   0.000
UNBOUND:                 0.000

$$$$

     RDKit          3D

 84 92  0  0  0  0  0  0  0  0999 V2000
   21.7095    3.8368   29.3476 C   0  0  0  0  0  0  0  0  0  0  0  0
   21.9401    4.2812   30.6569 C   0  0  0  0  0  0  0  0  0  0  0  0
   21.1412    3.7982   31.6997 C   0  0  0  0  0  0  0  0  0  0  0  0
   20.1311    2.8805   31.4249 C   0  0  0  0  0  0  0  0  0  0  0  0
   19.8975    2.4393   30.1227 C   0  0  0  0  0  0  0  0  0  0  0  0
   20.6891    2.9222   29.0805 C   0  0  0  0  0  0  0  0  0  0  0  0
   28.7191    4.0345   29.1525 C   0  0  0  0  0  0  0  0  0  0  0  0
   29.4452    3.1652   28.3410 C   0  0  0  0  0  0  0  0  0  0  0  0
   30.3638    2.2744   28.8876 C   0  0  0  0  0  0  0  0  0  0  0  0
   30.5651    2.2511   30.2697 C   0  0  0  0  0  0  0  0  0  0  0  0
   29.8406    3.1154   31.0944 C   0  0  0  0  0  0  0  0  0  0  0  0
   28.9178    4.0099   30.5377 C   0  0  0  0  0  0  0  0  0  0  0  0
   23.8574    7.5581   30.7478 N   0  0  0  0  0  0  0  0  0  0  0  0
   22.9239    6.5690   30.6349 C   0  0  0  0  0  0  0  0  0  0  0  0
   21.6531    7.1500   30.0828 C   0  0  0  0  0  0  0  0  0  0  0  0
   21.8482    8.6341   30.2579 C   0  0  0  0  0  0  0  0  0  0  0  0
   23.3405    8.7983   30.5035 C   0  0  0  0  0  0  0  0  0  0  0  0
   25.5899    5.4054   31.2623 N   0  0  0  0  0  0  0  0  0  0  0  0
   26.6433    4.6278   31.6556 C   0  0  0  0  0  0  0  0  0  0  0  0
   26.1305    3.4744   32.2142 C   0  0  0  0  0  0  0  0  0  0  0  0
   24.7169    3.5223   32.0734 C   0  0  0  0  0  0  0  0  0  0  0  0
   24.4242    4.7023   31.4310 C   0  0  0  0  0  0  0  0  0  0  0  0
   28.1223    7.5313   31.6340 N   0  0  0  0  0  0  0  0  0  0  0  0
   29.0300    8.5393   31.8490 C   0  0  0  0  0  0  0  0  0  0  0  0
   30.2330    7.9742   32.1991 C   0  0  0  0  0  0  0  0  0  0  0  0
   30.0586    6.5661   32.1439 C   0  0  0  0  0  0  0  0  0  0  0  0
   28.7557    6.3247   31.7575 C   0  0  0  0  0  0  0  0  0  0  0  0
   26.3160    9.6001   31.0684 N   0  0  0  0  0  0  0  0  0  0  0  0
   25.2169   10.3609   30.7574 C   0  0  0  0  0  0  0  0  0  0  0  0
   25.6988   11.7423   30.7597 C   0  0  0  0  0  0  0  0  0  0  0  0
   26.9878   11.7589   31.0789 C   0  0  0  0  0  0  0  0  0  0  0  0
   27.4086   10.3960   31.2975 C   0  0  0  0  0  0  0  0  0  0  0  0
   23.9032   10.0537   30.4960 C   0  0  0  0  0  0  0  0  0  0  0  0
   23.0312    5.2411   30.9219 C   0  0  0  0  0  0  0  0  0  0  0  0
   28.1538    4.9274   31.4079 C   0  0  0  0  0  0  0  0  0  0  0  0
   28.6766   10.0678   31.6612 C   0  0  0  0  0  0  0  0  0  0  0  0
   22.9791   11.1960   30.2238 C   0  0  0  0  0  0  0  0  0  0  0  0
   22.2691   11.7842   31.2802 C   0  0  0  0  0  0  0  0  0  0  0  0
   21.4182   12.8563   31.0311 C   0  0  0  0  0  0  0  0  0  0  0  0
   21.2582   13.3595   29.7463 C   0  0  0  0  0  0  0  0  0  0  0  0
   21.9627   12.7837   28.6891 C   0  0  0  0  0  0  0  0  0  0  0  0
   22.8187   11.7054   28.9283 C   0  0  0  0  0  0  0  0  0  0  0  0
   29.7339   11.0751   31.8707 C   0  0  0  0  0  0  0  0  0  0  0  0
   29.8638   11.7102   33.1093 C   0  0  0  0  0  0  0  0  0  0  0  0
   30.8647   12.6616   33.2919 C   0  0  0  0  0  0  0  0  0  0  0  0
   31.7422   12.9851   32.2615 C   0  0  0  0  0  0  0  0  0  0  0  0
   31.6144   12.3521   31.0241 C   0  0  0  0  0  0  0  0  0  0  0  0
   30.6118   11.3999   30.8296 C   0  0  0  0  0  0  0  0  0  0  0  0
   31.0088   13.3069   34.4888 O   0  0  0  0  0  0  0  0  0  0  0  0
   20.7194   13.4466   32.0490 O   0  0  0  0  0  0  0  0  0  0  0  0
   19.3750    2.4162   32.4637 O   0  0  0  0  0  0  0  0  0  0  0  0
   29.2798    3.1661   26.9854 O   0  0  0  0  0  0  0  0  0  0  0  0
   22.3342    4.2221   28.5436 H   0  0  0  0  0  0  0  0  0  0  0  0
   21.3161    4.1461   32.7139 H   0  0  0  0  0  0  0  0  0  0  0  0
   19.1123    1.7252   29.9011 H   0  0  0  0  0  0  0  0  0  0  0  0
   20.5182    2.5949   28.0591 H   0  0  0  0  0  0  0  0  0  0  0  0
   27.9947    4.7355   28.7368 H   0  0  0  0  0  0  0  0  0  0  0  0
   30.9208    1.6031   28.2406 H   0  0  0  0  0  0  0  0  0  0  0  0
   31.2834    1.5644   30.7073 H   0  0  0  0  0  0  0  0  0  0  0  0
   29.9932    3.0985   32.1732 H   0  0  0  0  0  0  0  0  0  0  0  0
   21.5515    6.9043   29.0179 H   0  0  0  0  0  0  0  0  0  0  0  0
   20.7524    6.8161   30.6093 H   0  0  0  0  0  0  0  0  0  0  0  0
   21.4881    9.1567   29.3642 H   0  0  0  0  0  0  0  0  0  0  0  0
   21.2791    8.9772   31.1298 H   0  0  0  0  0  0  0  0  0  0  0  0
   25.5828    6.3518   30.8801 H   0  0  0  0  0  0  0  0  0  0  0  0
   26.7057    2.6644   32.6335 H   0  0  0  0  0  0  0  0  0  0  0  0
   24.0059    2.7660   32.3694 H   0  0  0  0  0  0  0  0  0  0  0  0
   27.1568    7.7354   31.3706 H   0  0  0  0  0  0  0  0  0  0  0  0
   31.1398    8.5089   32.4336 H   0  0  0  0  0  0  0  0  0  0  0  0
   30.8191    5.8187   32.3150 H   0  0  0  0  0  0  0  0  0  0  0  0
   25.1159   12.6202   30.5458 H   0  0  0  0  0  0  0  0  0  0  0  0
   27.6004   12.6388   31.1600 H   0  0  0  0  0  0  0  0  0  0  0  0
   22.4130   11.3720   32.2752 H   0  0  0  0  0  0  0  0  0  0  0  0
   20.5952   14.1961   29.5685 H   0  0  0  0  0  0  0  0  0  0  0  0
   21.8540   13.1732   27.6830 H   0  0  0  0  0  0  0  0  0  0  0  0
   23.3814   11.2508   28.1172 H   0  0  0  0  0  0  0  0  0  0  0  0
   29.1692   11.4434   33.9009 H   0  0  0  0  0  0  0  0  0  0  0  0
   32.5146   13.7306   32.4163 H   0  0  0  0  0  0  0  0  0  0  0  0
   32.2878   12.5978   30.2085 H   0  0  0  0  0  0  0  0  0  0  0  0
   30.4977   10.9037   29.8666 H   0  0  0  0  0  0  0  0  0  0  0  0
   30.2704   13.0114   35.0515 H   0  0  0  0  0  0  0  0  0  0  0  0
   21.0108   12.9994   32.8643 H   0  0  0  0  0  0  0  0  0  0  0  0
   18.6904    1.8399   32.0916 H   0  0  0  0  0  0  0  0  0  0  0  0
   28.6522    3.8836   26.7835 H   0  0  0  0  0  0  0  0  0  0  0  0
 25 26  2  0
 26 27  1  0
 27 23  1  0
 28 29  1  0
  1  2  2  0
  3  4  2  0
  7  8  2  0
 14 15  1  0
 29 30  1  0
 30 31  2  0
 31 32  1  0
 32 28  2  0
 15 16  1  0
 29 33  2  0
 17 33  1  0
 16 17  1  0
 14 34  2  0
 22 34  1  0
 17 13  2  0
 27 35  2  0
 19 35  1  0
 18 19  1  0
 24 36  2  0
 32 36  1  0
  8  9  1  0
  4  5  1  0
 37 38  2  0
  9 10  2  0
 38 39  1  0
  2  3  1  0
 39 40  2  0
 10 11  1  0
 40 41  1  0
 19 20  2  0
 41 42  2  0
 42 37  1  0
 33 37  1  0
 20 21  1  0
 21 22  2  0
 43 44  2  0
 22 18  1  0
 44 45  1  0
 23 24  1  0
 45 46  2  0
  5  6  2  0
 46 47  1  0
 11 12  2  0
 47 48  2  0
 48 43  1  0
 36 43  1  0
 12  7  1  0
 45 49  1  0
 13 14  1  0
 39 50  1  0
 35 12  1  0
 34  2  1  0
  6  1  1  0
  4 51  1  0
 24 25  1  0
  8 52  1  0
  1 53  1  0
  3 54  1  0
  5 55  1  0
  6 56  1  0
  7 57  1  0
  9 58  1  0
 10 59  1  0
 11 60  1  0
 15 61  1  0
 15 62  1  0
 16 63  1  0
 16 64  1  0
 18 65  1  0
 20 66  1  0
 21 67  1  0
 23 68  1  0
 25 69  1  0
 26 70  1  0
 30 71  1  0
 31 72  1  0
 38 73  1  0
 40 74  1  0
 41 75  1  0
 42 76  1  0
 44 77  1  0
 46 78  1  0
 47 79  1  0
 48 80  1  0
 49 81  1  0
 50 82  1  0
 51 83  1  0
 52 84  1  0
M  END
> <Uni-Dock RESULT> 
ENERGY=   -4.211  LOWER_BOUND=    2.655  UPPER_BOUND=    7.821
INTER + INTRA:          -4.211
INTER:                  -4.211
INTRA:                   0.000
UNBOUND:                 0.000

$$$$
