
     RDKit          3D

 84 92  0  0  0  0  0  0  0  0999 V2000
   30.7085    9.4606   27.6762 C   0  0  0  0  0  0  0  0  0  0  0  0
   30.6026    9.2470   29.0566 C   0  0  0  0  0  0  0  0  0  0  0  0
   31.5863    9.7557   29.9124 C   0  0  0  0  0  0  0  0  0  0  0  0
   32.6587   10.4665   29.3807 C   0  0  0  0  0  0  0  0  0  0  0  0
   32.7651   10.6855   28.0109 C   0  0  0  0  0  0  0  0  0  0  0  0
   31.7873   10.1790   27.1538 C   0  0  0  0  0  0  0  0  0  0  0  0
   22.7483   11.2105   30.9628 C   0  0  0  0  0  0  0  0  0  0  0  0
   21.9783   12.3396   30.7031 C   0  0  0  0  0  0  0  0  0  0  0  0
   21.9465   12.9086   29.4312 C   0  0  0  0  0  0  0  0  0  0  0  0
   22.7004   12.3386   28.4051 C   0  0  0  0  0  0  0  0  0  0  0  0
   23.4789   11.2064   28.6568 C   0  0  0  0  0  0  0  0  0  0  0  0
   23.5066   10.6349   29.9360 C   0  0  0  0  0  0  0  0  0  0  0  0
   28.5306    6.3516   30.3587 N   0  0  0  0  0  0  0  0  0  0  0  0
   29.5078    7.1764   29.8859 C   0  0  0  0  0  0  0  0  0  0  0  0
   30.7551    6.3697   29.6481 C   0  0  0  0  0  0  0  0  0  0  0  0
   30.5250    5.1601   30.5148 C   0  0  0  0  0  0  0  0  0  0  0  0
   29.0119    5.1070   30.6557 C   0  0  0  0  0  0  0  0  0  0  0  0
   26.8708    8.6583   29.9321 N   0  0  0  0  0  0  0  0  0  0  0  0
   25.9101    9.6151   30.1397 C   0  0  0  0  0  0  0  0  0  0  0  0
   26.5574   10.8309   30.2836 C   0  0  0  0  0  0  0  0  0  0  0  0
   27.9423   10.6151   30.0976 C   0  0  0  0  0  0  0  0  0  0  0  0
   28.1017    9.2708   29.8654 C   0  0  0  0  0  0  0  0  0  0  0  0
   24.2272    6.8677   30.8309 N   0  0  0  0  0  0  0  0  0  0  0  0
   23.2421    5.9127   30.9586 C   0  0  0  0  0  0  0  0  0  0  0  0
   22.0279    6.4920   30.6754 C   0  0  0  0  0  0  0  0  0  0  0  0
   22.2858    7.8453   30.3565 C   0  0  0  0  0  0  0  0  0  0  0  0
   23.6495    8.0601   30.4666 C   0  0  0  0  0  0  0  0  0  0  0  0
   25.9619    4.6162   31.0700 N   0  0  0  0  0  0  0  0  0  0  0  0
   27.0394    3.7773   31.2180 C   0  0  0  0  0  0  0  0  0  0  0  0
   26.4736    2.4963   31.6316 C   0  0  0  0  0  0  0  0  0  0  0  0
   25.1518    2.6056   31.7074 C   0  0  0  0  0  0  0  0  0  0  0  0
   24.7959    3.9601   31.3587 C   0  0  0  0  0  0  0  0  0  0  0  0
   28.3922    3.9457   31.0514 C   0  0  0  0  0  0  0  0  0  0  0  0
   29.4540    8.5049   29.6102 C   0  0  0  0  0  0  0  0  0  0  0  0
   24.3490    9.4415   30.1980 C   0  0  0  0  0  0  0  0  0  0  0  0
   23.5128    4.4050   31.3528 C   0  0  0  0  0  0  0  0  0  0  0  0
   29.2761    2.7697   31.3192 C   0  0  0  0  0  0  0  0  0  0  0  0
   29.8295    2.5620   32.5915 C   0  0  0  0  0  0  0  0  0  0  0  0
   30.6484    1.4612   32.8170 C   0  0  0  0  0  0  0  0  0  0  0  0
   30.9282    0.5545   31.7943 C   0  0  0  0  0  0  0  0  0  0  0  0
   30.3757    0.7506   30.5281 C   0  0  0  0  0  0  0  0  0  0  0  0
   29.5541    1.8535   30.2920 C   0  0  0  0  0  0  0  0  0  0  0  0
   22.3678    3.5502   31.7297 C   0  0  0  0  0  0  0  0  0  0  0  0
   22.0624    3.3440   33.0795 C   0  0  0  0  0  0  0  0  0  0  0  0
   20.9719    2.5508   33.4253 C   0  0  0  0  0  0  0  0  0  0  0  0
   20.1724    1.9680   32.4472 C   0  0  0  0  0  0  0  0  0  0  0  0
   20.4763    2.1657   31.1002 C   0  0  0  0  0  0  0  0  0  0  0  0
   21.5742    2.9522   30.7426 C   0  0  0  0  0  0  0  0  0  0  0  0
   20.6612    2.3173   34.7356 O   0  0  0  0  0  0  0  0  0  0  0  0
   31.1719    1.2856   34.0678 O   0  0  0  0  0  0  0  0  0  0  0  0
   33.6372   10.9685   30.1915 O   0  0  0  0  0  0  0  0  0  0  0  0
   21.2580   12.8755   31.7318 O   0  0  0  0  0  0  0  0  0  0  0  0
   29.9418    9.0547   27.0188 H   0  0  0  0  0  0  0  0  0  0  0  0
   31.4868    9.5751   30.9793 H   0  0  0  0  0  0  0  0  0  0  0  0
   33.6079   11.2413   27.6145 H   0  0  0  0  0  0  0  0  0  0  0  0
   31.8612   10.3372   26.0826 H   0  0  0  0  0  0  0  0  0  0  0  0
   22.7674   10.7758   31.9598 H   0  0  0  0  0  0  0  0  0  0  0  0
   21.3473   13.7877   29.2229 H   0  0  0  0  0  0  0  0  0  0  0  0
   22.6896   12.7714   27.4088 H   0  0  0  0  0  0  0  0  0  0  0  0
   24.0729   10.7630   27.8590 H   0  0  0  0  0  0  0  0  0  0  0  0
   31.6842    6.8712   29.9326 H   0  0  0  0  0  0  0  0  0  0  0  0
   30.8214    6.0810   28.5921 H   0  0  0  0  0  0  0  0  0  0  0  0
   30.9759    4.2823   30.0418 H   0  0  0  0  0  0  0  0  0  0  0  0
   30.9864    5.3063   31.5001 H   0  0  0  0  0  0  0  0  0  0  0  0
   26.7822    7.6425   29.8899 H   0  0  0  0  0  0  0  0  0  0  0  0
   26.0838   11.7806   30.4850 H   0  0  0  0  0  0  0  0  0  0  0  0
   28.7325   11.3502   30.1346 H   0  0  0  0  0  0  0  0  0  0  0  0
   25.2142    6.6321   30.9565 H   0  0  0  0  0  0  0  0  0  0  0  0
   21.0671    5.9983   30.6893 H   0  0  0  0  0  0  0  0  0  0  0  0
   21.5456    8.5819   30.0751 H   0  0  0  0  0  0  0  0  0  0  0  0
   27.0259    1.5980   31.8396 H   0  0  0  0  0  0  0  0  0  0  0  0
   24.4745    1.8165   31.9790 H   0  0  0  0  0  0  0  0  0  0  0  0
   29.6076    3.2696   33.3851 H   0  0  0  0  0  0  0  0  0  0  0  0
   31.5666   -0.3040   31.9643 H   0  0  0  0  0  0  0  0  0  0  0  0
   30.5774    0.0546   29.7215 H   0  0  0  0  0  0  0  0  0  0  0  0
   29.1132    2.0252   29.3125 H   0  0  0  0  0  0  0  0  0  0  0  0
   22.6972    3.8091   33.8288 H   0  0  0  0  0  0  0  0  0  0  0  0
   19.3230    1.3568   32.7338 H   0  0  0  0  0  0  0  0  0  0  0  0
   19.8647    1.7111   30.3273 H   0  0  0  0  0  0  0  0  0  0  0  0
   21.8230    3.1109   29.6946 H   0  0  0  0  0  0  0  0  0  0  0  0
   21.4008    2.6736   35.2599 H   0  0  0  0  0  0  0  0  0  0  0  0
   31.7040    0.4783   34.0544 H   0  0  0  0  0  0  0  0  0  0  0  0
   33.4281   10.6627   31.0914 H   0  0  0  0  0  0  0  0  0  0  0  0
   20.8058   13.6683   31.4048 H   0  0  0  0  0  0  0  0  0  0  0  0
 25 26  2  0
 26 27  1  0
 27 23  1  0
 28 29  1  0
  1  2  2  0
  3  4  2  0
  7  8  2  0
 14 15  1  0
 29 30  1  0
 30 31  2  0
 31 32  1  0
 32 28  2  0
 15 16  1  0
 29 33  2  0
 17 33  1  0
 16 17  1  0
 14 34  2  0
 22 34  1  0
 17 13  2  0
 27 35  2  0
 19 35  1  0
 18 19  1  0
 24 36  2  0
 32 36  1  0
  8  9  1  0
  4  5  1  0
 37 38  2  0
  9 10  2  0
 38 39  1  0
  2  3  1  0
 39 40  2  0
 10 11  1  0
 40 41  1  0
 19 20  2  0
 41 42  2  0
 42 37  1  0
 33 37  1  0
 20 21  1  0
 21 22  2  0
 43 44  2  0
 22 18  1  0
 44 45  1  0
 23 24  1  0
 45 46  2  0
  5  6  2  0
 46 47  1  0
 11 12  2  0
 47 48  2  0
 48 43  1  0
 36 43  1  0
 12  7  1  0
 45 49  1  0
 13 14  1  0
 39 50  1  0
 35 12  1  0
 34  2  1  0
  6  1  1  0
  4 51  1  0
 24 25  1  0
  8 52  1  0
  1 53  1  0
  3 54  1  0
  5 55  1  0
  6 56  1  0
  7 57  1  0
  9 58  1  0
 10 59  1  0
 11 60  1  0
 15 61  1  0
 15 62  1  0
 16 63  1  0
 16 64  1  0
 18 65  1  0
 20 66  1  0
 21 67  1  0
 23 68  1  0
 25 69  1  0
 26 70  1  0
 30 71  1  0
 31 72  1  0
 38 73  1  0
 40 74  1  0
 41 75  1  0
 42 76  1  0
 44 77  1  0
 46 78  1  0
 47 79  1  0
 48 80  1  0
 49 81  1  0
 50 82  1  0
 51 83  1  0
 52 84  1  0
M  END
> <Uni-Dock RESULT> 
ENERGY=   -5.604  LOWER_BOUND=    0.000  UPPER_BOUND=    0.000
INTER + INTRA:          -5.604
INTER:                  -5.604
INTRA:                   0.000
UNBOUND:                 0.000

$$$$

     RDKit          3D

 84 92  0  0  0  0  0  0  0  0999 V2000
   30.9682    9.2462   27.8965 C   0  0  0  0  0  0  0  0  0  0  0  0
   30.8127    9.0301   29.2718 C   0  0  0  0  0  0  0  0  0  0  0  0
   31.7921    9.4910   30.1590 C   0  0  0  0  0  0  0  0  0  0  0  0
   32.9095   10.1570   29.6634 C   0  0  0  0  0  0  0  0  0  0  0  0
   33.0654   10.3783   28.2987 C   0  0  0  0  0  0  0  0  0  0  0  0
   32.0920    9.9195   27.4103 C   0  0  0  0  0  0  0  0  0  0  0  0
   22.9988   11.3248   30.9621 C   0  0  0  0  0  0  0  0  0  0  0  0
   22.2866   12.4878   30.6875 C   0  0  0  0  0  0  0  0  0  0  0  0
   22.3168   13.0643   29.4190 C   0  0  0  0  0  0  0  0  0  0  0  0
   23.0749   12.4673   28.4115 C   0  0  0  0  0  0  0  0  0  0  0  0
   23.7957   11.3009   28.6783 C   0  0  0  0  0  0  0  0  0  0  0  0
   23.7611   10.7220   29.9540 C   0  0  0  0  0  0  0  0  0  0  0  0
   28.5795    6.2212   30.4944 N   0  0  0  0  0  0  0  0  0  0  0  0
   29.6050    7.0050   30.0555 C   0  0  0  0  0  0  0  0  0  0  0  0
   30.8226    6.1459   29.8488 C   0  0  0  0  0  0  0  0  0  0  0  0
   30.5147    4.9430   30.7005 C   0  0  0  0  0  0  0  0  0  0  0  0
   28.9973    4.9553   30.7971 C   0  0  0  0  0  0  0  0  0  0  0  0
   27.0347    8.6005   30.0349 N   0  0  0  0  0  0  0  0  0  0  0  0
   26.1109    9.5972   30.2207 C   0  0  0  0  0  0  0  0  0  0  0  0
   26.8060   10.7828   30.3912 C   0  0  0  0  0  0  0  0  0  0  0  0
   28.1851   10.5077   30.2440 C   0  0  0  0  0  0  0  0  0  0  0  0
   28.2926    9.1589   30.0079 C   0  0  0  0  0  0  0  0  0  0  0  0
   24.2907    6.9223   30.8449 N   0  0  0  0  0  0  0  0  0  0  0  0
   23.2616    6.0105   30.9377 C   0  0  0  0  0  0  0  0  0  0  0  0
   22.0825    6.6439   30.6231 C   0  0  0  0  0  0  0  0  0  0  0  0
   22.4083    7.9862   30.3207 C   0  0  0  0  0  0  0  0  0  0  0  0
   23.7763    8.1407   30.4718 C   0  0  0  0  0  0  0  0  0  0  0  0
   25.9180    4.5959   31.1195 N   0  0  0  0  0  0  0  0  0  0  0  0
   26.9532    3.7100   31.2933 C   0  0  0  0  0  0  0  0  0  0  0  0
   26.3203    2.4529   31.6819 C   0  0  0  0  0  0  0  0  0  0  0  0
   25.0029    2.6193   31.7200 C   0  0  0  0  0  0  0  0  0  0  0  0
   24.7166    3.9899   31.3700 C   0  0  0  0  0  0  0  0  0  0  0  0
   28.3164    3.8200   31.1671 C   0  0  0  0  0  0  0  0  0  0  0  0
   29.6172    8.3360   29.7870 C   0  0  0  0  0  0  0  0  0  0  0  0
   24.5427    9.4916   30.2326 C   0  0  0  0  0  0  0  0  0  0  0  0
   23.4548    4.4904   31.3298 C   0  0  0  0  0  0  0  0  0  0  0  0
   29.1400    2.6052   31.4528 C   0  0  0  0  0  0  0  0  0  0  0  0
   29.6464    2.3669   32.7391 C   0  0  0  0  0  0  0  0  0  0  0  0
   30.4097    1.2302   32.9812 C   0  0  0  0  0  0  0  0  0  0  0  0
   30.6796    0.3176   31.9611 C   0  0  0  0  0  0  0  0  0  0  0  0
   30.1735    0.5442   30.6807 C   0  0  0  0  0  0  0  0  0  0  0  0
   29.4079    1.6832   30.4281 C   0  0  0  0  0  0  0  0  0  0  0  0
   22.2632    3.6844   31.6677 C   0  0  0  0  0  0  0  0  0  0  0  0
   21.9098    3.4847   33.0067 C   0  0  0  0  0  0  0  0  0  0  0  0
   20.7761    2.7381   33.3156 C   0  0  0  0  0  0  0  0  0  0  0  0
   19.9810    2.1959   32.3109 C   0  0  0  0  0  0  0  0  0  0  0  0
   20.3325    2.3873   30.9746 C   0  0  0  0  0  0  0  0  0  0  0  0
   21.4735    3.1269   30.6541 C   0  0  0  0  0  0  0  0  0  0  0  0
   20.4174    2.5115   34.6148 O   0  0  0  0  0  0  0  0  0  0  0  0
   30.8882    1.0254   34.2455 O   0  0  0  0  0  0  0  0  0  0  0  0
   33.8848   10.6116   30.5054 O   0  0  0  0  0  0  0  0  0  0  0  0
   21.5604   13.0492   31.6983 O   0  0  0  0  0  0  0  0  0  0  0  0
   30.2041    8.8776   27.2145 H   0  0  0  0  0  0  0  0  0  0  0  0
   31.6536    9.3093   31.2214 H   0  0  0  0  0  0  0  0  0  0  0  0
   33.9428   10.8989   27.9305 H   0  0  0  0  0  0  0  0  0  0  0  0
   32.2040   10.0800   26.3428 H   0  0  0  0  0  0  0  0  0  0  0  0
   22.9698   10.8845   31.9563 H   0  0  0  0  0  0  0  0  0  0  0  0
   21.7628   13.9698   29.1991 H   0  0  0  0  0  0  0  0  0  0  0  0
   23.1121   12.9053   27.4182 H   0  0  0  0  0  0  0  0  0  0  0  0
   24.3930   10.8362   27.8952 H   0  0  0  0  0  0  0  0  0  0  0  0
   31.7638    6.6048   30.1634 H   0  0  0  0  0  0  0  0  0  0  0  0
   30.9071    5.8601   28.7932 H   0  0  0  0  0  0  0  0  0  0  0  0
   30.9407    4.0488   30.2351 H   0  0  0  0  0  0  0  0  0  0  0  0
   30.9531    5.0638   31.6997 H   0  0  0  0  0  0  0  0  0  0  0  0
   26.9034    7.5897   29.9835 H   0  0  0  0  0  0  0  0  0  0  0  0
   26.3685   11.7512   30.5850 H   0  0  0  0  0  0  0  0  0  0  0  0
   29.0051   11.2074   30.3088 H   0  0  0  0  0  0  0  0  0  0  0  0
   25.2623    6.6432   30.9975 H   0  0  0  0  0  0  0  0  0  0  0  0
   21.1012    6.1925   30.6060 H   0  0  0  0  0  0  0  0  0  0  0  0
   21.7094    8.7559   30.0228 H   0  0  0  0  0  0  0  0  0  0  0  0
   26.8267    1.5302   31.9000 H   0  0  0  0  0  0  0  0  0  0  0  0
   24.2843    1.8592   31.9667 H   0  0  0  0  0  0  0  0  0  0  0  0
   29.4323    3.0794   33.5306 H   0  0  0  0  0  0  0  0  0  0  0  0
   31.2748   -0.5689   32.1440 H   0  0  0  0  0  0  0  0  0  0  0  0
   30.3682   -0.1557   29.8758 H   0  0  0  0  0  0  0  0  0  0  0  0
   29.0038    1.8791   29.4373 H   0  0  0  0  0  0  0  0  0  0  0  0
   22.5419    3.9177   33.7771 H   0  0  0  0  0  0  0  0  0  0  0  0
   19.0978    1.6209   32.5688 H   0  0  0  0  0  0  0  0  0  0  0  0
   19.7246    1.9638   30.1814 H   0  0  0  0  0  0  0  0  0  0  0  0
   21.7596    3.2801   29.6149 H   0  0  0  0  0  0  0  0  0  0  0  0
   21.1560    2.8325   35.1626 H   0  0  0  0  0  0  0  0  0  0  0  0
   31.3849    0.1956   34.2423 H   0  0  0  0  0  0  0  0  0  0  0  0
   33.6363   10.3105   31.3969 H   0  0  0  0  0  0  0  0  0  0  0  0
   21.1529   13.8627   31.3636 H   0  0  0  0  0  0  0  0  0  0  0  0
 25 26  2  0
 26 27  1  0
 27 23  1  0
 28 29  1  0
  1  2  2  0
  3  4  2  0
  7  8  2  0
 14 15  1  0
 29 30  1  0
 30 31  2  0
 31 32  1  0
 32 28  2  0
 15 16  1  0
 29 33  2  0
 17 33  1  0
 16 17  1  0
 14 34  2  0
 22 34  1  0
 17 13  2  0
 27 35  2  0
 19 35  1  0
 18 19  1  0
 24 36  2  0
 32 36  1  0
  8  9  1  0
  4  5  1  0
 37 38  2  0
  9 10  2  0
 38 39  1  0
  2  3  1  0
 39 40  2  0
 10 11  1  0
 40 41  1  0
 19 20  2  0
 41 42  2  0
 42 37  1  0
 33 37  1  0
 20 21  1  0
 21 22  2  0
 43 44  2  0
 22 18  1  0
 44 45  1  0
 23 24  1  0
 45 46  2  0
  5  6  2  0
 46 47  1  0
 11 12  2  0
 47 48  2  0
 48 43  1  0
 36 43  1  0
 12  7  1  0
 45 49  1  0
 13 14  1  0
 39 50  1  0
 35 12  1  0
 34  2  1  0
  6  1  1  0
  4 51  1  0
 24 25  1  0
  8 52  1  0
  1 53  1  0
  3 54  1  0
  5 55  1  0
  6 56  1  0
  7 57  1  0
  9 58  1  0
 10 59  1  0
 11 60  1  0
 15 61  1  0
 15 62  1  0
 16 63  1  0
 16 64  1  0
 18 65  1  0
 20 66  1  0
 21 67  1  0
 23 68  1  0
 25 69  1  0
 26 70  1  0
 30 71  1  0
 31 72  1  0
 38 73  1  0
 40 74  1  0
 41 75  1  0
 42 76  1  0
 44 77  1  0
 46 78  1  0
 47 79  1  0
 48 80  1  0
 49 81  1  0
 50 82  1  0
 51 83  1  0
 52 84  1  0
M  END
> <Uni-Dock RESULT> 
ENERGY=   -5.405  LOWER_BOUND=    0.298  UPPER_BOUND=    0.298
INTER + INTRA:          -5.405
INTER:                  -5.405
INTRA:                   0.000
UNBOUND:                 0.000

$$$$

     RDKit          3D

 84 92  0  0  0  0  0  0  0  0999 V2000
   21.9531    3.4160   30.3525 C   0  0  0  0  0  0  0  0  0  0  0  0
   22.3934    4.2612   31.3792 C   0  0  0  0  0  0  0  0  0  0  0  0
   21.6960    4.2969   32.5921 C   0  0  0  0  0  0  0  0  0  0  0  0
   20.5724    3.4928   32.7625 C   0  0  0  0  0  0  0  0  0  0  0  0
   20.1348    2.6480   31.7474 C   0  0  0  0  0  0  0  0  0  0  0  0
   20.8262    2.6102   30.5359 C   0  0  0  0  0  0  0  0  0  0  0  0
   30.5853    2.9303   31.9269 C   0  0  0  0  0  0  0  0  0  0  0  0
   31.3358    1.7665   32.0585 C   0  0  0  0  0  0  0  0  0  0  0  0
   31.0795    0.6539   31.2593 C   0  0  0  0  0  0  0  0  0  0  0  0
   30.0531    0.7081   30.3159 C   0  0  0  0  0  0  0  0  0  0  0  0
   29.2921    1.8713   30.1783 C   0  0  0  0  0  0  0  0  0  0  0  0
   29.5542    2.9894   30.9814 C   0  0  0  0  0  0  0  0  0  0  0  0
   24.5345    7.2766   30.5456 N   0  0  0  0  0  0  0  0  0  0  0  0
   23.5253    6.3948   30.7961 C   0  0  0  0  0  0  0  0  0  0  0  0
   22.2085    7.0697   30.5247 C   0  0  0  0  0  0  0  0  0  0  0  0
   22.5723    8.5284   30.6084 C   0  0  0  0  0  0  0  0  0  0  0  0
   24.0644    8.5395   30.3160 C   0  0  0  0  0  0  0  0  0  0  0  0
   26.1782    4.9431   30.8796 N   0  0  0  0  0  0  0  0  0  0  0  0
   27.2206    4.1422   31.2711 C   0  0  0  0  0  0  0  0  0  0  0  0
   26.7125    3.1939   32.1432 C   0  0  0  0  0  0  0  0  0  0  0  0
   25.3149    3.3871   32.2354 C   0  0  0  0  0  0  0  0  0  0  0  0
   25.0138    4.4600   31.4324 C   0  0  0  0  0  0  0  0  0  0  0  0
   28.8403    6.7601   30.0959 N   0  0  0  0  0  0  0  0  0  0  0  0
   29.7607    7.5885   29.4912 C   0  0  0  0  0  0  0  0  0  0  0  0
   30.8977    6.8631   29.2248 C   0  0  0  0  0  0  0  0  0  0  0  0
   30.6563    5.5451   29.6765 C   0  0  0  0  0  0  0  0  0  0  0  0
   29.3828    5.5036   30.2194 C   0  0  0  0  0  0  0  0  0  0  0  0
   27.0803    8.9600   29.6505 N   0  0  0  0  0  0  0  0  0  0  0  0
   26.0235    9.8375   29.6436 C   0  0  0  0  0  0  0  0  0  0  0  0
   26.5909   11.1170   29.2278 C   0  0  0  0  0  0  0  0  0  0  0  0
   27.8925   10.9681   29.0079 C   0  0  0  0  0  0  0  0  0  0  0  0
   28.2357    9.5927   29.2791 C   0  0  0  0  0  0  0  0  0  0  0  0
   24.6870    9.7023   29.9293 C   0  0  0  0  0  0  0  0  0  0  0  0
   23.5940    5.0980   31.1928 C   0  0  0  0  0  0  0  0  0  0  0  0
   28.7301    4.2154   30.8391 C   0  0  0  0  0  0  0  0  0  0  0  0
   29.5012    9.1139   29.1626 C   0  0  0  0  0  0  0  0  0  0  0  0
   23.8256   10.9188   29.8109 C   0  0  0  0  0  0  0  0  0  0  0  0
   23.6026   11.7516   30.9175 C   0  0  0  0  0  0  0  0  0  0  0  0
   22.7980   12.8776   30.7833 C   0  0  0  0  0  0  0  0  0  0  0  0
   22.2077   13.1951   29.5597 C   0  0  0  0  0  0  0  0  0  0  0  0
   22.4306   12.3754   28.4528 C   0  0  0  0  0  0  0  0  0  0  0  0
   23.2353   11.2423   28.5785 C   0  0  0  0  0  0  0  0  0  0  0  0
   30.6458    9.9641   28.7745 C   0  0  0  0  0  0  0  0  0  0  0  0
   31.2712   10.7744   29.7284 C   0  0  0  0  0  0  0  0  0  0  0  0
   32.3595   11.5596   29.3579 C   0  0  0  0  0  0  0  0  0  0  0  0
   32.8431   11.5421   28.0536 C   0  0  0  0  0  0  0  0  0  0  0  0
   32.2193   10.7404   27.0976 C   0  0  0  0  0  0  0  0  0  0  0  0
   31.1206    9.9559   27.4568 C   0  0  0  0  0  0  0  0  0  0  0  0
   32.9780   12.3744   30.2642 O   0  0  0  0  0  0  0  0  0  0  0  0
   22.6005   13.6700   31.8799 O   0  0  0  0  0  0  0  0  0  0  0  0
   19.8681    3.5123   33.9332 O   0  0  0  0  0  0  0  0  0  0  0  0
   32.3283    1.7457   32.9960 O   0  0  0  0  0  0  0  0  0  0  0  0
   22.4985    3.4010   29.4107 H   0  0  0  0  0  0  0  0  0  0  0  0
   22.0522    4.9625   33.3737 H   0  0  0  0  0  0  0  0  0  0  0  0
   19.2570    2.0289   31.8980 H   0  0  0  0  0  0  0  0  0  0  0  0
   20.4921    1.9603   29.7335 H   0  0  0  0  0  0  0  0  0  0  0  0
   30.7927    3.7922   32.5573 H   0  0  0  0  0  0  0  0  0  0  0  0
   31.6620   -0.2552   31.3567 H   0  0  0  0  0  0  0  0  0  0  0  0
   29.8378   -0.1512   29.6872 H   0  0  0  0  0  0  0  0  0  0  0  0
   28.4865    1.9142   29.4468 H   0  0  0  0  0  0  0  0  0  0  0  0
   21.4176    6.8324   31.2415 H   0  0  0  0  0  0  0  0  0  0  0  0
   21.8563    6.8169   29.5172 H   0  0  0  0  0  0  0  0  0  0  0  0
   21.9591    9.0976   29.9030 H   0  0  0  0  0  0  0  0  0  0  0  0
   22.3880    8.9074   31.6220 H   0  0  0  0  0  0  0  0  0  0  0  0
   26.1862    5.8038   30.3312 H   0  0  0  0  0  0  0  0  0  0  0  0
   27.2830    2.4295   32.6501 H   0  0  0  0  0  0  0  0  0  0  0  0
   24.6103    2.8169   32.8223 H   0  0  0  0  0  0  0  0  0  0  0  0
   27.9048    7.0937   30.3384 H   0  0  0  0  0  0  0  0  0  0  0  0
   31.7958    7.2355   28.7537 H   0  0  0  0  0  0  0  0  0  0  0  0
   31.3469    4.7156   29.6081 H   0  0  0  0  0  0  0  0  0  0  0  0
   26.0523   12.0395   29.1089 H   0  0  0  0  0  0  0  0  0  0  0  0
   28.5634   11.7420   28.6823 H   0  0  0  0  0  0  0  0  0  0  0  0
   24.0655   11.5014   31.8677 H   0  0  0  0  0  0  0  0  0  0  0  0
   21.5790   14.0704   29.4501 H   0  0  0  0  0  0  0  0  0  0  0  0
   21.9848   12.6079   27.4921 H   0  0  0  0  0  0  0  0  0  0  0  0
   23.4221   10.5898   27.7284 H   0  0  0  0  0  0  0  0  0  0  0  0
   30.8804   10.7730   30.7423 H   0  0  0  0  0  0  0  0  0  0  0  0
   33.6956   12.1562   27.7826 H   0  0  0  0  0  0  0  0  0  0  0  0
   32.5824   10.7228   26.0748 H   0  0  0  0  0  0  0  0  0  0  0  0
   30.6236    9.3287   26.7185 H   0  0  0  0  0  0  0  0  0  0  0  0
   32.4217   12.3665   31.0637 H   0  0  0  0  0  0  0  0  0  0  0  0
   22.0308   14.4050   31.6142 H   0  0  0  0  0  0  0  0  0  0  0  0
   20.2793    4.1992   34.4865 H   0  0  0  0  0  0  0  0  0  0  0  0
   32.7331    0.8647   32.9898 H   0  0  0  0  0  0  0  0  0  0  0  0
 25 26  2  0
 26 27  1  0
 27 23  1  0
 28 29  1  0
  1  2  2  0
  3  4  2  0
  7  8  2  0
 14 15  1  0
 29 30  1  0
 30 31  2  0
 31 32  1  0
 32 28  2  0
 15 16  1  0
 29 33  2  0
 17 33  1  0
 16 17  1  0
 14 34  2  0
 22 34  1  0
 17 13  2  0
 27 35  2  0
 19 35  1  0
 18 19  1  0
 24 36  2  0
 32 36  1  0
  8  9  1  0
  4  5  1  0
 37 38  2  0
  9 10  2  0
 38 39  1  0
  2  3  1  0
 39 40  2  0
 10 11  1  0
 40 41  1  0
 19 20  2  0
 41 42  2  0
 42 37  1  0
 33 37  1  0
 20 21  1  0
 21 22  2  0
 43 44  2  0
 22 18  1  0
 44 45  1  0
 23 24  1  0
 45 46  2  0
  5  6  2  0
 46 47  1  0
 11 12  2  0
 47 48  2  0
 48 43  1  0
 36 43  1  0
 12  7  1  0
 45 49  1  0
 13 14  1  0
 39 50  1  0
 35 12  1  0
 34  2  1  0
  6  1  1  0
  4 51  1  0
 24 25  1  0
  8 52  1  0
  1 53  1  0
  3 54  1  0
  5 55  1  0
  6 56  1  0
  7 57  1  0
  9 58  1  0
 10 59  1  0
 11 60  1  0
 15 61  1  0
 15 62  1  0
 16 63  1  0
 16 64  1  0
 18 65  1  0
 20 66  1  0
 21 67  1  0
 23 68  1  0
 25 69  1  0
 26 70  1  0
 30 71  1  0
 31 72  1  0
 38 73  1  0
 40 74  1  0
 41 75  1  0
 42 76  1  0
 44 77  1  0
 46 78  1  0
 47 79  1  0
 48 80  1  0
 49 81  1  0
 50 82  1  0
 51 83  1  0
 52 84  1  0
M  END
> <Uni-Dock RESULT> 
ENERGY=   -5.327  LOWER_BOUND=    0.857  UPPER_BOUND=   11.021
INTER + INTRA:          -5.327
INTER:                  -5.327
INTRA:                   0.000
UNBOUND:                 0.000

$$$$

     RDKit          3D

 84 92  0  0  0  0  0  0  0  0999 V2000
   31.4725    8.0702   28.2386 C   0  0  0  0  0  0  0  0  0  0  0  0
   31.2748    7.8986   29.6148 C   0  0  0  0  0  0  0  0  0  0  0  0
   32.2317    8.3792   30.5159 C   0  0  0  0  0  0  0  0  0  0  0  0
   33.3691    9.0205   30.0331 C   0  0  0  0  0  0  0  0  0  0  0  0
   33.5669    9.1977   28.6674 C   0  0  0  0  0  0  0  0  0  0  0  0
   32.6160    8.7191   27.7652 C   0  0  0  0  0  0  0  0  0  0  0  0
   23.4353   10.3070   31.0007 C   0  0  0  0  0  0  0  0  0  0  0  0
   22.7418   11.4664   30.6691 C   0  0  0  0  0  0  0  0  0  0  0  0
   22.8143   12.0027   29.3848 C   0  0  0  0  0  0  0  0  0  0  0  0
   23.5963   11.3683   28.4192 C   0  0  0  0  0  0  0  0  0  0  0  0
   24.2987   10.2052   28.7433 C   0  0  0  0  0  0  0  0  0  0  0  0
   24.2214    9.6668   30.0348 C   0  0  0  0  0  0  0  0  0  0  0  0
   28.9819    5.1471   30.8573 N   0  0  0  0  0  0  0  0  0  0  0  0
   30.0268    5.9087   30.4249 C   0  0  0  0  0  0  0  0  0  0  0  0
   31.2422    5.0338   30.2811 C   0  0  0  0  0  0  0  0  0  0  0  0
   30.8988    3.8606   31.1603 C   0  0  0  0  0  0  0  0  0  0  0  0
   29.3794    3.8881   31.2114 C   0  0  0  0  0  0  0  0  0  0  0  0
   27.4724    7.5230   30.2785 N   0  0  0  0  0  0  0  0  0  0  0  0
   26.5524    8.5323   30.4059 C   0  0  0  0  0  0  0  0  0  0  0  0
   27.2527    9.7172   30.5599 C   0  0  0  0  0  0  0  0  0  0  0  0
   28.6330    9.4267   30.4623 C   0  0  0  0  0  0  0  0  0  0  0  0
   28.7354    8.0704   30.2715 C   0  0  0  0  0  0  0  0  0  0  0  0
   24.6910    5.8928   31.0586 N   0  0  0  0  0  0  0  0  0  0  0  0
   23.6516    4.9926   31.1491 C   0  0  0  0  0  0  0  0  0  0  0  0
   22.4879    5.6251   30.7803 C   0  0  0  0  0  0  0  0  0  0  0  0
   22.8343    6.9547   30.4461 C   0  0  0  0  0  0  0  0  0  0  0  0
   24.1986    7.1030   30.6327 C   0  0  0  0  0  0  0  0  0  0  0  0
   26.2889    3.5634   31.4535 N   0  0  0  0  0  0  0  0  0  0  0  0
   27.3107    2.6752   31.6853 C   0  0  0  0  0  0  0  0  0  0  0  0
   26.6555    1.4358   32.0938 C   0  0  0  0  0  0  0  0  0  0  0  0
   25.3391    1.6138   32.0877 C   0  0  0  0  0  0  0  0  0  0  0  0
   25.0754    2.9750   31.6870 C   0  0  0  0  0  0  0  0  0  0  0  0
   28.6779    2.7704   31.5962 C   0  0  0  0  0  0  0  0  0  0  0  0
   30.0586    7.2305   30.1157 C   0  0  0  0  0  0  0  0  0  0  0  0
   24.9836    8.4396   30.3745 C   0  0  0  0  0  0  0  0  0  0  0  0
   23.8198    3.4840   31.5939 C   0  0  0  0  0  0  0  0  0  0  0  0
   29.4820    1.5586   31.9437 C   0  0  0  0  0  0  0  0  0  0  0  0
   29.9482    1.3566   33.2514 C   0  0  0  0  0  0  0  0  0  0  0  0
   30.6940    0.2221   33.5511 C   0  0  0  0  0  0  0  0  0  0  0  0
   30.9857   -0.7242   32.5683 C   0  0  0  0  0  0  0  0  0  0  0  0
   30.5194   -0.5338   31.2671 C   0  0  0  0  0  0  0  0  0  0  0  0
   29.7717    0.6028   30.9566 C   0  0  0  0  0  0  0  0  0  0  0  0
   22.6117    2.6985   31.9212 C   0  0  0  0  0  0  0  0  0  0  0  0
   22.2173    2.5436   33.2547 C   0  0  0  0  0  0  0  0  0  0  0  0
   21.0684    1.8161   33.5529 C   0  0  0  0  0  0  0  0  0  0  0  0
   20.2985    1.2490   32.5424 C   0  0  0  0  0  0  0  0  0  0  0  0
   20.6907    1.3956   31.2118 C   0  0  0  0  0  0  0  0  0  0  0  0
   21.8472    2.1158   30.9025 C   0  0  0  0  0  0  0  0  0  0  0  0
   20.6697    1.6331   34.8473 O   0  0  0  0  0  0  0  0  0  0  0  0
   31.1333    0.0532   34.8348 O   0  0  0  0  0  0  0  0  0  0  0  0
   34.3232    9.4934   30.8892 O   0  0  0  0  0  0  0  0  0  0  0  0
   21.9912   12.0649   31.6400 O   0  0  0  0  0  0  0  0  0  0  0  0
   30.7256    7.6866   27.5460 H   0  0  0  0  0  0  0  0  0  0  0  0
   32.0606    8.2319   31.5788 H   0  0  0  0  0  0  0  0  0  0  0  0
   34.4594    9.6995   28.3094 H   0  0  0  0  0  0  0  0  0  0  0  0
   32.7608    8.8452   26.6970 H   0  0  0  0  0  0  0  0  0  0  0  0
   23.3731    9.8982   32.0068 H   0  0  0  0  0  0  0  0  0  0  0  0
   22.2750   12.9052   29.1205 H   0  0  0  0  0  0  0  0  0  0  0  0
   23.6665   11.7748   27.4143 H   0  0  0  0  0  0  0  0  0  0  0  0
   24.9146    9.7115   27.9931 H   0  0  0  0  0  0  0  0  0  0  0  0
   32.1779    5.4949   30.6090 H   0  0  0  0  0  0  0  0  0  0  0  0
   31.3552    4.7145   29.2379 H   0  0  0  0  0  0  0  0  0  0  0  0
   31.3304    2.9490   30.7357 H   0  0  0  0  0  0  0  0  0  0  0  0
   31.3087    4.0092   32.1678 H   0  0  0  0  0  0  0  0  0  0  0  0
   27.3337    6.5121   30.2547 H   0  0  0  0  0  0  0  0  0  0  0  0
   26.8182   10.6946   30.7105 H   0  0  0  0  0  0  0  0  0  0  0  0
   29.4568   10.1215   30.5296 H   0  0  0  0  0  0  0  0  0  0  0  0
   25.6552    5.6110   31.2486 H   0  0  0  0  0  0  0  0  0  0  0  0
   21.5036    5.1812   30.7481 H   0  0  0  0  0  0  0  0  0  0  0  0
   22.1513    7.7202   30.1038 H   0  0  0  0  0  0  0  0  0  0  0  0
   27.1471    0.5165   32.3554 H   0  0  0  0  0  0  0  0  0  0  0  0
   24.6069    0.8676   32.3365 H   0  0  0  0  0  0  0  0  0  0  0  0
   29.7173    2.0952   34.0136 H   0  0  0  0  0  0  0  0  0  0  0  0
   31.5674   -1.6092   32.7962 H   0  0  0  0  0  0  0  0  0  0  0  0
   30.7315   -1.2600   30.4904 H   0  0  0  0  0  0  0  0  0  0  0  0
   29.3986    0.7708   29.9487 H   0  0  0  0  0  0  0  0  0  0  0  0
   22.8304    2.9955   34.0296 H   0  0  0  0  0  0  0  0  0  0  0  0
   19.4030    0.6893   32.7917 H   0  0  0  0  0  0  0  0  0  0  0  0
   20.1026    0.9524   30.4144 H   0  0  0  0  0  0  0  0  0  0  0  0
   22.1650    2.2341   29.8679 H   0  0  0  0  0  0  0  0  0  0  0  0
   21.3948    1.9652   35.4065 H   0  0  0  0  0  0  0  0  0  0  0  0
   31.6225   -0.7802   34.8721 H   0  0  0  0  0  0  0  0  0  0  0  0
   34.0460    9.2224   31.7818 H   0  0  0  0  0  0  0  0  0  0  0  0
   21.6010   12.8708   31.2682 H   0  0  0  0  0  0  0  0  0  0  0  0
 25 26  2  0
 26 27  1  0
 27 23  1  0
 28 29  1  0
  1  2  2  0
  3  4  2  0
  7  8  2  0
 14 15  1  0
 29 30  1  0
 30 31  2  0
 31 32  1  0
 32 28  2  0
 15 16  1  0
 29 33  2  0
 17 33  1  0
 16 17  1  0
 14 34  2  0
 22 34  1  0
 17 13  2  0
 27 35  2  0
 19 35  1  0
 18 19  1  0
 24 36  2  0
 32 36  1  0
  8  9  1  0
  4  5  1  0
 37 38  2  0
  9 10  2  0
 38 39  1  0
  2  3  1  0
 39 40  2  0
 10 11  1  0
 40 41  1  0
 19 20  2  0
 41 42  2  0
 42 37  1  0
 33 37  1  0
 20 21  1  0
 21 22  2  0
 43 44  2  0
 22 18  1  0
 44 45  1  0
 23 24  1  0
 45 46  2  0
  5  6  2  0
 46 47  1  0
 11 12  2  0
 47 48  2  0
 48 43  1  0
 36 43  1  0
 12  7  1  0
 45 49  1  0
 13 14  1  0
 39 50  1  0
 35 12  1  0
 34  2  1  0
  6  1  1  0
  4 51  1  0
 24 25  1  0
  8 52  1  0
  1 53  1  0
  3 54  1  0
  5 55  1  0
  6 56  1  0
  7 57  1  0
  9 58  1  0
 10 59  1  0
 11 60  1  0
 15 61  1  0
 15 62  1  0
 16 63  1  0
 16 64  1  0
 18 65  1  0
 20 66  1  0
 21 67  1  0
 23 68  1  0
 25 69  1  0
 26 70  1  0
 30 71  1  0
 31 72  1  0
 38 73  1  0
 40 74  1  0
 41 75  1  0
 42 76  1  0
 44 77  1  0
 46 78  1  0
 47 79  1  0
 48 80  1  0
 49 81  1  0
 50 82  1  0
 51 83  1  0
 52 84  1  0
M  END
> <Uni-Dock RESULT> 
ENERGY=   -5.299  LOWER_BOUND=    1.135  UPPER_BOUND=    1.305
INTER + INTRA:          -5.299
INTER:                  -5.299
INTRA:                   0.000
UNBOUND:                 0.000

$$$$

     RDKit          3D

 84 92  0  0  0  0  0  0  0  0999 V2000
   24.3264   12.1082   30.7346 C   0  0  0  0  0  0  0  0  0  0  0  0
   24.1701   11.1332   29.7409 C   0  0  0  0  0  0  0  0  0  0  0  0
   23.3089   11.3750   28.6645 C   0  0  0  0  0  0  0  0  0  0  0  0
   22.6171   12.5811   28.5957 C   0  0  0  0  0  0  0  0  0  0  0  0
   22.7733   13.5543   29.5776 C   0  0  0  0  0  0  0  0  0  0  0  0
   23.6299   13.3170   30.6533 C   0  0  0  0  0  0  0  0  0  0  0  0
   31.9011    8.7881   27.7629 C   0  0  0  0  0  0  0  0  0  0  0  0
   33.0318    9.5111   27.3972 C   0  0  0  0  0  0  0  0  0  0  0  0
   33.4211   10.6429   28.1112 C   0  0  0  0  0  0  0  0  0  0  0  0
   32.6635   11.0576   29.2069 C   0  0  0  0  0  0  0  0  0  0  0  0
   31.5248   10.3398   29.5801 C   0  0  0  0  0  0  0  0  0  0  0  0
   31.1375    9.2005   28.8619 C   0  0  0  0  0  0  0  0  0  0  0  0
   24.9609    7.5085   30.5208 N   0  0  0  0  0  0  0  0  0  0  0  0
   24.3882    8.7335   30.3472 C   0  0  0  0  0  0  0  0  0  0  0  0
   22.9861    8.6989   30.8916 C   0  0  0  0  0  0  0  0  0  0  0  0
   22.6808    7.2244   30.8977 C   0  0  0  0  0  0  0  0  0  0  0  0
   24.0559    6.5773   30.9480 C   0  0  0  0  0  0  0  0  0  0  0  0
   27.3381    8.8968   29.6964 N   0  0  0  0  0  0  0  0  0  0  0  0
   28.5270    9.1609   29.0653 C   0  0  0  0  0  0  0  0  0  0  0  0
   28.3109   10.2160   28.1946 C   0  0  0  0  0  0  0  0  0  0  0  0
   26.9713   10.6425   28.3464 C   0  0  0  0  0  0  0  0  0  0  0  0
   26.4036    9.8225   29.2907 C   0  0  0  0  0  0  0  0  0  0  0  0
   29.0854    6.1271   30.2238 N   0  0  0  0  0  0  0  0  0  0  0  0
   29.6679    4.9964   30.7540 C   0  0  0  0  0  0  0  0  0  0  0  0
   31.0322    5.1661   30.7615 C   0  0  0  0  0  0  0  0  0  0  0  0
   31.2869    6.4490   30.2241 C   0  0  0  0  0  0  0  0  0  0  0  0
   30.0719    7.0236   29.8899 C   0  0  0  0  0  0  0  0  0  0  0  0
   26.6818    4.9120   31.1628 N   0  0  0  0  0  0  0  0  0  0  0  0
   25.3761    4.5765   31.4262 C   0  0  0  0  0  0  0  0  0  0  0  0
   25.4203    3.1869   31.8724 C   0  0  0  0  0  0  0  0  0  0  0  0
   26.6798    2.7647   31.8659 C   0  0  0  0  0  0  0  0  0  0  0  0
   27.5115    3.8512   31.4067 C   0  0  0  0  0  0  0  0  0  0  0  0
   24.1926    5.2685   31.3452 C   0  0  0  0  0  0  0  0  0  0  0  0
   24.9197    9.8648   29.8165 C   0  0  0  0  0  0  0  0  0  0  0  0
   29.9174    8.4533   29.2561 C   0  0  0  0  0  0  0  0  0  0  0  0
   28.8582    3.7398   31.2712 C   0  0  0  0  0  0  0  0  0  0  0  0
   22.9389    4.5456   31.7210 C   0  0  0  0  0  0  0  0  0  0  0  0
   22.1839    3.8661   30.7534 C   0  0  0  0  0  0  0  0  0  0  0  0
   21.0215    3.2006   31.1265 C   0  0  0  0  0  0  0  0  0  0  0  0
   20.5930    3.1959   32.4542 C   0  0  0  0  0  0  0  0  0  0  0  0
   21.3425    3.8635   33.4234 C   0  0  0  0  0  0  0  0  0  0  0  0
   22.5094    4.5356   33.0579 C   0  0  0  0  0  0  0  0  0  0  0  0
   29.5902    2.4879   31.5552 C   0  0  0  0  0  0  0  0  0  0  0  0
   29.6265    1.4661   30.5999 C   0  0  0  0  0  0  0  0  0  0  0  0
   30.3324    0.2968   30.8690 C   0  0  0  0  0  0  0  0  0  0  0  0
   31.0133    0.1328   32.0711 C   0  0  0  0  0  0  0  0  0  0  0  0
   30.9751    1.1461   33.0290 C   0  0  0  0  0  0  0  0  0  0  0  0
   30.2617    2.3196   32.7727 C   0  0  0  0  0  0  0  0  0  0  0  0
   30.3698   -0.7250   29.9621 O   0  0  0  0  0  0  0  0  0  0  0  0
   20.3081    2.5468   30.1606 O   0  0  0  0  0  0  0  0  0  0  0  0
   21.7644   12.8414   27.5603 O   0  0  0  0  0  0  0  0  0  0  0  0
   33.7464    9.0811   26.3161 O   0  0  0  0  0  0  0  0  0  0  0  0
   24.9932   11.9073   31.5711 H   0  0  0  0  0  0  0  0  0  0  0  0
   23.1994   10.6037   27.9070 H   0  0  0  0  0  0  0  0  0  0  0  0
   22.2257   14.4879   29.5076 H   0  0  0  0  0  0  0  0  0  0  0  0
   23.7564   14.0650   31.4294 H   0  0  0  0  0  0  0  0  0  0  0  0
   31.6052    7.9074   27.1972 H   0  0  0  0  0  0  0  0  0  0  0  0
   34.3020   11.2094   27.8314 H   0  0  0  0  0  0  0  0  0  0  0  0
   32.9509   11.9394   29.7723 H   0  0  0  0  0  0  0  0  0  0  0  0
   30.9283   10.6648   30.4313 H   0  0  0  0  0  0  0  0  0  0  0  0
   22.2494    9.2382   30.2899 H   0  0  0  0  0  0  0  0  0  0  0  0
   22.9681    9.1011   31.9118 H   0  0  0  0  0  0  0  0  0  0  0  0
   22.0292    6.9912   31.7454 H   0  0  0  0  0  0  0  0  0  0  0  0
   22.1682    6.9396   29.9697 H   0  0  0  0  0  0  0  0  0  0  0  0
   27.0863    8.1291   30.3200 H   0  0  0  0  0  0  0  0  0  0  0  0
   29.0437   10.6482   27.5291 H   0  0  0  0  0  0  0  0  0  0  0  0
   26.4754   11.4477   27.8251 H   0  0  0  0  0  0  0  0  0  0  0  0
   28.0692    6.2244   30.1683 H   0  0  0  0  0  0  0  0  0  0  0  0
   31.7614    4.4533   31.1183 H   0  0  0  0  0  0  0  0  0  0  0  0
   32.2613    6.9008   30.0979 H   0  0  0  0  0  0  0  0  0  0  0  0
   24.5767    2.5898   32.1677 H   0  0  0  0  0  0  0  0  0  0  0  0
   27.0114    1.7846   32.1563 H   0  0  0  0  0  0  0  0  0  0  0  0
   22.5222    3.8711   29.7212 H   0  0  0  0  0  0  0  0  0  0  0  0
   19.6875    2.6800   32.7499 H   0  0  0  0  0  0  0  0  0  0  0  0
   21.0287    3.8675   34.4613 H   0  0  0  0  0  0  0  0  0  0  0  0
   23.1085    5.0625   33.7975 H   0  0  0  0  0  0  0  0  0  0  0  0
   29.0904    1.6135   29.6664 H   0  0  0  0  0  0  0  0  0  0  0  0
   31.5630   -0.7828   32.2629 H   0  0  0  0  0  0  0  0  0  0  0  0
   31.4963    1.0280   33.9738 H   0  0  0  0  0  0  0  0  0  0  0  0
   30.2220    3.1160   33.5141 H   0  0  0  0  0  0  0  0  0  0  0  0
   29.7295   -0.4956   29.2649 H   0  0  0  0  0  0  0  0  0  0  0  0
   19.5432    2.1355   30.5861 H   0  0  0  0  0  0  0  0  0  0  0  0
   21.7375   12.0322   27.0202 H   0  0  0  0  0  0  0  0  0  0  0  0
   34.4770    9.7013   26.1692 H   0  0  0  0  0  0  0  0  0  0  0  0
 25 26  2  0
 26 27  1  0
 27 23  1  0
 28 29  1  0
  1  2  2  0
  3  4  2  0
  7  8  2  0
 14 15  1  0
 29 30  1  0
 30 31  2  0
 31 32  1  0
 32 28  2  0
 15 16  1  0
 29 33  2  0
 17 33  1  0
 16 17  1  0
 14 34  2  0
 22 34  1  0
 17 13  2  0
 27 35  2  0
 19 35  1  0
 18 19  1  0
 24 36  2  0
 32 36  1  0
  8  9  1  0
  4  5  1  0
 37 38  2  0
  9 10  2  0
 38 39  1  0
  2  3  1  0
 39 40  2  0
 10 11  1  0
 40 41  1  0
 19 20  2  0
 41 42  2  0
 42 37  1  0
 33 37  1  0
 20 21  1  0
 21 22  2  0
 43 44  2  0
 22 18  1  0
 44 45  1  0
 23 24  1  0
 45 46  2  0
  5  6  2  0
 46 47  1  0
 11 12  2  0
 47 48  2  0
 48 43  1  0
 36 43  1  0
 12  7  1  0
 45 49  1  0
 13 14  1  0
 39 50  1  0
 35 12  1  0
 34  2  1  0
  6  1  1  0
  4 51  1  0
 24 25  1  0
  8 52  1  0
  1 53  1  0
  3 54  1  0
  5 55  1  0
  6 56  1  0
  7 57  1  0
  9 58  1  0
 10 59  1  0
 11 60  1  0
 15 61  1  0
 15 62  1  0
 16 63  1  0
 16 64  1  0
 18 65  1  0
 20 66  1  0
 21 67  1  0
 23 68  1  0
 25 69  1  0
 26 70  1  0
 30 71  1  0
 31 72  1  0
 38 73  1  0
 40 74  1  0
 41 75  1  0
 42 76  1  0
 44 77  1  0
 46 78  1  0
 47 79  1  0
 48 80  1  0
 49 81  1  0
 50 82  1  0
 51 83  1  0
 52 84  1  0
M  END
> <Uni-Dock RESULT> 
ENERGY=   -5.179  LOWER_BOUND=    1.533  UPPER_BOUND=    8.017
INTER + INTRA:          -5.179
INTER:                  -5.179
INTRA:                   0.000
UNBOUND:                 0.000

$$$$

     RDKit          3D

 84 92  0  0  0  0  0  0  0  0999 V2000
   29.7550    1.2092   30.3890 C   0  0  0  0  0  0  0  0  0  0  0  0
   29.5277    1.9733   31.5409 C   0  0  0  0  0  0  0  0  0  0  0  0
   29.9616    1.4967   32.7833 C   0  0  0  0  0  0  0  0  0  0  0  0
   30.6123    0.2683   32.8589 C   0  0  0  0  0  0  0  0  0  0  0  0
   30.8446   -0.4913   31.7167 C   0  0  0  0  0  0  0  0  0  0  0  0
   30.4127   -0.0207   30.4760 C   0  0  0  0  0  0  0  0  0  0  0  0
   31.9467    9.6780   29.5499 C   0  0  0  0  0  0  0  0  0  0  0  0
   33.1252   10.1751   29.0028 C   0  0  0  0  0  0  0  0  0  0  0  0
   33.7141    9.5669   27.8957 C   0  0  0  0  0  0  0  0  0  0  0  0
   33.1136    8.4416   27.3304 C   0  0  0  0  0  0  0  0  0  0  0  0
   31.9317    7.9334   27.8743 C   0  0  0  0  0  0  0  0  0  0  0  0
   31.3405    8.5489   28.9859 C   0  0  0  0  0  0  0  0  0  0  0  0
   26.7475    4.5504   31.5710 N   0  0  0  0  0  0  0  0  0  0  0  0
   27.5170    3.4283   31.6576 C   0  0  0  0  0  0  0  0  0  0  0  0
   26.6380    2.2592   32.0096 C   0  0  0  0  0  0  0  0  0  0  0  0
   25.4323    2.9333   32.6087 C   0  0  0  0  0  0  0  0  0  0  0  0
   25.4712    4.3297   32.0080 C   0  0  0  0  0  0  0  0  0  0  0  0
   29.1591    5.6917   30.5032 N   0  0  0  0  0  0  0  0  0  0  0  0
   30.1704    6.5879   30.2680 C   0  0  0  0  0  0  0  0  0  0  0  0
   31.3414    6.0317   30.7552 C   0  0  0  0  0  0  0  0  0  0  0  0
   31.0428    4.7389   31.2437 C   0  0  0  0  0  0  0  0  0  0  0  0
   29.6948    4.5517   31.0584 C   0  0  0  0  0  0  0  0  0  0  0  0
   27.5229    8.5243   29.9539 N   0  0  0  0  0  0  0  0  0  0  0  0
   26.6291    9.4943   29.5548 C   0  0  0  0  0  0  0  0  0  0  0  0
   27.2869   10.3955   28.7516 C   0  0  0  0  0  0  0  0  0  0  0  0
   28.6262    9.9526   28.6528 C   0  0  0  0  0  0  0  0  0  0  0  0
   28.7542    8.7997   29.4095 C   0  0  0  0  0  0  0  0  0  0  0  0
   25.1646    7.2250   30.8951 N   0  0  0  0  0  0  0  0  0  0  0  0
   24.2583    6.3910   31.5033 C   0  0  0  0  0  0  0  0  0  0  0  0
   23.0089    7.1458   31.5413 C   0  0  0  0  0  0  0  0  0  0  0  0
   23.1989    8.3356   30.9818 C   0  0  0  0  0  0  0  0  0  0  0  0
   24.5780    8.4164   30.5639 C   0  0  0  0  0  0  0  0  0  0  0  0
   24.3448    5.1174   32.0098 C   0  0  0  0  0  0  0  0  0  0  0  0
   28.8503    3.2804   31.4469 C   0  0  0  0  0  0  0  0  0  0  0  0
   30.0933    7.9925   29.5667 C   0  0  0  0  0  0  0  0  0  0  0  0
   25.1017    9.5172   29.9655 C   0  0  0  0  0  0  0  0  0  0  0  0
   23.1123    4.5266   32.6163 C   0  0  0  0  0  0  0  0  0  0  0  0
   22.8517    4.6607   33.9882 C   0  0  0  0  0  0  0  0  0  0  0  0
   21.6989    4.1030   34.5298 C   0  0  0  0  0  0  0  0  0  0  0  0
   20.7920    3.4109   33.7268 C   0  0  0  0  0  0  0  0  0  0  0  0
   21.0408    3.2795   32.3602 C   0  0  0  0  0  0  0  0  0  0  0  0
   22.1961    3.8344   31.8082 C   0  0  0  0  0  0  0  0  0  0  0  0
   24.3142   10.7419   29.7132 C   0  0  0  0  0  0  0  0  0  0  0  0
   24.1072   11.6658   30.7434 C   0  0  0  0  0  0  0  0  0  0  0  0
   23.3782   12.8250   30.4926 C   0  0  0  0  0  0  0  0  0  0  0  0
   22.8609   13.0849   29.2276 C   0  0  0  0  0  0  0  0  0  0  0  0
   23.0595   12.1641   28.1987 C   0  0  0  0  0  0  0  0  0  0  0  0
   23.7815   10.9932   28.4425 C   0  0  0  0  0  0  0  0  0  0  0  0
   23.1449   13.7358   31.4844 O   0  0  0  0  0  0  0  0  0  0  0  0
   21.4725    4.2515   35.8700 O   0  0  0  0  0  0  0  0  0  0  0  0
   31.0403   -0.2249   34.0590 O   0  0  0  0  0  0  0  0  0  0  0  0
   33.6893   11.2738   29.5849 O   0  0  0  0  0  0  0  0  0  0  0  0
   29.4074    1.5857   29.4287 H   0  0  0  0  0  0  0  0  0  0  0  0
   29.7716    2.1034   33.6645 H   0  0  0  0  0  0  0  0  0  0  0  0
   31.3529   -1.4463   31.7948 H   0  0  0  0  0  0  0  0  0  0  0  0
   30.5821   -0.6060   29.5779 H   0  0  0  0  0  0  0  0  0  0  0  0
   31.4968   10.1594   30.4154 H   0  0  0  0  0  0  0  0  0  0  0  0
   34.6317    9.9507   27.4646 H   0  0  0  0  0  0  0  0  0  0  0  0
   33.5611    7.9535   26.4693 H   0  0  0  0  0  0  0  0  0  0  0  0
   31.4642    7.0516   27.4386 H   0  0  0  0  0  0  0  0  0  0  0  0
   27.0765    1.5573   32.7242 H   0  0  0  0  0  0  0  0  0  0  0  0
   26.3616    1.7090   31.1020 H   0  0  0  0  0  0  0  0  0  0  0  0
   24.5353    2.3531   32.3711 H   0  0  0  0  0  0  0  0  0  0  0  0
   25.5348    2.9938   33.7000 H   0  0  0  0  0  0  0  0  0  0  0  0
   28.1514    5.7972   30.3804 H   0  0  0  0  0  0  0  0  0  0  0  0
   32.3156    6.4984   30.7467 H   0  0  0  0  0  0  0  0  0  0  0  0
   31.7268    4.0292   31.6847 H   0  0  0  0  0  0  0  0  0  0  0  0
   27.2246    7.7305   30.5250 H   0  0  0  0  0  0  0  0  0  0  0  0
   26.8537   11.2678   28.2842 H   0  0  0  0  0  0  0  0  0  0  0  0
   29.4115   10.4317   28.0842 H   0  0  0  0  0  0  0  0  0  0  0  0
   22.0750    6.8039   31.9490 H   0  0  0  0  0  0  0  0  0  0  0  0
   22.4495    9.0967   30.8632 H   0  0  0  0  0  0  0  0  0  0  0  0
   23.5598    5.2018   34.6092 H   0  0  0  0  0  0  0  0  0  0  0  0
   19.8930    2.9734   34.1440 H   0  0  0  0  0  0  0  0  0  0  0  0
   20.3458    2.7494   31.7186 H   0  0  0  0  0  0  0  0  0  0  0  0
   22.4095    3.7436   30.7453 H   0  0  0  0  0  0  0  0  0  0  0  0
   24.5207   11.4462   31.7239 H   0  0  0  0  0  0  0  0  0  0  0  0
   22.2994   13.9958   29.0476 H   0  0  0  0  0  0  0  0  0  0  0  0
   22.6553   12.3516   27.2090 H   0  0  0  0  0  0  0  0  0  0  0  0
   23.9401   10.2656   27.6482 H   0  0  0  0  0  0  0  0  0  0  0  0
   23.4468   13.3218   32.3128 H   0  0  0  0  0  0  0  0  0  0  0  0
   20.6339    3.8169   36.0776 H   0  0  0  0  0  0  0  0  0  0  0  0
   30.7347    0.4039   34.7360 H   0  0  0  0  0  0  0  0  0  0  0  0
   34.5136   11.4760   29.1162 H   0  0  0  0  0  0  0  0  0  0  0  0
 25 26  2  0
 26 27  1  0
 27 23  1  0
 28 29  1  0
  1  2  2  0
  3  4  2  0
  7  8  2  0
 14 15  1  0
 29 30  1  0
 30 31  2  0
 31 32  1  0
 32 28  2  0
 15 16  1  0
 29 33  2  0
 17 33  1  0
 16 17  1  0
 14 34  2  0
 22 34  1  0
 17 13  2  0
 27 35  2  0
 19 35  1  0
 18 19  1  0
 24 36  2  0
 32 36  1  0
  8  9  1  0
  4  5  1  0
 37 38  2  0
  9 10  2  0
 38 39  1  0
  2  3  1  0
 39 40  2  0
 10 11  1  0
 40 41  1  0
 19 20  2  0
 41 42  2  0
 42 37  1  0
 33 37  1  0
 20 21  1  0
 21 22  2  0
 43 44  2  0
 22 18  1  0
 44 45  1  0
 23 24  1  0
 45 46  2  0
  5  6  2  0
 46 47  1  0
 11 12  2  0
 47 48  2  0
 48 43  1  0
 36 43  1  0
 12  7  1  0
 45 49  1  0
 13 14  1  0
 39 50  1  0
 35 12  1  0
 34  2  1  0
  6  1  1  0
  4 51  1  0
 24 25  1  0
  8 52  1  0
  1 53  1  0
  3 54  1  0
  5 55  1  0
  6 56  1  0
  7 57  1  0
  9 58  1  0
 10 59  1  0
 11 60  1  0
 15 61  1  0
 15 62  1  0
 16 63  1  0
 16 64  1  0
 18 65  1  0
 20 66  1  0
 21 67  1  0
 23 68  1  0
 25 69  1  0
 26 70  1  0
 30 71  1  0
 31 72  1  0
 38 73  1  0
 40 74  1  0
 41 75  1  0
 42 76  1  0
 44 77  1  0
 46 78  1  0
 47 79  1  0
 48 80  1  0
 49 81  1  0
 50 82  1  0
 51 83  1  0
 52 84  1  0
M  END
> <Uni-Dock RESULT> 
ENERGY=   -4.608  LOWER_BOUND=    1.171  UPPER_BOUND=    8.231
INTER + INTRA:          -4.608
INTER:                  -4.608
INTRA:                   0.000
UNBOUND:                 0.000

$$$$

     RDKit          3D

 84 92  0  0  0  0  0  0  0  0999 V2000
   29.1059    1.6548   30.8193 C   0  0  0  0  0  0  0  0  0  0  0  0
   28.6850    2.4761   31.8732 C   0  0  0  0  0  0  0  0  0  0  0  0
   28.6245    1.9577   33.1718 C   0  0  0  0  0  0  0  0  0  0  0  0
   28.9820    0.6316   33.3996 C   0  0  0  0  0  0  0  0  0  0  0  0
   29.4056   -0.1860   32.3567 C   0  0  0  0  0  0  0  0  0  0  0  0
   29.4663    0.3263   31.0601 C   0  0  0  0  0  0  0  0  0  0  0  0
   32.9782    9.5423   30.9699 C   0  0  0  0  0  0  0  0  0  0  0  0
   34.3378    9.7970   30.8228 C   0  0  0  0  0  0  0  0  0  0  0  0
   35.1120    9.0625   29.9264 C   0  0  0  0  0  0  0  0  0  0  0  0
   34.5142    8.0555   29.1681 C   0  0  0  0  0  0  0  0  0  0  0  0
   33.1502    7.7904   29.3108 C   0  0  0  0  0  0  0  0  0  0  0  0
   32.3739    8.5326   30.2109 C   0  0  0  0  0  0  0  0  0  0  0  0
   26.5552    5.5268   31.1460 N   0  0  0  0  0  0  0  0  0  0  0  0
   27.0401    4.2833   31.4240 C   0  0  0  0  0  0  0  0  0  0  0  0
   25.8951    3.3079   31.4534 C   0  0  0  0  0  0  0  0  0  0  0  0
   24.7111    4.2098   31.6811 C   0  0  0  0  0  0  0  0  0  0  0  0
   25.1888    5.5591   31.1679 C   0  0  0  0  0  0  0  0  0  0  0  0
   29.3448    6.1712   30.8985 N   0  0  0  0  0  0  0  0  0  0  0  0
   30.5275    6.8568   31.0112 C   0  0  0  0  0  0  0  0  0  0  0  0
   31.3706    6.1040   31.8115 C   0  0  0  0  0  0  0  0  0  0  0  0
   30.7036    4.9020   32.1425 C   0  0  0  0  0  0  0  0  0  0  0  0
   29.4655    4.9653   31.5512 C   0  0  0  0  0  0  0  0  0  0  0  0
   28.5076    9.2450   29.9749 N   0  0  0  0  0  0  0  0  0  0  0  0
   27.9733   10.3547   29.3566 C   0  0  0  0  0  0  0  0  0  0  0  0
   28.9992   11.0972   28.8215 C   0  0  0  0  0  0  0  0  0  0  0  0
   30.1987   10.4097   29.1183 C   0  0  0  0  0  0  0  0  0  0  0  0
   29.8747    9.2722   29.8389 C   0  0  0  0  0  0  0  0  0  0  0  0
   25.7769    8.4324   30.1127 N   0  0  0  0  0  0  0  0  0  0  0  0
   24.5906    7.7976   30.3891 C   0  0  0  0  0  0  0  0  0  0  0  0
   23.5514    8.7730   30.0721 C   0  0  0  0  0  0  0  0  0  0  0  0
   24.1194    9.8923   29.6369 C   0  0  0  0  0  0  0  0  0  0  0  0
   25.5501    9.7038   29.6597 C   0  0  0  0  0  0  0  0  0  0  0  0
   24.2815    6.5431   30.8548 C   0  0  0  0  0  0  0  0  0  0  0  0
   28.3227    3.8840   31.6224 C   0  0  0  0  0  0  0  0  0  0  0  0
   30.9288    8.2334   30.3674 C   0  0  0  0  0  0  0  0  0  0  0  0
   26.4254   10.6725   29.2856 C   0  0  0  0  0  0  0  0  0  0  0  0
   22.8360    6.2079   31.0390 C   0  0  0  0  0  0  0  0  0  0  0  0
   22.2002    6.4221   32.2710 C   0  0  0  0  0  0  0  0  0  0  0  0
   20.8550    6.1030   32.4187 C   0  0  0  0  0  0  0  0  0  0  0  0
   20.1234    5.5727   31.3557 C   0  0  0  0  0  0  0  0  0  0  0  0
   20.7470    5.3635   30.1251 C   0  0  0  0  0  0  0  0  0  0  0  0
   22.0972    5.6792   29.9683 C   0  0  0  0  0  0  0  0  0  0  0  0
   25.9930   12.0160   28.8479 C   0  0  0  0  0  0  0  0  0  0  0  0
   25.6576   12.9875   29.7975 C   0  0  0  0  0  0  0  0  0  0  0  0
   25.2674   14.2558   29.3766 C   0  0  0  0  0  0  0  0  0  0  0  0
   25.2167   14.5765   28.0239 C   0  0  0  0  0  0  0  0  0  0  0  0
   25.5444   13.6097   27.0732 C   0  0  0  0  0  0  0  0  0  0  0  0
   25.9281   12.3310   27.4847 C   0  0  0  0  0  0  0  0  0  0  0  0
   24.9167   15.2184   30.2812 O   0  0  0  0  0  0  0  0  0  0  0  0
   20.2636    6.3241   33.6314 O   0  0  0  0  0  0  0  0  0  0  0  0
   28.9258    0.0969   34.6557 O   0  0  0  0  0  0  0  0  0  0  0  0
   34.8916   10.7851   31.5852 O   0  0  0  0  0  0  0  0  0  0  0  0
   29.1428    2.0658   29.8120 H   0  0  0  0  0  0  0  0  0  0  0  0
   28.2915    2.6107   33.9740 H   0  0  0  0  0  0  0  0  0  0  0  0
   29.6799   -1.2168   32.5530 H   0  0  0  0  0  0  0  0  0  0  0  0
   29.7891   -0.3023   30.2363 H   0  0  0  0  0  0  0  0  0  0  0  0
   32.3838   10.1204   31.6741 H   0  0  0  0  0  0  0  0  0  0  0  0
   36.1716    9.2575   29.8069 H   0  0  0  0  0  0  0  0  0  0  0  0
   35.1037    7.4713   28.4672 H   0  0  0  0  0  0  0  0  0  0  0  0
   32.6824    7.0009   28.7244 H   0  0  0  0  0  0  0  0  0  0  0  0
   25.9576    2.5543   32.2432 H   0  0  0  0  0  0  0  0  0  0  0  0
   25.8107    2.7968   30.4866 H   0  0  0  0  0  0  0  0  0  0  0  0
   23.8376    3.8016   31.1635 H   0  0  0  0  0  0  0  0  0  0  0  0
   24.4864    4.2769   32.7536 H   0  0  0  0  0  0  0  0  0  0  0  0
   28.4600    6.4600   30.4797 H   0  0  0  0  0  0  0  0  0  0  0  0
   32.3700    6.3802   32.1144 H   0  0  0  0  0  0  0  0  0  0  0  0
   31.0772    4.0882   32.7460 H   0  0  0  0  0  0  0  0  0  0  0  0
   27.9082    8.5352   30.4016 H   0  0  0  0  0  0  0  0  0  0  0  0
   28.8980   12.0232   28.2744 H   0  0  0  0  0  0  0  0  0  0  0  0
   31.1941   10.7197   28.8310 H   0  0  0  0  0  0  0  0  0  0  0  0
   22.4914    8.6216   30.1658 H   0  0  0  0  0  0  0  0  0  0  0  0
   23.5962   10.7768   29.3225 H   0  0  0  0  0  0  0  0  0  0  0  0
   22.7734    6.8366   33.0953 H   0  0  0  0  0  0  0  0  0  0  0  0
   19.0754    5.3212   31.4657 H   0  0  0  0  0  0  0  0  0  0  0  0
   20.1943    4.9569   29.2856 H   0  0  0  0  0  0  0  0  0  0  0  0
   22.6028    5.5240   29.0177 H   0  0  0  0  0  0  0  0  0  0  0  0
   25.7054   12.7187   30.8492 H   0  0  0  0  0  0  0  0  0  0  0  0
   24.9154   15.5714   27.7130 H   0  0  0  0  0  0  0  0  0  0  0  0
   25.5023   13.8449   26.0144 H   0  0  0  0  0  0  0  0  0  0  0  0
   26.1829   11.5672   26.7518 H   0  0  0  0  0  0  0  0  0  0  0  0
   24.8702   14.7758   31.1477 H   0  0  0  0  0  0  0  0  0  0  0  0
   19.3363    6.0589   33.5603 H   0  0  0  0  0  0  0  0  0  0  0  0
   28.5510    0.7882   35.2290 H   0  0  0  0  0  0  0  0  0  0  0  0
   35.8418   10.8182   31.3954 H   0  0  0  0  0  0  0  0  0  0  0  0
 25 26  2  0
 26 27  1  0
 27 23  1  0
 28 29  1  0
  1  2  2  0
  3  4  2  0
  7  8  2  0
 14 15  1  0
 29 30  1  0
 30 31  2  0
 31 32  1  0
 32 28  2  0
 15 16  1  0
 29 33  2  0
 17 33  1  0
 16 17  1  0
 14 34  2  0
 22 34  1  0
 17 13  2  0
 27 35  2  0
 19 35  1  0
 18 19  1  0
 24 36  2  0
 32 36  1  0
  8  9  1  0
  4  5  1  0
 37 38  2  0
  9 10  2  0
 38 39  1  0
  2  3  1  0
 39 40  2  0
 10 11  1  0
 40 41  1  0
 19 20  2  0
 41 42  2  0
 42 37  1  0
 33 37  1  0
 20 21  1  0
 21 22  2  0
 43 44  2  0
 22 18  1  0
 44 45  1  0
 23 24  1  0
 45 46  2  0
  5  6  2  0
 46 47  1  0
 11 12  2  0
 47 48  2  0
 48 43  1  0
 36 43  1  0
 12  7  1  0
 45 49  1  0
 13 14  1  0
 39 50  1  0
 35 12  1  0
 34  2  1  0
  6  1  1  0
  4 51  1  0
 24 25  1  0
  8 52  1  0
  1 53  1  0
  3 54  1  0
  5 55  1  0
  6 56  1  0
  7 57  1  0
  9 58  1  0
 10 59  1  0
 11 60  1  0
 15 61  1  0
 15 62  1  0
 16 63  1  0
 16 64  1  0
 18 65  1  0
 20 66  1  0
 21 67  1  0
 23 68  1  0
 25 69  1  0
 26 70  1  0
 30 71  1  0
 31 72  1  0
 38 73  1  0
 40 74  1  0
 41 75  1  0
 42 76  1  0
 44 77  1  0
 46 78  1  0
 47 79  1  0
 48 80  1  0
 49 81  1  0
 50 82  1  0
 51 83  1  0
 52 84  1  0
M  END
> <Uni-Dock RESULT> 
ENERGY=   -4.589  LOWER_BOUND=    2.054  UPPER_BOUND=    9.204
INTER + INTRA:          -4.589
INTER:                  -4.589
INTRA:                   0.000
UNBOUND:                 0.000

$$$$

     RDKit          3D

 84 92  0  0  0  0  0  0  0  0999 V2000
   29.1764    2.6522   29.7552 C   0  0  0  0  0  0  0  0  0  0  0  0
   28.8332    3.2710   30.9641 C   0  0  0  0  0  0  0  0  0  0  0  0
   29.2425    2.6990   32.1741 C   0  0  0  0  0  0  0  0  0  0  0  0
   29.9844    1.5211   32.1610 C   0  0  0  0  0  0  0  0  0  0  0  0
   30.3319    0.9060   30.9624 C   0  0  0  0  0  0  0  0  0  0  0  0
   29.9249    1.4721   29.7536 C   0  0  0  0  0  0  0  0  0  0  0  0
   30.7255   11.3012   29.9087 C   0  0  0  0  0  0  0  0  0  0  0  0
   31.8860   11.9393   29.4828 C   0  0  0  0  0  0  0  0  0  0  0  0
   32.5746   11.4971   28.3547 C   0  0  0  0  0  0  0  0  0  0  0  0
   32.0939   10.3967   27.6446 C   0  0  0  0  0  0  0  0  0  0  0  0
   30.9311    9.7476   28.0660 C   0  0  0  0  0  0  0  0  0  0  0  0
   30.2393   10.1963   29.1991 C   0  0  0  0  0  0  0  0  0  0  0  0
   25.8586    5.6174   31.0988 N   0  0  0  0  0  0  0  0  0  0  0  0
   26.7098    4.5525   31.1142 C   0  0  0  0  0  0  0  0  0  0  0  0
   25.9105    3.2909   31.2949 C   0  0  0  0  0  0  0  0  0  0  0  0
   24.6272    3.8066   31.8900 C   0  0  0  0  0  0  0  0  0  0  0  0
   24.5841    5.2577   31.4379 C   0  0  0  0  0  0  0  0  0  0  0  0
   28.2208    7.0409   30.2914 N   0  0  0  0  0  0  0  0  0  0  0  0
   29.1679    8.0294   30.2063 C   0  0  0  0  0  0  0  0  0  0  0  0
   30.3543    7.5130   30.7001 C   0  0  0  0  0  0  0  0  0  0  0  0
   30.1361    6.1571   31.0366 C   0  0  0  0  0  0  0  0  0  0  0  0
   28.8179    5.8913   30.7570 C   0  0  0  0  0  0  0  0  0  0  0  0
   26.3931    9.7867   29.9414 N   0  0  0  0  0  0  0  0  0  0  0  0
   25.4455   10.7246   29.5932 C   0  0  0  0  0  0  0  0  0  0  0  0
   26.0679   11.7521   28.9245 C   0  0  0  0  0  0  0  0  0  0  0  0
   27.4414   11.4225   28.8573 C   0  0  0  0  0  0  0  0  0  0  0  0
   27.6237   10.2087   29.4986 C   0  0  0  0  0  0  0  0  0  0  0  0
   24.1027    8.2239   30.6100 N   0  0  0  0  0  0  0  0  0  0  0  0
   23.2370    7.2654   31.0777 C   0  0  0  0  0  0  0  0  0  0  0  0
   21.9312    7.9173   31.1216 C   0  0  0  0  0  0  0  0  0  0  0  0
   22.0530    9.1704   30.6978 C   0  0  0  0  0  0  0  0  0  0  0  0
   23.4400    9.3969   30.3693 C   0  0  0  0  0  0  0  0  0  0  0  0
   23.3998    5.9552   31.4560 C   0  0  0  0  0  0  0  0  0  0  0  0
   28.0593    4.5270   30.9655 C   0  0  0  0  0  0  0  0  0  0  0  0
   29.0135    9.4908   29.6486 C   0  0  0  0  0  0  0  0  0  0  0  0
   23.9030   10.5907   29.9167 C   0  0  0  0  0  0  0  0  0  0  0  0
   22.1902    5.2139   31.9283 C   0  0  0  0  0  0  0  0  0  0  0  0
   21.8532    5.1822   33.2897 C   0  0  0  0  0  0  0  0  0  0  0  0
   20.7234    4.4865   33.7054 C   0  0  0  0  0  0  0  0  0  0  0  0
   19.9147    3.8180   32.7859 C   0  0  0  0  0  0  0  0  0  0  0  0
   20.2395    3.8509   31.4294 C   0  0  0  0  0  0  0  0  0  0  0  0
   21.3724    4.5452   31.0032 C   0  0  0  0  0  0  0  0  0  0  0  0
   23.0337   11.7735   29.7462 C   0  0  0  0  0  0  0  0  0  0  0  0
   22.7039   12.5652   30.8518 C   0  0  0  0  0  0  0  0  0  0  0  0
   21.8981   13.6872   30.6793 C   0  0  0  0  0  0  0  0  0  0  0  0
   21.4240   14.0407   29.4201 C   0  0  0  0  0  0  0  0  0  0  0  0
   21.7451   13.2513   28.3157 C   0  0  0  0  0  0  0  0  0  0  0  0
   22.5453   12.1179   28.4795 C   0  0  0  0  0  0  0  0  0  0  0  0
   21.5450   14.4681   31.7439 O   0  0  0  0  0  0  0  0  0  0  0  0
   20.4209    4.4750   35.0387 O   0  0  0  0  0  0  0  0  0  0  0  0
   30.3914    0.9366   33.3270 O   0  0  0  0  0  0  0  0  0  0  0  0
   32.3319   13.0089   30.2049 O   0  0  0  0  0  0  0  0  0  0  0  0
   28.8471    3.1015   28.8200 H   0  0  0  0  0  0  0  0  0  0  0  0
   28.9622    3.1932   33.1004 H   0  0  0  0  0  0  0  0  0  0  0  0
   30.9101   -0.0116   30.9716 H   0  0  0  0  0  0  0  0  0  0  0  0
   30.1838    0.9994   28.8116 H   0  0  0  0  0  0  0  0  0  0  0  0
   30.1972   11.6535   30.7918 H   0  0  0  0  0  0  0  0  0  0  0  0
   33.4787   11.9914   28.0177 H   0  0  0  0  0  0  0  0  0  0  0  0
   32.6202   10.0370   26.7650 H   0  0  0  0  0  0  0  0  0  0  0  0
   30.5570    8.8847   27.5169 H   0  0  0  0  0  0  0  0  0  0  0  0
   26.3682    2.5516   31.9580 H   0  0  0  0  0  0  0  0  0  0  0  0
   25.7233    2.8210   30.3217 H   0  0  0  0  0  0  0  0  0  0  0  0
   23.7919    3.1900   31.5442 H   0  0  0  0  0  0  0  0  0  0  0  0
   24.6713    3.7585   32.9859 H   0  0  0  0  0  0  0  0  0  0  0  0
   27.2151    7.0839   30.1229 H   0  0  0  0  0  0  0  0  0  0  0  0
   31.2875    8.0487   30.7944 H   0  0  0  0  0  0  0  0  0  0  0  0
   30.8521    5.4573   31.4412 H   0  0  0  0  0  0  0  0  0  0  0  0
   26.1315    8.9169   30.4108 H   0  0  0  0  0  0  0  0  0  0  0  0
   25.5899   12.6345   28.5246 H   0  0  0  0  0  0  0  0  0  0  0  0
   28.2128   12.0161   28.3859 H   0  0  0  0  0  0  0  0  0  0  0  0
   21.0088    7.4659   31.4386 H   0  0  0  0  0  0  0  0  0  0  0  0
   21.2520    9.8822   30.6150 H   0  0  0  0  0  0  0  0  0  0  0  0
   22.4849    5.7054   34.0018 H   0  0  0  0  0  0  0  0  0  0  0  0
   19.0341    3.2734   33.1047 H   0  0  0  0  0  0  0  0  0  0  0  0
   19.6209    3.3418   30.6988 H   0  0  0  0  0  0  0  0  0  0  0  0
   21.6439    4.5835   29.9505 H   0  0  0  0  0  0  0  0  0  0  0  0
   23.0854   12.2742   31.8267 H   0  0  0  0  0  0  0  0  0  0  0  0
   20.8012   14.9214   29.3022 H   0  0  0  0  0  0  0  0  0  0  0  0
   21.3760   13.5121   27.3289 H   0  0  0  0  0  0  0  0  0  0  0  0
   22.7997   11.4923   27.6255 H   0  0  0  0  0  0  0  0  0  0  0  0
   21.8382   13.9922   32.5416 H   0  0  0  0  0  0  0  0  0  0  0  0
   19.6104    3.9599   35.1531 H   0  0  0  0  0  0  0  0  0  0  0  0
   30.0041    1.4658   34.0461 H   0  0  0  0  0  0  0  0  0  0  0  0
   33.1593   13.3201   29.8067 H   0  0  0  0  0  0  0  0  0  0  0  0
 25 26  2  0
 26 27  1  0
 27 23  1  0
 28 29  1  0
  1  2  2  0
  3  4  2  0
  7  8  2  0
 14 15  1  0
 29 30  1  0
 30 31  2  0
 31 32  1  0
 32 28  2  0
 15 16  1  0
 29 33  2  0
 17 33  1  0
 16 17  1  0
 14 34  2  0
 22 34  1  0
 17 13  2  0
 27 35  2  0
 19 35  1  0
 18 19  1  0
 24 36  2  0
 32 36  1  0
  8  9  1  0
  4  5  1  0
 37 38  2  0
  9 10  2  0
 38 39  1  0
  2  3  1  0
 39 40  2  0
 10 11  1  0
 40 41  1  0
 19 20  2  0
 41 42  2  0
 42 37  1  0
 33 37  1  0
 20 21  1  0
 21 22  2  0
 43 44  2  0
 22 18  1  0
 44 45  1  0
 23 24  1  0
 45 46  2  0
  5  6  2  0
 46 47  1  0
 11 12  2  0
 47 48  2  0
 48 43  1  0
 36 43  1  0
 12  7  1  0
 45 49  1  0
 13 14  1  0
 39 50  1  0
 35 12  1  0
 34  2  1  0
  6  1  1  0
  4 51  1  0
 24 25  1  0
  8 52  1  0
  1 53  1  0
  3 54  1  0
  5 55  1  0
  6 56  1  0
  7 57  1  0
  9 58  1  0
 10 59  1  0
 11 60  1  0
 15 61  1  0
 15 62  1  0
 16 63  1  0
 16 64  1  0
 18 65  1  0
 20 66  1  0
 21 67  1  0
 23 68  1  0
 25 69  1  0
 26 70  1  0
 30 71  1  0
 31 72  1  0
 38 73  1  0
 40 74  1  0
 41 75  1  0
 42 76  1  0
 44 77  1  0
 46 78  1  0
 47 79  1  0
 48 80  1  0
 49 81  1  0
 50 82  1  0
 51 83  1  0
 52 84  1  0
M  END
> <Uni-Dock RESULT> 
ENERGY=   -4.408  LOWER_BOUND=    1.235  UPPER_BOUND=    8.003
INTER + INTRA:          -4.408
INTER:                  -4.408
INTRA:                   0.000
UNBOUND:                 0.000

$$$$
