
     RDKit          3D

 84 92  0  0  0  0  0  0  0  0999 V2000
   23.1312   11.4795   28.4203 C   0  0  0  0  0  0  0  0  0  0  0  0
   23.7638   11.1353   29.6190 C   0  0  0  0  0  0  0  0  0  0  0  0
   23.6677   11.9902   30.7222 C   0  0  0  0  0  0  0  0  0  0  0  0
   22.9392   13.1709   30.6186 C   0  0  0  0  0  0  0  0  0  0  0  0
   22.3062   13.5177   29.4297 C   0  0  0  0  0  0  0  0  0  0  0  0
   22.4024   12.6678   28.3261 C   0  0  0  0  0  0  0  0  0  0  0  0
   31.6446    9.9583   30.3947 C   0  0  0  0  0  0  0  0  0  0  0  0
   32.4952   10.7748   31.1332 C   0  0  0  0  0  0  0  0  0  0  0  0
   32.1617   11.1768   32.4266 C   0  0  0  0  0  0  0  0  0  0  0  0
   30.9574   10.7499   32.9878 C   0  0  0  0  0  0  0  0  0  0  0  0
   30.0982    9.9289   32.2564 C   0  0  0  0  0  0  0  0  0  0  0  0
   30.4375    9.5292   30.9571 C   0  0  0  0  0  0  0  0  0  0  0  0
   24.5794    7.5411   30.4977 N   0  0  0  0  0  0  0  0  0  0  0  0
   23.9855    8.7435   30.2411 C   0  0  0  0  0  0  0  0  0  0  0  0
   22.5383    8.6687   30.6399 C   0  0  0  0  0  0  0  0  0  0  0  0
   22.2846    7.1837   30.6795 C   0  0  0  0  0  0  0  0  0  0  0  0
   23.6718    6.5770   30.8353 C   0  0  0  0  0  0  0  0  0  0  0  0
   26.9397    8.9687   29.9445 N   0  0  0  0  0  0  0  0  0  0  0  0
   28.2178    9.3090   29.6045 C   0  0  0  0  0  0  0  0  0  0  0  0
   28.1573   10.3795   28.7325 C   0  0  0  0  0  0  0  0  0  0  0  0
   26.7902   10.7522   28.6152 C   0  0  0  0  0  0  0  0  0  0  0  0
   26.0738    9.8933   29.4183 C   0  0  0  0  0  0  0  0  0  0  0  0
   28.7198    6.2126   30.5233 N   0  0  0  0  0  0  0  0  0  0  0  0
   29.2854    4.9667   30.6285 C   0  0  0  0  0  0  0  0  0  0  0  0
   30.6204    5.0714   30.3088 C   0  0  0  0  0  0  0  0  0  0  0  0
   30.8793    6.4402   30.0418 C   0  0  0  0  0  0  0  0  0  0  0  0
   29.6916    7.1263   30.2186 C   0  0  0  0  0  0  0  0  0  0  0  0
   26.3058    4.9065   31.0914 N   0  0  0  0  0  0  0  0  0  0  0  0
   24.9918    4.5632   31.2951 C   0  0  0  0  0  0  0  0  0  0  0  0
   25.0215    3.1462   31.6532 C   0  0  0  0  0  0  0  0  0  0  0  0
   26.2746    2.7048   31.6090 C   0  0  0  0  0  0  0  0  0  0  0  0
   27.1221    3.8121   31.2343 C   0  0  0  0  0  0  0  0  0  0  0  0
   23.8103    5.2577   31.1974 C   0  0  0  0  0  0  0  0  0  0  0  0
   24.5314    9.8840   29.7400 C   0  0  0  0  0  0  0  0  0  0  0  0
   29.5195    8.6761   30.1818 C   0  0  0  0  0  0  0  0  0  0  0  0
   28.4671    3.6863   31.0654 C   0  0  0  0  0  0  0  0  0  0  0  0
   22.5438    4.5007   31.4469 C   0  0  0  0  0  0  0  0  0  0  0  0
   21.8895    3.8774   30.3757 C   0  0  0  0  0  0  0  0  0  0  0  0
   20.6967    3.1943   30.5964 C   0  0  0  0  0  0  0  0  0  0  0  0
   20.1440    3.1131   31.8706 C   0  0  0  0  0  0  0  0  0  0  0  0
   20.7939    3.7222   32.9462 C   0  0  0  0  0  0  0  0  0  0  0  0
   21.9893    4.4141   32.7326 C   0  0  0  0  0  0  0  0  0  0  0  0
   29.1893    2.4168   31.2843 C   0  0  0  0  0  0  0  0  0  0  0  0
   29.5254    2.0164   32.5844 C   0  0  0  0  0  0  0  0  0  0  0  0
   30.1980    0.8135   32.7811 C   0  0  0  0  0  0  0  0  0  0  0  0
   30.5548    0.0089   31.7024 C   0  0  0  0  0  0  0  0  0  0  0  0
   30.2274    0.4063   30.4048 C   0  0  0  0  0  0  0  0  0  0  0  0
   29.5445    1.6071   30.1976 C   0  0  0  0  0  0  0  0  0  0  0  0
   30.5151    0.3849   34.0409 O   0  0  0  0  0  0  0  0  0  0  0  0
   20.0351    2.5937   29.5605 O   0  0  0  0  0  0  0  0  0  0  0  0
   22.8147   14.0085   31.6890 O   0  0  0  0  0  0  0  0  0  0  0  0
   33.6637   11.1714   30.5526 O   0  0  0  0  0  0  0  0  0  0  0  0
   23.2050   10.8040   27.5704 H   0  0  0  0  0  0  0  0  0  0  0  0
   24.1681   11.7041   31.6432 H   0  0  0  0  0  0  0  0  0  0  0  0
   21.7346   14.4373   29.3670 H   0  0  0  0  0  0  0  0  0  0  0  0
   21.9132   12.9233   27.3928 H   0  0  0  0  0  0  0  0  0  0  0  0
   31.9136    9.6519   29.3889 H   0  0  0  0  0  0  0  0  0  0  0  0
   32.8214   11.8104   33.0108 H   0  0  0  0  0  0  0  0  0  0  0  0
   30.6791   11.0511   33.9926 H   0  0  0  0  0  0  0  0  0  0  0  0
   29.1553    9.6008   32.6924 H   0  0  0  0  0  0  0  0  0  0  0  0
   22.3986    9.1073   31.6359 H   0  0  0  0  0  0  0  0  0  0  0  0
   21.8547    9.1554   29.9385 H   0  0  0  0  0  0  0  0  0  0  0  0
   21.8422    6.8581   29.7289 H   0  0  0  0  0  0  0  0  0  0  0  0
   21.5897    6.9507   31.4894 H   0  0  0  0  0  0  0  0  0  0  0  0
   26.5996    8.1770   30.4967 H   0  0  0  0  0  0  0  0  0  0  0  0
   29.0055   10.8722   28.2765 H   0  0  0  0  0  0  0  0  0  0  0  0
   26.3850   11.5725   28.0413 H   0  0  0  0  0  0  0  0  0  0  0  0
   27.7241    6.3547   30.6952 H   0  0  0  0  0  0  0  0  0  0  0  0
   31.3332    4.2608   30.2957 H   0  0  0  0  0  0  0  0  0  0  0  0
   31.8362    6.8774   29.7900 H   0  0  0  0  0  0  0  0  0  0  0  0
   24.1684    2.5380   31.8944 H   0  0  0  0  0  0  0  0  0  0  0  0
   26.5941    1.6959   31.7981 H   0  0  0  0  0  0  0  0  0  0  0  0
   22.3387    3.9566   29.3900 H   0  0  0  0  0  0  0  0  0  0  0  0
   19.2085    2.5840   32.0247 H   0  0  0  0  0  0  0  0  0  0  0  0
   20.3732    3.6716   33.9448 H   0  0  0  0  0  0  0  0  0  0  0  0
   22.5069    4.9019   33.5551 H   0  0  0  0  0  0  0  0  0  0  0  0
   29.2282    2.6510   33.4135 H   0  0  0  0  0  0  0  0  0  0  0  0
   31.0793   -0.9258   31.8715 H   0  0  0  0  0  0  0  0  0  0  0  0
   30.4914   -0.2144   29.5536 H   0  0  0  0  0  0  0  0  0  0  0  0
   29.2719    1.9231   29.1923 H   0  0  0  0  0  0  0  0  0  0  0  0
   30.1158    1.0214   34.6596 H   0  0  0  0  0  0  0  0  0  0  0  0
   20.5882    2.7374   28.7693 H   0  0  0  0  0  0  0  0  0  0  0  0
   23.2374   13.5553   32.4407 H   0  0  0  0  0  0  0  0  0  0  0  0
   34.1522   11.7074   31.1980 H   0  0  0  0  0  0  0  0  0  0  0  0
 25 26  2  0
 26 27  1  0
 27 23  1  0
 28 29  1  0
  1  2  2  0
  3  4  2  0
  7  8  2  0
 14 15  1  0
 29 30  1  0
 30 31  2  0
 31 32  1  0
 32 28  2  0
 15 16  1  0
 29 33  2  0
 17 33  1  0
 16 17  1  0
 14 34  2  0
 22 34  1  0
 17 13  2  0
 27 35  2  0
 19 35  1  0
 18 19  1  0
 24 36  2  0
 32 36  1  0
  8  9  1  0
  4  5  1  0
 37 38  2  0
  9 10  2  0
 38 39  1  0
  2  3  1  0
 39 40  2  0
 10 11  1  0
 40 41  1  0
 19 20  2  0
 41 42  2  0
 42 37  1  0
 33 37  1  0
 20 21  1  0
 21 22  2  0
 43 44  2  0
 22 18  1  0
 44 45  1  0
 23 24  1  0
 45 46  2  0
  5  6  2  0
 46 47  1  0
 11 12  2  0
 47 48  2  0
 48 43  1  0
 36 43  1  0
 12  7  1  0
 45 49  1  0
 13 14  1  0
 39 50  1  0
 35 12  1  0
 34  2  1  0
  6  1  1  0
  4 51  1  0
 24 25  1  0
  8 52  1  0
  1 53  1  0
  3 54  1  0
  5 55  1  0
  6 56  1  0
  7 57  1  0
  9 58  1  0
 10 59  1  0
 11 60  1  0
 15 61  1  0
 15 62  1  0
 16 63  1  0
 16 64  1  0
 18 65  1  0
 20 66  1  0
 21 67  1  0
 23 68  1  0
 25 69  1  0
 26 70  1  0
 30 71  1  0
 31 72  1  0
 38 73  1  0
 40 74  1  0
 41 75  1  0
 42 76  1  0
 44 77  1  0
 46 78  1  0
 47 79  1  0
 48 80  1  0
 49 81  1  0
 50 82  1  0
 51 83  1  0
 52 84  1  0
M  END
> <Uni-Dock RESULT> 
ENERGY=   -5.226  LOWER_BOUND=    0.000  UPPER_BOUND=    0.000
INTER + INTRA:          -5.226
INTER:                  -5.226
INTRA:                   0.000
UNBOUND:                 0.000

$$$$

     RDKit          3D

 84 92  0  0  0  0  0  0  0  0999 V2000
   32.8689    8.5909   32.7102 C   0  0  0  0  0  0  0  0  0  0  0  0
   32.2234    8.2470   31.5184 C   0  0  0  0  0  0  0  0  0  0  0  0
   32.9566    8.1795   30.3289 C   0  0  0  0  0  0  0  0  0  0  0  0
   34.3214    8.4489   30.3437 C   0  0  0  0  0  0  0  0  0  0  0  0
   34.9695    8.7896   31.5262 C   0  0  0  0  0  0  0  0  0  0  0  0
   34.2398    8.8603   32.7145 C   0  0  0  0  0  0  0  0  0  0  0  0
   26.1596   12.3733   28.3090 C   0  0  0  0  0  0  0  0  0  0  0  0
   26.2305   13.0750   27.1098 C   0  0  0  0  0  0  0  0  0  0  0  0
   26.7850   12.4943   25.9692 C   0  0  0  0  0  0  0  0  0  0  0  0
   27.2730   11.1885   26.0332 C   0  0  0  0  0  0  0  0  0  0  0  0
   27.2048   10.4752   27.2305 C   0  0  0  0  0  0  0  0  0  0  0  0
   26.6480   11.0638   28.3736 C   0  0  0  0  0  0  0  0  0  0  0  0
   29.0079    6.2431   31.4838 N   0  0  0  0  0  0  0  0  0  0  0  0
   30.2963    6.6849   31.5789 C   0  0  0  0  0  0  0  0  0  0  0  0
   31.2049    5.5036   31.7732 C   0  0  0  0  0  0  0  0  0  0  0  0
   30.2579    4.4371   32.2598 C   0  0  0  0  0  0  0  0  0  0  0  0
   28.8910    4.9173   31.7935 C   0  0  0  0  0  0  0  0  0  0  0  0
   28.5090    8.8996   30.7032 N   0  0  0  0  0  0  0  0  0  0  0  0
   27.9129   10.1000   30.4416 C   0  0  0  0  0  0  0  0  0  0  0  0
   28.7347   11.0999   30.9261 C   0  0  0  0  0  0  0  0  0  0  0  0
   29.9137   10.4761   31.4188 C   0  0  0  0  0  0  0  0  0  0  0  0
   29.7614    9.1227   31.2163 C   0  0  0  0  0  0  0  0  0  0  0  0
   25.2792    8.1667   30.3414 N   0  0  0  0  0  0  0  0  0  0  0  0
   23.9729    7.7506   30.4032 C   0  0  0  0  0  0  0  0  0  0  0  0
   23.1628    8.8393   30.1711 C   0  0  0  0  0  0  0  0  0  0  0  0
   24.0133    9.9457   29.9175 C   0  0  0  0  0  0  0  0  0  0  0  0
   25.3166    9.4895   29.9938 C   0  0  0  0  0  0  0  0  0  0  0  0
   25.9052    5.5401   31.0931 N   0  0  0  0  0  0  0  0  0  0  0  0
   26.5193    4.3775   31.4894 C   0  0  0  0  0  0  0  0  0  0  0  0
   25.4444    3.3900   31.5714 C   0  0  0  0  0  0  0  0  0  0  0  0
   24.2851    3.9730   31.2831 C   0  0  0  0  0  0  0  0  0  0  0  0
   24.5482    5.3613   30.9866 C   0  0  0  0  0  0  0  0  0  0  0  0
   27.8179    4.0576   31.8042 C   0  0  0  0  0  0  0  0  0  0  0  0
   30.7801    7.9533   31.4944 C   0  0  0  0  0  0  0  0  0  0  0  0
   26.5933   10.3131   29.6405 C   0  0  0  0  0  0  0  0  0  0  0  0
   23.5621    6.2498   30.6840 C   0  0  0  0  0  0  0  0  0  0  0  0
   28.0912    2.6595   32.2623 C   0  0  0  0  0  0  0  0  0  0  0  0
   28.0277    2.3560   33.6290 C   0  0  0  0  0  0  0  0  0  0  0  0
   28.3071    1.0636   34.0646 C   0  0  0  0  0  0  0  0  0  0  0  0
   28.6429    0.0608   33.1603 C   0  0  0  0  0  0  0  0  0  0  0  0
   28.6988    0.3510   31.7955 C   0  0  0  0  0  0  0  0  0  0  0  0
   28.4244    1.6471   31.3502 C   0  0  0  0  0  0  0  0  0  0  0  0
   22.1377    5.8701   30.5951 C   0  0  0  0  0  0  0  0  0  0  0  0
   21.6481    5.2507   29.4375 C   0  0  0  0  0  0  0  0  0  0  0  0
   20.3058    4.8882   29.3670 C   0  0  0  0  0  0  0  0  0  0  0  0
   19.4389    5.1457   30.4255 C   0  0  0  0  0  0  0  0  0  0  0  0
   19.9206    5.7678   31.5786 C   0  0  0  0  0  0  0  0  0  0  0  0
   21.2678    6.1272   31.6628 C   0  0  0  0  0  0  0  0  0  0  0  0
   19.8064    4.2582   28.2600 O   0  0  0  0  0  0  0  0  0  0  0  0
   28.2664    0.7522   35.3961 O   0  0  0  0  0  0  0  0  0  0  0  0
   35.0598    8.3677   29.1987 O   0  0  0  0  0  0  0  0  0  0  0  0
   25.7428   14.3483   27.0847 O   0  0  0  0  0  0  0  0  0  0  0  0
   32.2914    8.6327   33.6315 H   0  0  0  0  0  0  0  0  0  0  0  0
   32.4349    7.9118   29.4143 H   0  0  0  0  0  0  0  0  0  0  0  0
   36.0358    8.9884   31.5234 H   0  0  0  0  0  0  0  0  0  0  0  0
   34.7309    9.1229   33.6449 H   0  0  0  0  0  0  0  0  0  0  0  0
   25.7267   12.8348   29.1907 H   0  0  0  0  0  0  0  0  0  0  0  0
   26.8405   13.0334   25.0288 H   0  0  0  0  0  0  0  0  0  0  0  0
   27.7083   10.7182   25.1572 H   0  0  0  0  0  0  0  0  0  0  0  0
   27.5914    9.4580   27.2819 H   0  0  0  0  0  0  0  0  0  0  0  0
   31.6517    5.2100   30.8149 H   0  0  0  0  0  0  0  0  0  0  0  0
   32.0038    5.6679   32.5018 H   0  0  0  0  0  0  0  0  0  0  0  0
   30.2813    4.3935   33.3566 H   0  0  0  0  0  0  0  0  0  0  0  0
   30.5618    3.4661   31.8624 H   0  0  0  0  0  0  0  0  0  0  0  0
   28.1527    7.9499   30.5668 H   0  0  0  0  0  0  0  0  0  0  0  0
   28.5337   12.1617   30.8792 H   0  0  0  0  0  0  0  0  0  0  0  0
   30.7826   10.9625   31.8369 H   0  0  0  0  0  0  0  0  0  0  0  0
   26.0472    7.5163   30.5098 H   0  0  0  0  0  0  0  0  0  0  0  0
   22.0834    8.8333   30.1582 H   0  0  0  0  0  0  0  0  0  0  0  0
   23.7041   10.9514   29.6664 H   0  0  0  0  0  0  0  0  0  0  0  0
   25.5565    2.3560   31.8437 H   0  0  0  0  0  0  0  0  0  0  0  0
   23.3213    3.4967   31.2915 H   0  0  0  0  0  0  0  0  0  0  0  0
   27.7659    3.1555   34.3159 H   0  0  0  0  0  0  0  0  0  0  0  0
   28.8666   -0.9401   33.5168 H   0  0  0  0  0  0  0  0  0  0  0  0
   28.9635   -0.4188   31.0786 H   0  0  0  0  0  0  0  0  0  0  0  0
   28.4701    1.8957   30.2926 H   0  0  0  0  0  0  0  0  0  0  0  0
   22.3417    5.0473   28.6276 H   0  0  0  0  0  0  0  0  0  0  0  0
   18.3951    4.8576   30.3556 H   0  0  0  0  0  0  0  0  0  0  0  0
   19.2588    5.9678   32.4161 H   0  0  0  0  0  0  0  0  0  0  0  0
   21.6595    6.6016   32.5607 H   0  0  0  0  0  0  0  0  0  0  0  0
   20.5635    4.0863   27.6730 H   0  0  0  0  0  0  0  0  0  0  0  0
   27.9894    1.5682   35.8543 H   0  0  0  0  0  0  0  0  0  0  0  0
   34.4595    8.0283   28.5105 H   0  0  0  0  0  0  0  0  0  0  0  0
   25.8394   14.6885   26.1806 H   0  0  0  0  0  0  0  0  0  0  0  0
 25 26  2  0
 26 27  1  0
 27 23  1  0
 28 29  1  0
  1  2  2  0
  3  4  2  0
  7  8  2  0
 14 15  1  0
 29 30  1  0
 30 31  2  0
 31 32  1  0
 32 28  2  0
 15 16  1  0
 29 33  2  0
 17 33  1  0
 16 17  1  0
 14 34  2  0
 22 34  1  0
 17 13  2  0
 27 35  2  0
 19 35  1  0
 18 19  1  0
 24 36  2  0
 32 36  1  0
  8  9  1  0
  4  5  1  0
 37 38  2  0
  9 10  2  0
 38 39  1  0
  2  3  1  0
 39 40  2  0
 10 11  1  0
 40 41  1  0
 19 20  2  0
 41 42  2  0
 42 37  1  0
 33 37  1  0
 20 21  1  0
 21 22  2  0
 43 44  2  0
 22 18  1  0
 44 45  1  0
 23 24  1  0
 45 46  2  0
  5  6  2  0
 46 47  1  0
 11 12  2  0
 47 48  2  0
 48 43  1  0
 36 43  1  0
 12  7  1  0
 45 49  1  0
 13 14  1  0
 39 50  1  0
 35 12  1  0
 34  2  1  0
  6  1  1  0
  4 51  1  0
 24 25  1  0
  8 52  1  0
  1 53  1  0
  3 54  1  0
  5 55  1  0
  6 56  1  0
  7 57  1  0
  9 58  1  0
 10 59  1  0
 11 60  1  0
 15 61  1  0
 15 62  1  0
 16 63  1  0
 16 64  1  0
 18 65  1  0
 20 66  1  0
 21 67  1  0
 23 68  1  0
 25 69  1  0
 26 70  1  0
 30 71  1  0
 31 72  1  0
 38 73  1  0
 40 74  1  0
 41 75  1  0
 42 76  1  0
 44 77  1  0
 46 78  1  0
 47 79  1  0
 48 80  1  0
 49 81  1  0
 50 82  1  0
 51 83  1  0
 52 84  1  0
M  END
> <Uni-Dock RESULT> 
ENERGY=   -4.857  LOWER_BOUND=    1.987  UPPER_BOUND=    7.973
INTER + INTRA:          -4.857
INTER:                  -4.857
INTRA:                   0.000
UNBOUND:                 0.000

$$$$

     RDKit          3D

 84 92  0  0  0  0  0  0  0  0999 V2000
   26.7644   12.0408   26.4139 C   0  0  0  0  0  0  0  0  0  0  0  0
   27.1371   11.8246   27.7442 C   0  0  0  0  0  0  0  0  0  0  0  0
   27.4574   12.9158   28.5591 C   0  0  0  0  0  0  0  0  0  0  0  0
   27.3962   14.2053   28.0405 C   0  0  0  0  0  0  0  0  0  0  0  0
   27.0244   14.4268   26.7188 C   0  0  0  0  0  0  0  0  0  0  0  0
   26.7067   13.3396   25.9023 C   0  0  0  0  0  0  0  0  0  0  0  0
   33.4418    7.4451   30.0173 C   0  0  0  0  0  0  0  0  0  0  0  0
   34.5742    7.9578   30.6419 C   0  0  0  0  0  0  0  0  0  0  0  0
   34.4647    8.8380   31.7184 C   0  0  0  0  0  0  0  0  0  0  0  0
   33.1991    9.2065   32.1764 C   0  0  0  0  0  0  0  0  0  0  0  0
   32.0568    8.6963   31.5583 C   0  0  0  0  0  0  0  0  0  0  0  0
   32.1725    7.8135   30.4764 C   0  0  0  0  0  0  0  0  0  0  0  0
   26.0923    8.7155   29.6411 N   0  0  0  0  0  0  0  0  0  0  0  0
   26.1609    9.9148   28.9921 C   0  0  0  0  0  0  0  0  0  0  0  0
   24.8559   10.6400   29.1659 C   0  0  0  0  0  0  0  0  0  0  0  0
   23.9116    9.5299   29.5494 C   0  0  0  0  0  0  0  0  0  0  0  0
   24.8268    8.4315   30.0714 C   0  0  0  0  0  0  0  0  0  0  0  0
   28.8546    8.6516   29.1115 N   0  0  0  0  0  0  0  0  0  0  0  0
   30.1403    8.2437   28.8983 C   0  0  0  0  0  0  0  0  0  0  0  0
   30.6173    8.9010   27.7801 C   0  0  0  0  0  0  0  0  0  0  0  0
   29.6054    9.8067   27.3586 C   0  0  0  0  0  0  0  0  0  0  0  0
   28.5533    9.6630   28.2352 C   0  0  0  0  0  0  0  0  0  0  0  0
   29.0632    5.7067   30.6554 N   0  0  0  0  0  0  0  0  0  0  0  0
   28.9502    4.4384   31.1670 C   0  0  0  0  0  0  0  0  0  0  0  0
   30.1709    3.8138   31.0432 C   0  0  0  0  0  0  0  0  0  0  0  0
   31.0657    4.7558   30.4740 C   0  0  0  0  0  0  0  0  0  0  0  0
   30.3598    5.9290   30.2795 C   0  0  0  0  0  0  0  0  0  0  0  0
   26.3128    5.9013   31.1593 N   0  0  0  0  0  0  0  0  0  0  0  0
   24.9957    6.2820   31.2377 C   0  0  0  0  0  0  0  0  0  0  0  0
   24.3287    5.1943   31.9512 C   0  0  0  0  0  0  0  0  0  0  0  0
   25.2093    4.2352   32.2188 C   0  0  0  0  0  0  0  0  0  0  0  0
   26.4922    4.6552   31.7067 C   0  0  0  0  0  0  0  0  0  0  0  0
   24.3023    7.3764   30.7802 C   0  0  0  0  0  0  0  0  0  0  0  0
   27.1979   10.4634   28.3038 C   0  0  0  0  0  0  0  0  0  0  0  0
   30.9637    7.2904   29.8156 C   0  0  0  0  0  0  0  0  0  0  0  0
   27.6079    3.8793   31.7879 C   0  0  0  0  0  0  0  0  0  0  0  0
   22.8250    7.4039   31.0171 C   0  0  0  0  0  0  0  0  0  0  0  0
   21.9615    6.8615   30.0557 C   0  0  0  0  0  0  0  0  0  0  0  0
   20.5848    6.9080   30.2573 C   0  0  0  0  0  0  0  0  0  0  0  0
   20.0489    7.4803   31.4067 C   0  0  0  0  0  0  0  0  0  0  0  0
   20.9016    8.0143   32.3752 C   0  0  0  0  0  0  0  0  0  0  0  0
   22.2849    7.9760   32.1784 C   0  0  0  0  0  0  0  0  0  0  0  0
   27.6192    2.5534   32.4384 C   0  0  0  0  0  0  0  0  0  0  0  0
   27.7043    2.4576   33.8338 C   0  0  0  0  0  0  0  0  0  0  0  0
   27.7048    1.2034   34.4380 C   0  0  0  0  0  0  0  0  0  0  0  0
   27.6366    0.0415   33.6742 C   0  0  0  0  0  0  0  0  0  0  0  0
   27.5575    0.1316   32.2833 C   0  0  0  0  0  0  0  0  0  0  0  0
   27.5471    1.3855   31.6680 C   0  0  0  0  0  0  0  0  0  0  0  0
   27.7601    1.0806   35.7994 O   0  0  0  0  0  0  0  0  0  0  0  0
   19.7255    6.3985   29.3226 O   0  0  0  0  0  0  0  0  0  0  0  0
   27.6836   15.2853   28.8240 O   0  0  0  0  0  0  0  0  0  0  0  0
   35.7942    7.5746   30.1679 O   0  0  0  0  0  0  0  0  0  0  0  0
   26.5093   11.1862   25.7905 H   0  0  0  0  0  0  0  0  0  0  0  0
   27.7457   12.7249   29.5890 H   0  0  0  0  0  0  0  0  0  0  0  0
   26.9729   15.4386   26.3313 H   0  0  0  0  0  0  0  0  0  0  0  0
   26.4134   13.4960   24.8702 H   0  0  0  0  0  0  0  0  0  0  0  0
   33.5383    6.7613   29.1800 H   0  0  0  0  0  0  0  0  0  0  0  0
   35.3432    9.2393   32.2138 H   0  0  0  0  0  0  0  0  0  0  0  0
   33.0919    9.8900   33.0125 H   0  0  0  0  0  0  0  0  0  0  0  0
   31.0688    8.9889   31.9119 H   0  0  0  0  0  0  0  0  0  0  0  0
   24.9367   11.3716   29.9798 H   0  0  0  0  0  0  0  0  0  0  0  0
   24.5028   11.1491   28.2647 H   0  0  0  0  0  0  0  0  0  0  0  0
   23.3767    9.1746   28.6588 H   0  0  0  0  0  0  0  0  0  0  0  0
   23.1826    9.9006   30.2734 H   0  0  0  0  0  0  0  0  0  0  0  0
   28.1665    8.3148   29.7901 H   0  0  0  0  0  0  0  0  0  0  0  0
   31.6029    8.7833   27.3500 H   0  0  0  0  0  0  0  0  0  0  0  0
   29.6565   10.5042   26.5357 H   0  0  0  0  0  0  0  0  0  0  0  0
   28.2605    6.3361   30.6272 H   0  0  0  0  0  0  0  0  0  0  0  0
   30.3996    2.8050   31.3521 H   0  0  0  0  0  0  0  0  0  0  0  0
   32.1169    4.6034   30.2698 H   0  0  0  0  0  0  0  0  0  0  0  0
   23.2850    5.1530   32.2058 H   0  0  0  0  0  0  0  0  0  0  0  0
   24.9957    3.3033   32.7105 H   0  0  0  0  0  0  0  0  0  0  0  0
   22.4028    6.4225   29.1657 H   0  0  0  0  0  0  0  0  0  0  0  0
   18.9726    7.5166   31.5449 H   0  0  0  0  0  0  0  0  0  0  0  0
   20.4990    8.4679   33.2745 H   0  0  0  0  0  0  0  0  0  0  0  0
   22.9657    8.3932   32.9166 H   0  0  0  0  0  0  0  0  0  0  0  0
   27.7446    3.3748   34.4131 H   0  0  0  0  0  0  0  0  0  0  0  0
   27.6384   -0.9289   34.1596 H   0  0  0  0  0  0  0  0  0  0  0  0
   27.4951   -0.7654   31.6742 H   0  0  0  0  0  0  0  0  0  0  0  0
   27.4732    1.4707   30.5854 H   0  0  0  0  0  0  0  0  0  0  0  0
   27.7143    1.9828   36.1618 H   0  0  0  0  0  0  0  0  0  0  0  0
   20.2869    6.0242   28.6174 H   0  0  0  0  0  0  0  0  0  0  0  0
   27.8246   14.9397   29.7239 H   0  0  0  0  0  0  0  0  0  0  0  0
   36.4749    7.9918   30.7201 H   0  0  0  0  0  0  0  0  0  0  0  0
 25 26  2  0
 26 27  1  0
 27 23  1  0
 28 29  1  0
  1  2  2  0
  3  4  2  0
  7  8  2  0
 14 15  1  0
 29 30  1  0
 30 31  2  0
 31 32  1  0
 32 28  2  0
 15 16  1  0
 29 33  2  0
 17 33  1  0
 16 17  1  0
 14 34  2  0
 22 34  1  0
 17 13  2  0
 27 35  2  0
 19 35  1  0
 18 19  1  0
 24 36  2  0
 32 36  1  0
  8  9  1  0
  4  5  1  0
 37 38  2  0
  9 10  2  0
 38 39  1  0
  2  3  1  0
 39 40  2  0
 10 11  1  0
 40 41  1  0
 19 20  2  0
 41 42  2  0
 42 37  1  0
 33 37  1  0
 20 21  1  0
 21 22  2  0
 43 44  2  0
 22 18  1  0
 44 45  1  0
 23 24  1  0
 45 46  2  0
  5  6  2  0
 46 47  1  0
 11 12  2  0
 47 48  2  0
 48 43  1  0
 36 43  1  0
 12  7  1  0
 45 49  1  0
 13 14  1  0
 39 50  1  0
 35 12  1  0
 34  2  1  0
  6  1  1  0
  4 51  1  0
 24 25  1  0
  8 52  1  0
  1 53  1  0
  3 54  1  0
  5 55  1  0
  6 56  1  0
  7 57  1  0
  9 58  1  0
 10 59  1  0
 11 60  1  0
 15 61  1  0
 15 62  1  0
 16 63  1  0
 16 64  1  0
 18 65  1  0
 20 66  1  0
 21 67  1  0
 23 68  1  0
 25 69  1  0
 26 70  1  0
 30 71  1  0
 31 72  1  0
 38 73  1  0
 40 74  1  0
 41 75  1  0
 42 76  1  0
 44 77  1  0
 46 78  1  0
 47 79  1  0
 48 80  1  0
 49 81  1  0
 50 82  1  0
 51 83  1  0
 52 84  1  0
M  END
> <Uni-Dock RESULT> 
ENERGY=   -4.805  LOWER_BOUND=    2.359  UPPER_BOUND=    3.143
INTER + INTRA:          -4.805
INTER:                  -4.805
INTRA:                   0.000
UNBOUND:                 0.000

$$$$

     RDKit          3D

 84 92  0  0  0  0  0  0  0  0999 V2000
   22.8849   12.3871   28.5089 C   0  0  0  0  0  0  0  0  0  0  0  0
   23.4696   11.9833   29.7133 C   0  0  0  0  0  0  0  0  0  0  0  0
   23.3244   12.7798   30.8542 C   0  0  0  0  0  0  0  0  0  0  0  0
   22.5951   13.9623   30.7816 C   0  0  0  0  0  0  0  0  0  0  0  0
   22.0096   14.3683   29.5871 C   0  0  0  0  0  0  0  0  0  0  0  0
   22.1549   13.5767   28.4461 C   0  0  0  0  0  0  0  0  0  0  0  0
   31.3177   10.7890   30.7506 C   0  0  0  0  0  0  0  0  0  0  0  0
   32.1334   11.5686   31.5645 C   0  0  0  0  0  0  0  0  0  0  0  0
   31.7453   11.9024   32.8620 C   0  0  0  0  0  0  0  0  0  0  0  0
   30.5212   11.4439   33.3506 C   0  0  0  0  0  0  0  0  0  0  0  0
   29.6966   10.6594   32.5432 C   0  0  0  0  0  0  0  0  0  0  0  0
   30.0907   10.3282   31.2401 C   0  0  0  0  0  0  0  0  0  0  0  0
   24.2659    8.3507   30.4387 N   0  0  0  0  0  0  0  0  0  0  0  0
   23.6772    9.5631   30.2201 C   0  0  0  0  0  0  0  0  0  0  0  0
   22.2153    9.4640   30.5547 C   0  0  0  0  0  0  0  0  0  0  0  0
   21.9674    7.9782   30.5074 C   0  0  0  0  0  0  0  0  0  0  0  0
   23.3499    7.3680   30.6887 C   0  0  0  0  0  0  0  0  0  0  0  0
   26.6400    9.8113   30.0572 N   0  0  0  0  0  0  0  0  0  0  0  0
   27.9292   10.1722   29.7879 C   0  0  0  0  0  0  0  0  0  0  0  0
   27.8993   11.2860   28.9704 C   0  0  0  0  0  0  0  0  0  0  0  0
   26.5363   11.6606   28.8164 C   0  0  0  0  0  0  0  0  0  0  0  0
   25.7919   10.7595   29.5441 C   0  0  0  0  0  0  0  0  0  0  0  0
   28.4081    7.0338   30.5660 N   0  0  0  0  0  0  0  0  0  0  0  0
   28.9749    5.7857   30.6302 C   0  0  0  0  0  0  0  0  0  0  0  0
   30.3213    5.9104   30.3714 C   0  0  0  0  0  0  0  0  0  0  0  0
   30.5844    7.2918   30.1860 C   0  0  0  0  0  0  0  0  0  0  0  0
   29.3871    7.9646   30.3490 C   0  0  0  0  0  0  0  0  0  0  0  0
   25.9792    5.6937   30.9665 N   0  0  0  0  0  0  0  0  0  0  0  0
   24.6596    5.3368   31.0981 C   0  0  0  0  0  0  0  0  0  0  0  0
   24.6815    3.9032   31.3838 C   0  0  0  0  0  0  0  0  0  0  0  0
   25.9375    3.4681   31.3684 C   0  0  0  0  0  0  0  0  0  0  0  0
   26.7942    4.5955   31.0864 C   0  0  0  0  0  0  0  0  0  0  0  0
   23.4798    6.0322   30.9878 C   0  0  0  0  0  0  0  0  0  0  0  0
   24.2377   10.7295   29.8012 C   0  0  0  0  0  0  0  0  0  0  0  0
   29.2092    9.5138   30.3849 C   0  0  0  0  0  0  0  0  0  0  0  0
   28.1456    4.4822   30.9666 C   0  0  0  0  0  0  0  0  0  0  0  0
   22.2078    5.2599   31.1458 C   0  0  0  0  0  0  0  0  0  0  0  0
   21.6009    4.6910   30.0180 C   0  0  0  0  0  0  0  0  0  0  0  0
   20.4034    3.9942   30.1540 C   0  0  0  0  0  0  0  0  0  0  0  0
   19.7994    3.8458   31.3986 C   0  0  0  0  0  0  0  0  0  0  0  0
   20.4018    4.4004   32.5299 C   0  0  0  0  0  0  0  0  0  0  0  0
   21.6016    5.1056   32.4014 C   0  0  0  0  0  0  0  0  0  0  0  0
   28.8644    3.2051   31.1494 C   0  0  0  0  0  0  0  0  0  0  0  0
   29.1489    2.7391   32.4399 C   0  0  0  0  0  0  0  0  0  0  0  0
   29.8187    1.5294   32.6019 C   0  0  0  0  0  0  0  0  0  0  0  0
   30.2232    0.7825   31.4988 C   0  0  0  0  0  0  0  0  0  0  0  0
   29.9472    1.2455   30.2110 C   0  0  0  0  0  0  0  0  0  0  0  0
   29.2676    2.4535   30.0380 C   0  0  0  0  0  0  0  0  0  0  0  0
   30.0860    1.0372   33.8500 O   0  0  0  0  0  0  0  0  0  0  0  0
   19.7875    3.4461   29.0622 O   0  0  0  0  0  0  0  0  0  0  0  0
   22.4228   14.7433   31.8876 O   0  0  0  0  0  0  0  0  0  0  0  0
   33.3228   11.9978   31.0536 O   0  0  0  0  0  0  0  0  0  0  0  0
   22.9967   11.7566   27.6292 H   0  0  0  0  0  0  0  0  0  0  0  0
   23.7881   12.4479   31.7789 H   0  0  0  0  0  0  0  0  0  0  0  0
   21.4366   15.2884   29.5483 H   0  0  0  0  0  0  0  0  0  0  0  0
   21.7031   13.8788   27.5079 H   0  0  0  0  0  0  0  0  0  0  0  0
   31.6291   10.5356   29.7423 H   0  0  0  0  0  0  0  0  0  0  0  0
   32.3776   12.5068   33.5047 H   0  0  0  0  0  0  0  0  0  0  0  0
   30.2006   11.6921   34.3572 H   0  0  0  0  0  0  0  0  0  0  0  0
   28.7383   10.3067   32.9226 H   0  0  0  0  0  0  0  0  0  0  0  0
   22.0328    9.8502   31.5654 H   0  0  0  0  0  0  0  0  0  0  0  0
   21.5586    9.9844   29.8518 H   0  0  0  0  0  0  0  0  0  0  0  0
   21.5657    7.7009   29.5240 H   0  0  0  0  0  0  0  0  0  0  0  0
   21.2410    7.7019   31.2750 H   0  0  0  0  0  0  0  0  0  0  0  0
   26.2813    8.9912   30.5535 H   0  0  0  0  0  0  0  0  0  0  0  0
   28.7631   11.8039   28.5756 H   0  0  0  0  0  0  0  0  0  0  0  0
   26.1511   12.5084   28.2692 H   0  0  0  0  0  0  0  0  0  0  0  0
   27.4055    7.1642   30.7040 H   0  0  0  0  0  0  0  0  0  0  0  0
   31.0380    5.1034   30.3459 H   0  0  0  0  0  0  0  0  0  0  0  0
   31.5486    7.7440   29.9965 H   0  0  0  0  0  0  0  0  0  0  0  0
   23.8222    3.2811   31.5581 H   0  0  0  0  0  0  0  0  0  0  0  0
   26.2538    2.4516   31.5183 H   0  0  0  0  0  0  0  0  0  0  0  0
   22.0896    4.8222   29.0569 H   0  0  0  0  0  0  0  0  0  0  0  0
   18.8609    3.3070   31.4866 H   0  0  0  0  0  0  0  0  0  0  0  0
   19.9408    4.2972   33.5064 H   0  0  0  0  0  0  0  0  0  0  0  0
   22.0828    5.5517   33.2685 H   0  0  0  0  0  0  0  0  0  0  0  0
   28.8150    3.3292   33.2876 H   0  0  0  0  0  0  0  0  0  0  0  0
   30.7447   -0.1582   31.6411 H   0  0  0  0  0  0  0  0  0  0  0  0
   30.2487    0.6702   29.3406 H   0  0  0  0  0  0  0  0  0  0  0  0
   29.0348    2.8202   29.0399 H   0  0  0  0  0  0  0  0  0  0  0  0
   29.6587    1.6398   34.4837 H   0  0  0  0  0  0  0  0  0  0  0  0
   20.3718    3.6319   28.3029 H   0  0  0  0  0  0  0  0  0  0  0  0
   22.8166   14.2531   32.6318 H   0  0  0  0  0  0  0  0  0  0  0  0
   33.7819   12.5011   31.7452 H   0  0  0  0  0  0  0  0  0  0  0  0
 25 26  2  0
 26 27  1  0
 27 23  1  0
 28 29  1  0
  1  2  2  0
  3  4  2  0
  7  8  2  0
 14 15  1  0
 29 30  1  0
 30 31  2  0
 31 32  1  0
 32 28  2  0
 15 16  1  0
 29 33  2  0
 17 33  1  0
 16 17  1  0
 14 34  2  0
 22 34  1  0
 17 13  2  0
 27 35  2  0
 19 35  1  0
 18 19  1  0
 24 36  2  0
 32 36  1  0
  8  9  1  0
  4  5  1  0
 37 38  2  0
  9 10  2  0
 38 39  1  0
  2  3  1  0
 39 40  2  0
 10 11  1  0
 40 41  1  0
 19 20  2  0
 41 42  2  0
 42 37  1  0
 33 37  1  0
 20 21  1  0
 21 22  2  0
 43 44  2  0
 22 18  1  0
 44 45  1  0
 23 24  1  0
 45 46  2  0
  5  6  2  0
 46 47  1  0
 11 12  2  0
 47 48  2  0
 48 43  1  0
 36 43  1  0
 12  7  1  0
 45 49  1  0
 13 14  1  0
 39 50  1  0
 35 12  1  0
 34  2  1  0
  6  1  1  0
  4 51  1  0
 24 25  1  0
  8 52  1  0
  1 53  1  0
  3 54  1  0
  5 55  1  0
  6 56  1  0
  7 57  1  0
  9 58  1  0
 10 59  1  0
 11 60  1  0
 15 61  1  0
 15 62  1  0
 16 63  1  0
 16 64  1  0
 18 65  1  0
 20 66  1  0
 21 67  1  0
 23 68  1  0
 25 69  1  0
 26 70  1  0
 30 71  1  0
 31 72  1  0
 38 73  1  0
 40 74  1  0
 41 75  1  0
 42 76  1  0
 44 77  1  0
 46 78  1  0
 47 79  1  0
 48 80  1  0
 49 81  1  0
 50 82  1  0
 51 83  1  0
 52 84  1  0
M  END
> <Uni-Dock RESULT> 
ENERGY=   -4.795  LOWER_BOUND=    0.861  UPPER_BOUND=    0.900
INTER + INTRA:          -4.795
INTER:                  -4.795
INTRA:                   0.000
UNBOUND:                 0.000

$$$$

     RDKit          3D

 84 92  0  0  0  0  0  0  0  0999 V2000
   22.8730    8.2417   32.1940 C   0  0  0  0  0  0  0  0  0  0  0  0
   23.5294    7.8577   31.0204 C   0  0  0  0  0  0  0  0  0  0  0  0
   22.8889    7.0020   30.1178 C   0  0  0  0  0  0  0  0  0  0  0  0
   21.6036    6.5462   30.3928 C   0  0  0  0  0  0  0  0  0  0  0  0
   20.9449    6.9261   31.5574 C   0  0  0  0  0  0  0  0  0  0  0  0
   21.5824    7.7780   32.4614 C   0  0  0  0  0  0  0  0  0  0  0  0
   30.4949    3.9161   30.8203 C   0  0  0  0  0  0  0  0  0  0  0  0
   30.6505    2.6123   30.3606 C   0  0  0  0  0  0  0  0  0  0  0  0
   30.0832    2.2035   29.1537 C   0  0  0  0  0  0  0  0  0  0  0  0
   29.3514    3.1184   28.3957 C   0  0  0  0  0  0  0  0  0  0  0  0
   29.1912    4.4292   28.8467 C   0  0  0  0  0  0  0  0  0  0  0  0
   29.7620    4.8342   30.0604 C   0  0  0  0  0  0  0  0  0  0  0  0
   26.2961    9.9476   29.4929 N   0  0  0  0  0  0  0  0  0  0  0  0
   25.1124    9.4303   29.9349 C   0  0  0  0  0  0  0  0  0  0  0  0
   23.9827   10.2547   29.3842 C   0  0  0  0  0  0  0  0  0  0  0  0
   24.6690   11.5424   29.0074 C   0  0  0  0  0  0  0  0  0  0  0  0
   26.1338   11.1527   28.8694 C   0  0  0  0  0  0  0  0  0  0  0  0
   27.3508    7.5727   30.5712 N   0  0  0  0  0  0  0  0  0  0  0  0
   28.1834    6.6302   31.1034 C   0  0  0  0  0  0  0  0  0  0  0  0
   27.5333    6.0394   32.1704 C   0  0  0  0  0  0  0  0  0  0  0  0
   26.2231    6.5891   32.2237 C   0  0  0  0  0  0  0  0  0  0  0  0
   26.1289    7.4929   31.1892 C   0  0  0  0  0  0  0  0  0  0  0  0
   30.3992    8.5125   29.6097 N   0  0  0  0  0  0  0  0  0  0  0  0
   31.5934    9.1149   29.3028 C   0  0  0  0  0  0  0  0  0  0  0  0
   32.6118    8.3157   29.7715 C   0  0  0  0  0  0  0  0  0  0  0  0
   32.0100    7.1667   30.3455 C   0  0  0  0  0  0  0  0  0  0  0  0
   30.6415    7.3008   30.1970 C   0  0  0  0  0  0  0  0  0  0  0  0
   29.2279   10.8219   28.5369 N   0  0  0  0  0  0  0  0  0  0  0  0
   28.3748   11.8194   28.1330 C   0  0  0  0  0  0  0  0  0  0  0  0
   29.2319   12.8136   27.4897 C   0  0  0  0  0  0  0  0  0  0  0  0
   30.4997   12.4215   27.5673 C   0  0  0  0  0  0  0  0  0  0  0  0
   30.5298   11.1501   28.2508 C   0  0  0  0  0  0  0  0  0  0  0  0
   27.0190   12.0061   28.2539 C   0  0  0  0  0  0  0  0  0  0  0  0
   24.8875    8.3409   30.7176 C   0  0  0  0  0  0  0  0  0  0  0  0
   29.5761    6.2147   30.5414 C   0  0  0  0  0  0  0  0  0  0  0  0
   31.6875   10.4885   28.5254 C   0  0  0  0  0  0  0  0  0  0  0  0
   26.4498   13.2843   27.7232 C   0  0  0  0  0  0  0  0  0  0  0  0
   26.3505   14.3987   28.5670 C   0  0  0  0  0  0  0  0  0  0  0  0
   25.7971   15.5828   28.0874 C   0  0  0  0  0  0  0  0  0  0  0  0
   25.3455   15.6813   26.7751 C   0  0  0  0  0  0  0  0  0  0  0  0
   25.4495   14.5793   25.9236 C   0  0  0  0  0  0  0  0  0  0  0  0
   25.9994   13.3854   26.3985 C   0  0  0  0  0  0  0  0  0  0  0  0
   33.0158   10.9901   28.1190 C   0  0  0  0  0  0  0  0  0  0  0  0
   33.4643   10.8022   26.8048 C   0  0  0  0  0  0  0  0  0  0  0  0
   34.7141   11.2870   26.4290 C   0  0  0  0  0  0  0  0  0  0  0  0
   35.5315   11.9436   27.3448 C   0  0  0  0  0  0  0  0  0  0  0  0
   35.0915   12.1282   28.6568 C   0  0  0  0  0  0  0  0  0  0  0  0
   33.8354   11.6536   29.0414 C   0  0  0  0  0  0  0  0  0  0  0  0
   35.1663   11.1412   25.1460 O   0  0  0  0  0  0  0  0  0  0  0  0
   25.6767   16.6760   28.9010 O   0  0  0  0  0  0  0  0  0  0  0  0
   20.9522    5.7282   29.5157 O   0  0  0  0  0  0  0  0  0  0  0  0
   31.3729    1.7463   31.1274 O   0  0  0  0  0  0  0  0  0  0  0  0
   23.3764    8.9141   32.8857 H   0  0  0  0  0  0  0  0  0  0  0  0
   23.4177    6.7152   29.2131 H   0  0  0  0  0  0  0  0  0  0  0  0
   19.9395    6.5695   31.7537 H   0  0  0  0  0  0  0  0  0  0  0  0
   21.0815    8.0846   33.3729 H   0  0  0  0  0  0  0  0  0  0  0  0
   30.9400    4.2236   31.7612 H   0  0  0  0  0  0  0  0  0  0  0  0
   30.2031    1.1893   28.7860 H   0  0  0  0  0  0  0  0  0  0  0  0
   28.9019    2.8207   27.4538 H   0  0  0  0  0  0  0  0  0  0  0  0
   28.6147    5.1417   28.2578 H   0  0  0  0  0  0  0  0  0  0  0  0
   23.5620    9.7708   28.4938 H   0  0  0  0  0  0  0  0  0  0  0  0
   23.1771   10.4450   30.0990 H   0  0  0  0  0  0  0  0  0  0  0  0
   24.5548   12.2739   29.8182 H   0  0  0  0  0  0  0  0  0  0  0  0
   24.2162   11.9488   28.1003 H   0  0  0  0  0  0  0  0  0  0  0  0
   27.5285    8.2592   29.8331 H   0  0  0  0  0  0  0  0  0  0  0  0
   27.9365    5.2606   32.8036 H   0  0  0  0  0  0  0  0  0  0  0  0
   25.4339    6.3275   32.9131 H   0  0  0  0  0  0  0  0  0  0  0  0
   29.5106    8.9538   29.3711 H   0  0  0  0  0  0  0  0  0  0  0  0
   33.6680    8.5218   29.6862 H   0  0  0  0  0  0  0  0  0  0  0  0
   32.5237    6.3195   30.7796 H   0  0  0  0  0  0  0  0  0  0  0  0
   28.9041   13.7337   27.0404 H   0  0  0  0  0  0  0  0  0  0  0  0
   31.3513   12.9677   27.2037 H   0  0  0  0  0  0  0  0  0  0  0  0
   26.7073   14.2971   29.5878 H   0  0  0  0  0  0  0  0  0  0  0  0
   24.9084   16.6092   26.4188 H   0  0  0  0  0  0  0  0  0  0  0  0
   25.0977   14.6391   24.8992 H   0  0  0  0  0  0  0  0  0  0  0  0
   26.0823   12.5135   25.7540 H   0  0  0  0  0  0  0  0  0  0  0  0
   32.8080   10.2986   26.1019 H   0  0  0  0  0  0  0  0  0  0  0  0
   36.5032   12.3155   27.0370 H   0  0  0  0  0  0  0  0  0  0  0  0
   35.7140   12.6459   29.3806 H   0  0  0  0  0  0  0  0  0  0  0  0
   33.4746   11.8016   30.0576 H   0  0  0  0  0  0  0  0  0  0  0  0
   34.4369   10.7449   24.6378 H   0  0  0  0  0  0  0  0  0  0  0  0
   26.0689   16.4185   29.7567 H   0  0  0  0  0  0  0  0  0  0  0  0
   21.5270    5.6552   28.7324 H   0  0  0  0  0  0  0  0  0  0  0  0
   31.4118    0.8950   30.6624 H   0  0  0  0  0  0  0  0  0  0  0  0
 25 26  2  0
 26 27  1  0
 27 23  1  0
 28 29  1  0
  1  2  2  0
  3  4  2  0
  7  8  2  0
 14 15  1  0
 29 30  1  0
 30 31  2  0
 31 32  1  0
 32 28  2  0
 15 16  1  0
 29 33  2  0
 17 33  1  0
 16 17  1  0
 14 34  2  0
 22 34  1  0
 17 13  2  0
 27 35  2  0
 19 35  1  0
 18 19  1  0
 24 36  2  0
 32 36  1  0
  8  9  1  0
  4  5  1  0
 37 38  2  0
  9 10  2  0
 38 39  1  0
  2  3  1  0
 39 40  2  0
 10 11  1  0
 40 41  1  0
 19 20  2  0
 41 42  2  0
 42 37  1  0
 33 37  1  0
 20 21  1  0
 21 22  2  0
 43 44  2  0
 22 18  1  0
 44 45  1  0
 23 24  1  0
 45 46  2  0
  5  6  2  0
 46 47  1  0
 11 12  2  0
 47 48  2  0
 48 43  1  0
 36 43  1  0
 12  7  1  0
 45 49  1  0
 13 14  1  0
 39 50  1  0
 35 12  1  0
 34  2  1  0
  6  1  1  0
  4 51  1  0
 24 25  1  0
  8 52  1  0
  1 53  1  0
  3 54  1  0
  5 55  1  0
  6 56  1  0
  7 57  1  0
  9 58  1  0
 10 59  1  0
 11 60  1  0
 15 61  1  0
 15 62  1  0
 16 63  1  0
 16 64  1  0
 18 65  1  0
 20 66  1  0
 21 67  1  0
 23 68  1  0
 25 69  1  0
 26 70  1  0
 30 71  1  0
 31 72  1  0
 38 73  1  0
 40 74  1  0
 41 75  1  0
 42 76  1  0
 44 77  1  0
 46 78  1  0
 47 79  1  0
 48 80  1  0
 49 81  1  0
 50 82  1  0
 51 83  1  0
 52 84  1  0
M  END
> <Uni-Dock RESULT> 
ENERGY=   -4.705  LOWER_BOUND=    2.730  UPPER_BOUND=    8.550
INTER + INTRA:          -4.705
INTER:                  -4.705
INTRA:                   0.000
UNBOUND:                 0.000

$$$$

     RDKit          3D

 84 92  0  0  0  0  0  0  0  0999 V2000
   25.4867   14.6484   24.4781 C   0  0  0  0  0  0  0  0  0  0  0  0
   26.2821   14.6479   25.6282 C   0  0  0  0  0  0  0  0  0  0  0  0
   26.7082   15.8629   26.1753 C   0  0  0  0  0  0  0  0  0  0  0  0
   26.3320   17.0597   25.5740 C   0  0  0  0  0  0  0  0  0  0  0  0
   25.5395   17.0668   24.4311 C   0  0  0  0  0  0  0  0  0  0  0  0
   25.1148   15.8557   23.8813 C   0  0  0  0  0  0  0  0  0  0  0  0
   33.4615   11.1449   26.1573 C   0  0  0  0  0  0  0  0  0  0  0  0
   34.6624   11.8282   26.3204 C   0  0  0  0  0  0  0  0  0  0  0  0
   34.7916   12.8363   27.2757 C   0  0  0  0  0  0  0  0  0  0  0  0
   33.6995   13.1610   28.0813 C   0  0  0  0  0  0  0  0  0  0  0  0
   32.4911   12.4803   27.9274 C   0  0  0  0  0  0  0  0  0  0  0  0
   32.3664   11.4694   26.9653 C   0  0  0  0  0  0  0  0  0  0  0  0
   26.2698   11.7551   28.0752 N   0  0  0  0  0  0  0  0  0  0  0  0
   25.9857   12.8554   27.3183 C   0  0  0  0  0  0  0  0  0  0  0  0
   24.7241   13.4900   27.8329 C   0  0  0  0  0  0  0  0  0  0  0  0
   24.0895   12.3707   28.6174 C   0  0  0  0  0  0  0  0  0  0  0  0
   25.2479   11.4318   28.9228 C   0  0  0  0  0  0  0  0  0  0  0  0
   28.7120   11.8418   26.6810 N   0  0  0  0  0  0  0  0  0  0  0  0
   29.9048   11.5135   26.1029 C   0  0  0  0  0  0  0  0  0  0  0  0
   29.9230   12.0471   24.8282 C   0  0  0  0  0  0  0  0  0  0  0  0
   28.7284   12.8017   24.6689 C   0  0  0  0  0  0  0  0  0  0  0  0
   28.0307   12.6955   25.8512 C   0  0  0  0  0  0  0  0  0  0  0  0
   29.7491    9.1636   28.3695 N   0  0  0  0  0  0  0  0  0  0  0  0
   29.9567    7.9726   29.0190 C   0  0  0  0  0  0  0  0  0  0  0  0
   31.1425    7.4374   28.5685 C   0  0  0  0  0  0  0  0  0  0  0  0
   31.6923    8.3612   27.6433 C   0  0  0  0  0  0  0  0  0  0  0  0
   30.8250    9.4359   27.5693 C   0  0  0  0  0  0  0  0  0  0  0  0
   27.2945    9.2033   29.7220 N   0  0  0  0  0  0  0  0  0  0  0  0
   26.0330    9.4837   30.1867 C   0  0  0  0  0  0  0  0  0  0  0  0
   25.7606    8.4542   31.1882 C   0  0  0  0  0  0  0  0  0  0  0  0
   26.7896    7.6151   31.2514 C   0  0  0  0  0  0  0  0  0  0  0  0
   27.7858    8.0627   30.3071 C   0  0  0  0  0  0  0  0  0  0  0  0
   25.1042   10.4454   29.8699 C   0  0  0  0  0  0  0  0  0  0  0  0
   26.6795   13.3859   26.2756 C   0  0  0  0  0  0  0  0  0  0  0  0
   31.0835   10.7647   26.7944 C   0  0  0  0  0  0  0  0  0  0  0  0
   28.9555    7.3978   30.0994 C   0  0  0  0  0  0  0  0  0  0  0  0
   23.7844   10.3860   30.5726 C   0  0  0  0  0  0  0  0  0  0  0  0
   22.7345    9.6488   30.0084 C   0  0  0  0  0  0  0  0  0  0  0  0
   21.4960    9.6114   30.6431 C   0  0  0  0  0  0  0  0  0  0  0  0
   21.2839   10.2912   31.8384 C   0  0  0  0  0  0  0  0  0  0  0  0
   22.3268   11.0203   32.4136 C   0  0  0  0  0  0  0  0  0  0  0  0
   23.5720   11.0669   31.7805 C   0  0  0  0  0  0  0  0  0  0  0  0
   29.3306    6.1792   30.8446 C   0  0  0  0  0  0  0  0  0  0  0  0
   29.8611    6.2834   32.1374 C   0  0  0  0  0  0  0  0  0  0  0  0
   30.2029    5.1283   32.8353 C   0  0  0  0  0  0  0  0  0  0  0  0
   30.0387    3.8707   32.2611 C   0  0  0  0  0  0  0  0  0  0  0  0
   29.5160    3.7621   30.9713 C   0  0  0  0  0  0  0  0  0  0  0  0
   29.1614    4.9145   30.2662 C   0  0  0  0  0  0  0  0  0  0  0  0
   30.6979    5.1987   34.1088 O   0  0  0  0  0  0  0  0  0  0  0  0
   20.4544    8.9108   30.0992 O   0  0  0  0  0  0  0  0  0  0  0  0
   26.7186   18.2568   26.1036 O   0  0  0  0  0  0  0  0  0  0  0  0
   35.7082   11.4830   25.5160 O   0  0  0  0  0  0  0  0  0  0  0  0
   25.1537   13.6985   24.0649 H   0  0  0  0  0  0  0  0  0  0  0  0
   27.3265   15.8393   27.0683 H   0  0  0  0  0  0  0  0  0  0  0  0
   25.2472   18.0083   23.9787 H   0  0  0  0  0  0  0  0  0  0  0  0
   24.4952   15.8446   22.9915 H   0  0  0  0  0  0  0  0  0  0  0  0
   33.3717   10.3626   25.4105 H   0  0  0  0  0  0  0  0  0  0  0  0
   35.7261   13.3714   27.4119 H   0  0  0  0  0  0  0  0  0  0  0  0
   33.7790   13.9421   28.8306 H   0  0  0  0  0  0  0  0  0  0  0  0
   31.6368   12.7382   28.5522 H   0  0  0  0  0  0  0  0  0  0  0  0
   24.9678   14.3306   28.4947 H   0  0  0  0  0  0  0  0  0  0  0  0
   24.0468   13.8402   27.0489 H   0  0  0  0  0  0  0  0  0  0  0  0
   23.3486   11.8544   27.9928 H   0  0  0  0  0  0  0  0  0  0  0  0
   23.5861   12.7775   29.4972 H   0  0  0  0  0  0  0  0  0  0  0  0
   28.3181   11.5471   27.5786 H   0  0  0  0  0  0  0  0  0  0  0  0
   30.7299   11.9512   24.1141 H   0  0  0  0  0  0  0  0  0  0  0  0
   28.4335   13.3813   23.8066 H   0  0  0  0  0  0  0  0  0  0  0  0
   28.9086    9.7164   28.5400 H   0  0  0  0  0  0  0  0  0  0  0  0
   31.5766    6.5024   28.8889 H   0  0  0  0  0  0  0  0  0  0  0  0
   32.6364    8.2675   27.1235 H   0  0  0  0  0  0  0  0  0  0  0  0
   24.8629    8.3643   31.7730 H   0  0  0  0  0  0  0  0  0  0  0  0
   26.8555    6.7455   31.8801 H   0  0  0  0  0  0  0  0  0  0  0  0
   22.9231    9.1286   29.0738 H   0  0  0  0  0  0  0  0  0  0  0  0
   20.3095   10.2593   32.3165 H   0  0  0  0  0  0  0  0  0  0  0  0
   22.1757   11.5592   33.3428 H   0  0  0  0  0  0  0  0  0  0  0  0
   24.3948   11.6351   32.2078 H   0  0  0  0  0  0  0  0  0  0  0  0
   29.9705    7.2717   32.5729 H   0  0  0  0  0  0  0  0  0  0  0  0
   30.3101    2.9795   32.8175 H   0  0  0  0  0  0  0  0  0  0  0  0
   29.3740    2.7878   30.5128 H   0  0  0  0  0  0  0  0  0  0  0  0
   28.7411    4.8439   29.2646 H   0  0  0  0  0  0  0  0  0  0  0  0
   30.6599    6.1354   34.3702 H   0  0  0  0  0  0  0  0  0  0  0  0
   20.8065    8.4896   29.2923 H   0  0  0  0  0  0  0  0  0  0  0  0
   27.1761   18.0507   26.9387 H   0  0  0  0  0  0  0  0  0  0  0  0
   36.4725   12.0257   25.7687 H   0  0  0  0  0  0  0  0  0  0  0  0
 25 26  2  0
 26 27  1  0
 27 23  1  0
 28 29  1  0
  1  2  2  0
  3  4  2  0
  7  8  2  0
 14 15  1  0
 29 30  1  0
 30 31  2  0
 31 32  1  0
 32 28  2  0
 15 16  1  0
 29 33  2  0
 17 33  1  0
 16 17  1  0
 14 34  2  0
 22 34  1  0
 17 13  2  0
 27 35  2  0
 19 35  1  0
 18 19  1  0
 24 36  2  0
 32 36  1  0
  8  9  1  0
  4  5  1  0
 37 38  2  0
  9 10  2  0
 38 39  1  0
  2  3  1  0
 39 40  2  0
 10 11  1  0
 40 41  1  0
 19 20  2  0
 41 42  2  0
 42 37  1  0
 33 37  1  0
 20 21  1  0
 21 22  2  0
 43 44  2  0
 22 18  1  0
 44 45  1  0
 23 24  1  0
 45 46  2  0
  5  6  2  0
 46 47  1  0
 11 12  2  0
 47 48  2  0
 48 43  1  0
 36 43  1  0
 12  7  1  0
 45 49  1  0
 13 14  1  0
 39 50  1  0
 35 12  1  0
 34  2  1  0
  6  1  1  0
  4 51  1  0
 24 25  1  0
  8 52  1  0
  1 53  1  0
  3 54  1  0
  5 55  1  0
  6 56  1  0
  7 57  1  0
  9 58  1  0
 10 59  1  0
 11 60  1  0
 15 61  1  0
 15 62  1  0
 16 63  1  0
 16 64  1  0
 18 65  1  0
 20 66  1  0
 21 67  1  0
 23 68  1  0
 25 69  1  0
 26 70  1  0
 30 71  1  0
 31 72  1  0
 38 73  1  0
 40 74  1  0
 41 75  1  0
 42 76  1  0
 44 77  1  0
 46 78  1  0
 47 79  1  0
 48 80  1  0
 49 81  1  0
 50 82  1  0
 51 83  1  0
 52 84  1  0
M  END
> <Uni-Dock RESULT> 
ENERGY=   -4.649  LOWER_BOUND=    3.696  UPPER_BOUND=    5.342
INTER + INTRA:          -4.649
INTER:                  -4.649
INTRA:                   0.000
UNBOUND:                 0.000

$$$$

     RDKit          3D

 84 92  0  0  0  0  0  0  0  0999 V2000
   27.2467   12.5429   21.3882 C   0  0  0  0  0  0  0  0  0  0  0  0
   28.3708   11.8661   21.8717 C   0  0  0  0  0  0  0  0  0  0  0  0
   28.7495   10.6508   21.2912 C   0  0  0  0  0  0  0  0  0  0  0  0
   28.0084   10.1303   20.2351 C   0  0  0  0  0  0  0  0  0  0  0  0
   26.8906   10.7997   19.7486 C   0  0  0  0  0  0  0  0  0  0  0  0
   26.5087   12.0115   20.3275 C   0  0  0  0  0  0  0  0  0  0  0  0
   29.1931    9.2726   29.4012 C   0  0  0  0  0  0  0  0  0  0  0  0
   29.2427    7.9329   29.7730 C   0  0  0  0  0  0  0  0  0  0  0  0
   30.0588    7.0284   29.0936 C   0  0  0  0  0  0  0  0  0  0  0  0
   30.8389    7.4766   28.0269 C   0  0  0  0  0  0  0  0  0  0  0  0
   30.7982    8.8188   27.6474 C   0  0  0  0  0  0  0  0  0  0  0  0
   29.9757    9.7228   28.3323 C   0  0  0  0  0  0  0  0  0  0  0  0
   31.1664   13.6630   23.6914 N   0  0  0  0  0  0  0  0  0  0  0  0
   30.2815   13.1629   22.7798 C   0  0  0  0  0  0  0  0  0  0  0  0
   30.7370   13.5410   21.3983 C   0  0  0  0  0  0  0  0  0  0  0  0
   31.6708   14.6935   21.6640 C   0  0  0  0  0  0  0  0  0  0  0  0
   32.0694   14.5162   23.1222 C   0  0  0  0  0  0  0  0  0  0  0  0
   29.7222   12.0426   25.4813 N   0  0  0  0  0  0  0  0  0  0  0  0
   29.1660   11.5027   26.6056 C   0  0  0  0  0  0  0  0  0  0  0  0
   27.8335   11.2470   26.3426 C   0  0  0  0  0  0  0  0  0  0  0  0
   27.6042   11.5646   24.9757 C   0  0  0  0  0  0  0  0  0  0  0  0
   28.8046   12.0022   24.4625 C   0  0  0  0  0  0  0  0  0  0  0  0
   31.7165   13.0347   27.9588 N   0  0  0  0  0  0  0  0  0  0  0  0
   32.5081   13.6638   28.8866 C   0  0  0  0  0  0  0  0  0  0  0  0
   32.1051   13.2616   30.1402 C   0  0  0  0  0  0  0  0  0  0  0  0
   31.0584   12.3215   29.9602 C   0  0  0  0  0  0  0  0  0  0  0  0
   30.8660   12.1749   28.5985 C   0  0  0  0  0  0  0  0  0  0  0  0
   33.1036   14.5788   26.0752 N   0  0  0  0  0  0  0  0  0  0  0  0
   33.5548   15.2126   24.9436 C   0  0  0  0  0  0  0  0  0  0  0  0
   34.6849   16.0256   25.3898 C   0  0  0  0  0  0  0  0  0  0  0  0
   34.8332   15.8937   26.7041 C   0  0  0  0  0  0  0  0  0  0  0  0
   33.8191   14.9807   27.1757 C   0  0  0  0  0  0  0  0  0  0  0  0
   33.1373   15.2146   23.6346 C   0  0  0  0  0  0  0  0  0  0  0  0
   29.1654   12.4130   22.9848 C   0  0  0  0  0  0  0  0  0  0  0  0
   29.9227   11.1359   27.9174 C   0  0  0  0  0  0  0  0  0  0  0  0
   33.6736   14.6559   28.4898 C   0  0  0  0  0  0  0  0  0  0  0  0
   33.8691   16.1045   22.6797 C   0  0  0  0  0  0  0  0  0  0  0  0
   33.4255   17.4193   22.4833 C   0  0  0  0  0  0  0  0  0  0  0  0
   34.0853   18.2440   21.5763 C   0  0  0  0  0  0  0  0  0  0  0  0
   35.1884   17.7849   20.8632 C   0  0  0  0  0  0  0  0  0  0  0  0
   35.6441   16.4796   21.0596 C   0  0  0  0  0  0  0  0  0  0  0  0
   34.9845   15.6435   21.9647 C   0  0  0  0  0  0  0  0  0  0  0  0
   34.5602   15.1773   29.5495 C   0  0  0  0  0  0  0  0  0  0  0  0
   35.8178   14.5964   29.7603 C   0  0  0  0  0  0  0  0  0  0  0  0
   36.6501   15.1012   30.7557 C   0  0  0  0  0  0  0  0  0  0  0  0
   36.2445   16.1665   31.5550 C   0  0  0  0  0  0  0  0  0  0  0  0
   34.9902   16.7448   31.3526 C   0  0  0  0  0  0  0  0  0  0  0  0
   34.1514   16.2516   30.3505 C   0  0  0  0  0  0  0  0  0  0  0  0
   37.8936   14.5711   30.9659 O   0  0  0  0  0  0  0  0  0  0  0  0
   33.6570   19.5250   21.3589 O   0  0  0  0  0  0  0  0  0  0  0  0
   28.3728    8.9572   19.6402 O   0  0  0  0  0  0  0  0  0  0  0  0
   28.4674    7.5314   30.8206 O   0  0  0  0  0  0  0  0  0  0  0  0
   26.9651   13.4914   21.8410 H   0  0  0  0  0  0  0  0  0  0  0  0
   29.6251   10.1411   21.6834 H   0  0  0  0  0  0  0  0  0  0  0  0
   26.3280   10.3856   18.9188 H   0  0  0  0  0  0  0  0  0  0  0  0
   25.6406   12.5463   19.9584 H   0  0  0  0  0  0  0  0  0  0  0  0
   28.5542    9.9679   29.9362 H   0  0  0  0  0  0  0  0  0  0  0  0
   30.1062    5.9825   29.3798 H   0  0  0  0  0  0  0  0  0  0  0  0
   31.4807    6.7892   27.4852 H   0  0  0  0  0  0  0  0  0  0  0  0
   31.4026    9.1672   26.8107 H   0  0  0  0  0  0  0  0  0  0  0  0
   31.2810   12.7060   20.9391 H   0  0  0  0  0  0  0  0  0  0  0  0
   29.9290   13.8492   20.7288 H   0  0  0  0  0  0  0  0  0  0  0  0
   31.1328   15.6424   21.5395 H   0  0  0  0  0  0  0  0  0  0  0  0
   32.5019   14.6645   20.9558 H   0  0  0  0  0  0  0  0  0  0  0  0
   30.6579   12.4315   25.3377 H   0  0  0  0  0  0  0  0  0  0  0  0
   27.1209   10.8265   27.0394 H   0  0  0  0  0  0  0  0  0  0  0  0
   26.6813   11.4515   24.4261 H   0  0  0  0  0  0  0  0  0  0  0  0
   31.8325   13.2128   26.9608 H   0  0  0  0  0  0  0  0  0  0  0  0
   32.5330   13.5860   31.0767 H   0  0  0  0  0  0  0  0  0  0  0  0
   30.5353   11.7831   30.7391 H   0  0  0  0  0  0  0  0  0  0  0  0
   35.2949   16.6547   24.7668 H   0  0  0  0  0  0  0  0  0  0  0  0
   35.5662   16.3966   27.3089 H   0  0  0  0  0  0  0  0  0  0  0  0
   32.5612   17.7543   23.0492 H   0  0  0  0  0  0  0  0  0  0  0  0
   35.6867   18.4378   20.1530 H   0  0  0  0  0  0  0  0  0  0  0  0
   36.4999   16.1056   20.5078 H   0  0  0  0  0  0  0  0  0  0  0  0
   35.3186   14.6214   22.1264 H   0  0  0  0  0  0  0  0  0  0  0  0
   36.1214   13.7747   29.1193 H   0  0  0  0  0  0  0  0  0  0  0  0
   36.9043   16.5487   32.3270 H   0  0  0  0  0  0  0  0  0  0  0  0
   34.6628   17.5818   31.9623 H   0  0  0  0  0  0  0  0  0  0  0  0
   33.1759   16.7010   30.1736 H   0  0  0  0  0  0  0  0  0  0  0  0
   38.0342   13.9071   30.2682 H   0  0  0  0  0  0  0  0  0  0  0  0
   32.9032   19.6623   21.9635 H   0  0  0  0  0  0  0  0  0  0  0  0
   29.2177    8.6952   20.0485 H   0  0  0  0  0  0  0  0  0  0  0  0
   28.6329    6.5867   30.9712 H   0  0  0  0  0  0  0  0  0  0  0  0
 25 26  2  0
 26 27  1  0
 27 23  1  0
 28 29  1  0
  1  2  2  0
  3  4  2  0
  7  8  2  0
 14 15  1  0
 29 30  1  0
 30 31  2  0
 31 32  1  0
 32 28  2  0
 15 16  1  0
 29 33  2  0
 17 33  1  0
 16 17  1  0
 14 34  2  0
 22 34  1  0
 17 13  2  0
 27 35  2  0
 19 35  1  0
 18 19  1  0
 24 36  2  0
 32 36  1  0
  8  9  1  0
  4  5  1  0
 37 38  2  0
  9 10  2  0
 38 39  1  0
  2  3  1  0
 39 40  2  0
 10 11  1  0
 40 41  1  0
 19 20  2  0
 41 42  2  0
 42 37  1  0
 33 37  1  0
 20 21  1  0
 21 22  2  0
 43 44  2  0
 22 18  1  0
 44 45  1  0
 23 24  1  0
 45 46  2  0
  5  6  2  0
 46 47  1  0
 11 12  2  0
 47 48  2  0
 48 43  1  0
 36 43  1  0
 12  7  1  0
 45 49  1  0
 13 14  1  0
 39 50  1  0
 35 12  1  0
 34  2  1  0
  6  1  1  0
  4 51  1  0
 24 25  1  0
  8 52  1  0
  1 53  1  0
  3 54  1  0
  5 55  1  0
  6 56  1  0
  7 57  1  0
  9 58  1  0
 10 59  1  0
 11 60  1  0
 15 61  1  0
 15 62  1  0
 16 63  1  0
 16 64  1  0
 18 65  1  0
 20 66  1  0
 21 67  1  0
 23 68  1  0
 25 69  1  0
 26 70  1  0
 30 71  1  0
 31 72  1  0
 38 73  1  0
 40 74  1  0
 41 75  1  0
 42 76  1  0
 44 77  1  0
 46 78  1  0
 47 79  1  0
 48 80  1  0
 49 81  1  0
 50 82  1  0
 51 83  1  0
 52 84  1  0
M  END
> <Uni-Dock RESULT> 
ENERGY=   -4.569  LOWER_BOUND=    7.222  UPPER_BOUND=   13.024
INTER + INTRA:          -4.569
INTER:                  -4.569
INTRA:                   0.000
UNBOUND:                 0.000

$$$$

     RDKit          3D

 84 92  0  0  0  0  0  0  0  0999 V2000
   28.9303    2.2808   33.3558 C   0  0  0  0  0  0  0  0  0  0  0  0
   28.8613    2.8294   32.0714 C   0  0  0  0  0  0  0  0  0  0  0  0
   29.2648    2.0662   30.9706 C   0  0  0  0  0  0  0  0  0  0  0  0
   29.7249    0.7675   31.1630 C   0  0  0  0  0  0  0  0  0  0  0  0
   29.7941    0.2157   32.4378 C   0  0  0  0  0  0  0  0  0  0  0  0
   29.3944    0.9758   33.5387 C   0  0  0  0  0  0  0  0  0  0  0  0
   32.7678    9.4231   29.7568 C   0  0  0  0  0  0  0  0  0  0  0  0
   33.7966    9.4426   28.8206 C   0  0  0  0  0  0  0  0  0  0  0  0
   33.6746    8.7699   27.6048 C   0  0  0  0  0  0  0  0  0  0  0  0
   32.5006    8.0697   27.3238 C   0  0  0  0  0  0  0  0  0  0  0  0
   31.4618    8.0457   28.2551 C   0  0  0  0  0  0  0  0  0  0  0  0
   31.5902    8.7220   29.4754 C   0  0  0  0  0  0  0  0  0  0  0  0
   26.4873    5.6576   31.2222 N   0  0  0  0  0  0  0  0  0  0  0  0
   27.0741    4.4653   31.5355 C   0  0  0  0  0  0  0  0  0  0  0  0
   26.0435    3.3749   31.4458 C   0  0  0  0  0  0  0  0  0  0  0  0
   24.7478    4.1395   31.5320 C   0  0  0  0  0  0  0  0  0  0  0  0
   25.1280    5.5560   31.1254 C   0  0  0  0  0  0  0  0  0  0  0  0
   29.1453    6.5794   31.2093 N   0  0  0  0  0  0  0  0  0  0  0  0
   30.2621    7.3635   31.2632 C   0  0  0  0  0  0  0  0  0  0  0  0
   31.1868    6.7348   32.0754 C   0  0  0  0  0  0  0  0  0  0  0  0
   30.6345    5.4798   32.4516 C   0  0  0  0  0  0  0  0  0  0  0  0
   29.3961    5.3958   31.8555 C   0  0  0  0  0  0  0  0  0  0  0  0
   28.0639    9.6288   30.4145 N   0  0  0  0  0  0  0  0  0  0  0  0
   27.4519   10.8469   30.2570 C   0  0  0  0  0  0  0  0  0  0  0  0
   28.4216   11.8236   30.2910 C   0  0  0  0  0  0  0  0  0  0  0  0
   29.6707   11.1666   30.4317 C   0  0  0  0  0  0  0  0  0  0  0  0
   29.4194    9.8072   30.4683 C   0  0  0  0  0  0  0  0  0  0  0  0
   25.4622    8.5861   30.4177 N   0  0  0  0  0  0  0  0  0  0  0  0
   24.3437    7.7940   30.5047 C   0  0  0  0  0  0  0  0  0  0  0  0
   23.2231    8.6880   30.2182 C   0  0  0  0  0  0  0  0  0  0  0  0
   23.6792    9.9218   30.0265 C   0  0  0  0  0  0  0  0  0  0  0  0
   25.1160    9.8902   30.1647 C   0  0  0  0  0  0  0  0  0  0  0  0
   24.1492    6.4681   30.8080 C   0  0  0  0  0  0  0  0  0  0  0  0
   28.3689    4.2011   31.8574 C   0  0  0  0  0  0  0  0  0  0  0  0
   30.4975    8.6799   30.4633 C   0  0  0  0  0  0  0  0  0  0  0  0
   25.8910   11.0047   30.0605 C   0  0  0  0  0  0  0  0  0  0  0  0
   22.7378    5.9736   30.8607 C   0  0  0  0  0  0  0  0  0  0  0  0
   22.0354    6.0184   32.0725 C   0  0  0  0  0  0  0  0  0  0  0  0
   20.7313    5.5352   32.1348 C   0  0  0  0  0  0  0  0  0  0  0  0
   20.1075    5.0124   31.0063 C   0  0  0  0  0  0  0  0  0  0  0  0
   20.7957    4.9729   29.7918 C   0  0  0  0  0  0  0  0  0  0  0  0
   22.1069    5.4516   29.7218 C   0  0  0  0  0  0  0  0  0  0  0  0
   25.3398   12.3417   29.7610 C   0  0  0  0  0  0  0  0  0  0  0  0
   25.0251   12.6908   28.4410 C   0  0  0  0  0  0  0  0  0  0  0  0
   24.4973   13.9503   28.1701 C   0  0  0  0  0  0  0  0  0  0  0  0
   24.2911   14.8740   29.1911 C   0  0  0  0  0  0  0  0  0  0  0  0
   24.6085   14.5330   30.5071 C   0  0  0  0  0  0  0  0  0  0  0  0
   25.1300   13.2685   30.7905 C   0  0  0  0  0  0  0  0  0  0  0  0
   24.1561   14.3085   26.8947 O   0  0  0  0  0  0  0  0  0  0  0  0
   20.0355    5.5553   33.3125 O   0  0  0  0  0  0  0  0  0  0  0  0
   30.1031   -0.0019   30.1010 O   0  0  0  0  0  0  0  0  0  0  0  0
   34.9285   10.1379   29.1292 O   0  0  0  0  0  0  0  0  0  0  0  0
   28.6064    2.8795   34.2048 H   0  0  0  0  0  0  0  0  0  0  0  0
   29.2042    2.5125   29.9819 H   0  0  0  0  0  0  0  0  0  0  0  0
   30.1468   -0.8013   32.5710 H   0  0  0  0  0  0  0  0  0  0  0  0
   29.4408    0.5592   34.5388 H   0  0  0  0  0  0  0  0  0  0  0  0
   32.8734    9.9494   30.7001 H   0  0  0  0  0  0  0  0  0  0  0  0
   34.4709    8.7833   26.8673 H   0  0  0  0  0  0  0  0  0  0  0  0
   32.3854    7.5397   26.3837 H   0  0  0  0  0  0  0  0  0  0  0  0
   30.5479    7.4939   28.0382 H   0  0  0  0  0  0  0  0  0  0  0  0
   26.1211    2.8615   30.4791 H   0  0  0  0  0  0  0  0  0  0  0  0
   26.1049    2.6335   32.2475 H   0  0  0  0  0  0  0  0  0  0  0  0
   24.3840    4.1361   32.5679 H   0  0  0  0  0  0  0  0  0  0  0  0
   23.9981    3.6660   30.8941 H   0  0  0  0  0  0  0  0  0  0  0  0
   28.2362    6.7665   30.7781 H   0  0  0  0  0  0  0  0  0  0  0  0
   32.1701    7.1114   32.3231 H   0  0  0  0  0  0  0  0  0  0  0  0
   31.1025    4.7162   33.0554 H   0  0  0  0  0  0  0  0  0  0  0  0
   27.5195    8.7662   30.4434 H   0  0  0  0  0  0  0  0  0  0  0  0
   28.2531   12.8859   30.1976 H   0  0  0  0  0  0  0  0  0  0  0  0
   30.6452   11.6353   30.4604 H   0  0  0  0  0  0  0  0  0  0  0  0
   22.1852    8.4093   30.1870 H   0  0  0  0  0  0  0  0  0  0  0  0
   23.0792   10.7910   29.8258 H   0  0  0  0  0  0  0  0  0  0  0  0
   22.5439    6.4285   32.9402 H   0  0  0  0  0  0  0  0  0  0  0  0
   19.0929    4.6314   31.0733 H   0  0  0  0  0  0  0  0  0  0  0  0
   20.3245    4.5642   28.9043 H   0  0  0  0  0  0  0  0  0  0  0  0
   22.6628    5.4227   28.7876 H   0  0  0  0  0  0  0  0  0  0  0  0
   25.1815   11.9531   27.6602 H   0  0  0  0  0  0  0  0  0  0  0  0
   23.8794   15.8519   28.9643 H   0  0  0  0  0  0  0  0  0  0  0  0
   24.4456   15.2395   31.3156 H   0  0  0  0  0  0  0  0  0  0  0  0
   25.3702   12.9849   31.8135 H   0  0  0  0  0  0  0  0  0  0  0  0
   24.2857   13.5190   26.3403 H   0  0  0  0  0  0  0  0  0  0  0  0
   20.6251    5.9776   33.9655 H   0  0  0  0  0  0  0  0  0  0  0  0
   29.8954    0.5152   29.3018 H   0  0  0  0  0  0  0  0  0  0  0  0
   35.5329   10.0781   28.3720 H   0  0  0  0  0  0  0  0  0  0  0  0
 25 26  2  0
 26 27  1  0
 27 23  1  0
 28 29  1  0
  1  2  2  0
  3  4  2  0
  7  8  2  0
 14 15  1  0
 29 30  1  0
 30 31  2  0
 31 32  1  0
 32 28  2  0
 15 16  1  0
 29 33  2  0
 17 33  1  0
 16 17  1  0
 14 34  2  0
 22 34  1  0
 17 13  2  0
 27 35  2  0
 19 35  1  0
 18 19  1  0
 24 36  2  0
 32 36  1  0
  8  9  1  0
  4  5  1  0
 37 38  2  0
  9 10  2  0
 38 39  1  0
  2  3  1  0
 39 40  2  0
 10 11  1  0
 40 41  1  0
 19 20  2  0
 41 42  2  0
 42 37  1  0
 33 37  1  0
 20 21  1  0
 21 22  2  0
 43 44  2  0
 22 18  1  0
 44 45  1  0
 23 24  1  0
 45 46  2  0
  5  6  2  0
 46 47  1  0
 11 12  2  0
 47 48  2  0
 48 43  1  0
 36 43  1  0
 12  7  1  0
 45 49  1  0
 13 14  1  0
 39 50  1  0
 35 12  1  0
 34  2  1  0
  6  1  1  0
  4 51  1  0
 24 25  1  0
  8 52  1  0
  1 53  1  0
  3 54  1  0
  5 55  1  0
  6 56  1  0
  7 57  1  0
  9 58  1  0
 10 59  1  0
 11 60  1  0
 15 61  1  0
 15 62  1  0
 16 63  1  0
 16 64  1  0
 18 65  1  0
 20 66  1  0
 21 67  1  0
 23 68  1  0
 25 69  1  0
 26 70  1  0
 30 71  1  0
 31 72  1  0
 38 73  1  0
 40 74  1  0
 41 75  1  0
 42 76  1  0
 44 77  1  0
 46 78  1  0
 47 79  1  0
 48 80  1  0
 49 81  1  0
 50 82  1  0
 51 83  1  0
 52 84  1  0
M  END
> <Uni-Dock RESULT> 
ENERGY=   -4.549  LOWER_BOUND=    1.973  UPPER_BOUND=    8.268
INTER + INTRA:          -4.549
INTER:                  -4.549
INTRA:                   0.000
UNBOUND:                 0.000

$$$$

     RDKit          3D

 84 92  0  0  0  0  0  0  0  0999 V2000
   33.8001   13.4070   26.7720 C   0  0  0  0  0  0  0  0  0  0  0  0
   32.8709   12.5085   26.2383 C   0  0  0  0  0  0  0  0  0  0  0  0
   33.0088   11.1394   26.4904 C   0  0  0  0  0  0  0  0  0  0  0  0
   34.0647   10.6853   27.2743 C   0  0  0  0  0  0  0  0  0  0  0  0
   34.9909   11.5742   27.8094 C   0  0  0  0  0  0  0  0  0  0  0  0
   34.8574   12.9410   27.5574 C   0  0  0  0  0  0  0  0  0  0  0  0
   31.4540   11.5874   18.4128 C   0  0  0  0  0  0  0  0  0  0  0  0
   31.7524   10.4386   17.6870 C   0  0  0  0  0  0  0  0  0  0  0  0
   31.4058    9.1754   18.1666 C   0  0  0  0  0  0  0  0  0  0  0  0
   30.7471    9.0646   19.3918 C   0  0  0  0  0  0  0  0  0  0  0  0
   30.4411   10.2107   20.1266 C   0  0  0  0  0  0  0  0  0  0  0  0
   30.7928   11.4770   19.6408 C   0  0  0  0  0  0  0  0  0  0  0  0
   29.3585   13.5752   25.2996 N   0  0  0  0  0  0  0  0  0  0  0  0
   30.5139   13.2232   25.9362 C   0  0  0  0  0  0  0  0  0  0  0  0
   30.2401   13.0906   27.4081 C   0  0  0  0  0  0  0  0  0  0  0  0
   28.9613   13.8701   27.5760 C   0  0  0  0  0  0  0  0  0  0  0  0
   28.3632   13.9028   26.1768 C   0  0  0  0  0  0  0  0  0  0  0  0
   30.8595   13.0202   22.9857 N   0  0  0  0  0  0  0  0  0  0  0  0
   31.3273   12.9823   21.7033 C   0  0  0  0  0  0  0  0  0  0  0  0
   32.6975   13.1577   21.7428 C   0  0  0  0  0  0  0  0  0  0  0  0
   33.0769   13.2139   23.1121 C   0  0  0  0  0  0  0  0  0  0  0  0
   31.9232   13.0725   23.8502 C   0  0  0  0  0  0  0  0  0  0  0  0
   28.2156   13.7878   21.1095 N   0  0  0  0  0  0  0  0  0  0  0  0
   27.1037   14.2934   20.4839 C   0  0  0  0  0  0  0  0  0  0  0  0
   27.3611   14.3564   19.1329 C   0  0  0  0  0  0  0  0  0  0  0  0
   28.6622   13.8290   18.9310 C   0  0  0  0  0  0  0  0  0  0  0  0
   29.1505   13.4519   20.1687 C   0  0  0  0  0  0  0  0  0  0  0  0
   26.8096   14.2721   23.4854 N   0  0  0  0  0  0  0  0  0  0  0  0
   26.4118   14.4304   24.7903 C   0  0  0  0  0  0  0  0  0  0  0  0
   25.0211   14.8740   24.7112 C   0  0  0  0  0  0  0  0  0  0  0  0
   24.6696   15.0028   23.4358 C   0  0  0  0  0  0  0  0  0  0  0  0
   25.8058   14.6376   22.6233 C   0  0  0  0  0  0  0  0  0  0  0  0
   27.0532   14.2792   25.9959 C   0  0  0  0  0  0  0  0  0  0  0  0
   31.7459   12.9809   25.4131 C   0  0  0  0  0  0  0  0  0  0  0  0
   30.4831   12.6837   20.4280 C   0  0  0  0  0  0  0  0  0  0  0  0
   25.7877   14.6944   21.2632 C   0  0  0  0  0  0  0  0  0  0  0  0
   26.2805   14.6120   27.2334 C   0  0  0  0  0  0  0  0  0  0  0  0
   26.3225   15.9166   27.7436 C   0  0  0  0  0  0  0  0  0  0  0  0
   25.6277   16.2264   28.9096 C   0  0  0  0  0  0  0  0  0  0  0  0
   24.8822   15.2593   29.5765 C   0  0  0  0  0  0  0  0  0  0  0  0
   24.8260   13.9590   29.0703 C   0  0  0  0  0  0  0  0  0  0  0  0
   25.5244   13.6384   27.9029 C   0  0  0  0  0  0  0  0  0  0  0  0
   24.5953   15.0991   20.4914 C   0  0  0  0  0  0  0  0  0  0  0  0
   23.5649   14.1784   20.2589 C   0  0  0  0  0  0  0  0  0  0  0  0
   22.4407   14.5723   19.5382 C   0  0  0  0  0  0  0  0  0  0  0  0
   22.3322   15.8648   19.0323 C   0  0  0  0  0  0  0  0  0  0  0  0
   23.3587   16.7839   19.2564 C   0  0  0  0  0  0  0  0  0  0  0  0
   24.4866   16.4012   19.9861 C   0  0  0  0  0  0  0  0  0  0  0  0
   21.4078   13.7025   19.3189 O   0  0  0  0  0  0  0  0  0  0  0  0
   25.6702   17.4902   29.4318 O   0  0  0  0  0  0  0  0  0  0  0  0
   34.2055    9.3561   27.5505 O   0  0  0  0  0  0  0  0  0  0  0  0
   32.3957   10.5857   16.4936 O   0  0  0  0  0  0  0  0  0  0  0  0
   33.6795   14.4707   26.5769 H   0  0  0  0  0  0  0  0  0  0  0  0
   32.2765   10.4589   26.0649 H   0  0  0  0  0  0  0  0  0  0  0  0
   35.8038   11.2058   28.4258 H   0  0  0  0  0  0  0  0  0  0  0  0
   35.5704   13.6468   27.9688 H   0  0  0  0  0  0  0  0  0  0  0  0
   31.7287   12.5654   18.0307 H   0  0  0  0  0  0  0  0  0  0  0  0
   31.6314    8.2746   17.6048 H   0  0  0  0  0  0  0  0  0  0  0  0
   30.4685    8.0913   19.7828 H   0  0  0  0  0  0  0  0  0  0  0  0
   29.9324   10.1236   21.0859 H   0  0  0  0  0  0  0  0  0  0  0  0
   30.0824   12.0364   27.6687 H   0  0  0  0  0  0  0  0  0  0  0  0
   31.0257   13.5009   28.0487 H   0  0  0  0  0  0  0  0  0  0  0  0
   29.1911   14.8921   27.9049 H   0  0  0  0  0  0  0  0  0  0  0  0
   28.3342   13.3901   28.3306 H   0  0  0  0  0  0  0  0  0  0  0  0
   29.8957   13.0121   23.3299 H   0  0  0  0  0  0  0  0  0  0  0  0
   33.3564   13.1854   20.8854 H   0  0  0  0  0  0  0  0  0  0  0  0
   34.0772   13.3094   23.5080 H   0  0  0  0  0  0  0  0  0  0  0  0
   28.2455   13.6805   22.1238 H   0  0  0  0  0  0  0  0  0  0  0  0
   26.6807   14.7150   18.3753 H   0  0  0  0  0  0  0  0  0  0  0  0
   29.1655   13.7019   17.9819 H   0  0  0  0  0  0  0  0  0  0  0  0
   24.3786   15.0886   25.5461 H   0  0  0  0  0  0  0  0  0  0  0  0
   23.7141   15.3405   23.0768 H   0  0  0  0  0  0  0  0  0  0  0  0
   26.9130   16.6537   27.2072 H   0  0  0  0  0  0  0  0  0  0  0  0
   24.3531   15.5148   30.4896 H   0  0  0  0  0  0  0  0  0  0  0  0
   24.2528   13.1929   29.5813 H   0  0  0  0  0  0  0  0  0  0  0  0
   25.5000   12.6301   27.4966 H   0  0  0  0  0  0  0  0  0  0  0  0
   23.6621   13.1791   20.6715 H   0  0  0  0  0  0  0  0  0  0  0  0
   21.4500   16.1568   18.4721 H   0  0  0  0  0  0  0  0  0  0  0  0
   23.2850   17.7983   18.8755 H   0  0  0  0  0  0  0  0  0  0  0  0
   25.2888   17.1112   20.1789 H   0  0  0  0  0  0  0  0  0  0  0  0
   21.6185   12.8908   19.8128 H   0  0  0  0  0  0  0  0  0  0  0  0
   26.2118   18.0177   28.8147 H   0  0  0  0  0  0  0  0  0  0  0  0
   33.4217    8.9151   27.1760 H   0  0  0  0  0  0  0  0  0  0  0  0
   32.5063    9.7044   16.1020 H   0  0  0  0  0  0  0  0  0  0  0  0
 25 26  2  0
 26 27  1  0
 27 23  1  0
 28 29  1  0
  1  2  2  0
  3  4  2  0
  7  8  2  0
 14 15  1  0
 29 30  1  0
 30 31  2  0
 31 32  1  0
 32 28  2  0
 15 16  1  0
 29 33  2  0
 17 33  1  0
 16 17  1  0
 14 34  2  0
 22 34  1  0
 17 13  2  0
 27 35  2  0
 19 35  1  0
 18 19  1  0
 24 36  2  0
 32 36  1  0
  8  9  1  0
  4  5  1  0
 37 38  2  0
  9 10  2  0
 38 39  1  0
  2  3  1  0
 39 40  2  0
 10 11  1  0
 40 41  1  0
 19 20  2  0
 41 42  2  0
 42 37  1  0
 33 37  1  0
 20 21  1  0
 21 22  2  0
 43 44  2  0
 22 18  1  0
 44 45  1  0
 23 24  1  0
 45 46  2  0
  5  6  2  0
 46 47  1  0
 11 12  2  0
 47 48  2  0
 48 43  1  0
 36 43  1  0
 12  7  1  0
 45 49  1  0
 13 14  1  0
 39 50  1  0
 35 12  1  0
 34  2  1  0
  6  1  1  0
  4 51  1  0
 24 25  1  0
  8 52  1  0
  1 53  1  0
  3 54  1  0
  5 55  1  0
  6 56  1  0
  7 57  1  0
  9 58  1  0
 10 59  1  0
 11 60  1  0
 15 61  1  0
 15 62  1  0
 16 63  1  0
 16 64  1  0
 18 65  1  0
 20 66  1  0
 21 67  1  0
 23 68  1  0
 25 69  1  0
 26 70  1  0
 30 71  1  0
 31 72  1  0
 38 73  1  0
 40 74  1  0
 41 75  1  0
 42 76  1  0
 44 77  1  0
 46 78  1  0
 47 79  1  0
 48 80  1  0
 49 81  1  0
 50 82  1  0
 51 83  1  0
 52 84  1  0
M  END
> <Uni-Dock RESULT> 
ENERGY=   -4.475  LOWER_BOUND=    8.288  UPPER_BOUND=   13.378
INTER + INTRA:          -4.475
INTER:                  -4.475
INTRA:                   0.000
UNBOUND:                 0.000

$$$$
