
     RDKit          3D

 84 92  0  0  0  0  0  0  0  0999 V2000
   23.2291    2.7372   33.6339 C   0  0  0  0  0  0  0  0  0  0  0  0
   23.5390    2.6193   32.2732 C   0  0  0  0  0  0  0  0  0  0  0  0
   23.0524    1.5299   31.5430 C   0  0  0  0  0  0  0  0  0  0  0  0
   22.2640    0.5758   32.1818 C   0  0  0  0  0  0  0  0  0  0  0  0
   21.9536    0.6909   33.5356 C   0  0  0  0  0  0  0  0  0  0  0  0
   22.4381    1.7748   34.2666 C   0  0  0  0  0  0  0  0  0  0  0  0
   21.7726   10.2680   30.2393 C   0  0  0  0  0  0  0  0  0  0  0  0
   20.8229   11.0462   30.8947 C   0  0  0  0  0  0  0  0  0  0  0  0
   20.7084   11.0190   32.2854 C   0  0  0  0  0  0  0  0  0  0  0  0
   21.5526   10.1906   33.0263 C   0  0  0  0  0  0  0  0  0  0  0  0
   22.5078    9.4034   32.3762 C   0  0  0  0  0  0  0  0  0  0  0  0
   22.6281    9.4426   30.9789 C   0  0  0  0  0  0  0  0  0  0  0  0
   26.6203    4.5019   31.1200 N   0  0  0  0  0  0  0  0  0  0  0  0
   25.7285    3.5983   31.6180 C   0  0  0  0  0  0  0  0  0  0  0  0
   26.4816    2.4671   32.2566 C   0  0  0  0  0  0  0  0  0  0  0  0
   27.8643    2.6105   31.6692 C   0  0  0  0  0  0  0  0  0  0  0  0
   27.9074    4.0502   31.1805 C   0  0  0  0  0  0  0  0  0  0  0  0
   24.3017    6.1227   30.8780 N   0  0  0  0  0  0  0  0  0  0  0  0
   23.4221    7.0350   30.3679 C   0  0  0  0  0  0  0  0  0  0  0  0
   22.2756    6.3585   30.0052 C   0  0  0  0  0  0  0  0  0  0  0  0
   22.4404    5.0006   30.3865 C   0  0  0  0  0  0  0  0  0  0  0  0
   23.6818    4.9017   30.9693 C   0  0  0  0  0  0  0  0  0  0  0  0
   26.1676    8.6067   29.6770 N   0  0  0  0  0  0  0  0  0  0  0  0
   27.0858    9.5167   29.2110 C   0  0  0  0  0  0  0  0  0  0  0  0
   26.4238   10.6677   28.8534 C   0  0  0  0  0  0  0  0  0  0  0  0
   25.0528   10.4591   29.1483 C   0  0  0  0  0  0  0  0  0  0  0  0
   24.9274    9.1947   29.6924 C   0  0  0  0  0  0  0  0  0  0  0  0
   28.4141    6.9367   30.0795 N   0  0  0  0  0  0  0  0  0  0  0  0
   29.2821    5.9097   30.3663 C   0  0  0  0  0  0  0  0  0  0  0  0
   30.6091    6.4256   30.0299 C   0  0  0  0  0  0  0  0  0  0  0  0
   30.4919    7.6665   29.5679 C   0  0  0  0  0  0  0  0  0  0  0  0
   29.0928    8.0207   29.5839 C   0  0  0  0  0  0  0  0  0  0  0  0
   29.1082    4.6360   30.8536 C   0  0  0  0  0  0  0  0  0  0  0  0
   24.3705    3.6434   31.6157 C   0  0  0  0  0  0  0  0  0  0  0  0
   23.6175    8.5818   30.2896 C   0  0  0  0  0  0  0  0  0  0  0  0
   28.6407    9.2315   29.1597 C   0  0  0  0  0  0  0  0  0  0  0  0
   30.3326    3.7979   31.0420 C   0  0  0  0  0  0  0  0  0  0  0  0
   31.0559    3.8713   32.2408 C   0  0  0  0  0  0  0  0  0  0  0  0
   32.2021    3.0977   32.4054 C   0  0  0  0  0  0  0  0  0  0  0  0
   32.6454    2.2479   31.3951 C   0  0  0  0  0  0  0  0  0  0  0  0
   31.9318    2.1720   30.1976 C   0  0  0  0  0  0  0  0  0  0  0  0
   30.7803    2.9453   30.0210 C   0  0  0  0  0  0  0  0  0  0  0  0
   29.5416   10.2843   28.6501 C   0  0  0  0  0  0  0  0  0  0  0  0
   30.1531   11.1809   29.5324 C   0  0  0  0  0  0  0  0  0  0  0  0
   30.9935   12.1707   29.0374 C   0  0  0  0  0  0  0  0  0  0  0  0
   31.2274   12.2927   27.6675 C   0  0  0  0  0  0  0  0  0  0  0  0
   30.6191   11.4010   26.7833 C   0  0  0  0  0  0  0  0  0  0  0  0
   29.7817   10.3975   27.2741 C   0  0  0  0  0  0  0  0  0  0  0  0
   31.5789   13.0225   29.9313 O   0  0  0  0  0  0  0  0  0  0  0  0
   32.9252    3.1615   33.5651 O   0  0  0  0  0  0  0  0  0  0  0  0
   21.7738   -0.5001   31.4945 O   0  0  0  0  0  0  0  0  0  0  0  0
   20.0057   11.8367   30.1360 O   0  0  0  0  0  0  0  0  0  0  0  0
   23.6213    3.5852   34.1905 H   0  0  0  0  0  0  0  0  0  0  0  0
   23.3100    1.4544   30.4909 H   0  0  0  0  0  0  0  0  0  0  0  0
   21.3385   -0.0625   34.0168 H   0  0  0  0  0  0  0  0  0  0  0  0
   22.2125    1.8763   35.3234 H   0  0  0  0  0  0  0  0  0  0  0  0
   21.8358   10.2848   29.1527 H   0  0  0  0  0  0  0  0  0  0  0  0
   19.9713   11.6248   32.8027 H   0  0  0  0  0  0  0  0  0  0  0  0
   21.4775   10.1522   34.1121 H   0  0  0  0  0  0  0  0  0  0  0  0
   23.1630    8.7522   32.9545 H   0  0  0  0  0  0  0  0  0  0  0  0
   26.0666    1.4799   32.0345 H   0  0  0  0  0  0  0  0  0  0  0  0
   26.5095    2.6007   33.3453 H   0  0  0  0  0  0  0  0  0  0  0  0
   28.6155    2.3650   32.4264 H   0  0  0  0  0  0  0  0  0  0  0  0
   27.9865    1.9244   30.8202 H   0  0  0  0  0  0  0  0  0  0  0  0
   25.2818    6.2446   31.1343 H   0  0  0  0  0  0  0  0  0  0  0  0
   21.4017    6.8008   29.5517 H   0  0  0  0  0  0  0  0  0  0  0  0
   21.7274    4.1991   30.2748 H   0  0  0  0  0  0  0  0  0  0  0  0
   26.4596    7.6775   29.9887 H   0  0  0  0  0  0  0  0  0  0  0  0
   26.8823   11.5610   28.4566 H   0  0  0  0  0  0  0  0  0  0  0  0
   24.2588   11.1806   29.0245 H   0  0  0  0  0  0  0  0  0  0  0  0
   31.5417    5.8983   30.1260 H   0  0  0  0  0  0  0  0  0  0  0  0
   31.3060    8.2874   29.2423 H   0  0  0  0  0  0  0  0  0  0  0  0
   30.6913    4.5410   33.0133 H   0  0  0  0  0  0  0  0  0  0  0  0
   33.5440    1.6559   31.5396 H   0  0  0  0  0  0  0  0  0  0  0  0
   32.2673    1.5197   29.3970 H   0  0  0  0  0  0  0  0  0  0  0  0
   30.2120    2.9059   29.0944 H   0  0  0  0  0  0  0  0  0  0  0  0
   29.9732   11.0829   30.5997 H   0  0  0  0  0  0  0  0  0  0  0  0
   31.8774   13.0656   27.2759 H   0  0  0  0  0  0  0  0  0  0  0  0
   30.8002   11.4735   25.7157 H   0  0  0  0  0  0  0  0  0  0  0  0
   29.3066    9.6923   26.5950 H   0  0  0  0  0  0  0  0  0  0  0  0
   32.1273   13.6478   29.4345 H   0  0  0  0  0  0  0  0  0  0  0  0
   32.4905    3.8386   34.1116 H   0  0  0  0  0  0  0  0  0  0  0  0
   22.1245   -0.4365   30.5903 H   0  0  0  0  0  0  0  0  0  0  0  0
   19.4081   12.3081   30.7346 H   0  0  0  0  0  0  0  0  0  0  0  0
 25 26  2  0
 26 27  1  0
 27 23  1  0
 28 29  1  0
  1  2  2  0
  3  4  2  0
  7  8  2  0
 14 15  1  0
 29 30  1  0
 30 31  2  0
 31 32  1  0
 32 28  2  0
 15 16  1  0
 29 33  2  0
 17 33  1  0
 16 17  1  0
 14 34  2  0
 22 34  1  0
 17 13  2  0
 27 35  2  0
 19 35  1  0
 18 19  1  0
 24 36  2  0
 32 36  1  0
  8  9  1  0
  4  5  1  0
 37 38  2  0
  9 10  2  0
 38 39  1  0
  2  3  1  0
 39 40  2  0
 10 11  1  0
 40 41  1  0
 19 20  2  0
 41 42  2  0
 42 37  1  0
 33 37  1  0
 20 21  1  0
 21 22  2  0
 43 44  2  0
 22 18  1  0
 44 45  1  0
 23 24  1  0
 45 46  2  0
  5  6  2  0
 46 47  1  0
 11 12  2  0
 47 48  2  0
 48 43  1  0
 36 43  1  0
 12  7  1  0
 45 49  1  0
 13 14  1  0
 39 50  1  0
 35 12  1  0
 34  2  1  0
  6  1  1  0
  4 51  1  0
 24 25  1  0
  8 52  1  0
  1 53  1  0
  3 54  1  0
  5 55  1  0
  6 56  1  0
  7 57  1  0
  9 58  1  0
 10 59  1  0
 11 60  1  0
 15 61  1  0
 15 62  1  0
 16 63  1  0
 16 64  1  0
 18 65  1  0
 20 66  1  0
 21 67  1  0
 23 68  1  0
 25 69  1  0
 26 70  1  0
 30 71  1  0
 31 72  1  0
 38 73  1  0
 40 74  1  0
 41 75  1  0
 42 76  1  0
 44 77  1  0
 46 78  1  0
 47 79  1  0
 48 80  1  0
 49 81  1  0
 50 82  1  0
 51 83  1  0
 52 84  1  0
M  END
> <Uni-Dock RESULT> 
ENERGY=   -5.280  LOWER_BOUND=    0.000  UPPER_BOUND=    0.000
INTER + INTRA:          -5.280
INTER:                  -5.280
INTRA:                   0.000
UNBOUND:                 0.000

$$$$

     RDKit          3D

 84 92  0  0  0  0  0  0  0  0999 V2000
   23.4516   12.1249   30.9346 C   0  0  0  0  0  0  0  0  0  0  0  0
   23.4908   11.2847   29.8148 C   0  0  0  0  0  0  0  0  0  0  0  0
   22.7884   11.6379   28.6579 C   0  0  0  0  0  0  0  0  0  0  0  0
   22.0586   12.8240   28.6362 C   0  0  0  0  0  0  0  0  0  0  0  0
   22.0183   13.6623   29.7489 C   0  0  0  0  0  0  0  0  0  0  0  0
   22.7162   13.3126   30.9040 C   0  0  0  0  0  0  0  0  0  0  0  0
   31.5202   10.1505   29.7692 C   0  0  0  0  0  0  0  0  0  0  0  0
   32.4387   11.0827   30.2432 C   0  0  0  0  0  0  0  0  0  0  0  0
   32.1937   11.8002   31.4149 C   0  0  0  0  0  0  0  0  0  0  0  0
   31.0049   11.5857   32.1138 C   0  0  0  0  0  0  0  0  0  0  0  0
   30.0752   10.6532   31.6437 C   0  0  0  0  0  0  0  0  0  0  0  0
   30.3305    9.9249   30.4720 C   0  0  0  0  0  0  0  0  0  0  0  0
   24.3914    7.6678   30.5045 N   0  0  0  0  0  0  0  0  0  0  0  0
   23.7696    8.8700   30.3375 C   0  0  0  0  0  0  0  0  0  0  0  0
   22.3517    8.7596   30.8192 C   0  0  0  0  0  0  0  0  0  0  0  0
   22.1225    7.2683   30.8490 C   0  0  0  0  0  0  0  0  0  0  0  0
   23.5256    6.6824   30.8835 C   0  0  0  0  0  0  0  0  0  0  0  0
   26.7197    9.1975   29.9563 N   0  0  0  0  0  0  0  0  0  0  0  0
   27.9550    9.5249   29.4734 C   0  0  0  0  0  0  0  0  0  0  0  0
   27.7893   10.5167   28.5287 C   0  0  0  0  0  0  0  0  0  0  0  0
   26.4108   10.8561   28.5006 C   0  0  0  0  0  0  0  0  0  0  0  0
   25.7884   10.0584   29.4317 C   0  0  0  0  0  0  0  0  0  0  0  0
   28.5974    6.4748   30.3508 N   0  0  0  0  0  0  0  0  0  0  0  0
   29.2101    5.2623   30.5575 C   0  0  0  0  0  0  0  0  0  0  0  0
   30.5629    5.4127   30.3618 C   0  0  0  0  0  0  0  0  0  0  0  0
   30.7826    6.7803   30.0591 C   0  0  0  0  0  0  0  0  0  0  0  0
   29.5586    7.4215   30.0979 C   0  0  0  0  0  0  0  0  0  0  0  0
   26.2184    5.0897   30.9986 N   0  0  0  0  0  0  0  0  0  0  0  0
   24.9229    4.7007   31.2453 C   0  0  0  0  0  0  0  0  0  0  0  0
   25.0092    3.2819   31.5914 C   0  0  0  0  0  0  0  0  0  0  0  0
   26.2788    2.8928   31.5293 C   0  0  0  0  0  0  0  0  0  0  0  0
   27.0787    4.0317   31.1466 C   0  0  0  0  0  0  0  0  0  0  0  0
   23.7175    5.3611   31.2138 C   0  0  0  0  0  0  0  0  0  0  0  0
   24.2740   10.0368   29.8574 C   0  0  0  0  0  0  0  0  0  0  0  0
   29.3286    8.9626   29.9571 C   0  0  0  0  0  0  0  0  0  0  0  0
   28.4274    3.9568   30.9872 C   0  0  0  0  0  0  0  0  0  0  0  0
   22.4932    4.5758   31.5621 C   0  0  0  0  0  0  0  0  0  0  0  0
   22.0913    4.4587   32.9002 C   0  0  0  0  0  0  0  0  0  0  0  0
   20.9574    3.7159   33.2194 C   0  0  0  0  0  0  0  0  0  0  0  0
   20.2114    3.0836   32.2279 C   0  0  0  0  0  0  0  0  0  0  0  0
   20.6074    3.1934   30.8937 C   0  0  0  0  0  0  0  0  0  0  0  0
   21.7450    3.9356   30.5620 C   0  0  0  0  0  0  0  0  0  0  0  0
   29.1858    2.7071   31.1937 C   0  0  0  0  0  0  0  0  0  0  0  0
   29.6398    2.3571   32.4695 C   0  0  0  0  0  0  0  0  0  0  0  0
   30.3580    1.1808   32.6474 C   0  0  0  0  0  0  0  0  0  0  0  0
   30.6459    0.3469   31.5668 C   0  0  0  0  0  0  0  0  0  0  0  0
   30.1958    0.6922   30.2919 C   0  0  0  0  0  0  0  0  0  0  0  0
   29.4647    1.8671   30.1071 C   0  0  0  0  0  0  0  0  0  0  0  0
   30.7773    0.8690   33.9100 O   0  0  0  0  0  0  0  0  0  0  0  0
   20.5542    3.5840   34.5200 O   0  0  0  0  0  0  0  0  0  0  0  0
   21.3618   13.1961   27.5198 O   0  0  0  0  0  0  0  0  0  0  0  0
   33.5868   11.2747   29.5266 O   0  0  0  0  0  0  0  0  0  0  0  0
   23.9960   11.8331   31.8297 H   0  0  0  0  0  0  0  0  0  0  0  0
   22.8270   10.9690   27.8034 H   0  0  0  0  0  0  0  0  0  0  0  0
   21.4438   14.5822   29.7141 H   0  0  0  0  0  0  0  0  0  0  0  0
   22.6898   13.9498   31.7823 H   0  0  0  0  0  0  0  0  0  0  0  0
   31.7165    9.6137   28.8428 H   0  0  0  0  0  0  0  0  0  0  0  0
   32.9067   12.5269   31.7908 H   0  0  0  0  0  0  0  0  0  0  0  0
   30.7929   12.1374   33.0285 H   0  0  0  0  0  0  0  0  0  0  0  0
   29.1443   10.4900   32.1865 H   0  0  0  0  0  0  0  0  0  0  0  0
   21.6245    9.2506   30.1663 H   0  0  0  0  0  0  0  0  0  0  0  0
   22.2626    9.1835   31.8273 H   0  0  0  0  0  0  0  0  0  0  0  0
   21.4995    7.0066   31.7099 H   0  0  0  0  0  0  0  0  0  0  0  0
   21.6066    6.9477   29.9337 H   0  0  0  0  0  0  0  0  0  0  0  0
   26.4506    8.4317   30.5746 H   0  0  0  0  0  0  0  0  0  0  0  0
   28.5790   10.9730   27.9513 H   0  0  0  0  0  0  0  0  0  0  0  0
   25.9357   11.6112   27.8945 H   0  0  0  0  0  0  0  0  0  0  0  0
   27.5835    6.5739   30.4412 H   0  0  0  0  0  0  0  0  0  0  0  0
   31.3040    4.6335   30.4575 H   0  0  0  0  0  0  0  0  0  0  0  0
   31.7410    7.2476   29.8872 H   0  0  0  0  0  0  0  0  0  0  0  0
   24.1878    2.6372   31.8496 H   0  0  0  0  0  0  0  0  0  0  0  0
   26.6344    1.8994   31.7316 H   0  0  0  0  0  0  0  0  0  0  0  0
   22.6889    4.9598   33.6552 H   0  0  0  0  0  0  0  0  0  0  0  0
   19.3329    2.5047   32.4962 H   0  0  0  0  0  0  0  0  0  0  0  0
   20.0411    2.7011   30.1088 H   0  0  0  0  0  0  0  0  0  0  0  0
   22.0747    4.0301   29.5298 H   0  0  0  0  0  0  0  0  0  0  0  0
   29.4120    3.0055   33.3115 H   0  0  0  0  0  0  0  0  0  0  0  0
   31.2098   -0.5684   31.6989 H   0  0  0  0  0  0  0  0  0  0  0  0
   30.3997    0.0485   29.4423 H   0  0  0  0  0  0  0  0  0  0  0  0
   29.1029    2.1438   29.1189 H   0  0  0  0  0  0  0  0  0  0  0  0
   31.2594    0.0298   33.8671 H   0  0  0  0  0  0  0  0  0  0  0  0
   21.2245    4.0448   35.0535 H   0  0  0  0  0  0  0  0  0  0  0  0
   21.4694   12.4793   26.8724 H   0  0  0  0  0  0  0  0  0  0  0  0
   34.1133   11.9474   29.9827 H   0  0  0  0  0  0  0  0  0  0  0  0
 25 26  2  0
 26 27  1  0
 27 23  1  0
 28 29  1  0
  1  2  2  0
  3  4  2  0
  7  8  2  0
 14 15  1  0
 29 30  1  0
 30 31  2  0
 31 32  1  0
 32 28  2  0
 15 16  1  0
 29 33  2  0
 17 33  1  0
 16 17  1  0
 14 34  2  0
 22 34  1  0
 17 13  2  0
 27 35  2  0
 19 35  1  0
 18 19  1  0
 24 36  2  0
 32 36  1  0
  8  9  1  0
  4  5  1  0
 37 38  2  0
  9 10  2  0
 38 39  1  0
  2  3  1  0
 39 40  2  0
 10 11  1  0
 40 41  1  0
 19 20  2  0
 41 42  2  0
 42 37  1  0
 33 37  1  0
 20 21  1  0
 21 22  2  0
 43 44  2  0
 22 18  1  0
 44 45  1  0
 23 24  1  0
 45 46  2  0
  5  6  2  0
 46 47  1  0
 11 12  2  0
 47 48  2  0
 48 43  1  0
 36 43  1  0
 12  7  1  0
 45 49  1  0
 13 14  1  0
 39 50  1  0
 35 12  1  0
 34  2  1  0
  6  1  1  0
  4 51  1  0
 24 25  1  0
  8 52  1  0
  1 53  1  0
  3 54  1  0
  5 55  1  0
  6 56  1  0
  7 57  1  0
  9 58  1  0
 10 59  1  0
 11 60  1  0
 15 61  1  0
 15 62  1  0
 16 63  1  0
 16 64  1  0
 18 65  1  0
 20 66  1  0
 21 67  1  0
 23 68  1  0
 25 69  1  0
 26 70  1  0
 30 71  1  0
 31 72  1  0
 38 73  1  0
 40 74  1  0
 41 75  1  0
 42 76  1  0
 44 77  1  0
 46 78  1  0
 47 79  1  0
 48 80  1  0
 49 81  1  0
 50 82  1  0
 51 83  1  0
 52 84  1  0
M  END
> <Uni-Dock RESULT> 
ENERGY=   -5.145  LOWER_BOUND=    2.029  UPPER_BOUND=    8.936
INTER + INTRA:          -5.145
INTER:                  -5.145
INTRA:                   0.000
UNBOUND:                 0.000

$$$$

     RDKit          3D

 84 92  0  0  0  0  0  0  0  0999 V2000
   33.0557    7.9779   29.1757 C   0  0  0  0  0  0  0  0  0  0  0  0
   32.4720    8.2611   30.4169 C   0  0  0  0  0  0  0  0  0  0  0  0
   33.2707    8.7169   31.4710 C   0  0  0  0  0  0  0  0  0  0  0  0
   34.6388    8.8834   31.2699 C   0  0  0  0  0  0  0  0  0  0  0  0
   35.2222    8.6029   30.0355 C   0  0  0  0  0  0  0  0  0  0  0  0
   34.4291    8.1472   28.9833 C   0  0  0  0  0  0  0  0  0  0  0  0
   26.2562   12.6172   27.5625 C   0  0  0  0  0  0  0  0  0  0  0  0
   26.3035   13.3592   26.3859 C   0  0  0  0  0  0  0  0  0  0  0  0
   26.9312   12.8566   25.2452 C   0  0  0  0  0  0  0  0  0  0  0  0
   27.5285   11.5961   25.2908 C   0  0  0  0  0  0  0  0  0  0  0  0
   27.4882   10.8448   26.4693 C   0  0  0  0  0  0  0  0  0  0  0  0
   26.8456   11.3482   27.6104 C   0  0  0  0  0  0  0  0  0  0  0  0
   29.1517    6.5638   31.0976 N   0  0  0  0  0  0  0  0  0  0  0  0
   30.4678    6.8931   30.9585 C   0  0  0  0  0  0  0  0  0  0  0  0
   31.3081    5.6780   31.2264 C   0  0  0  0  0  0  0  0  0  0  0  0
   30.3561    4.7669   31.9620 C   0  0  0  0  0  0  0  0  0  0  0  0
   28.9804    5.3065   31.6018 C   0  0  0  0  0  0  0  0  0  0  0  0
   28.7559    9.0918   29.8672 N   0  0  0  0  0  0  0  0  0  0  0  0
   28.1985   10.3059   29.5811 C   0  0  0  0  0  0  0  0  0  0  0  0
   29.0981   11.2821   29.9570 C   0  0  0  0  0  0  0  0  0  0  0  0
   30.2744   10.6292   30.4112 C   0  0  0  0  0  0  0  0  0  0  0  0
   30.0472    9.2782   30.2930 C   0  0  0  0  0  0  0  0  0  0  0  0
   25.4599    8.6225   29.9709 N   0  0  0  0  0  0  0  0  0  0  0  0
   24.1400    8.2582   30.0871 C   0  0  0  0  0  0  0  0  0  0  0  0
   23.3564    9.2793   29.6031 C   0  0  0  0  0  0  0  0  0  0  0  0
   24.2390   10.2886   29.1420 C   0  0  0  0  0  0  0  0  0  0  0  0
   25.5312    9.8415   29.3440 C   0  0  0  0  0  0  0  0  0  0  0  0
   25.9910    6.0758   31.0800 N   0  0  0  0  0  0  0  0  0  0  0  0
   26.5566    4.9381   31.6054 C   0  0  0  0  0  0  0  0  0  0  0  0
   25.4287    4.0632   31.9256 C   0  0  0  0  0  0  0  0  0  0  0  0
   24.2938    4.6796   31.6108 C   0  0  0  0  0  0  0  0  0  0  0  0
   24.6230    5.9764   31.0692 C   0  0  0  0  0  0  0  0  0  0  0  0
   27.8548    4.5550   31.8465 C   0  0  0  0  0  0  0  0  0  0  0  0
   31.0212    8.0831   30.6065 C   0  0  0  0  0  0  0  0  0  0  0  0
   26.8342   10.5652   28.8681 C   0  0  0  0  0  0  0  0  0  0  0  0
   23.6732    6.8591   30.6583 C   0  0  0  0  0  0  0  0  0  0  0  0
   28.0736    3.1986   32.4376 C   0  0  0  0  0  0  0  0  0  0  0  0
   28.1790    2.0775   31.6024 C   0  0  0  0  0  0  0  0  0  0  0  0
   28.3703    0.8155   32.1595 C   0  0  0  0  0  0  0  0  0  0  0  0
   28.4593    0.6462   33.5389 C   0  0  0  0  0  0  0  0  0  0  0  0
   28.3522    1.7577   34.3768 C   0  0  0  0  0  0  0  0  0  0  0  0
   28.1586    3.0292   33.8284 C   0  0  0  0  0  0  0  0  0  0  0  0
   22.2282    6.5650   30.7295 C   0  0  0  0  0  0  0  0  0  0  0  0
   21.5914    5.8867   29.6852 C   0  0  0  0  0  0  0  0  0  0  0  0
   20.2294    5.6226   29.7635 C   0  0  0  0  0  0  0  0  0  0  0  0
   19.4816    6.0369   30.8658 C   0  0  0  0  0  0  0  0  0  0  0  0
   20.1122    6.7147   31.9099 C   0  0  0  0  0  0  0  0  0  0  0  0
   21.4823    6.9744   31.8431 C   0  0  0  0  0  0  0  0  0  0  0  0
   19.6449    4.9504   28.7272 O   0  0  0  0  0  0  0  0  0  0  0  0
   28.4679   -0.2911   31.3610 O   0  0  0  0  0  0  0  0  0  0  0  0
   35.4454    9.3275   32.2810 O   0  0  0  0  0  0  0  0  0  0  0  0
   25.7179   14.5942   26.3814 O   0  0  0  0  0  0  0  0  0  0  0  0
   32.4233    7.6165   28.3681 H   0  0  0  0  0  0  0  0  0  0  0  0
   32.7990    8.9243   32.4268 H   0  0  0  0  0  0  0  0  0  0  0  0
   36.2900    8.7379   29.8974 H   0  0  0  0  0  0  0  0  0  0  0  0
   34.8679    7.9167   28.0176 H   0  0  0  0  0  0  0  0  0  0  0  0
   25.7808   13.0314   28.4498 H   0  0  0  0  0  0  0  0  0  0  0  0
   26.9698   13.4293   24.3241 H   0  0  0  0  0  0  0  0  0  0  0  0
   28.0262   11.1870   24.4128 H   0  0  0  0  0  0  0  0  0  0  0  0
   27.9597    9.8630   26.5065 H   0  0  0  0  0  0  0  0  0  0  0  0
   32.1964    5.8805   31.8315 H   0  0  0  0  0  0  0  0  0  0  0  0
   31.6234    5.2223   30.2793 H   0  0  0  0  0  0  0  0  0  0  0  0
   30.5301    3.7291   31.6614 H   0  0  0  0  0  0  0  0  0  0  0  0
   30.5171    4.8489   33.0455 H   0  0  0  0  0  0  0  0  0  0  0  0
   28.3336    8.1636   29.8326 H   0  0  0  0  0  0  0  0  0  0  0  0
   28.9401   12.3469   29.8767 H   0  0  0  0  0  0  0  0  0  0  0  0
   31.1866   11.0903   30.7555 H   0  0  0  0  0  0  0  0  0  0  0  0
   26.2072    7.9986   30.2841 H   0  0  0  0  0  0  0  0  0  0  0  0
   22.2776    9.2798   29.5603 H   0  0  0  0  0  0  0  0  0  0  0  0
   23.9527   11.2144   28.6652 H   0  0  0  0  0  0  0  0  0  0  0  0
   25.4869    3.0788   32.3552 H   0  0  0  0  0  0  0  0  0  0  0  0
   23.3085    4.2717   31.7418 H   0  0  0  0  0  0  0  0  0  0  0  0
   28.1061    2.2343   30.5308 H   0  0  0  0  0  0  0  0  0  0  0  0
   28.6038   -0.3461   33.9553 H   0  0  0  0  0  0  0  0  0  0  0  0
   28.4125    1.6425   35.4548 H   0  0  0  0  0  0  0  0  0  0  0  0
   28.0672    3.9082   34.4624 H   0  0  0  0  0  0  0  0  0  0  0  0
   22.1754    5.5611   28.8284 H   0  0  0  0  0  0  0  0  0  0  0  0
   18.4187    5.8384   30.9296 H   0  0  0  0  0  0  0  0  0  0  0  0
   19.5481    7.0328   32.7808 H   0  0  0  0  0  0  0  0  0  0  0  0
   21.9865    7.4965   32.6539 H   0  0  0  0  0  0  0  0  0  0  0  0
   18.7032    4.8472   28.9301 H   0  0  0  0  0  0  0  0  0  0  0  0
   28.3292    0.0251   30.4516 H   0  0  0  0  0  0  0  0  0  0  0  0
   34.8801    9.4264   33.0654 H   0  0  0  0  0  0  0  0  0  0  0  0
   25.8368   14.9768   25.4999 H   0  0  0  0  0  0  0  0  0  0  0  0
 25 26  2  0
 26 27  1  0
 27 23  1  0
 28 29  1  0
  1  2  2  0
  3  4  2  0
  7  8  2  0
 14 15  1  0
 29 30  1  0
 30 31  2  0
 31 32  1  0
 32 28  2  0
 15 16  1  0
 29 33  2  0
 17 33  1  0
 16 17  1  0
 14 34  2  0
 22 34  1  0
 17 13  2  0
 27 35  2  0
 19 35  1  0
 18 19  1  0
 24 36  2  0
 32 36  1  0
  8  9  1  0
  4  5  1  0
 37 38  2  0
  9 10  2  0
 38 39  1  0
  2  3  1  0
 39 40  2  0
 10 11  1  0
 40 41  1  0
 19 20  2  0
 41 42  2  0
 42 37  1  0
 33 37  1  0
 20 21  1  0
 21 22  2  0
 43 44  2  0
 22 18  1  0
 44 45  1  0
 23 24  1  0
 45 46  2  0
  5  6  2  0
 46 47  1  0
 11 12  2  0
 47 48  2  0
 48 43  1  0
 36 43  1  0
 12  7  1  0
 45 49  1  0
 13 14  1  0
 39 50  1  0
 35 12  1  0
 34  2  1  0
  6  1  1  0
  4 51  1  0
 24 25  1  0
  8 52  1  0
  1 53  1  0
  3 54  1  0
  5 55  1  0
  6 56  1  0
  7 57  1  0
  9 58  1  0
 10 59  1  0
 11 60  1  0
 15 61  1  0
 15 62  1  0
 16 63  1  0
 16 64  1  0
 18 65  1  0
 20 66  1  0
 21 67  1  0
 23 68  1  0
 25 69  1  0
 26 70  1  0
 30 71  1  0
 31 72  1  0
 38 73  1  0
 40 74  1  0
 41 75  1  0
 42 76  1  0
 44 77  1  0
 46 78  1  0
 47 79  1  0
 48 80  1  0
 49 81  1  0
 50 82  1  0
 51 83  1  0
 52 84  1  0
M  END
> <Uni-Dock RESULT> 
ENERGY=   -4.984  LOWER_BOUND=    2.824  UPPER_BOUND=    8.328
INTER + INTRA:          -4.984
INTER:                  -4.984
INTRA:                   0.000
UNBOUND:                 0.000

$$$$

     RDKit          3D

 84 92  0  0  0  0  0  0  0  0999 V2000
   22.9736    7.0347   30.1847 C   0  0  0  0  0  0  0  0  0  0  0  0
   23.6424    7.8828   31.0762 C   0  0  0  0  0  0  0  0  0  0  0  0
   23.0356    8.2342   32.2866 C   0  0  0  0  0  0  0  0  0  0  0  0
   21.7715    7.7334   32.5886 C   0  0  0  0  0  0  0  0  0  0  0  0
   21.1039    6.8887   31.7035 C   0  0  0  0  0  0  0  0  0  0  0  0
   21.7054    6.5376   30.4957 C   0  0  0  0  0  0  0  0  0  0  0  0
   30.7929    4.0662   30.8222 C   0  0  0  0  0  0  0  0  0  0  0  0
   30.9376    2.7040   30.5762 C   0  0  0  0  0  0  0  0  0  0  0  0
   30.1649    2.0636   29.6062 C   0  0  0  0  0  0  0  0  0  0  0  0
   29.2269    2.8001   28.8813 C   0  0  0  0  0  0  0  0  0  0  0  0
   29.0728    4.1685   29.1236 C   0  0  0  0  0  0  0  0  0  0  0  0
   29.8599    4.8112   30.0910 C   0  0  0  0  0  0  0  0  0  0  0  0
   26.3373   10.0716   29.5545 N   0  0  0  0  0  0  0  0  0  0  0  0
   25.1718    9.5219   30.0012 C   0  0  0  0  0  0  0  0  0  0  0  0
   24.0197   10.3517   29.5128 C   0  0  0  0  0  0  0  0  0  0  0  0
   24.6807   11.6548   29.1352 C   0  0  0  0  0  0  0  0  0  0  0  0
   26.1455   11.2851   28.9587 C   0  0  0  0  0  0  0  0  0  0  0  0
   27.4258    7.6020   30.4365 N   0  0  0  0  0  0  0  0  0  0  0  0
   28.3066    6.7089   30.9777 C   0  0  0  0  0  0  0  0  0  0  0  0
   27.7399    6.2025   32.1291 C   0  0  0  0  0  0  0  0  0  0  0  0
   26.4348    6.7506   32.2415 C   0  0  0  0  0  0  0  0  0  0  0  0
   26.2551    7.5699   31.1520 C   0  0  0  0  0  0  0  0  0  0  0  0
   30.4427    8.5681   29.4073 N   0  0  0  0  0  0  0  0  0  0  0  0
   31.6011    9.1238   28.9198 C   0  0  0  0  0  0  0  0  0  0  0  0
   32.6375    8.2472   29.1397 C   0  0  0  0  0  0  0  0  0  0  0  0
   32.0777    7.0983   29.7536 C   0  0  0  0  0  0  0  0  0  0  0  0
   30.7161    7.3055   29.8711 C   0  0  0  0  0  0  0  0  0  0  0  0
   29.2167   10.9351   28.4626 N   0  0  0  0  0  0  0  0  0  0  0  0
   28.3556   11.9562   28.1369 C   0  0  0  0  0  0  0  0  0  0  0  0
   29.1860   12.9576   27.4677 C   0  0  0  0  0  0  0  0  0  0  0  0
   30.4440   12.5295   27.4317 C   0  0  0  0  0  0  0  0  0  0  0  0
   30.4955   11.2346   28.0673 C   0  0  0  0  0  0  0  0  0  0  0  0
   27.0080   12.1506   28.3272 C   0  0  0  0  0  0  0  0  0  0  0  0
   24.9820    8.3970   30.7393 C   0  0  0  0  0  0  0  0  0  0  0  0
   29.6707    6.2539   30.3701 C   0  0  0  0  0  0  0  0  0  0  0  0
   31.6520   10.5310   28.1993 C   0  0  0  0  0  0  0  0  0  0  0  0
   26.4162   13.4229   27.8095 C   0  0  0  0  0  0  0  0  0  0  0  0
   25.9693   13.5006   26.4829 C   0  0  0  0  0  0  0  0  0  0  0  0
   25.4306   14.6918   26.0031 C   0  0  0  0  0  0  0  0  0  0  0  0
   25.3273   15.8136   26.8219 C   0  0  0  0  0  0  0  0  0  0  0  0
   25.7731   15.7444   28.1430 C   0  0  0  0  0  0  0  0  0  0  0  0
   26.3169   14.5538   28.6348 C   0  0  0  0  0  0  0  0  0  0  0  0
   32.9494   11.0304   27.7026 C   0  0  0  0  0  0  0  0  0  0  0  0
   33.3367   10.8002   26.3784 C   0  0  0  0  0  0  0  0  0  0  0  0
   34.5638   11.2708   25.9270 C   0  0  0  0  0  0  0  0  0  0  0  0
   35.4247   11.9605   26.7809 C   0  0  0  0  0  0  0  0  0  0  0  0
   35.0431   12.1920   28.1030 C   0  0  0  0  0  0  0  0  0  0  0  0
   33.8073   11.7313   28.5609 C   0  0  0  0  0  0  0  0  0  0  0  0
   34.9030   11.0334   24.6247 O   0  0  0  0  0  0  0  0  0  0  0  0
   24.9963   14.7890   24.7094 O   0  0  0  0  0  0  0  0  0  0  0  0
   21.1527    8.0590   33.7639 O   0  0  0  0  0  0  0  0  0  0  0  0
   31.8579    2.0124   31.3131 O   0  0  0  0  0  0  0  0  0  0  0  0
   23.4545    6.7769   29.2440 H   0  0  0  0  0  0  0  0  0  0  0  0
   23.5688    8.8981   32.9604 H   0  0  0  0  0  0  0  0  0  0  0  0
   20.1192    6.5087   31.9552 H   0  0  0  0  0  0  0  0  0  0  0  0
   21.1968    5.8870   29.7913 H   0  0  0  0  0  0  0  0  0  0  0  0
   31.3884    4.5470   31.5962 H   0  0  0  0  0  0  0  0  0  0  0  0
   30.2743    1.0022   29.4082 H   0  0  0  0  0  0  0  0  0  0  0  0
   28.6117    2.3191   28.1223 H   0  0  0  0  0  0  0  0  0  0  0  0
   28.3362    4.7423   28.5615 H   0  0  0  0  0  0  0  0  0  0  0  0
   23.2431   10.5148   30.2655 H   0  0  0  0  0  0  0  0  0  0  0  0
   23.5638    9.8816   28.6324 H   0  0  0  0  0  0  0  0  0  0  0  0
   24.2046   12.0656   28.2395 H   0  0  0  0  0  0  0  0  0  0  0  0
   24.5751   12.3817   29.9520 H   0  0  0  0  0  0  0  0  0  0  0  0
   27.5578    8.2472   29.6571 H   0  0  0  0  0  0  0  0  0  0  0  0
   28.1999    5.4874   32.7941 H   0  0  0  0  0  0  0  0  0  0  0  0
   25.7050    6.5489   33.0096 H   0  0  0  0  0  0  0  0  0  0  0  0
   29.5531    9.0689   29.3468 H   0  0  0  0  0  0  0  0  0  0  0  0
   33.6682    8.4073   28.8611 H   0  0  0  0  0  0  0  0  0  0  0  0
   32.6109    6.1995   30.0263 H   0  0  0  0  0  0  0  0  0  0  0  0
   28.8527   13.8993   27.0689 H   0  0  0  0  0  0  0  0  0  0  0  0
   31.2699   13.0646   27.0007 H   0  0  0  0  0  0  0  0  0  0  0  0
   26.0605   12.6136   25.8639 H   0  0  0  0  0  0  0  0  0  0  0  0
   24.9090   16.7352   26.4289 H   0  0  0  0  0  0  0  0  0  0  0  0
   25.7062   16.6116   28.7930 H   0  0  0  0  0  0  0  0  0  0  0  0
   26.6752   14.4790   29.6591 H   0  0  0  0  0  0  0  0  0  0  0  0
   32.6639   10.2660   25.7128 H   0  0  0  0  0  0  0  0  0  0  0  0
   36.3845   12.3250   26.4357 H   0  0  0  0  0  0  0  0  0  0  0  0
   35.6950   12.7380   28.7773 H   0  0  0  0  0  0  0  0  0  0  0  0
   33.4960   11.9112   29.5880 H   0  0  0  0  0  0  0  0  0  0  0  0
   35.7779   11.4188   24.4679 H   0  0  0  0  0  0  0  0  0  0  0  0
   25.2006   13.9324   24.2962 H   0  0  0  0  0  0  0  0  0  0  0  0
   21.7399    8.6813   34.2249 H   0  0  0  0  0  0  0  0  0  0  0  0
   31.8360    1.0881   31.0253 H   0  0  0  0  0  0  0  0  0  0  0  0
 25 26  2  0
 26 27  1  0
 27 23  1  0
 28 29  1  0
  1  2  2  0
  3  4  2  0
  7  8  2  0
 14 15  1  0
 29 30  1  0
 30 31  2  0
 31 32  1  0
 32 28  2  0
 15 16  1  0
 29 33  2  0
 17 33  1  0
 16 17  1  0
 14 34  2  0
 22 34  1  0
 17 13  2  0
 27 35  2  0
 19 35  1  0
 18 19  1  0
 24 36  2  0
 32 36  1  0
  8  9  1  0
  4  5  1  0
 37 38  2  0
  9 10  2  0
 38 39  1  0
  2  3  1  0
 39 40  2  0
 10 11  1  0
 40 41  1  0
 19 20  2  0
 41 42  2  0
 42 37  1  0
 33 37  1  0
 20 21  1  0
 21 22  2  0
 43 44  2  0
 22 18  1  0
 44 45  1  0
 23 24  1  0
 45 46  2  0
  5  6  2  0
 46 47  1  0
 11 12  2  0
 47 48  2  0
 48 43  1  0
 36 43  1  0
 12  7  1  0
 45 49  1  0
 13 14  1  0
 39 50  1  0
 35 12  1  0
 34  2  1  0
  6  1  1  0
  4 51  1  0
 24 25  1  0
  8 52  1  0
  1 53  1  0
  3 54  1  0
  5 55  1  0
  6 56  1  0
  7 57  1  0
  9 58  1  0
 10 59  1  0
 11 60  1  0
 15 61  1  0
 15 62  1  0
 16 63  1  0
 16 64  1  0
 18 65  1  0
 20 66  1  0
 21 67  1  0
 23 68  1  0
 25 69  1  0
 26 70  1  0
 30 71  1  0
 31 72  1  0
 38 73  1  0
 40 74  1  0
 41 75  1  0
 42 76  1  0
 44 77  1  0
 46 78  1  0
 47 79  1  0
 48 80  1  0
 49 81  1  0
 50 82  1  0
 51 83  1  0
 52 84  1  0
M  END
> <Uni-Dock RESULT> 
ENERGY=   -4.928  LOWER_BOUND=    3.186  UPPER_BOUND=    8.519
INTER + INTRA:          -4.928
INTER:                  -4.928
INTRA:                   0.000
UNBOUND:                 0.000

$$$$

     RDKit          3D

 84 92  0  0  0  0  0  0  0  0999 V2000
   27.1330   12.9058   28.9497 C   0  0  0  0  0  0  0  0  0  0  0  0
   26.8590   11.8477   28.0741 C   0  0  0  0  0  0  0  0  0  0  0  0
   26.5022   12.1187   26.7490 C   0  0  0  0  0  0  0  0  0  0  0  0
   26.4250   13.4410   26.3183 C   0  0  0  0  0  0  0  0  0  0  0  0
   26.6978   14.4959   27.1874 C   0  0  0  0  0  0  0  0  0  0  0  0
   27.0525   14.2293   28.5091 C   0  0  0  0  0  0  0  0  0  0  0  0
   33.3698    7.3825   29.9264 C   0  0  0  0  0  0  0  0  0  0  0  0
   34.5790    7.9164   30.3622 C   0  0  0  0  0  0  0  0  0  0  0  0
   34.6103    8.9742   31.2721 C   0  0  0  0  0  0  0  0  0  0  0  0
   33.4101    9.5095   31.7419 C   0  0  0  0  0  0  0  0  0  0  0  0
   32.1907    8.9813   31.3076 C   0  0  0  0  0  0  0  0  0  0  0  0
   32.1634    7.9098   30.4022 C   0  0  0  0  0  0  0  0  0  0  0  0
   25.8822    8.5710   29.7105 N   0  0  0  0  0  0  0  0  0  0  0  0
   25.9190    9.8181   29.1598 C   0  0  0  0  0  0  0  0  0  0  0  0
   24.5845   10.4787   29.3527 C   0  0  0  0  0  0  0  0  0  0  0  0
   23.6751    9.3146   29.6615 C   0  0  0  0  0  0  0  0  0  0  0  0
   24.6260    8.2158   30.1107 C   0  0  0  0  0  0  0  0  0  0  0  0
   28.6925    8.7069   29.3294 N   0  0  0  0  0  0  0  0  0  0  0  0
   29.9696    8.3102   29.0503 C   0  0  0  0  0  0  0  0  0  0  0  0
   30.3690    8.9547   27.8976 C   0  0  0  0  0  0  0  0  0  0  0  0
   29.3226    9.8342   27.5136 C   0  0  0  0  0  0  0  0  0  0  0  0
   28.3247    9.6935   28.4491 C   0  0  0  0  0  0  0  0  0  0  0  0
   29.0196    5.6836   30.6884 N   0  0  0  0  0  0  0  0  0  0  0  0
   28.9668    4.4431   31.2774 C   0  0  0  0  0  0  0  0  0  0  0  0
   30.2403    3.9277   31.3352 C   0  0  0  0  0  0  0  0  0  0  0  0
   31.1045    4.9114   30.7913 C   0  0  0  0  0  0  0  0  0  0  0  0
   30.3311    6.0007   30.4366 C   0  0  0  0  0  0  0  0  0  0  0  0
   26.2253    5.7219   31.1224 N   0  0  0  0  0  0  0  0  0  0  0  0
   24.8850    6.0236   31.1774 C   0  0  0  0  0  0  0  0  0  0  0  0
   24.2616    4.8760   31.8366 C   0  0  0  0  0  0  0  0  0  0  0  0
   25.1962    3.9752   32.1231 C   0  0  0  0  0  0  0  0  0  0  0  0
   26.4675    4.4888   31.6722 C   0  0  0  0  0  0  0  0  0  0  0  0
   24.1426    7.1010   30.7552 C   0  0  0  0  0  0  0  0  0  0  0  0
   26.9520   10.4555   28.5492 C   0  0  0  0  0  0  0  0  0  0  0  0
   30.8700    7.3745   29.9168 C   0  0  0  0  0  0  0  0  0  0  0  0
   27.6279    3.7935   31.8132 C   0  0  0  0  0  0  0  0  0  0  0  0
   22.6691    7.0633   31.0087 C   0  0  0  0  0  0  0  0  0  0  0  0
   22.1545    7.5253   32.2283 C   0  0  0  0  0  0  0  0  0  0  0  0
   20.7827    7.4761   32.4632 C   0  0  0  0  0  0  0  0  0  0  0  0
   19.9080    6.9732   31.5032 C   0  0  0  0  0  0  0  0  0  0  0  0
   20.4137    6.5086   30.2878 C   0  0  0  0  0  0  0  0  0  0  0  0
   21.7894    6.5521   30.0418 C   0  0  0  0  0  0  0  0  0  0  0  0
   27.6853    2.4580   32.4401 C   0  0  0  0  0  0  0  0  0  0  0  0
   27.8162    2.3319   33.8269 C   0  0  0  0  0  0  0  0  0  0  0  0
   27.8753    1.0683   34.4020 C   0  0  0  0  0  0  0  0  0  0  0  0
   27.8193   -0.0810   33.6134 C   0  0  0  0  0  0  0  0  0  0  0  0
   27.6895    0.0396   32.2293 C   0  0  0  0  0  0  0  0  0  0  0  0
   27.6190    1.3057   31.6452 C   0  0  0  0  0  0  0  0  0  0  0  0
   27.9949    0.9860   35.7608 O   0  0  0  0  0  0  0  0  0  0  0  0
   20.2628    7.9153   33.6500 O   0  0  0  0  0  0  0  0  0  0  0  0
   26.0789   13.7375   25.0289 O   0  0  0  0  0  0  0  0  0  0  0  0
   35.7343    7.3745   29.8720 O   0  0  0  0  0  0  0  0  0  0  0  0
   27.4012   12.6798   29.9791 H   0  0  0  0  0  0  0  0  0  0  0  0
   26.2876   11.2838   26.0887 H   0  0  0  0  0  0  0  0  0  0  0  0
   26.6320   15.5200   26.8344 H   0  0  0  0  0  0  0  0  0  0  0  0
   27.2609   15.0387   29.2015 H   0  0  0  0  0  0  0  0  0  0  0  0
   33.3618    6.5710   29.2008 H   0  0  0  0  0  0  0  0  0  0  0  0
   35.5498    9.3937   31.6173 H   0  0  0  0  0  0  0  0  0  0  0  0
   33.4124   10.3371   32.4498 H   0  0  0  0  0  0  0  0  0  0  0  0
   31.2535    9.4033   31.6701 H   0  0  0  0  0  0  0  0  0  0  0  0
   24.2310   11.0241   28.4731 H   0  0  0  0  0  0  0  0  0  0  0  0
   24.6266   11.1710   30.2030 H   0  0  0  0  0  0  0  0  0  0  0  0
   22.9361    9.6110   30.4123 H   0  0  0  0  0  0  0  0  0  0  0  0
   23.1437    8.9998   28.7530 H   0  0  0  0  0  0  0  0  0  0  0  0
   28.0446    8.3494   30.0320 H   0  0  0  0  0  0  0  0  0  0  0  0
   31.3238    8.8340   27.4087 H   0  0  0  0  0  0  0  0  0  0  0  0
   29.3114   10.5091   26.6723 H   0  0  0  0  0  0  0  0  0  0  0  0
   28.1699    6.2342   30.5449 H   0  0  0  0  0  0  0  0  0  0  0  0
   30.5140    2.9690   31.7494 H   0  0  0  0  0  0  0  0  0  0  0  0
   32.1801    4.8444   30.7213 H   0  0  0  0  0  0  0  0  0  0  0  0
   23.2153    4.7573   32.0559 H   0  0  0  0  0  0  0  0  0  0  0  0
   25.0219    3.0320   32.6071 H   0  0  0  0  0  0  0  0  0  0  0  0
   22.8557    7.9122   32.9609 H   0  0  0  0  0  0  0  0  0  0  0  0
   18.8419    6.9383   31.7061 H   0  0  0  0  0  0  0  0  0  0  0  0
   19.7464    6.1071   29.5311 H   0  0  0  0  0  0  0  0  0  0  0  0
   22.2057    6.1907   29.1041 H   0  0  0  0  0  0  0  0  0  0  0  0
   27.8561    3.2278   34.4409 H   0  0  0  0  0  0  0  0  0  0  0  0
   27.8703   -1.0683   34.0560 H   0  0  0  0  0  0  0  0  0  0  0  0
   27.6314   -0.8441   31.6020 H   0  0  0  0  0  0  0  0  0  0  0  0
   27.5113    1.4126   30.5677 H   0  0  0  0  0  0  0  0  0  0  0  0
   28.0241    0.0485   36.0028 H   0  0  0  0  0  0  0  0  0  0  0  0
   21.0265    8.1720   34.1951 H   0  0  0  0  0  0  0  0  0  0  0  0
   25.8856   12.8917   24.5908 H   0  0  0  0  0  0  0  0  0  0  0  0
   36.4782    7.8520   30.2673 H   0  0  0  0  0  0  0  0  0  0  0  0
 25 26  2  0
 26 27  1  0
 27 23  1  0
 28 29  1  0
  1  2  2  0
  3  4  2  0
  7  8  2  0
 14 15  1  0
 29 30  1  0
 30 31  2  0
 31 32  1  0
 32 28  2  0
 15 16  1  0
 29 33  2  0
 17 33  1  0
 16 17  1  0
 14 34  2  0
 22 34  1  0
 17 13  2  0
 27 35  2  0
 19 35  1  0
 18 19  1  0
 24 36  2  0
 32 36  1  0
  8  9  1  0
  4  5  1  0
 37 38  2  0
  9 10  2  0
 38 39  1  0
  2  3  1  0
 39 40  2  0
 10 11  1  0
 40 41  1  0
 19 20  2  0
 41 42  2  0
 42 37  1  0
 33 37  1  0
 20 21  1  0
 21 22  2  0
 43 44  2  0
 22 18  1  0
 44 45  1  0
 23 24  1  0
 45 46  2  0
  5  6  2  0
 46 47  1  0
 11 12  2  0
 47 48  2  0
 48 43  1  0
 36 43  1  0
 12  7  1  0
 45 49  1  0
 13 14  1  0
 39 50  1  0
 35 12  1  0
 34  2  1  0
  6  1  1  0
  4 51  1  0
 24 25  1  0
  8 52  1  0
  1 53  1  0
  3 54  1  0
  5 55  1  0
  6 56  1  0
  7 57  1  0
  9 58  1  0
 10 59  1  0
 11 60  1  0
 15 61  1  0
 15 62  1  0
 16 63  1  0
 16 64  1  0
 18 65  1  0
 20 66  1  0
 21 67  1  0
 23 68  1  0
 25 69  1  0
 26 70  1  0
 30 71  1  0
 31 72  1  0
 38 73  1  0
 40 74  1  0
 41 75  1  0
 42 76  1  0
 44 77  1  0
 46 78  1  0
 47 79  1  0
 48 80  1  0
 49 81  1  0
 50 82  1  0
 51 83  1  0
 52 84  1  0
M  END
> <Uni-Dock RESULT> 
ENERGY=   -4.909  LOWER_BOUND=    2.717  UPPER_BOUND=   10.277
INTER + INTRA:          -4.909
INTER:                  -4.909
INTRA:                   0.000
UNBOUND:                 0.000

$$$$

     RDKit          3D

 84 92  0  0  0  0  0  0  0  0999 V2000
   32.4700    8.7368   30.0308 C   0  0  0  0  0  0  0  0  0  0  0  0
   31.6502    8.4287   28.9380 C   0  0  0  0  0  0  0  0  0  0  0  0
   32.1598    8.5278   27.6390 C   0  0  0  0  0  0  0  0  0  0  0  0
   33.4793    8.9321   27.4511 C   0  0  0  0  0  0  0  0  0  0  0  0
   34.2976    9.2387   28.5369 C   0  0  0  0  0  0  0  0  0  0  0  0
   33.7924    9.1422   29.8327 C   0  0  0  0  0  0  0  0  0  0  0  0
   28.7469    1.4505   31.8765 C   0  0  0  0  0  0  0  0  0  0  0  0
   29.4463    0.6265   32.7534 C   0  0  0  0  0  0  0  0  0  0  0  0
   30.1923    1.1644   33.8032 C   0  0  0  0  0  0  0  0  0  0  0  0
   30.2446    2.5494   33.9673 C   0  0  0  0  0  0  0  0  0  0  0  0
   29.5473    3.3850   33.0896 C   0  0  0  0  0  0  0  0  0  0  0  0
   28.7886    2.8400   32.0428 C   0  0  0  0  0  0  0  0  0  0  0  0
   27.9187    8.6295   29.5741 N   0  0  0  0  0  0  0  0  0  0  0  0
   29.2308    8.8762   29.2957 C   0  0  0  0  0  0  0  0  0  0  0  0
   29.4374   10.3591   29.1823 C   0  0  0  0  0  0  0  0  0  0  0  0
   28.0352   10.8789   28.9798 C   0  0  0  0  0  0  0  0  0  0  0  0
   27.1497    9.7549   29.4955 C   0  0  0  0  0  0  0  0  0  0  0  0
   28.8920    6.0169   30.1115 N   0  0  0  0  0  0  0  0  0  0  0  0
   28.9377    4.6530   30.1743 C   0  0  0  0  0  0  0  0  0  0  0  0
   29.9480    4.2259   29.3374 C   0  0  0  0  0  0  0  0  0  0  0  0
   30.5877    5.3803   28.8136 C   0  0  0  0  0  0  0  0  0  0  0  0
   29.9431    6.4684   29.3534 C   0  0  0  0  0  0  0  0  0  0  0  0
   25.8152    5.0443   30.9373 N   0  0  0  0  0  0  0  0  0  0  0  0
   24.4949    4.8235   31.2476 C   0  0  0  0  0  0  0  0  0  0  0  0
   24.3398    3.5041   31.6025 C   0  0  0  0  0  0  0  0  0  0  0  0
   25.6256    2.9099   31.5389 C   0  0  0  0  0  0  0  0  0  0  0  0
   26.5243    3.8912   31.1647 C   0  0  0  0  0  0  0  0  0  0  0  0
   24.9936    7.7124   30.4856 N   0  0  0  0  0  0  0  0  0  0  0  0
   24.9029    9.0491   30.1770 C   0  0  0  0  0  0  0  0  0  0  0  0
   23.4984    9.3969   30.3932 C   0  0  0  0  0  0  0  0  0  0  0  0
   22.8354    8.3144   30.7875 C   0  0  0  0  0  0  0  0  0  0  0  0
   23.7688    7.2154   30.8519 C   0  0  0  0  0  0  0  0  0  0  0  0
   25.8167    9.9821   29.7472 C   0  0  0  0  0  0  0  0  0  0  0  0
   30.2583    7.9975   29.1597 C   0  0  0  0  0  0  0  0  0  0  0  0
   28.0787    3.7286   31.0933 C   0  0  0  0  0  0  0  0  0  0  0  0
   23.3948    5.9596   31.2171 C   0  0  0  0  0  0  0  0  0  0  0  0
   25.3231   11.3758   29.5215 C   0  0  0  0  0  0  0  0  0  0  0  0
   25.2897   12.2894   30.5845 C   0  0  0  0  0  0  0  0  0  0  0  0
   24.8175   13.5820   30.3709 C   0  0  0  0  0  0  0  0  0  0  0  0
   24.3752   13.9857   29.1136 C   0  0  0  0  0  0  0  0  0  0  0  0
   24.4029   13.0803   28.0512 C   0  0  0  0  0  0  0  0  0  0  0  0
   24.8737   11.7796   28.2546 C   0  0  0  0  0  0  0  0  0  0  0  0
   22.0056    5.6159   31.5798 C   0  0  0  0  0  0  0  0  0  0  0  0
   21.5539    5.7857   32.8926 C   0  0  0  0  0  0  0  0  0  0  0  0
   20.2455    5.4518   33.2204 C   0  0  0  0  0  0  0  0  0  0  0  0
   19.3758    4.9352   32.2598 C   0  0  0  0  0  0  0  0  0  0  0  0
   19.8221    4.7632   30.9489 C   0  0  0  0  0  0  0  0  0  0  0  0
   21.1321    5.1063   30.6096 C   0  0  0  0  0  0  0  0  0  0  0  0
   19.8389    5.6397   34.5114 O   0  0  0  0  0  0  0  0  0  0  0  0
   24.7702   14.4851   31.3975 O   0  0  0  0  0  0  0  0  0  0  0  0
   34.0059    9.0383   26.1934 O   0  0  0  0  0  0  0  0  0  0  0  0
   29.3814   -0.7244   32.5553 O   0  0  0  0  0  0  0  0  0  0  0  0
   32.0574    8.6631   31.0343 H   0  0  0  0  0  0  0  0  0  0  0  0
   31.5052    8.2906   26.8058 H   0  0  0  0  0  0  0  0  0  0  0  0
   35.3231    9.5527   28.3713 H   0  0  0  0  0  0  0  0  0  0  0  0
   34.4132    9.3844   30.6895 H   0  0  0  0  0  0  0  0  0  0  0  0
   28.1862    1.0168   31.0504 H   0  0  0  0  0  0  0  0  0  0  0  0
   30.7382    0.5273   34.4916 H   0  0  0  0  0  0  0  0  0  0  0  0
   30.8234    2.9895   34.7780 H   0  0  0  0  0  0  0  0  0  0  0  0
   29.5930    4.4667   33.2144 H   0  0  0  0  0  0  0  0  0  0  0  0
   30.0834   10.6520   28.3497 H   0  0  0  0  0  0  0  0  0  0  0  0
   29.8635   10.7521   30.1139 H   0  0  0  0  0  0  0  0  0  0  0  0
   27.9137   11.8309   29.5059 H   0  0  0  0  0  0  0  0  0  0  0  0
   27.8446   11.0434   27.9106 H   0  0  0  0  0  0  0  0  0  0  0  0
   28.2016    6.6582   30.5029 H   0  0  0  0  0  0  0  0  0  0  0  0
   30.2198    3.1974   29.1542 H   0  0  0  0  0  0  0  0  0  0  0  0
   31.4342    5.4125   28.1460 H   0  0  0  0  0  0  0  0  0  0  0  0
   26.1382    5.9679   30.6398 H   0  0  0  0  0  0  0  0  0  0  0  0
   23.4137    3.0365   31.9014 H   0  0  0  0  0  0  0  0  0  0  0  0
   25.8675    1.8887   31.7941 H   0  0  0  0  0  0  0  0  0  0  0  0
   23.0523   10.3656   30.2531 H   0  0  0  0  0  0  0  0  0  0  0  0
   21.7861    8.2776   31.0157 H   0  0  0  0  0  0  0  0  0  0  0  0
   25.6389   11.9517   31.5551 H   0  0  0  0  0  0  0  0  0  0  0  0
   24.0059   14.9961   28.9671 H   0  0  0  0  0  0  0  0  0  0  0  0
   24.0554   13.3765   27.0660 H   0  0  0  0  0  0  0  0  0  0  0  0
   24.8992   11.0563   27.4427 H   0  0  0  0  0  0  0  0  0  0  0  0
   22.2309    6.1916   33.6396 H   0  0  0  0  0  0  0  0  0  0  0  0
   18.3566    4.6683   32.5110 H   0  0  0  0  0  0  0  0  0  0  0  0
   19.1550    4.3748   30.1860 H   0  0  0  0  0  0  0  0  0  0  0  0
   21.4897    4.9827   29.5893 H   0  0  0  0  0  0  0  0  0  0  0  0
   18.9133    5.3613   34.5777 H   0  0  0  0  0  0  0  0  0  0  0  0
   25.0654   14.0026   32.1889 H   0  0  0  0  0  0  0  0  0  0  0  0
   33.2877    8.8310   25.5722 H   0  0  0  0  0  0  0  0  0  0  0  0
   29.9158   -1.1518   33.2404 H   0  0  0  0  0  0  0  0  0  0  0  0
 25 26  2  0
 26 27  1  0
 27 23  1  0
 28 29  1  0
  1  2  2  0
  3  4  2  0
  7  8  2  0
 14 15  1  0
 29 30  1  0
 30 31  2  0
 31 32  1  0
 32 28  2  0
 15 16  1  0
 29 33  2  0
 17 33  1  0
 16 17  1  0
 14 34  2  0
 22 34  1  0
 17 13  2  0
 27 35  2  0
 19 35  1  0
 18 19  1  0
 24 36  2  0
 32 36  1  0
  8  9  1  0
  4  5  1  0
 37 38  2  0
  9 10  2  0
 38 39  1  0
  2  3  1  0
 39 40  2  0
 10 11  1  0
 40 41  1  0
 19 20  2  0
 41 42  2  0
 42 37  1  0
 33 37  1  0
 20 21  1  0
 21 22  2  0
 43 44  2  0
 22 18  1  0
 44 45  1  0
 23 24  1  0
 45 46  2  0
  5  6  2  0
 46 47  1  0
 11 12  2  0
 47 48  2  0
 48 43  1  0
 36 43  1  0
 12  7  1  0
 45 49  1  0
 13 14  1  0
 39 50  1  0
 35 12  1  0
 34  2  1  0
  6  1  1  0
  4 51  1  0
 24 25  1  0
  8 52  1  0
  1 53  1  0
  3 54  1  0
  5 55  1  0
  6 56  1  0
  7 57  1  0
  9 58  1  0
 10 59  1  0
 11 60  1  0
 15 61  1  0
 15 62  1  0
 16 63  1  0
 16 64  1  0
 18 65  1  0
 20 66  1  0
 21 67  1  0
 23 68  1  0
 25 69  1  0
 26 70  1  0
 30 71  1  0
 31 72  1  0
 38 73  1  0
 40 74  1  0
 41 75  1  0
 42 76  1  0
 44 77  1  0
 46 78  1  0
 47 79  1  0
 48 80  1  0
 49 81  1  0
 50 82  1  0
 51 83  1  0
 52 84  1  0
M  END
> <Uni-Dock RESULT> 
ENERGY=   -4.890  LOWER_BOUND=    2.588  UPPER_BOUND=   10.414
INTER + INTRA:          -4.890
INTER:                  -4.890
INTRA:                   0.000
UNBOUND:                 0.000

$$$$

     RDKit          3D

 84 92  0  0  0  0  0  0  0  0999 V2000
   29.3712    2.1984   30.3256 C   0  0  0  0  0  0  0  0  0  0  0  0
   29.0448    2.9019   31.4918 C   0  0  0  0  0  0  0  0  0  0  0  0
   29.2403    2.3029   32.7407 C   0  0  0  0  0  0  0  0  0  0  0  0
   29.7590    1.0119   32.8063 C   0  0  0  0  0  0  0  0  0  0  0  0
   30.0853    0.3099   31.6473 C   0  0  0  0  0  0  0  0  0  0  0  0
   29.8904    0.9035   30.4010 C   0  0  0  0  0  0  0  0  0  0  0  0
   32.7009    9.8480   29.4562 C   0  0  0  0  0  0  0  0  0  0  0  0
   33.8156    9.9245   28.6263 C   0  0  0  0  0  0  0  0  0  0  0  0
   33.9162    9.1288   27.4841 C   0  0  0  0  0  0  0  0  0  0  0  0
   32.8875    8.2367   27.1779 C   0  0  0  0  0  0  0  0  0  0  0  0
   31.7652    8.1511   28.0072 C   0  0  0  0  0  0  0  0  0  0  0  0
   31.6621    8.9615   29.1480 C   0  0  0  0  0  0  0  0  0  0  0  0
   26.5454    5.7199   31.0664 N   0  0  0  0  0  0  0  0  0  0  0  0
   27.1773    4.5236   31.2381 C   0  0  0  0  0  0  0  0  0  0  0  0
   26.1600    3.4203   31.1882 C   0  0  0  0  0  0  0  0  0  0  0  0
   24.8605    4.1511   31.4218 C   0  0  0  0  0  0  0  0  0  0  0  0
   25.1856    5.5964   31.0772 C   0  0  0  0  0  0  0  0  0  0  0  0
   29.2003    6.6715   30.7380 N   0  0  0  0  0  0  0  0  0  0  0  0
   30.2840    7.5001   30.8109 C   0  0  0  0  0  0  0  0  0  0  0  0
   31.2218    6.8974   31.6238 C   0  0  0  0  0  0  0  0  0  0  0  0
   30.7166    5.6214   31.9883 C   0  0  0  0  0  0  0  0  0  0  0  0
   29.4894    5.4941   31.3813 C   0  0  0  0  0  0  0  0  0  0  0  0
   28.0294    9.7435   30.2032 N   0  0  0  0  0  0  0  0  0  0  0  0
   27.3735   10.9334   29.9976 C   0  0  0  0  0  0  0  0  0  0  0  0
   28.3070   11.9212   29.7881 C   0  0  0  0  0  0  0  0  0  0  0  0
   29.5794   11.2973   29.8333 C   0  0  0  0  0  0  0  0  0  0  0  0
   29.3783    9.9472   30.0510 C   0  0  0  0  0  0  0  0  0  0  0  0
   25.4314    8.6499   30.4317 N   0  0  0  0  0  0  0  0  0  0  0  0
   24.3303    7.8456   30.6084 C   0  0  0  0  0  0  0  0  0  0  0  0
   23.1787    8.7327   30.4438 C   0  0  0  0  0  0  0  0  0  0  0  0
   23.6084    9.9672   30.2021 C   0  0  0  0  0  0  0  0  0  0  0  0
   25.0515    9.9460   30.1926 C   0  0  0  0  0  0  0  0  0  0  0  0
   24.1739    6.5081   30.8853 C   0  0  0  0  0  0  0  0  0  0  0  0
   28.5022    4.2693   31.3998 C   0  0  0  0  0  0  0  0  0  0  0  0
   30.4881    8.8444   30.0440 C   0  0  0  0  0  0  0  0  0  0  0  0
   25.7973   11.0634   29.9797 C   0  0  0  0  0  0  0  0  0  0  0  0
   22.7763    5.9875   30.9983 C   0  0  0  0  0  0  0  0  0  0  0  0
   22.0925    5.5574   29.8524 C   0  0  0  0  0  0  0  0  0  0  0  0
   20.7870    5.0853   29.9623 C   0  0  0  0  0  0  0  0  0  0  0  0
   20.1448    5.0325   31.1969 C   0  0  0  0  0  0  0  0  0  0  0  0
   20.8185    5.4620   32.3418 C   0  0  0  0  0  0  0  0  0  0  0  0
   22.1290    5.9391   32.2428 C   0  0  0  0  0  0  0  0  0  0  0  0
   25.1946   12.3894   29.7387 C   0  0  0  0  0  0  0  0  0  0  0  0
   24.8289   12.7764   28.4454 C   0  0  0  0  0  0  0  0  0  0  0  0
   24.2686   14.0302   28.2331 C   0  0  0  0  0  0  0  0  0  0  0  0
   24.0766   14.9177   29.2921 C   0  0  0  0  0  0  0  0  0  0  0  0
   24.4405   14.5364   30.5842 C   0  0  0  0  0  0  0  0  0  0  0  0
   24.9944   13.2744   30.8068 C   0  0  0  0  0  0  0  0  0  0  0  0
   23.9168   14.3687   26.9568 O   0  0  0  0  0  0  0  0  0  0  0  0
   20.1012    4.6684   28.8544 O   0  0  0  0  0  0  0  0  0  0  0  0
   29.9614    0.4000   34.0124 O   0  0  0  0  0  0  0  0  0  0  0  0
   34.8086   10.8012   28.9637 O   0  0  0  0  0  0  0  0  0  0  0  0
   29.2060    2.6740   29.3616 H   0  0  0  0  0  0  0  0  0  0  0  0
   28.9745    2.8634   33.6318 H   0  0  0  0  0  0  0  0  0  0  0  0
   30.4877   -0.6955   31.7177 H   0  0  0  0  0  0  0  0  0  0  0  0
   30.1318    0.3685   29.4880 H   0  0  0  0  0  0  0  0  0  0  0  0
   32.6466   10.4605   30.3545 H   0  0  0  0  0  0  0  0  0  0  0  0
   34.7818    9.1851   26.8319 H   0  0  0  0  0  0  0  0  0  0  0  0
   32.9478    7.6046   26.2931 H   0  0  0  0  0  0  0  0  0  0  0  0
   30.9647    7.4503   27.7711 H   0  0  0  0  0  0  0  0  0  0  0  0
   26.3112    2.6463   31.9461 H   0  0  0  0  0  0  0  0  0  0  0  0
   26.1644    2.9488   30.1975 H   0  0  0  0  0  0  0  0  0  0  0  0
   24.0698    3.7050   30.8105 H   0  0  0  0  0  0  0  0  0  0  0  0
   24.5700    4.0757   32.4785 H   0  0  0  0  0  0  0  0  0  0  0  0
   28.2826    6.8437   30.3263 H   0  0  0  0  0  0  0  0  0  0  0  0
   32.1805    7.3139   31.8932 H   0  0  0  0  0  0  0  0  0  0  0  0
   31.2029    4.8751   32.5965 H   0  0  0  0  0  0  0  0  0  0  0  0
   27.5102    8.8815   30.3856 H   0  0  0  0  0  0  0  0  0  0  0  0
   28.0915   12.9613   29.5949 H   0  0  0  0  0  0  0  0  0  0  0  0
   30.5310   11.7808   29.6686 H   0  0  0  0  0  0  0  0  0  0  0  0
   22.1426    8.4521   30.5120 H   0  0  0  0  0  0  0  0  0  0  0  0
   22.9794   10.8236   30.0429 H   0  0  0  0  0  0  0  0  0  0  0  0
   22.6135    5.6085   28.9015 H   0  0  0  0  0  0  0  0  0  0  0  0
   19.1249    4.6658   31.2625 H   0  0  0  0  0  0  0  0  0  0  0  0
   20.3302    5.4339   33.3112 H   0  0  0  0  0  0  0  0  0  0  0  0
   22.6709    6.2837   33.1207 H   0  0  0  0  0  0  0  0  0  0  0  0
   24.9755   12.0831   27.6214 H   0  0  0  0  0  0  0  0  0  0  0  0
   23.6452   15.8981   29.1315 H   0  0  0  0  0  0  0  0  0  0  0  0
   24.2862   15.2094   31.4215 H   0  0  0  0  0  0  0  0  0  0  0  0
   25.2763   12.9633   31.8107 H   0  0  0  0  0  0  0  0  0  0  0  0
   23.5464   15.2637   26.9754 H   0  0  0  0  0  0  0  0  0  0  0  0
   20.6924    4.8321   28.0995 H   0  0  0  0  0  0  0  0  0  0  0  0
   29.6405    1.0143   34.6939 H   0  0  0  0  0  0  0  0  0  0  0  0
   35.5050   10.7342   28.2942 H   0  0  0  0  0  0  0  0  0  0  0  0
 25 26  2  0
 26 27  1  0
 27 23  1  0
 28 29  1  0
  1  2  2  0
  3  4  2  0
  7  8  2  0
 14 15  1  0
 29 30  1  0
 30 31  2  0
 31 32  1  0
 32 28  2  0
 15 16  1  0
 29 33  2  0
 17 33  1  0
 16 17  1  0
 14 34  2  0
 22 34  1  0
 17 13  2  0
 27 35  2  0
 19 35  1  0
 18 19  1  0
 24 36  2  0
 32 36  1  0
  8  9  1  0
  4  5  1  0
 37 38  2  0
  9 10  2  0
 38 39  1  0
  2  3  1  0
 39 40  2  0
 10 11  1  0
 40 41  1  0
 19 20  2  0
 41 42  2  0
 42 37  1  0
 33 37  1  0
 20 21  1  0
 21 22  2  0
 43 44  2  0
 22 18  1  0
 44 45  1  0
 23 24  1  0
 45 46  2  0
  5  6  2  0
 46 47  1  0
 11 12  2  0
 47 48  2  0
 48 43  1  0
 36 43  1  0
 12  7  1  0
 45 49  1  0
 13 14  1  0
 39 50  1  0
 35 12  1  0
 34  2  1  0
  6  1  1  0
  4 51  1  0
 24 25  1  0
  8 52  1  0
  1 53  1  0
  3 54  1  0
  5 55  1  0
  6 56  1  0
  7 57  1  0
  9 58  1  0
 10 59  1  0
 11 60  1  0
 15 61  1  0
 15 62  1  0
 16 63  1  0
 16 64  1  0
 18 65  1  0
 20 66  1  0
 21 67  1  0
 23 68  1  0
 25 69  1  0
 26 70  1  0
 30 71  1  0
 31 72  1  0
 38 73  1  0
 40 74  1  0
 41 75  1  0
 42 76  1  0
 44 77  1  0
 46 78  1  0
 47 79  1  0
 48 80  1  0
 49 81  1  0
 50 82  1  0
 51 83  1  0
 52 84  1  0
M  END
> <Uni-Dock RESULT> 
ENERGY=   -4.872  LOWER_BOUND=    2.540  UPPER_BOUND=    7.973
INTER + INTRA:          -4.872
INTER:                  -4.872
INTRA:                   0.000
UNBOUND:                 0.000

$$$$

     RDKit          3D

 84 92  0  0  0  0  0  0  0  0999 V2000
   31.4284   11.2577   28.8181 C   0  0  0  0  0  0  0  0  0  0  0  0
   30.5530   10.6786   27.8908 C   0  0  0  0  0  0  0  0  0  0  0  0
   30.6661   11.0020   26.5346 C   0  0  0  0  0  0  0  0  0  0  0  0
   31.6511   11.8975   26.1249 C   0  0  0  0  0  0  0  0  0  0  0  0
   32.5240   12.4748   27.0455 C   0  0  0  0  0  0  0  0  0  0  0  0
   32.4131   12.1556   28.3981 C   0  0  0  0  0  0  0  0  0  0  0  0
   31.2782    3.0513   30.5475 C   0  0  0  0  0  0  0  0  0  0  0  0
   32.4221    2.5479   31.1601 C   0  0  0  0  0  0  0  0  0  0  0  0
   33.1345    3.3102   32.0871 C   0  0  0  0  0  0  0  0  0  0  0  0
   32.6973    4.5995   32.3945 C   0  0  0  0  0  0  0  0  0  0  0  0
   31.5508    5.1144   31.7820 C   0  0  0  0  0  0  0  0  0  0  0  0
   30.8303    4.3405   30.8597 C   0  0  0  0  0  0  0  0  0  0  0  0
   27.2851    9.3787   29.3051 N   0  0  0  0  0  0  0  0  0  0  0  0
   28.3016   10.1287   28.7910 C   0  0  0  0  0  0  0  0  0  0  0  0
   27.9003   11.5755   28.8079 C   0  0  0  0  0  0  0  0  0  0  0  0
   26.4006   11.5061   28.9614 C   0  0  0  0  0  0  0  0  0  0  0  0
   26.1531   10.1121   29.5171 C   0  0  0  0  0  0  0  0  0  0  0  0
   29.2692    7.3478   29.3260 N   0  0  0  0  0  0  0  0  0  0  0  0
   29.8397    6.1109   29.2212 C   0  0  0  0  0  0  0  0  0  0  0  0
   30.7086    6.1366   28.1498 C   0  0  0  0  0  0  0  0  0  0  0  0
   30.7225    7.4621   27.6408 C   0  0  0  0  0  0  0  0  0  0  0  0
   29.8618    8.1950   28.4235 C   0  0  0  0  0  0  0  0  0  0  0  0
   27.0752    5.2228   30.6544 N   0  0  0  0  0  0  0  0  0  0  0  0
   26.0491    4.4926   31.2041 C   0  0  0  0  0  0  0  0  0  0  0  0
   26.4917    3.2103   31.4298 C   0  0  0  0  0  0  0  0  0  0  0  0
   27.8525    3.1720   31.0335 C   0  0  0  0  0  0  0  0  0  0  0  0
   28.1989    4.4366   30.5962 C   0  0  0  0  0  0  0  0  0  0  0  0
   25.2261    7.3622   30.6916 N   0  0  0  0  0  0  0  0  0  0  0  0
   24.5677    8.5624   30.5637 C   0  0  0  0  0  0  0  0  0  0  0  0
   23.2295    8.3239   31.1046 C   0  0  0  0  0  0  0  0  0  0  0  0
   23.1371    7.0584   31.5011 C   0  0  0  0  0  0  0  0  0  0  0  0
   24.4030    6.4144   31.2443 C   0  0  0  0  0  0  0  0  0  0  0  0
   24.9328    9.7900   30.0638 C   0  0  0  0  0  0  0  0  0  0  0  0
   29.5213    9.7290   28.3452 C   0  0  0  0  0  0  0  0  0  0  0  0
   29.6356    4.9009   30.1861 C   0  0  0  0  0  0  0  0  0  0  0  0
   24.6280    5.1043   31.5326 C   0  0  0  0  0  0  0  0  0  0  0  0
   23.9117   10.8820   30.1065 C   0  0  0  0  0  0  0  0  0  0  0  0
   23.7873   11.6824   31.2509 C   0  0  0  0  0  0  0  0  0  0  0  0
   22.8263   12.6895   31.2894 C   0  0  0  0  0  0  0  0  0  0  0  0
   21.9818   12.9172   30.2057 C   0  0  0  0  0  0  0  0  0  0  0  0
   22.0980   12.1221   29.0641 C   0  0  0  0  0  0  0  0  0  0  0  0
   23.0585   11.1072   29.0151 C   0  0  0  0  0  0  0  0  0  0  0  0
   23.5988    4.2327   32.1335 C   0  0  0  0  0  0  0  0  0  0  0  0
   23.4394    4.1789   33.5220 C   0  0  0  0  0  0  0  0  0  0  0  0
   22.4708    3.3489   34.0733 C   0  0  0  0  0  0  0  0  0  0  0  0
   21.6606    2.5554   33.2609 C   0  0  0  0  0  0  0  0  0  0  0  0
   21.8164    2.6051   31.8751 C   0  0  0  0  0  0  0  0  0  0  0  0
   22.7803    3.4443   31.3134 C   0  0  0  0  0  0  0  0  0  0  0  0
   22.3398    3.3300   35.4334 O   0  0  0  0  0  0  0  0  0  0  0  0
   22.6849   13.4757   32.4002 O   0  0  0  0  0  0  0  0  0  0  0  0
   31.7864   12.2332   24.8061 O   0  0  0  0  0  0  0  0  0  0  0  0
   32.8270    1.2858   30.8262 O   0  0  0  0  0  0  0  0  0  0  0  0
   31.3231   11.0029   29.8701 H   0  0  0  0  0  0  0  0  0  0  0  0
   29.9731   10.5467   25.8335 H   0  0  0  0  0  0  0  0  0  0  0  0
   33.2849   13.1711   26.7081 H   0  0  0  0  0  0  0  0  0  0  0  0
   33.0794   12.6016   29.1296 H   0  0  0  0  0  0  0  0  0  0  0  0
   30.7452    2.4522   29.8113 H   0  0  0  0  0  0  0  0  0  0  0  0
   34.0260    2.9228   32.5698 H   0  0  0  0  0  0  0  0  0  0  0  0
   33.2405    5.2119   33.1127 H   0  0  0  0  0  0  0  0  0  0  0  0
   31.2129    6.1233   32.0178 H   0  0  0  0  0  0  0  0  0  0  0  0
   28.1722   12.1194   27.8988 H   0  0  0  0  0  0  0  0  0  0  0  0
   28.3530   12.0816   29.6699 H   0  0  0  0  0  0  0  0  0  0  0  0
   26.0564   12.3203   29.6068 H   0  0  0  0  0  0  0  0  0  0  0  0
   25.9160   11.6085   27.9809 H   0  0  0  0  0  0  0  0  0  0  0  0
   28.5011    7.6558   29.9229 H   0  0  0  0  0  0  0  0  0  0  0  0
   31.2970    5.3030   27.7977 H   0  0  0  0  0  0  0  0  0  0  0  0
   31.3113    7.8412   26.8205 H   0  0  0  0  0  0  0  0  0  0  0  0
   26.9459    6.2059   30.4042 H   0  0  0  0  0  0  0  0  0  0  0  0
   25.9091    2.4088   31.8585 H   0  0  0  0  0  0  0  0  0  0  0  0
   28.5146    2.3226   31.1142 H   0  0  0  0  0  0  0  0  0  0  0  0
   22.4315    9.0419   31.1720 H   0  0  0  0  0  0  0  0  0  0  0  0
   22.2650    6.6061   31.9360 H   0  0  0  0  0  0  0  0  0  0  0  0
   24.4562   11.4858   32.0829 H   0  0  0  0  0  0  0  0  0  0  0  0
   21.2352   13.7039   30.2558 H   0  0  0  0  0  0  0  0  0  0  0  0
   21.4430   12.2816   28.2129 H   0  0  0  0  0  0  0  0  0  0  0  0
   23.1630   10.4724   28.1381 H   0  0  0  0  0  0  0  0  0  0  0  0
   24.0685    4.8001   34.1540 H   0  0  0  0  0  0  0  0  0  0  0  0
   20.9077    1.9028   33.6856 H   0  0  0  0  0  0  0  0  0  0  0  0
   21.1859    2.0042   31.2277 H   0  0  0  0  0  0  0  0  0  0  0  0
   22.9070    3.4964   30.2339 H   0  0  0  0  0  0  0  0  0  0  0  0
   21.6315    2.7082   35.6576 H   0  0  0  0  0  0  0  0  0  0  0  0
   23.3179   13.1291   33.0525 H   0  0  0  0  0  0  0  0  0  0  0  0
   31.0751   11.7752   24.3276 H   0  0  0  0  0  0  0  0  0  0  0  0
   33.6283    1.0867   31.3321 H   0  0  0  0  0  0  0  0  0  0  0  0
 25 26  2  0
 26 27  1  0
 27 23  1  0
 28 29  1  0
  1  2  2  0
  3  4  2  0
  7  8  2  0
 14 15  1  0
 29 30  1  0
 30 31  2  0
 31 32  1  0
 32 28  2  0
 15 16  1  0
 29 33  2  0
 17 33  1  0
 16 17  1  0
 14 34  2  0
 22 34  1  0
 17 13  2  0
 27 35  2  0
 19 35  1  0
 18 19  1  0
 24 36  2  0
 32 36  1  0
  8  9  1  0
  4  5  1  0
 37 38  2  0
  9 10  2  0
 38 39  1  0
  2  3  1  0
 39 40  2  0
 10 11  1  0
 40 41  1  0
 19 20  2  0
 41 42  2  0
 42 37  1  0
 33 37  1  0
 20 21  1  0
 21 22  2  0
 43 44  2  0
 22 18  1  0
 44 45  1  0
 23 24  1  0
 45 46  2  0
  5  6  2  0
 46 47  1  0
 11 12  2  0
 47 48  2  0
 48 43  1  0
 36 43  1  0
 12  7  1  0
 45 49  1  0
 13 14  1  0
 39 50  1  0
 35 12  1  0
 34  2  1  0
  6  1  1  0
  4 51  1  0
 24 25  1  0
  8 52  1  0
  1 53  1  0
  3 54  1  0
  5 55  1  0
  6 56  1  0
  7 57  1  0
  9 58  1  0
 10 59  1  0
 11 60  1  0
 15 61  1  0
 15 62  1  0
 16 63  1  0
 16 64  1  0
 18 65  1  0
 20 66  1  0
 21 67  1  0
 23 68  1  0
 25 69  1  0
 26 70  1  0
 30 71  1  0
 31 72  1  0
 38 73  1  0
 40 74  1  0
 41 75  1  0
 42 76  1  0
 44 77  1  0
 46 78  1  0
 47 79  1  0
 48 80  1  0
 49 81  1  0
 50 82  1  0
 51 83  1  0
 52 84  1  0
M  END
> <Uni-Dock RESULT> 
ENERGY=   -4.775  LOWER_BOUND=    1.853  UPPER_BOUND=   10.912
INTER + INTRA:          -4.775
INTER:                  -4.775
INTRA:                   0.000
UNBOUND:                 0.000

$$$$

     RDKit          3D

 84 92  0  0  0  0  0  0  0  0999 V2000
   29.0924    2.7418   30.2104 C   0  0  0  0  0  0  0  0  0  0  0  0
   28.6449    3.3089   31.4102 C   0  0  0  0  0  0  0  0  0  0  0  0
   28.9932    2.7175   32.6291 C   0  0  0  0  0  0  0  0  0  0  0  0
   29.7828    1.5702   32.6317 C   0  0  0  0  0  0  0  0  0  0  0  0
   30.2301    1.0041   31.4392 C   0  0  0  0  0  0  0  0  0  0  0  0
   29.8837    1.5903   30.2226 C   0  0  0  0  0  0  0  0  0  0  0  0
   30.6496   10.9642   29.6391 C   0  0  0  0  0  0  0  0  0  0  0  0
   31.7027   11.3168   28.8002 C   0  0  0  0  0  0  0  0  0  0  0  0
   31.9506   10.6092   27.6230 C   0  0  0  0  0  0  0  0  0  0  0  0
   31.1357    9.5263   27.2900 C   0  0  0  0  0  0  0  0  0  0  0  0
   30.0771    9.1632   28.1280 C   0  0  0  0  0  0  0  0  0  0  0  0
   29.8235    9.8845   29.3045 C   0  0  0  0  0  0  0  0  0  0  0  0
   25.5813    5.5247   31.1389 N   0  0  0  0  0  0  0  0  0  0  0  0
   26.4630    4.4902   31.2504 C   0  0  0  0  0  0  0  0  0  0  0  0
   25.7108    3.1936   31.1641 C   0  0  0  0  0  0  0  0  0  0  0  0
   24.2882    3.6115   31.4450 C   0  0  0  0  0  0  0  0  0  0  0  0
   24.2821    5.1056   31.1605 C   0  0  0  0  0  0  0  0  0  0  0  0
   27.9563    7.0480   30.8213 N   0  0  0  0  0  0  0  0  0  0  0  0
   28.8339    8.0905   30.9177 C   0  0  0  0  0  0  0  0  0  0  0  0
   29.8978    7.6760   31.6921 C   0  0  0  0  0  0  0  0  0  0  0  0
   29.6918    6.3066   32.0060 C   0  0  0  0  0  0  0  0  0  0  0  0
   28.5095    5.9378   31.4087 C   0  0  0  0  0  0  0  0  0  0  0  0
   26.1309    9.8073   30.4361 N   0  0  0  0  0  0  0  0  0  0  0  0
   25.2265   10.8317   30.2909 C   0  0  0  0  0  0  0  0  0  0  0  0
   25.9168   12.0078   30.1140 C   0  0  0  0  0  0  0  0  0  0  0  0
   27.2954   11.6769   30.1166 C   0  0  0  0  0  0  0  0  0  0  0  0
   27.3991   10.3079   30.2771 C   0  0  0  0  0  0  0  0  0  0  0  0
   23.8404    8.1621   30.6471 N   0  0  0  0  0  0  0  0  0  0  0  0
   22.9458    7.1294   30.8013 C   0  0  0  0  0  0  0  0  0  0  0  0
   21.6249    7.7481   30.6896 C   0  0  0  0  0  0  0  0  0  0  0  0
   21.7690    9.0556   30.4973 C   0  0  0  0  0  0  0  0  0  0  0  0
   23.1813    9.3519   30.4698 C   0  0  0  0  0  0  0  0  0  0  0  0
   23.0916    5.7801   31.0209 C   0  0  0  0  0  0  0  0  0  0  0  0
   27.8146    4.5265   31.3849 C   0  0  0  0  0  0  0  0  0  0  0  0
   28.7228    9.4767   30.2084 C   0  0  0  0  0  0  0  0  0  0  0  0
   23.6600   10.6133   30.2975 C   0  0  0  0  0  0  0  0  0  0  0  0
   21.8444    4.9615   31.1275 C   0  0  0  0  0  0  0  0  0  0  0  0
   21.2470    4.4384   29.9719 C   0  0  0  0  0  0  0  0  0  0  0  0
   20.0790    3.6874   30.0765 C   0  0  0  0  0  0  0  0  0  0  0  0
   19.4902    3.4452   31.3151 C   0  0  0  0  0  0  0  0  0  0  0  0
   20.0778    3.9655   32.4696 C   0  0  0  0  0  0  0  0  0  0  0  0
   21.2499    4.7221   32.3762 C   0  0  0  0  0  0  0  0  0  0  0  0
   22.7769   11.7834   30.1222 C   0  0  0  0  0  0  0  0  0  0  0  0
   22.3081   12.1326   28.8516 C   0  0  0  0  0  0  0  0  0  0  0  0
   21.4829   13.2405   28.7014 C   0  0  0  0  0  0  0  0  0  0  0  0
   21.1239   14.0207   29.8006 C   0  0  0  0  0  0  0  0  0  0  0  0
   21.5898   13.6768   31.0702 C   0  0  0  0  0  0  0  0  0  0  0  0
   22.4108   12.5591   31.2305 C   0  0  0  0  0  0  0  0  0  0  0  0
   21.0385   13.5448   27.4455 O   0  0  0  0  0  0  0  0  0  0  0  0
   19.4775    3.1753   28.9595 O   0  0  0  0  0  0  0  0  0  0  0  0
   30.1397    0.9694   33.8073 O   0  0  0  0  0  0  0  0  0  0  0  0
   32.4869   12.3756   29.1640 O   0  0  0  0  0  0  0  0  0  0  0  0
   28.8068    3.2080   29.2704 H   0  0  0  0  0  0  0  0  0  0  0  0
   28.6301    3.1696   33.5472 H   0  0  0  0  0  0  0  0  0  0  0  0
   30.8440    0.1096   31.4605 H   0  0  0  0  0  0  0  0  0  0  0  0
   30.2169    1.1586   29.2841 H   0  0  0  0  0  0  0  0  0  0  0  0
   30.4817   11.5130   30.5640 H   0  0  0  0  0  0  0  0  0  0  0  0
   32.7689   10.8803   26.9636 H   0  0  0  0  0  0  0  0  0  0  0  0
   31.3139    8.9590   26.3776 H   0  0  0  0  0  0  0  0  0  0  0  0
   29.4444    8.3140   27.8708 H   0  0  0  0  0  0  0  0  0  0  0  0
   26.0436    2.4417   31.8853 H   0  0  0  0  0  0  0  0  0  0  0  0
   25.7972    2.7750   30.1535 H   0  0  0  0  0  0  0  0  0  0  0  0
   23.6014    3.0279   30.8240 H   0  0  0  0  0  0  0  0  0  0  0  0
   24.0437    3.4316   32.5007 H   0  0  0  0  0  0  0  0  0  0  0  0
   27.0147    7.0312   30.4285 H   0  0  0  0  0  0  0  0  0  0  0  0
   30.7478    8.2814   31.9682 H   0  0  0  0  0  0  0  0  0  0  0  0
   30.3422    5.6612   32.5750 H   0  0  0  0  0  0  0  0  0  0  0  0
   25.8168    8.8458   30.5866 H   0  0  0  0  0  0  0  0  0  0  0  0
   25.4749   12.9822   29.9694 H   0  0  0  0  0  0  0  0  0  0  0  0
   28.1145   12.3637   29.9621 H   0  0  0  0  0  0  0  0  0  0  0  0
   20.6769    7.2446   30.7576 H   0  0  0  0  0  0  0  0  0  0  0  0
   20.9648    9.7588   30.3834 H   0  0  0  0  0  0  0  0  0  0  0  0
   21.7239    4.6409   29.0181 H   0  0  0  0  0  0  0  0  0  0  0  0
   18.5768    2.8614   31.3766 H   0  0  0  0  0  0  0  0  0  0  0  0
   19.6281    3.7919   33.4426 H   0  0  0  0  0  0  0  0  0  0  0  0
   21.7218    5.1414   33.2619 H   0  0  0  0  0  0  0  0  0  0  0  0
   22.5852   11.5222   27.9962 H   0  0  0  0  0  0  0  0  0  0  0  0
   20.4853   14.8883   29.6885 H   0  0  0  0  0  0  0  0  0  0  0  0
   21.3098   14.2652   31.9381 H   0  0  0  0  0  0  0  0  0  0  0  0
   22.7751   12.2772   32.2164 H   0  0  0  0  0  0  0  0  0  0  0  0
   20.4818   14.3352   27.5078 H   0  0  0  0  0  0  0  0  0  0  0  0
   20.0025    3.4950   28.2055 H   0  0  0  0  0  0  0  0  0  0  0  0
   29.7068    1.4703   34.5189 H   0  0  0  0  0  0  0  0  0  0  0  0
   33.1667   12.4901   28.4840 H   0  0  0  0  0  0  0  0  0  0  0  0
 25 26  2  0
 26 27  1  0
 27 23  1  0
 28 29  1  0
  1  2  2  0
  3  4  2  0
  7  8  2  0
 14 15  1  0
 29 30  1  0
 30 31  2  0
 31 32  1  0
 32 28  2  0
 15 16  1  0
 29 33  2  0
 17 33  1  0
 16 17  1  0
 14 34  2  0
 22 34  1  0
 17 13  2  0
 27 35  2  0
 19 35  1  0
 18 19  1  0
 24 36  2  0
 32 36  1  0
  8  9  1  0
  4  5  1  0
 37 38  2  0
  9 10  2  0
 38 39  1  0
  2  3  1  0
 39 40  2  0
 10 11  1  0
 40 41  1  0
 19 20  2  0
 41 42  2  0
 42 37  1  0
 33 37  1  0
 20 21  1  0
 21 22  2  0
 43 44  2  0
 22 18  1  0
 44 45  1  0
 23 24  1  0
 45 46  2  0
  5  6  2  0
 46 47  1  0
 11 12  2  0
 47 48  2  0
 48 43  1  0
 36 43  1  0
 12  7  1  0
 45 49  1  0
 13 14  1  0
 39 50  1  0
 35 12  1  0
 34  2  1  0
  6  1  1  0
  4 51  1  0
 24 25  1  0
  8 52  1  0
  1 53  1  0
  3 54  1  0
  5 55  1  0
  6 56  1  0
  7 57  1  0
  9 58  1  0
 10 59  1  0
 11 60  1  0
 15 61  1  0
 15 62  1  0
 16 63  1  0
 16 64  1  0
 18 65  1  0
 20 66  1  0
 21 67  1  0
 23 68  1  0
 25 69  1  0
 26 70  1  0
 30 71  1  0
 31 72  1  0
 38 73  1  0
 40 74  1  0
 41 75  1  0
 42 76  1  0
 44 77  1  0
 46 78  1  0
 47 79  1  0
 48 80  1  0
 49 81  1  0
 50 82  1  0
 51 83  1  0
 52 84  1  0
M  END
> <Uni-Dock RESULT> 
ENERGY=   -4.715  LOWER_BOUND=    2.041  UPPER_BOUND=    8.012
INTER + INTRA:          -4.715
INTER:                  -4.715
INTRA:                   0.000
UNBOUND:                 0.000

$$$$
