
     RDKit          3D

 84 92  0  0  0  0  0  0  0  0999 V2000
   23.0756    1.3285   31.2759 C   0  0  0  0  0  0  0  0  0  0  0  0
   23.4668    2.4029   32.0838 C   0  0  0  0  0  0  0  0  0  0  0  0
   23.1024    2.4198   33.4361 C   0  0  0  0  0  0  0  0  0  0  0  0
   22.3523    1.3722   33.9616 C   0  0  0  0  0  0  0  0  0  0  0  0
   21.9547    0.3059   33.1605 C   0  0  0  0  0  0  0  0  0  0  0  0
   22.3193    0.2822   31.8130 C   0  0  0  0  0  0  0  0  0  0  0  0
   21.2578    9.9488   30.4424 C   0  0  0  0  0  0  0  0  0  0  0  0
   20.3377   10.6710   31.1949 C   0  0  0  0  0  0  0  0  0  0  0  0
   20.3975   10.6710   32.5863 C   0  0  0  0  0  0  0  0  0  0  0  0
   21.3972    9.9389   33.2312 C   0  0  0  0  0  0  0  0  0  0  0  0
   22.3247    9.2087   32.4829 C   0  0  0  0  0  0  0  0  0  0  0  0
   22.2612    9.2116   31.0842 C   0  0  0  0  0  0  0  0  0  0  0  0
   26.4481    4.6138   31.3043 N   0  0  0  0  0  0  0  0  0  0  0  0
   25.6019    3.6087   31.6710 C   0  0  0  0  0  0  0  0  0  0  0  0
   26.3887    2.5200   32.3439 C   0  0  0  0  0  0  0  0  0  0  0  0
   27.8112    2.8385   31.9626 C   0  0  0  0  0  0  0  0  0  0  0  0
   27.7614    4.2801   31.4796 C   0  0  0  0  0  0  0  0  0  0  0  0
   24.0446    5.9975   30.8160 N   0  0  0  0  0  0  0  0  0  0  0  0
   23.1078    6.8673   30.3313 C   0  0  0  0  0  0  0  0  0  0  0  0
   22.0014    6.1351   29.9500 C   0  0  0  0  0  0  0  0  0  0  0  0
   22.2480    4.7786   30.2964 C   0  0  0  0  0  0  0  0  0  0  0  0
   23.4946    4.7419   30.8798 C   0  0  0  0  0  0  0  0  0  0  0  0
   25.7749    8.6430   29.8039 N   0  0  0  0  0  0  0  0  0  0  0  0
   26.6286    9.5715   29.2622 C   0  0  0  0  0  0  0  0  0  0  0  0
   25.8767   10.6049   28.7481 C   0  0  0  0  0  0  0  0  0  0  0  0
   24.5182   10.2944   29.0110 C   0  0  0  0  0  0  0  0  0  0  0  0
   24.4895    9.0999   29.6991 C   0  0  0  0  0  0  0  0  0  0  0  0
   28.1101    7.1851   30.3708 N   0  0  0  0  0  0  0  0  0  0  0  0
   29.0349    6.2402   30.7435 C   0  0  0  0  0  0  0  0  0  0  0  0
   30.3341    6.8468   30.4556 C   0  0  0  0  0  0  0  0  0  0  0  0
   30.1499    8.0431   29.9090 C   0  0  0  0  0  0  0  0  0  0  0  0
   28.7288    8.2864   29.8350 C   0  0  0  0  0  0  0  0  0  0  0  0
   28.9316    4.9649   31.2460 C   0  0  0  0  0  0  0  0  0  0  0  0
   24.2510    3.5221   31.5276 C   0  0  0  0  0  0  0  0  0  0  0  0
   23.2236    8.4197   30.2994 C   0  0  0  0  0  0  0  0  0  0  0  0
   28.2021    9.4210   29.2999 C   0  0  0  0  0  0  0  0  0  0  0  0
   30.2037    4.2374   31.5466 C   0  0  0  0  0  0  0  0  0  0  0  0
   30.8155    3.4162   30.5857 C   0  0  0  0  0  0  0  0  0  0  0  0
   31.9861    2.7348   30.9027 C   0  0  0  0  0  0  0  0  0  0  0  0
   32.5706    2.8662   32.1632 C   0  0  0  0  0  0  0  0  0  0  0  0
   31.9748    3.6881   33.1198 C   0  0  0  0  0  0  0  0  0  0  0  0
   30.7963    4.3698   32.8128 C   0  0  0  0  0  0  0  0  0  0  0  0
   29.0325   10.4823   28.6961 C   0  0  0  0  0  0  0  0  0  0  0  0
   29.3226   10.4339   27.3250 C   0  0  0  0  0  0  0  0  0  0  0  0
   30.1026   11.4333   26.7505 C   0  0  0  0  0  0  0  0  0  0  0  0
   30.5960   12.4866   27.5162 C   0  0  0  0  0  0  0  0  0  0  0  0
   30.3164   12.5338   28.8830 C   0  0  0  0  0  0  0  0  0  0  0  0
   29.5368   11.5340   29.4729 C   0  0  0  0  0  0  0  0  0  0  0  0
   30.4136   11.4032   25.4185 O   0  0  0  0  0  0  0  0  0  0  0  0
   32.5487    1.9314   29.9500 O   0  0  0  0  0  0  0  0  0  0  0  0
   21.9903    1.3621   35.2785 O   0  0  0  0  0  0  0  0  0  0  0  0
   19.3751   11.3766   30.5263 O   0  0  0  0  0  0  0  0  0  0  0  0
   23.3690    1.3206   30.2274 H   0  0  0  0  0  0  0  0  0  0  0  0
   23.4217    3.2600   34.0453 H   0  0  0  0  0  0  0  0  0  0  0  0
   21.3774   -0.5072   33.5906 H   0  0  0  0  0  0  0  0  0  0  0  0
   22.0243   -0.5483   31.1805 H   0  0  0  0  0  0  0  0  0  0  0  0
   21.1957    9.9497   29.3590 H   0  0  0  0  0  0  0  0  0  0  0  0
   19.6857   11.2316   33.1838 H   0  0  0  0  0  0  0  0  0  0  0  0
   21.4602    9.9335   34.3169 H   0  0  0  0  0  0  0  0  0  0  0  0
   23.0980    8.6279   32.9858 H   0  0  0  0  0  0  0  0  0  0  0  0
   26.1203    1.5134   32.0091 H   0  0  0  0  0  0  0  0  0  0  0  0
   26.2663    2.5684   33.4325 H   0  0  0  0  0  0  0  0  0  0  0  0
   28.1349    2.1787   31.1485 H   0  0  0  0  0  0  0  0  0  0  0  0
   28.4625    2.6809   32.8264 H   0  0  0  0  0  0  0  0  0  0  0  0
   25.0102    6.1684   31.1041 H   0  0  0  0  0  0  0  0  0  0  0  0
   21.1013    6.5394   29.5118 H   0  0  0  0  0  0  0  0  0  0  0  0
   21.5863    3.9358   30.1631 H   0  0  0  0  0  0  0  0  0  0  0  0
   26.1276    7.7857   30.2326 H   0  0  0  0  0  0  0  0  0  0  0  0
   26.2660   11.4847   28.2557 H   0  0  0  0  0  0  0  0  0  0  0  0
   23.6625   10.9033   28.7648 H   0  0  0  0  0  0  0  0  0  0  0  0
   31.2960    6.3877   30.6146 H   0  0  0  0  0  0  0  0  0  0  0  0
   30.9298    8.7006   29.5668 H   0  0  0  0  0  0  0  0  0  0  0  0
   30.3521    3.3190   29.6066 H   0  0  0  0  0  0  0  0  0  0  0  0
   33.4854    2.3422   32.4119 H   0  0  0  0  0  0  0  0  0  0  0  0
   32.4160    3.8008   34.1042 H   0  0  0  0  0  0  0  0  0  0  0  0
   30.3133    5.0150   33.5442 H   0  0  0  0  0  0  0  0  0  0  0  0
   28.9313    9.6046   26.7410 H   0  0  0  0  0  0  0  0  0  0  0  0
   31.2040   13.2572   27.0521 H   0  0  0  0  0  0  0  0  0  0  0  0
   30.7132   13.3379   29.4941 H   0  0  0  0  0  0  0  0  0  0  0  0
   29.3224   11.5563   30.5418 H   0  0  0  0  0  0  0  0  0  0  0  0
   30.0512   10.5687   25.0747 H   0  0  0  0  0  0  0  0  0  0  0  0
   33.2983    1.4775   30.3570 H   0  0  0  0  0  0  0  0  0  0  0  0
   22.4107    2.1385   35.6877 H   0  0  0  0  0  0  0  0  0  0  0  0
   18.8146   11.8193   31.1859 H   0  0  0  0  0  0  0  0  0  0  0  0
 25 26  2  0
 26 27  1  0
 27 23  1  0
 28 29  1  0
  1  2  2  0
  3  4  2  0
  7  8  2  0
 14 15  1  0
 29 30  1  0
 30 31  2  0
 31 32  1  0
 32 28  2  0
 15 16  1  0
 29 33  2  0
 17 33  1  0
 16 17  1  0
 14 34  2  0
 22 34  1  0
 17 13  2  0
 27 35  2  0
 19 35  1  0
 18 19  1  0
 24 36  2  0
 32 36  1  0
  8  9  1  0
  4  5  1  0
 37 38  2  0
  9 10  2  0
 38 39  1  0
  2  3  1  0
 39 40  2  0
 10 11  1  0
 40 41  1  0
 19 20  2  0
 41 42  2  0
 42 37  1  0
 33 37  1  0
 20 21  1  0
 21 22  2  0
 43 44  2  0
 22 18  1  0
 44 45  1  0
 23 24  1  0
 45 46  2  0
  5  6  2  0
 46 47  1  0
 11 12  2  0
 47 48  2  0
 48 43  1  0
 36 43  1  0
 12  7  1  0
 45 49  1  0
 13 14  1  0
 39 50  1  0
 35 12  1  0
 34  2  1  0
  6  1  1  0
  4 51  1  0
 24 25  1  0
  8 52  1  0
  1 53  1  0
  3 54  1  0
  5 55  1  0
  6 56  1  0
  7 57  1  0
  9 58  1  0
 10 59  1  0
 11 60  1  0
 15 61  1  0
 15 62  1  0
 16 63  1  0
 16 64  1  0
 18 65  1  0
 20 66  1  0
 21 67  1  0
 23 68  1  0
 25 69  1  0
 26 70  1  0
 30 71  1  0
 31 72  1  0
 38 73  1  0
 40 74  1  0
 41 75  1  0
 42 76  1  0
 44 77  1  0
 46 78  1  0
 47 79  1  0
 48 80  1  0
 49 81  1  0
 50 82  1  0
 51 83  1  0
 52 84  1  0
M  END
> <Uni-Dock RESULT> 
ENERGY=   -5.401  LOWER_BOUND=    0.000  UPPER_BOUND=    0.000
INTER + INTRA:          -5.401
INTER:                  -5.401
INTRA:                   0.000
UNBOUND:                 0.000

$$$$

     RDKit          3D

 84 92  0  0  0  0  0  0  0  0999 V2000
   28.8484    1.6546   33.6619 C   0  0  0  0  0  0  0  0  0  0  0  0
   28.6090    2.0962   32.3551 C   0  0  0  0  0  0  0  0  0  0  0  0
   29.0669    1.3342   31.2728 C   0  0  0  0  0  0  0  0  0  0  0  0
   29.7583    0.1494   31.5068 C   0  0  0  0  0  0  0  0  0  0  0  0
   30.0051   -0.2896   32.8041 C   0  0  0  0  0  0  0  0  0  0  0  0
   29.5467    0.4642   33.8862 C   0  0  0  0  0  0  0  0  0  0  0  0
   31.3439    9.1731   29.7183 C   0  0  0  0  0  0  0  0  0  0  0  0
   32.3733    9.3136   28.7936 C   0  0  0  0  0  0  0  0  0  0  0  0
   32.4110    8.5291   27.6436 C   0  0  0  0  0  0  0  0  0  0  0  0
   31.3990    7.5933   27.4166 C   0  0  0  0  0  0  0  0  0  0  0  0
   30.3617    7.4443   28.3414 C   0  0  0  0  0  0  0  0  0  0  0  0
   30.3276    8.2351   29.4963 C   0  0  0  0  0  0  0  0  0  0  0  0
   25.7835    4.4555   31.4417 N   0  0  0  0  0  0  0  0  0  0  0  0
   26.5629    3.3924   31.7925 C   0  0  0  0  0  0  0  0  0  0  0  0
   25.7336    2.1400   31.7647 C   0  0  0  0  0  0  0  0  0  0  0  0
   24.3209    2.6639   31.7485 C   0  0  0  0  0  0  0  0  0  0  0  0
   24.4616    4.1236   31.3443 C   0  0  0  0  0  0  0  0  0  0  0  0
   28.2580    5.7946   31.3248 N   0  0  0  0  0  0  0  0  0  0  0  0
   29.2305    6.7554   31.3364 C   0  0  0  0  0  0  0  0  0  0  0  0
   30.2400    6.3316   32.1773 C   0  0  0  0  0  0  0  0  0  0  0  0
   29.9016    5.0256   32.6252 C   0  0  0  0  0  0  0  0  0  0  0  0
   28.7002    4.7058   32.0334 C   0  0  0  0  0  0  0  0  0  0  0  0
   26.6971    8.6032   30.4927 N   0  0  0  0  0  0  0  0  0  0  0  0
   25.8914    9.7022   30.3276 C   0  0  0  0  0  0  0  0  0  0  0  0
   26.6923   10.8205   30.2522 C   0  0  0  0  0  0  0  0  0  0  0  0
   28.0339   10.3721   30.3544 C   0  0  0  0  0  0  0  0  0  0  0  0
   28.0069    8.9976   30.4601 C   0  0  0  0  0  0  0  0  0  0  0  0
   24.2896    7.1563   30.5936 N   0  0  0  0  0  0  0  0  0  0  0  0
   23.3146    6.1965   30.7174 C   0  0  0  0  0  0  0  0  0  0  0  0
   22.0560    6.9012   30.4763 C   0  0  0  0  0  0  0  0  0  0  0  0
   22.3046    8.1903   30.2760 C   0  0  0  0  0  0  0  0  0  0  0  0
   23.7328    8.3869   30.3520 C   0  0  0  0  0  0  0  0  0  0  0  0
   23.3418    4.8579   31.0287 C   0  0  0  0  0  0  0  0  0  0  0  0
   27.8879    3.3585   32.1027 C   0  0  0  0  0  0  0  0  0  0  0  0
   29.2478    8.0568   30.4819 C   0  0  0  0  0  0  0  0  0  0  0  0
   24.3173    9.6076   30.2133 C   0  0  0  0  0  0  0  0  0  0  0  0
   22.0355    4.1293   31.0531 C   0  0  0  0  0  0  0  0  0  0  0  0
   21.2893    4.0152   32.2373 C   0  0  0  0  0  0  0  0  0  0  0  0
   20.0890    3.3120   32.2332 C   0  0  0  0  0  0  0  0  0  0  0  0
   19.6075    2.7268   31.0613 C   0  0  0  0  0  0  0  0  0  0  0  0
   20.3375    2.8444   29.8787 C   0  0  0  0  0  0  0  0  0  0  0  0
   21.5463    3.5419   29.8751 C   0  0  0  0  0  0  0  0  0  0  0  0
   23.5419   10.8505   30.0275 C   0  0  0  0  0  0  0  0  0  0  0  0
   23.1538   11.5948   31.1507 C   0  0  0  0  0  0  0  0  0  0  0  0
   22.4252   12.7686   30.9809 C   0  0  0  0  0  0  0  0  0  0  0  0
   22.0796   13.2200   29.7097 C   0  0  0  0  0  0  0  0  0  0  0  0
   22.4568   12.4774   28.5895 C   0  0  0  0  0  0  0  0  0  0  0  0
   23.1860   11.2947   28.7469 C   0  0  0  0  0  0  0  0  0  0  0  0
   22.0206   13.5066   32.0596 O   0  0  0  0  0  0  0  0  0  0  0  0
   19.3939    3.2063   33.4059 O   0  0  0  0  0  0  0  0  0  0  0  0
   30.2090   -0.6148   30.4684 O   0  0  0  0  0  0  0  0  0  0  0  0
   33.3445   10.2420   29.0510 O   0  0  0  0  0  0  0  0  0  0  0  0
   28.4830    2.2502   34.4969 H   0  0  0  0  0  0  0  0  0  0  0  0
   28.8650    1.6928   30.2680 H   0  0  0  0  0  0  0  0  0  0  0  0
   30.5383   -1.2216   32.9669 H   0  0  0  0  0  0  0  0  0  0  0  0
   29.7238    0.1275   34.9021 H   0  0  0  0  0  0  0  0  0  0  0  0
   31.3301    9.7842   30.6149 H   0  0  0  0  0  0  0  0  0  0  0  0
   33.2086    8.6306   26.9145 H   0  0  0  0  0  0  0  0  0  0  0  0
   31.4116    6.9773   26.5204 H   0  0  0  0  0  0  0  0  0  0  0  0
   29.5780    6.7062   28.1705 H   0  0  0  0  0  0  0  0  0  0  0  0
   25.8897    1.4907   32.6316 H   0  0  0  0  0  0  0  0  0  0  0  0
   25.9353    1.5607   30.8557 H   0  0  0  0  0  0  0  0  0  0  0  0
   23.8852    2.5905   32.7524 H   0  0  0  0  0  0  0  0  0  0  0  0
   23.7202    2.0668   31.0572 H   0  0  0  0  0  0  0  0  0  0  0  0
   27.3333    5.8038   30.8897 H   0  0  0  0  0  0  0  0  0  0  0  0
   31.1390    6.8836   32.4072 H   0  0  0  0  0  0  0  0  0  0  0  0
   30.4767    4.3848   33.2767 H   0  0  0  0  0  0  0  0  0  0  0  0
   26.3022    7.6656   30.5822 H   0  0  0  0  0  0  0  0  0  0  0  0
   26.3474   11.8366   30.1232 H   0  0  0  0  0  0  0  0  0  0  0  0
   28.9198   10.9857   30.3073 H   0  0  0  0  0  0  0  0  0  0  0  0
   21.0713    6.4639   30.5000 H   0  0  0  0  0  0  0  0  0  0  0  0
   21.5627    8.9508   30.1065 H   0  0  0  0  0  0  0  0  0  0  0  0
   21.6731    4.4735   33.1459 H   0  0  0  0  0  0  0  0  0  0  0  0
   18.6703    2.1838   31.0526 H   0  0  0  0  0  0  0  0  0  0  0  0
   19.9775    2.3952   28.9594 H   0  0  0  0  0  0  0  0  0  0  0  0
   22.1333    3.6448   28.9644 H   0  0  0  0  0  0  0  0  0  0  0  0
   23.4301   11.2287   32.1364 H   0  0  0  0  0  0  0  0  0  0  0  0
   21.5097   14.1371   29.5954 H   0  0  0  0  0  0  0  0  0  0  0  0
   22.1748   12.8077   27.5951 H   0  0  0  0  0  0  0  0  0  0  0  0
   23.4756   10.7021   27.8786 H   0  0  0  0  0  0  0  0  0  0  0  0
   22.2844   13.0013   32.8475 H   0  0  0  0  0  0  0  0  0  0  0  0
   18.6379    2.6263   33.2454 H   0  0  0  0  0  0  0  0  0  0  0  0
   29.8870   -0.1925   29.6530 H   0  0  0  0  0  0  0  0  0  0  0  0
   33.9859   10.2161   28.3209 H   0  0  0  0  0  0  0  0  0  0  0  0
 25 26  2  0
 26 27  1  0
 27 23  1  0
 28 29  1  0
  1  2  2  0
  3  4  2  0
  7  8  2  0
 14 15  1  0
 29 30  1  0
 30 31  2  0
 31 32  1  0
 32 28  2  0
 15 16  1  0
 29 33  2  0
 17 33  1  0
 16 17  1  0
 14 34  2  0
 22 34  1  0
 17 13  2  0
 27 35  2  0
 19 35  1  0
 18 19  1  0
 24 36  2  0
 32 36  1  0
  8  9  1  0
  4  5  1  0
 37 38  2  0
  9 10  2  0
 38 39  1  0
  2  3  1  0
 39 40  2  0
 10 11  1  0
 40 41  1  0
 19 20  2  0
 41 42  2  0
 42 37  1  0
 33 37  1  0
 20 21  1  0
 21 22  2  0
 43 44  2  0
 22 18  1  0
 44 45  1  0
 23 24  1  0
 45 46  2  0
  5  6  2  0
 46 47  1  0
 11 12  2  0
 47 48  2  0
 48 43  1  0
 36 43  1  0
 12  7  1  0
 45 49  1  0
 13 14  1  0
 39 50  1  0
 35 12  1  0
 34  2  1  0
  6  1  1  0
  4 51  1  0
 24 25  1  0
  8 52  1  0
  1 53  1  0
  3 54  1  0
  5 55  1  0
  6 56  1  0
  7 57  1  0
  9 58  1  0
 10 59  1  0
 11 60  1  0
 15 61  1  0
 15 62  1  0
 16 63  1  0
 16 64  1  0
 18 65  1  0
 20 66  1  0
 21 67  1  0
 23 68  1  0
 25 69  1  0
 26 70  1  0
 30 71  1  0
 31 72  1  0
 38 73  1  0
 40 74  1  0
 41 75  1  0
 42 76  1  0
 44 77  1  0
 46 78  1  0
 47 79  1  0
 48 80  1  0
 49 81  1  0
 50 82  1  0
 51 83  1  0
 52 84  1  0
M  END
> <Uni-Dock RESULT> 
ENERGY=   -5.043  LOWER_BOUND=    2.285  UPPER_BOUND=    7.909
INTER + INTRA:          -5.043
INTER:                  -5.043
INTRA:                   0.000
UNBOUND:                 0.000

$$$$

     RDKit          3D

 84 92  0  0  0  0  0  0  0  0999 V2000
   32.8250    8.9615   32.6887 C   0  0  0  0  0  0  0  0  0  0  0  0
   32.2238    8.5067   31.5090 C   0  0  0  0  0  0  0  0  0  0  0  0
   32.9949    8.3710   30.3477 C   0  0  0  0  0  0  0  0  0  0  0  0
   34.3483    8.6936   30.3767 C   0  0  0  0  0  0  0  0  0  0  0  0
   34.9484    9.1533   31.5451 C   0  0  0  0  0  0  0  0  0  0  0  0
   34.1850    9.2858   32.7064 C   0  0  0  0  0  0  0  0  0  0  0  0
   26.1061   12.4362   28.0962 C   0  0  0  0  0  0  0  0  0  0  0  0
   26.2056   13.1456   26.9040 C   0  0  0  0  0  0  0  0  0  0  0  0
   26.8657   12.6031   25.8042 C   0  0  0  0  0  0  0  0  0  0  0  0
   27.4302   11.3290   25.9013 C   0  0  0  0  0  0  0  0  0  0  0  0
   27.3365   10.6099   27.0961 C   0  0  0  0  0  0  0  0  0  0  0  0
   26.6720   11.1590   28.1994 C   0  0  0  0  0  0  0  0  0  0  0  0
   29.0545    6.4242   31.4587 N   0  0  0  0  0  0  0  0  0  0  0  0
   30.3286    6.8981   31.5715 C   0  0  0  0  0  0  0  0  0  0  0  0
   31.2657    5.7477   31.8073 C   0  0  0  0  0  0  0  0  0  0  0  0
   30.3407    4.6283   32.2095 C   0  0  0  0  0  0  0  0  0  0  0  0
   28.9629    5.0959   31.7658 C   0  0  0  0  0  0  0  0  0  0  0  0
   28.5190    9.0490   30.5909 N   0  0  0  0  0  0  0  0  0  0  0  0
   27.9008   10.2331   30.2999 C   0  0  0  0  0  0  0  0  0  0  0  0
   28.6782   11.2565   30.8041 C   0  0  0  0  0  0  0  0  0  0  0  0
   29.8540   10.6706   31.3471 C   0  0  0  0  0  0  0  0  0  0  0  0
   29.7459    9.3128   31.1462 C   0  0  0  0  0  0  0  0  0  0  0  0
   25.3111    8.2751   30.2341 N   0  0  0  0  0  0  0  0  0  0  0  0
   24.0105    7.8421   30.3061 C   0  0  0  0  0  0  0  0  0  0  0  0
   23.1836    8.8951   29.9818 C   0  0  0  0  0  0  0  0  0  0  0  0
   24.0226    9.9985   29.6821 C   0  0  0  0  0  0  0  0  0  0  0  0
   25.3287    9.5746   29.8061 C   0  0  0  0  0  0  0  0  0  0  0  0
   25.9678    5.6726   31.0679 N   0  0  0  0  0  0  0  0  0  0  0  0
   26.5958    4.5255   31.4888 C   0  0  0  0  0  0  0  0  0  0  0  0
   25.5267    3.5374   31.6283 C   0  0  0  0  0  0  0  0  0  0  0  0
   24.3606    4.1079   31.3486 C   0  0  0  0  0  0  0  0  0  0  0  0
   24.6109    5.4839   30.9909 C   0  0  0  0  0  0  0  0  0  0  0  0
   27.9014    4.2211   31.7923 C   0  0  0  0  0  0  0  0  0  0  0  0
   30.7864    8.1762   31.4706 C   0  0  0  0  0  0  0  0  0  0  0  0
   26.5983   10.4098   29.4653 C   0  0  0  0  0  0  0  0  0  0  0  0
   23.6161    6.3549   30.6699 C   0  0  0  0  0  0  0  0  0  0  0  0
   28.2015    2.8179   32.2151 C   0  0  0  0  0  0  0  0  0  0  0  0
   28.1842    2.4479   33.5697 C   0  0  0  0  0  0  0  0  0  0  0  0
   28.4898    1.1404   33.9333 C   0  0  0  0  0  0  0  0  0  0  0  0
   28.8021    0.1839   32.9661 C   0  0  0  0  0  0  0  0  0  0  0  0
   28.8113    0.5409   31.6178 C   0  0  0  0  0  0  0  0  0  0  0  0
   28.5131    1.8521   31.2444 C   0  0  0  0  0  0  0  0  0  0  0  0
   22.1863    5.9883   30.7115 C   0  0  0  0  0  0  0  0  0  0  0  0
   21.4565    6.1933   31.8912 C   0  0  0  0  0  0  0  0  0  0  0  0
   20.1077    5.8521   31.9347 C   0  0  0  0  0  0  0  0  0  0  0  0
   19.4682    5.3144   30.8207 C   0  0  0  0  0  0  0  0  0  0  0  0
   20.1934    5.1009   29.6471 C   0  0  0  0  0  0  0  0  0  0  0  0
   21.5497    5.4363   29.5917 C   0  0  0  0  0  0  0  0  0  0  0  0
   19.3753    6.0274   33.0769 O   0  0  0  0  0  0  0  0  0  0  0  0
   28.4788    0.8158   35.2615 O   0  0  0  0  0  0  0  0  0  0  0  0
   35.1230    8.5634   29.2594 O   0  0  0  0  0  0  0  0  0  0  0  0
   25.6383   14.3891   26.8483 O   0  0  0  0  0  0  0  0  0  0  0  0
   32.2192    9.0576   33.5883 H   0  0  0  0  0  0  0  0  0  0  0  0
   32.5092    8.0110   29.4458 H   0  0  0  0  0  0  0  0  0  0  0  0
   36.0080    9.3913   31.5507 H   0  0  0  0  0  0  0  0  0  0  0  0
   34.6433    9.6334   33.6262 H   0  0  0  0  0  0  0  0  0  0  0  0
   25.5968   12.8732   28.9490 H   0  0  0  0  0  0  0  0  0  0  0  0
   26.9486   13.1468   24.8686 H   0  0  0  0  0  0  0  0  0  0  0  0
   27.9439   10.8897   25.0493 H   0  0  0  0  0  0  0  0  0  0  0  0
   27.7869    9.6205   27.1761 H   0  0  0  0  0  0  0  0  0  0  0  0
   32.0021    5.9356   32.5945 H   0  0  0  0  0  0  0  0  0  0  0  0
   31.8005    5.4873   30.8860 H   0  0  0  0  0  0  0  0  0  0  0  0
   30.3632    4.5002   33.2985 H   0  0  0  0  0  0  0  0  0  0  0  0
   30.6688    3.6988   31.7367 H   0  0  0  0  0  0  0  0  0  0  0  0
   28.1950    8.0897   30.4528 H   0  0  0  0  0  0  0  0  0  0  0  0
   28.4443   12.3090   30.7478 H   0  0  0  0  0  0  0  0  0  0  0  0
   30.6907   11.1784   31.8032 H   0  0  0  0  0  0  0  0  0  0  0  0
   26.0900    7.6502   30.4482 H   0  0  0  0  0  0  0  0  0  0  0  0
   22.1038    8.8636   29.9511 H   0  0  0  0  0  0  0  0  0  0  0  0
   23.7031   10.9788   29.3648 H   0  0  0  0  0  0  0  0  0  0  0  0
   25.6471    2.5162   31.9509 H   0  0  0  0  0  0  0  0  0  0  0  0
   23.4003    3.6255   31.4010 H   0  0  0  0  0  0  0  0  0  0  0  0
   27.9408    3.2003   34.3164 H   0  0  0  0  0  0  0  0  0  0  0  0
   29.0345   -0.8367   33.2447 H   0  0  0  0  0  0  0  0  0  0  0  0
   29.0524   -0.1903   30.8538 H   0  0  0  0  0  0  0  0  0  0  0  0
   28.5160    2.1533   30.1986 H   0  0  0  0  0  0  0  0  0  0  0  0
   21.9702    6.6128   32.7527 H   0  0  0  0  0  0  0  0  0  0  0  0
   18.4158    5.0526   30.8724 H   0  0  0  0  0  0  0  0  0  0  0  0
   19.7112    4.6626   28.7795 H   0  0  0  0  0  0  0  0  0  0  0  0
   22.1270    5.2630   28.6831 H   0  0  0  0  0  0  0  0  0  0  0  0
   20.0008    6.3351   33.7550 H   0  0  0  0  0  0  0  0  0  0  0  0
   28.7882   -0.0960   35.3414 H   0  0  0  0  0  0  0  0  0  0  0  0
   34.5564    8.1693   28.5734 H   0  0  0  0  0  0  0  0  0  0  0  0
   25.7951   14.7513   25.9598 H   0  0  0  0  0  0  0  0  0  0  0  0
 25 26  2  0
 26 27  1  0
 27 23  1  0
 28 29  1  0
  1  2  2  0
  3  4  2  0
  7  8  2  0
 14 15  1  0
 29 30  1  0
 30 31  2  0
 31 32  1  0
 32 28  2  0
 15 16  1  0
 29 33  2  0
 17 33  1  0
 16 17  1  0
 14 34  2  0
 22 34  1  0
 17 13  2  0
 27 35  2  0
 19 35  1  0
 18 19  1  0
 24 36  2  0
 32 36  1  0
  8  9  1  0
  4  5  1  0
 37 38  2  0
  9 10  2  0
 38 39  1  0
  2  3  1  0
 39 40  2  0
 10 11  1  0
 40 41  1  0
 19 20  2  0
 41 42  2  0
 42 37  1  0
 33 37  1  0
 20 21  1  0
 21 22  2  0
 43 44  2  0
 22 18  1  0
 44 45  1  0
 23 24  1  0
 45 46  2  0
  5  6  2  0
 46 47  1  0
 11 12  2  0
 47 48  2  0
 48 43  1  0
 36 43  1  0
 12  7  1  0
 45 49  1  0
 13 14  1  0
 39 50  1  0
 35 12  1  0
 34  2  1  0
  6  1  1  0
  4 51  1  0
 24 25  1  0
  8 52  1  0
  1 53  1  0
  3 54  1  0
  5 55  1  0
  6 56  1  0
  7 57  1  0
  9 58  1  0
 10 59  1  0
 11 60  1  0
 15 61  1  0
 15 62  1  0
 16 63  1  0
 16 64  1  0
 18 65  1  0
 20 66  1  0
 21 67  1  0
 23 68  1  0
 25 69  1  0
 26 70  1  0
 30 71  1  0
 31 72  1  0
 38 73  1  0
 40 74  1  0
 41 75  1  0
 42 76  1  0
 44 77  1  0
 46 78  1  0
 47 79  1  0
 48 80  1  0
 49 81  1  0
 50 82  1  0
 51 83  1  0
 52 84  1  0
M  END
> <Uni-Dock RESULT> 
ENERGY=   -4.894  LOWER_BOUND=    2.736  UPPER_BOUND=    8.282
INTER + INTRA:          -4.894
INTER:                  -4.894
INTRA:                   0.000
UNBOUND:                 0.000

$$$$

     RDKit          3D

 84 92  0  0  0  0  0  0  0  0999 V2000
   23.5054   12.4222   31.5881 C   0  0  0  0  0  0  0  0  0  0  0  0
   23.6222   11.4897   30.5504 C   0  0  0  0  0  0  0  0  0  0  0  0
   22.9551   11.7152   29.3397 C   0  0  0  0  0  0  0  0  0  0  0  0
   22.1800   12.8602   29.1820 C   0  0  0  0  0  0  0  0  0  0  0  0
   22.0549   13.7860   30.2134 C   0  0  0  0  0  0  0  0  0  0  0  0
   22.7216   13.5680   31.4205 C   0  0  0  0  0  0  0  0  0  0  0  0
   21.3225    3.8475   31.4570 C   0  0  0  0  0  0  0  0  0  0  0  0
   20.2047    3.2934   30.8423 C   0  0  0  0  0  0  0  0  0  0  0  0
   19.9413    3.5290   29.4952 C   0  0  0  0  0  0  0  0  0  0  0  0
   20.8144    4.3287   28.7539 C   0  0  0  0  0  0  0  0  0  0  0  0
   21.9391    4.8910   29.3641 C   0  0  0  0  0  0  0  0  0  0  0  0
   22.2003    4.6515   30.7186 C   0  0  0  0  0  0  0  0  0  0  0  0
   26.5383    9.0858   30.2328 N   0  0  0  0  0  0  0  0  0  0  0  0
   25.7039   10.1647   30.2433 C   0  0  0  0  0  0  0  0  0  0  0  0
   26.3891   11.3271   29.5827 C   0  0  0  0  0  0  0  0  0  0  0  0
   27.8350   10.9038   29.5568 C   0  0  0  0  0  0  0  0  0  0  0  0
   27.7960    9.4032   29.8030 C   0  0  0  0  0  0  0  0  0  0  0  0
   24.2207    7.7151   31.0572 N   0  0  0  0  0  0  0  0  0  0  0  0
   23.3620    6.8052   31.6081 C   0  0  0  0  0  0  0  0  0  0  0  0
   22.4283    7.4959   32.3544 C   0  0  0  0  0  0  0  0  0  0  0  0
   22.6838    8.8832   32.1784 C   0  0  0  0  0  0  0  0  0  0  0  0
   23.7614    8.9798   31.3267 C   0  0  0  0  0  0  0  0  0  0  0  0
   25.9459    4.8828   31.1932 N   0  0  0  0  0  0  0  0  0  0  0  0
   26.8336    3.8492   31.3605 C   0  0  0  0  0  0  0  0  0  0  0  0
   26.1494    2.7672   31.8695 C   0  0  0  0  0  0  0  0  0  0  0  0
   24.7924    3.1605   31.9923 C   0  0  0  0  0  0  0  0  0  0  0  0
   24.6904    4.4552   31.5292 C   0  0  0  0  0  0  0  0  0  0  0  0
   28.1844    6.3421   30.3216 N   0  0  0  0  0  0  0  0  0  0  0  0
   29.0627    7.3073   29.8927 C   0  0  0  0  0  0  0  0  0  0  0  0
   30.3469    6.6199   29.7611 C   0  0  0  0  0  0  0  0  0  0  0  0
   30.2095    5.3543   30.1394 C   0  0  0  0  0  0  0  0  0  0  0  0
   28.8304    5.1466   30.5122 C   0  0  0  0  0  0  0  0  0  0  0  0
   28.9369    8.6522   29.6380 C   0  0  0  0  0  0  0  0  0  0  0  0
   24.4322   10.2680   30.7181 C   0  0  0  0  0  0  0  0  0  0  0  0
   23.3716    5.2673   31.3652 C   0  0  0  0  0  0  0  0  0  0  0  0
   28.3624    3.9545   30.9713 C   0  0  0  0  0  0  0  0  0  0  0  0
   30.1535    9.3800   29.1605 C   0  0  0  0  0  0  0  0  0  0  0  0
   31.0272   10.0056   30.0644 C   0  0  0  0  0  0  0  0  0  0  0  0
   32.1383   10.6941   29.5882 C   0  0  0  0  0  0  0  0  0  0  0  0
   32.4050   10.7614   28.2199 C   0  0  0  0  0  0  0  0  0  0  0  0
   31.5476   10.1340   27.3163 C   0  0  0  0  0  0  0  0  0  0  0  0
   30.4267    9.4471   27.7847 C   0  0  0  0  0  0  0  0  0  0  0  0
   29.2324    2.7802   31.1827 C   0  0  0  0  0  0  0  0  0  0  0  0
   29.8340    2.5848   32.4342 C   0  0  0  0  0  0  0  0  0  0  0  0
   30.6527    1.4780   32.6394 C   0  0  0  0  0  0  0  0  0  0  0  0
   30.8799    0.5559   31.6209 C   0  0  0  0  0  0  0  0  0  0  0  0
   30.2896    0.7514   30.3712 C   0  0  0  0  0  0  0  0  0  0  0  0
   29.4678    1.8611   30.1512 C   0  0  0  0  0  0  0  0  0  0  0  0
   31.2644    1.2706   33.8456 O   0  0  0  0  0  0  0  0  0  0  0  0
   32.9613   11.3050   30.4932 O   0  0  0  0  0  0  0  0  0  0  0  0
   21.5253   13.1062   28.0088 O   0  0  0  0  0  0  0  0  0  0  0  0
   19.3750    2.5147   31.6016 O   0  0  0  0  0  0  0  0  0  0  0  0
   24.0328   12.2418   32.5234 H   0  0  0  0  0  0  0  0  0  0  0  0
   23.0646   10.9817   28.5466 H   0  0  0  0  0  0  0  0  0  0  0  0
   21.4531   14.6783   30.0684 H   0  0  0  0  0  0  0  0  0  0  0  0
   22.6404   14.2872   32.2285 H   0  0  0  0  0  0  0  0  0  0  0  0
   21.5124    3.6636   32.5095 H   0  0  0  0  0  0  0  0  0  0  0  0
   19.0729    3.1011   29.0046 H   0  0  0  0  0  0  0  0  0  0  0  0
   20.6252    4.5173   27.6997 H   0  0  0  0  0  0  0  0  0  0  0  0
   22.6145    5.5246   28.7891 H   0  0  0  0  0  0  0  0  0  0  0  0
   26.2774   12.2698   30.1271 H   0  0  0  0  0  0  0  0  0  0  0  0
   26.0155   11.4690   28.5616 H   0  0  0  0  0  0  0  0  0  0  0  0
   28.3839   11.4045   30.3635 H   0  0  0  0  0  0  0  0  0  0  0  0
   28.2787   11.1860   28.5982 H   0  0  0  0  0  0  0  0  0  0  0  0
   25.0790    7.5657   30.5229 H   0  0  0  0  0  0  0  0  0  0  0  0
   21.6274    7.0512   32.9258 H   0  0  0  0  0  0  0  0  0  0  0  0
   22.1324    9.7113   32.5980 H   0  0  0  0  0  0  0  0  0  0  0  0
   26.2500    5.7891   30.8338 H   0  0  0  0  0  0  0  0  0  0  0  0
   26.5785    1.8045   32.1085 H   0  0  0  0  0  0  0  0  0  0  0  0
   23.9758    2.5457   32.3367 H   0  0  0  0  0  0  0  0  0  0  0  0
   31.2762    7.0690   29.4511 H   0  0  0  0  0  0  0  0  0  0  0  0
   30.9987    4.6240   30.1763 H   0  0  0  0  0  0  0  0  0  0  0  0
   30.8107    9.9488   31.1287 H   0  0  0  0  0  0  0  0  0  0  0  0
   33.2724   11.2912   27.8455 H   0  0  0  0  0  0  0  0  0  0  0  0
   31.7404   10.1771   26.2498 H   0  0  0  0  0  0  0  0  0  0  0  0
   29.7432    8.9517   27.0976 H   0  0  0  0  0  0  0  0  0  0  0  0
   29.6480    3.3141   33.2187 H   0  0  0  0  0  0  0  0  0  0  0  0
   31.5225   -0.3013   31.7978 H   0  0  0  0  0  0  0  0  0  0  0  0
   30.4765    0.0513   29.5635 H   0  0  0  0  0  0  0  0  0  0  0  0
   29.0113    2.0283   29.1752 H   0  0  0  0  0  0  0  0  0  0  0  0
   31.0513    2.0452   34.3938 H   0  0  0  0  0  0  0  0  0  0  0  0
   33.6269   11.7980   29.9956 H   0  0  0  0  0  0  0  0  0  0  0  0
   21.7837   12.3982   27.3933 H   0  0  0  0  0  0  0  0  0  0  0  0
   18.6473    2.2088   31.0340 H   0  0  0  0  0  0  0  0  0  0  0  0
 25 26  2  0
 26 27  1  0
 27 23  1  0
 28 29  1  0
  1  2  2  0
  3  4  2  0
  7  8  2  0
 14 15  1  0
 29 30  1  0
 30 31  2  0
 31 32  1  0
 32 28  2  0
 15 16  1  0
 29 33  2  0
 17 33  1  0
 16 17  1  0
 14 34  2  0
 22 34  1  0
 17 13  2  0
 27 35  2  0
 19 35  1  0
 18 19  1  0
 24 36  2  0
 32 36  1  0
  8  9  1  0
  4  5  1  0
 37 38  2  0
  9 10  2  0
 38 39  1  0
  2  3  1  0
 39 40  2  0
 10 11  1  0
 40 41  1  0
 19 20  2  0
 41 42  2  0
 42 37  1  0
 33 37  1  0
 20 21  1  0
 21 22  2  0
 43 44  2  0
 22 18  1  0
 44 45  1  0
 23 24  1  0
 45 46  2  0
  5  6  2  0
 46 47  1  0
 11 12  2  0
 47 48  2  0
 48 43  1  0
 36 43  1  0
 12  7  1  0
 45 49  1  0
 13 14  1  0
 39 50  1  0
 35 12  1  0
 34  2  1  0
  6  1  1  0
  4 51  1  0
 24 25  1  0
  8 52  1  0
  1 53  1  0
  3 54  1  0
  5 55  1  0
  6 56  1  0
  7 57  1  0
  9 58  1  0
 10 59  1  0
 11 60  1  0
 15 61  1  0
 15 62  1  0
 16 63  1  0
 16 64  1  0
 18 65  1  0
 20 66  1  0
 21 67  1  0
 23 68  1  0
 25 69  1  0
 26 70  1  0
 30 71  1  0
 31 72  1  0
 38 73  1  0
 40 74  1  0
 41 75  1  0
 42 76  1  0
 44 77  1  0
 46 78  1  0
 47 79  1  0
 48 80  1  0
 49 81  1  0
 50 82  1  0
 51 83  1  0
 52 84  1  0
M  END
> <Uni-Dock RESULT> 
ENERGY=   -4.853  LOWER_BOUND=    2.223  UPPER_BOUND=    7.952
INTER + INTRA:          -4.853
INTER:                  -4.853
INTRA:                   0.000
UNBOUND:                 0.000

$$$$

     RDKit          3D

 84 92  0  0  0  0  0  0  0  0999 V2000
   25.5613   14.5524   24.4274 C   0  0  0  0  0  0  0  0  0  0  0  0
   26.2862   14.5666   25.6250 C   0  0  0  0  0  0  0  0  0  0  0  0
   26.6324   15.7914   26.2095 C   0  0  0  0  0  0  0  0  0  0  0  0
   26.2569   16.9808   25.5924 C   0  0  0  0  0  0  0  0  0  0  0  0
   25.5428   16.9716   24.3979 C   0  0  0  0  0  0  0  0  0  0  0  0
   25.1914   15.7532   23.8139 C   0  0  0  0  0  0  0  0  0  0  0  0
   33.5480   11.1843   26.2097 C   0  0  0  0  0  0  0  0  0  0  0  0
   34.7321   11.9021   26.3395 C   0  0  0  0  0  0  0  0  0  0  0  0
   34.8251   12.9699   27.2287 C   0  0  0  0  0  0  0  0  0  0  0  0
   33.7151   13.3195   28.0014 C   0  0  0  0  0  0  0  0  0  0  0  0
   32.5206   12.6048   27.8760 C   0  0  0  0  0  0  0  0  0  0  0  0
   32.4314   11.5318   26.9809 C   0  0  0  0  0  0  0  0  0  0  0  0
   26.3080   11.6734   28.0772 N   0  0  0  0  0  0  0  0  0  0  0  0
   26.0076   12.7644   27.3156 C   0  0  0  0  0  0  0  0  0  0  0  0
   24.7316   13.3806   27.8149 C   0  0  0  0  0  0  0  0  0  0  0  0
   24.1413   12.2958   28.6781 C   0  0  0  0  0  0  0  0  0  0  0  0
   25.2999   11.3453   28.9392 C   0  0  0  0  0  0  0  0  0  0  0  0
   28.7672   11.8240   26.7137 N   0  0  0  0  0  0  0  0  0  0  0  0
   29.9680   11.5149   26.1378 C   0  0  0  0  0  0  0  0  0  0  0  0
   29.9706   12.0244   24.8548 C   0  0  0  0  0  0  0  0  0  0  0  0
   28.7561   12.7419   24.6788 C   0  0  0  0  0  0  0  0  0  0  0  0
   28.0654   12.6435   25.8659 C   0  0  0  0  0  0  0  0  0  0  0  0
   29.8383    9.1437   28.3525 N   0  0  0  0  0  0  0  0  0  0  0  0
   30.0560    7.9430   28.9813 C   0  0  0  0  0  0  0  0  0  0  0  0
   31.2815    7.4585   28.5798 C   0  0  0  0  0  0  0  0  0  0  0  0
   31.8309    8.4174   27.6911 C   0  0  0  0  0  0  0  0  0  0  0  0
   30.9373    9.4638   27.6029 C   0  0  0  0  0  0  0  0  0  0  0  0
   27.3649    9.1169   29.6873 N   0  0  0  0  0  0  0  0  0  0  0  0
   26.0996    9.3743   30.1560 C   0  0  0  0  0  0  0  0  0  0  0  0
   25.8232    8.3011   31.1104 C   0  0  0  0  0  0  0  0  0  0  0  0
   26.8531    7.4632   31.1411 C   0  0  0  0  0  0  0  0  0  0  0  0
   27.8586    7.9578   30.2308 C   0  0  0  0  0  0  0  0  0  0  0  0
   25.1659   10.3420   29.8710 C   0  0  0  0  0  0  0  0  0  0  0  0
   26.6977   13.3079   26.2756 C   0  0  0  0  0  0  0  0  0  0  0  0
   31.1633   10.7978   26.8316 C   0  0  0  0  0  0  0  0  0  0  0  0
   29.0356    7.3117   30.0108 C   0  0  0  0  0  0  0  0  0  0  0  0
   23.8722   10.2935   30.6204 C   0  0  0  0  0  0  0  0  0  0  0  0
   22.7649    9.5940   30.1138 C   0  0  0  0  0  0  0  0  0  0  0  0
   21.5683    9.5862   30.8231 C   0  0  0  0  0  0  0  0  0  0  0  0
   21.4558   10.2557   32.0425 C   0  0  0  0  0  0  0  0  0  0  0  0
   22.5541   10.9442   32.5576 C   0  0  0  0  0  0  0  0  0  0  0  0
   23.7563   10.9635   31.8492 C   0  0  0  0  0  0  0  0  0  0  0  0
   29.3691    6.0181   30.6401 C   0  0  0  0  0  0  0  0  0  0  0  0
   29.0381    4.8256   29.9809 C   0  0  0  0  0  0  0  0  0  0  0  0
   29.3528    3.6037   30.5686 C   0  0  0  0  0  0  0  0  0  0  0  0
   29.9982    3.5463   31.8012 C   0  0  0  0  0  0  0  0  0  0  0  0
   30.3218    4.7312   32.4644 C   0  0  0  0  0  0  0  0  0  0  0  0
   30.0079    5.9651   31.8863 C   0  0  0  0  0  0  0  0  0  0  0  0
   29.0282    2.4247   29.9549 O   0  0  0  0  0  0  0  0  0  0  0  0
   20.5045    8.9083   30.2954 O   0  0  0  0  0  0  0  0  0  0  0  0
   26.5765   18.1879   26.1459 O   0  0  0  0  0  0  0  0  0  0  0  0
   35.7971   11.5278   25.5667 O   0  0  0  0  0  0  0  0  0  0  0  0
   25.2909   13.5956   23.9838 H   0  0  0  0  0  0  0  0  0  0  0  0
   27.1896   15.7785   27.1413 H   0  0  0  0  0  0  0  0  0  0  0  0
   25.2505   17.9100   23.9360 H   0  0  0  0  0  0  0  0  0  0  0  0
   24.6260   15.7327   22.8883 H   0  0  0  0  0  0  0  0  0  0  0  0
   33.4852   10.3597   25.5071 H   0  0  0  0  0  0  0  0  0  0  0  0
   35.7442   13.5365   27.3393 H   0  0  0  0  0  0  0  0  0  0  0  0
   33.7740   14.1473   28.7042 H   0  0  0  0  0  0  0  0  0  0  0  0
   31.6505   12.8843   28.4702 H   0  0  0  0  0  0  0  0  0  0  0  0
   24.0347   13.6546   27.0169 H   0  0  0  0  0  0  0  0  0  0  0  0
   24.9407   14.2738   28.4157 H   0  0  0  0  0  0  0  0  0  0  0  0
   23.3439   11.7778   28.1315 H   0  0  0  0  0  0  0  0  0  0  0  0
   23.7188   12.7414   29.5827 H   0  0  0  0  0  0  0  0  0  0  0  0
   28.3796   11.5368   27.6146 H   0  0  0  0  0  0  0  0  0  0  0  0
   30.7754   11.9267   24.1418 H   0  0  0  0  0  0  0  0  0  0  0  0
   28.4363   13.2878   23.8038 H   0  0  0  0  0  0  0  0  0  0  0  0
   28.9772    9.6719   28.5030 H   0  0  0  0  0  0  0  0  0  0  0  0
   31.7301    6.5301   28.9035 H   0  0  0  0  0  0  0  0  0  0  0  0
   32.7945    8.3662   27.2090 H   0  0  0  0  0  0  0  0  0  0  0  0
   24.9127    8.1732   31.6726 H   0  0  0  0  0  0  0  0  0  0  0  0
   26.9106    6.5650   31.7305 H   0  0  0  0  0  0  0  0  0  0  0  0
   22.8616    9.0762   29.1622 H   0  0  0  0  0  0  0  0  0  0  0  0
   20.5277   10.2468   32.6009 H   0  0  0  0  0  0  0  0  0  0  0  0
   22.4831   11.4700   33.5036 H   0  0  0  0  0  0  0  0  0  0  0  0
   24.6255   11.4956   32.2312 H   0  0  0  0  0  0  0  0  0  0  0  0
   28.5333    4.8869   29.0200 H   0  0  0  0  0  0  0  0  0  0  0  0
   30.2351    2.5846   32.2459 H   0  0  0  0  0  0  0  0  0  0  0  0
   30.8053    4.6990   33.4353 H   0  0  0  0  0  0  0  0  0  0  0  0
   30.2467    6.8957   32.4018 H   0  0  0  0  0  0  0  0  0  0  0  0
   28.5247    2.6640   29.1580 H   0  0  0  0  0  0  0  0  0  0  0  0
   19.7426    9.0710   30.8670 H   0  0  0  0  0  0  0  0  0  0  0  0
   27.0055   17.9973   26.9982 H   0  0  0  0  0  0  0  0  0  0  0  0
   36.5392   12.1223   25.7696 H   0  0  0  0  0  0  0  0  0  0  0  0
 25 26  2  0
 26 27  1  0
 27 23  1  0
 28 29  1  0
  1  2  2  0
  3  4  2  0
  7  8  2  0
 14 15  1  0
 29 30  1  0
 30 31  2  0
 31 32  1  0
 32 28  2  0
 15 16  1  0
 29 33  2  0
 17 33  1  0
 16 17  1  0
 14 34  2  0
 22 34  1  0
 17 13  2  0
 27 35  2  0
 19 35  1  0
 18 19  1  0
 24 36  2  0
 32 36  1  0
  8  9  1  0
  4  5  1  0
 37 38  2  0
  9 10  2  0
 38 39  1  0
  2  3  1  0
 39 40  2  0
 10 11  1  0
 40 41  1  0
 19 20  2  0
 41 42  2  0
 42 37  1  0
 33 37  1  0
 20 21  1  0
 21 22  2  0
 43 44  2  0
 22 18  1  0
 44 45  1  0
 23 24  1  0
 45 46  2  0
  5  6  2  0
 46 47  1  0
 11 12  2  0
 47 48  2  0
 48 43  1  0
 36 43  1  0
 12  7  1  0
 45 49  1  0
 13 14  1  0
 39 50  1  0
 35 12  1  0
 34  2  1  0
  6  1  1  0
  4 51  1  0
 24 25  1  0
  8 52  1  0
  1 53  1  0
  3 54  1  0
  5 55  1  0
  6 56  1  0
  7 57  1  0
  9 58  1  0
 10 59  1  0
 11 60  1  0
 15 61  1  0
 15 62  1  0
 16 63  1  0
 16 64  1  0
 18 65  1  0
 20 66  1  0
 21 67  1  0
 23 68  1  0
 25 69  1  0
 26 70  1  0
 30 71  1  0
 31 72  1  0
 38 73  1  0
 40 74  1  0
 41 75  1  0
 42 76  1  0
 44 77  1  0
 46 78  1  0
 47 79  1  0
 48 80  1  0
 49 81  1  0
 50 82  1  0
 51 83  1  0
 52 84  1  0
M  END
> <Uni-Dock RESULT> 
ENERGY=   -4.676  LOWER_BOUND=    3.675  UPPER_BOUND=   11.059
INTER + INTRA:          -4.676
INTER:                  -4.676
INTRA:                   0.000
UNBOUND:                 0.000

$$$$

     RDKit          3D

 84 92  0  0  0  0  0  0  0  0999 V2000
   23.3735    8.8226   32.1480 C   0  0  0  0  0  0  0  0  0  0  0  0
   23.8988    8.3712   30.9313 C   0  0  0  0  0  0  0  0  0  0  0  0
   23.1410    7.5098   30.1279 C   0  0  0  0  0  0  0  0  0  0  0  0
   21.8769    7.1080   30.5486 C   0  0  0  0  0  0  0  0  0  0  0  0
   21.3538    7.5481   31.7607 C   0  0  0  0  0  0  0  0  0  0  0  0
   22.1034    8.4105   32.5629 C   0  0  0  0  0  0  0  0  0  0  0  0
   30.7395    4.1766   30.5783 C   0  0  0  0  0  0  0  0  0  0  0  0
   30.8065    2.8225   30.2680 C   0  0  0  0  0  0  0  0  0  0  0  0
   30.0765    2.2976   29.2044 C   0  0  0  0  0  0  0  0  0  0  0  0
   29.2712    3.1445   28.4393 C   0  0  0  0  0  0  0  0  0  0  0  0
   29.1965    4.5062   28.7452 C   0  0  0  0  0  0  0  0  0  0  0  0
   29.9322    5.0299   29.8152 C   0  0  0  0  0  0  0  0  0  0  0  0
   26.5986   10.2230   29.0167 N   0  0  0  0  0  0  0  0  0  0  0  0
   25.4401    9.7911   29.5928 C   0  0  0  0  0  0  0  0  0  0  0  0
   24.2908   10.5980   29.0588 C   0  0  0  0  0  0  0  0  0  0  0  0
   24.9696   11.7851   28.4259 C   0  0  0  0  0  0  0  0  0  0  0  0
   26.4215   11.3570   28.2754 C   0  0  0  0  0  0  0  0  0  0  0  0
   27.6567    7.9021   30.2099 N   0  0  0  0  0  0  0  0  0  0  0  0
   28.5012    6.9844   30.7700 C   0  0  0  0  0  0  0  0  0  0  0  0
   27.9290    6.5377   31.9442 C   0  0  0  0  0  0  0  0  0  0  0  0
   26.6498    7.1479   32.0540 C   0  0  0  0  0  0  0  0  0  0  0  0
   26.4939    7.9384   30.9375 C   0  0  0  0  0  0  0  0  0  0  0  0
   30.6575    8.6532   29.0066 N   0  0  0  0  0  0  0  0  0  0  0  0
   31.8462    9.1945   28.5842 C   0  0  0  0  0  0  0  0  0  0  0  0
   32.8702    8.3731   29.0017 C   0  0  0  0  0  0  0  0  0  0  0  0
   32.2704    7.2837   29.6834 C   0  0  0  0  0  0  0  0  0  0  0  0
   30.9042    7.4627   29.6342 C   0  0  0  0  0  0  0  0  0  0  0  0
   29.4857   10.9162   27.8210 N   0  0  0  0  0  0  0  0  0  0  0  0
   28.6362   11.9009   27.3784 C   0  0  0  0  0  0  0  0  0  0  0  0
   29.4876   12.8317   26.6383 C   0  0  0  0  0  0  0  0  0  0  0  0
   30.7486   12.4201   26.7014 C   0  0  0  0  0  0  0  0  0  0  0  0
   30.7806   11.1933   27.4616 C   0  0  0  0  0  0  0  0  0  0  0  0
   27.2901   12.1285   27.5383 C   0  0  0  0  0  0  0  0  0  0  0  0
   25.2440    8.7843   30.4878 C   0  0  0  0  0  0  0  0  0  0  0  0
   29.8306    6.4602   30.1517 C   0  0  0  0  0  0  0  0  0  0  0  0
   31.9335   10.5228   27.7310 C   0  0  0  0  0  0  0  0  0  0  0  0
   26.7117   13.3375   26.8738 C   0  0  0  0  0  0  0  0  0  0  0  0
   26.6273   14.5665   27.5479 C   0  0  0  0  0  0  0  0  0  0  0  0
   26.0636   15.6673   26.9108 C   0  0  0  0  0  0  0  0  0  0  0  0
   25.5905   15.5705   25.6014 C   0  0  0  0  0  0  0  0  0  0  0  0
   25.6802   14.3561   24.9214 C   0  0  0  0  0  0  0  0  0  0  0  0
   26.2376   13.2446   25.5552 C   0  0  0  0  0  0  0  0  0  0  0  0
   33.2625   11.0168   27.3184 C   0  0  0  0  0  0  0  0  0  0  0  0
   33.9930   11.8382   28.1889 C   0  0  0  0  0  0  0  0  0  0  0  0
   35.2474   12.3042   27.8058 C   0  0  0  0  0  0  0  0  0  0  0  0
   35.7927   11.9620   26.5710 C   0  0  0  0  0  0  0  0  0  0  0  0
   35.0649   11.1514   25.6982 C   0  0  0  0  0  0  0  0  0  0  0  0
   33.8022   10.6796   26.0698 C   0  0  0  0  0  0  0  0  0  0  0  0
   35.9755   13.1192   28.6290 O   0  0  0  0  0  0  0  0  0  0  0  0
   25.9825   16.8456   27.5998 O   0  0  0  0  0  0  0  0  0  0  0  0
   21.1157    6.2740   29.7801 O   0  0  0  0  0  0  0  0  0  0  0  0
   31.6077    2.0264   31.0398 O   0  0  0  0  0  0  0  0  0  0  0  0
   23.9670    9.4972   32.7628 H   0  0  0  0  0  0  0  0  0  0  0  0
   23.5658    7.1769   29.1858 H   0  0  0  0  0  0  0  0  0  0  0  0
   20.3615    7.2311   32.0679 H   0  0  0  0  0  0  0  0  0  0  0  0
   21.7026    8.7688   33.5051 H   0  0  0  0  0  0  0  0  0  0  0  0
   31.3064    4.5723   31.4148 H   0  0  0  0  0  0  0  0  0  0  0  0
   30.1217    1.2429   28.9523 H   0  0  0  0  0  0  0  0  0  0  0  0
   28.6996    2.7504   27.6022 H   0  0  0  0  0  0  0  0  0  0  0  0
   28.5593    5.1655   28.1557 H   0  0  0  0  0  0  0  0  0  0  0  0
   23.5890   10.9269   29.8311 H   0  0  0  0  0  0  0  0  0  0  0  0
   23.7351   10.0297   28.3033 H   0  0  0  0  0  0  0  0  0  0  0  0
   24.8992   12.6531   29.0926 H   0  0  0  0  0  0  0  0  0  0  0  0
   24.4758   12.0240   27.4802 H   0  0  0  0  0  0  0  0  0  0  0  0
   27.7893    8.5008   29.3923 H   0  0  0  0  0  0  0  0  0  0  0  0
   28.3658    5.8201   32.6224 H   0  0  0  0  0  0  0  0  0  0  0  0
   25.9194    7.0065   32.8366 H   0  0  0  0  0  0  0  0  0  0  0  0
   29.7668    9.1128   28.8103 H   0  0  0  0  0  0  0  0  0  0  0  0
   33.9233    8.5354   28.8211 H   0  0  0  0  0  0  0  0  0  0  0  0
   32.7826    6.4399   30.1186 H   0  0  0  0  0  0  0  0  0  0  0  0
   29.1624   13.7371   26.1526 H   0  0  0  0  0  0  0  0  0  0  0  0
   31.5943   12.9293   26.2735 H   0  0  0  0  0  0  0  0  0  0  0  0
   26.9975   14.6321   28.5684 H   0  0  0  0  0  0  0  0  0  0  0  0
   25.1566   16.4269   25.0998 H   0  0  0  0  0  0  0  0  0  0  0  0
   25.3168   14.2639   23.9036 H   0  0  0  0  0  0  0  0  0  0  0  0
   26.3160   12.2868   25.0444 H   0  0  0  0  0  0  0  0  0  0  0  0
   33.5533   12.0975   29.1488 H   0  0  0  0  0  0  0  0  0  0  0  0
   36.7720   12.3354   26.2876 H   0  0  0  0  0  0  0  0  0  0  0  0
   35.4702   10.8957   24.7246 H   0  0  0  0  0  0  0  0  0  0  0  0
   33.2216   10.0551   25.3903 H   0  0  0  0  0  0  0  0  0  0  0  0
   35.4081   13.3051   29.3967 H   0  0  0  0  0  0  0  0  0  0  0  0
   25.4986   17.4735   27.0473 H   0  0  0  0  0  0  0  0  0  0  0  0
   21.6084    6.1321   28.9531 H   0  0  0  0  0  0  0  0  0  0  0  0
   31.5439    1.1174   30.7009 H   0  0  0  0  0  0  0  0  0  0  0  0
 25 26  2  0
 26 27  1  0
 27 23  1  0
 28 29  1  0
  1  2  2  0
  3  4  2  0
  7  8  2  0
 14 15  1  0
 29 30  1  0
 30 31  2  0
 31 32  1  0
 32 28  2  0
 15 16  1  0
 29 33  2  0
 17 33  1  0
 16 17  1  0
 14 34  2  0
 22 34  1  0
 17 13  2  0
 27 35  2  0
 19 35  1  0
 18 19  1  0
 24 36  2  0
 32 36  1  0
  8  9  1  0
  4  5  1  0
 37 38  2  0
  9 10  2  0
 38 39  1  0
  2  3  1  0
 39 40  2  0
 10 11  1  0
 40 41  1  0
 19 20  2  0
 41 42  2  0
 42 37  1  0
 33 37  1  0
 20 21  1  0
 21 22  2  0
 43 44  2  0
 22 18  1  0
 44 45  1  0
 23 24  1  0
 45 46  2  0
  5  6  2  0
 46 47  1  0
 11 12  2  0
 47 48  2  0
 48 43  1  0
 36 43  1  0
 12  7  1  0
 45 49  1  0
 13 14  1  0
 39 50  1  0
 35 12  1  0
 34  2  1  0
  6  1  1  0
  4 51  1  0
 24 25  1  0
  8 52  1  0
  1 53  1  0
  3 54  1  0
  5 55  1  0
  6 56  1  0
  7 57  1  0
  9 58  1  0
 10 59  1  0
 11 60  1  0
 15 61  1  0
 15 62  1  0
 16 63  1  0
 16 64  1  0
 18 65  1  0
 20 66  1  0
 21 67  1  0
 23 68  1  0
 25 69  1  0
 26 70  1  0
 30 71  1  0
 31 72  1  0
 38 73  1  0
 40 74  1  0
 41 75  1  0
 42 76  1  0
 44 77  1  0
 46 78  1  0
 47 79  1  0
 48 80  1  0
 49 81  1  0
 50 82  1  0
 51 83  1  0
 52 84  1  0
M  END
> <Uni-Dock RESULT> 
ENERGY=   -4.626  LOWER_BOUND=    3.352  UPPER_BOUND=    8.715
INTER + INTRA:          -4.626
INTER:                  -4.626
INTRA:                   0.000
UNBOUND:                 0.000

$$$$

     RDKit          3D

 84 92  0  0  0  0  0  0  0  0999 V2000
   27.0192   11.9033   25.9299 C   0  0  0  0  0  0  0  0  0  0  0  0
   27.2852   11.8360   27.3028 C   0  0  0  0  0  0  0  0  0  0  0  0
   27.5006   13.0170   28.0242 C   0  0  0  0  0  0  0  0  0  0  0  0
   27.4526   14.2439   27.3693 C   0  0  0  0  0  0  0  0  0  0  0  0
   27.1961   14.3151   26.0033 C   0  0  0  0  0  0  0  0  0  0  0  0
   26.9762   13.1410   25.2807 C   0  0  0  0  0  0  0  0  0  0  0  0
   33.6196    7.8284   30.1888 C   0  0  0  0  0  0  0  0  0  0  0  0
   34.7372    8.4387   30.7480 C   0  0  0  0  0  0  0  0  0  0  0  0
   34.5985    9.4805   31.6618 C   0  0  0  0  0  0  0  0  0  0  0  0
   33.3201    9.9130   32.0222 C   0  0  0  0  0  0  0  0  0  0  0  0
   32.1915    9.3066   31.4636 C   0  0  0  0  0  0  0  0  0  0  0  0
   32.3354    8.2594   30.5454 C   0  0  0  0  0  0  0  0  0  0  0  0
   26.2394    8.9143   29.4831 N   0  0  0  0  0  0  0  0  0  0  0  0
   26.3041   10.0389   28.7139 C   0  0  0  0  0  0  0  0  0  0  0  0
   24.9850   10.7556   28.7727 C   0  0  0  0  0  0  0  0  0  0  0  0
   24.0524    9.7128   29.3325 C   0  0  0  0  0  0  0  0  0  0  0  0
   24.9739    8.6616   29.9322 C   0  0  0  0  0  0  0  0  0  0  0  0
   29.0220    8.8722   29.0526 N   0  0  0  0  0  0  0  0  0  0  0  0
   30.3205    8.4691   28.9097 C   0  0  0  0  0  0  0  0  0  0  0  0
   30.8043    8.9963   27.7291 C   0  0  0  0  0  0  0  0  0  0  0  0
   29.7835    9.8190   27.1798 C   0  0  0  0  0  0  0  0  0  0  0  0
   28.7203    9.7625   28.0529 C   0  0  0  0  0  0  0  0  0  0  0  0
   29.2546    6.0841   30.8385 N   0  0  0  0  0  0  0  0  0  0  0  0
   29.1500    4.8595   31.4498 C   0  0  0  0  0  0  0  0  0  0  0  0
   30.3981    4.2768   31.4714 C   0  0  0  0  0  0  0  0  0  0  0  0
   31.2917    5.1982   30.8680 C   0  0  0  0  0  0  0  0  0  0  0  0
   30.5657    6.3193   30.5256 C   0  0  0  0  0  0  0  0  0  0  0  0
   26.4782    6.2512   31.2427 N   0  0  0  0  0  0  0  0  0  0  0  0
   25.1523    6.6100   31.2606 C   0  0  0  0  0  0  0  0  0  0  0  0
   24.4828    5.5502   32.0139 C   0  0  0  0  0  0  0  0  0  0  0  0
   25.3720    4.6258   32.3583 C   0  0  0  0  0  0  0  0  0  0  0  0
   26.6643    5.0453   31.8705 C   0  0  0  0  0  0  0  0  0  0  0  0
   24.4508    7.6593   30.7163 C   0  0  0  0  0  0  0  0  0  0  0  0
   27.3500   10.5365   27.9985 C   0  0  0  0  0  0  0  0  0  0  0  0
   31.1447    7.6404   29.9384 C   0  0  0  0  0  0  0  0  0  0  0  0
   27.7921    4.3032   32.0384 C   0  0  0  0  0  0  0  0  0  0  0  0
   22.9782    7.7116   30.9742 C   0  0  0  0  0  0  0  0  0  0  0  0
   22.0640    7.1186   30.0885 C   0  0  0  0  0  0  0  0  0  0  0  0
   20.6992    7.2036   30.3439 C   0  0  0  0  0  0  0  0  0  0  0  0
   20.2242    7.8614   31.4794 C   0  0  0  0  0  0  0  0  0  0  0  0
   21.1262    8.4440   32.3696 C   0  0  0  0  0  0  0  0  0  0  0  0
   22.4968    8.3700   32.1174 C   0  0  0  0  0  0  0  0  0  0  0  0
   27.7886    2.9760   32.6858 C   0  0  0  0  0  0  0  0  0  0  0  0
   27.6157    1.8270   31.9009 C   0  0  0  0  0  0  0  0  0  0  0  0
   27.6144    0.5734   32.5060 C   0  0  0  0  0  0  0  0  0  0  0  0
   27.7885    0.4413   33.8813 C   0  0  0  0  0  0  0  0  0  0  0  0
   27.9525    1.5833   34.6671 C   0  0  0  0  0  0  0  0  0  0  0  0
   27.9522    2.8485   34.0718 C   0  0  0  0  0  0  0  0  0  0  0  0
   27.4329   -0.5633   31.7666 O   0  0  0  0  0  0  0  0  0  0  0  0
   19.8346    6.6287   29.4542 O   0  0  0  0  0  0  0  0  0  0  0  0
   27.6524   15.4100   28.0517 O   0  0  0  0  0  0  0  0  0  0  0  0
   35.9716    7.9854   30.3710 O   0  0  0  0  0  0  0  0  0  0  0  0
   26.8466   10.9805   25.3785 H   0  0  0  0  0  0  0  0  0  0  0  0
   27.6993   12.9415   29.0890 H   0  0  0  0  0  0  0  0  0  0  0  0
   27.1534   15.2824   25.5113 H   0  0  0  0  0  0  0  0  0  0  0  0
   26.7651   13.1838   24.2175 H   0  0  0  0  0  0  0  0  0  0  0  0
   33.7406    7.0232   29.4713 H   0  0  0  0  0  0  0  0  0  0  0  0
   35.4633    9.9635   32.1055 H   0  0  0  0  0  0  0  0  0  0  0  0
   33.1956   10.7217   32.7386 H   0  0  0  0  0  0  0  0  0  0  0  0
   31.1938    9.6513   31.7356 H   0  0  0  0  0  0  0  0  0  0  0  0
   24.6293   11.1013   27.7974 H   0  0  0  0  0  0  0  0  0  0  0  0
   25.0413   11.6179   29.4478 H   0  0  0  0  0  0  0  0  0  0  0  0
   23.4557    9.2744   28.5234 H   0  0  0  0  0  0  0  0  0  0  0  0
   23.3790   10.1793   30.0565 H   0  0  0  0  0  0  0  0  0  0  0  0
   28.3266    8.6057   29.7526 H   0  0  0  0  0  0  0  0  0  0  0  0
   31.7959    8.8402   27.3314 H   0  0  0  0  0  0  0  0  0  0  0  0
   29.8278   10.4040   26.2734 H   0  0  0  0  0  0  0  0  0  0  0  0
   28.4373    6.6826   30.7081 H   0  0  0  0  0  0  0  0  0  0  0  0
   30.6355    3.3081   31.8876 H   0  0  0  0  0  0  0  0  0  0  0  0
   32.3556    5.0710   30.7434 H   0  0  0  0  0  0  0  0  0  0  0  0
   23.4274    5.4930   32.2240 H   0  0  0  0  0  0  0  0  0  0  0  0
   25.1541    3.7170   32.8913 H   0  0  0  0  0  0  0  0  0  0  0  0
   22.4434    6.6092   29.2056 H   0  0  0  0  0  0  0  0  0  0  0  0
   19.1626    7.9243   31.6852 H   0  0  0  0  0  0  0  0  0  0  0  0
   20.7734    8.9593   33.2564 H   0  0  0  0  0  0  0  0  0  0  0  0
   23.2186    8.8188   32.7973 H   0  0  0  0  0  0  0  0  0  0  0  0
   27.4798    1.9466   30.8289 H   0  0  0  0  0  0  0  0  0  0  0  0
   27.7835   -0.5442   34.3371 H   0  0  0  0  0  0  0  0  0  0  0  0
   28.0674    1.4942   35.7424 H   0  0  0  0  0  0  0  0  0  0  0  0
   28.0685    3.7469   34.6787 H   0  0  0  0  0  0  0  0  0  0  0  0
   27.2549   -0.2690   30.8569 H   0  0  0  0  0  0  0  0  0  0  0  0
   18.9370    6.8480   29.7368 H   0  0  0  0  0  0  0  0  0  0  0  0
   27.7452   15.1698   28.9901 H   0  0  0  0  0  0  0  0  0  0  0  0
   36.6410    8.5102   30.8419 H   0  0  0  0  0  0  0  0  0  0  0  0
 25 26  2  0
 26 27  1  0
 27 23  1  0
 28 29  1  0
  1  2  2  0
  3  4  2  0
  7  8  2  0
 14 15  1  0
 29 30  1  0
 30 31  2  0
 31 32  1  0
 32 28  2  0
 15 16  1  0
 29 33  2  0
 17 33  1  0
 16 17  1  0
 14 34  2  0
 22 34  1  0
 17 13  2  0
 27 35  2  0
 19 35  1  0
 18 19  1  0
 24 36  2  0
 32 36  1  0
  8  9  1  0
  4  5  1  0
 37 38  2  0
  9 10  2  0
 38 39  1  0
  2  3  1  0
 39 40  2  0
 10 11  1  0
 40 41  1  0
 19 20  2  0
 41 42  2  0
 42 37  1  0
 33 37  1  0
 20 21  1  0
 21 22  2  0
 43 44  2  0
 22 18  1  0
 44 45  1  0
 23 24  1  0
 45 46  2  0
  5  6  2  0
 46 47  1  0
 11 12  2  0
 47 48  2  0
 48 43  1  0
 36 43  1  0
 12  7  1  0
 45 49  1  0
 13 14  1  0
 39 50  1  0
 35 12  1  0
 34  2  1  0
  6  1  1  0
  4 51  1  0
 24 25  1  0
  8 52  1  0
  1 53  1  0
  3 54  1  0
  5 55  1  0
  6 56  1  0
  7 57  1  0
  9 58  1  0
 10 59  1  0
 11 60  1  0
 15 61  1  0
 15 62  1  0
 16 63  1  0
 16 64  1  0
 18 65  1  0
 20 66  1  0
 21 67  1  0
 23 68  1  0
 25 69  1  0
 26 70  1  0
 30 71  1  0
 31 72  1  0
 38 73  1  0
 40 74  1  0
 41 75  1  0
 42 76  1  0
 44 77  1  0
 46 78  1  0
 47 79  1  0
 48 80  1  0
 49 81  1  0
 50 82  1  0
 51 83  1  0
 52 84  1  0
M  END
> <Uni-Dock RESULT> 
ENERGY=   -4.609  LOWER_BOUND=    2.710  UPPER_BOUND=   10.449
INTER + INTRA:          -4.609
INTER:                  -4.609
INTRA:                   0.000
UNBOUND:                 0.000

$$$$

     RDKit          3D

 84 92  0  0  0  0  0  0  0  0999 V2000
   27.0958   12.5932   21.5481 C   0  0  0  0  0  0  0  0  0  0  0  0
   28.2770   11.9496   21.9357 C   0  0  0  0  0  0  0  0  0  0  0  0
   28.6713   10.7753   21.2820 C   0  0  0  0  0  0  0  0  0  0  0  0
   27.8837   10.2581   20.2580 C   0  0  0  0  0  0  0  0  0  0  0  0
   26.7048   10.8904   19.8745 C   0  0  0  0  0  0  0  0  0  0  0  0
   26.3099   12.0636   20.5199 C   0  0  0  0  0  0  0  0  0  0  0  0
   29.3535    9.2404   29.4201 C   0  0  0  0  0  0  0  0  0  0  0  0
   29.3732    7.8930   29.7643 C   0  0  0  0  0  0  0  0  0  0  0  0
   30.0926    6.9734   29.0051 C   0  0  0  0  0  0  0  0  0  0  0  0
   30.8054    7.4132   27.8872 C   0  0  0  0  0  0  0  0  0  0  0  0
   30.7896    8.7651   27.5330 C   0  0  0  0  0  0  0  0  0  0  0  0
   30.0651    9.6864   28.2990 C   0  0  0  0  0  0  0  0  0  0  0  0
   31.1344   13.7247   23.6874 N   0  0  0  0  0  0  0  0  0  0  0  0
   30.2185   13.2408   22.8000 C   0  0  0  0  0  0  0  0  0  0  0  0
   30.6213   13.6361   21.4076 C   0  0  0  0  0  0  0  0  0  0  0  0
   31.6377   14.7239   21.6401 C   0  0  0  0  0  0  0  0  0  0  0  0
   32.0368   14.5654   23.0994 C   0  0  0  0  0  0  0  0  0  0  0  0
   29.7611   12.0554   25.4922 N   0  0  0  0  0  0  0  0  0  0  0  0
   29.2367   11.5024   26.6272 C   0  0  0  0  0  0  0  0  0  0  0  0
   27.8919   11.2775   26.4112 C   0  0  0  0  0  0  0  0  0  0  0  0
   27.6118   11.6311   25.0632 C   0  0  0  0  0  0  0  0  0  0  0  0
   28.8010   12.0528   24.5118 C   0  0  0  0  0  0  0  0  0  0  0  0
   31.7813   13.0377   27.9357 N   0  0  0  0  0  0  0  0  0  0  0  0
   32.5824   13.6714   28.8528 C   0  0  0  0  0  0  0  0  0  0  0  0
   32.2567   13.2070   30.1082 C   0  0  0  0  0  0  0  0  0  0  0  0
   31.2339   12.2399   29.9355 C   0  0  0  0  0  0  0  0  0  0  0  0
   30.9911   12.1273   28.5829 C   0  0  0  0  0  0  0  0  0  0  0  0
   33.1077   14.6320   26.0386 N   0  0  0  0  0  0  0  0  0  0  0  0
   33.5340   15.2782   24.9038 C   0  0  0  0  0  0  0  0  0  0  0  0
   34.6384   16.1296   25.3445 C   0  0  0  0  0  0  0  0  0  0  0  0
   34.7930   16.0055   26.6577 C   0  0  0  0  0  0  0  0  0  0  0  0
   33.8180   15.0535   27.1343 C   0  0  0  0  0  0  0  0  0  0  0  0
   33.1084   15.2706   23.5968 C   0  0  0  0  0  0  0  0  0  0  0  0
   29.1082   12.4873   23.0297 C   0  0  0  0  0  0  0  0  0  0  0  0
   30.0287   11.1058   27.9077 C   0  0  0  0  0  0  0  0  0  0  0  0
   33.6958   14.7181   28.4472 C   0  0  0  0  0  0  0  0  0  0  0  0
   33.8580   16.1234   22.6229 C   0  0  0  0  0  0  0  0  0  0  0  0
   33.4628   17.4451   22.3604 C   0  0  0  0  0  0  0  0  0  0  0  0
   34.1666   18.2060   21.4325 C   0  0  0  0  0  0  0  0  0  0  0  0
   35.2722   17.6765   20.7653 C   0  0  0  0  0  0  0  0  0  0  0  0
   35.6774   16.3679   21.0281 C   0  0  0  0  0  0  0  0  0  0  0  0
   34.9728   15.5950   21.9521 C   0  0  0  0  0  0  0  0  0  0  0  0
   34.5112   15.3372   29.5113 C   0  0  0  0  0  0  0  0  0  0  0  0
   34.0382   16.4860   30.1614 C   0  0  0  0  0  0  0  0  0  0  0  0
   34.8017   17.0718   31.1671 C   0  0  0  0  0  0  0  0  0  0  0  0
   36.0283   16.5304   31.5431 C   0  0  0  0  0  0  0  0  0  0  0  0
   36.5065   15.3917   30.8925 C   0  0  0  0  0  0  0  0  0  0  0  0
   35.7506   14.7958   29.8783 C   0  0  0  0  0  0  0  0  0  0  0  0
   34.3716   18.2016   31.8079 O   0  0  0  0  0  0  0  0  0  0  0  0
   33.7474   19.4844   21.1885 O   0  0  0  0  0  0  0  0  0  0  0  0
   28.2500    9.1183   19.6006 O   0  0  0  0  0  0  0  0  0  0  0  0
   28.6640    7.5022   30.8669 O   0  0  0  0  0  0  0  0  0  0  0  0
   26.8005   13.5091   22.0575 H   0  0  0  0  0  0  0  0  0  0  0  0
   29.5940   10.2962   21.5951 H   0  0  0  0  0  0  0  0  0  0  0  0
   26.1080   10.4768   19.0668 H   0  0  0  0  0  0  0  0  0  0  0  0
   25.3984   12.5715   20.2233 H   0  0  0  0  0  0  0  0  0  0  0  0
   28.7822    9.9460   30.0146 H   0  0  0  0  0  0  0  0  0  0  0  0
   30.1162    5.9198   29.2647 H   0  0  0  0  0  0  0  0  0  0  0  0
   31.3764    6.7080   27.2877 H   0  0  0  0  0  0  0  0  0  0  0  0
   31.3362    9.1071   26.6541 H   0  0  0  0  0  0  0  0  0  0  0  0
   29.7921   14.0123   20.8008 H   0  0  0  0  0  0  0  0  0  0  0  0
   31.0815   12.7910   20.8818 H   0  0  0  0  0  0  0  0  0  0  0  0
   31.1756   15.7055   21.4796 H   0  0  0  0  0  0  0  0  0  0  0  0
   32.4659   14.6031   20.9367 H   0  0  0  0  0  0  0  0  0  0  0  0
   30.6953   12.4314   25.3181 H   0  0  0  0  0  0  0  0  0  0  0  0
   27.2007   10.8645   27.1305 H   0  0  0  0  0  0  0  0  0  0  0  0
   26.6653   11.5603   24.5484 H   0  0  0  0  0  0  0  0  0  0  0  0
   31.8520   13.2448   26.9381 H   0  0  0  0  0  0  0  0  0  0  0  0
   32.7151   13.5198   31.0356 H   0  0  0  0  0  0  0  0  0  0  0  0
   30.7639   11.6585   30.7131 H   0  0  0  0  0  0  0  0  0  0  0  0
   35.2144   16.7926   24.7200 H   0  0  0  0  0  0  0  0  0  0  0  0
   35.5102   16.5400   27.2557 H   0  0  0  0  0  0  0  0  0  0  0  0
   32.5993   17.8488   22.8842 H   0  0  0  0  0  0  0  0  0  0  0  0
   35.8267   18.2677   20.0468 H   0  0  0  0  0  0  0  0  0  0  0  0
   36.5342   15.9412   20.5179 H   0  0  0  0  0  0  0  0  0  0  0  0
   35.2700   14.5712   22.1714 H   0  0  0  0  0  0  0  0  0  0  0  0
   33.0794   16.8974   29.8558 H   0  0  0  0  0  0  0  0  0  0  0  0
   36.6117   17.0009   32.3288 H   0  0  0  0  0  0  0  0  0  0  0  0
   37.4708   14.9733   31.1620 H   0  0  0  0  0  0  0  0  0  0  0  0
   36.1209   13.9127   29.3567 H   0  0  0  0  0  0  0  0  0  0  0  0
   33.5484   18.4679   31.3637 H   0  0  0  0  0  0  0  0  0  0  0  0
   34.2889   19.8366   20.4699 H   0  0  0  0  0  0  0  0  0  0  0  0
   29.1208    8.8632   19.9520 H   0  0  0  0  0  0  0  0  0  0  0  0
   28.7748    6.5418   30.9705 H   0  0  0  0  0  0  0  0  0  0  0  0
 25 26  2  0
 26 27  1  0
 27 23  1  0
 28 29  1  0
  1  2  2  0
  3  4  2  0
  7  8  2  0
 14 15  1  0
 29 30  1  0
 30 31  2  0
 31 32  1  0
 32 28  2  0
 15 16  1  0
 29 33  2  0
 17 33  1  0
 16 17  1  0
 14 34  2  0
 22 34  1  0
 17 13  2  0
 27 35  2  0
 19 35  1  0
 18 19  1  0
 24 36  2  0
 32 36  1  0
  8  9  1  0
  4  5  1  0
 37 38  2  0
  9 10  2  0
 38 39  1  0
  2  3  1  0
 39 40  2  0
 10 11  1  0
 40 41  1  0
 19 20  2  0
 41 42  2  0
 42 37  1  0
 33 37  1  0
 20 21  1  0
 21 22  2  0
 43 44  2  0
 22 18  1  0
 44 45  1  0
 23 24  1  0
 45 46  2  0
  5  6  2  0
 46 47  1  0
 11 12  2  0
 47 48  2  0
 48 43  1  0
 36 43  1  0
 12  7  1  0
 45 49  1  0
 13 14  1  0
 39 50  1  0
 35 12  1  0
 34  2  1  0
  6  1  1  0
  4 51  1  0
 24 25  1  0
  8 52  1  0
  1 53  1  0
  3 54  1  0
  5 55  1  0
  6 56  1  0
  7 57  1  0
  9 58  1  0
 10 59  1  0
 11 60  1  0
 15 61  1  0
 15 62  1  0
 16 63  1  0
 16 64  1  0
 18 65  1  0
 20 66  1  0
 21 67  1  0
 23 68  1  0
 25 69  1  0
 26 70  1  0
 30 71  1  0
 31 72  1  0
 38 73  1  0
 40 74  1  0
 41 75  1  0
 42 76  1  0
 44 77  1  0
 46 78  1  0
 47 79  1  0
 48 80  1  0
 49 81  1  0
 50 82  1  0
 51 83  1  0
 52 84  1  0
M  END
> <Uni-Dock RESULT> 
ENERGY=   -4.496  LOWER_BOUND=    6.574  UPPER_BOUND=   12.446
INTER + INTRA:          -4.496
INTER:                  -4.496
INTRA:                   0.000
UNBOUND:                 0.000

$$$$
