
     RDKit          3D

 84 92  0  0  0  0  0  0  0  0999 V2000
   22.0329    4.1774   32.7905 C   0  0  0  0  0  0  0  0  0  0  0  0
   22.4928    4.4308   31.4910 C   0  0  0  0  0  0  0  0  0  0  0  0
   21.7338    4.0044   30.3970 C   0  0  0  0  0  0  0  0  0  0  0  0
   20.5445    3.3159   30.6110 C   0  0  0  0  0  0  0  0  0  0  0  0
   20.0860    3.0581   31.9031 C   0  0  0  0  0  0  0  0  0  0  0  0
   20.8330    3.4944   32.9962 C   0  0  0  0  0  0  0  0  0  0  0  0
   23.6109   11.4000   28.8688 C   0  0  0  0  0  0  0  0  0  0  0  0
   23.0410   12.6615   28.7204 C   0  0  0  0  0  0  0  0  0  0  0  0
   23.5735   13.7666   29.3742 C   0  0  0  0  0  0  0  0  0  0  0  0
   24.6941   13.6117   30.1903 C   0  0  0  0  0  0  0  0  0  0  0  0
   25.2737   12.3499   30.3466 C   0  0  0  0  0  0  0  0  0  0  0  0
   24.7322   11.2362   29.6922 C   0  0  0  0  0  0  0  0  0  0  0  0
   26.2234    4.9289   31.0676 N   0  0  0  0  0  0  0  0  0  0  0  0
   24.9608    4.4572   31.2685 C   0  0  0  0  0  0  0  0  0  0  0  0
   25.0196    2.9652   31.4520 C   0  0  0  0  0  0  0  0  0  0  0  0
   26.4631    2.7340   31.8132 C   0  0  0  0  0  0  0  0  0  0  0  0
   27.1709    3.9619   31.2660 C   0  0  0  0  0  0  0  0  0  0  0  0
   24.8278    7.3787   30.4875 N   0  0  0  0  0  0  0  0  0  0  0  0
   24.5054    8.7134   30.4414 C   0  0  0  0  0  0  0  0  0  0  0  0
   23.2766    8.8645   31.0646 C   0  0  0  0  0  0  0  0  0  0  0  0
   22.8158    7.5826   31.4443 C   0  0  0  0  0  0  0  0  0  0  0  0
   23.7872    6.6866   31.0665 C   0  0  0  0  0  0  0  0  0  0  0  0
   27.7337    8.7647   29.6604 N   0  0  0  0  0  0  0  0  0  0  0  0
   28.8956    8.9816   28.9546 C   0  0  0  0  0  0  0  0  0  0  0  0
   28.6861   10.0021   28.0590 C   0  0  0  0  0  0  0  0  0  0  0  0
   27.3560   10.4444   28.2530 C   0  0  0  0  0  0  0  0  0  0  0  0
   26.7982    9.6855   29.2691 C   0  0  0  0  0  0  0  0  0  0  0  0
   28.9679    6.2386   30.1424 N   0  0  0  0  0  0  0  0  0  0  0  0
   29.2878    4.9855   30.5990 C   0  0  0  0  0  0  0  0  0  0  0  0
   30.7379    4.8873   30.4618 C   0  0  0  0  0  0  0  0  0  0  0  0
   31.2041    6.0135   29.9316 C   0  0  0  0  0  0  0  0  0  0  0  0
   30.0845    6.8921   29.6984 C   0  0  0  0  0  0  0  0  0  0  0  0
   28.5347    3.9482   31.0912 C   0  0  0  0  0  0  0  0  0  0  0  0
   23.7785    5.1260   31.2866 C   0  0  0  0  0  0  0  0  0  0  0  0
   25.3537    9.8981   29.8450 C   0  0  0  0  0  0  0  0  0  0  0  0
   30.2101    8.1241   29.1389 C   0  0  0  0  0  0  0  0  0  0  0  0
   29.2497    2.6837   31.4465 C   0  0  0  0  0  0  0  0  0  0  0  0
   29.6956    2.4452   32.7552 C   0  0  0  0  0  0  0  0  0  0  0  0
   30.3585    1.2586   33.0523 C   0  0  0  0  0  0  0  0  0  0  0  0
   30.5859    0.2974   32.0654 C   0  0  0  0  0  0  0  0  0  0  0  0
   30.1460    0.5281   30.7612 C   0  0  0  0  0  0  0  0  0  0  0  0
   29.4826    1.7167   30.4539 C   0  0  0  0  0  0  0  0  0  0  0  0
   31.5008    8.6904   28.6945 C   0  0  0  0  0  0  0  0  0  0  0  0
   32.1354    9.6881   29.4433 C   0  0  0  0  0  0  0  0  0  0  0  0
   33.3431   10.2198   29.0010 C   0  0  0  0  0  0  0  0  0  0  0  0
   33.9308    9.7756   27.8162 C   0  0  0  0  0  0  0  0  0  0  0  0
   33.3007    8.7825   27.0663 C   0  0  0  0  0  0  0  0  0  0  0  0
   32.0892    8.2441   27.5030 C   0  0  0  0  0  0  0  0  0  0  0  0
   33.9377   11.1893   29.7570 O   0  0  0  0  0  0  0  0  0  0  0  0
   30.7891    1.0566   34.3342 O   0  0  0  0  0  0  0  0  0  0  0  0
   19.8397    2.8863   29.5232 O   0  0  0  0  0  0  0  0  0  0  0  0
   21.9443   12.8486   27.9273 O   0  0  0  0  0  0  0  0  0  0  0  0
   22.6346    4.5063   33.6357 H   0  0  0  0  0  0  0  0  0  0  0  0
   22.0946    4.1936   29.3898 H   0  0  0  0  0  0  0  0  0  0  0  0
   19.1567    2.5275   32.0733 H   0  0  0  0  0  0  0  0  0  0  0  0
   20.4967    3.2976   34.0092 H   0  0  0  0  0  0  0  0  0  0  0  0
   23.2024   10.5320   28.3583 H   0  0  0  0  0  0  0  0  0  0  0  0
   23.1201   14.7442   29.2465 H   0  0  0  0  0  0  0  0  0  0  0  0
   25.1213   14.4685   30.7020 H   0  0  0  0  0  0  0  0  0  0  0  0
   26.1545   12.2269   30.9752 H   0  0  0  0  0  0  0  0  0  0  0  0
   24.7697    2.4590   30.5102 H   0  0  0  0  0  0  0  0  0  0  0  0
   24.3662    2.5790   32.2415 H   0  0  0  0  0  0  0  0  0  0  0  0
   26.7964    1.7851   31.3831 H   0  0  0  0  0  0  0  0  0  0  0  0
   26.5795    2.6877   32.9034 H   0  0  0  0  0  0  0  0  0  0  0  0
   25.6957    6.9095   30.2245 H   0  0  0  0  0  0  0  0  0  0  0  0
   22.7578    9.7977   31.2296 H   0  0  0  0  0  0  0  0  0  0  0  0
   21.8918    7.3404   31.9476 H   0  0  0  0  0  0  0  0  0  0  0  0
   27.6386    7.9778   30.3042 H   0  0  0  0  0  0  0  0  0  0  0  0
   29.4059   10.3747   27.3462 H   0  0  0  0  0  0  0  0  0  0  0  0
   26.8627   11.2430   27.7170 H   0  0  0  0  0  0  0  0  0  0  0  0
   31.3451    4.0484   30.7477 H   0  0  0  0  0  0  0  0  0  0  0  0
   32.2359    6.2259   29.7217 H   0  0  0  0  0  0  0  0  0  0  0  0
   29.5183    3.1981   33.5176 H   0  0  0  0  0  0  0  0  0  0  0  0
   31.1011   -0.6285   32.2912 H   0  0  0  0  0  0  0  0  0  0  0  0
   30.3160   -0.2051   29.9804 H   0  0  0  0  0  0  0  0  0  0  0  0
   29.1339    1.9205   29.4428 H   0  0  0  0  0  0  0  0  0  0  0  0
   31.6826   10.0334   30.3683 H   0  0  0  0  0  0  0  0  0  0  0  0
   34.8708   10.1870   27.4667 H   0  0  0  0  0  0  0  0  0  0  0  0
   33.7470    8.4188   26.1465 H   0  0  0  0  0  0  0  0  0  0  0  0
   31.5894    7.4649   26.9296 H   0  0  0  0  0  0  0  0  0  0  0  0
   34.7864   11.4079   29.3450 H   0  0  0  0  0  0  0  0  0  0  0  0
   31.2718    0.2185   34.3520 H   0  0  0  0  0  0  0  0  0  0  0  0
   19.2570    2.1706   29.8214 H   0  0  0  0  0  0  0  0  0  0  0  0
   21.7232   11.9846   27.5398 H   0  0  0  0  0  0  0  0  0  0  0  0
 25 26  2  0
 26 27  1  0
 27 23  1  0
 28 29  1  0
  1  2  2  0
  3  4  2  0
  7  8  2  0
 14 15  1  0
 29 30  1  0
 30 31  2  0
 31 32  1  0
 32 28  2  0
 15 16  1  0
 29 33  2  0
 17 33  1  0
 16 17  1  0
 14 34  2  0
 22 34  1  0
 17 13  2  0
 27 35  2  0
 19 35  1  0
 18 19  1  0
 24 36  2  0
 32 36  1  0
  8  9  1  0
  4  5  1  0
 37 38  2  0
  9 10  2  0
 38 39  1  0
  2  3  1  0
 39 40  2  0
 10 11  1  0
 40 41  1  0
 19 20  2  0
 41 42  2  0
 42 37  1  0
 33 37  1  0
 20 21  1  0
 21 22  2  0
 43 44  2  0
 22 18  1  0
 44 45  1  0
 23 24  1  0
 45 46  2  0
  5  6  2  0
 46 47  1  0
 11 12  2  0
 47 48  2  0
 48 43  1  0
 36 43  1  0
 12  7  1  0
 45 49  1  0
 13 14  1  0
 39 50  1  0
 35 12  1  0
 34  2  1  0
  6  1  1  0
  4 51  1  0
 24 25  1  0
  8 52  1  0
  1 53  1  0
  3 54  1  0
  5 55  1  0
  6 56  1  0
  7 57  1  0
  9 58  1  0
 10 59  1  0
 11 60  1  0
 15 61  1  0
 15 62  1  0
 16 63  1  0
 16 64  1  0
 18 65  1  0
 20 66  1  0
 21 67  1  0
 23 68  1  0
 25 69  1  0
 26 70  1  0
 30 71  1  0
 31 72  1  0
 38 73  1  0
 40 74  1  0
 41 75  1  0
 42 76  1  0
 44 77  1  0
 46 78  1  0
 47 79  1  0
 48 80  1  0
 49 81  1  0
 50 82  1  0
 51 83  1  0
 52 84  1  0
M  END
> <Uni-Dock RESULT> 
ENERGY=   -5.929  LOWER_BOUND=    0.000  UPPER_BOUND=    0.000
INTER + INTRA:          -5.929
INTER:                  -5.929
INTRA:                   0.000
UNBOUND:                 0.000

$$$$

     RDKit          3D

 84 92  0  0  0  0  0  0  0  0999 V2000
   29.5825    1.6475   30.3546 C   0  0  0  0  0  0  0  0  0  0  0  0
   29.4647    2.7422   31.2217 C   0  0  0  0  0  0  0  0  0  0  0  0
   30.1794    2.7484   32.4233 C   0  0  0  0  0  0  0  0  0  0  0  0
   30.9803    1.6603   32.7532 C   0  0  0  0  0  0  0  0  0  0  0  0
   31.0964    0.5670   31.8944 C   0  0  0  0  0  0  0  0  0  0  0  0
   30.3965    0.5639   30.6889 C   0  0  0  0  0  0  0  0  0  0  0  0
   31.4302    9.7311   29.2246 C   0  0  0  0  0  0  0  0  0  0  0  0
   32.4404   10.5102   28.6671 C   0  0  0  0  0  0  0  0  0  0  0  0
   32.2540   11.1569   27.4509 C   0  0  0  0  0  0  0  0  0  0  0  0
   31.0391   11.0250   26.7783 C   0  0  0  0  0  0  0  0  0  0  0  0
   30.0186   10.2451   27.3287 C   0  0  0  0  0  0  0  0  0  0  0  0
   30.2101    9.5889   28.5512 C   0  0  0  0  0  0  0  0  0  0  0  0
   26.3006    4.8055   30.9454 N   0  0  0  0  0  0  0  0  0  0  0  0
   27.2506    3.8539   31.1672 C   0  0  0  0  0  0  0  0  0  0  0  0
   26.6178    2.6868   31.8749 C   0  0  0  0  0  0  0  0  0  0  0  0
   25.1526    2.8815   31.5868 C   0  0  0  0  0  0  0  0  0  0  0  0
   25.0450    4.3610   31.2585 C   0  0  0  0  0  0  0  0  0  0  0  0
   28.5740    6.3691   30.1253 N   0  0  0  0  0  0  0  0  0  0  0  0
   29.3681    7.2411   29.4205 C   0  0  0  0  0  0  0  0  0  0  0  0
   30.4482    6.5194   28.9371 C   0  0  0  0  0  0  0  0  0  0  0  0
   30.3367    5.1915   29.4104 C   0  0  0  0  0  0  0  0  0  0  0  0
   29.1785    5.1317   30.1480 C   0  0  0  0  0  0  0  0  0  0  0  0
   26.5573    8.9827   29.7373 N   0  0  0  0  0  0  0  0  0  0  0  0
   25.6872    9.9927   30.0812 C   0  0  0  0  0  0  0  0  0  0  0  0
   26.3994   11.1571   30.2372 C   0  0  0  0  0  0  0  0  0  0  0  0
   27.7488   10.8490   29.9427 C   0  0  0  0  0  0  0  0  0  0  0  0
   27.8160    9.5066   29.6062 C   0  0  0  0  0  0  0  0  0  0  0  0
   24.4193    7.3554   30.6953 N   0  0  0  0  0  0  0  0  0  0  0  0
   23.5914    6.3113   31.0201 C   0  0  0  0  0  0  0  0  0  0  0  0
   22.2496    6.8853   31.0590 C   0  0  0  0  0  0  0  0  0  0  0  0
   22.3230    8.1864   30.7972 C   0  0  0  0  0  0  0  0  0  0  0  0
   23.7093    8.5186   30.5787 C   0  0  0  0  0  0  0  0  0  0  0  0
   23.8195    4.9838   31.2868 C   0  0  0  0  0  0  0  0  0  0  0  0
   28.5764    3.8676   30.8715 C   0  0  0  0  0  0  0  0  0  0  0  0
   29.1238    8.7717   29.1448 C   0  0  0  0  0  0  0  0  0  0  0  0
   24.1382    9.7798   30.3098 C   0  0  0  0  0  0  0  0  0  0  0  0
   22.6419    4.1433   31.6652 C   0  0  0  0  0  0  0  0  0  0  0  0
   21.9343    3.4093   30.7013 C   0  0  0  0  0  0  0  0  0  0  0  0
   20.8426    2.6378   31.0866 C   0  0  0  0  0  0  0  0  0  0  0  0
   20.4400    2.5809   32.4224 C   0  0  0  0  0  0  0  0  0  0  0  0
   21.1384    3.3090   33.3866 C   0  0  0  0  0  0  0  0  0  0  0  0
   22.2330    4.0876   33.0085 C   0  0  0  0  0  0  0  0  0  0  0  0
   23.2366   10.9480   30.2285 C   0  0  0  0  0  0  0  0  0  0  0  0
   22.9019   11.5031   28.9881 C   0  0  0  0  0  0  0  0  0  0  0  0
   22.0633   12.6124   28.9324 C   0  0  0  0  0  0  0  0  0  0  0  0
   21.5530   13.1846   30.0980 C   0  0  0  0  0  0  0  0  0  0  0  0
   21.8856   12.6351   31.3363 C   0  0  0  0  0  0  0  0  0  0  0  0
   22.7261   11.5226   31.4007 C   0  0  0  0  0  0  0  0  0  0  0  0
   21.7536   13.1273   27.7060 O   0  0  0  0  0  0  0  0  0  0  0  0
   20.1668    1.9394   30.1247 O   0  0  0  0  0  0  0  0  0  0  0  0
   31.6433    1.6820   33.9468 O   0  0  0  0  0  0  0  0  0  0  0  0
   33.6415   10.6619   29.3003 O   0  0  0  0  0  0  0  0  0  0  0  0
   29.0161    1.6483   29.4251 H   0  0  0  0  0  0  0  0  0  0  0  0
   30.0814    3.5934   33.0992 H   0  0  0  0  0  0  0  0  0  0  0  0
   31.7245   -0.2795   32.1455 H   0  0  0  0  0  0  0  0  0  0  0  0
   30.4684   -0.2803   30.0106 H   0  0  0  0  0  0  0  0  0  0  0  0
   31.5672    9.2252   30.1766 H   0  0  0  0  0  0  0  0  0  0  0  0
   33.0497   11.7631   27.0303 H   0  0  0  0  0  0  0  0  0  0  0  0
   30.8807   11.5293   25.8302 H   0  0  0  0  0  0  0  0  0  0  0  0
   29.0653   10.1478   26.8112 H   0  0  0  0  0  0  0  0  0  0  0  0
   26.8125    2.7491   32.9537 H   0  0  0  0  0  0  0  0  0  0  0  0
   26.9463    1.7059   31.5155 H   0  0  0  0  0  0  0  0  0  0  0  0
   24.5676    2.5623   32.4542 H   0  0  0  0  0  0  0  0  0  0  0  0
   24.8529    2.2811   30.7185 H   0  0  0  0  0  0  0  0  0  0  0  0
   27.6491    6.5152   30.5325 H   0  0  0  0  0  0  0  0  0  0  0  0
   31.2400    6.9033   28.3104 H   0  0  0  0  0  0  0  0  0  0  0  0
   31.0123    4.3701   29.2242 H   0  0  0  0  0  0  0  0  0  0  0  0
   26.2505    8.0106   29.6778 H   0  0  0  0  0  0  0  0  0  0  0  0
   25.9926   12.1111   30.5363 H   0  0  0  0  0  0  0  0  0  0  0  0
   28.5811   11.5384   29.9603 H   0  0  0  0  0  0  0  0  0  0  0  0
   21.3386    6.3516   31.2575 H   0  0  0  0  0  0  0  0  0  0  0  0
   21.4903    8.8636   30.7530 H   0  0  0  0  0  0  0  0  0  0  0  0
   22.2507    3.4601   29.6636 H   0  0  0  0  0  0  0  0  0  0  0  0
   19.5908    1.9814   32.7281 H   0  0  0  0  0  0  0  0  0  0  0  0
   20.8390    3.2799   34.4285 H   0  0  0  0  0  0  0  0  0  0  0  0
   22.7907    4.6672   33.7423 H   0  0  0  0  0  0  0  0  0  0  0  0
   23.2942   11.0576   28.0784 H   0  0  0  0  0  0  0  0  0  0  0  0
   20.9003   14.0492   30.0603 H   0  0  0  0  0  0  0  0  0  0  0  0
   21.4916   13.0617   32.2530 H   0  0  0  0  0  0  0  0  0  0  0  0
   22.9895   11.0810   32.3605 H   0  0  0  0  0  0  0  0  0  0  0  0
   21.1236   13.8507   27.8385 H   0  0  0  0  0  0  0  0  0  0  0  0
   19.4135    1.5080   30.5514 H   0  0  0  0  0  0  0  0  0  0  0  0
   31.8652    0.7645   34.1701 H   0  0  0  0  0  0  0  0  0  0  0  0
   33.5886   10.1634   30.1334 H   0  0  0  0  0  0  0  0  0  0  0  0
 25 26  2  0
 26 27  1  0
 27 23  1  0
 28 29  1  0
  1  2  2  0
  3  4  2  0
  7  8  2  0
 14 15  1  0
 29 30  1  0
 30 31  2  0
 31 32  1  0
 32 28  2  0
 15 16  1  0
 29 33  2  0
 17 33  1  0
 16 17  1  0
 14 34  2  0
 22 34  1  0
 17 13  2  0
 27 35  2  0
 19 35  1  0
 18 19  1  0
 24 36  2  0
 32 36  1  0
  8  9  1  0
  4  5  1  0
 37 38  2  0
  9 10  2  0
 38 39  1  0
  2  3  1  0
 39 40  2  0
 10 11  1  0
 40 41  1  0
 19 20  2  0
 41 42  2  0
 42 37  1  0
 33 37  1  0
 20 21  1  0
 21 22  2  0
 43 44  2  0
 22 18  1  0
 44 45  1  0
 23 24  1  0
 45 46  2  0
  5  6  2  0
 46 47  1  0
 11 12  2  0
 47 48  2  0
 48 43  1  0
 36 43  1  0
 12  7  1  0
 45 49  1  0
 13 14  1  0
 39 50  1  0
 35 12  1  0
 34  2  1  0
  6  1  1  0
  4 51  1  0
 24 25  1  0
  8 52  1  0
  1 53  1  0
  3 54  1  0
  5 55  1  0
  6 56  1  0
  7 57  1  0
  9 58  1  0
 10 59  1  0
 11 60  1  0
 15 61  1  0
 15 62  1  0
 16 63  1  0
 16 64  1  0
 18 65  1  0
 20 66  1  0
 21 67  1  0
 23 68  1  0
 25 69  1  0
 26 70  1  0
 30 71  1  0
 31 72  1  0
 38 73  1  0
 40 74  1  0
 41 75  1  0
 42 76  1  0
 44 77  1  0
 46 78  1  0
 47 79  1  0
 48 80  1  0
 49 81  1  0
 50 82  1  0
 51 83  1  0
 52 84  1  0
M  END
> <Uni-Dock RESULT> 
ENERGY=   -5.569  LOWER_BOUND=    1.122  UPPER_BOUND=    8.019
INTER + INTRA:          -5.569
INTER:                  -5.569
INTRA:                   0.000
UNBOUND:                 0.000

$$$$

     RDKit          3D

 84 92  0  0  0  0  0  0  0  0999 V2000
   29.5824    1.6472   30.3547 C   0  0  0  0  0  0  0  0  0  0  0  0
   29.4646    2.7419   31.2218 C   0  0  0  0  0  0  0  0  0  0  0  0
   30.1793    2.7481   32.4235 C   0  0  0  0  0  0  0  0  0  0  0  0
   30.9801    1.6599   32.7534 C   0  0  0  0  0  0  0  0  0  0  0  0
   31.0962    0.5666   31.8946 C   0  0  0  0  0  0  0  0  0  0  0  0
   30.3963    0.5635   30.6890 C   0  0  0  0  0  0  0  0  0  0  0  0
   31.4306    9.7307   29.2249 C   0  0  0  0  0  0  0  0  0  0  0  0
   32.4409   10.5097   28.6675 C   0  0  0  0  0  0  0  0  0  0  0  0
   32.2545   11.1565   27.4513 C   0  0  0  0  0  0  0  0  0  0  0  0
   31.0397   11.0247   26.7787 C   0  0  0  0  0  0  0  0  0  0  0  0
   30.0191   10.2448   27.3290 C   0  0  0  0  0  0  0  0  0  0  0  0
   30.2105    9.5886   28.5515 C   0  0  0  0  0  0  0  0  0  0  0  0
   26.3007    4.8054   30.9455 N   0  0  0  0  0  0  0  0  0  0  0  0
   27.2505    3.8538   31.1673 C   0  0  0  0  0  0  0  0  0  0  0  0
   26.6177    2.6867   31.8749 C   0  0  0  0  0  0  0  0  0  0  0  0
   25.1525    2.8815   31.5868 C   0  0  0  0  0  0  0  0  0  0  0  0
   25.0451    4.3610   31.2586 C   0  0  0  0  0  0  0  0  0  0  0  0
   28.5742    6.3689   30.1255 N   0  0  0  0  0  0  0  0  0  0  0  0
   29.3683    7.2408   29.4208 C   0  0  0  0  0  0  0  0  0  0  0  0
   30.4484    6.5191   28.9373 C   0  0  0  0  0  0  0  0  0  0  0  0
   30.3368    5.1912   29.4106 C   0  0  0  0  0  0  0  0  0  0  0  0
   29.1786    5.1314   30.1481 C   0  0  0  0  0  0  0  0  0  0  0  0
   26.5576    8.9826   29.7374 N   0  0  0  0  0  0  0  0  0  0  0  0
   25.6876    9.9926   30.0814 C   0  0  0  0  0  0  0  0  0  0  0  0
   26.3998   11.1570   30.2374 C   0  0  0  0  0  0  0  0  0  0  0  0
   27.7493   10.8488   29.9429 C   0  0  0  0  0  0  0  0  0  0  0  0
   27.8163    9.5064   29.6064 C   0  0  0  0  0  0  0  0  0  0  0  0
   24.4195    7.3554   30.6953 N   0  0  0  0  0  0  0  0  0  0  0  0
   23.5915    6.3113   31.0201 C   0  0  0  0  0  0  0  0  0  0  0  0
   22.2497    6.8854   31.0590 C   0  0  0  0  0  0  0  0  0  0  0  0
   22.3232    8.1865   30.7972 C   0  0  0  0  0  0  0  0  0  0  0  0
   23.7095    8.5186   30.5788 C   0  0  0  0  0  0  0  0  0  0  0  0
   23.8195    4.9839   31.2868 C   0  0  0  0  0  0  0  0  0  0  0  0
   28.5764    3.8674   30.8716 C   0  0  0  0  0  0  0  0  0  0  0  0
   29.1242    8.7715   29.1450 C   0  0  0  0  0  0  0  0  0  0  0  0
   24.1385    9.7798   30.3099 C   0  0  0  0  0  0  0  0  0  0  0  0
   22.6419    4.1434   31.6652 C   0  0  0  0  0  0  0  0  0  0  0  0
   21.9343    3.4095   30.7012 C   0  0  0  0  0  0  0  0  0  0  0  0
   20.8425    2.6380   31.0864 C   0  0  0  0  0  0  0  0  0  0  0  0
   20.4399    2.5811   32.4222 C   0  0  0  0  0  0  0  0  0  0  0  0
   21.1382    3.3092   33.3864 C   0  0  0  0  0  0  0  0  0  0  0  0
   22.2330    4.0876   33.0084 C   0  0  0  0  0  0  0  0  0  0  0  0
   23.2370   10.9480   30.2286 C   0  0  0  0  0  0  0  0  0  0  0  0
   22.9024   11.5032   28.9882 C   0  0  0  0  0  0  0  0  0  0  0  0
   22.0638   12.6125   28.9325 C   0  0  0  0  0  0  0  0  0  0  0  0
   21.5536   13.1847   30.0980 C   0  0  0  0  0  0  0  0  0  0  0  0
   21.8861   12.6352   31.3363 C   0  0  0  0  0  0  0  0  0  0  0  0
   22.7265   11.5227   31.4008 C   0  0  0  0  0  0  0  0  0  0  0  0
   21.7543   13.1275   27.7061 O   0  0  0  0  0  0  0  0  0  0  0  0
   20.1667    1.9397   30.1245 O   0  0  0  0  0  0  0  0  0  0  0  0
   31.6431    1.6815   33.9470 O   0  0  0  0  0  0  0  0  0  0  0  0
   33.6420   10.6614   29.3007 O   0  0  0  0  0  0  0  0  0  0  0  0
   29.0161    1.6481   29.4252 H   0  0  0  0  0  0  0  0  0  0  0  0
   30.0814    3.5930   33.0993 H   0  0  0  0  0  0  0  0  0  0  0  0
   31.7242   -0.2799   32.1457 H   0  0  0  0  0  0  0  0  0  0  0  0
   30.4682   -0.2807   30.0107 H   0  0  0  0  0  0  0  0  0  0  0  0
   31.5675    9.2248   30.1769 H   0  0  0  0  0  0  0  0  0  0  0  0
   33.0503   11.7627   27.0307 H   0  0  0  0  0  0  0  0  0  0  0  0
   30.8813   11.5290   25.8305 H   0  0  0  0  0  0  0  0  0  0  0  0
   29.0658   10.1476   26.8115 H   0  0  0  0  0  0  0  0  0  0  0  0
   26.8123    2.7489   32.9538 H   0  0  0  0  0  0  0  0  0  0  0  0
   26.9462    1.7058   31.5155 H   0  0  0  0  0  0  0  0  0  0  0  0
   24.5675    2.5623   32.4541 H   0  0  0  0  0  0  0  0  0  0  0  0
   24.8528    2.2810   30.7185 H   0  0  0  0  0  0  0  0  0  0  0  0
   27.6493    6.5150   30.5326 H   0  0  0  0  0  0  0  0  0  0  0  0
   31.2403    6.9029   28.3106 H   0  0  0  0  0  0  0  0  0  0  0  0
   31.0124    4.3697   29.2244 H   0  0  0  0  0  0  0  0  0  0  0  0
   26.2508    8.0105   29.6779 H   0  0  0  0  0  0  0  0  0  0  0  0
   25.9931   12.1110   30.5365 H   0  0  0  0  0  0  0  0  0  0  0  0
   28.5815   11.5382   29.9606 H   0  0  0  0  0  0  0  0  0  0  0  0
   21.3388    6.3517   31.2574 H   0  0  0  0  0  0  0  0  0  0  0  0
   21.4906    8.8637   30.7530 H   0  0  0  0  0  0  0  0  0  0  0  0
   22.2507    3.4603   29.6635 H   0  0  0  0  0  0  0  0  0  0  0  0
   19.5907    1.9817   32.7279 H   0  0  0  0  0  0  0  0  0  0  0  0
   20.8388    3.2801   34.4283 H   0  0  0  0  0  0  0  0  0  0  0  0
   22.7907    4.6672   33.7423 H   0  0  0  0  0  0  0  0  0  0  0  0
   23.2947   11.0577   28.0785 H   0  0  0  0  0  0  0  0  0  0  0  0
   20.9009   14.0494   30.0604 H   0  0  0  0  0  0  0  0  0  0  0  0
   21.4921   13.0619   32.2531 H   0  0  0  0  0  0  0  0  0  0  0  0
   22.9898   11.0810   32.3606 H   0  0  0  0  0  0  0  0  0  0  0  0
   21.1243   13.8510   27.8385 H   0  0  0  0  0  0  0  0  0  0  0  0
   19.4134    1.5083   30.5512 H   0  0  0  0  0  0  0  0  0  0  0  0
   31.8649    0.7640   34.1703 H   0  0  0  0  0  0  0  0  0  0  0  0
   33.5890   10.1629   30.1338 H   0  0  0  0  0  0  0  0  0  0  0  0
 25 26  2  0
 26 27  1  0
 27 23  1  0
 28 29  1  0
  1  2  2  0
  3  4  2  0
  7  8  2  0
 14 15  1  0
 29 30  1  0
 30 31  2  0
 31 32  1  0
 32 28  2  0
 15 16  1  0
 29 33  2  0
 17 33  1  0
 16 17  1  0
 14 34  2  0
 22 34  1  0
 17 13  2  0
 27 35  2  0
 19 35  1  0
 18 19  1  0
 24 36  2  0
 32 36  1  0
  8  9  1  0
  4  5  1  0
 37 38  2  0
  9 10  2  0
 38 39  1  0
  2  3  1  0
 39 40  2  0
 10 11  1  0
 40 41  1  0
 19 20  2  0
 41 42  2  0
 42 37  1  0
 33 37  1  0
 20 21  1  0
 21 22  2  0
 43 44  2  0
 22 18  1  0
 44 45  1  0
 23 24  1  0
 45 46  2  0
  5  6  2  0
 46 47  1  0
 11 12  2  0
 47 48  2  0
 48 43  1  0
 36 43  1  0
 12  7  1  0
 45 49  1  0
 13 14  1  0
 39 50  1  0
 35 12  1  0
 34  2  1  0
  6  1  1  0
  4 51  1  0
 24 25  1  0
  8 52  1  0
  1 53  1  0
  3 54  1  0
  5 55  1  0
  6 56  1  0
  7 57  1  0
  9 58  1  0
 10 59  1  0
 11 60  1  0
 15 61  1  0
 15 62  1  0
 16 63  1  0
 16 64  1  0
 18 65  1  0
 20 66  1  0
 21 67  1  0
 23 68  1  0
 25 69  1  0
 26 70  1  0
 30 71  1  0
 31 72  1  0
 38 73  1  0
 40 74  1  0
 41 75  1  0
 42 76  1  0
 44 77  1  0
 46 78  1  0
 47 79  1  0
 48 80  1  0
 49 81  1  0
 50 82  1  0
 51 83  1  0
 52 84  1  0
M  END
> <Uni-Dock RESULT> 
ENERGY=   -5.569  LOWER_BOUND=    1.122  UPPER_BOUND=    8.019
INTER + INTRA:          -5.569
INTER:                  -5.569
INTRA:                   0.000
UNBOUND:                 0.000

$$$$

     RDKit          3D

 84 92  0  0  0  0  0  0  0  0999 V2000
   27.7173    1.1144   31.5799 C   0  0  0  0  0  0  0  0  0  0  0  0
   27.9111    2.3250   32.2590 C   0  0  0  0  0  0  0  0  0  0  0  0
   28.3665    2.3074   33.5808 C   0  0  0  0  0  0  0  0  0  0  0  0
   28.6004    1.0903   34.2119 C   0  0  0  0  0  0  0  0  0  0  0  0
   28.4044   -0.1167   33.5403 C   0  0  0  0  0  0  0  0  0  0  0  0
   27.9642   -0.1026   32.2177 C   0  0  0  0  0  0  0  0  0  0  0  0
   32.8032    7.5506   29.9233 C   0  0  0  0  0  0  0  0  0  0  0  0
   34.1158    7.7752   29.5171 C   0  0  0  0  0  0  0  0  0  0  0  0
   34.4010    8.1885   28.2210 C   0  0  0  0  0  0  0  0  0  0  0  0
   33.3595    8.3815   27.3134 C   0  0  0  0  0  0  0  0  0  0  0  0
   32.0384    8.1585   27.7104 C   0  0  0  0  0  0  0  0  0  0  0  0
   31.7530    7.7359   29.0149 C   0  0  0  0  0  0  0  0  0  0  0  0
   25.9271    5.3079   31.0299 N   0  0  0  0  0  0  0  0  0  0  0  0
   26.3675    4.1384   31.5735 C   0  0  0  0  0  0  0  0  0  0  0  0
   25.2161    3.4525   32.2567 C   0  0  0  0  0  0  0  0  0  0  0  0
   24.0181    4.1109   31.6250 C   0  0  0  0  0  0  0  0  0  0  0  0
   24.5662    5.4287   31.1040 C   0  0  0  0  0  0  0  0  0  0  0  0
   28.7356    5.7279   30.5590 N   0  0  0  0  0  0  0  0  0  0  0  0
   29.9139    6.0870   29.9506 C   0  0  0  0  0  0  0  0  0  0  0  0
   30.6765    4.9377   29.8137 C   0  0  0  0  0  0  0  0  0  0  0  0
   29.9683    3.8671   30.4072 C   0  0  0  0  0  0  0  0  0  0  0  0
   28.7816    4.3861   30.8669 C   0  0  0  0  0  0  0  0  0  0  0  0
   28.0251    8.7662   29.4132 N   0  0  0  0  0  0  0  0  0  0  0  0
   27.5898   10.0721   29.4276 C   0  0  0  0  0  0  0  0  0  0  0  0
   28.6739   10.8988   29.5975 C   0  0  0  0  0  0  0  0  0  0  0  0
   29.8149   10.0636   29.6537 C   0  0  0  0  0  0  0  0  0  0  0  0
   29.3915    8.7526   29.5062 C   0  0  0  0  0  0  0  0  0  0  0  0
   25.2912    8.2660   30.0557 N   0  0  0  0  0  0  0  0  0  0  0  0
   24.0741    7.6872   30.3100 C   0  0  0  0  0  0  0  0  0  0  0  0
   23.0872    8.7100   29.9761 C   0  0  0  0  0  0  0  0  0  0  0  0
   23.7165    9.8124   29.5818 C   0  0  0  0  0  0  0  0  0  0  0  0
   25.1352    9.5604   29.6422 C   0  0  0  0  0  0  0  0  0  0  0  0
   23.7055    6.4509   30.7801 C   0  0  0  0  0  0  0  0  0  0  0  0
   27.6164    3.6040   31.5842 C   0  0  0  0  0  0  0  0  0  0  0  0
   30.3508    7.5120   29.4435 C   0  0  0  0  0  0  0  0  0  0  0  0
   26.0704   10.4943   29.3259 C   0  0  0  0  0  0  0  0  0  0  0  0
   22.2459    6.1963   30.9829 C   0  0  0  0  0  0  0  0  0  0  0  0
   21.4674    5.5978   29.9808 C   0  0  0  0  0  0  0  0  0  0  0  0
   20.1118    5.3757   30.2011 C   0  0  0  0  0  0  0  0  0  0  0  0
   19.5124    5.7386   31.4089 C   0  0  0  0  0  0  0  0  0  0  0  0
   20.2802    6.3353   32.4099 C   0  0  0  0  0  0  0  0  0  0  0  0
   21.6401    6.5642   32.1963 C   0  0  0  0  0  0  0  0  0  0  0  0
   25.7380   11.8708   28.9028 C   0  0  0  0  0  0  0  0  0  0  0  0
   25.8565   12.2507   27.5610 C   0  0  0  0  0  0  0  0  0  0  0  0
   25.5532   13.5555   27.1839 C   0  0  0  0  0  0  0  0  0  0  0  0
   25.1359   14.4955   28.1267 C   0  0  0  0  0  0  0  0  0  0  0  0
   25.0180   14.1212   29.4653 C   0  0  0  0  0  0  0  0  0  0  0  0
   25.3203   12.8144   29.8515 C   0  0  0  0  0  0  0  0  0  0  0  0
   25.6760   13.8924   25.8662 O   0  0  0  0  0  0  0  0  0  0  0  0
   19.3760    4.7981   29.2039 O   0  0  0  0  0  0  0  0  0  0  0  0
   29.0166    1.1041   35.5124 O   0  0  0  0  0  0  0  0  0  0  0  0
   35.1591    7.5974   30.3812 O   0  0  0  0  0  0  0  0  0  0  0  0
   27.3551    1.1381   30.5539 H   0  0  0  0  0  0  0  0  0  0  0  0
   28.5086    3.2457   34.1098 H   0  0  0  0  0  0  0  0  0  0  0  0
   28.5918   -1.0665   34.0270 H   0  0  0  0  0  0  0  0  0  0  0  0
   27.7991   -1.0310   31.6804 H   0  0  0  0  0  0  0  0  0  0  0  0
   32.5720    7.2306   30.9358 H   0  0  0  0  0  0  0  0  0  0  0  0
   35.4289    8.3623   27.9199 H   0  0  0  0  0  0  0  0  0  0  0  0
   33.5700    8.7086   26.2999 H   0  0  0  0  0  0  0  0  0  0  0  0
   31.2220    8.3176   27.0074 H   0  0  0  0  0  0  0  0  0  0  0  0
   25.2443    3.6527   33.3360 H   0  0  0  0  0  0  0  0  0  0  0  0
   25.1769    2.3690   32.1021 H   0  0  0  0  0  0  0  0  0  0  0  0
   23.2239    4.2093   32.3706 H   0  0  0  0  0  0  0  0  0  0  0  0
   23.6458    3.5027   30.7909 H   0  0  0  0  0  0  0  0  0  0  0  0
   27.8946    6.2821   30.7269 H   0  0  0  0  0  0  0  0  0  0  0  0
   31.6448    4.8699   29.3394 H   0  0  0  0  0  0  0  0  0  0  0  0
   30.2786    2.8354   30.4787 H   0  0  0  0  0  0  0  0  0  0  0  0
   27.3684    7.9843   29.4046 H   0  0  0  0  0  0  0  0  0  0  0  0
   28.6413   11.9745   29.6795 H   0  0  0  0  0  0  0  0  0  0  0  0
   30.8392   10.3871   29.7744 H   0  0  0  0  0  0  0  0  0  0  0  0
   22.0198    8.6000   30.0277 H   0  0  0  0  0  0  0  0  0  0  0  0
   23.2436   10.7249   29.2696 H   0  0  0  0  0  0  0  0  0  0  0  0
   21.9390    5.3205   29.0426 H   0  0  0  0  0  0  0  0  0  0  0  0
   18.4573    5.5676   31.5861 H   0  0  0  0  0  0  0  0  0  0  0  0
   19.8320    6.6269   33.3534 H   0  0  0  0  0  0  0  0  0  0  0  0
   22.2582    7.0318   32.9610 H   0  0  0  0  0  0  0  0  0  0  0  0
   26.1773   11.5202   26.8237 H   0  0  0  0  0  0  0  0  0  0  0  0
   24.8993   15.5134   27.8386 H   0  0  0  0  0  0  0  0  0  0  0  0
   24.6871   14.8365   30.2112 H   0  0  0  0  0  0  0  0  0  0  0  0
   25.2277   12.5079   30.8923 H   0  0  0  0  0  0  0  0  0  0  0  0
   25.3762   14.8077   25.7648 H   0  0  0  0  0  0  0  0  0  0  0  0
   18.4553    4.7687   29.4992 H   0  0  0  0  0  0  0  0  0  0  0  0
   28.8135    0.2339   35.8894 H   0  0  0  0  0  0  0  0  0  0  0  0
   34.7786    7.3303   31.2351 H   0  0  0  0  0  0  0  0  0  0  0  0
 25 26  2  0
 26 27  1  0
 27 23  1  0
 28 29  1  0
  1  2  2  0
  3  4  2  0
  7  8  2  0
 14 15  1  0
 29 30  1  0
 30 31  2  0
 31 32  1  0
 32 28  2  0
 15 16  1  0
 29 33  2  0
 17 33  1  0
 16 17  1  0
 14 34  2  0
 22 34  1  0
 17 13  2  0
 27 35  2  0
 19 35  1  0
 18 19  1  0
 24 36  2  0
 32 36  1  0
  8  9  1  0
  4  5  1  0
 37 38  2  0
  9 10  2  0
 38 39  1  0
  2  3  1  0
 39 40  2  0
 10 11  1  0
 40 41  1  0
 19 20  2  0
 41 42  2  0
 42 37  1  0
 33 37  1  0
 20 21  1  0
 21 22  2  0
 43 44  2  0
 22 18  1  0
 44 45  1  0
 23 24  1  0
 45 46  2  0
  5  6  2  0
 46 47  1  0
 11 12  2  0
 47 48  2  0
 48 43  1  0
 36 43  1  0
 12  7  1  0
 45 49  1  0
 13 14  1  0
 39 50  1  0
 35 12  1  0
 34  2  1  0
  6  1  1  0
  4 51  1  0
 24 25  1  0
  8 52  1  0
  1 53  1  0
  3 54  1  0
  5 55  1  0
  6 56  1  0
  7 57  1  0
  9 58  1  0
 10 59  1  0
 11 60  1  0
 15 61  1  0
 15 62  1  0
 16 63  1  0
 16 64  1  0
 18 65  1  0
 20 66  1  0
 21 67  1  0
 23 68  1  0
 25 69  1  0
 26 70  1  0
 30 71  1  0
 31 72  1  0
 38 73  1  0
 40 74  1  0
 41 75  1  0
 42 76  1  0
 44 77  1  0
 46 78  1  0
 47 79  1  0
 48 80  1  0
 49 81  1  0
 50 82  1  0
 51 83  1  0
 52 84  1  0
M  END
> <Uni-Dock RESULT> 
ENERGY=   -5.347  LOWER_BOUND=    1.748  UPPER_BOUND=    7.947
INTER + INTRA:          -5.347
INTER:                  -5.347
INTRA:                   0.000
UNBOUND:                 0.000

$$$$

     RDKit          3D

 84 92  0  0  0  0  0  0  0  0999 V2000
   26.5516   14.0370   27.8771 C   0  0  0  0  0  0  0  0  0  0  0  0
   26.5613   12.7574   27.3055 C   0  0  0  0  0  0  0  0  0  0  0  0
   26.4813   12.6236   25.9161 C   0  0  0  0  0  0  0  0  0  0  0  0
   26.3712   13.7592   25.1207 C   0  0  0  0  0  0  0  0  0  0  0  0
   26.3569   15.0343   25.6866 C   0  0  0  0  0  0  0  0  0  0  0  0
   26.4510   15.1720   27.0706 C   0  0  0  0  0  0  0  0  0  0  0  0
   32.3361    7.9940   28.1162 C   0  0  0  0  0  0  0  0  0  0  0  0
   33.7174    7.8567   28.0089 C   0  0  0  0  0  0  0  0  0  0  0  0
   34.4999    7.6146   29.1320 C   0  0  0  0  0  0  0  0  0  0  0  0
   33.8951    7.5074   30.3843 C   0  0  0  0  0  0  0  0  0  0  0  0
   32.5095    7.6440   30.5034 C   0  0  0  0  0  0  0  0  0  0  0  0
   31.7230    7.8942   29.3718 C   0  0  0  0  0  0  0  0  0  0  0  0
   25.4089    9.8971   29.5046 N   0  0  0  0  0  0  0  0  0  0  0  0
   25.5259   11.0018   28.7152 C   0  0  0  0  0  0  0  0  0  0  0  0
   24.1555   11.5669   28.4585 C   0  0  0  0  0  0  0  0  0  0  0  0
   23.3357   10.9596   29.5662 C   0  0  0  0  0  0  0  0  0  0  0  0
   24.1333    9.7316   29.9710 C   0  0  0  0  0  0  0  0  0  0  0  0
   28.2097    9.6142   28.9032 N   0  0  0  0  0  0  0  0  0  0  0  0
   29.5530    9.3648   29.0471 C   0  0  0  0  0  0  0  0  0  0  0  0
   30.2259   10.5423   28.7607 C   0  0  0  0  0  0  0  0  0  0  0  0
   29.2709   11.5118   28.3763 C   0  0  0  0  0  0  0  0  0  0  0  0
   28.0392   10.9083   28.4635 C   0  0  0  0  0  0  0  0  0  0  0  0
   28.2054    6.7229   30.5432 N   0  0  0  0  0  0  0  0  0  0  0  0
   27.8922    5.4140   30.8328 C   0  0  0  0  0  0  0  0  0  0  0  0
   28.8884    4.6021   30.3471 C   0  0  0  0  0  0  0  0  0  0  0  0
   29.8604    5.4542   29.7710 C   0  0  0  0  0  0  0  0  0  0  0  0
   29.4307    6.7615   29.9324 C   0  0  0  0  0  0  0  0  0  0  0  0
   25.4030    7.0662   30.9501 N   0  0  0  0  0  0  0  0  0  0  0  0
   24.1417    7.5762   31.1234 C   0  0  0  0  0  0  0  0  0  0  0  0
   23.4304    6.5765   31.9146 C   0  0  0  0  0  0  0  0  0  0  0  0
   24.2397    5.5485   32.1497 C   0  0  0  0  0  0  0  0  0  0  0  0
   25.5084    5.8291   31.5240 C   0  0  0  0  0  0  0  0  0  0  0  0
   23.5347    8.7345   30.7047 C   0  0  0  0  0  0  0  0  0  0  0  0
   26.6363   11.5642   28.1708 C   0  0  0  0  0  0  0  0  0  0  0  0
   30.2506    8.0257   29.4931 C   0  0  0  0  0  0  0  0  0  0  0  0
   26.5584    4.9669   31.5527 C   0  0  0  0  0  0  0  0  0  0  0  0
   22.0924    8.9228   31.0519 C   0  0  0  0  0  0  0  0  0  0  0  0
   21.7091    9.6196   32.2078 C   0  0  0  0  0  0  0  0  0  0  0  0
   20.3584    9.7763   32.5024 C   0  0  0  0  0  0  0  0  0  0  0  0
   19.3751    9.2508   31.6617 C   0  0  0  0  0  0  0  0  0  0  0  0
   19.7489    8.5557   30.5107 C   0  0  0  0  0  0  0  0  0  0  0  0
   21.1014    8.3916   30.2090 C   0  0  0  0  0  0  0  0  0  0  0  0
   26.5105    3.6449   32.2116 C   0  0  0  0  0  0  0  0  0  0  0  0
   27.1541    3.4372   33.4370 C   0  0  0  0  0  0  0  0  0  0  0  0
   27.1105    2.1813   34.0351 C   0  0  0  0  0  0  0  0  0  0  0  0
   26.4370    1.1211   33.4278 C   0  0  0  0  0  0  0  0  0  0  0  0
   25.7957    1.3238   32.2057 C   0  0  0  0  0  0  0  0  0  0  0  0
   25.8347    2.5804   31.5994 C   0  0  0  0  0  0  0  0  0  0  0  0
   27.7458    2.0134   35.2322 O   0  0  0  0  0  0  0  0  0  0  0  0
   20.0141   10.4527   33.6397 O   0  0  0  0  0  0  0  0  0  0  0  0
   26.2653   13.5958   23.7691 O   0  0  0  0  0  0  0  0  0  0  0  0
   34.3414    7.9542   26.7974 O   0  0  0  0  0  0  0  0  0  0  0  0
   26.6065   14.1306   28.9601 H   0  0  0  0  0  0  0  0  0  0  0  0
   26.4803   11.6313   25.4738 H   0  0  0  0  0  0  0  0  0  0  0  0
   26.2777   15.9213   25.0694 H   0  0  0  0  0  0  0  0  0  0  0  0
   26.4347   16.1549   27.5304 H   0  0  0  0  0  0  0  0  0  0  0  0
   31.7173    8.1799   27.2425 H   0  0  0  0  0  0  0  0  0  0  0  0
   35.5751    7.5070   29.0321 H   0  0  0  0  0  0  0  0  0  0  0  0
   34.4958    7.3138   31.2676 H   0  0  0  0  0  0  0  0  0  0  0  0
   32.0328    7.5512   31.4782 H   0  0  0  0  0  0  0  0  0  0  0  0
   23.7884   11.2356   27.4781 H   0  0  0  0  0  0  0  0  0  0  0  0
   24.0997   12.6597   28.5028 H   0  0  0  0  0  0  0  0  0  0  0  0
   22.3280   10.7485   29.1968 H   0  0  0  0  0  0  0  0  0  0  0  0
   23.2632   11.6562   30.4111 H   0  0  0  0  0  0  0  0  0  0  0  0
   27.4099    9.0211   29.1294 H   0  0  0  0  0  0  0  0  0  0  0  0
   31.2940   10.6941   28.8175 H   0  0  0  0  0  0  0  0  0  0  0  0
   29.4559   12.5348   28.0843 H   0  0  0  0  0  0  0  0  0  0  0  0
   27.5461    7.4820   30.7216 H   0  0  0  0  0  0  0  0  0  0  0  0
   28.9049    3.5240   30.3962 H   0  0  0  0  0  0  0  0  0  0  0  0
   30.7837    5.1459   29.3011 H   0  0  0  0  0  0  0  0  0  0  0  0
   22.4177    6.6505   32.2651 H   0  0  0  0  0  0  0  0  0  0  0  0
   23.9868    4.6692   32.7125 H   0  0  0  0  0  0  0  0  0  0  0  0
   22.4787   10.0233   32.8591 H   0  0  0  0  0  0  0  0  0  0  0  0
   18.3219    9.3702   31.8860 H   0  0  0  0  0  0  0  0  0  0  0  0
   18.9999    8.1378   29.8471 H   0  0  0  0  0  0  0  0  0  0  0  0
   21.4170    7.8499   29.3189 H   0  0  0  0  0  0  0  0  0  0  0  0
   27.6760    4.2616   33.9146 H   0  0  0  0  0  0  0  0  0  0  0  0
   26.4008    0.1407   33.8887 H   0  0  0  0  0  0  0  0  0  0  0  0
   25.2600    0.5131   31.7225 H   0  0  0  0  0  0  0  0  0  0  0  0
   25.3341    2.7532   30.6479 H   0  0  0  0  0  0  0  0  0  0  0  0
   27.5733    1.1099   35.5354 H   0  0  0  0  0  0  0  0  0  0  0  0
   19.0506   10.4207   33.7187 H   0  0  0  0  0  0  0  0  0  0  0  0
   25.8727   14.4071   23.4105 H   0  0  0  0  0  0  0  0  0  0  0  0
   33.6483    8.1033   26.1319 H   0  0  0  0  0  0  0  0  0  0  0  0
 25 26  2  0
 26 27  1  0
 27 23  1  0
 28 29  1  0
  1  2  2  0
  3  4  2  0
  7  8  2  0
 14 15  1  0
 29 30  1  0
 30 31  2  0
 31 32  1  0
 32 28  2  0
 15 16  1  0
 29 33  2  0
 17 33  1  0
 16 17  1  0
 14 34  2  0
 22 34  1  0
 17 13  2  0
 27 35  2  0
 19 35  1  0
 18 19  1  0
 24 36  2  0
 32 36  1  0
  8  9  1  0
  4  5  1  0
 37 38  2  0
  9 10  2  0
 38 39  1  0
  2  3  1  0
 39 40  2  0
 10 11  1  0
 40 41  1  0
 19 20  2  0
 41 42  2  0
 42 37  1  0
 33 37  1  0
 20 21  1  0
 21 22  2  0
 43 44  2  0
 22 18  1  0
 44 45  1  0
 23 24  1  0
 45 46  2  0
  5  6  2  0
 46 47  1  0
 11 12  2  0
 47 48  2  0
 48 43  1  0
 36 43  1  0
 12  7  1  0
 45 49  1  0
 13 14  1  0
 39 50  1  0
 35 12  1  0
 34  2  1  0
  6  1  1  0
  4 51  1  0
 24 25  1  0
  8 52  1  0
  1 53  1  0
  3 54  1  0
  5 55  1  0
  6 56  1  0
  7 57  1  0
  9 58  1  0
 10 59  1  0
 11 60  1  0
 15 61  1  0
 15 62  1  0
 16 63  1  0
 16 64  1  0
 18 65  1  0
 20 66  1  0
 21 67  1  0
 23 68  1  0
 25 69  1  0
 26 70  1  0
 30 71  1  0
 31 72  1  0
 38 73  1  0
 40 74  1  0
 41 75  1  0
 42 76  1  0
 44 77  1  0
 46 78  1  0
 47 79  1  0
 48 80  1  0
 49 81  1  0
 50 82  1  0
 51 83  1  0
 52 84  1  0
M  END
> <Uni-Dock RESULT> 
ENERGY=   -4.786  LOWER_BOUND=    2.665  UPPER_BOUND=    9.621
INTER + INTRA:          -4.786
INTER:                  -4.786
INTRA:                   0.000
UNBOUND:                 0.000

$$$$

     RDKit          3D

 84 92  0  0  0  0  0  0  0  0999 V2000
   23.1249   11.2470   28.8995 C   0  0  0  0  0  0  0  0  0  0  0  0
   23.5244   10.6978   30.1255 C   0  0  0  0  0  0  0  0  0  0  0  0
   23.1565   11.3317   31.3161 C   0  0  0  0  0  0  0  0  0  0  0  0
   22.4183   12.5095   31.2690 C   0  0  0  0  0  0  0  0  0  0  0  0
   22.0227   13.0612   30.0502 C   0  0  0  0  0  0  0  0  0  0  0  0
   22.3755   12.4241   28.8616 C   0  0  0  0  0  0  0  0  0  0  0  0
   21.4543    3.8098   32.3539 C   0  0  0  0  0  0  0  0  0  0  0  0
   20.3729    2.9499   32.5253 C   0  0  0  0  0  0  0  0  0  0  0  0
   20.2615    1.7850   31.7751 C   0  0  0  0  0  0  0  0  0  0  0  0
   21.2453    1.4714   30.8373 C   0  0  0  0  0  0  0  0  0  0  0  0
   22.3347    2.3278   30.6569 C   0  0  0  0  0  0  0  0  0  0  0  0
   22.4424    3.5044   31.4091 C   0  0  0  0  0  0  0  0  0  0  0  0
   26.6011    8.4892   30.0847 N   0  0  0  0  0  0  0  0  0  0  0  0
   25.6975    9.5089   30.0518 C   0  0  0  0  0  0  0  0  0  0  0  0
   26.4359   10.8124   29.9143 C   0  0  0  0  0  0  0  0  0  0  0  0
   27.7795   10.3767   29.3922 C   0  0  0  0  0  0  0  0  0  0  0  0
   27.8705    8.9184   29.8086 C   0  0  0  0  0  0  0  0  0  0  0  0
   24.2734    6.9283   30.7417 N   0  0  0  0  0  0  0  0  0  0  0  0
   23.3656    5.8978   30.7797 C   0  0  0  0  0  0  0  0  0  0  0  0
   22.1608    6.3893   30.3023 C   0  0  0  0  0  0  0  0  0  0  0  0
   22.3269    7.7659   30.0246 C   0  0  0  0  0  0  0  0  0  0  0  0
   23.6350    8.0717   30.3149 C   0  0  0  0  0  0  0  0  0  0  0  0
   26.2437    4.2855   31.1690 N   0  0  0  0  0  0  0  0  0  0  0  0
   27.2238    3.4937   31.7237 C   0  0  0  0  0  0  0  0  0  0  0  0
   26.6387    2.6142   32.6021 C   0  0  0  0  0  0  0  0  0  0  0  0
   25.2457    2.8590   32.5525 C   0  0  0  0  0  0  0  0  0  0  0  0
   25.0237    3.8748   31.6367 C   0  0  0  0  0  0  0  0  0  0  0  0
   28.4744    5.9801   30.6311 N   0  0  0  0  0  0  0  0  0  0  0  0
   29.3050    6.9754   30.1833 C   0  0  0  0  0  0  0  0  0  0  0  0
   30.6360    6.3765   30.1503 C   0  0  0  0  0  0  0  0  0  0  0  0
   30.5615    5.1215   30.5821 C   0  0  0  0  0  0  0  0  0  0  0  0
   29.1857    4.8472   30.9164 C   0  0  0  0  0  0  0  0  0  0  0  0
   29.0893    8.2819   29.8202 C   0  0  0  0  0  0  0  0  0  0  0  0
   24.3432    9.4702   30.1514 C   0  0  0  0  0  0  0  0  0  0  0  0
   23.6048    4.4082   31.2298 C   0  0  0  0  0  0  0  0  0  0  0  0
   28.7650    3.6546   31.4140 C   0  0  0  0  0  0  0  0  0  0  0  0
   30.2811    9.0949   29.4263 C   0  0  0  0  0  0  0  0  0  0  0  0
   30.6686    9.2109   28.0829 C   0  0  0  0  0  0  0  0  0  0  0  0
   31.7831    9.9744   27.7502 C   0  0  0  0  0  0  0  0  0  0  0  0
   32.5231   10.6307   28.7357 C   0  0  0  0  0  0  0  0  0  0  0  0
   32.1443   10.5191   30.0742 C   0  0  0  0  0  0  0  0  0  0  0  0
   31.0293    9.7532   30.4170 C   0  0  0  0  0  0  0  0  0  0  0  0
   29.6703    2.5176   31.6820 C   0  0  0  0  0  0  0  0  0  0  0  0
   29.6905    1.4082   30.8290 C   0  0  0  0  0  0  0  0  0  0  0  0
   30.5391    0.3404   31.1059 C   0  0  0  0  0  0  0  0  0  0  0  0
   31.3693    0.3565   32.2269 C   0  0  0  0  0  0  0  0  0  0  0  0
   31.3509    1.4598   33.0804 C   0  0  0  0  0  0  0  0  0  0  0  0
   30.5027    2.5347   32.8097 C   0  0  0  0  0  0  0  0  0  0  0  0
   30.5368   -0.7250   30.2515 O   0  0  0  0  0  0  0  0  0  0  0  0
   32.1423   10.0632   26.4339 O   0  0  0  0  0  0  0  0  0  0  0  0
   22.0988   13.1215   32.4471 O   0  0  0  0  0  0  0  0  0  0  0  0
   19.3928    3.2260   33.4363 O   0  0  0  0  0  0  0  0  0  0  0  0
   23.4229   10.7505   27.9779 H   0  0  0  0  0  0  0  0  0  0  0  0
   23.4734   10.9104   32.2661 H   0  0  0  0  0  0  0  0  0  0  0  0
   21.4422   13.9752   30.0102 H   0  0  0  0  0  0  0  0  0  0  0  0
   22.0832   12.8413   27.9033 H   0  0  0  0  0  0  0  0  0  0  0  0
   21.5502    4.7205   32.9390 H   0  0  0  0  0  0  0  0  0  0  0  0
   19.4142    1.1231   31.9220 H   0  0  0  0  0  0  0  0  0  0  0  0
   21.1710    0.5621   30.2492 H   0  0  0  0  0  0  0  0  0  0  0  0
   23.1098    2.0813   29.9326 H   0  0  0  0  0  0  0  0  0  0  0  0
   26.5388   11.2932   30.8960 H   0  0  0  0  0  0  0  0  0  0  0  0
   25.9744   11.5244   29.2219 H   0  0  0  0  0  0  0  0  0  0  0  0
   28.5573   11.0211   29.8120 H   0  0  0  0  0  0  0  0  0  0  0  0
   27.8067   10.4576   28.2981 H   0  0  0  0  0  0  0  0  0  0  0  0
   25.2795    6.9160   30.9157 H   0  0  0  0  0  0  0  0  0  0  0  0
   21.2512    5.8221   30.1681 H   0  0  0  0  0  0  0  0  0  0  0  0
   21.5854    8.4521   29.6435 H   0  0  0  0  0  0  0  0  0  0  0  0
   26.4740    5.0787   30.5687 H   0  0  0  0  0  0  0  0  0  0  0  0
   27.1580    1.8899   33.2109 H   0  0  0  0  0  0  0  0  0  0  0  0
   24.4841    2.3381   33.1154 H   0  0  0  0  0  0  0  0  0  0  0  0
   31.5388    6.8584   29.8234 H   0  0  0  0  0  0  0  0  0  0  0  0
   31.3855    4.4369   30.6603 H   0  0  0  0  0  0  0  0  0  0  0  0
   30.0905    8.6956   27.3214 H   0  0  0  0  0  0  0  0  0  0  0  0
   33.3916   11.2269   28.4823 H   0  0  0  0  0  0  0  0  0  0  0  0
   32.7082   11.0189   30.8540 H   0  0  0  0  0  0  0  0  0  0  0  0
   30.7170    9.6483   31.4548 H   0  0  0  0  0  0  0  0  0  0  0  0
   29.0483    1.3941   29.9530 H   0  0  0  0  0  0  0  0  0  0  0  0
   32.0313   -0.4729   32.4478 H   0  0  0  0  0  0  0  0  0  0  0  0
   31.9956    1.4935   33.9526 H   0  0  0  0  0  0  0  0  0  0  0  0
   30.4822    3.4041   33.4650 H   0  0  0  0  0  0  0  0  0  0  0  0
   31.2151   -1.3476   30.5518 H   0  0  0  0  0  0  0  0  0  0  0  0
   32.9592   10.5791   26.3878 H   0  0  0  0  0  0  0  0  0  0  0  0
   21.8983   14.0488   32.2452 H   0  0  0  0  0  0  0  0  0  0  0  0
   19.6403    4.0567   33.8770 H   0  0  0  0  0  0  0  0  0  0  0  0
 25 26  2  0
 26 27  1  0
 27 23  1  0
 28 29  1  0
  1  2  2  0
  3  4  2  0
  7  8  2  0
 14 15  1  0
 29 30  1  0
 30 31  2  0
 31 32  1  0
 32 28  2  0
 15 16  1  0
 29 33  2  0
 17 33  1  0
 16 17  1  0
 14 34  2  0
 22 34  1  0
 17 13  2  0
 27 35  2  0
 19 35  1  0
 18 19  1  0
 24 36  2  0
 32 36  1  0
  8  9  1  0
  4  5  1  0
 37 38  2  0
  9 10  2  0
 38 39  1  0
  2  3  1  0
 39 40  2  0
 10 11  1  0
 40 41  1  0
 19 20  2  0
 41 42  2  0
 42 37  1  0
 33 37  1  0
 20 21  1  0
 21 22  2  0
 43 44  2  0
 22 18  1  0
 44 45  1  0
 23 24  1  0
 45 46  2  0
  5  6  2  0
 46 47  1  0
 11 12  2  0
 47 48  2  0
 48 43  1  0
 36 43  1  0
 12  7  1  0
 45 49  1  0
 13 14  1  0
 39 50  1  0
 35 12  1  0
 34  2  1  0
  6  1  1  0
  4 51  1  0
 24 25  1  0
  8 52  1  0
  1 53  1  0
  3 54  1  0
  5 55  1  0
  6 56  1  0
  7 57  1  0
  9 58  1  0
 10 59  1  0
 11 60  1  0
 15 61  1  0
 15 62  1  0
 16 63  1  0
 16 64  1  0
 18 65  1  0
 20 66  1  0
 21 67  1  0
 23 68  1  0
 25 69  1  0
 26 70  1  0
 30 71  1  0
 31 72  1  0
 38 73  1  0
 40 74  1  0
 41 75  1  0
 42 76  1  0
 44 77  1  0
 46 78  1  0
 47 79  1  0
 48 80  1  0
 49 81  1  0
 50 82  1  0
 51 83  1  0
 52 84  1  0
M  END
> <Uni-Dock RESULT> 
ENERGY=   -4.772  LOWER_BOUND=    1.617  UPPER_BOUND=    7.997
INTER + INTRA:          -4.772
INTER:                  -4.772
INTRA:                   0.000
UNBOUND:                 0.000

$$$$

     RDKit          3D

 84 92  0  0  0  0  0  0  0  0999 V2000
   21.2853    6.7411   29.8298 C   0  0  0  0  0  0  0  0  0  0  0  0
   22.1510    7.0435   30.8897 C   0  0  0  0  0  0  0  0  0  0  0  0
   21.6192    7.3755   32.1394 C   0  0  0  0  0  0  0  0  0  0  0  0
   20.2397    7.4228   32.3097 C   0  0  0  0  0  0  0  0  0  0  0  0
   19.3751    7.1266   31.2557 C   0  0  0  0  0  0  0  0  0  0  0  0
   19.9019    6.7812   30.0121 C   0  0  0  0  0  0  0  0  0  0  0  0
   27.1620    2.1050   33.5724 C   0  0  0  0  0  0  0  0  0  0  0  0
   27.3361    0.8044   34.0375 C   0  0  0  0  0  0  0  0  0  0  0  0
   28.1285   -0.1020   33.3427 C   0  0  0  0  0  0  0  0  0  0  0  0
   28.7587    0.2949   32.1632 C   0  0  0  0  0  0  0  0  0  0  0  0
   28.5902    1.5979   31.6872 C   0  0  0  0  0  0  0  0  0  0  0  0
   27.7864    2.5081   32.3850 C   0  0  0  0  0  0  0  0  0  0  0  0
   25.6102    8.2804   29.9681 N   0  0  0  0  0  0  0  0  0  0  0  0
   24.2776    8.1114   30.1978 C   0  0  0  0  0  0  0  0  0  0  0  0
   23.5578    9.3897   29.8647 C   0  0  0  0  0  0  0  0  0  0  0  0
   24.5464   10.1043   28.9816 C   0  0  0  0  0  0  0  0  0  0  0  0
   25.8777    9.4698   29.3468 C   0  0  0  0  0  0  0  0  0  0  0  0
   25.7894    5.7080   31.2472 N   0  0  0  0  0  0  0  0  0  0  0  0
   26.1761    4.4213   31.5342 C   0  0  0  0  0  0  0  0  0  0  0  0
   25.0537    3.6161   31.4198 C   0  0  0  0  0  0  0  0  0  0  0  0
   23.9484    4.4438   31.1144 C   0  0  0  0  0  0  0  0  0  0  0  0
   24.4302    5.7279   31.0248 C   0  0  0  0  0  0  0  0  0  0  0  0
   29.1021    5.9281   31.0848 N   0  0  0  0  0  0  0  0  0  0  0  0
   30.3689    6.4055   31.3351 C   0  0  0  0  0  0  0  0  0  0  0  0
   30.9347    5.6562   32.3380 C   0  0  0  0  0  0  0  0  0  0  0  0
   29.9875    4.6638   32.6856 C   0  0  0  0  0  0  0  0  0  0  0  0
   28.8761    4.8331   31.8759 C   0  0  0  0  0  0  0  0  0  0  0  0
   28.7793    8.5243   29.9481 N   0  0  0  0  0  0  0  0  0  0  0  0
   28.3156    9.6344   29.2895 C   0  0  0  0  0  0  0  0  0  0  0  0
   29.5122   10.3626   28.8781 C   0  0  0  0  0  0  0  0  0  0  0  0
   30.5890    9.7112   29.3061 C   0  0  0  0  0  0  0  0  0  0  0  0
   30.1455    8.5357   30.0141 C   0  0  0  0  0  0  0  0  0  0  0  0
   27.0536   10.0977   29.0098 C   0  0  0  0  0  0  0  0  0  0  0  0
   23.6112    7.0284   30.6760 C   0  0  0  0  0  0  0  0  0  0  0  0
   27.6170    3.8960   31.8897 C   0  0  0  0  0  0  0  0  0  0  0  0
   30.9982    7.6568   30.6034 C   0  0  0  0  0  0  0  0  0  0  0  0
   26.9411   11.4090   28.2998 C   0  0  0  0  0  0  0  0  0  0  0  0
   26.8331   11.4708   26.9023 C   0  0  0  0  0  0  0  0  0  0  0  0
   26.7309   12.7072   26.2726 C   0  0  0  0  0  0  0  0  0  0  0  0
   26.7322   13.8914   27.0125 C   0  0  0  0  0  0  0  0  0  0  0  0
   26.8403   13.8378   28.4028 C   0  0  0  0  0  0  0  0  0  0  0  0
   26.9458   12.6020   29.0424 C   0  0  0  0  0  0  0  0  0  0  0  0
   32.4673    7.8172   30.5979 C   0  0  0  0  0  0  0  0  0  0  0  0
   33.2665    7.0230   29.7675 C   0  0  0  0  0  0  0  0  0  0  0  0
   34.6493    7.1782   29.7871 C   0  0  0  0  0  0  0  0  0  0  0  0
   35.2540    8.1131   30.6278 C   0  0  0  0  0  0  0  0  0  0  0  0
   34.4610    8.9054   31.4580 C   0  0  0  0  0  0  0  0  0  0  0  0
   33.0733    8.7559   31.4444 C   0  0  0  0  0  0  0  0  0  0  0  0
   35.3997    6.3900   28.9620 O   0  0  0  0  0  0  0  0  0  0  0  0
   26.6351   12.7376   24.9090 O   0  0  0  0  0  0  0  0  0  0  0  0
   19.7497    7.7786   33.5336 O   0  0  0  0  0  0  0  0  0  0  0  0
   26.7349    0.3836   35.1900 O   0  0  0  0  0  0  0  0  0  0  0  0
   21.7086    6.4915   28.8587 H   0  0  0  0  0  0  0  0  0  0  0  0
   22.2904    7.6180   32.9586 H   0  0  0  0  0  0  0  0  0  0  0  0
   18.2999    7.1563   31.3867 H   0  0  0  0  0  0  0  0  0  0  0  0
   19.2458    6.5541   29.1779 H   0  0  0  0  0  0  0  0  0  0  0  0
   26.5469    2.8203   34.1118 H   0  0  0  0  0  0  0  0  0  0  0  0
   28.2572   -1.1115   33.7192 H   0  0  0  0  0  0  0  0  0  0  0  0
   29.3836   -0.4030   31.6148 H   0  0  0  0  0  0  0  0  0  0  0  0
   29.0886    1.9142   30.7719 H   0  0  0  0  0  0  0  0  0  0  0  0
   23.3687    9.9658   30.7802 H   0  0  0  0  0  0  0  0  0  0  0  0
   22.6092    9.2517   29.3352 H   0  0  0  0  0  0  0  0  0  0  0  0
   24.4867   11.1804   29.1682 H   0  0  0  0  0  0  0  0  0  0  0  0
   24.3176    9.9160   27.9250 H   0  0  0  0  0  0  0  0  0  0  0  0
   26.3585    6.5475   31.1296 H   0  0  0  0  0  0  0  0  0  0  0  0
   25.0253    2.5434   31.5449 H   0  0  0  0  0  0  0  0  0  0  0  0
   22.9236    4.1396   30.9624 H   0  0  0  0  0  0  0  0  0  0  0  0
   28.4656    6.4103   30.4484 H   0  0  0  0  0  0  0  0  0  0  0  0
   31.9107    5.8144   32.7710 H   0  0  0  0  0  0  0  0  0  0  0  0
   30.1106    3.8975   33.4378 H   0  0  0  0  0  0  0  0  0  0  0  0
   29.5340   11.2754   28.3121 H   0  0  0  0  0  0  0  0  0  0  0  0
   31.6074   10.0119   29.1442 H   0  0  0  0  0  0  0  0  0  0  0  0
   26.8356   10.5463   26.3323 H   0  0  0  0  0  0  0  0  0  0  0  0
   26.6525   14.8569   26.5274 H   0  0  0  0  0  0  0  0  0  0  0  0
   26.8461   14.7467   28.9943 H   0  0  0  0  0  0  0  0  0  0  0  0
   27.0352   12.5355   30.1254 H   0  0  0  0  0  0  0  0  0  0  0  0
   32.7986    6.2970   29.1088 H   0  0  0  0  0  0  0  0  0  0  0  0
   36.3306    8.2374   30.6477 H   0  0  0  0  0  0  0  0  0  0  0  0
   34.9131    9.6435   32.1126 H   0  0  0  0  0  0  0  0  0  0  0  0
   32.4425    9.3715   32.0838 H   0  0  0  0  0  0  0  0  0  0  0  0
   36.3251    6.6599   29.0548 H   0  0  0  0  0  0  0  0  0  0  0  0
   26.6284   13.6658   24.6368 H   0  0  0  0  0  0  0  0  0  0  0  0
   18.8380    8.0824   33.4020 H   0  0  0  0  0  0  0  0  0  0  0  0
   26.2433    1.1425   35.5475 H   0  0  0  0  0  0  0  0  0  0  0  0
 25 26  2  0
 26 27  1  0
 27 23  1  0
 28 29  1  0
  1  2  2  0
  3  4  2  0
  7  8  2  0
 14 15  1  0
 29 30  1  0
 30 31  2  0
 31 32  1  0
 32 28  2  0
 15 16  1  0
 29 33  2  0
 17 33  1  0
 16 17  1  0
 14 34  2  0
 22 34  1  0
 17 13  2  0
 27 35  2  0
 19 35  1  0
 18 19  1  0
 24 36  2  0
 32 36  1  0
  8  9  1  0
  4  5  1  0
 37 38  2  0
  9 10  2  0
 38 39  1  0
  2  3  1  0
 39 40  2  0
 10 11  1  0
 40 41  1  0
 19 20  2  0
 41 42  2  0
 42 37  1  0
 33 37  1  0
 20 21  1  0
 21 22  2  0
 43 44  2  0
 22 18  1  0
 44 45  1  0
 23 24  1  0
 45 46  2  0
  5  6  2  0
 46 47  1  0
 11 12  2  0
 47 48  2  0
 48 43  1  0
 36 43  1  0
 12  7  1  0
 45 49  1  0
 13 14  1  0
 39 50  1  0
 35 12  1  0
 34  2  1  0
  6  1  1  0
  4 51  1  0
 24 25  1  0
  8 52  1  0
  1 53  1  0
  3 54  1  0
  5 55  1  0
  6 56  1  0
  7 57  1  0
  9 58  1  0
 10 59  1  0
 11 60  1  0
 15 61  1  0
 15 62  1  0
 16 63  1  0
 16 64  1  0
 18 65  1  0
 20 66  1  0
 21 67  1  0
 23 68  1  0
 25 69  1  0
 26 70  1  0
 30 71  1  0
 31 72  1  0
 38 73  1  0
 40 74  1  0
 41 75  1  0
 42 76  1  0
 44 77  1  0
 46 78  1  0
 47 79  1  0
 48 80  1  0
 49 81  1  0
 50 82  1  0
 51 83  1  0
 52 84  1  0
M  END
> <Uni-Dock RESULT> 
ENERGY=   -4.761  LOWER_BOUND=    2.413  UPPER_BOUND=    7.849
INTER + INTRA:          -4.761
INTER:                  -4.761
INTRA:                   0.000
UNBOUND:                 0.000

$$$$

     RDKit          3D

 84 92  0  0  0  0  0  0  0  0999 V2000
   25.9923   12.5351   29.3814 C   0  0  0  0  0  0  0  0  0  0  0  0
   26.4701   11.4027   28.7080 C   0  0  0  0  0  0  0  0  0  0  0  0
   26.7027   11.4681   27.3308 C   0  0  0  0  0  0  0  0  0  0  0  0
   26.4369   12.6474   26.6433 C   0  0  0  0  0  0  0  0  0  0  0  0
   25.9570   13.7751   27.3097 C   0  0  0  0  0  0  0  0  0  0  0  0
   25.7376   13.7179   28.6852 C   0  0  0  0  0  0  0  0  0  0  0  0
   33.0728    8.1829   30.3613 C   0  0  0  0  0  0  0  0  0  0  0  0
   34.4308    8.4164   30.5604 C   0  0  0  0  0  0  0  0  0  0  0  0
   35.0156    8.2100   31.8044 C   0  0  0  0  0  0  0  0  0  0  0  0
   34.2331    7.7628   32.8690 C   0  0  0  0  0  0  0  0  0  0  0  0
   32.8689    7.5258   32.6803 C   0  0  0  0  0  0  0  0  0  0  0  0
   32.2798    7.7402   31.4278 C   0  0  0  0  0  0  0  0  0  0  0  0
   25.7576    8.0417   30.3020 N   0  0  0  0  0  0  0  0  0  0  0  0
   25.7127    9.2479   29.6694 C   0  0  0  0  0  0  0  0  0  0  0  0
   24.3163    9.4817   29.1608 C   0  0  0  0  0  0  0  0  0  0  0  0
   23.4995    8.5248   29.9884 C   0  0  0  0  0  0  0  0  0  0  0  0
   24.5137    7.4904   30.4462 C   0  0  0  0  0  0  0  0  0  0  0  0
   28.5871    8.5698   30.3336 N   0  0  0  0  0  0  0  0  0  0  0  0
   29.8919    8.6482   30.7566 C   0  0  0  0  0  0  0  0  0  0  0  0
   30.2514    9.9867   30.7454 C   0  0  0  0  0  0  0  0  0  0  0  0
   29.1574   10.7314   30.2468 C   0  0  0  0  0  0  0  0  0  0  0  0
   28.1509    9.8308   29.9919 C   0  0  0  0  0  0  0  0  0  0  0  0
   29.0716    5.5545   31.6459 N   0  0  0  0  0  0  0  0  0  0  0  0
   29.0865    4.1805   31.7300 C   0  0  0  0  0  0  0  0  0  0  0  0
   30.3445    3.7305   31.4102 C   0  0  0  0  0  0  0  0  0  0  0  0
   31.1324    4.8781   31.1557 C   0  0  0  0  0  0  0  0  0  0  0  0
   30.3318    5.9941   31.3383 C   0  0  0  0  0  0  0  0  0  0  0  0
   26.2615    5.1135   31.4314 N   0  0  0  0  0  0  0  0  0  0  0  0
   24.8994    5.2562   31.3591 C   0  0  0  0  0  0  0  0  0  0  0  0
   24.3559    4.0002   31.8675 C   0  0  0  0  0  0  0  0  0  0  0  0
   25.3582    3.1860   32.1826 C   0  0  0  0  0  0  0  0  0  0  0  0
   26.5946    3.8700   31.8935 C   0  0  0  0  0  0  0  0  0  0  0  0
   24.0866    6.2742   30.9249 C   0  0  0  0  0  0  0  0  0  0  0  0
   26.7056   10.1487   29.4497 C   0  0  0  0  0  0  0  0  0  0  0  0
   30.8350    7.4761   31.2208 C   0  0  0  0  0  0  0  0  0  0  0  0
   27.8171    3.3066   32.0796 C   0  0  0  0  0  0  0  0  0  0  0  0
   22.6103    6.0372   30.9491 C   0  0  0  0  0  0  0  0  0  0  0  0
   21.8302    6.4288   32.0475 C   0  0  0  0  0  0  0  0  0  0  0  0
   20.4591    6.1927   32.0387 C   0  0  0  0  0  0  0  0  0  0  0  0
   19.8451    5.5719   30.9491 C   0  0  0  0  0  0  0  0  0  0  0  0
   20.6147    5.1787   29.8534 C   0  0  0  0  0  0  0  0  0  0  0  0
   21.9910    5.4093   29.8551 C   0  0  0  0  0  0  0  0  0  0  0  0
   28.0131    1.9302   32.5810 C   0  0  0  0  0  0  0  0  0  0  0  0
   28.4377    1.7059   33.8957 C   0  0  0  0  0  0  0  0  0  0  0  0
   28.6312    0.4031   34.3454 C   0  0  0  0  0  0  0  0  0  0  0  0
   28.4123   -0.6864   33.5019 C   0  0  0  0  0  0  0  0  0  0  0  0
   27.9907   -0.4668   32.1904 C   0  0  0  0  0  0  0  0  0  0  0  0
   27.7943    0.8367   31.7317 C   0  0  0  0  0  0  0  0  0  0  0  0
   29.0423    0.2190   35.6346 O   0  0  0  0  0  0  0  0  0  0  0  0
   19.7250    6.5776   33.1262 O   0  0  0  0  0  0  0  0  0  0  0  0
   26.6460   12.6721   25.2941 O   0  0  0  0  0  0  0  0  0  0  0  0
   35.2261    8.8529   29.5388 O   0  0  0  0  0  0  0  0  0  0  0  0
   25.8069   12.4721   30.4520 H   0  0  0  0  0  0  0  0  0  0  0  0
   27.0652   10.5876   26.8076 H   0  0  0  0  0  0  0  0  0  0  0  0
   25.7549   14.6974   26.7781 H   0  0  0  0  0  0  0  0  0  0  0  0
   25.3581   14.5824   29.2205 H   0  0  0  0  0  0  0  0  0  0  0  0
   32.6091    8.3387   29.3909 H   0  0  0  0  0  0  0  0  0  0  0  0
   36.0760    8.3935   31.9435 H   0  0  0  0  0  0  0  0  0  0  0  0
   34.6800    7.5937   33.8437 H   0  0  0  0  0  0  0  0  0  0  0  0
   32.2569    7.1672   33.5067 H   0  0  0  0  0  0  0  0  0  0  0  0
   24.2545    9.2232   28.0955 H   0  0  0  0  0  0  0  0  0  0  0  0
   23.9499   10.5049   29.2950 H   0  0  0  0  0  0  0  0  0  0  0  0
   22.6829    8.1258   29.3798 H   0  0  0  0  0  0  0  0  0  0  0  0
   23.0722    9.0423   30.8567 H   0  0  0  0  0  0  0  0  0  0  0  0
   27.9568    7.7668   30.3131 H   0  0  0  0  0  0  0  0  0  0  0  0
   31.2022   10.3924   31.0594 H   0  0  0  0  0  0  0  0  0  0  0  0
   29.1024   11.8002   30.1038 H   0  0  0  0  0  0  0  0  0  0  0  0
   28.2049    6.0861   31.7402 H   0  0  0  0  0  0  0  0  0  0  0  0
   30.6516    2.6970   31.3588 H   0  0  0  0  0  0  0  0  0  0  0  0
   32.1782    4.8885   30.8824 H   0  0  0  0  0  0  0  0  0  0  0  0
   23.3148    3.7618   31.9824 H   0  0  0  0  0  0  0  0  0  0  0  0
   25.2565    2.1957   32.5861 H   0  0  0  0  0  0  0  0  0  0  0  0
   22.3143    6.9086   32.8931 H   0  0  0  0  0  0  0  0  0  0  0  0
   18.7778    5.3860   30.9367 H   0  0  0  0  0  0  0  0  0  0  0  0
   20.1564    4.6924   28.9993 H   0  0  0  0  0  0  0  0  0  0  0  0
   22.6124    5.1078   29.0133 H   0  0  0  0  0  0  0  0  0  0  0  0
   28.6051    2.5517   34.5563 H   0  0  0  0  0  0  0  0  0  0  0  0
   28.5625   -1.7030   33.8467 H   0  0  0  0  0  0  0  0  0  0  0  0
   27.8075   -1.3022   31.5225 H   0  0  0  0  0  0  0  0  0  0  0  0
   27.4606    1.0218   30.7119 H   0  0  0  0  0  0  0  0  0  0  0  0
   29.0736   -0.7342   35.8027 H   0  0  0  0  0  0  0  0  0  0  0  0
   18.8127    6.2920   32.9791 H   0  0  0  0  0  0  0  0  0  0  0  0
   26.1201   13.4033   24.9341 H   0  0  0  0  0  0  0  0  0  0  0  0
   34.6624    8.9228   28.7497 H   0  0  0  0  0  0  0  0  0  0  0  0
 25 26  2  0
 26 27  1  0
 27 23  1  0
 28 29  1  0
  1  2  2  0
  3  4  2  0
  7  8  2  0
 14 15  1  0
 29 30  1  0
 30 31  2  0
 31 32  1  0
 32 28  2  0
 15 16  1  0
 29 33  2  0
 17 33  1  0
 16 17  1  0
 14 34  2  0
 22 34  1  0
 17 13  2  0
 27 35  2  0
 19 35  1  0
 18 19  1  0
 24 36  2  0
 32 36  1  0
  8  9  1  0
  4  5  1  0
 37 38  2  0
  9 10  2  0
 38 39  1  0
  2  3  1  0
 39 40  2  0
 10 11  1  0
 40 41  1  0
 19 20  2  0
 41 42  2  0
 42 37  1  0
 33 37  1  0
 20 21  1  0
 21 22  2  0
 43 44  2  0
 22 18  1  0
 44 45  1  0
 23 24  1  0
 45 46  2  0
  5  6  2  0
 46 47  1  0
 11 12  2  0
 47 48  2  0
 48 43  1  0
 36 43  1  0
 12  7  1  0
 45 49  1  0
 13 14  1  0
 39 50  1  0
 35 12  1  0
 34  2  1  0
  6  1  1  0
  4 51  1  0
 24 25  1  0
  8 52  1  0
  1 53  1  0
  3 54  1  0
  5 55  1  0
  6 56  1  0
  7 57  1  0
  9 58  1  0
 10 59  1  0
 11 60  1  0
 15 61  1  0
 15 62  1  0
 16 63  1  0
 16 64  1  0
 18 65  1  0
 20 66  1  0
 21 67  1  0
 23 68  1  0
 25 69  1  0
 26 70  1  0
 30 71  1  0
 31 72  1  0
 38 73  1  0
 40 74  1  0
 41 75  1  0
 42 76  1  0
 44 77  1  0
 46 78  1  0
 47 79  1  0
 48 80  1  0
 49 81  1  0
 50 82  1  0
 51 83  1  0
 52 84  1  0
M  END
> <Uni-Dock RESULT> 
ENERGY=   -4.368  LOWER_BOUND=    2.214  UPPER_BOUND=    9.004
INTER + INTRA:          -4.368
INTER:                  -4.368
INTRA:                   0.000
UNBOUND:                 0.000

$$$$

     RDKit          3D

 84 92  0  0  0  0  0  0  0  0999 V2000
   21.7725   12.2620   31.4191 C   0  0  0  0  0  0  0  0  0  0  0  0
   22.5037   11.6736   30.3783 C   0  0  0  0  0  0  0  0  0  0  0  0
   22.3159   12.1206   29.0669 C   0  0  0  0  0  0  0  0  0  0  0  0
   21.3914   13.1271   28.8088 C   0  0  0  0  0  0  0  0  0  0  0  0
   20.6587   13.7120   29.8419 C   0  0  0  0  0  0  0  0  0  0  0  0
   20.8539   13.2787   31.1524 C   0  0  0  0  0  0  0  0  0  0  0  0
   30.0255   11.8623   30.0908 C   0  0  0  0  0  0  0  0  0  0  0  0
   31.1436   12.6882   30.1687 C   0  0  0  0  0  0  0  0  0  0  0  0
   32.0617   12.5506   31.2033 C   0  0  0  0  0  0  0  0  0  0  0  0
   31.8621   11.5725   32.1775 C   0  0  0  0  0  0  0  0  0  0  0  0
   30.7429   10.7386   32.1091 C   0  0  0  0  0  0  0  0  0  0  0  0
   29.8153   10.8825   31.0696 C   0  0  0  0  0  0  0  0  0  0  0  0
   23.7781    8.1554   30.9643 N   0  0  0  0  0  0  0  0  0  0  0  0
   23.0463    9.2823   30.7368 C   0  0  0  0  0  0  0  0  0  0  0  0
   21.6098    8.8956   30.5127 C   0  0  0  0  0  0  0  0  0  0  0  0
   21.5419    7.5166   31.1140 C   0  0  0  0  0  0  0  0  0  0  0  0
   22.9868    7.0474   31.0995 C   0  0  0  0  0  0  0  0  0  0  0  0
   25.9895    9.9885   30.7774 N   0  0  0  0  0  0  0  0  0  0  0  0
   27.1882   10.6117   31.0271 C   0  0  0  0  0  0  0  0  0  0  0  0
   26.9086   11.9246   31.3724 C   0  0  0  0  0  0  0  0  0  0  0  0
   25.5112   12.1174   31.2716 C   0  0  0  0  0  0  0  0  0  0  0  0
   24.9730   10.9107   30.8930 C   0  0  0  0  0  0  0  0  0  0  0  0
   28.0689    7.4088   31.0426 N   0  0  0  0  0  0  0  0  0  0  0  0
   28.7051    6.2354   30.7057 C   0  0  0  0  0  0  0  0  0  0  0  0
   29.9010    6.5376   30.1008 C   0  0  0  0  0  0  0  0  0  0  0  0
   30.0102    7.9486   30.1020 C   0  0  0  0  0  0  0  0  0  0  0  0
   28.8804    8.4631   30.7173 C   0  0  0  0  0  0  0  0  0  0  0  0
   25.7882    5.6959   31.0805 N   0  0  0  0  0  0  0  0  0  0  0  0
   24.5349    5.1610   31.2363 C   0  0  0  0  0  0  0  0  0  0  0  0
   24.7499    3.7275   31.4097 C   0  0  0  0  0  0  0  0  0  0  0  0
   26.0509    3.4676   31.3285 C   0  0  0  0  0  0  0  0  0  0  0  0
   26.7397    4.7134   31.0975 C   0  0  0  0  0  0  0  0  0  0  0  0
   23.2767    5.7108   31.2414 C   0  0  0  0  0  0  0  0  0  0  0  0
   23.4488   10.5780   30.6691 C   0  0  0  0  0  0  0  0  0  0  0  0
   28.6339    9.9896   30.9865 C   0  0  0  0  0  0  0  0  0  0  0  0
   28.0868    4.8003   30.9408 C   0  0  0  0  0  0  0  0  0  0  0  0
   22.1165    4.7787   31.3889 C   0  0  0  0  0  0  0  0  0  0  0  0
   21.5606    4.5055   32.6478 C   0  0  0  0  0  0  0  0  0  0  0  0
   20.4820    3.6327   32.7504 C   0  0  0  0  0  0  0  0  0  0  0  0
   19.9411    3.0241   31.6161 C   0  0  0  0  0  0  0  0  0  0  0  0
   20.4896    3.2903   30.3607 C   0  0  0  0  0  0  0  0  0  0  0  0
   21.5732    4.1624   30.2489 C   0  0  0  0  0  0  0  0  0  0  0  0
   28.9889    3.6301   30.9731 C   0  0  0  0  0  0  0  0  0  0  0  0
   29.7954    3.3843   32.0902 C   0  0  0  0  0  0  0  0  0  0  0  0
   30.6495    2.2855   32.0962 C   0  0  0  0  0  0  0  0  0  0  0  0
   30.7181    1.4249   31.0003 C   0  0  0  0  0  0  0  0  0  0  0  0
   29.9170    1.6674   29.8844 C   0  0  0  0  0  0  0  0  0  0  0  0
   29.0577    2.7672   29.8705 C   0  0  0  0  0  0  0  0  0  0  0  0
   31.4203    2.0724   33.2032 O   0  0  0  0  0  0  0  0  0  0  0  0
   19.9657    3.3786   33.9907 O   0  0  0  0  0  0  0  0  0  0  0  0
   21.2085   13.5225   27.5146 O   0  0  0  0  0  0  0  0  0  0  0  0
   31.3702   13.6549   29.2302 O   0  0  0  0  0  0  0  0  0  0  0  0
   21.9200   11.9019   32.4356 H   0  0  0  0  0  0  0  0  0  0  0  0
   22.8766   11.6586   28.2592 H   0  0  0  0  0  0  0  0  0  0  0  0
   19.9424   14.5007   29.6450 H   0  0  0  0  0  0  0  0  0  0  0  0
   20.2887   13.7164   31.9690 H   0  0  0  0  0  0  0  0  0  0  0  0
   29.3051   11.9615   29.2832 H   0  0  0  0  0  0  0  0  0  0  0  0
   32.9301   13.1999   31.2491 H   0  0  0  0  0  0  0  0  0  0  0  0
   32.5750   11.4530   32.9874 H   0  0  0  0  0  0  0  0  0  0  0  0
   30.5889    9.9674   32.8625 H   0  0  0  0  0  0  0  0  0  0  0  0
   21.3918    8.8607   29.4371 H   0  0  0  0  0  0  0  0  0  0  0  0
   20.8816    9.5549   30.9967 H   0  0  0  0  0  0  0  0  0  0  0  0
   20.8552    6.8994   30.5275 H   0  0  0  0  0  0  0  0  0  0  0  0
   21.1743    7.5699   32.1466 H   0  0  0  0  0  0  0  0  0  0  0  0
   25.7934    9.0024   30.5996 H   0  0  0  0  0  0  0  0  0  0  0  0
   27.6309   12.6728   31.6648 H   0  0  0  0  0  0  0  0  0  0  0  0
   24.9587   13.0244   31.4662 H   0  0  0  0  0  0  0  0  0  0  0  0
   27.1150    7.4137   31.4071 H   0  0  0  0  0  0  0  0  0  0  0  0
   30.6043    5.8238   29.6998 H   0  0  0  0  0  0  0  0  0  0  0  0
   30.8340    8.5269   29.7081 H   0  0  0  0  0  0  0  0  0  0  0  0
   23.9884    2.9902   31.5846 H   0  0  0  0  0  0  0  0  0  0  0  0
   26.5022    2.4976   31.4243 H   0  0  0  0  0  0  0  0  0  0  0  0
   21.9877    4.9798   33.5265 H   0  0  0  0  0  0  0  0  0  0  0  0
   19.1010    2.3440   31.6901 H   0  0  0  0  0  0  0  0  0  0  0  0
   20.0852    2.8249   29.4686 H   0  0  0  0  0  0  0  0  0  0  0  0
   22.0201    4.3823   29.2807 H   0  0  0  0  0  0  0  0  0  0  0  0
   29.7416    4.0501   32.9468 H   0  0  0  0  0  0  0  0  0  0  0  0
   31.3823    0.5682   30.9993 H   0  0  0  0  0  0  0  0  0  0  0  0
   29.9509    1.0042   29.0261 H   0  0  0  0  0  0  0  0  0  0  0  0
   28.4234    2.9650   29.0078 H   0  0  0  0  0  0  0  0  0  0  0  0
   31.9084    1.2465   33.0703 H   0  0  0  0  0  0  0  0  0  0  0  0
   19.2673    2.7174   33.8870 H   0  0  0  0  0  0  0  0  0  0  0  0
   20.3420   13.9555   27.4651 H   0  0  0  0  0  0  0  0  0  0  0  0
   30.6487   13.5956   28.5812 H   0  0  0  0  0  0  0  0  0  0  0  0
 25 26  2  0
 26 27  1  0
 27 23  1  0
 28 29  1  0
  1  2  2  0
  3  4  2  0
  7  8  2  0
 14 15  1  0
 29 30  1  0
 30 31  2  0
 31 32  1  0
 32 28  2  0
 15 16  1  0
 29 33  2  0
 17 33  1  0
 16 17  1  0
 14 34  2  0
 22 34  1  0
 17 13  2  0
 27 35  2  0
 19 35  1  0
 18 19  1  0
 24 36  2  0
 32 36  1  0
  8  9  1  0
  4  5  1  0
 37 38  2  0
  9 10  2  0
 38 39  1  0
  2  3  1  0
 39 40  2  0
 10 11  1  0
 40 41  1  0
 19 20  2  0
 41 42  2  0
 42 37  1  0
 33 37  1  0
 20 21  1  0
 21 22  2  0
 43 44  2  0
 22 18  1  0
 44 45  1  0
 23 24  1  0
 45 46  2  0
  5  6  2  0
 46 47  1  0
 11 12  2  0
 47 48  2  0
 48 43  1  0
 36 43  1  0
 12  7  1  0
 45 49  1  0
 13 14  1  0
 39 50  1  0
 35 12  1  0
 34  2  1  0
  6  1  1  0
  4 51  1  0
 24 25  1  0
  8 52  1  0
  1 53  1  0
  3 54  1  0
  5 55  1  0
  6 56  1  0
  7 57  1  0
  9 58  1  0
 10 59  1  0
 11 60  1  0
 15 61  1  0
 15 62  1  0
 16 63  1  0
 16 64  1  0
 18 65  1  0
 20 66  1  0
 21 67  1  0
 23 68  1  0
 25 69  1  0
 26 70  1  0
 30 71  1  0
 31 72  1  0
 38 73  1  0
 40 74  1  0
 41 75  1  0
 42 76  1  0
 44 77  1  0
 46 78  1  0
 47 79  1  0
 48 80  1  0
 49 81  1  0
 50 82  1  0
 51 83  1  0
 52 84  1  0
M  END
> <Uni-Dock RESULT> 
ENERGY=   -4.356  LOWER_BOUND=    1.919  UPPER_BOUND=    7.171
INTER + INTRA:          -4.356
INTER:                  -4.356
INTRA:                   0.000
UNBOUND:                 0.000

$$$$
