
     RDKit          3D

 48 50  0  0  0  0  0  0  0  0999 V2000
   -0.6687   -0.4927   -1.2016 C   0  0  0  0  0  0  0  0  0  0  0  0
   -1.6049    0.5742   -1.6787 C   0  0  0  0  0  0  0  0  0  0  0  0
    0.7043   -0.2100   -1.3120 C   0  0  0  0  0  0  0  0  0  0  0  0
    3.1011   -0.7852   -1.0253 C   0  0  0  0  0  0  0  0  0  0  0  0
    1.6621   -1.1303   -0.8763 C   0  0  0  0  0  0  0  0  0  0  0  0
   -2.8998    0.2016   -1.9535 N   0  0  0  0  0  0  0  0  0  0  0  0
    3.9509   -1.3028   -0.0706 N   0  0  0  0  0  0  0  0  0  0  0  0
   -1.0816   -1.7165   -0.6365 C   0  0  0  0  0  0  0  0  0  0  0  0
   -1.2047    1.7266   -1.8157 O   0  0  0  0  0  0  0  0  0  0  0  0
    3.4652   -0.0559   -1.9395 O   0  0  0  0  0  0  0  0  0  0  0  0
   -5.0371    2.6339    1.0366 N   0  0  0  0  0  0  0  0  0  0  0  0
    6.3871    0.7891    3.2003 N   0  0  0  0  0  0  0  0  0  0  0  0
    1.2506   -2.3556   -0.3475 C   0  0  0  0  0  0  0  0  0  0  0  0
   -0.1127   -2.6459   -0.2307 C   0  0  0  0  0  0  0  0  0  0  0  0
   -4.7765    1.4564   -1.0685 C   0  0  0  0  0  0  0  0  0  0  0  0
    5.5709    0.1580    1.0056 C   0  0  0  0  0  0  0  0  0  0  0  0
    5.3449   -0.9144   -0.0196 C   0  0  0  0  0  0  0  0  0  0  0  0
   -3.9267    1.1646   -2.2700 C   0  0  0  0  0  0  0  0  0  0  0  0
   -2.4280   -1.9650   -0.5398 O   0  0  0  0  0  0  0  0  0  0  0  0
    6.1720   -0.1255    2.2274 C   0  0  0  0  0  0  0  0  0  0  0  0
   -4.3337    2.3311   -0.0803 C   0  0  0  0  0  0  0  0  0  0  0  0
   -6.2369    2.0336    1.1786 C   0  0  0  0  0  0  0  0  0  0  0  0
    5.9861    2.0533    2.9428 C   0  0  0  0  0  0  0  0  0  0  0  0
   -6.0198    0.8468   -0.8785 C   0  0  0  0  0  0  0  0  0  0  0  0
    5.1683    1.4784    0.7804 C   0  0  0  0  0  0  0  0  0  0  0  0
   -2.8380   -2.8715    0.4818 C   0  0  0  0  0  0  0  0  0  0  0  0
   -6.7651    1.1416    0.2601 C   0  0  0  0  0  0  0  0  0  0  0  0
    5.3787    2.4428    1.7611 C   0  0  0  0  0  0  0  0  0  0  0  0
    1.0306    0.7372   -1.7418 H   0  0  0  0  0  0  0  0  0  0  0  0
   -3.1864   -0.7344   -1.6884 H   0  0  0  0  0  0  0  0  0  0  0  0
    3.5532   -1.6872    0.7749 H   0  0  0  0  0  0  0  0  0  0  0  0
    1.9767   -3.1082   -0.0511 H   0  0  0  0  0  0  0  0  0  0  0  0
   -0.3909   -3.6185    0.1644 H   0  0  0  0  0  0  0  0  0  0  0  0
    5.9158   -1.8151    0.2327 H   0  0  0  0  0  0  0  0  0  0  0  0
    5.6928   -0.5751   -1.0019 H   0  0  0  0  0  0  0  0  0  0  0  0
   -3.4896    2.0908   -2.6586 H   0  0  0  0  0  0  0  0  0  0  0  0
   -4.5356    0.7338   -3.0725 H   0  0  0  0  0  0  0  0  0  0  0  0
    6.5093   -1.1291    2.4734 H   0  0  0  0  0  0  0  0  0  0  0  0
   -3.3671    2.8253   -0.1601 H   0  0  0  0  0  0  0  0  0  0  0  0
   -6.7808    2.2942    2.0814 H   0  0  0  0  0  0  0  0  0  0  0  0
    6.1716    2.7699    3.7377 H   0  0  0  0  0  0  0  0  0  0  0  0
   -6.4128    0.1483   -1.6126 H   0  0  0  0  0  0  0  0  0  0  0  0
    4.6900    1.7558   -0.1575 H   0  0  0  0  0  0  0  0  0  0  0  0
   -3.9179   -2.7572    0.6115 H   0  0  0  0  0  0  0  0  0  0  0  0
   -2.6458   -3.9058    0.1789 H   0  0  0  0  0  0  0  0  0  0  0  0
   -2.3602   -2.6444    1.4415 H   0  0  0  0  0  0  0  0  0  0  0  0
   -7.7351    0.6869    0.4284 H   0  0  0  0  0  0  0  0  0  0  0  0
    5.0743    3.4721    1.6060 H   0  0  0  0  0  0  0  0  0  0  0  0
  2  1  1  0
  3  1  2  0
  4  5  1  0
  5  3  1  0
  6  2  1  0
  7  4  1  0
  8  1  1  0
  9  2  2  0
 10  4  2  0
 11 21  2  0
 12 20  2  0
 13 14  1  0
 14  8  2  0
 15 18  1  0
 16 17  1  0
 17  7  1  0
 18  6  1  0
 19  8  1  0
 20 16  1  0
 21 15  1  0
 22 27  2  0
 23 28  2  0
 24 15  2  0
 25 16  2  0
 26 19  1  0
 27 24  1  0
 28 25  1  0
  5 13  2  0
 11 22  1  0
 12 23  1  0
  3 29  1  0
  6 30  1  0
  7 31  1  0
 13 32  1  0
 14 33  1  0
 17 34  1  0
 17 35  1  0
 18 36  1  0
 18 37  1  0
 20 38  1  0
 21 39  1  0
 22 40  1  0
 23 41  1  0
 24 42  1  0
 25 43  1  0
 26 44  1  0
 26 45  1  0
 26 46  1  0
 27 47  1  0
 28 48  1  0
M  END
$$$$
