
     RDKit          3D

 48 50  0  0  0  0  0  0  0  0999 V2000
   -0.7494    0.0924   -0.0647 C   0  0  0  0  0  0  0  0  0  0  0  0
   -1.7667   -0.8807   -0.5769 C   0  0  0  0  0  0  0  0  0  0  0  0
    0.5190    0.0470   -0.6708 C   0  0  0  0  0  0  0  0  0  0  0  0
    2.8716    0.7995   -0.9209 C   0  0  0  0  0  0  0  0  0  0  0  0
    1.5443    0.9027   -0.2547 C   0  0  0  0  0  0  0  0  0  0  0  0
   -2.8693   -1.1153    0.2096 N   0  0  0  0  0  0  0  0  0  0  0  0
    3.9671    1.1297   -0.1506 N   0  0  0  0  0  0  0  0  0  0  0  0
   -0.9974    1.0408    0.9477 C   0  0  0  0  0  0  0  0  0  0  0  0
   -1.5947   -1.4415   -1.6545 O   0  0  0  0  0  0  0  0  0  0  0  0
    2.9492    0.4058   -2.0781 O   0  0  0  0  0  0  0  0  0  0  0  0
   -6.0569    0.3921   -2.4223 N   0  0  0  0  0  0  0  0  0  0  0  0
    7.3454   -1.4890    1.4679 N   0  0  0  0  0  0  0  0  0  0  0  0
    1.2962    1.8339    0.7569 C   0  0  0  0  0  0  0  0  0  0  0  0
    0.0350    1.8968    1.3578 C   0  0  0  0  0  0  0  0  0  0  0  0
   -5.1162   -1.0358   -0.7022 C   0  0  0  0  0  0  0  0  0  0  0  0
    5.8853   -0.3624   -0.1073 C   0  0  0  0  0  0  0  0  0  0  0  0
    5.3146    0.9205   -0.6358 C   0  0  0  0  0  0  0  0  0  0  0  0
   -3.9851   -1.9098   -0.2447 C   0  0  0  0  0  0  0  0  0  0  0  0
   -2.2401    1.0690    1.5306 O   0  0  0  0  0  0  0  0  0  0  0  0
    6.8082   -0.3686    0.9337 C   0  0  0  0  0  0  0  0  0  0  0  0
   -5.0803   -0.4179   -1.9492 C   0  0  0  0  0  0  0  0  0  0  0  0
   -7.1193    0.5985   -1.6159 C   0  0  0  0  0  0  0  0  0  0  0  0
    6.9453   -2.6647    0.9366 C   0  0  0  0  0  0  0  0  0  0  0  0
   -6.2286   -0.7871    0.1075 C   0  0  0  0  0  0  0  0  0  0  0  0
    5.4939   -1.6009   -0.6250 C   0  0  0  0  0  0  0  0  0  0  0  0
   -2.6981    2.3531    1.9577 C   0  0  0  0  0  0  0  0  0  0  0  0
   -7.2490    0.0395   -0.3554 C   0  0  0  0  0  0  0  0  0  0  0  0
    6.0314   -2.7711   -0.0986 C   0  0  0  0  0  0  0  0  0  0  0  0
    0.7132   -0.6700   -1.4691 H   0  0  0  0  0  0  0  0  0  0  0  0
   -3.0036   -0.5216    1.0214 H   0  0  0  0  0  0  0  0  0  0  0  0
    3.8510    1.2104    0.8494 H   0  0  0  0  0  0  0  0  0  0  0  0
    2.0641    2.5343    1.0750 H   0  0  0  0  0  0  0  0  0  0  0  0
   -0.1145    2.6213    2.1532 H   0  0  0  0  0  0  0  0  0  0  0  0
    5.3404    0.9215   -1.7311 H   0  0  0  0  0  0  0  0  0  0  0  0
    5.9108    1.7751   -0.2971 H   0  0  0  0  0  0  0  0  0  0  0  0
   -3.6826   -2.5883   -1.0503 H   0  0  0  0  0  0  0  0  0  0  0  0
   -4.3011   -2.5311    0.6004 H   0  0  0  0  0  0  0  0  0  0  0  0
    7.1560    0.5556    1.3885 H   0  0  0  0  0  0  0  0  0  0  0  0
   -4.2364   -0.5582   -2.6216 H   0  0  0  0  0  0  0  0  0  0  0  0
   -7.8893    1.2475   -2.0239 H   0  0  0  0  0  0  0  0  0  0  0  0
    7.3944   -3.5498    1.3791 H   0  0  0  0  0  0  0  0  0  0  0  0
   -6.3079   -1.2358    1.0947 H   0  0  0  0  0  0  0  0  0  0  0  0
    4.7705   -1.6539   -1.4373 H   0  0  0  0  0  0  0  0  0  0  0  0
   -3.7805    2.2865    2.1077 H   0  0  0  0  0  0  0  0  0  0  0  0
   -2.2463    2.6234    2.9181 H   0  0  0  0  0  0  0  0  0  0  0  0
   -2.5110    3.1244    1.2010 H   0  0  0  0  0  0  0  0  0  0  0  0
   -8.1252    0.2411    0.2504 H   0  0  0  0  0  0  0  0  0  0  0  0
    5.7426   -3.7413   -0.4870 H   0  0  0  0  0  0  0  0  0  0  0  0
  2  1  1  0
  3  1  2  0
  4  5  1  0
  5  3  1  0
  6  2  1  0
  7  4  1  0
  8  1  1  0
  9  2  2  0
 10  4  2  0
 11 21  2  0
 12 20  2  0
 13 14  1  0
 14  8  2  0
 15 18  1  0
 16 17  1  0
 17  7  1  0
 18  6  1  0
 19  8  1  0
 20 16  1  0
 21 15  1  0
 22 27  2  0
 23 28  2  0
 24 15  2  0
 25 16  2  0
 26 19  1  0
 27 24  1  0
 28 25  1  0
  5 13  2  0
 11 22  1  0
 12 23  1  0
  3 29  1  0
  6 30  1  0
  7 31  1  0
 13 32  1  0
 14 33  1  0
 17 34  1  0
 17 35  1  0
 18 36  1  0
 18 37  1  0
 20 38  1  0
 21 39  1  0
 22 40  1  0
 23 41  1  0
 24 42  1  0
 25 43  1  0
 26 44  1  0
 26 45  1  0
 26 46  1  0
 27 47  1  0
 28 48  1  0
M  END
$$$$
