
     RDKit          3D

 28 30  0  0  0  0  0  0  0  0999 V2000
   -0.9619   -1.0810    0.5362 C   0  0  0  0  0  0  0  0  0  0  0  0
   -2.0163   -0.8488   -0.4442 C   0  0  0  0  0  0  0  0  0  0  0  0
    0.3290   -0.6252    0.2962 C   0  0  0  0  0  0  0  0  0  0  0  0
    2.6871   -0.3462    0.9347 C   0  0  0  0  0  0  0  0  0  0  0  0
    1.3386   -0.8324    1.2050 C   0  0  0  0  0  0  0  0  0  0  0  0
   -3.3245   -1.3343   -0.1557 N   0  0  0  0  0  0  0  0  0  0  0  0
    3.6834   -0.5901    1.9062 N   0  0  0  0  0  0  0  0  0  0  0  0
   -1.2758   -1.7607    1.7015 C   0  0  0  0  0  0  0  0  0  0  0  0
   -1.7467   -0.2300   -1.5131 O   0  0  0  0  0  0  0  0  0  0  0  0
    2.8853    0.2622   -0.1476 O   0  0  0  0  0  0  0  0  0  0  0  0
   -4.5798    2.5012   -1.7952 N   0  0  0  0  0  0  0  0  0  0  0  0
    5.4454    2.6358   -0.5459 N   0  0  0  0  0  0  0  0  0  0  0  0
    1.0158   -1.5106    2.3629 C   0  0  0  0  0  0  0  0  0  0  0  0
   -0.2593   -1.9707    2.6192 C   0  0  0  0  0  0  0  0  0  0  0  0
   -4.8665    0.2712   -0.9715 C   0  0  0  0  0  0  0  0  0  0  0  0
    5.3542    0.5495    0.5271 C   0  0  0  0  0  0  0  0  0  0  0  0
    5.0619   -0.1770    1.7927 C   0  0  0  0  0  0  0  0  0  0  0  0
   -4.4266   -1.1433   -1.0804 C   0  0  0  0  0  0  0  0  0  0  0  0
   -2.5694   -2.2091    1.9258 O   0  0  0  0  0  0  0  0  0  0  0  0
    5.2036    1.9222    0.5423 C   0  0  0  0  0  0  0  0  0  0  0  0
   -4.2731    1.1986   -1.7954 C   0  0  0  0  0  0  0  0  0  0  0  0
   -5.5172    2.9449   -0.9495 C   0  0  0  0  0  0  0  0  0  0  0  0
    5.8395    2.0105   -1.6677 C   0  0  0  0  0  0  0  0  0  0  0  0
   -5.8346    0.7007   -0.0912 C   0  0  0  0  0  0  0  0  0  0  0  0
    5.7630   -0.1217   -0.6281 C   0  0  0  0  0  0  0  0  0  0  0  0
   -2.8344   -2.9022    3.1413 C   0  0  0  0  0  0  0  0  0  0  0  0
   -6.1310    2.0451   -0.1115 C   0  0  0  0  0  0  0  0  0  0  0  0
    6.0102    0.6415   -1.7531 C   0  0  0  0  0  0  0  0  0  0  0  0
  2  1  1  0
  3  1  2  0
  4  5  1  0
  5  3  1  0
  6  2  1  0
  7  4  1  0
  8  1  1  0
  9  2  2  0
 10  4  2  0
 11 21  2  0
 12 20  2  0
 13 14  1  0
 14  8  2  0
 15 18  1  0
 16 17  1  0
 17  7  1  0
 18  6  1  0
 19  8  1  0
 20 16  1  0
 21 15  1  0
 22 27  2  0
 23 28  2  0
 24 15  2  0
 25 16  2  0
 26 19  1  0
 27 24  1  0
 28 25  1  0
  5 13  2  0
 11 22  1  0
 12 23  1  0
M  END
