
     RDKit          2D

 28 30  0  0  0  0  0  0  0  0999 V2000
   -1.4750   -0.5667    0.0000 C   0  0  0  0  0  0  0  0  0  0  0  0
   -0.8958   -1.5417    0.0000 C   0  0  0  0  0  0  0  0  0  0  0  0
   -0.9125    0.4250    0.0000 C   0  0  0  0  0  0  0  0  0  0  0  0
   -0.9333    2.4208    0.0000 C   0  0  0  0  0  0  0  0  0  0  0  0
   -1.4833    1.4208    0.0000 C   0  0  0  0  0  0  0  0  0  0  0  0
    0.3000   -1.5417    0.0000 N   0  0  0  0  0  0  0  0  0  0  0  0
    0.2000    2.4208    0.0000 N   0  0  0  0  0  0  0  0  0  0  0  0
   -2.5958   -0.5667    0.0000 C   0  0  0  0  0  0  0  0  0  0  0  0
   -1.4833   -2.5625    0.0000 O   0  0  0  0  0  0  0  0  0  0  0  0
   -1.5083    3.4208    0.0000 O   0  0  0  0  0  0  0  0  0  0  0  0
    3.6292   -3.3125    0.0000 N   0  0  0  0  0  0  0  0  0  0  0  0
    3.6042    0.4458    0.0000 N   0  0  0  0  0  0  0  0  0  0  0  0
   -2.5958    1.4333    0.0000 C   0  0  0  0  0  0  0  0  0  0  0  0
   -3.1958    0.4250    0.0000 C   0  0  0  0  0  0  0  0  0  0  0  0
    1.9750   -2.3750    0.0000 C   0  0  0  0  0  0  0  0  0  0  0  0
    1.8875    1.4458    0.0000 C   0  0  0  0  0  0  0  0  0  0  0  0
    0.7542    1.4458    0.0000 C   0  0  0  0  0  0  0  0  0  0  0  0
    0.8292   -2.3750    0.0000 C   0  0  0  0  0  0  0  0  0  0  0  0
   -3.1208   -1.5625    0.0000 O   0  0  0  0  0  0  0  0  0  0  0  0
    2.4792    0.4458    0.0000 C   0  0  0  0  0  0  0  0  0  0  0  0
    2.5042   -3.3125    0.0000 C   0  0  0  0  0  0  0  0  0  0  0  0
    4.2250   -2.3250    0.0000 C   0  0  0  0  0  0  0  0  0  0  0  0
    4.1792    1.4208    0.0000 C   0  0  0  0  0  0  0  0  0  0  0  0
    2.5042   -1.3375    0.0000 C   0  0  0  0  0  0  0  0  0  0  0  0
    2.5042    2.4083    0.0000 C   0  0  0  0  0  0  0  0  0  0  0  0
   -4.2333   -1.6042    0.0000 C   0  0  0  0  0  0  0  0  0  0  0  0
    3.6625   -1.3292    0.0000 C   0  0  0  0  0  0  0  0  0  0  0  0
    3.6167    2.4208    0.0000 C   0  0  0  0  0  0  0  0  0  0  0  0
  2  1  1  0
  3  1  1  0
  4  5  1  0
  5  3  2  0
  6  2  1  0
  7  4  1  0
  8  1  2  0
  9  2  2  0
 10  4  2  0
 11 21  2  0
 12 20  2  0
 13 14  2  0
 14  8  1  0
 15 18  1  0
 16 17  1  0
 17  7  1  0
 18  6  1  0
 19  8  1  0
 20 16  1  0
 21 15  1  0
 22 27  2  0
 23 28  2  0
 24 15  2  0
 25 16  2  0
 26 19  1  0
 27 24  1  0
 28 25  1  0
  5 13  1  0
 11 22  1  0
 12 23  1  0
M  END
> <chembl_id>
CHEMBL1257015

> <chembl_pref_name>
PICOTAMIDE
