
     RDKit          3D

 48 50  0  0  0  0  0  0  0  0999 V2000
   -0.9263   -0.4309   -0.9521 C   0  0  0  0  0  0  0  0  0  0  0  0
   -2.0552    0.5350   -0.7521 C   0  0  0  0  0  0  0  0  0  0  0  0
    0.3158    0.1416   -1.2911 C   0  0  0  0  0  0  0  0  0  0  0  0
    2.7698   -0.0889   -1.8516 C   0  0  0  0  0  0  0  0  0  0  0  0
    1.4429   -0.6597   -1.4892 C   0  0  0  0  0  0  0  0  0  0  0  0
   -3.3311    0.0269   -0.7261 N   0  0  0  0  0  0  0  0  0  0  0  0
    3.0174    1.2025   -1.4399 N   0  0  0  0  0  0  0  0  0  0  0  0
   -1.0338   -1.8300   -0.8063 C   0  0  0  0  0  0  0  0  0  0  0  0
   -1.8176    1.7333   -0.6261 O   0  0  0  0  0  0  0  0  0  0  0  0
    3.5829   -0.7769   -2.4586 O   0  0  0  0  0  0  0  0  0  0  0  0
   -4.4594    1.2661    3.3707 N   0  0  0  0  0  0  0  0  0  0  0  0
    6.0583    2.7713    1.5819 N   0  0  0  0  0  0  0  0  0  0  0  0
    1.3223   -2.0465   -1.3768 C   0  0  0  0  0  0  0  0  0  0  0  0
    0.0961   -2.6267   -1.0373 C   0  0  0  0  0  0  0  0  0  0  0  0
   -4.8504    0.6644    1.0543 C   0  0  0  0  0  0  0  0  0  0  0  0
    5.1614    1.7251   -0.4134 C   0  0  0  0  0  0  0  0  0  0  0  0
    4.3064    1.8276   -1.6421 C   0  0  0  0  0  0  0  0  0  0  0  0
   -4.4777    0.8355   -0.3887 C   0  0  0  0  0  0  0  0  0  0  0  0
   -2.2569   -2.3509   -0.4649 O   0  0  0  0  0  0  0  0  0  0  0  0
    5.3139    2.8025    0.4531 C   0  0  0  0  0  0  0  0  0  0  0  0
   -4.1887    1.3779    2.0494 C   0  0  0  0  0  0  0  0  0  0  0  0
   -5.4304    0.3967    3.7198 C   0  0  0  0  0  0  0  0  0  0  0  0
    6.6813    1.6073    1.8651 C   0  0  0  0  0  0  0  0  0  0  0  0
   -5.8418   -0.2344    1.4580 C   0  0  0  0  0  0  0  0  0  0  0  0
    5.8194    0.5372   -0.0809 C   0  0  0  0  0  0  0  0  0  0  0  0
   -2.2812   -3.6820    0.0432 C   0  0  0  0  0  0  0  0  0  0  0  0
   -6.1408   -0.3695    2.8107 C   0  0  0  0  0  0  0  0  0  0  0  0
    6.5930    0.4745    1.0739 C   0  0  0  0  0  0  0  0  0  0  0  0
    0.3794    1.2192   -1.4259 H   0  0  0  0  0  0  0  0  0  0  0  0
   -3.4340   -0.9822   -0.7039 H   0  0  0  0  0  0  0  0  0  0  0  0
    2.3994    1.6358   -0.7672 H   0  0  0  0  0  0  0  0  0  0  0  0
    2.1874   -2.6844   -1.5531 H   0  0  0  0  0  0  0  0  0  0  0  0
    0.0579   -3.7099   -0.9707 H   0  0  0  0  0  0  0  0  0  0  0  0
    4.8229    1.3800   -2.4988 H   0  0  0  0  0  0  0  0  0  0  0  0
    4.1170    2.8773   -1.8925 H   0  0  0  0  0  0  0  0  0  0  0  0
   -4.2877    1.8916   -0.6108 H   0  0  0  0  0  0  0  0  0  0  0  0
   -5.3016    0.5137   -1.0352 H   0  0  0  0  0  0  0  0  0  0  0  0
    4.8268    3.7555    0.2631 H   0  0  0  0  0  0  0  0  0  0  0  0
   -3.3937    2.0791    1.8028 H   0  0  0  0  0  0  0  0  0  0  0  0
   -5.6281    0.3284    4.7856 H   0  0  0  0  0  0  0  0  0  0  0  0
    7.2727    1.6085    2.7761 H   0  0  0  0  0  0  0  0  0  0  0  0
   -6.3840   -0.8272    0.7261 H   0  0  0  0  0  0  0  0  0  0  0  0
    5.7277   -0.3386   -0.7206 H   0  0  0  0  0  0  0  0  0  0  0  0
   -3.2847   -3.8678    0.4381 H   0  0  0  0  0  0  0  0  0  0  0  0
   -2.0998   -4.4061   -0.7572 H   0  0  0  0  0  0  0  0  0  0  0  0
   -1.5700   -3.8109    0.8660 H   0  0  0  0  0  0  0  0  0  0  0  0
   -6.9095   -1.0549    3.1490 H   0  0  0  0  0  0  0  0  0  0  0  0
    7.1126   -0.4361    1.3492 H   0  0  0  0  0  0  0  0  0  0  0  0
  2  1  1  0
  3  1  2  0
  4  5  1  0
  5  3  1  0
  6  2  1  0
  7  4  1  0
  8  1  1  0
  9  2  2  0
 10  4  2  0
 11 21  2  0
 12 20  2  0
 13 14  1  0
 14  8  2  0
 15 18  1  0
 16 17  1  0
 17  7  1  0
 18  6  1  0
 19  8  1  0
 20 16  1  0
 21 15  1  0
 22 27  2  0
 23 28  2  0
 24 15  2  0
 25 16  2  0
 26 19  1  0
 27 24  1  0
 28 25  1  0
  5 13  2  0
 11 22  1  0
 12 23  1  0
  3 29  1  0
  6 30  1  0
  7 31  1  0
 13 32  1  0
 14 33  1  0
 17 34  1  0
 17 35  1  0
 18 36  1  0
 18 37  1  0
 20 38  1  0
 21 39  1  0
 22 40  1  0
 23 41  1  0
 24 42  1  0
 25 43  1  0
 26 44  1  0
 26 45  1  0
 26 46  1  0
 27 47  1  0
 28 48  1  0
M  END
$$$$
