
     RDKit          3D

 48 50  0  0  0  0  0  0  0  0999 V2000
   -0.8678   -1.1703   -0.4612 C   0  0  0  0  0  0  0  0  0  0  0  0
   -1.9197   -0.6856   -1.4127 C   0  0  0  0  0  0  0  0  0  0  0  0
    0.4651   -1.0547   -0.8961 C   0  0  0  0  0  0  0  0  0  0  0  0
    2.9135   -1.3360   -0.5941 C   0  0  0  0  0  0  0  0  0  0  0  0
    1.5233   -1.4645   -0.0795 C   0  0  0  0  0  0  0  0  0  0  0  0
   -3.2085   -1.1141   -1.1987 N   0  0  0  0  0  0  0  0  0  0  0  0
    3.8966   -1.1291    0.3505 N   0  0  0  0  0  0  0  0  0  0  0  0
   -1.1369   -1.6980    0.8193 C   0  0  0  0  0  0  0  0  0  0  0  0
   -1.6139    0.0571   -2.3408 O   0  0  0  0  0  0  0  0  0  0  0  0
    3.1318   -1.3910   -1.7979 O   0  0  0  0  0  0  0  0  0  0  0  0
   -6.8173    1.1863    0.3004 N   0  0  0  0  0  0  0  0  0  0  0  0
    5.4129    2.7599   -1.1308 N   0  0  0  0  0  0  0  0  0  0  0  0
    1.2516   -2.0163    1.1746 C   0  0  0  0  0  0  0  0  0  0  0  0
   -0.0697   -2.1315    1.6193 C   0  0  0  0  0  0  0  0  0  0  0  0
   -5.0168    0.5028   -1.1741 C   0  0  0  0  0  0  0  0  0  0  0  0
    5.5533    0.6109   -0.0181 C   0  0  0  0  0  0  0  0  0  0  0  0
    5.2628   -0.8606   -0.0422 C   0  0  0  0  0  0  0  0  0  0  0  0
   -4.3305   -0.5900   -1.9403 C   0  0  0  0  0  0  0  0  0  0  0  0
   -2.4473   -1.7942    1.2162 O   0  0  0  0  0  0  0  0  0  0  0  0
    5.1936    1.4252   -1.0882 C   0  0  0  0  0  0  0  0  0  0  0  0
   -6.1649    0.2529   -0.4300 C   0  0  0  0  0  0  0  0  0  0  0  0
   -6.2990    2.4335    0.2888 C   0  0  0  0  0  0  0  0  0  0  0  0
    6.0120    3.3133   -0.0562 C   0  0  0  0  0  0  0  0  0  0  0  0
   -4.5073    1.8041   -1.1495 C   0  0  0  0  0  0  0  0  0  0  0  0
    6.1638    1.2234    1.0805 C   0  0  0  0  0  0  0  0  0  0  0  0
   -2.6988   -1.8707    2.6168 C   0  0  0  0  0  0  0  0  0  0  0  0
   -5.1579    2.7876   -0.4112 C   0  0  0  0  0  0  0  0  0  0  0  0
    6.4003    2.5951    1.0623 C   0  0  0  0  0  0  0  0  0  0  0  0
    0.6805   -0.6423   -1.8824 H   0  0  0  0  0  0  0  0  0  0  0  0
   -3.3974   -1.6106   -0.3348 H   0  0  0  0  0  0  0  0  0  0  0  0
    3.6262   -0.8571    1.2850 H   0  0  0  0  0  0  0  0  0  0  0  0
    2.0526   -2.3922    1.8058 H   0  0  0  0  0  0  0  0  0  0  0  0
   -0.2368   -2.5852    2.5918 H   0  0  0  0  0  0  0  0  0  0  0  0
    5.4736   -1.2758   -1.0344 H   0  0  0  0  0  0  0  0  0  0  0  0
    5.9095   -1.3865    0.6692 H   0  0  0  0  0  0  0  0  0  0  0  0
   -5.0177   -1.4241   -2.1194 H   0  0  0  0  0  0  0  0  0  0  0  0
   -4.0088   -0.2195   -2.9200 H   0  0  0  0  0  0  0  0  0  0  0  0
    4.7001    1.0143   -1.9673 H   0  0  0  0  0  0  0  0  0  0  0  0
   -6.6099   -0.7382   -0.3941 H   0  0  0  0  0  0  0  0  0  0  0  0
   -6.8424    3.1665    0.8781 H   0  0  0  0  0  0  0  0  0  0  0  0
    6.1761    4.3852   -0.1198 H   0  0  0  0  0  0  0  0  0  0  0  0
   -3.6020    2.0489   -1.7026 H   0  0  0  0  0  0  0  0  0  0  0  0
    6.4613    0.6401    1.9478 H   0  0  0  0  0  0  0  0  0  0  0  0
   -2.1603   -1.0912    3.1664 H   0  0  0  0  0  0  0  0  0  0  0  0
   -2.4548   -2.8667    2.9994 H   0  0  0  0  0  0  0  0  0  0  0  0
   -3.7701   -1.7084    2.7710 H   0  0  0  0  0  0  0  0  0  0  0  0
   -4.7814    3.8040   -0.3831 H   0  0  0  0  0  0  0  0  0  0  0  0
    6.8774    3.0933    1.8987 H   0  0  0  0  0  0  0  0  0  0  0  0
  2  1  1  0
  3  1  2  0
  4  5  1  0
  5  3  1  0
  6  2  1  0
  7  4  1  0
  8  1  1  0
  9  2  2  0
 10  4  2  0
 11 21  2  0
 12 20  2  0
 13 14  1  0
 14  8  2  0
 15 18  1  0
 16 17  1  0
 17  7  1  0
 18  6  1  0
 19  8  1  0
 20 16  1  0
 21 15  1  0
 22 27  2  0
 23 28  2  0
 24 15  2  0
 25 16  2  0
 26 19  1  0
 27 24  1  0
 28 25  1  0
  5 13  2  0
 11 22  1  0
 12 23  1  0
  3 29  1  0
  6 30  1  0
  7 31  1  0
 13 32  1  0
 14 33  1  0
 17 34  1  0
 17 35  1  0
 18 36  1  0
 18 37  1  0
 20 38  1  0
 21 39  1  0
 22 40  1  0
 23 41  1  0
 24 42  1  0
 25 43  1  0
 26 44  1  0
 26 45  1  0
 26 46  1  0
 27 47  1  0
 28 48  1  0
M  END
$$$$
