
     RDKit          3D

 48 50  0  0  0  0  0  0  0  0999 V2000
    0.7666   -0.0045   -0.0338 C   0  0  0  0  0  0  0  0  0  0  0  0
    1.7338   -0.2482    1.0838 C   0  0  0  0  0  0  0  0  0  0  0  0
   -0.4032    0.7039    0.2954 C   0  0  0  0  0  0  0  0  0  0  0  0
   -2.6046    1.7069   -0.2642 C   0  0  0  0  0  0  0  0  0  0  0  0
   -1.3782    0.9684   -0.6723 C   0  0  0  0  0  0  0  0  0  0  0  0
    2.6799   -1.2274    0.8973 N   0  0  0  0  0  0  0  0  0  0  0  0
   -3.7522    1.4198   -0.9728 N   0  0  0  0  0  0  0  0  0  0  0  0
    0.9730   -0.4166   -1.3656 C   0  0  0  0  0  0  0  0  0  0  0  0
    1.6566    0.4051    2.1195 O   0  0  0  0  0  0  0  0  0  0  0  0
   -2.5651    2.4915    0.6757 O   0  0  0  0  0  0  0  0  0  0  0  0
    6.3705    1.1643    0.9934 N   0  0  0  0  0  0  0  0  0  0  0  0
   -7.6122   -0.6751    0.2933 N   0  0  0  0  0  0  0  0  0  0  0  0
   -1.1733    0.5484   -1.9890 C   0  0  0  0  0  0  0  0  0  0  0  0
   -0.0080   -0.1453   -2.3303 C   0  0  0  0  0  0  0  0  0  0  0  0
    5.0326   -0.8308    1.3248 C   0  0  0  0  0  0  0  0  0  0  0  0
   -5.8224    0.9594    0.2154 C   0  0  0  0  0  0  0  0  0  0  0  0
   -5.0344    1.9625   -0.5753 C   0  0  0  0  0  0  0  0  0  0  0  0
    3.7599   -1.4443    1.8296 C   0  0  0  0  0  0  0  0  0  0  0  0
    2.1200   -1.1081   -1.6682 O   0  0  0  0  0  0  0  0  0  0  0  0
   -6.8788    0.2571   -0.3558 C   0  0  0  0  0  0  0  0  0  0  0  0
    5.2565    0.5381    1.4396 C   0  0  0  0  0  0  0  0  0  0  0  0
    7.3055    0.3921    0.4024 C   0  0  0  0  0  0  0  0  0  0  0  0
   -7.2802   -0.9184    1.5797 C   0  0  0  0  0  0  0  0  0  0  0  0
    6.0205   -1.5942    0.6964 C   0  0  0  0  0  0  0  0  0  0  0  0
   -5.5086    0.6743    1.5475 C   0  0  0  0  0  0  0  0  0  0  0  0
    2.6446   -0.9058   -2.9797 C   0  0  0  0  0  0  0  0  0  0  0  0
    7.1774   -0.9761    0.2307 C   0  0  0  0  0  0  0  0  0  0  0  0
   -6.2478   -0.2770    2.2434 C   0  0  0  0  0  0  0  0  0  0  0  0
   -0.5612    1.0441    1.3194 H   0  0  0  0  0  0  0  0  0  0  0  0
    2.7590   -1.6350   -0.0283 H   0  0  0  0  0  0  0  0  0  0  0  0
   -3.7675    0.6023   -1.5657 H   0  0  0  0  0  0  0  0  0  0  0  0
   -1.8976    0.7714   -2.7680 H   0  0  0  0  0  0  0  0  0  0  0  0
    0.1069   -0.4713   -3.3602 H   0  0  0  0  0  0  0  0  0  0  0  0
   -5.5654    2.2300   -1.4957 H   0  0  0  0  0  0  0  0  0  0  0  0
   -4.9067    2.8838    0.0041 H   0  0  0  0  0  0  0  0  0  0  0  0
    3.5120   -1.0455    2.8198 H   0  0  0  0  0  0  0  0  0  0  0  0
    3.8760   -2.5283    1.9387 H   0  0  0  0  0  0  0  0  0  0  0  0
   -7.1780    0.4237   -1.3872 H   0  0  0  0  0  0  0  0  0  0  0  0
    4.5196    1.1899    1.9050 H   0  0  0  0  0  0  0  0  0  0  0  0
    8.1902    0.9202    0.0580 H   0  0  0  0  0  0  0  0  0  0  0  0
   -7.8852   -1.6688    2.0800 H   0  0  0  0  0  0  0  0  0  0  0  0
    5.8965   -2.6657    0.5710 H   0  0  0  0  0  0  0  0  0  0  0  0
   -4.6882    1.1919    2.0423 H   0  0  0  0  0  0  0  0  0  0  0  0
    3.6828   -1.2533   -2.9803 H   0  0  0  0  0  0  0  0  0  0  0  0
    2.6458    0.1545   -3.2583 H   0  0  0  0  0  0  0  0  0  0  0  0
    2.0927   -1.5060   -3.7108 H   0  0  0  0  0  0  0  0  0  0  0  0
    7.9615   -1.5466   -0.2535 H   0  0  0  0  0  0  0  0  0  0  0  0
   -6.0218   -0.5117    3.2772 H   0  0  0  0  0  0  0  0  0  0  0  0
  2  1  1  0
  3  1  2  0
  4  5  1  0
  5  3  1  0
  6  2  1  0
  7  4  1  0
  8  1  1  0
  9  2  2  0
 10  4  2  0
 11 21  2  0
 12 20  2  0
 13 14  1  0
 14  8  2  0
 15 18  1  0
 16 17  1  0
 17  7  1  0
 18  6  1  0
 19  8  1  0
 20 16  1  0
 21 15  1  0
 22 27  2  0
 23 28  2  0
 24 15  2  0
 25 16  2  0
 26 19  1  0
 27 24  1  0
 28 25  1  0
  5 13  2  0
 11 22  1  0
 12 23  1  0
  3 29  1  0
  6 30  1  0
  7 31  1  0
 13 32  1  0
 14 33  1  0
 17 34  1  0
 17 35  1  0
 18 36  1  0
 18 37  1  0
 20 38  1  0
 21 39  1  0
 22 40  1  0
 23 41  1  0
 24 42  1  0
 25 43  1  0
 26 44  1  0
 26 45  1  0
 26 46  1  0
 27 47  1  0
 28 48  1  0
M  END
$$$$
