
     RDKit          3D

 48 50  0  0  0  0  0  0  0  0999 V2000
    0.7211   -0.1768    0.3406 C   0  0  0  0  0  0  0  0  0  0  0  0
    1.7021   -1.1389   -0.2621 C   0  0  0  0  0  0  0  0  0  0  0  0
   -0.5306   -0.7134    0.6962 C   0  0  0  0  0  0  0  0  0  0  0  0
   -2.8246   -0.5257    1.6274 C   0  0  0  0  0  0  0  0  0  0  0  0
   -1.5241    0.0941    1.2565 C   0  0  0  0  0  0  0  0  0  0  0  0
    3.0150   -0.7420   -0.3401 N   0  0  0  0  0  0  0  0  0  0  0  0
   -3.9325    0.2916    1.5507 N   0  0  0  0  0  0  0  0  0  0  0  0
    0.9756    1.1960    0.5546 C   0  0  0  0  0  0  0  0  0  0  0  0
    1.3287   -2.2383   -0.6594 O   0  0  0  0  0  0  0  0  0  0  0  0
   -2.8735   -1.7050    1.9539 O   0  0  0  0  0  0  0  0  0  0  0  0
    7.1870    0.3900   -1.6852 N   0  0  0  0  0  0  0  0  0  0  0  0
   -6.2516   -2.0323   -1.4215 N   0  0  0  0  0  0  0  0  0  0  0  0
   -1.2632    1.4464    1.4855 C   0  0  0  0  0  0  0  0  0  0  0  0
   -0.0236    1.9920    1.1342 C   0  0  0  0  0  0  0  0  0  0  0  0
    5.3746   -0.9760   -0.8333 C   0  0  0  0  0  0  0  0  0  0  0  0
   -5.9403   -0.5253    0.4515 C   0  0  0  0  0  0  0  0  0  0  0  0
   -5.2634   -0.2359    1.7584 C   0  0  0  0  0  0  0  0  0  0  0  0
    4.0005   -1.5420   -1.0236 C   0  0  0  0  0  0  0  0  0  0  0  0
    2.2018    1.6845    0.1795 O   0  0  0  0  0  0  0  0  0  0  0  0
   -5.6880   -1.7101   -0.2342 C   0  0  0  0  0  0  0  0  0  0  0  0
    5.9646   -0.1764   -1.8063 C   0  0  0  0  0  0  0  0  0  0  0  0
    7.8571    0.1463   -0.5385 C   0  0  0  0  0  0  0  0  0  0  0  0
   -7.1011   -1.1313   -1.9568 C   0  0  0  0  0  0  0  0  0  0  0  0
    6.0954   -1.1933    0.3444 C   0  0  0  0  0  0  0  0  0  0  0  0
   -6.8195    0.3865   -0.1405 C   0  0  0  0  0  0  0  0  0  0  0  0
    2.4456    3.0797    0.3250 C   0  0  0  0  0  0  0  0  0  0  0  0
    7.3583   -0.6288    0.4951 C   0  0  0  0  0  0  0  0  0  0  0  0
   -7.4124    0.0797   -1.3620 C   0  0  0  0  0  0  0  0  0  0  0  0
   -0.7334   -1.7728    0.5349 H   0  0  0  0  0  0  0  0  0  0  0  0
    3.2288    0.2285   -0.1340 H   0  0  0  0  0  0  0  0  0  0  0  0
   -3.8592    1.1667    1.0515 H   0  0  0  0  0  0  0  0  0  0  0  0
   -2.0017    2.0854    1.9627 H   0  0  0  0  0  0  0  0  0  0  0  0
    0.1316    3.0475    1.3367 H   0  0  0  0  0  0  0  0  0  0  0  0
   -5.8245    0.5223    2.3160 H   0  0  0  0  0  0  0  0  0  0  0  0
   -5.2346   -1.1365    2.3820 H   0  0  0  0  0  0  0  0  0  0  0  0
    3.9532   -2.5714   -0.6489 H   0  0  0  0  0  0  0  0  0  0  0  0
    3.7328   -1.5787   -2.0862 H   0  0  0  0  0  0  0  0  0  0  0  0
   -5.0008   -2.4550    0.1632 H   0  0  0  0  0  0  0  0  0  0  0  0
    5.4547    0.0441   -2.7409 H   0  0  0  0  0  0  0  0  0  0  0  0
    8.8381    0.6072   -0.4689 H   0  0  0  0  0  0  0  0  0  0  0  0
   -7.5384   -1.4177   -2.9089 H   0  0  0  0  0  0  0  0  0  0  0  0
    5.6738   -1.7998    1.1427 H   0  0  0  0  0  0  0  0  0  0  0  0
   -7.0499    1.3314    0.3443 H   0  0  0  0  0  0  0  0  0  0  0  0
    3.4506    3.2829   -0.0572 H   0  0  0  0  0  0  0  0  0  0  0  0
    2.4249    3.3738    1.3792 H   0  0  0  0  0  0  0  0  0  0  0  0
    1.7383    3.6686   -0.2680 H   0  0  0  0  0  0  0  0  0  0  0  0
    7.9383   -0.7886    1.3969 H   0  0  0  0  0  0  0  0  0  0  0  0
   -8.1018    0.7668   -1.8393 H   0  0  0  0  0  0  0  0  0  0  0  0
  2  1  1  0
  3  1  2  0
  4  5  1  0
  5  3  1  0
  6  2  1  0
  7  4  1  0
  8  1  1  0
  9  2  2  0
 10  4  2  0
 11 21  2  0
 12 20  2  0
 13 14  1  0
 14  8  2  0
 15 18  1  0
 16 17  1  0
 17  7  1  0
 18  6  1  0
 19  8  1  0
 20 16  1  0
 21 15  1  0
 22 27  2  0
 23 28  2  0
 24 15  2  0
 25 16  2  0
 26 19  1  0
 27 24  1  0
 28 25  1  0
  5 13  2  0
 11 22  1  0
 12 23  1  0
  3 29  1  0
  6 30  1  0
  7 31  1  0
 13 32  1  0
 14 33  1  0
 17 34  1  0
 17 35  1  0
 18 36  1  0
 18 37  1  0
 20 38  1  0
 21 39  1  0
 22 40  1  0
 23 41  1  0
 24 42  1  0
 25 43  1  0
 26 44  1  0
 26 45  1  0
 26 46  1  0
 27 47  1  0
 28 48  1  0
M  END
$$$$
