
     RDKit          3D

 59 64  0  0  0  0  0  0  0  0999 V2000
   -2.6012   -0.2560   -0.2741 C   0  0  2  0  0  0  0  0  0  0  0  0
   -1.2518   -1.0221   -0.2936 C   0  0  0  0  0  0  0  0  0  0  0  0
   -0.0243   -0.3174   -0.2639 C   0  0  0  0  0  0  0  0  0  0  0  0
    8.2679    2.6422    0.8447 C   0  0  0  0  0  0  0  0  0  0  0  0
    1.2294   -0.9564   -0.2784 C   0  0  0  0  0  0  0  0  0  0  0  0
    7.0252    1.8336    0.8560 C   0  0  0  0  0  0  0  0  0  0  0  0
    2.4777   -0.1777   -0.2487 C   0  0  0  0  0  0  0  0  0  0  0  0
   -2.4351    1.3029   -0.2207 C   0  0  0  0  0  0  0  0  0  0  0  0
   -3.4412   -0.6426    0.9816 C   0  0  0  0  0  0  0  0  0  0  0  0
   -3.4280   -0.5567   -1.5618 C   0  0  0  0  0  0  0  0  0  0  0  0
    6.0795    2.0580   -0.1526 C   0  0  0  0  0  0  0  0  0  0  0  0
    3.4389   -0.3904    0.7543 C   0  0  0  0  0  0  0  0  0  0  0  0
    4.8839    1.3222   -0.1922 C   0  0  0  0  0  0  0  0  0  0  0  0
    4.6367    0.3450    0.7973 C   0  0  0  0  0  0  0  0  0  0  0  0
   -3.7900    2.0315   -0.2033 C   0  0  2  0  0  0  0  0  0  0  0  0
   -4.8049    0.0714    0.9870 C   0  0  1  0  0  0  0  0  0  0  0  0
   -4.7918    0.1564   -1.5334 C   0  0  2  0  0  0  0  0  0  0  0  0
   -1.1801   -2.4371   -0.3402 C   0  0  0  0  0  0  0  0  0  0  0  0
    8.5538    3.4993    0.0292 O   0  0  0  0  0  0  0  0  0  0  0  0
    6.7778    0.8672    1.8349 C   0  0  0  0  0  0  0  0  0  0  0  0
    1.2529   -2.3502   -0.3225 C   0  0  0  0  0  0  0  0  0  0  0  0
    2.7421    0.7975   -1.2203 C   0  0  0  0  0  0  0  0  0  0  0  0
    5.5914    0.1294    1.8041 C   0  0  0  0  0  0  0  0  0  0  0  0
    3.9280    1.5372   -1.1944 C   0  0  0  0  0  0  0  0  0  0  0  0
    0.0652   -3.0812   -0.3535 C   0  0  0  0  0  0  0  0  0  0  0  0
   -4.5855    1.5887    1.0310 C   0  0  0  0  0  0  0  0  0  0  0  0
   -4.5724    1.6732   -1.4729 C   0  0  0  0  0  0  0  0  0  0  0  0
   -5.5764   -0.2964   -0.2911 C   0  0  0  0  0  0  0  0  0  0  0  0
    9.0983    2.3392    1.8581 O   0  0  0  0  0  0  0  0  0  0  0  0
   -2.3673   -3.1209   -0.3699 O   0  0  0  0  0  0  0  0  0  0  0  0
   -2.3329   -4.5399   -0.4299 C   0  0  0  0  0  0  0  0  0  0  0  0
   -0.0133    0.7685   -0.2158 H   0  0  0  0  0  0  0  0  0  0  0  0
   -1.8634    1.6555   -1.0896 H   0  0  0  0  0  0  0  0  0  0  0  0
   -1.8735    1.5960    0.6765 H   0  0  0  0  0  0  0  0  0  0  0  0
   -3.6278   -1.7195    1.0341 H   0  0  0  0  0  0  0  0  0  0  0  0
   -2.8859   -0.3886    1.8947 H   0  0  0  0  0  0  0  0  0  0  0  0
   -3.6136   -1.6276   -1.6888 H   0  0  0  0  0  0  0  0  0  0  0  0
   -2.8633   -0.2419   -2.4498 H   0  0  0  0  0  0  0  0  0  0  0  0
    6.2786    2.8131   -0.9117 H   0  0  0  0  0  0  0  0  0  0  0  0
    3.2424   -1.1363    1.5234 H   0  0  0  0  0  0  0  0  0  0  0  0
   -3.6256    3.1144   -0.1659 H   0  0  0  0  0  0  0  0  0  0  0  0
   -5.3788   -0.2417    1.8666 H   0  0  0  0  0  0  0  0  0  0  0  0
   -5.3564   -0.0966   -2.4379 H   0  0  0  0  0  0  0  0  0  0  0  0
    7.4992    0.6791    2.6263 H   0  0  0  0  0  0  0  0  0  0  0  0
    2.2014   -2.8827   -0.3459 H   0  0  0  0  0  0  0  0  0  0  0  0
    2.0248    0.9820   -2.0180 H   0  0  0  0  0  0  0  0  0  0  0  0
    5.4178   -0.6178    2.5760 H   0  0  0  0  0  0  0  0  0  0  0  0
    4.0976    2.2830   -1.9684 H   0  0  0  0  0  0  0  0  0  0  0  0
    0.1500   -4.1621   -0.3911 H   0  0  0  0  0  0  0  0  0  0  0  0
   -5.5513    2.1079    1.0625 H   0  0  0  0  0  0  0  0  0  0  0  0
   -4.0462    1.8645    1.9455 H   0  0  0  0  0  0  0  0  0  0  0  0
   -5.5379    2.1936   -1.4794 H   0  0  0  0  0  0  0  0  0  0  0  0
   -4.0236    2.0097   -2.3610 H   0  0  0  0  0  0  0  0  0  0  0  0
   -6.5643    0.1804   -0.2801 H   0  0  0  0  0  0  0  0  0  0  0  0
   -5.7464   -1.3794   -0.3285 H   0  0  0  0  0  0  0  0  0  0  0  0
    9.8603    2.9411    1.7237 H   0  0  0  0  0  0  0  0  0  0  0  0
   -1.8559   -4.9616    0.4607 H   0  0  0  0  0  0  0  0  0  0  0  0
   -1.8436   -4.8853   -1.3464 H   0  0  0  0  0  0  0  0  0  0  0  0
   -3.3670   -4.8972   -0.4521 H   0  0  0  0  0  0  0  0  0  0  0  0
  1  2  1  6
  3  2  2  0
  4  6  1  0
  5  3  1  0
  6 11  2  0
  7  5  1  0
  8  1  1  0
  9  1  1  0
 10  1  1  0
 11 13  1  0
 12  7  1  0
 13 24  2  0
 14 12  2  0
 15  8  1  0
 16  9  1  0
 17 10  1  0
 18  2  1  0
 19  4  2  0
 20 23  2  0
 21 25  1  0
 22  7  2  0
 23 14  1  0
 24 22  1  0
 25 18  2  0
 26 16  1  0
 27 17  1  0
 28 17  1  0
 29  4  1  0
 30 18  1  0
 31 30  1  0
 28 16  1  0
 27 15  1  0
 26 15  1  0
 21  5  2  0
 13 14  1  0
  6 20  1  0
  3 32  1  0
  8 33  1  0
  8 34  1  0
  9 35  1  0
  9 36  1  0
 10 37  1  0
 10 38  1  0
 11 39  1  0
 12 40  1  0
 15 41  1  1
 16 42  1  1
 17 43  1  6
 20 44  1  0
 21 45  1  0
 22 46  1  0
 23 47  1  0
 24 48  1  0
 25 49  1  0
 26 50  1  0
 26 51  1  0
 27 52  1  0
 27 53  1  0
 28 54  1  0
 28 55  1  0
 29 56  1  0
 31 57  1  0
 31 58  1  0
 31 59  1  0
M  END
$$$$
