
     RDKit          3D

 59 64  0  0  0  0  0  0  0  0999 V2000
   -2.6153   -0.1487    0.1245 C   0  0  2  0  0  0  0  0  0  0  0  0
   -1.4062   -0.0008   -0.8370 C   0  0  0  0  0  0  0  0  0  0  0  0
   -0.0820   -0.1202   -0.3507 C   0  0  0  0  0  0  0  0  0  0  0  0
    8.6070    0.3459    1.3906 C   0  0  0  0  0  0  0  0  0  0  0  0
    1.0530    0.0052   -1.1731 C   0  0  0  0  0  0  0  0  0  0  0  0
    7.2527    0.5276    0.8153 C   0  0  0  0  0  0  0  0  0  0  0  0
    2.4096   -0.1301   -0.6190 C   0  0  0  0  0  0  0  0  0  0  0  0
   -2.2019   -0.4301    1.6113 C   0  0  0  0  0  0  0  0  0  0  0  0
   -3.5210   -1.3438   -0.3037 C   0  0  0  0  0  0  0  0  0  0  0  0
   -3.4645    1.1589    0.1541 C   0  0  0  0  0  0  0  0  0  0  0  0
    6.3221   -0.5076    0.9715 C   0  0  0  0  0  0  0  0  0  0  0  0
    3.3570    0.8972   -0.7676 C   0  0  0  0  0  0  0  0  0  0  0  0
    5.0242   -0.3912    0.4481 C   0  0  0  0  0  0  0  0  0  0  0  0
    4.6572    0.7842   -0.2442 C   0  0  0  0  0  0  0  0  0  0  0  0
   -3.4223   -0.5721    2.5371 C   0  0  2  0  0  0  0  0  0  0  0  0
   -4.7525   -1.4717    0.6109 C   0  0  1  0  0  0  0  0  0  0  0  0
   -4.6964    1.0083    1.0647 C   0  0  2  0  0  0  0  0  0  0  0  0
   -1.5619    0.2569   -2.2221 C   0  0  0  0  0  0  0  0  0  0  0  0
    8.9987   -0.6336    1.9976 O   0  0  0  0  0  0  0  0  0  0  0  0
    6.8870    1.6902    0.1313 C   0  0  0  0  0  0  0  0  0  0  0  0
    0.8532    0.2607   -2.5296 C   0  0  0  0  0  0  0  0  0  0  0  0
    2.7937   -1.2874    0.0723 C   0  0  0  0  0  0  0  0  0  0  0  0
    5.5981    1.8158   -0.3937 C   0  0  0  0  0  0  0  0  0  0  0  0
    4.0823   -1.4182    0.5983 C   0  0  0  0  0  0  0  0  0  0  0  0
   -0.4360    0.3845   -3.0479 C   0  0  0  0  0  0  0  0  0  0  0  0
   -4.2929   -1.7371    2.0499 C   0  0  0  0  0  0  0  0  0  0  0  0
   -4.2372    0.7267    2.5008 C   0  0  0  0  0  0  0  0  0  0  0  0
   -5.5580   -0.1629    0.5649 C   0  0  0  0  0  0  0  0  0  0  0  0
    9.4115    1.4024    1.1783 O   0  0  0  0  0  0  0  0  0  0  0  0
   -2.8430    0.3719   -2.6948 O   0  0  0  0  0  0  0  0  0  0  0  0
   -3.0367    0.6173   -4.0807 C   0  0  0  0  0  0  0  0  0  0  0  0
    0.1030   -0.3058    0.7042 H   0  0  0  0  0  0  0  0  0  0  0  0
   -1.5717    0.3846    1.9925 H   0  0  0  0  0  0  0  0  0  0  0  0
   -1.6101   -1.3533    1.6743 H   0  0  0  0  0  0  0  0  0  0  0  0
   -2.9429   -2.2775   -0.2800 H   0  0  0  0  0  0  0  0  0  0  0  0
   -3.8787   -1.2389   -1.3325 H   0  0  0  0  0  0  0  0  0  0  0  0
   -2.8463    1.9975    0.5021 H   0  0  0  0  0  0  0  0  0  0  0  0
   -3.8181    1.4404   -0.8424 H   0  0  0  0  0  0  0  0  0  0  0  0
    6.6138   -1.4105    1.5063 H   0  0  0  0  0  0  0  0  0  0  0  0
    3.0698    1.8078   -1.2918 H   0  0  0  0  0  0  0  0  0  0  0  0
   -3.0867   -0.7672    3.5619 H   0  0  0  0  0  0  0  0  0  0  0  0
   -5.3794   -2.3023    0.2672 H   0  0  0  0  0  0  0  0  0  0  0  0
   -5.2837    1.9333    1.0423 H   0  0  0  0  0  0  0  0  0  0  0  0
    7.5948    2.5051    0.0005 H   0  0  0  0  0  0  0  0  0  0  0  0
    1.7037    0.3539   -3.2017 H   0  0  0  0  0  0  0  0  0  0  0  0
    2.0890   -2.1076    0.1977 H   0  0  0  0  0  0  0  0  0  0  0  0
    5.3332    2.7295   -0.9222 H   0  0  0  0  0  0  0  0  0  0  0  0
    4.3428   -2.3336    1.1256 H   0  0  0  0  0  0  0  0  0  0  0  0
   -0.5254    0.5795   -4.1113 H   0  0  0  0  0  0  0  0  0  0  0  0
   -5.1631   -1.8570    2.7068 H   0  0  0  0  0  0  0  0  0  0  0  0
   -3.7270   -2.6755    2.0971 H   0  0  0  0  0  0  0  0  0  0  0  0
   -5.1067    0.6442    3.1645 H   0  0  0  0  0  0  0  0  0  0  0  0
   -3.6313    1.5620    2.8726 H   0  0  0  0  0  0  0  0  0  0  0  0
   -5.8992    0.0322   -0.4593 H   0  0  0  0  0  0  0  0  0  0  0  0
   -6.4566   -0.2564    1.1870 H   0  0  0  0  0  0  0  0  0  0  0  0
   10.2546    1.1438    1.6062 H   0  0  0  0  0  0  0  0  0  0  0  0
   -4.1146    0.6700   -4.2619 H   0  0  0  0  0  0  0  0  0  0  0  0
   -2.6387   -0.2029   -4.6870 H   0  0  0  0  0  0  0  0  0  0  0  0
   -2.6039    1.5786   -4.3760 H   0  0  0  0  0  0  0  0  0  0  0  0
  1  2  1  6
  3  2  2  0
  4  6  1  0
  5  3  1  0
  6 11  2  0
  7  5  1  0
  8  1  1  0
  9  1  1  0
 10  1  1  0
 11 13  1  0
 12  7  1  0
 13 24  2  0
 14 12  2  0
 15  8  1  0
 16  9  1  0
 17 10  1  0
 18  2  1  0
 19  4  2  0
 20 23  2  0
 21 25  1  0
 22  7  2  0
 23 14  1  0
 24 22  1  0
 25 18  2  0
 26 16  1  0
 27 17  1  0
 28 17  1  0
 29  4  1  0
 30 18  1  0
 31 30  1  0
 28 16  1  0
 27 15  1  0
 26 15  1  0
 21  5  2  0
 13 14  1  0
  6 20  1  0
  3 32  1  0
  8 33  1  0
  8 34  1  0
  9 35  1  0
  9 36  1  0
 10 37  1  0
 10 38  1  0
 11 39  1  0
 12 40  1  0
 15 41  1  1
 16 42  1  6
 17 43  1  1
 20 44  1  0
 21 45  1  0
 22 46  1  0
 23 47  1  0
 24 48  1  0
 25 49  1  0
 26 50  1  0
 26 51  1  0
 27 52  1  0
 27 53  1  0
 28 54  1  0
 28 55  1  0
 29 56  1  0
 31 57  1  0
 31 58  1  0
 31 59  1  0
M  END
$$$$
