
     RDKit          3D

 59 64  0  0  0  0  0  0  0  0999 V2000
   -2.4963    0.0876   -0.1620 C   0  0  2  0  0  0  0  0  0  0  0  0
   -1.2459    0.6246   -0.9077 C   0  0  0  0  0  0  0  0  0  0  0  0
    0.0522    0.2045   -0.5299 C   0  0  0  0  0  0  0  0  0  0  0  0
    8.1178   -1.4606    2.2567 C   0  0  0  0  0  0  0  0  0  0  0  0
    1.2225    0.6556   -1.1682 C   0  0  0  0  0  0  0  0  0  0  0  0
    6.7723   -0.9767    1.8648 C   0  0  0  0  0  0  0  0  0  0  0  0
    2.5500    0.1913   -0.7343 C   0  0  0  0  0  0  0  0  0  0  0  0
   -3.4370   -0.6830   -1.1383 C   0  0  0  0  0  0  0  0  0  0  0  0
   -3.2874    1.2545    0.5050 C   0  0  0  0  0  0  0  0  0  0  0  0
   -2.1530   -0.9177    0.9922 C   0  0  0  0  0  0  0  0  0  0  0  0
    6.3701   -1.1435    0.5334 C   0  0  0  0  0  0  0  0  0  0  0  0
    2.9706    0.3491    0.5976 C   0  0  0  0  0  0  0  0  0  0  0  0
    5.1069   -0.7043    0.1048 C   0  0  0  0  0  0  0  0  0  0  0  0
    4.2348   -0.0888    1.0299 C   0  0  0  0  0  0  0  0  0  0  0  0
   -4.7070   -1.1769   -0.4224 C   0  0  2  0  0  0  0  0  0  0  0  0
   -4.5587    0.7431    1.2059 C   0  0  1  0  0  0  0  0  0  0  0  0
   -3.4132   -1.4297    1.7110 C   0  0  2  0  0  0  0  0  0  0  0  0
   -1.3369    1.5426   -1.9839 C   0  0  0  0  0  0  0  0  0  0  0  0
    8.9248   -1.9979    1.5209 O   0  0  0  0  0  0  0  0  0  0  0  0
    5.9082   -0.3664    2.7781 C   0  0  0  0  0  0  0  0  0  0  0  0
    1.0860    1.5571   -2.2235 C   0  0  0  0  0  0  0  0  0  0  0  0
    3.4309   -0.4209   -1.6364 C   0  0  0  0  0  0  0  0  0  0  0  0
    4.6490    0.0738    2.3617 C   0  0  0  0  0  0  0  0  0  0  0  0
    4.6914   -0.8636   -1.2243 C   0  0  0  0  0  0  0  0  0  0  0  0
   -0.1757    1.9957   -2.6260 C   0  0  0  0  0  0  0  0  0  0  0  0
   -5.4515    0.0260    0.1799 C   0  0  0  0  0  0  0  0  0  0  0  0
   -4.3151   -2.1472    0.6990 C   0  0  0  0  0  0  0  0  0  0  0  0
   -4.1678   -0.2397    2.3166 C   0  0  0  0  0  0  0  0  0  0  0  0
    8.3919   -1.2489    3.5561 O   0  0  0  0  0  0  0  0  0  0  0  0
   -2.5924    1.9516   -2.3500 O   0  0  0  0  0  0  0  0  0  0  0  0
   -2.7214    2.8658   -3.4300 C   0  0  0  0  0  0  0  0  0  0  0  0
    0.1866   -0.5086    0.2795 H   0  0  0  0  0  0  0  0  0  0  0  0
   -2.9020   -1.5368   -1.5759 H   0  0  0  0  0  0  0  0  0  0  0  0
   -3.7499   -0.0608   -1.9823 H   0  0  0  0  0  0  0  0  0  0  0  0
   -3.5897    2.0133   -0.2231 H   0  0  0  0  0  0  0  0  0  0  0  0
   -2.6464    1.7727    1.2311 H   0  0  0  0  0  0  0  0  0  0  0  0
   -1.5017   -0.4376    1.7349 H   0  0  0  0  0  0  0  0  0  0  0  0
   -1.6065   -1.7831    0.5940 H   0  0  0  0  0  0  0  0  0  0  0  0
    7.0487   -1.6196   -0.1729 H   0  0  0  0  0  0  0  0  0  0  0  0
    2.3015    0.8332    1.3080 H   0  0  0  0  0  0  0  0  0  0  0  0
   -5.3564   -1.6899   -1.1408 H   0  0  0  0  0  0  0  0  0  0  0  0
   -5.1032    1.5893    1.6401 H   0  0  0  0  0  0  0  0  0  0  0  0
   -3.1260   -2.1266    2.5066 H   0  0  0  0  0  0  0  0  0  0  0  0
    6.2024   -0.2275    3.8155 H   0  0  0  0  0  0  0  0  0  0  0  0
    1.9660    1.9384   -2.7372 H   0  0  0  0  0  0  0  0  0  0  0  0
    3.1347   -0.5702   -2.6730 H   0  0  0  0  0  0  0  0  0  0  0  0
    3.9913    0.5467    3.0884 H   0  0  0  0  0  0  0  0  0  0  0  0
    5.3448   -1.3377   -1.9539 H   0  0  0  0  0  0  0  0  0  0  0  0
   -0.2152    2.7003   -3.4499 H   0  0  0  0  0  0  0  0  0  0  0  0
   -6.3766   -0.3122    0.6629 H   0  0  0  0  0  0  0  0  0  0  0  0
   -5.7442    0.7228   -0.6151 H   0  0  0  0  0  0  0  0  0  0  0  0
   -5.2144   -2.5270    1.1993 H   0  0  0  0  0  0  0  0  0  0  0  0
   -3.7936   -3.0162    0.2794 H   0  0  0  0  0  0  0  0  0  0  0  0
   -5.0647   -0.5906    2.8415 H   0  0  0  0  0  0  0  0  0  0  0  0
   -3.5401    0.2646    3.0615 H   0  0  0  0  0  0  0  0  0  0  0  0
    9.2952   -1.6129    3.6669 H   0  0  0  0  0  0  0  0  0  0  0  0
   -3.7881    3.0651   -3.5716 H   0  0  0  0  0  0  0  0  0  0  0  0
   -2.3387    2.4348   -4.3608 H   0  0  0  0  0  0  0  0  0  0  0  0
   -2.2340    3.8190   -3.2012 H   0  0  0  0  0  0  0  0  0  0  0  0
  1  2  1  6
  3  2  2  0
  4  6  1  0
  5  3  1  0
  6 11  2  0
  7  5  1  0
  8  1  1  0
  9  1  1  0
 10  1  1  0
 11 13  1  0
 12  7  1  0
 13 24  2  0
 14 12  2  0
 15  8  1  0
 16  9  1  0
 17 10  1  0
 18  2  1  0
 19  4  2  0
 20 23  2  0
 21 25  1  0
 22  7  2  0
 23 14  1  0
 24 22  1  0
 25 18  2  0
 26 16  1  0
 27 17  1  0
 28 17  1  0
 29  4  1  0
 30 18  1  0
 31 30  1  0
 28 16  1  0
 27 15  1  0
 26 15  1  0
 21  5  2  0
 13 14  1  0
  6 20  1  0
  3 32  1  0
  8 33  1  0
  8 34  1  0
  9 35  1  0
  9 36  1  0
 10 37  1  0
 10 38  1  0
 11 39  1  0
 12 40  1  0
 15 41  1  6
 16 42  1  1
 17 43  1  1
 20 44  1  0
 21 45  1  0
 22 46  1  0
 23 47  1  0
 24 48  1  0
 25 49  1  0
 26 50  1  0
 26 51  1  0
 27 52  1  0
 27 53  1  0
 28 54  1  0
 28 55  1  0
 29 56  1  0
 31 57  1  0
 31 58  1  0
 31 59  1  0
M  END
$$$$
