
     RDKit          3D

 59 64  0  0  0  0  0  0  0  0999 V2000
   -2.6115    0.0988    0.1324 C   0  0  2  0  0  0  0  0  0  0  0  0
   -1.3679   -0.6553    0.6737 C   0  0  0  0  0  0  0  0  0  0  0  0
   -0.0631   -0.1770    0.4037 C   0  0  0  0  0  0  0  0  0  0  0  0
    8.5933    0.9628   -1.3017 C   0  0  0  0  0  0  0  0  0  0  0  0
    1.1014   -0.8178    0.8661 C   0  0  0  0  0  0  0  0  0  0  0  0
    7.2360    0.4644   -0.9735 C   0  0  0  0  0  0  0  0  0  0  0  0
    2.4361   -0.2784    0.5603 C   0  0  0  0  0  0  0  0  0  0  0  0
   -3.5174    0.5868    1.3043 C   0  0  0  0  0  0  0  0  0  0  0  0
   -3.4441   -0.8142   -0.8190 C   0  0  0  0  0  0  0  0  0  0  0  0
   -2.2538    1.3793   -0.7001 C   0  0  0  0  0  0  0  0  0  0  0  0
    6.2872    1.2641   -0.3241 C   0  0  0  0  0  0  0  0  0  0  0  0
    3.4025   -1.0652   -0.0893 C   0  0  0  0  0  0  0  0  0  0  0  0
    5.0093    0.7609   -0.0276 C   0  0  0  0  0  0  0  0  0  0  0  0
    4.6823   -0.5654   -0.3886 C   0  0  0  0  0  0  0  0  0  0  0  0
   -4.7814    1.2924    0.7813 C   0  0  2  0  0  0  0  0  0  0  0  0
   -4.7088   -0.0958   -1.3227 C   0  0  1  0  0  0  0  0  0  0  0  0
   -3.5074    2.1032   -1.2208 C   0  0  2  0  0  0  0  0  0  0  0  0
   -1.4721   -1.8375    1.4488 C   0  0  0  0  0  0  0  0  0  0  0  0
    9.4694    0.3295   -1.8609 O   0  0  0  0  0  0  0  0  0  0  0  0
    6.9088   -0.8468   -1.3305 C   0  0  0  0  0  0  0  0  0  0  0  0
    0.9521   -1.9791    1.6238 C   0  0  0  0  0  0  0  0  0  0  0  0
    2.7799    1.0350    0.9088 C   0  0  0  0  0  0  0  0  0  0  0  0
    5.6414   -1.3568   -1.0401 C   0  0  0  0  0  0  0  0  0  0  0  0
    4.0479    1.5485    0.6205 C   0  0  0  0  0  0  0  0  0  0  0  0
   -0.3166   -2.4824    1.9122 C   0  0  0  0  0  0  0  0  0  0  0  0
   -5.5677    0.3256   -0.1192 C   0  0  0  0  0  0  0  0  0  0  0  0
   -4.3757    2.5290   -0.0303 C   0  0  0  0  0  0  0  0  0  0  0  0
   -4.3036    1.1498   -2.1206 C   0  0  0  0  0  0  0  0  0  0  0  0
    8.7925    2.2349   -0.9136 O   0  0  0  0  0  0  0  0  0  0  0  0
   -2.7344   -2.3012    1.7122 O   0  0  0  0  0  0  0  0  0  0  0  0
   -2.8762   -3.4835    2.4872 C   0  0  0  0  0  0  0  0  0  0  0  0
    0.0827    0.7180   -0.1956 H   0  0  0  0  0  0  0  0  0  0  0  0
   -3.8377   -0.2395    1.9461 H   0  0  0  0  0  0  0  0  0  0  0  0
   -2.9527    1.2701    1.9529 H   0  0  0  0  0  0  0  0  0  0  0  0
   -2.8275   -1.1230   -1.6739 H   0  0  0  0  0  0  0  0  0  0  0  0
   -3.7592   -1.7394   -0.3269 H   0  0  0  0  0  0  0  0  0  0  0  0
   -1.6266    1.1114   -1.5610 H   0  0  0  0  0  0  0  0  0  0  0  0
   -1.6767    2.0841   -0.0865 H   0  0  0  0  0  0  0  0  0  0  0  0
    6.5408    2.2850   -0.0465 H   0  0  0  0  0  0  0  0  0  0  0  0
    3.1464   -2.0839   -0.3775 H   0  0  0  0  0  0  0  0  0  0  0  0
   -5.4069    1.5985    1.6276 H   0  0  0  0  0  0  0  0  0  0  0  0
   -5.2828   -0.7725   -1.9659 H   0  0  0  0  0  0  0  0  0  0  0  0
   -3.2102    2.9883   -1.7945 H   0  0  0  0  0  0  0  0  0  0  0  0
    7.6378   -1.4772   -1.8363 H   0  0  0  0  0  0  0  0  0  0  0  0
    1.8265   -2.4991    2.0096 H   0  0  0  0  0  0  0  0  0  0  0  0
    2.0599    1.6698    1.4221 H   0  0  0  0  0  0  0  0  0  0  0  0
    5.4083   -2.3801   -1.3279 H   0  0  0  0  0  0  0  0  0  0  0  0
    4.2767    2.5719    0.9105 H   0  0  0  0  0  0  0  0  0  0  0  0
   -0.3663   -3.3866    2.5095 H   0  0  0  0  0  0  0  0  0  0  0  0
   -5.8705   -0.5592    0.4542 H   0  0  0  0  0  0  0  0  0  0  0  0
   -6.4886    0.8081   -0.4693 H   0  0  0  0  0  0  0  0  0  0  0  0
   -5.2697    3.0558   -0.3859 H   0  0  0  0  0  0  0  0  0  0  0  0
   -3.8240    3.2321    0.6057 H   0  0  0  0  0  0  0  0  0  0  0  0
   -3.7000    0.8602   -2.9896 H   0  0  0  0  0  0  0  0  0  0  0  0
   -5.1965    1.6557   -2.5079 H   0  0  0  0  0  0  0  0  0  0  0  0
    9.7136    2.4224   -1.1917 H   0  0  0  0  0  0  0  0  0  0  0  0
   -2.4700   -3.3469    3.4947 H   0  0  0  0  0  0  0  0  0  0  0  0
   -3.9462   -3.6897    2.5870 H   0  0  0  0  0  0  0  0  0  0  0  0
   -2.4188   -4.3424    1.9854 H   0  0  0  0  0  0  0  0  0  0  0  0
  1  2  1  1
  3  2  2  0
  4  6  1  0
  5  3  1  0
  6 11  2  0
  7  5  1  0
  8  1  1  0
  9  1  1  0
 10  1  1  0
 11 13  1  0
 12  7  1  0
 13 24  2  0
 14 12  2  0
 15  8  1  0
 16  9  1  0
 17 10  1  0
 18  2  1  0
 19  4  2  0
 20 23  2  0
 21 25  1  0
 22  7  2  0
 23 14  1  0
 24 22  1  0
 25 18  2  0
 26 16  1  0
 27 17  1  0
 28 17  1  0
 29  4  1  0
 30 18  1  0
 31 30  1  0
 28 16  1  0
 27 15  1  0
 26 15  1  0
 21  5  2  0
 13 14  1  0
  6 20  1  0
  3 32  1  0
  8 33  1  0
  8 34  1  0
  9 35  1  0
  9 36  1  0
 10 37  1  0
 10 38  1  0
 11 39  1  0
 12 40  1  0
 15 41  1  1
 16 42  1  6
 17 43  1  6
 20 44  1  0
 21 45  1  0
 22 46  1  0
 23 47  1  0
 24 48  1  0
 25 49  1  0
 26 50  1  0
 26 51  1  0
 27 52  1  0
 27 53  1  0
 28 54  1  0
 28 55  1  0
 29 56  1  0
 31 57  1  0
 31 58  1  0
 31 59  1  0
M  END
$$$$
