
     RDKit          3D

 59 64  0  0  0  0  0  0  0  0999 V2000
   -2.5802    0.1337    0.4036 C   0  0  2  0  0  0  0  0  0  0  0  0
   -1.1949    0.2193    1.0978 C   0  0  0  0  0  0  0  0  0  0  0  0
   -0.0050    0.2201    0.3306 C   0  0  0  0  0  0  0  0  0  0  0  0
    8.1973   -0.7196   -2.9830 C   0  0  0  0  0  0  0  0  0  0  0  0
    1.2785    0.2945    0.9029 C   0  0  0  0  0  0  0  0  0  0  0  0
    6.9641   -0.6799   -2.1609 C   0  0  0  0  0  0  0  0  0  0  0  0
    2.4854    0.2947    0.0608 C   0  0  0  0  0  0  0  0  0  0  0  0
   -2.4926    0.0535   -1.1605 C   0  0  0  0  0  0  0  0  0  0  0  0
   -3.4387    1.3960    0.7222 C   0  0  0  0  0  0  0  0  0  0  0  0
   -3.3508   -1.1438    0.8576 C   0  0  0  0  0  0  0  0  0  0  0  0
    5.9699    0.2866   -2.3581 C   0  0  0  0  0  0  0  0  0  0  0  0
    3.4951   -0.6655    0.2440 C   0  0  0  0  0  0  0  0  0  0  0  0
    4.8126    0.2963   -1.5613 C   0  0  0  0  0  0  0  0  0  0  0  0
    4.6544   -0.6793   -0.5516 C   0  0  0  0  0  0  0  0  0  0  0  0
   -3.8815   -0.0294   -1.8169 C   0  0  2  0  0  0  0  0  0  0  0  0
   -4.8354    1.3020    0.0820 C   0  0  1  0  0  0  0  0  0  0  0  0
   -4.7482   -1.2147    0.2160 C   0  0  2  0  0  0  0  0  0  0  0  0
   -1.0523    0.2982    2.5059 C   0  0  0  0  0  0  0  0  0  0  0  0
    9.1035   -1.5243   -2.8704 O   0  0  0  0  0  0  0  0  0  0  0  0
    6.8038   -1.6444   -1.1620 C   0  0  0  0  0  0  0  0  0  0  0  0
    1.3719    0.3690    2.2925 C   0  0  0  0  0  0  0  0  0  0  0  0
    2.6610    1.2529   -0.9469 C   0  0  0  0  0  0  0  0  0  0  0  0
    5.6574   -1.6434   -0.3641 C   0  0  0  0  0  0  0  0  0  0  0  0
    3.8076    1.2556   -1.7468 C   0  0  0  0  0  0  0  0  0  0  0  0
    0.2230    0.3714    3.0837 C   0  0  0  0  0  0  0  0  0  0  0  0
   -4.6921    1.2176   -1.4427 C   0  0  0  0  0  0  0  0  0  0  0  0
   -4.6056   -1.2827   -1.3096 C   0  0  0  0  0  0  0  0  0  0  0  0
   -5.5478    0.0414    0.5989 C   0  0  0  0  0  0  0  0  0  0  0  0
    8.2400    0.2527   -3.9111 O   0  0  0  0  0  0  0  0  0  0  0  0
   -2.2030    0.2988    3.2500 O   0  0  0  0  0  0  0  0  0  0  0  0
   -2.0976    0.3779    4.6646 C   0  0  0  0  0  0  0  0  0  0  0  0
   -0.0481    0.1492   -0.7532 H   0  0  0  0  0  0  0  0  0  0  0  0
   -1.9131   -0.8284   -1.4652 H   0  0  0  0  0  0  0  0  0  0  0  0
   -1.9733    0.9353   -1.5591 H   0  0  0  0  0  0  0  0  0  0  0  0
   -3.5738    1.5387    1.7987 H   0  0  0  0  0  0  0  0  0  0  0  0
   -2.9252    2.2975    0.3614 H   0  0  0  0  0  0  0  0  0  0  0  0
   -2.7750   -2.0409    0.5926 H   0  0  0  0  0  0  0  0  0  0  0  0
   -3.4797   -1.1803    1.9436 H   0  0  0  0  0  0  0  0  0  0  0  0
    6.0934    1.0374   -3.1358 H   0  0  0  0  0  0  0  0  0  0  0  0
    3.3678   -1.4243    1.0151 H   0  0  0  0  0  0  0  0  0  0  0  0
   -3.7717   -0.0836   -2.9060 H   0  0  0  0  0  0  0  0  0  0  0  0
   -5.4202    2.1903    0.3467 H   0  0  0  0  0  0  0  0  0  0  0  0
   -5.2714   -2.1081    0.5755 H   0  0  0  0  0  0  0  0  0  0  0  0
    7.5695   -2.4008   -1.0001 H   0  0  0  0  0  0  0  0  0  0  0  0
    2.3449    0.4387    2.7743 H   0  0  0  0  0  0  0  0  0  0  0  0
    1.9042    2.0181   -1.1104 H   0  0  0  0  0  0  0  0  0  0  0  0
    5.5534   -2.4042    0.4069 H   0  0  0  0  0  0  0  0  0  0  0  0
    3.9076    2.0184   -2.5162 H   0  0  0  0  0  0  0  0  0  0  0  0
    0.3619    0.4355    4.1578 H   0  0  0  0  0  0  0  0  0  0  0  0
   -5.6827    1.1774   -1.9121 H   0  0  0  0  0  0  0  0  0  0  0  0
   -4.1956    2.1181   -1.8244 H   0  0  0  0  0  0  0  0  0  0  0  0
   -5.5949   -1.3608   -1.7769 H   0  0  0  0  0  0  0  0  0  0  0  0
   -4.0468   -2.1822   -1.5955 H   0  0  0  0  0  0  0  0  0  0  0  0
   -5.6632    0.0955    1.6884 H   0  0  0  0  0  0  0  0  0  0  0  0
   -6.5578   -0.0161    0.1747 H   0  0  0  0  0  0  0  0  0  0  0  0
    9.0942    0.1022   -4.3677 H   0  0  0  0  0  0  0  0  0  0  0  0
   -1.5653   -0.4885    5.0704 H   0  0  0  0  0  0  0  0  0  0  0  0
   -3.1119    0.3652    5.0751 H   0  0  0  0  0  0  0  0  0  0  0  0
   -1.6268    1.3166    4.9741 H   0  0  0  0  0  0  0  0  0  0  0  0
  1  2  1  1
  3  2  2  0
  4  6  1  0
  5  3  1  0
  6 11  2  0
  7  5  1  0
  8  1  1  0
  9  1  1  0
 10  1  1  0
 11 13  1  0
 12  7  1  0
 13 24  2  0
 14 12  2  0
 15  8  1  0
 16  9  1  0
 17 10  1  0
 18  2  1  0
 19  4  2  0
 20 23  2  0
 21 25  1  0
 22  7  2  0
 23 14  1  0
 24 22  1  0
 25 18  2  0
 26 16  1  0
 27 17  1  0
 28 17  1  0
 29  4  1  0
 30 18  1  0
 31 30  1  0
 28 16  1  0
 27 15  1  0
 26 15  1  0
 21  5  2  0
 13 14  1  0
  6 20  1  0
  3 32  1  0
  8 33  1  0
  8 34  1  0
  9 35  1  0
  9 36  1  0
 10 37  1  0
 10 38  1  0
 11 39  1  0
 12 40  1  0
 15 41  1  6
 16 42  1  6
 17 43  1  1
 20 44  1  0
 21 45  1  0
 22 46  1  0
 23 47  1  0
 24 48  1  0
 25 49  1  0
 26 50  1  0
 26 51  1  0
 27 52  1  0
 27 53  1  0
 28 54  1  0
 28 55  1  0
 29 56  1  0
 31 57  1  0
 31 58  1  0
 31 59  1  0
M  END
$$$$
