
     RDKit          3D

 59 64  0  0  0  0  0  0  0  0999 V2000
   -2.6107    0.0596   -0.0156 C   0  0  2  0  0  0  0  0  0  0  0  0
   -1.3939   -0.7919   -0.4655 C   0  0  0  0  0  0  0  0  0  0  0  0
   -0.0751   -0.3831   -0.1526 C   0  0  0  0  0  0  0  0  0  0  0  0
    8.6408    1.3771    0.1250 C   0  0  0  0  0  0  0  0  0  0  0  0
    1.0666   -1.1121   -0.5340 C   0  0  0  0  0  0  0  0  0  0  0  0
    7.2677    0.9087   -0.1810 C   0  0  0  0  0  0  0  0  0  0  0  0
    2.4171   -0.6455   -0.1815 C   0  0  0  0  0  0  0  0  0  0  0  0
   -2.2111    1.3505    0.7809 C   0  0  0  0  0  0  0  0  0  0  0  0
   -3.5407   -0.7595    0.9312 C   0  0  0  0  0  0  0  0  0  0  0  0
   -3.4308    0.5508   -1.2477 C   0  0  0  0  0  0  0  0  0  0  0  0
    6.3138    0.6965    0.8223 C   0  0  0  0  0  0  0  0  0  0  0  0
    3.3889   -0.4283   -1.1732 C   0  0  0  0  0  0  0  0  0  0  0  0
    5.0208    0.2521    0.4983 C   0  0  0  0  0  0  0  0  0  0  0  0
    4.6837    0.0171   -0.8535 C   0  0  0  0  0  0  0  0  0  0  0  0
   -3.4391    2.1707    1.2125 C   0  0  2  0  0  0  0  0  0  0  0  0
   -4.7792    0.0553    1.3453 C   0  0  1  0  0  0  0  0  0  0  0  0
   -4.6703    1.3537   -0.8138 C   0  0  2  0  0  0  0  0  0  0  0  0
   -1.5369   -1.9967   -1.1985 C   0  0  0  0  0  0  0  0  0  0  0  0
    9.5221    1.5817   -0.6892 O   0  0  0  0  0  0  0  0  0  0  0  0
    6.9306    0.6765   -1.5174 C   0  0  0  0  0  0  0  0  0  0  0  0
    0.8793   -2.2908   -1.2556 C   0  0  0  0  0  0  0  0  0  0  0  0
    2.7712   -0.4053    1.1532 C   0  0  0  0  0  0  0  0  0  0  0  0
    5.6481    0.2343   -1.8502 C   0  0  0  0  0  0  0  0  0  0  0  0
    4.0541    0.0364    1.4901 C   0  0  0  0  0  0  0  0  0  0  0  0
   -0.4043   -2.7282   -1.5832 C   0  0  0  0  0  0  0  0  0  0  0  0
   -4.3329    1.3070    2.1111 C   0  0  0  0  0  0  0  0  0  0  0  0
   -4.2247    2.5970   -0.0339 C   0  0  0  0  0  0  0  0  0  0  0  0
   -5.5551    0.4760    0.0864 C   0  0  0  0  0  0  0  0  0  0  0  0
    8.8485    1.5685    1.4397 O   0  0  0  0  0  0  0  0  0  0  0  0
   -2.8127   -2.3947   -1.5012 O   0  0  0  0  0  0  0  0  0  0  0  0
   -2.9935   -3.5983   -2.2340 C   0  0  0  0  0  0  0  0  0  0  0  0
    0.1005    0.5383    0.3968 H   0  0  0  0  0  0  0  0  0  0  0  0
   -1.5649    1.9924    0.1673 H   0  0  0  0  0  0  0  0  0  0  0  0
   -1.6404    1.0823    1.6802 H   0  0  0  0  0  0  0  0  0  0  0  0
   -3.8907   -1.6842    0.4624 H   0  0  0  0  0  0  0  0  0  0  0  0
   -2.9835   -1.0681    1.8262 H   0  0  0  0  0  0  0  0  0  0  0  0
   -2.7958    1.1700   -1.8957 H   0  0  0  0  0  0  0  0  0  0  0  0
   -3.7731   -0.2814   -1.8703 H   0  0  0  0  0  0  0  0  0  0  0  0
    6.5751    0.8776    1.8627 H   0  0  0  0  0  0  0  0  0  0  0  0
    3.1254   -0.5989   -2.2163 H   0  0  0  0  0  0  0  0  0  0  0  0
   -3.1130    3.0599    1.7638 H   0  0  0  0  0  0  0  0  0  0  0  0
   -5.4228   -0.5571    1.9871 H   0  0  0  0  0  0  0  0  0  0  0  0
   -5.2367    1.6606   -1.7004 H   0  0  0  0  0  0  0  0  0  0  0  0
    7.6635    0.8387   -2.3055 H   0  0  0  0  0  0  0  0  0  0  0  0
    1.7348   -2.8898   -1.5605 H   0  0  0  0  0  0  0  0  0  0  0  0
    2.0471   -0.5727    1.9486 H   0  0  0  0  0  0  0  0  0  0  0  0
    5.4075    0.0608   -2.8972 H   0  0  0  0  0  0  0  0  0  0  0  0
    4.2903    0.2082    2.5382 H   0  0  0  0  0  0  0  0  0  0  0  0
   -0.4840   -3.6546   -2.1420 H   0  0  0  0  0  0  0  0  0  0  0  0
   -5.2088    1.8822    2.4351 H   0  0  0  0  0  0  0  0  0  0  0  0
   -3.7882    1.0186    3.0185 H   0  0  0  0  0  0  0  0  0  0  0  0
   -3.6022    3.2375   -0.6706 H   0  0  0  0  0  0  0  0  0  0  0  0
   -5.0990    3.1918    0.2576 H   0  0  0  0  0  0  0  0  0  0  0  0
   -6.4588    1.0281    0.3729 H   0  0  0  0  0  0  0  0  0  0  0  0
   -5.8868   -0.4126   -0.4647 H   0  0  0  0  0  0  0  0  0  0  0  0
    9.7795    1.8715    1.4874 H   0  0  0  0  0  0  0  0  0  0  0  0
   -2.5357   -3.5296   -3.2262 H   0  0  0  0  0  0  0  0  0  0  0  0
   -4.0688   -3.7439   -2.3750 H   0  0  0  0  0  0  0  0  0  0  0  0
   -2.6128   -4.4609   -1.6775 H   0  0  0  0  0  0  0  0  0  0  0  0
  1  2  1  6
  3  2  2  0
  4  6  1  0
  5  3  1  0
  6 11  2  0
  7  5  1  0
  8  1  1  0
  9  1  1  0
 10  1  1  0
 11 13  1  0
 12  7  1  0
 13 24  2  0
 14 12  2  0
 15  8  1  0
 16  9  1  0
 17 10  1  0
 18  2  1  0
 19  4  2  0
 20 23  2  0
 21 25  1  0
 22  7  2  0
 23 14  1  0
 24 22  1  0
 25 18  2  0
 26 16  1  0
 27 17  1  0
 28 17  1  0
 29  4  1  0
 30 18  1  0
 31 30  1  0
 28 16  1  0
 27 15  1  0
 26 15  1  0
 21  5  2  0
 13 14  1  0
  6 20  1  0
  3 32  1  0
  8 33  1  0
  8 34  1  0
  9 35  1  0
  9 36  1  0
 10 37  1  0
 10 38  1  0
 11 39  1  0
 12 40  1  0
 15 41  1  1
 16 42  1  1
 17 43  1  6
 20 44  1  0
 21 45  1  0
 22 46  1  0
 23 47  1  0
 24 48  1  0
 25 49  1  0
 26 50  1  0
 26 51  1  0
 27 52  1  0
 27 53  1  0
 28 54  1  0
 28 55  1  0
 29 56  1  0
 31 57  1  0
 31 58  1  0
 31 59  1  0
M  END
$$$$
