
     RDKit          3D

 59 64  0  0  0  0  0  0  0  0999 V2000
   -2.6143    0.0178    0.1439 C   0  0  2  0  0  0  0  0  0  0  0  0
   -1.3524    0.9142    0.0337 C   0  0  0  0  0  0  0  0  0  0  0  0
   -0.0638    0.3344   -0.0532 C   0  0  0  0  0  0  0  0  0  0  0  0
    8.5734   -1.7508    0.3851 C   0  0  0  0  0  0  0  0  0  0  0  0
    1.1161    1.0947   -0.1537 C   0  0  0  0  0  0  0  0  0  0  0  0
    7.2319   -1.1214    0.4360 C   0  0  0  0  0  0  0  0  0  0  0  0
    2.4327    0.4434   -0.2443 C   0  0  0  0  0  0  0  0  0  0  0  0
   -3.5705    0.2557   -1.0649 C   0  0  0  0  0  0  0  0  0  0  0  0
   -3.3808    0.2988    1.4725 C   0  0  0  0  0  0  0  0  0  0  0  0
   -2.2931   -1.5176    0.1459 C   0  0  0  0  0  0  0  0  0  0  0  0
    6.2322   -1.4255   -0.4965 C   0  0  0  0  0  0  0  0  0  0  0  0
    3.4494    0.7362    0.6806 C   0  0  0  0  0  0  0  0  0  0  0  0
    4.9709   -0.8110   -0.4200 C   0  0  0  0  0  0  0  0  0  0  0  0
    4.7128    0.1230    0.6082 C   0  0  0  0  0  0  0  0  0  0  0  0
   -4.8512   -0.5895   -0.9434 C   0  0  2  0  0  0  0  0  0  0  0  0
   -4.6632   -0.5469    1.5711 C   0  0  1  0  0  0  0  0  0  0  0  0
   -3.5643   -2.3772    0.2553 C   0  0  2  0  0  0  0  0  0  0  0  0
   -1.4232    2.3298    0.0160 C   0  0  0  0  0  0  0  0  0  0  0  0
    9.4908   -1.5368    1.1558 O   0  0  0  0  0  0  0  0  0  0  0  0
    6.9728   -0.1979    1.4527 C   0  0  0  0  0  0  0  0  0  0  0  0
    0.9998    2.4845   -0.1659 C   0  0  0  0  0  0  0  0  0  0  0  0
    2.7086   -0.4868   -1.2559 C   0  0  0  0  0  0  0  0  0  0  0  0
    5.7225    0.4188    1.5375 C   0  0  0  0  0  0  0  0  0  0  0  0
    3.9592   -1.1054   -1.3444 C   0  0  0  0  0  0  0  0  0  0  0  0
   -0.2521    3.0945   -0.0828 C   0  0  0  0  0  0  0  0  0  0  0  0
   -5.5703   -0.2369    0.3690 C   0  0  0  0  0  0  0  0  0  0  0  0
   -4.4806   -2.0778   -0.9376 C   0  0  0  0  0  0  0  0  0  0  0  0
   -4.2939   -2.0355    1.5604 C   0  0  0  0  0  0  0  0  0  0  0  0
    8.7056   -2.6215   -0.6311 O   0  0  0  0  0  0  0  0  0  0  0  0
   -2.6697    2.8929    0.0987 O   0  0  0  0  0  0  0  0  0  0  0  0
   -2.7782    4.3094    0.0827 C   0  0  0  0  0  0  0  0  0  0  0  0
    0.0570   -0.7457   -0.0322 H   0  0  0  0  0  0  0  0  0  0  0  0
   -3.0535    0.0128   -2.0032 H   0  0  0  0  0  0  0  0  0  0  0  0
   -3.8697    1.3048   -1.1504 H   0  0  0  0  0  0  0  0  0  0  0  0
   -2.7295    0.0865    2.3312 H   0  0  0  0  0  0  0  0  0  0  0  0
   -3.6666    1.3509    1.5660 H   0  0  0  0  0  0  0  0  0  0  0  0
   -1.7639   -1.7976   -0.7749 H   0  0  0  0  0  0  0  0  0  0  0  0
   -1.6330   -1.7680    0.9872 H   0  0  0  0  0  0  0  0  0  0  0  0
    6.4328   -2.1447   -1.2879 H   0  0  0  0  0  0  0  0  0  0  0  0
    3.2465    1.4479    1.4798 H   0  0  0  0  0  0  0  0  0  0  0  0
   -5.5109   -0.3792   -1.7928 H   0  0  0  0  0  0  0  0  0  0  0  0
   -5.1899   -0.3065    2.5016 H   0  0  0  0  0  0  0  0  0  0  0  0
   -3.2925   -3.4389    0.2529 H   0  0  0  0  0  0  0  0  0  0  0  0
    7.7418    0.0456    2.1834 H   0  0  0  0  0  0  0  0  0  0  0  0
    1.8864    3.1089   -0.2531 H   0  0  0  0  0  0  0  0  0  0  0  0
    1.9481   -0.7303   -1.9957 H   0  0  0  0  0  0  0  0  0  0  0  0
    5.5427    1.1340    2.3378 H   0  0  0  0  0  0  0  0  0  0  0  0
    4.1346   -1.8194   -2.1464 H   0  0  0  0  0  0  0  0  0  0  0  0
   -0.2765    4.1789   -0.1014 H   0  0  0  0  0  0  0  0  0  0  0  0
   -5.8477    0.8244    0.3718 H   0  0  0  0  0  0  0  0  0  0  0  0
   -6.5027   -0.8094    0.4484 H   0  0  0  0  0  0  0  0  0  0  0  0
   -3.9773   -2.3438   -1.8752 H   0  0  0  0  0  0  0  0  0  0  0  0
   -5.3880   -2.6913   -0.8785 H   0  0  0  0  0  0  0  0  0  0  0  0
   -5.1985   -2.6484    1.6574 H   0  0  0  0  0  0  0  0  0  0  0  0
   -3.6562   -2.2712    2.4212 H   0  0  0  0  0  0  0  0  0  0  0  0
    9.6241   -2.9510   -0.5383 H   0  0  0  0  0  0  0  0  0  0  0  0
   -2.4041    4.7238   -0.8591 H   0  0  0  0  0  0  0  0  0  0  0  0
   -3.8401    4.5627    0.1571 H   0  0  0  0  0  0  0  0  0  0  0  0
   -2.2704    4.7545    0.9445 H   0  0  0  0  0  0  0  0  0  0  0  0
  1  2  1  6
  3  2  2  0
  4  6  1  0
  5  3  1  0
  6 11  2  0
  7  5  1  0
  8  1  1  0
  9  1  1  0
 10  1  1  0
 11 13  1  0
 12  7  1  0
 13 24  2  0
 14 12  2  0
 15  8  1  0
 16  9  1  0
 17 10  1  0
 18  2  1  0
 19  4  2  0
 20 23  2  0
 21 25  1  0
 22  7  2  0
 23 14  1  0
 24 22  1  0
 25 18  2  0
 26 16  1  0
 27 17  1  0
 28 17  1  0
 29  4  1  0
 30 18  1  0
 31 30  1  0
 28 16  1  0
 27 15  1  0
 26 15  1  0
 21  5  2  0
 13 14  1  0
  6 20  1  0
  3 32  1  0
  8 33  1  0
  8 34  1  0
  9 35  1  0
  9 36  1  0
 10 37  1  0
 10 38  1  0
 11 39  1  0
 12 40  1  0
 15 41  1  6
 16 42  1  1
 17 43  1  1
 20 44  1  0
 21 45  1  0
 22 46  1  0
 23 47  1  0
 24 48  1  0
 25 49  1  0
 26 50  1  0
 26 51  1  0
 27 52  1  0
 27 53  1  0
 28 54  1  0
 28 55  1  0
 29 56  1  0
 31 57  1  0
 31 58  1  0
 31 59  1  0
M  END
$$$$
