
     RDKit          3D

 48 48  0  0  0  0  0  0  0  0999 V2000
   46.1064    3.6803    7.2493 C   0  0  0  0  0  0  0  0  0  0  0  0
   45.3923    3.5289    8.4361 C   0  0  0  0  0  0  0  0  0  0  0  0
   46.8775    2.6173    6.7596 C   0  0  0  0  0  0  0  0  0  0  0  0
   44.6375    4.5448    8.9448 O   0  0  0  0  0  0  0  0  0  0  0  0
   46.1768    1.2658    8.6524 C   0  0  0  0  0  0  0  0  0  0  0  0
   45.4241    2.3319    9.1407 C   0  0  0  0  0  0  0  0  0  0  0  0
   46.8967    1.4057    7.4639 C   0  0  0  0  0  0  0  0  0  0  0  0
   47.6246    2.7533    5.4659 C   0  0  0  0  0  0  0  0  0  0  0  0
   46.2367    1.7208    7.7438 C   0  0  0  0  0  0  0  0  0  0  0  0
   46.7970    2.7311    6.9521 C   0  0  0  0  0  0  0  0  0  0  0  0
   46.5570    0.4006    7.5990 O   0  0  0  0  0  0  0  0  0  0  0  0
   47.8006    2.4446    5.8739 C   0  0  0  0  0  0  0  0  0  0  0  0
   45.3063    2.0188    8.7382 C   0  0  0  0  0  0  0  0  0  0  0  0
   46.3965    4.0562    7.1860 C   0  0  0  0  0  0  0  0  0  0  0  0
   45.4642    4.3579    8.1819 C   0  0  0  0  0  0  0  0  0  0  0  0
   44.9189    3.3387    8.9583 C   0  0  0  0  0  0  0  0  0  0  0  0
   47.8304    2.1179    6.5286 C   0  0  0  0  0  0  0  0  0  0  0  0
   45.5530    2.9693    7.9027 C   0  0  0  0  0  0  0  0  0  0  0  0
   46.9133    1.1806    6.9871 C   0  0  0  0  0  0  0  0  0  0  0  0
   47.6331    3.4763    6.7533 C   0  0  0  0  0  0  0  0  0  0  0  0
   45.7776    1.6048    7.6786 C   0  0  0  0  0  0  0  0  0  0  0  0
   46.4959    3.8999    7.4455 C   0  0  0  0  0  0  0  0  0  0  0  0
   48.9262    1.6603    5.8583 O   0  0  0  0  0  0  0  0  0  0  0  0
   44.3498    3.4234    8.6750 C   0  0  0  0  0  0  0  0  0  0  0  0
   46.0712    4.6160    6.6995 H   0  0  0  0  0  0  0  0  0  0  0  0
   44.7134    5.3103    8.3526 H   0  0  0  0  0  0  0  0  0  0  0  0
   46.2005    0.3252    9.1959 H   0  0  0  0  0  0  0  0  0  0  0  0
   44.8615    2.2289   10.0639 H   0  0  0  0  0  0  0  0  0  0  0  0
   47.4740    0.5625    7.0910 H   0  0  0  0  0  0  0  0  0  0  0  0
   48.5212    2.1245    5.4643 H   0  0  0  0  0  0  0  0  0  0  0  0
   46.9829    2.4568    4.6305 H   0  0  0  0  0  0  0  0  0  0  0  0
   47.9530    3.7864    5.3113 H   0  0  0  0  0  0  0  0  0  0  0  0
   47.2067    0.3056    6.8863 H   0  0  0  0  0  0  0  0  0  0  0  0
   48.6920    1.9746    6.3015 H   0  0  0  0  0  0  0  0  0  0  0  0
   47.3658    1.7826    5.1180 H   0  0  0  0  0  0  0  0  0  0  0  0
   48.1212    3.3603    5.3660 H   0  0  0  0  0  0  0  0  0  0  0  0
   44.8843    1.2194    9.3409 H   0  0  0  0  0  0  0  0  0  0  0  0
   46.8091    4.8689    6.5917 H   0  0  0  0  0  0  0  0  0  0  0  0
   45.1643    5.3889    8.3506 H   0  0  0  0  0  0  0  0  0  0  0  0
   44.1936    3.5698    9.7335 H   0  0  0  0  0  0  0  0  0  0  0  0
   47.0827    0.1226    6.8099 H   0  0  0  0  0  0  0  0  0  0  0  0
   48.3472    4.2148    6.4040 H   0  0  0  0  0  0  0  0  0  0  0  0
   45.0691    0.8632    8.0402 H   0  0  0  0  0  0  0  0  0  0  0  0
   46.3483    4.9623    7.6262 H   0  0  0  0  0  0  0  0  0  0  0  0
   49.4694    2.4227    5.6009 H   0  0  0  0  0  0  0  0  0  0  0  0
   44.5830    3.4591    9.7437 H   0  0  0  0  0  0  0  0  0  0  0  0
   44.0291    4.4184    8.3489 H   0  0  0  0  0  0  0  0  0  0  0  0
   43.5059    2.7433    8.5191 H   0  0  0  0  0  0  0  0  0  0  0  0
  2  1  2  0
  3  1  1  0
  4  2  1  0
  5  7  1  0
  6  2  1  0
  7  3  2  0
  8  3  1  0
  6  5  2  0
 10  9  2  0
 11  9  1  0
 12 10  1  0
 13  9  1  0
 14 10  1  0
 15 14  2  0
 16 13  2  0
 16 15  1  0
 18 21  2  0
 19 17  2  0
 20 17  1  0
 21 19  1  0
 22 20  2  0
 23 17  1  0
 24 18  1  0
 22 18  1  0
  1 25  1  0
  4 26  1  0
  5 27  1  0
  6 28  1  0
  7 29  1  0
  8 30  1  0
  8 31  1  0
  8 32  1  0
 11 33  1  0
 12 34  1  0
 12 35  1  0
 12 36  1  0
 13 37  1  0
 14 38  1  0
 15 39  1  0
 16 40  1  0
 19 41  1  0
 20 42  1  0
 21 43  1  0
 22 44  1  0
 23 45  1  0
 24 46  1  0
 24 47  1  0
 24 48  1  0
M  END
> <Uni-Dock RESULT> 
ENERGY=  -12.325  LOWER_BOUND=    0.000  UPPER_BOUND=    0.000
INTER + INTRA:         -12.325
INTER:                 -12.325
INTRA:                   0.000
UNBOUND:                 0.000

$$$$

     RDKit          3D

 48 48  0  0  0  0  0  0  0  0999 V2000
   46.7841    3.4806    7.0341 C   0  0  0  0  0  0  0  0  0  0  0  0
   47.3405    2.3940    6.3625 C   0  0  0  0  0  0  0  0  0  0  0  0
   45.8526    3.2639    8.0586 C   0  0  0  0  0  0  0  0  0  0  0  0
   48.2445    2.5688    5.3561 O   0  0  0  0  0  0  0  0  0  0  0  0
   46.0786    0.8682    7.7275 C   0  0  0  0  0  0  0  0  0  0  0  0
   46.9930    1.0919    6.7001 C   0  0  0  0  0  0  0  0  0  0  0  0
   45.5143    1.9493    8.4079 C   0  0  0  0  0  0  0  0  0  0  0  0
   45.2704    4.4219    8.8139 C   0  0  0  0  0  0  0  0  0  0  0  0
   46.1982    1.8274    8.0464 C   0  0  0  0  0  0  0  0  0  0  0  0
   45.9378    3.1894    7.8497 C   0  0  0  0  0  0  0  0  0  0  0  0
   45.6200    1.0980    9.0465 O   0  0  0  0  0  0  0  0  0  0  0  0
   44.9972    3.9632    8.7261 C   0  0  0  0  0  0  0  0  0  0  0  0
   47.0774    1.1357    7.2148 C   0  0  0  0  0  0  0  0  0  0  0  0
   46.5871    3.8427    6.7901 C   0  0  0  0  0  0  0  0  0  0  0  0
   47.4689    3.1519    5.9551 C   0  0  0  0  0  0  0  0  0  0  0  0
   47.7141    1.7979    6.1676 C   0  0  0  0  0  0  0  0  0  0  0  0
   44.8403    3.2884    8.4892 C   0  0  0  0  0  0  0  0  0  0  0  0
   47.1136    2.4209    7.1184 C   0  0  0  0  0  0  0  0  0  0  0  0
   45.4932    2.1337    8.9017 C   0  0  0  0  0  0  0  0  0  0  0  0
   45.2997    4.0140    7.3951 C   0  0  0  0  0  0  0  0  0  0  0  0
   46.6263    1.6964    8.2139 C   0  0  0  0  0  0  0  0  0  0  0  0
   46.4339    3.5756    6.7073 C   0  0  0  0  0  0  0  0  0  0  0  0
   43.7371    3.6796    9.1888 O   0  0  0  0  0  0  0  0  0  0  0  0
   48.3113    1.9330    6.3583 C   0  0  0  0  0  0  0  0  0  0  0  0
   47.0658    4.4956    6.7704 H   0  0  0  0  0  0  0  0  0  0  0  0
   48.3858    3.5213    5.2320 H   0  0  0  0  0  0  0  0  0  0  0  0
   45.8077   -0.1481    8.0002 H   0  0  0  0  0  0  0  0  0  0  0  0
   47.4358    0.2553    6.1680 H   0  0  0  0  0  0  0  0  0  0  0  0
   44.8074    1.7593    9.2126 H   0  0  0  0  0  0  0  0  0  0  0  0
   44.2649    4.1856    9.1775 H   0  0  0  0  0  0  0  0  0  0  0  0
   45.9071    4.6689    9.6689 H   0  0  0  0  0  0  0  0  0  0  0  0
   45.1833    5.3037    8.1703 H   0  0  0  0  0  0  0  0  0  0  0  0
   45.0315    1.6709    9.5608 H   0  0  0  0  0  0  0  0  0  0  0  0
   43.9917    3.5332    8.6753 H   0  0  0  0  0  0  0  0  0  0  0  0
   45.3480    3.9496    9.7631 H   0  0  0  0  0  0  0  0  0  0  0  0
   44.9246    5.0109    8.4157 H   0  0  0  0  0  0  0  0  0  0  0  0
   47.2649    0.0792    7.3855 H   0  0  0  0  0  0  0  0  0  0  0  0
   46.4109    4.9003    6.6050 H   0  0  0  0  0  0  0  0  0  0  0  0
   47.9638    3.6721    5.1390 H   0  0  0  0  0  0  0  0  0  0  0  0
   48.3993    1.2578    5.5200 H   0  0  0  0  0  0  0  0  0  0  0  0
   45.1203    1.5734    9.7540 H   0  0  0  0  0  0  0  0  0  0  0  0
   44.7924    4.9136    7.0623 H   0  0  0  0  0  0  0  0  0  0  0  0
   47.1263    0.7873    8.5397 H   0  0  0  0  0  0  0  0  0  0  0  0
   46.7862    4.1411    5.8475 H   0  0  0  0  0  0  0  0  0  0  0  0
   43.3930    4.4947    8.7892 H   0  0  0  0  0  0  0  0  0  0  0  0
   47.9960    1.2580    5.5565 H   0  0  0  0  0  0  0  0  0  0  0  0
   48.8633    2.7709    5.9195 H   0  0  0  0  0  0  0  0  0  0  0  0
   49.0026    1.3996    7.0191 H   0  0  0  0  0  0  0  0  0  0  0  0
  2  1  2  0
  3  1  1  0
  4  2  1  0
  5  7  1  0
  6  2  1  0
  7  3  2  0
  8  3  1  0
  6  5  2  0
 10  9  2  0
 11  9  1  0
 12 10  1  0
 13  9  1  0
 14 10  1  0
 15 14  2  0
 16 13  2  0
 16 15  1  0
 18 21  2  0
 19 17  2  0
 20 17  1  0
 21 19  1  0
 22 20  2  0
 23 17  1  0
 24 18  1  0
 22 18  1  0
  1 25  1  0
  4 26  1  0
  5 27  1  0
  6 28  1  0
  7 29  1  0
  8 30  1  0
  8 31  1  0
  8 32  1  0
 11 33  1  0
 12 34  1  0
 12 35  1  0
 12 36  1  0
 13 37  1  0
 14 38  1  0
 15 39  1  0
 16 40  1  0
 19 41  1  0
 20 42  1  0
 21 43  1  0
 22 44  1  0
 23 45  1  0
 24 46  1  0
 24 47  1  0
 24 48  1  0
M  END
> <Uni-Dock RESULT> 
ENERGY=  -12.150  LOWER_BOUND=    0.737  UPPER_BOUND=    3.111
INTER + INTRA:         -12.150
INTER:                 -12.150
INTRA:                   0.000
UNBOUND:                 0.000

$$$$

     RDKit          3D

 48 48  0  0  0  0  0  0  0  0999 V2000
   46.3958    1.6064    7.4060 C   0  0  0  0  0  0  0  0  0  0  0  0
   47.3849    2.2736    6.6863 C   0  0  0  0  0  0  0  0  0  0  0  0
   45.5113    2.3340    8.2139 C   0  0  0  0  0  0  0  0  0  0  0  0
   48.2665    1.5963    5.8960 O   0  0  0  0  0  0  0  0  0  0  0  0
   46.6183    4.3879    7.5383 C   0  0  0  0  0  0  0  0  0  0  0  0
   47.5033    3.6564    6.7487 C   0  0  0  0  0  0  0  0  0  0  0  0
   45.6228    3.7303    8.2641 C   0  0  0  0  0  0  0  0  0  0  0  0
   44.4198    1.6337    8.9679 C   0  0  0  0  0  0  0  0  0  0  0  0
   45.9972    3.5832    7.5922 C   0  0  0  0  0  0  0  0  0  0  0  0
   45.7322    2.3167    8.1281 C   0  0  0  0  0  0  0  0  0  0  0  0
   45.3028    4.7027    7.9544 O   0  0  0  0  0  0  0  0  0  0  0  0
   44.6579    2.0843    9.1497 C   0  0  0  0  0  0  0  0  0  0  0  0
   47.0026    3.7672    6.6443 C   0  0  0  0  0  0  0  0  0  0  0  0
   46.5074    1.2333    7.6848 C   0  0  0  0  0  0  0  0  0  0  0  0
   47.5156    1.4148    6.7348 C   0  0  0  0  0  0  0  0  0  0  0  0
   47.7632    2.6823    6.2143 C   0  0  0  0  0  0  0  0  0  0  0  0
   45.1075    2.6613    9.1837 C   0  0  0  0  0  0  0  0  0  0  0  0
   46.6655    2.5432    6.8689 C   0  0  0  0  0  0  0  0  0  0  0  0
   45.0961    3.7264    8.2919 C   0  0  0  0  0  0  0  0  0  0  0  0
   45.8930    1.5391    8.9426 C   0  0  0  0  0  0  0  0  0  0  0  0
   45.8785    3.6706    7.1375 C   0  0  0  0  0  0  0  0  0  0  0  0
   46.6759    1.4841    7.7867 C   0  0  0  0  0  0  0  0  0  0  0  0
   44.3289    2.7574   10.2991 O   0  0  0  0  0  0  0  0  0  0  0  0
   47.5324    2.4970    5.6455 C   0  0  0  0  0  0  0  0  0  0  0  0
   46.3038    0.5261    7.3468 H   0  0  0  0  0  0  0  0  0  0  0  0
   48.0652    0.6482    5.9535 H   0  0  0  0  0  0  0  0  0  0  0  0
   46.7021    5.4701    7.5861 H   0  0  0  0  0  0  0  0  0  0  0  0
   48.2789    4.1622    6.1814 H   0  0  0  0  0  0  0  0  0  0  0  0
   44.9344    4.3150    8.8705 H   0  0  0  0  0  0  0  0  0  0  0  0
   44.1658    2.1782    9.8835 H   0  0  0  0  0  0  0  0  0  0  0  0
   43.5248    1.5548    8.3432 H   0  0  0  0  0  0  0  0  0  0  0  0
   44.7341    0.6279    9.2657 H   0  0  0  0  0  0  0  0  0  0  0  0
   44.6332    4.4642    8.6131 H   0  0  0  0  0  0  0  0  0  0  0  0
   44.8592    2.6715   10.0514 H   0  0  0  0  0  0  0  0  0  0  0  0
   43.6811    2.3642    8.7424 H   0  0  0  0  0  0  0  0  0  0  0  0
   44.6028    1.0316    9.4464 H   0  0  0  0  0  0  0  0  0  0  0  0
   47.1913    4.7586    6.2417 H   0  0  0  0  0  0  0  0  0  0  0  0
   46.3318    0.2338    8.0774 H   0  0  0  0  0  0  0  0  0  0  0  0
   48.1070    0.5658    6.4018 H   0  0  0  0  0  0  0  0  0  0  0  0
   48.5465    2.8268    5.4754 H   0  0  0  0  0  0  0  0  0  0  0  0
   44.4825    4.5991    8.4955 H   0  0  0  0  0  0  0  0  0  0  0  0
   45.9128    0.7052    9.6366 H   0  0  0  0  0  0  0  0  0  0  0  0
   45.8687    4.5123    6.4491 H   0  0  0  0  0  0  0  0  0  0  0  0
   47.2949    0.6083    7.6048 H   0  0  0  0  0  0  0  0  0  0  0  0
   44.4380    1.9458   10.8208 H   0  0  0  0  0  0  0  0  0  0  0  0
   48.5162    2.9217    5.8679 H   0  0  0  0  0  0  0  0  0  0  0  0
   47.6616    1.4668    5.2971 H   0  0  0  0  0  0  0  0  0  0  0  0
   47.0796    3.0627    4.8244 H   0  0  0  0  0  0  0  0  0  0  0  0
  2  1  2  0
  3  1  1  0
  4  2  1  0
  5  7  1  0
  6  2  1  0
  7  3  2  0
  8  3  1  0
  6  5  2  0
 10  9  2  0
 11  9  1  0
 12 10  1  0
 13  9  1  0
 14 10  1  0
 15 14  2  0
 16 13  2  0
 16 15  1  0
 18 21  2  0
 19 17  2  0
 20 17  1  0
 21 19  1  0
 22 20  2  0
 23 17  1  0
 24 18  1  0
 22 18  1  0
  1 25  1  0
  4 26  1  0
  5 27  1  0
  6 28  1  0
  7 29  1  0
  8 30  1  0
  8 31  1  0
  8 32  1  0
 11 33  1  0
 12 34  1  0
 12 35  1  0
 12 36  1  0
 13 37  1  0
 14 38  1  0
 15 39  1  0
 16 40  1  0
 19 41  1  0
 20 42  1  0
 21 43  1  0
 22 44  1  0
 23 45  1  0
 24 46  1  0
 24 47  1  0
 24 48  1  0
M  END
> <Uni-Dock RESULT> 
ENERGY=  -12.138  LOWER_BOUND=    0.788  UPPER_BOUND=    3.608
INTER + INTRA:         -12.138
INTER:                 -12.138
INTRA:                   0.000
UNBOUND:                 0.000

$$$$

     RDKit          3D

 48 48  0  0  0  0  0  0  0  0999 V2000
   46.3174    1.6339    8.1413 C   0  0  0  0  0  0  0  0  0  0  0  0
   45.1605    2.1797    8.6937 C   0  0  0  0  0  0  0  0  0  0  0  0
   47.0312    2.3503    7.1709 C   0  0  0  0  0  0  0  0  0  0  0  0
   44.4379    1.5071    9.6350 O   0  0  0  0  0  0  0  0  0  0  0  0
   45.4182    4.1576    7.3502 C   0  0  0  0  0  0  0  0  0  0  0  0
   44.7058    3.4332    8.3038 C   0  0  0  0  0  0  0  0  0  0  0  0
   46.5792    3.6211    6.7895 C   0  0  0  0  0  0  0  0  0  0  0  0
   48.2970    1.7912    6.5916 C   0  0  0  0  0  0  0  0  0  0  0  0
   46.2214    3.5463    7.4820 C   0  0  0  0  0  0  0  0  0  0  0  0
   46.8176    2.2985    7.2613 C   0  0  0  0  0  0  0  0  0  0  0  0
   46.6328    4.6873    6.8531 O   0  0  0  0  0  0  0  0  0  0  0  0
   47.9635    2.1114    6.3106 C   0  0  0  0  0  0  0  0  0  0  0  0
   45.1578    3.6881    8.3719 C   0  0  0  0  0  0  0  0  0  0  0  0
   46.3153    1.1900    7.9614 C   0  0  0  0  0  0  0  0  0  0  0  0
   45.2494    1.3291    8.8539 C   0  0  0  0  0  0  0  0  0  0  0  0
   44.6705    2.5787    9.0593 C   0  0  0  0  0  0  0  0  0  0  0  0
   47.3869    2.5316    6.1455 C   0  0  0  0  0  0  0  0  0  0  0  0
   45.7983    2.5713    8.4422 C   0  0  0  0  0  0  0  0  0  0  0  0
   47.0912    3.7438    6.7563 C   0  0  0  0  0  0  0  0  0  0  0  0
   46.8938    1.3366    6.6588 C   0  0  0  0  0  0  0  0  0  0  0  0
   46.2929    3.7651    7.9010 C   0  0  0  0  0  0  0  0  0  0  0  0
   46.0949    1.3589    7.8047 C   0  0  0  0  0  0  0  0  0  0  0  0
   48.1696    2.5562    5.0292 O   0  0  0  0  0  0  0  0  0  0  0  0
   44.9128    2.5967    9.6527 C   0  0  0  0  0  0  0  0  0  0  0  0
   46.6716    0.6569    8.4560 H   0  0  0  0  0  0  0  0  0  0  0  0
   44.8707    0.6545    9.8033 H   0  0  0  0  0  0  0  0  0  0  0  0
   45.0709    5.1412    7.0460 H   0  0  0  0  0  0  0  0  0  0  0  0
   43.8028    3.8455    8.7440 H   0  0  0  0  0  0  0  0  0  0  0  0
   47.1291    4.2011    6.0516 H   0  0  0  0  0  0  0  0  0  0  0  0
   48.4513    2.1513    5.5690 H   0  0  0  0  0  0  0  0  0  0  0  0
   49.1527    2.0897    7.2050 H   0  0  0  0  0  0  0  0  0  0  0  0
   48.2566    0.6978    6.5475 H   0  0  0  0  0  0  0  0  0  0  0  0
   47.3712    4.4777    6.2616 H   0  0  0  0  0  0  0  0  0  0  0  0
   47.6660    2.4000    5.2974 H   0  0  0  0  0  0  0  0  0  0  0  0
   48.8197    2.7162    6.6259 H   0  0  0  0  0  0  0  0  0  0  0  0
   48.2921    1.0674    6.2737 H   0  0  0  0  0  0  0  0  0  0  0  0
   44.7101    4.6657    8.5281 H   0  0  0  0  0  0  0  0  0  0  0  0
   46.7518    0.2039    7.8170 H   0  0  0  0  0  0  0  0  0  0  0  0
   44.8720    0.4612    9.3884 H   0  0  0  0  0  0  0  0  0  0  0  0
   43.8416    2.6904    9.7527 H   0  0  0  0  0  0  0  0  0  0  0  0
   47.4780    4.6699    6.3415 H   0  0  0  0  0  0  0  0  0  0  0  0
   47.1147    0.3859    6.1848 H   0  0  0  0  0  0  0  0  0  0  0  0
   46.0607    4.7195    8.3678 H   0  0  0  0  0  0  0  0  0  0  0  0
   45.7046    0.4235    8.1993 H   0  0  0  0  0  0  0  0  0  0  0  0
   48.2902    1.6444    4.7184 H   0  0  0  0  0  0  0  0  0  0  0  0
   43.8661    2.6949    9.3485 H   0  0  0  0  0  0  0  0  0  0  0  0
   45.0267    1.6789   10.2392 H   0  0  0  0  0  0  0  0  0  0  0  0
   45.1713    3.4348   10.3084 H   0  0  0  0  0  0  0  0  0  0  0  0
  2  1  2  0
  3  1  1  0
  4  2  1  0
  5  7  1  0
  6  2  1  0
  7  3  2  0
  8  3  1  0
  6  5  2  0
 10  9  2  0
 11  9  1  0
 12 10  1  0
 13  9  1  0
 14 10  1  0
 15 14  2  0
 16 13  2  0
 16 15  1  0
 18 21  2  0
 19 17  2  0
 20 17  1  0
 21 19  1  0
 22 20  2  0
 23 17  1  0
 24 18  1  0
 22 18  1  0
  1 25  1  0
  4 26  1  0
  5 27  1  0
  6 28  1  0
  7 29  1  0
  8 30  1  0
  8 31  1  0
  8 32  1  0
 11 33  1  0
 12 34  1  0
 12 35  1  0
 12 36  1  0
 13 37  1  0
 14 38  1  0
 15 39  1  0
 16 40  1  0
 19 41  1  0
 20 42  1  0
 21 43  1  0
 22 44  1  0
 23 45  1  0
 24 46  1  0
 24 47  1  0
 24 48  1  0
M  END
> <Uni-Dock RESULT> 
ENERGY=  -12.009  LOWER_BOUND=    1.053  UPPER_BOUND=    2.158
INTER + INTRA:         -12.009
INTER:                 -12.009
INTRA:                   0.000
UNBOUND:                 0.000

$$$$

     RDKit          3D

 48 48  0  0  0  0  0  0  0  0999 V2000
   44.9327    2.4141    9.4918 C   0  0  0  0  0  0  0  0  0  0  0  0
   44.0895    3.0137   10.4250 C   0  0  0  0  0  0  0  0  0  0  0  0
   45.6036    3.2053    8.5493 C   0  0  0  0  0  0  0  0  0  0  0  0
   43.4159    2.2734   11.3517 O   0  0  0  0  0  0  0  0  0  0  0  0
   44.5844    5.1856    9.5187 C   0  0  0  0  0  0  0  0  0  0  0  0
   43.9094    4.3911   10.4433 C   0  0  0  0  0  0  0  0  0  0  0  0
   45.4323    4.5961    8.5786 C   0  0  0  0  0  0  0  0  0  0  0  0
   46.5411    2.5783    7.5602 C   0  0  0  0  0  0  0  0  0  0  0  0
   45.2104    4.4115    9.3066 C   0  0  0  0  0  0  0  0  0  0  0  0
   45.4059    3.1755    8.6778 C   0  0  0  0  0  0  0  0  0  0  0  0
   45.7730    5.5716    8.8546 O   0  0  0  0  0  0  0  0  0  0  0  0
   46.2540    3.0233    7.4492 C   0  0  0  0  0  0  0  0  0  0  0  0
   44.4164    4.5208   10.4471 C   0  0  0  0  0  0  0  0  0  0  0  0
   44.7799    2.0453    9.2271 C   0  0  0  0  0  0  0  0  0  0  0  0
   43.9835    2.1518   10.3702 C   0  0  0  0  0  0  0  0  0  0  0  0
   43.8018    3.3901   10.9804 C   0  0  0  0  0  0  0  0  0  0  0  0
   45.7860    3.5804    7.5311 C   0  0  0  0  0  0  0  0  0  0  0  0
   44.7451    3.3206   10.1096 C   0  0  0  0  0  0  0  0  0  0  0  0
   45.9417    4.6166    8.4433 C   0  0  0  0  0  0  0  0  0  0  0  0
   45.1094    2.4173    7.8833 C   0  0  0  0  0  0  0  0  0  0  0  0
   45.4172    4.4899    9.7304 C   0  0  0  0  0  0  0  0  0  0  0  0
   44.5848    2.2914    9.1720 C   0  0  0  0  0  0  0  0  0  0  0  0
   46.3133    3.7460    6.2845 O   0  0  0  0  0  0  0  0  0  0  0  0
   44.1519    3.1976   11.4820 C   0  0  0  0  0  0  0  0  0  0  0  0
   45.0750    1.3376    9.4878 H   0  0  0  0  0  0  0  0  0  0  0  0
   43.6361    1.3375   11.2164 H   0  0  0  0  0  0  0  0  0  0  0  0
   44.4524    6.2641    9.5322 H   0  0  0  0  0  0  0  0  0  0  0  0
   43.2494    4.8438   11.1773 H   0  0  0  0  0  0  0  0  0  0  0  0
   45.9584    5.2296    7.8677 H   0  0  0  0  0  0  0  0  0  0  0  0
   46.5801    3.1619    6.6344 H   0  0  0  0  0  0  0  0  0  0  0  0
   47.5481    2.5199    7.9845 H   0  0  0  0  0  0  0  0  0  0  0  0
   46.2097    1.5693    7.2935 H   0  0  0  0  0  0  0  0  0  0  0  0
   46.3005    5.3840    8.0636 H   0  0  0  0  0  0  0  0  0  0  0  0
   45.8491    3.6289    6.6321 H   0  0  0  0  0  0  0  0  0  0  0  0
   47.2828    3.3335    7.6584 H   0  0  0  0  0  0  0  0  0  0  0  0
   46.2857    1.9839    7.1058 H   0  0  0  0  0  0  0  0  0  0  0  0
   44.2782    5.4897   10.9190 H   0  0  0  0  0  0  0  0  0  0  0  0
   44.9076    1.0674    8.7674 H   0  0  0  0  0  0  0  0  0  0  0  0
   43.5056    1.2673   10.7834 H   0  0  0  0  0  0  0  0  0  0  0  0
   43.1832    3.4764   11.8694 H   0  0  0  0  0  0  0  0  0  0  0  0
   46.4671    5.5217    8.1531 H   0  0  0  0  0  0  0  0  0  0  0  0
   44.9777    1.6056    7.1755 H   0  0  0  0  0  0  0  0  0  0  0  0
   45.5377    5.3092   10.4352 H   0  0  0  0  0  0  0  0  0  0  0  0
   44.0497    1.3836    9.4420 H   0  0  0  0  0  0  0  0  0  0  0  0
   46.1290    2.9471    5.7644 H   0  0  0  0  0  0  0  0  0  0  0  0
   43.1283    3.5848   11.4831 H   0  0  0  0  0  0  0  0  0  0  0  0
   44.1358    2.1523   11.8082 H   0  0  0  0  0  0  0  0  0  0  0  0
   44.7431    3.7569   12.2146 H   0  0  0  0  0  0  0  0  0  0  0  0
  2  1  2  0
  3  1  1  0
  4  2  1  0
  5  7  1  0
  6  2  1  0
  7  3  2  0
  8  3  1  0
  6  5  2  0
 10  9  2  0
 11  9  1  0
 12 10  1  0
 13  9  1  0
 14 10  1  0
 15 14  2  0
 16 13  2  0
 16 15  1  0
 18 21  2  0
 19 17  2  0
 20 17  1  0
 21 19  1  0
 22 20  2  0
 23 17  1  0
 24 18  1  0
 22 18  1  0
  1 25  1  0
  4 26  1  0
  5 27  1  0
  6 28  1  0
  7 29  1  0
  8 30  1  0
  8 31  1  0
  8 32  1  0
 11 33  1  0
 12 34  1  0
 12 35  1  0
 12 36  1  0
 13 37  1  0
 14 38  1  0
 15 39  1  0
 16 40  1  0
 19 41  1  0
 20 42  1  0
 21 43  1  0
 22 44  1  0
 23 45  1  0
 24 46  1  0
 24 47  1  0
 24 48  1  0
M  END
> <Uni-Dock RESULT> 
ENERGY=   -9.403  LOWER_BOUND=    1.640  UPPER_BOUND=    3.184
INTER + INTRA:          -9.403
INTER:                  -9.403
INTRA:                   0.000
UNBOUND:                 0.000

$$$$
