
     RDKit          3D

 48 48  0  0  0  0  0  0  0  0999 V2000
   46.5691    3.4926    7.1813 C   0  0  0  0  0  0  0  0  0  0  0  0
   47.4094    2.6157    6.4986 C   0  0  0  0  0  0  0  0  0  0  0  0
   45.6699    2.9958    8.1348 C   0  0  0  0  0  0  0  0  0  0  0  0
   48.2914    3.0642    5.5597 O   0  0  0  0  0  0  0  0  0  0  0  0
   46.4968    0.7512    7.7128 C   0  0  0  0  0  0  0  0  0  0  0  0
   47.3778    1.2507    6.7558 C   0  0  0  0  0  0  0  0  0  0  0  0
   45.6497    1.6203    8.4036 C   0  0  0  0  0  0  0  0  0  0  0  0
   44.7828    3.9307    8.9025 C   0  0  0  0  0  0  0  0  0  0  0  0
   46.2546    1.6983    7.9463 C   0  0  0  0  0  0  0  0  0  0  0  0
   46.6689    2.6605    7.0196 C   0  0  0  0  0  0  0  0  0  0  0  0
   46.6467    0.4016    7.7639 O   0  0  0  0  0  0  0  0  0  0  0  0
   47.5265    2.2830    5.8473 C   0  0  0  0  0  0  0  0  0  0  0  0
   45.4577    2.0441    9.0373 C   0  0  0  0  0  0  0  0  0  0  0  0
   46.2666    3.9899    7.2069 C   0  0  0  0  0  0  0  0  0  0  0  0
   45.4687    4.3427    8.2973 C   0  0  0  0  0  0  0  0  0  0  0  0
   45.0648    3.3708    9.2113 C   0  0  0  0  0  0  0  0  0  0  0  0
   47.6544    2.1834    6.5585 C   0  0  0  0  0  0  0  0  0  0  0  0
   45.5319    2.8204    8.2583 C   0  0  0  0  0  0  0  0  0  0  0  0
   47.1073    1.2005    7.3736 C   0  0  0  0  0  0  0  0  0  0  0  0
   47.1521    3.4802    6.5716 C   0  0  0  0  0  0  0  0  0  0  0  0
   46.0430    1.5165    8.2196 C   0  0  0  0  0  0  0  0  0  0  0  0
   46.0868    3.7958    7.4187 C   0  0  0  0  0  0  0  0  0  0  0  0
   48.6925    1.8316    5.7472 O   0  0  0  0  0  0  0  0  0  0  0  0
   44.3663    3.1524    9.1422 C   0  0  0  0  0  0  0  0  0  0  0  0
   46.6042    4.5592    6.9810 H   0  0  0  0  0  0  0  0  0  0  0  0
   48.1992    4.0279    5.4869 H   0  0  0  0  0  0  0  0  0  0  0  0
   46.4720   -0.3147    7.9227 H   0  0  0  0  0  0  0  0  0  0  0  0
   48.0396    0.5799    6.2160 H   0  0  0  0  0  0  0  0  0  0  0  0
   44.9724    1.2169    9.1531 H   0  0  0  0  0  0  0  0  0  0  0  0
   45.2952    4.2753    9.8058 H   0  0  0  0  0  0  0  0  0  0  0  0
   43.8499    3.4353    9.1915 H   0  0  0  0  0  0  0  0  0  0  0  0
   44.5130    4.8005    8.2943 H   0  0  0  0  0  0  0  0  0  0  0  0
   46.2807   -0.1364    8.4842 H   0  0  0  0  0  0  0  0  0  0  0  0
   47.0084    1.5518    5.2182 H   0  0  0  0  0  0  0  0  0  0  0  0
   48.4748    1.8583    6.1921 H   0  0  0  0  0  0  0  0  0  0  0  0
   47.7589    3.1525    5.2235 H   0  0  0  0  0  0  0  0  0  0  0  0
   45.1353    1.2987    9.7572 H   0  0  0  0  0  0  0  0  0  0  0  0
   46.5729    4.7605    6.5033 H   0  0  0  0  0  0  0  0  0  0  0  0
   45.1628    5.3770    8.4325 H   0  0  0  0  0  0  0  0  0  0  0  0
   44.4438    3.6482   10.0590 H   0  0  0  0  0  0  0  0  0  0  0  0
   47.5055    0.1903    7.3491 H   0  0  0  0  0  0  0  0  0  0  0  0
   47.5693    4.2527    5.9339 H   0  0  0  0  0  0  0  0  0  0  0  0
   45.6164    0.7387    8.8485 H   0  0  0  0  0  0  0  0  0  0  0  0
   45.6912    4.8090    7.4210 H   0  0  0  0  0  0  0  0  0  0  0  0
   48.9679    2.6146    5.2436 H   0  0  0  0  0  0  0  0  0  0  0  0
   44.4052    4.1986    9.4633 H   0  0  0  0  0  0  0  0  0  0  0  0
   43.4286    2.9816    8.6046 H   0  0  0  0  0  0  0  0  0  0  0  0
   44.3737    2.5351   10.0466 H   0  0  0  0  0  0  0  0  0  0  0  0
  2  1  2  0
  3  1  1  0
  4  2  1  0
  5  7  1  0
  6  2  1  0
  7  3  2  0
  8  3  1  0
  6  5  2  0
 10  9  2  0
 11  9  1  0
 12 10  1  0
 13  9  1  0
 14 10  1  0
 15 14  2  0
 16 13  2  0
 16 15  1  0
 18 21  2  0
 19 17  2  0
 20 17  1  0
 21 19  1  0
 22 20  2  0
 23 17  1  0
 24 18  1  0
 22 18  1  0
  1 25  1  0
  4 26  1  0
  5 27  1  0
  6 28  1  0
  7 29  1  0
  8 30  1  0
  8 31  1  0
  8 32  1  0
 11 33  1  0
 12 34  1  0
 12 35  1  0
 12 36  1  0
 13 37  1  0
 14 38  1  0
 15 39  1  0
 16 40  1  0
 19 41  1  0
 20 42  1  0
 21 43  1  0
 22 44  1  0
 23 45  1  0
 24 46  1  0
 24 47  1  0
 24 48  1  0
M  END
> <Uni-Dock RESULT> 
ENERGY=  -14.777  LOWER_BOUND=    0.000  UPPER_BOUND=    0.000
INTER + INTRA:         -14.777
INTER:                 -14.777
INTRA:                   0.000
UNBOUND:                 0.000

$$$$

     RDKit          3D

 48 48  0  0  0  0  0  0  0  0999 V2000
   46.2110    3.6907    7.3443 C   0  0  0  0  0  0  0  0  0  0  0  0
   45.2438    3.5930    8.3423 C   0  0  0  0  0  0  0  0  0  0  0  0
   46.9689    2.5645    6.9957 C   0  0  0  0  0  0  0  0  0  0  0  0
   44.4932    4.6706    8.7112 O   0  0  0  0  0  0  0  0  0  0  0  0
   45.7492    1.2611    8.6429 C   0  0  0  0  0  0  0  0  0  0  0  0
   45.0097    2.3887    8.9942 C   0  0  0  0  0  0  0  0  0  0  0  0
   46.7214    1.3467    7.6442 C   0  0  0  0  0  0  0  0  0  0  0  0
   47.9903    2.6450    5.8999 C   0  0  0  0  0  0  0  0  0  0  0  0
   46.1573    1.7940    7.8949 C   0  0  0  0  0  0  0  0  0  0  0  0
   45.9620    3.1764    7.9782 C   0  0  0  0  0  0  0  0  0  0  0  0
   45.5346    0.9883    8.8067 O   0  0  0  0  0  0  0  0  0  0  0  0
   45.0878    3.7687    9.0447 C   0  0  0  0  0  0  0  0  0  0  0  0
   46.9687    1.2388    6.9057 C   0  0  0  0  0  0  0  0  0  0  0  0
   46.6007    4.0022    7.0432 C   0  0  0  0  0  0  0  0  0  0  0  0
   47.4143    3.4526    6.0503 C   0  0  0  0  0  0  0  0  0  0  0  0
   47.5980    2.0725    5.9817 C   0  0  0  0  0  0  0  0  0  0  0  0
   44.9200    3.2676    8.5418 C   0  0  0  0  0  0  0  0  0  0  0  0
   47.0674    2.3306    7.0216 C   0  0  0  0  0  0  0  0  0  0  0  0
   45.2455    1.9174    8.5703 C   0  0  0  0  0  0  0  0  0  0  0  0
   45.6566    4.1614    7.7717 C   0  0  0  0  0  0  0  0  0  0  0  0
   46.3218    1.4490    7.8151 C   0  0  0  0  0  0  0  0  0  0  0  0
   46.7337    3.6917    7.0160 C   0  0  0  0  0  0  0  0  0  0  0  0
   43.8616    3.6827    9.2948 O   0  0  0  0  0  0  0  0  0  0  0  0
   48.2449    1.8335    6.2364 C   0  0  0  0  0  0  0  0  0  0  0  0
   46.3838    4.6332    6.8333 H   0  0  0  0  0  0  0  0  0  0  0  0
   44.7673    5.4334    8.1769 H   0  0  0  0  0  0  0  0  0  0  0  0
   45.5663    0.3150    9.1450 H   0  0  0  0  0  0  0  0  0  0  0  0
   44.2518    2.3281    9.7696 H   0  0  0  0  0  0  0  0  0  0  0  0
   47.2857    0.4565    7.3754 H   0  0  0  0  0  0  0  0  0  0  0  0
   47.5224    2.4250    4.9355 H   0  0  0  0  0  0  0  0  0  0  0  0
   48.8034    1.9316    6.0701 H   0  0  0  0  0  0  0  0  0  0  0  0
   48.4387    3.6433    5.8567 H   0  0  0  0  0  0  0  0  0  0  0  0
   45.7690    0.0660    8.6154 H   0  0  0  0  0  0  0  0  0  0  0  0
   45.4796    3.5217   10.0367 H   0  0  0  0  0  0  0  0  0  0  0  0
   44.0657    3.3873    8.9524 H   0  0  0  0  0  0  0  0  0  0  0  0
   45.0436    4.8601    8.9672 H   0  0  0  0  0  0  0  0  0  0  0  0
   47.1213    0.1664    6.8396 H   0  0  0  0  0  0  0  0  0  0  0  0
   46.4680    5.0809    7.0824 H   0  0  0  0  0  0  0  0  0  0  0  0
   47.9046    4.1030    5.3303 H   0  0  0  0  0  0  0  0  0  0  0  0
   48.2319    1.6475    5.2079 H   0  0  0  0  0  0  0  0  0  0  0  0
   44.6656    1.2313    9.1806 H   0  0  0  0  0  0  0  0  0  0  0  0
   45.4132    5.2186    7.7481 H   0  0  0  0  0  0  0  0  0  0  0  0
   46.5736    0.3916    7.8497 H   0  0  0  0  0  0  0  0  0  0  0  0
   47.3124    4.3945    6.4207 H   0  0  0  0  0  0  0  0  0  0  0  0
   43.7551    4.6401    9.1736 H   0  0  0  0  0  0  0  0  0  0  0  0
   48.3929    2.4336    5.3324 H   0  0  0  0  0  0  0  0  0  0  0  0
   49.1510    1.8851    6.8479 H   0  0  0  0  0  0  0  0  0  0  0  0
   48.0919    0.7975    5.9165 H   0  0  0  0  0  0  0  0  0  0  0  0
  2  1  2  0
  3  1  1  0
  4  2  1  0
  5  7  1  0
  6  2  1  0
  7  3  2  0
  8  3  1  0
  6  5  2  0
 10  9  2  0
 11  9  1  0
 12 10  1  0
 13  9  1  0
 14 10  1  0
 15 14  2  0
 16 13  2  0
 16 15  1  0
 18 21  2  0
 19 17  2  0
 20 17  1  0
 21 19  1  0
 22 20  2  0
 23 17  1  0
 24 18  1  0
 22 18  1  0
  1 25  1  0
  4 26  1  0
  5 27  1  0
  6 28  1  0
  7 29  1  0
  8 30  1  0
  8 31  1  0
  8 32  1  0
 11 33  1  0
 12 34  1  0
 12 35  1  0
 12 36  1  0
 13 37  1  0
 14 38  1  0
 15 39  1  0
 16 40  1  0
 19 41  1  0
 20 42  1  0
 21 43  1  0
 22 44  1  0
 23 45  1  0
 24 46  1  0
 24 47  1  0
 24 48  1  0
M  END
> <Uni-Dock RESULT> 
ENERGY=  -14.062  LOWER_BOUND=    1.476  UPPER_BOUND=    3.068
INTER + INTRA:         -14.062
INTER:                 -14.062
INTRA:                   0.000
UNBOUND:                 0.000

$$$$

     RDKit          3D

 48 48  0  0  0  0  0  0  0  0999 V2000
   46.1297    1.6803    8.0817 C   0  0  0  0  0  0  0  0  0  0  0  0
   45.1957    2.2979    8.9107 C   0  0  0  0  0  0  0  0  0  0  0  0
   46.8180    2.4362    7.1228 C   0  0  0  0  0  0  0  0  0  0  0  0
   44.5032    1.5913    9.8497 O   0  0  0  0  0  0  0  0  0  0  0  0
   45.6322    4.4207    7.8682 C   0  0  0  0  0  0  0  0  0  0  0  0
   44.9412    3.6599    8.8092 C   0  0  0  0  0  0  0  0  0  0  0  0
   46.5706    3.8128    7.0316 C   0  0  0  0  0  0  0  0  0  0  0  0
   47.8511    1.7926    6.2459 C   0  0  0  0  0  0  0  0  0  0  0  0
   46.1866    3.6092    7.6579 C   0  0  0  0  0  0  0  0  0  0  0  0
   45.6805    2.4026    8.1518 C   0  0  0  0  0  0  0  0  0  0  0  0
   45.5568    4.7730    8.0006 O   0  0  0  0  0  0  0  0  0  0  0  0
   44.4711    2.3798    9.0402 C   0  0  0  0  0  0  0  0  0  0  0  0
   47.3102    3.6356    6.8320 C   0  0  0  0  0  0  0  0  0  0  0  0
   46.3264    1.2096    7.8002 C   0  0  0  0  0  0  0  0  0  0  0  0
   47.4518    1.2291    6.9738 C   0  0  0  0  0  0  0  0  0  0  0  0
   47.9430    2.4408    6.4903 C   0  0  0  0  0  0  0  0  0  0  0  0
   45.1009    2.7357    9.1341 C   0  0  0  0  0  0  0  0  0  0  0  0
   46.8665    2.6363    6.9723 C   0  0  0  0  0  0  0  0  0  0  0  0
   45.4926    3.9140    8.5113 C   0  0  0  0  0  0  0  0  0  0  0  0
   45.5705    1.5047    8.6884 C   0  0  0  0  0  0  0  0  0  0  0  0
   46.3707    3.8651    7.4275 C   0  0  0  0  0  0  0  0  0  0  0  0
   46.4494    1.4566    7.6035 C   0  0  0  0  0  0  0  0  0  0  0  0
   44.2415    2.8290   10.1887 O   0  0  0  0  0  0  0  0  0  0  0  0
   47.7834    2.5806    5.7864 C   0  0  0  0  0  0  0  0  0  0  0  0
   46.3295    0.6167    8.1713 H   0  0  0  0  0  0  0  0  0  0  0  0
   44.7817    0.6624    9.8026 H   0  0  0  0  0  0  0  0  0  0  0  0
   45.4418    5.4875    7.7884 H   0  0  0  0  0  0  0  0  0  0  0  0
   44.2108    4.1271    9.4631 H   0  0  0  0  0  0  0  0  0  0  0  0
   47.1077    4.4207    6.3069 H   0  0  0  0  0  0  0  0  0  0  0  0
   48.8295    1.8252    6.7348 H   0  0  0  0  0  0  0  0  0  0  0  0
   47.9197    2.3061    5.2812 H   0  0  0  0  0  0  0  0  0  0  0  0
   47.5925    0.7485    6.0398 H   0  0  0  0  0  0  0  0  0  0  0  0
   46.0251    5.5130    7.5819 H   0  0  0  0  0  0  0  0  0  0  0  0
   43.6084    2.8056    8.5175 H   0  0  0  0  0  0  0  0  0  0  0  0
   44.6609    2.9521    9.9540 H   0  0  0  0  0  0  0  0  0  0  0  0
   44.2095    1.3584    9.3361 H   0  0  0  0  0  0  0  0  0  0  0  0
   47.7042    4.5710    6.4479 H   0  0  0  0  0  0  0  0  0  0  0  0
   45.9563    0.2556    8.1688 H   0  0  0  0  0  0  0  0  0  0  0  0
   47.9447    0.2975    6.7077 H   0  0  0  0  0  0  0  0  0  0  0  0
   48.8190    2.4530    5.8472 H   0  0  0  0  0  0  0  0  0  0  0  0
   45.1137    4.8682    8.8659 H   0  0  0  0  0  0  0  0  0  0  0  0
   45.2651    0.5789    9.1650 H   0  0  0  0  0  0  0  0  0  0  0  0
   46.6657    4.7922    6.9416 H   0  0  0  0  0  0  0  0  0  0  0  0
   46.8089    0.4918    7.2526 H   0  0  0  0  0  0  0  0  0  0  0  0
   44.0617    1.9338   10.5186 H   0  0  0  0  0  0  0  0  0  0  0  0
   48.4618    1.7239    5.8573 H   0  0  0  0  0  0  0  0  0  0  0  0
   47.1989    2.4940    4.8653 H   0  0  0  0  0  0  0  0  0  0  0  0
   48.4033    3.4814    5.7293 H   0  0  0  0  0  0  0  0  0  0  0  0
  2  1  2  0
  3  1  1  0
  4  2  1  0
  5  7  1  0
  6  2  1  0
  7  3  2  0
  8  3  1  0
  6  5  2  0
 10  9  2  0
 11  9  1  0
 12 10  1  0
 13  9  1  0
 14 10  1  0
 15 14  2  0
 16 13  2  0
 16 15  1  0
 18 21  2  0
 19 17  2  0
 20 17  1  0
 21 19  1  0
 22 20  2  0
 23 17  1  0
 24 18  1  0
 22 18  1  0
  1 25  1  0
  4 26  1  0
  5 27  1  0
  6 28  1  0
  7 29  1  0
  8 30  1  0
  8 31  1  0
  8 32  1  0
 11 33  1  0
 12 34  1  0
 12 35  1  0
 12 36  1  0
 13 37  1  0
 14 38  1  0
 15 39  1  0
 16 40  1  0
 19 41  1  0
 20 42  1  0
 21 43  1  0
 22 44  1  0
 23 45  1  0
 24 46  1  0
 24 47  1  0
 24 48  1  0
M  END
> <Uni-Dock RESULT> 
ENERGY=  -14.015  LOWER_BOUND=    1.500  UPPER_BOUND=    3.669
INTER + INTRA:         -14.015
INTER:                 -14.015
INTRA:                   0.000
UNBOUND:                 0.000

$$$$

     RDKit          3D

 48 48  0  0  0  0  0  0  0  0999 V2000
   46.1231    1.6834    8.0891 C   0  0  0  0  0  0  0  0  0  0  0  0
   45.1909    2.3060    8.9163 C   0  0  0  0  0  0  0  0  0  0  0  0
   46.8141    2.4346    7.1286 C   0  0  0  0  0  0  0  0  0  0  0  0
   44.4958    1.6040    9.8568 O   0  0  0  0  0  0  0  0  0  0  0  0
   45.6344    4.4248    7.8686 C   0  0  0  0  0  0  0  0  0  0  0  0
   44.9407    3.6686    8.8113 C   0  0  0  0  0  0  0  0  0  0  0  0
   46.5712    3.8119    7.0339 C   0  0  0  0  0  0  0  0  0  0  0  0
   47.8454    1.7855    6.2537 C   0  0  0  0  0  0  0  0  0  0  0  0
   46.1863    3.6111    7.6605 C   0  0  0  0  0  0  0  0  0  0  0  0
   45.6762    2.4072    8.1573 C   0  0  0  0  0  0  0  0  0  0  0  0
   45.5601    4.7777    8.0000 O   0  0  0  0  0  0  0  0  0  0  0  0
   44.4665    2.3906    9.0454 C   0  0  0  0  0  0  0  0  0  0  0  0
   47.3102    3.6317    6.8349 C   0  0  0  0  0  0  0  0  0  0  0  0
   46.3184    1.2113    7.8089 C   0  0  0  0  0  0  0  0  0  0  0  0
   47.4442    1.2252    6.9827 C   0  0  0  0  0  0  0  0  0  0  0  0
   47.9393    2.4341    6.4964 C   0  0  0  0  0  0  0  0  0  0  0  0
   45.0974    2.7447    9.1385 C   0  0  0  0  0  0  0  0  0  0  0  0
   46.8633    2.6343    6.9776 C   0  0  0  0  0  0  0  0  0  0  0  0
   45.4930    3.9202    8.5129 C   0  0  0  0  0  0  0  0  0  0  0  0
   45.5631    1.5111    8.6961 C   0  0  0  0  0  0  0  0  0  0  0  0
   46.3713    3.8658    7.4295 C   0  0  0  0  0  0  0  0  0  0  0  0
   46.4423    1.4574    7.6116 C   0  0  0  0  0  0  0  0  0  0  0  0
   44.2379    2.8433   10.1927 O   0  0  0  0  0  0  0  0  0  0  0  0
   47.7804    2.5726    5.7921 C   0  0  0  0  0  0  0  0  0  0  0  0
   46.3195    0.6194    8.1815 H   0  0  0  0  0  0  0  0  0  0  0  0
   44.7713    0.6741    9.8121 H   0  0  0  0  0  0  0  0  0  0  0  0
   45.4475    5.4920    7.7861 H   0  0  0  0  0  0  0  0  0  0  0  0
   44.2116    4.1397    9.4638 H   0  0  0  0  0  0  0  0  0  0  0  0
   47.1104    4.4162    6.3078 H   0  0  0  0  0  0  0  0  0  0  0  0
   48.8238    1.8163    6.7428 H   0  0  0  0  0  0  0  0  0  0  0  0
   47.9161    2.2964    5.2877 H   0  0  0  0  0  0  0  0  0  0  0  0
   47.5836    0.7418    6.0500 H   0  0  0  0  0  0  0  0  0  0  0  0
   46.0309    5.5151    7.5797 H   0  0  0  0  0  0  0  0  0  0  0  0
   43.6053    2.8178    8.5213 H   0  0  0  0  0  0  0  0  0  0  0  0
   44.6578    2.9645    9.9578 H   0  0  0  0  0  0  0  0  0  0  0  0
   44.2015    1.3707    9.3436 H   0  0  0  0  0  0  0  0  0  0  0  0
   47.7073    4.5649    6.4486 H   0  0  0  0  0  0  0  0  0  0  0  0
   45.9451    0.2595    8.1797 H   0  0  0  0  0  0  0  0  0  0  0  0
   47.9342    0.2913    6.7192 H   0  0  0  0  0  0  0  0  0  0  0  0
   48.8156    2.4419    5.8536 H   0  0  0  0  0  0  0  0  0  0  0  0
   45.1171    4.8764    8.8650 H   0  0  0  0  0  0  0  0  0  0  0  0
   45.2547    0.5875    9.1749 H   0  0  0  0  0  0  0  0  0  0  0  0
   46.6695    4.7907    6.9415 H   0  0  0  0  0  0  0  0  0  0  0  0
   46.7988    0.4906    7.2632 H   0  0  0  0  0  0  0  0  0  0  0  0
   44.0552    1.9495   10.5247 H   0  0  0  0  0  0  0  0  0  0  0  0
   48.4561    1.7140    5.8654 H   0  0  0  0  0  0  0  0  0  0  0  0
   47.1959    2.4856    4.8711 H   0  0  0  0  0  0  0  0  0  0  0  0
   48.4032    3.4713    5.7330 H   0  0  0  0  0  0  0  0  0  0  0  0
  2  1  2  0
  3  1  1  0
  4  2  1  0
  5  7  1  0
  6  2  1  0
  7  3  2  0
  8  3  1  0
  6  5  2  0
 10  9  2  0
 11  9  1  0
 12 10  1  0
 13  9  1  0
 14 10  1  0
 15 14  2  0
 16 13  2  0
 16 15  1  0
 18 21  2  0
 19 17  2  0
 20 17  1  0
 21 19  1  0
 22 20  2  0
 23 17  1  0
 24 18  1  0
 22 18  1  0
  1 25  1  0
  4 26  1  0
  5 27  1  0
  6 28  1  0
  7 29  1  0
  8 30  1  0
  8 31  1  0
  8 32  1  0
 11 33  1  0
 12 34  1  0
 12 35  1  0
 12 36  1  0
 13 37  1  0
 14 38  1  0
 15 39  1  0
 16 40  1  0
 19 41  1  0
 20 42  1  0
 21 43  1  0
 22 44  1  0
 23 45  1  0
 24 46  1  0
 24 47  1  0
 24 48  1  0
M  END
> <Uni-Dock RESULT> 
ENERGY=  -14.013  LOWER_BOUND=    1.501  UPPER_BOUND=    3.670
INTER + INTRA:         -14.013
INTER:                 -14.013
INTRA:                   0.000
UNBOUND:                 0.000

$$$$

     RDKit          3D

 48 48  0  0  0  0  0  0  0  0999 V2000
   46.3584    1.5742    7.7233 C   0  0  0  0  0  0  0  0  0  0  0  0
   47.2838    1.9143    6.7389 C   0  0  0  0  0  0  0  0  0  0  0  0
   45.6241    2.5798    8.3668 C   0  0  0  0  0  0  0  0  0  0  0  0
   48.0201    0.9619    6.0975 O   0  0  0  0  0  0  0  0  0  0  0  0
   46.7478    4.2441    7.0003 C   0  0  0  0  0  0  0  0  0  0  0  0
   47.4847    3.2401    6.3752 C   0  0  0  0  0  0  0  0  0  0  0  0
   45.8174    3.9156    7.9884 C   0  0  0  0  0  0  0  0  0  0  0  0
   44.5998    2.2272    9.4045 C   0  0  0  0  0  0  0  0  0  0  0  0
   46.2206    3.5288    7.4698 C   0  0  0  0  0  0  0  0  0  0  0  0
   46.7813    2.2486    7.4154 C   0  0  0  0  0  0  0  0  0  0  0  0
   46.8122    4.5339    6.7570 O   0  0  0  0  0  0  0  0  0  0  0  0
   48.0071    1.9781    6.5929 C   0  0  0  0  0  0  0  0  0  0  0  0
   45.0815    3.7852    8.2326 C   0  0  0  0  0  0  0  0  0  0  0  0
   46.1744    1.2183    8.1464 C   0  0  0  0  0  0  0  0  0  0  0  0
   45.0337    1.4685    8.9120 C   0  0  0  0  0  0  0  0  0  0  0  0
   44.4880    2.7505    8.9550 C   0  0  0  0  0  0  0  0  0  0  0  0
   47.3662    2.2546    6.3812 C   0  0  0  0  0  0  0  0  0  0  0  0
   45.5653    2.8168    8.4405 C   0  0  0  0  0  0  0  0  0  0  0  0
   46.9185    3.5565    6.5670 C   0  0  0  0  0  0  0  0  0  0  0  0
   46.9352    1.2278    7.2145 C   0  0  0  0  0  0  0  0  0  0  0  0
   46.0226    3.8395    7.5992 C   0  0  0  0  0  0  0  0  0  0  0  0
   46.0384    1.5119    8.2474 C   0  0  0  0  0  0  0  0  0  0  0  0
   48.2411    2.0224    5.3613 O   0  0  0  0  0  0  0  0  0  0  0  0
   44.6289    3.1262    9.5709 C   0  0  0  0  0  0  0  0  0  0  0  0
   46.2007    0.5354    7.9975 H   0  0  0  0  0  0  0  0  0  0  0  0
   47.7761    0.0927    6.4545 H   0  0  0  0  0  0  0  0  0  0  0  0
   46.8961    5.2823    6.7157 H   0  0  0  0  0  0  0  0  0  0  0  0
   48.2091    3.4893    5.6055 H   0  0  0  0  0  0  0  0  0  0  0  0
   45.2442    4.7093    8.4624 H   0  0  0  0  0  0  0  0  0  0  0  0
   43.6302    2.0519    8.9286 H   0  0  0  0  0  0  0  0  0  0  0  0
   44.4936    3.0329   10.1385 H   0  0  0  0  0  0  0  0  0  0  0  0
   44.8937    1.3259    9.9528 H   0  0  0  0  0  0  0  0  0  0  0  0
   46.3085    5.3515    6.8985 H   0  0  0  0  0  0  0  0  0  0  0  0
   48.8431    2.5911    6.9452 H   0  0  0  0  0  0  0  0  0  0  0  0
   47.8130    2.1998    5.5385 H   0  0  0  0  0  0  0  0  0  0  0  0
   48.3127    0.9287    6.6611 H   0  0  0  0  0  0  0  0  0  0  0  0
   44.6452    4.7780    8.2759 H   0  0  0  0  0  0  0  0  0  0  0  0
   46.5872    0.2124    8.1238 H   0  0  0  0  0  0  0  0  0  0  0  0
   44.5715    0.6615    9.4749 H   0  0  0  0  0  0  0  0  0  0  0  0
   43.6002    2.9423    9.5517 H   0  0  0  0  0  0  0  0  0  0  0  0
   47.2676    4.3499    5.9126 H   0  0  0  0  0  0  0  0  0  0  0  0
   47.2843    0.2091    7.0804 H   0  0  0  0  0  0  0  0  0  0  0  0
   45.6837    4.8629    7.7416 H   0  0  0  0  0  0  0  0  0  0  0  0
   45.7092    0.7080    8.9021 H   0  0  0  0  0  0  0  0  0  0  0  0
   48.4608    1.0767    5.3544 H   0  0  0  0  0  0  0  0  0  0  0  0
   43.9848    2.2683    9.7904 H   0  0  0  0  0  0  0  0  0  0  0  0
   45.1989    3.3803   10.4699 H   0  0  0  0  0  0  0  0  0  0  0  0
   43.9744    3.9666    9.3170 H   0  0  0  0  0  0  0  0  0  0  0  0
  2  1  2  0
  3  1  1  0
  4  2  1  0
  5  7  1  0
  6  2  1  0
  7  3  2  0
  8  3  1  0
  6  5  2  0
 10  9  2  0
 11  9  1  0
 12 10  1  0
 13  9  1  0
 14 10  1  0
 15 14  2  0
 16 13  2  0
 16 15  1  0
 18 21  2  0
 19 17  2  0
 20 17  1  0
 21 19  1  0
 22 20  2  0
 23 17  1  0
 24 18  1  0
 22 18  1  0
  1 25  1  0
  4 26  1  0
  5 27  1  0
  6 28  1  0
  7 29  1  0
  8 30  1  0
  8 31  1  0
  8 32  1  0
 11 33  1  0
 12 34  1  0
 12 35  1  0
 12 36  1  0
 13 37  1  0
 14 38  1  0
 15 39  1  0
 16 40  1  0
 19 41  1  0
 20 42  1  0
 21 43  1  0
 22 44  1  0
 23 45  1  0
 24 46  1  0
 24 47  1  0
 24 48  1  0
M  END
> <Uni-Dock RESULT> 
ENERGY=  -13.593  LOWER_BOUND=    0.714  UPPER_BOUND=    2.085
INTER + INTRA:         -13.593
INTER:                 -13.593
INTRA:                   0.000
UNBOUND:                 0.000

$$$$
