
     RDKit          3D

 48 48  0  0  0  0  0  0  0  0999 V2000
   45.7708    1.7278    8.1637 C   0  0  0  0  0  0  0  0  0  0  0  0
   46.7455    1.2430    7.2940 C   0  0  0  0  0  0  0  0  0  0  0  0
   45.5878    3.1102    8.3042 C   0  0  0  0  0  0  0  0  0  0  0  0
   46.9551   -0.0959    7.1383 O   0  0  0  0  0  0  0  0  0  0  0  0
   47.3501    3.4870    6.6756 C   0  0  0  0  0  0  0  0  0  0  0  0
   47.5363    2.1116    6.5523 C   0  0  0  0  0  0  0  0  0  0  0  0
   46.3764    3.9848    7.5441 C   0  0  0  0  0  0  0  0  0  0  0  0
   44.5198    3.6472    9.2107 C   0  0  0  0  0  0  0  0  0  0  0  0
   45.8575    1.6518    8.1629 C   0  0  0  0  0  0  0  0  0  0  0  0
   46.5375    2.5779    7.3622 C   0  0  0  0  0  0  0  0  0  0  0  0
   46.0493    0.3026    8.0637 O   0  0  0  0  0  0  0  0  0  0  0  0
   47.5379    2.1621    6.3240 C   0  0  0  0  0  0  0  0  0  0  0  0
   44.9332    2.0693    9.1192 C   0  0  0  0  0  0  0  0  0  0  0  0
   46.2638    3.9425    7.5477 C   0  0  0  0  0  0  0  0  0  0  0  0
   45.3380    4.3638    8.5054 C   0  0  0  0  0  0  0  0  0  0  0  0
   44.6724    3.4269    9.2915 C   0  0  0  0  0  0  0  0  0  0  0  0
   44.7251    3.4838    8.6615 C   0  0  0  0  0  0  0  0  0  0  0  0
   46.8381    2.2308    7.3330 C   0  0  0  0  0  0  0  0  0  0  0  0
   45.3757    2.4128    9.2651 C   0  0  0  0  0  0  0  0  0  0  0  0
   45.1082    3.9309    7.4032 C   0  0  0  0  0  0  0  0  0  0  0  0
   46.4289    1.7839    8.5967 C   0  0  0  0  0  0  0  0  0  0  0  0
   46.1606    3.3019    6.7361 C   0  0  0  0  0  0  0  0  0  0  0  0
   43.6920    4.1263    9.2774 O   0  0  0  0  0  0  0  0  0  0  0  0
   47.9469    1.5328    6.6023 C   0  0  0  0  0  0  0  0  0  0  0  0
   45.1509    1.0434    8.7349 H   0  0  0  0  0  0  0  0  0  0  0  0
   46.3375   -0.5728    7.7158 H   0  0  0  0  0  0  0  0  0  0  0  0
   47.9614    4.1711    6.0933 H   0  0  0  0  0  0  0  0  0  0  0  0
   48.2913    1.7184    5.8779 H   0  0  0  0  0  0  0  0  0  0  0  0
   46.2373    5.0607    7.6245 H   0  0  0  0  0  0  0  0  0  0  0  0
   44.8010    4.6283    9.6076 H   0  0  0  0  0  0  0  0  0  0  0  0
   44.3647    2.9831   10.0675 H   0  0  0  0  0  0  0  0  0  0  0  0
   43.5777    3.7439    8.6624 H   0  0  0  0  0  0  0  0  0  0  0  0
   46.7065    0.1231    7.3745 H   0  0  0  0  0  0  0  0  0  0  0  0
   48.3660    1.6199    6.7917 H   0  0  0  0  0  0  0  0  0  0  0  0
   47.0615    1.5240    5.5730 H   0  0  0  0  0  0  0  0  0  0  0  0
   47.9622    3.0263    5.8019 H   0  0  0  0  0  0  0  0  0  0  0  0
   44.4170    1.3336    9.7298 H   0  0  0  0  0  0  0  0  0  0  0  0
   46.7717    4.6926    6.9450 H   0  0  0  0  0  0  0  0  0  0  0  0
   45.1371    5.4240    8.6369 H   0  0  0  0  0  0  0  0  0  0  0  0
   43.9519    3.7513   10.0372 H   0  0  0  0  0  0  0  0  0  0  0  0
   45.0792    2.0531   10.2449 H   0  0  0  0  0  0  0  0  0  0  0  0
   44.5876    4.7645    6.9410 H   0  0  0  0  0  0  0  0  0  0  0  0
   46.9307    0.9418    9.0681 H   0  0  0  0  0  0  0  0  0  0  0  0
   46.4482    3.6541    5.7484 H   0  0  0  0  0  0  0  0  0  0  0  0
   43.5412    3.7083   10.1406 H   0  0  0  0  0  0  0  0  0  0  0  0
   47.5402    0.7176    5.9960 H   0  0  0  0  0  0  0  0  0  0  0  0
   48.6789    1.1207    7.3049 H   0  0  0  0  0  0  0  0  0  0  0  0
   48.4819    2.2287    5.9475 H   0  0  0  0  0  0  0  0  0  0  0  0
  2  1  2  0
  3  1  1  0
  4  2  1  0
  5  7  1  0
  6  2  1  0
  7  3  2  0
  8  3  1  0
  6  5  2  0
 10  9  2  0
 11  9  1  0
 12 10  1  0
 13  9  1  0
 14 10  1  0
 15 14  2  0
 16 13  2  0
 16 15  1  0
 18 21  2  0
 19 17  2  0
 20 17  1  0
 21 19  1  0
 22 20  2  0
 23 17  1  0
 24 18  1  0
 22 18  1  0
  1 25  1  0
  4 26  1  0
  5 27  1  0
  6 28  1  0
  7 29  1  0
  8 30  1  0
  8 31  1  0
  8 32  1  0
 11 33  1  0
 12 34  1  0
 12 35  1  0
 12 36  1  0
 13 37  1  0
 14 38  1  0
 15 39  1  0
 16 40  1  0
 19 41  1  0
 20 42  1  0
 21 43  1  0
 22 44  1  0
 23 45  1  0
 24 46  1  0
 24 47  1  0
 24 48  1  0
M  END
> <Uni-Dock RESULT> 
ENERGY=  -12.218  LOWER_BOUND=    0.000  UPPER_BOUND=    0.000
INTER + INTRA:         -12.218
INTER:                 -12.218
INTRA:                   0.000
UNBOUND:                 0.000

$$$$

     RDKit          3D

 48 48  0  0  0  0  0  0  0  0999 V2000
   46.0168    3.4875    7.2563 C   0  0  0  0  0  0  0  0  0  0  0  0
   45.0909    3.2763    8.2758 C   0  0  0  0  0  0  0  0  0  0  0  0
   46.9520    2.4906    6.9469 C   0  0  0  0  0  0  0  0  0  0  0  0
   44.1714    4.2276    8.6078 O   0  0  0  0  0  0  0  0  0  0  0  0
   45.9899    1.0820    8.6761 C   0  0  0  0  0  0  0  0  0  0  0  0
   45.0727    2.0836    8.9879 C   0  0  0  0  0  0  0  0  0  0  0  0
   46.9227    1.2821    7.6563 C   0  0  0  0  0  0  0  0  0  0  0  0
   47.9331    2.6893    5.8295 C   0  0  0  0  0  0  0  0  0  0  0  0
   45.9754    3.5412    7.3496 C   0  0  0  0  0  0  0  0  0  0  0  0
   45.9385    2.2748    7.9463 C   0  0  0  0  0  0  0  0  0  0  0  0
   45.0936    4.5363    7.6644 O   0  0  0  0  0  0  0  0  0  0  0  0
   44.9218    1.9049    8.9862 C   0  0  0  0  0  0  0  0  0  0  0  0
   46.9326    3.8548    6.3859 C   0  0  0  0  0  0  0  0  0  0  0  0
   46.8933    1.3256    7.5481 C   0  0  0  0  0  0  0  0  0  0  0  0
   47.8538    1.6371    6.5825 C   0  0  0  0  0  0  0  0  0  0  0  0
   47.8735    2.9022    6.0012 C   0  0  0  0  0  0  0  0  0  0  0  0
   47.4101    2.4714    6.0518 C   0  0  0  0  0  0  0  0  0  0  0  0
   45.7237    2.5112    8.2776 C   0  0  0  0  0  0  0  0  0  0  0  0
   47.2823    3.6405    6.7943 C   0  0  0  0  0  0  0  0  0  0  0  0
   46.7025    1.3274    6.3992 C   0  0  0  0  0  0  0  0  0  0  0  0
   46.4341    3.6601    7.9042 C   0  0  0  0  0  0  0  0  0  0  0  0
   45.8553    1.3478    7.5082 C   0  0  0  0  0  0  0  0  0  0  0  0
   48.2260    2.4078    4.9610 O   0  0  0  0  0  0  0  0  0  0  0  0
   44.7876    2.5438    9.4495 C   0  0  0  0  0  0  0  0  0  0  0  0
   46.0207    4.4191    6.6985 H   0  0  0  0  0  0  0  0  0  0  0  0
   44.3057    4.9985    8.0332 H   0  0  0  0  0  0  0  0  0  0  0  0
   45.9764    0.1445    9.2255 H   0  0  0  0  0  0  0  0  0  0  0  0
   44.3443    1.9334    9.7793 H   0  0  0  0  0  0  0  0  0  0  0  0
   47.6279    0.4884    7.4191 H   0  0  0  0  0  0  0  0  0  0  0  0
   48.8578    2.1335    6.0177 H   0  0  0  0  0  0  0  0  0  0  0  0
   48.2041    3.7457    5.7311 H   0  0  0  0  0  0  0  0  0  0  0  0
   47.4993    2.3455    4.8855 H   0  0  0  0  0  0  0  0  0  0  0  0
   44.4766    4.2147    8.3389 H   0  0  0  0  0  0  0  0  0  0  0  0
   45.0158    2.5607    9.8578 H   0  0  0  0  0  0  0  0  0  0  0  0
   43.9111    1.9879    8.5741 H   0  0  0  0  0  0  0  0  0  0  0  0
   45.0538    0.8743    9.3324 H   0  0  0  0  0  0  0  0  0  0  0  0
   46.9430    4.8437    5.9358 H   0  0  0  0  0  0  0  0  0  0  0  0
   46.8973    0.3307    7.9885 H   0  0  0  0  0  0  0  0  0  0  0  0
   48.5864    0.8912    6.2849 H   0  0  0  0  0  0  0  0  0  0  0  0
   48.6191    3.1477    5.2500 H   0  0  0  0  0  0  0  0  0  0  0  0
   47.8264    4.5403    6.5267 H   0  0  0  0  0  0  0  0  0  0  0  0
   46.8072    0.4230    5.8070 H   0  0  0  0  0  0  0  0  0  0  0  0
   46.3305    4.5781    8.4783 H   0  0  0  0  0  0  0  0  0  0  0  0
   45.2998    0.4498    7.7678 H   0  0  0  0  0  0  0  0  0  0  0  0
   48.6509    3.2729    4.8445 H   0  0  0  0  0  0  0  0  0  0  0  0
   43.7892    2.8499    9.1222 H   0  0  0  0  0  0  0  0  0  0  0  0
   45.1411    3.2455   10.2122 H   0  0  0  0  0  0  0  0  0  0  0  0
   44.7190    1.5583    9.9221 H   0  0  0  0  0  0  0  0  0  0  0  0
  2  1  2  0
  3  1  1  0
  4  2  1  0
  5  7  1  0
  6  2  1  0
  7  3  2  0
  8  3  1  0
  6  5  2  0
 10  9  2  0
 11  9  1  0
 12 10  1  0
 13  9  1  0
 14 10  1  0
 15 14  2  0
 16 13  2  0
 16 15  1  0
 18 21  2  0
 19 17  2  0
 20 17  1  0
 21 19  1  0
 22 20  2  0
 23 17  1  0
 24 18  1  0
 22 18  1  0
  1 25  1  0
  4 26  1  0
  5 27  1  0
  6 28  1  0
  7 29  1  0
  8 30  1  0
  8 31  1  0
  8 32  1  0
 11 33  1  0
 12 34  1  0
 12 35  1  0
 12 36  1  0
 13 37  1  0
 14 38  1  0
 15 39  1  0
 16 40  1  0
 19 41  1  0
 20 42  1  0
 21 43  1  0
 22 44  1  0
 23 45  1  0
 24 46  1  0
 24 47  1  0
 24 48  1  0
M  END
> <Uni-Dock RESULT> 
ENERGY=  -11.314  LOWER_BOUND=    1.306  UPPER_BOUND=    3.577
INTER + INTRA:         -11.314
INTER:                 -11.314
INTRA:                   0.000
UNBOUND:                 0.000

$$$$

     RDKit          3D

 48 48  0  0  0  0  0  0  0  0999 V2000
   43.9779    2.9554   10.7645 C   0  0  0  0  0  0  0  0  0  0  0  0
   44.4959    2.7741    9.4838 C   0  0  0  0  0  0  0  0  0  0  0  0
   44.0435    4.2174   11.3704 C   0  0  0  0  0  0  0  0  0  0  0  0
   44.4551    1.5579    8.8673 O   0  0  0  0  0  0  0  0  0  0  0  0
   45.1259    5.0926    9.3798 C   0  0  0  0  0  0  0  0  0  0  0  0
   45.0704    3.8315    8.7897 C   0  0  0  0  0  0  0  0  0  0  0  0
   44.6101    5.2866   10.6629 C   0  0  0  0  0  0  0  0  0  0  0  0
   43.4598    4.4367   12.7349 C   0  0  0  0  0  0  0  0  0  0  0  0
   44.0475    2.8831   10.7076 C   0  0  0  0  0  0  0  0  0  0  0  0
   44.5059    4.0150   10.0221 C   0  0  0  0  0  0  0  0  0  0  0  0
   44.0094    1.6389   10.1443 O   0  0  0  0  0  0  0  0  0  0  0  0
   44.9956    3.9538    8.6050 C   0  0  0  0  0  0  0  0  0  0  0  0
   43.5986    2.9722   12.0243 C   0  0  0  0  0  0  0  0  0  0  0  0
   44.5019    5.2462   10.6970 C   0  0  0  0  0  0  0  0  0  0  0  0
   44.0526    5.3385   12.0167 C   0  0  0  0  0  0  0  0  0  0  0  0
   43.6008    4.2010   12.6806 C   0  0  0  0  0  0  0  0  0  0  0  0
   43.4277    4.4600   12.1275 C   0  0  0  0  0  0  0  0  0  0  0  0
   44.7265    3.6943    9.7766 C   0  0  0  0  0  0  0  0  0  0  0  0
   44.1051    3.2461   12.0827 C   0  0  0  0  0  0  0  0  0  0  0  0
   43.3824    5.2906   11.0148 C   0  0  0  0  0  0  0  0  0  0  0  0
   44.7496    2.8623   10.9042 C   0  0  0  0  0  0  0  0  0  0  0  0
   44.0266    4.9064    9.8378 C   0  0  0  0  0  0  0  0  0  0  0  0
   42.7844    4.8737   13.2565 O   0  0  0  0  0  0  0  0  0  0  0  0
   45.3904    3.2652    8.5017 C   0  0  0  0  0  0  0  0  0  0  0  0
   43.5235    2.1264   11.2986 H   0  0  0  0  0  0  0  0  0  0  0  0
   44.0325    0.9230    9.4679 H   0  0  0  0  0  0  0  0  0  0  0  0
   45.5684    5.9250    8.8392 H   0  0  0  0  0  0  0  0  0  0  0  0
   45.4690    3.6747    7.7918 H   0  0  0  0  0  0  0  0  0  0  0  0
   44.6537    6.2783   11.1079 H   0  0  0  0  0  0  0  0  0  0  0  0
   43.9936    5.2325   13.2651 H   0  0  0  0  0  0  0  0  0  0  0  0
   43.5404    3.5305   13.3443 H   0  0  0  0  0  0  0  0  0  0  0  0
   42.4046    4.7138   12.6501 H   0  0  0  0  0  0  0  0  0  0  0  0
   44.3408    1.6896    9.2350 H   0  0  0  0  0  0  0  0  0  0  0  0
   45.8573    3.2827    8.5307 H   0  0  0  0  0  0  0  0  0  0  0  0
   44.1985    3.5991    7.9438 H   0  0  0  0  0  0  0  0  0  0  0  0
   45.3113    4.9381    8.2431 H   0  0  0  0  0  0  0  0  0  0  0  0
   43.2471    2.0812   12.5372 H   0  0  0  0  0  0  0  0  0  0  0  0
   44.8504    6.1483   10.1984 H   0  0  0  0  0  0  0  0  0  0  0  0
   44.0558    6.2990   12.5255 H   0  0  0  0  0  0  0  0  0  0  0  0
   43.2507    4.2693   13.7068 H   0  0  0  0  0  0  0  0  0  0  0  0
   44.1405    2.5884   12.9450 H   0  0  0  0  0  0  0  0  0  0  0  0
   42.8448    6.2332   11.0618 H   0  0  0  0  0  0  0  0  0  0  0  0
   45.2722    1.9089   10.8700 H   0  0  0  0  0  0  0  0  0  0  0  0
   43.9792    5.5597    8.9698 H   0  0  0  0  0  0  0  0  0  0  0  0
   42.9040    4.1979   13.9432 H   0  0  0  0  0  0  0  0  0  0  0  0
   44.6868    2.6955    7.8870 H   0  0  0  0  0  0  0  0  0  0  0  0
   46.2663    2.6411    8.7084 H   0  0  0  0  0  0  0  0  0  0  0  0
   45.7377    4.1329    7.9309 H   0  0  0  0  0  0  0  0  0  0  0  0
  2  1  2  0
  3  1  1  0
  4  2  1  0
  5  7  1  0
  6  2  1  0
  7  3  2  0
  8  3  1  0
  6  5  2  0
 10  9  2  0
 11  9  1  0
 12 10  1  0
 13  9  1  0
 14 10  1  0
 15 14  2  0
 16 13  2  0
 16 15  1  0
 18 21  2  0
 19 17  2  0
 20 17  1  0
 21 19  1  0
 22 20  2  0
 23 17  1  0
 24 18  1  0
 22 18  1  0
  1 25  1  0
  4 26  1  0
  5 27  1  0
  6 28  1  0
  7 29  1  0
  8 30  1  0
  8 31  1  0
  8 32  1  0
 11 33  1  0
 12 34  1  0
 12 35  1  0
 12 36  1  0
 13 37  1  0
 14 38  1  0
 15 39  1  0
 16 40  1  0
 19 41  1  0
 20 42  1  0
 21 43  1  0
 22 44  1  0
 23 45  1  0
 24 46  1  0
 24 47  1  0
 24 48  1  0
M  END
> <Uni-Dock RESULT> 
ENERGY=   -9.736  LOWER_BOUND=    2.336  UPPER_BOUND=    3.661
INTER + INTRA:          -9.736
INTER:                  -9.736
INTRA:                   0.000
UNBOUND:                 0.000

$$$$

     RDKit          3D

 48 48  0  0  0  0  0  0  0  0999 V2000
   44.5396    4.8892   10.2945 C   0  0  0  0  0  0  0  0  0  0  0  0
   45.0616    4.0418    9.3194 C   0  0  0  0  0  0  0  0  0  0  0  0
   43.7637    4.3600   11.3347 C   0  0  0  0  0  0  0  0  0  0  0  0
   45.8148    4.5239    8.2894 O   0  0  0  0  0  0  0  0  0  0  0  0
   44.0749    2.1370   10.4066 C   0  0  0  0  0  0  0  0  0  0  0  0
   44.8329    2.6723    9.3671 C   0  0  0  0  0  0  0  0  0  0  0  0
   43.5464    2.9764   11.3896 C   0  0  0  0  0  0  0  0  0  0  0  0
   43.2233    5.2548   12.4108 C   0  0  0  0  0  0  0  0  0  0  0  0
   44.5467    4.8818   10.1796 C   0  0  0  0  0  0  0  0  0  0  0  0
   44.3750    3.5028   10.3528 C   0  0  0  0  0  0  0  0  0  0  0  0
   45.2705    5.4164    9.1514 O   0  0  0  0  0  0  0  0  0  0  0  0
   44.9749    2.4937    9.4182 C   0  0  0  0  0  0  0  0  0  0  0  0
   43.9766    5.7947   11.0654 C   0  0  0  0  0  0  0  0  0  0  0  0
   43.6111    3.0614   11.4451 C   0  0  0  0  0  0  0  0  0  0  0  0
   43.0385    3.9741   12.3345 C   0  0  0  0  0  0  0  0  0  0  0  0
   43.2212    5.3413   12.1446 C   0  0  0  0  0  0  0  0  0  0  0  0
   43.6385    4.8656   12.1950 C   0  0  0  0  0  0  0  0  0  0  0  0
   44.4644    3.5029    9.9014 C   0  0  0  0  0  0  0  0  0  0  0  0
   43.5080    5.4746   10.9514 C   0  0  0  0  0  0  0  0  0  0  0  0
   44.1826    3.5925   12.3099 C   0  0  0  0  0  0  0  0  0  0  0  0
   43.9266    4.7935    9.8058 C   0  0  0  0  0  0  0  0  0  0  0  0
   44.6005    2.9127   11.1647 C   0  0  0  0  0  0  0  0  0  0  0  0
   43.2437    5.4940   13.3390 O   0  0  0  0  0  0  0  0  0  0  0  0
   44.9445    2.7866    8.6738 C   0  0  0  0  0  0  0  0  0  0  0  0
   44.7283    5.9578   10.2555 H   0  0  0  0  0  0  0  0  0  0  0  0
   45.8863    5.4873    8.3857 H   0  0  0  0  0  0  0  0  0  0  0  0
   43.8980    1.0659   10.4526 H   0  0  0  0  0  0  0  0  0  0  0  0
   45.2472    2.0245    8.6002 H   0  0  0  0  0  0  0  0  0  0  0  0
   42.9628    2.5435   12.1991 H   0  0  0  0  0  0  0  0  0  0  0  0
   42.2886    4.8554   12.8185 H   0  0  0  0  0  0  0  0  0  0  0  0
   43.0045    6.2524   12.0157 H   0  0  0  0  0  0  0  0  0  0  0  0
   43.9523    5.3470   13.2216 H   0  0  0  0  0  0  0  0  0  0  0  0
   45.6196    4.6999    8.6001 H   0  0  0  0  0  0  0  0  0  0  0  0
   44.5907    2.6417    8.4038 H   0  0  0  0  0  0  0  0  0  0  0  0
   46.0658    2.5845    9.4123 H   0  0  0  0  0  0  0  0  0  0  0  0
   44.7304    1.4691    9.7178 H   0  0  0  0  0  0  0  0  0  0  0  0
   44.1226    6.8604   10.9121 H   0  0  0  0  0  0  0  0  0  0  0  0
   43.4548    1.9979   11.6135 H   0  0  0  0  0  0  0  0  0  0  0  0
   42.4497    3.6165   13.1753 H   0  0  0  0  0  0  0  0  0  0  0  0
   42.7772    6.0536   12.8343 H   0  0  0  0  0  0  0  0  0  0  0  0
   43.0899    6.4710   10.8530 H   0  0  0  0  0  0  0  0  0  0  0  0
   44.2841    3.1311   13.2878 H   0  0  0  0  0  0  0  0  0  0  0  0
   43.8302    5.2755    8.8354 H   0  0  0  0  0  0  0  0  0  0  0  0
   45.0321    1.9197   11.2654 H   0  0  0  0  0  0  0  0  0  0  0  0
   42.8860    6.3652   13.1031 H   0  0  0  0  0  0  0  0  0  0  0  0
   45.9953    3.0282    8.4869 H   0  0  0  0  0  0  0  0  0  0  0  0
   44.3535    3.0740    7.7978 H   0  0  0  0  0  0  0  0  0  0  0  0
   44.8455    1.7023    8.7905 H   0  0  0  0  0  0  0  0  0  0  0  0
  2  1  2  0
  3  1  1  0
  4  2  1  0
  5  7  1  0
  6  2  1  0
  7  3  2  0
  8  3  1  0
  6  5  2  0
 10  9  2  0
 11  9  1  0
 12 10  1  0
 13  9  1  0
 14 10  1  0
 15 14  2  0
 16 13  2  0
 16 15  1  0
 18 21  2  0
 19 17  2  0
 20 17  1  0
 21 19  1  0
 22 20  2  0
 23 17  1  0
 24 18  1  0
 22 18  1  0
  1 25  1  0
  4 26  1  0
  5 27  1  0
  6 28  1  0
  7 29  1  0
  8 30  1  0
  8 31  1  0
  8 32  1  0
 11 33  1  0
 12 34  1  0
 12 35  1  0
 12 36  1  0
 13 37  1  0
 14 38  1  0
 15 39  1  0
 16 40  1  0
 19 41  1  0
 20 42  1  0
 21 43  1  0
 22 44  1  0
 23 45  1  0
 24 46  1  0
 24 47  1  0
 24 48  1  0
M  END
> <Uni-Dock RESULT> 
ENERGY=   -9.356  LOWER_BOUND=    2.429  UPPER_BOUND=    4.293
INTER + INTRA:          -9.356
INTER:                  -9.356
INTRA:                   0.000
UNBOUND:                 0.000

$$$$
