
     RDKit          3D

 48 48  0  0  0  0  0  0  0  0999 V2000
   46.4136    3.6279    7.3383 C   0  0  0  0  0  0  0  0  0  0  0  0
   45.2216    3.4255    8.0270 C   0  0  0  0  0  0  0  0  0  0  0  0
   47.2411    2.5404    7.0329 C   0  0  0  0  0  0  0  0  0  0  0  0
   44.4558    4.5194    8.3056 O   0  0  0  0  0  0  0  0  0  0  0  0
   45.6394    1.0589    8.0999 C   0  0  0  0  0  0  0  0  0  0  0  0
   44.8273    2.1487    8.4135 C   0  0  0  0  0  0  0  0  0  0  0  0
   46.8377    1.2524    7.4085 C   0  0  0  0  0  0  0  0  0  0  0  0
   48.5102    2.7467    6.2612 C   0  0  0  0  0  0  0  0  0  0  0  0
   46.3391    1.5061    7.4581 C   0  0  0  0  0  0  0  0  0  0  0  0
   46.2773    2.7749    8.0476 C   0  0  0  0  0  0  0  0  0  0  0  0
   46.0775    0.3546    8.1455 O   0  0  0  0  0  0  0  0  0  0  0  0
   45.9166    2.9748    9.4904 C   0  0  0  0  0  0  0  0  0  0  0  0
   46.6772    1.3528    6.1145 C   0  0  0  0  0  0  0  0  0  0  0  0
   46.5655    3.8926    7.2482 C   0  0  0  0  0  0  0  0  0  0  0  0
   46.9047    3.7420    5.9014 C   0  0  0  0  0  0  0  0  0  0  0  0
   46.9607    2.4715    5.3342 C   0  0  0  0  0  0  0  0  0  0  0  0
   44.9894    2.6168    8.5918 C   0  0  0  0  0  0  0  0  0  0  0  0
   47.2297    2.4840    6.9295 C   0  0  0  0  0  0  0  0  0  0  0  0
   45.1491    3.5577    7.5800 C   0  0  0  0  0  0  0  0  0  0  0  0
   45.9350    1.6186    8.7903 C   0  0  0  0  0  0  0  0  0  0  0  0
   46.2731    3.4928    6.7528 C   0  0  0  0  0  0  0  0  0  0  0  0
   47.0576    1.5545    7.9634 C   0  0  0  0  0  0  0  0  0  0  0  0
   43.9083    2.6431    9.4226 O   0  0  0  0  0  0  0  0  0  0  0  0
   48.4528    2.4361    6.0622 C   0  0  0  0  0  0  0  0  0  0  0  0
   46.6929    4.6359    7.0428 H   0  0  0  0  0  0  0  0  0  0  0  0
   43.6640    4.2260    8.7848 H   0  0  0  0  0  0  0  0  0  0  0  0
   45.3391    0.0557    8.3909 H   0  0  0  0  0  0  0  0  0  0  0  0
   43.8990    1.9832    8.9502 H   0  0  0  0  0  0  0  0  0  0  0  0
   47.4564    0.3915    7.1648 H   0  0  0  0  0  0  0  0  0  0  0  0
   49.2564    1.9907    6.5274 H   0  0  0  0  0  0  0  0  0  0  0  0
   48.9474    3.7260    6.4828 H   0  0  0  0  0  0  0  0  0  0  0  0
   48.3097    2.6831    5.1873 H   0  0  0  0  0  0  0  0  0  0  0  0
   45.8549    0.5737    9.0628 H   0  0  0  0  0  0  0  0  0  0  0  0
   44.9118    2.5872    9.6869 H   0  0  0  0  0  0  0  0  0  0  0  0
   46.6379    2.4630   10.1356 H   0  0  0  0  0  0  0  0  0  0  0  0
   45.9214    4.0349    9.7655 H   0  0  0  0  0  0  0  0  0  0  0  0
   46.7193    0.3589    5.6774 H   0  0  0  0  0  0  0  0  0  0  0  0
   46.5281    4.8950    7.6697 H   0  0  0  0  0  0  0  0  0  0  0  0
   47.1251    4.6173    5.2957 H   0  0  0  0  0  0  0  0  0  0  0  0
   47.2242    2.3510    4.2872 H   0  0  0  0  0  0  0  0  0  0  0  0
   44.4187    4.3444    7.4217 H   0  0  0  0  0  0  0  0  0  0  0  0
   45.8008    0.8938    9.5879 H   0  0  0  0  0  0  0  0  0  0  0  0
   46.3988    4.2346    5.9673 H   0  0  0  0  0  0  0  0  0  0  0  0
   47.7959    0.7740    8.1313 H   0  0  0  0  0  0  0  0  0  0  0  0
   43.3403    3.3867    9.1640 H   0  0  0  0  0  0  0  0  0  0  0  0
   48.8082    1.4070    5.9445 H   0  0  0  0  0  0  0  0  0  0  0  0
   48.2362    2.8211    5.0602 H   0  0  0  0  0  0  0  0  0  0  0  0
   49.2510    3.0377    6.5077 H   0  0  0  0  0  0  0  0  0  0  0  0
  2  1  2  0
  3  1  1  0
  4  2  1  0
  5  7  1  0
  6  2  1  0
  7  3  2  0
  8  3  1  0
  6  5  2  0
 10  9  2  0
 11  9  1  0
 12 10  1  0
 13  9  1  0
 14 10  1  0
 15 14  2  0
 16 13  2  0
 16 15  1  0
 18 21  2  0
 19 17  2  0
 20 17  1  0
 21 19  1  0
 22 20  2  0
 23 17  1  0
 24 18  1  0
 22 18  1  0
  1 25  1  0
  4 26  1  0
  5 27  1  0
  6 28  1  0
  7 29  1  0
  8 30  1  0
  8 31  1  0
  8 32  1  0
 11 33  1  0
 12 34  1  0
 12 35  1  0
 12 36  1  0
 13 37  1  0
 14 38  1  0
 15 39  1  0
 16 40  1  0
 19 41  1  0
 20 42  1  0
 21 43  1  0
 22 44  1  0
 23 45  1  0
 24 46  1  0
 24 47  1  0
 24 48  1  0
M  END
> <Uni-Dock RESULT> 
ENERGY=   -7.707  LOWER_BOUND=    0.000  UPPER_BOUND=    0.000
INTER + INTRA:          -7.707
INTER:                  -7.707
INTRA:                   0.000
UNBOUND:                 0.000

$$$$

     RDKit          3D

 48 48  0  0  0  0  0  0  0  0999 V2000
   46.1261    1.7478    7.3339 C   0  0  0  0  0  0  0  0  0  0  0  0
   45.5708    2.0898    8.5630 C   0  0  0  0  0  0  0  0  0  0  0  0
   46.7179    2.7320    6.5328 C   0  0  0  0  0  0  0  0  0  0  0  0
   45.0007    1.0944    9.3011 O   0  0  0  0  0  0  0  0  0  0  0  0
   46.2021    4.3863    8.2345 C   0  0  0  0  0  0  0  0  0  0  0  0
   45.6013    3.4031    9.0205 C   0  0  0  0  0  0  0  0  0  0  0  0
   46.7625    4.0523    6.9992 C   0  0  0  0  0  0  0  0  0  0  0  0
   47.3485    2.3651    5.2226 C   0  0  0  0  0  0  0  0  0  0  0  0
   46.6553    3.8015    7.4902 C   0  0  0  0  0  0  0  0  0  0  0  0
   45.7125    2.7667    7.5335 C   0  0  0  0  0  0  0  0  0  0  0  0
   46.3567    5.0922    7.8246 O   0  0  0  0  0  0  0  0  0  0  0  0
   44.2896    2.9921    7.9533 C   0  0  0  0  0  0  0  0  0  0  0  0
   47.9704    3.5604    7.0959 C   0  0  0  0  0  0  0  0  0  0  0  0
   46.1270    1.4759    7.1685 C   0  0  0  0  0  0  0  0  0  0  0  0
   47.4444    1.2314    6.7729 C   0  0  0  0  0  0  0  0  0  0  0  0
   48.3665    2.2741    6.7365 C   0  0  0  0  0  0  0  0  0  0  0  0
   45.2847    3.0186    8.8501 C   0  0  0  0  0  0  0  0  0  0  0  0
   46.8339    2.7542    6.5414 C   0  0  0  0  0  0  0  0  0  0  0  0
   45.9592    1.8262    8.6099 C   0  0  0  0  0  0  0  0  0  0  0  0
   45.3655    4.0748    7.9513 C   0  0  0  0  0  0  0  0  0  0  0  0
   46.7295    1.6939    7.4519 C   0  0  0  0  0  0  0  0  0  0  0  0
   46.1352    3.9417    6.7946 C   0  0  0  0  0  0  0  0  0  0  0  0
   44.5213    3.1908    9.9669 O   0  0  0  0  0  0  0  0  0  0  0  0
   47.6338    2.5985    5.2820 C   0  0  0  0  0  0  0  0  0  0  0  0
   46.0940    0.7123    7.0051 H   0  0  0  0  0  0  0  0  0  0  0  0
   44.6591    1.4795   10.1242 H   0  0  0  0  0  0  0  0  0  0  0  0
   46.2379    5.4150    8.5839 H   0  0  0  0  0  0  0  0  0  0  0  0
   45.1709    3.6771    9.9780 H   0  0  0  0  0  0  0  0  0  0  0  0
   47.2340    4.8292    6.4013 H   0  0  0  0  0  0  0  0  0  0  0  0
   47.2983    3.2013    4.5173 H   0  0  0  0  0  0  0  0  0  0  0  0
   46.8272    1.5199    4.7612 H   0  0  0  0  0  0  0  0  0  0  0  0
   48.3976    2.0936    5.3754 H   0  0  0  0  0  0  0  0  0  0  0  0
   45.4241    5.1481    8.0815 H   0  0  0  0  0  0  0  0  0  0  0  0
   44.2529    3.3718    8.9794 H   0  0  0  0  0  0  0  0  0  0  0  0
   43.8054    3.7082    7.2815 H   0  0  0  0  0  0  0  0  0  0  0  0
   43.7072    2.0650    7.9231 H   0  0  0  0  0  0  0  0  0  0  0  0
   48.6855    4.3781    7.0694 H   0  0  0  0  0  0  0  0  0  0  0  0
   45.4240    0.6457    7.1893 H   0  0  0  0  0  0  0  0  0  0  0  0
   47.7497    0.2264    6.4933 H   0  0  0  0  0  0  0  0  0  0  0  0
   49.3917    2.0873    6.4293 H   0  0  0  0  0  0  0  0  0  0  0  0
   45.8969    0.9939    9.3033 H   0  0  0  0  0  0  0  0  0  0  0  0
   44.8289    4.9982    8.1483 H   0  0  0  0  0  0  0  0  0  0  0  0
   47.2496    0.7575    7.2632 H   0  0  0  0  0  0  0  0  0  0  0  0
   46.1863    4.7714    6.0934 H   0  0  0  0  0  0  0  0  0  0  0  0
   44.5620    2.3773   10.4951 H   0  0  0  0  0  0  0  0  0  0  0  0
   48.0449    3.5606    4.9588 H   0  0  0  0  0  0  0  0  0  0  0  0
   48.4795    1.9204    5.4379 H   0  0  0  0  0  0  0  0  0  0  0  0
   47.0011    2.1977    4.4841 H   0  0  0  0  0  0  0  0  0  0  0  0
  2  1  2  0
  3  1  1  0
  4  2  1  0
  5  7  1  0
  6  2  1  0
  7  3  2  0
  8  3  1  0
  6  5  2  0
 10  9  2  0
 11  9  1  0
 12 10  1  0
 13  9  1  0
 14 10  1  0
 15 14  2  0
 16 13  2  0
 16 15  1  0
 18 21  2  0
 19 17  2  0
 20 17  1  0
 21 19  1  0
 22 20  2  0
 23 17  1  0
 24 18  1  0
 22 18  1  0
  1 25  1  0
  4 26  1  0
  5 27  1  0
  6 28  1  0
  7 29  1  0
  8 30  1  0
  8 31  1  0
  8 32  1  0
 11 33  1  0
 12 34  1  0
 12 35  1  0
 12 36  1  0
 13 37  1  0
 14 38  1  0
 15 39  1  0
 16 40  1  0
 19 41  1  0
 20 42  1  0
 21 43  1  0
 22 44  1  0
 23 45  1  0
 24 46  1  0
 24 47  1  0
 24 48  1  0
M  END
> <Uni-Dock RESULT> 
ENERGY=   -7.087  LOWER_BOUND=    0.868  UPPER_BOUND=    2.318
INTER + INTRA:          -7.087
INTER:                  -7.087
INTRA:                   0.000
UNBOUND:                 0.000

$$$$

     RDKit          3D

 48 48  0  0  0  0  0  0  0  0999 V2000
   44.5509    5.4161   10.5682 C   0  0  0  0  0  0  0  0  0  0  0  0
   45.3213    4.7848    9.5966 C   0  0  0  0  0  0  0  0  0  0  0  0
   43.7892    4.6554   11.4636 C   0  0  0  0  0  0  0  0  0  0  0  0
   46.0392    5.5722    8.7450 O   0  0  0  0  0  0  0  0  0  0  0  0
   44.6124    2.6327   10.4007 C   0  0  0  0  0  0  0  0  0  0  0  0
   45.3572    3.3973    9.5029 C   0  0  0  0  0  0  0  0  0  0  0  0
   43.8362    3.2578   11.3797 C   0  0  0  0  0  0  0  0  0  0  0  0
   42.9834    5.3277   12.5348 C   0  0  0  0  0  0  0  0  0  0  0  0
   44.2991    3.3678   11.0811 C   0  0  0  0  0  0  0  0  0  0  0  0
   44.2759    4.4158   10.1524 C   0  0  0  0  0  0  0  0  0  0  0  0
   44.1080    2.0610   10.7307 O   0  0  0  0  0  0  0  0  0  0  0  0
   44.0381    4.1880    8.6883 C   0  0  0  0  0  0  0  0  0  0  0  0
   44.5225    3.6114   12.4353 C   0  0  0  0  0  0  0  0  0  0  0  0
   44.4842    5.7226   10.6214 C   0  0  0  0  0  0  0  0  0  0  0  0
   44.7084    5.9698   11.9781 C   0  0  0  0  0  0  0  0  0  0  0  0
   44.7275    4.9137   12.8854 C   0  0  0  0  0  0  0  0  0  0  0  0
   45.1975    3.8367    9.2607 C   0  0  0  0  0  0  0  0  0  0  0  0
   43.8345    4.6232   11.5681 C   0  0  0  0  0  0  0  0  0  0  0  0
   45.5863    4.9949    9.9255 C   0  0  0  0  0  0  0  0  0  0  0  0
   44.1346    3.0726    9.7258 C   0  0  0  0  0  0  0  0  0  0  0  0
   44.8999    5.3897   11.0765 C   0  0  0  0  0  0  0  0  0  0  0  0
   43.4494    3.4677   10.8758 C   0  0  0  0  0  0  0  0  0  0  0  0
   45.8388    3.4149    8.1336 O   0  0  0  0  0  0  0  0  0  0  0  0
   43.0770    5.0666   12.7846 C   0  0  0  0  0  0  0  0  0  0  0  0
   44.5476    6.5016   10.6223 H   0  0  0  0  0  0  0  0  0  0  0  0
   46.5218    4.9979    8.1287 H   0  0  0  0  0  0  0  0  0  0  0  0
   44.6371    1.5477   10.3417 H   0  0  0  0  0  0  0  0  0  0  0  0
   45.9560    2.8981    8.7483 H   0  0  0  0  0  0  0  0  0  0  0  0
   43.2668    2.6473   12.0772 H   0  0  0  0  0  0  0  0  0  0  0  0
   42.1039    4.7296   12.7954 H   0  0  0  0  0  0  0  0  0  0  0  0
   42.6226    6.3049   12.1970 H   0  0  0  0  0  0  0  0  0  0  0  0
   43.5951    5.4666   13.4315 H   0  0  0  0  0  0  0  0  0  0  0  0
   43.9626    2.0047    9.7743 H   0  0  0  0  0  0  0  0  0  0  0  0
   44.8167    3.5391    8.2746 H   0  0  0  0  0  0  0  0  0  0  0  0
   43.0575    3.7276    8.5310 H   0  0  0  0  0  0  0  0  0  0  0  0
   44.0566    5.1268    8.1246 H   0  0  0  0  0  0  0  0  0  0  0  0
   44.5363    2.7834   13.1386 H   0  0  0  0  0  0  0  0  0  0  0  0
   44.4736    6.5634    9.9309 H   0  0  0  0  0  0  0  0  0  0  0  0
   44.8680    6.9873   12.3255 H   0  0  0  0  0  0  0  0  0  0  0  0
   44.9016    5.1026   13.9410 H   0  0  0  0  0  0  0  0  0  0  0  0
   46.4113    5.6011    9.5659 H   0  0  0  0  0  0  0  0  0  0  0  0
   43.8378    2.1736    9.1937 H   0  0  0  0  0  0  0  0  0  0  0  0
   45.2015    6.3000   11.5897 H   0  0  0  0  0  0  0  0  0  0  0  0
   42.6140    2.8671   11.2279 H   0  0  0  0  0  0  0  0  0  0  0  0
   46.5526    4.0418    7.9336 H   0  0  0  0  0  0  0  0  0  0  0  0
   42.6727    4.2062   13.3281 H   0  0  0  0  0  0  0  0  0  0  0  0
   43.7311    5.6086   13.4757 H   0  0  0  0  0  0  0  0  0  0  0  0
   42.2502    5.7213   12.4924 H   0  0  0  0  0  0  0  0  0  0  0  0
  2  1  2  0
  3  1  1  0
  4  2  1  0
  5  7  1  0
  6  2  1  0
  7  3  2  0
  8  3  1  0
  6  5  2  0
 10  9  2  0
 11  9  1  0
 12 10  1  0
 13  9  1  0
 14 10  1  0
 15 14  2  0
 16 13  2  0
 16 15  1  0
 18 21  2  0
 19 17  2  0
 20 17  1  0
 21 19  1  0
 22 20  2  0
 23 17  1  0
 24 18  1  0
 22 18  1  0
  1 25  1  0
  4 26  1  0
  5 27  1  0
  6 28  1  0
  7 29  1  0
  8 30  1  0
  8 31  1  0
  8 32  1  0
 11 33  1  0
 12 34  1  0
 12 35  1  0
 12 36  1  0
 13 37  1  0
 14 38  1  0
 15 39  1  0
 16 40  1  0
 19 41  1  0
 20 42  1  0
 21 43  1  0
 22 44  1  0
 23 45  1  0
 24 46  1  0
 24 47  1  0
 24 48  1  0
M  END
> <Uni-Dock RESULT> 
ENERGY=   -6.814  LOWER_BOUND=    2.909  UPPER_BOUND=    5.012
INTER + INTRA:          -6.814
INTER:                  -6.814
INTRA:                   0.000
UNBOUND:                 0.000

$$$$

     RDKit          3D

 48 48  0  0  0  0  0  0  0  0999 V2000
   44.4971    4.8276   10.1824 C   0  0  0  0  0  0  0  0  0  0  0  0
   43.6009    5.2788   11.1465 C   0  0  0  0  0  0  0  0  0  0  0  0
   44.9432    3.5006   10.2052 C   0  0  0  0  0  0  0  0  0  0  0  0
   43.2033    6.5821   11.0832 O   0  0  0  0  0  0  0  0  0  0  0  0
   43.5559    3.0980   12.1576 C   0  0  0  0  0  0  0  0  0  0  0  0
   43.1272    4.4251   12.1374 C   0  0  0  0  0  0  0  0  0  0  0  0
   44.4553    2.6360   11.1936 C   0  0  0  0  0  0  0  0  0  0  0  0
   45.8823    2.9982    9.1495 C   0  0  0  0  0  0  0  0  0  0  0  0
   44.0629    3.0351   11.2409 C   0  0  0  0  0  0  0  0  0  0  0  0
   44.4530    4.3796   11.2054 C   0  0  0  0  0  0  0  0  0  0  0  0
   43.8391    2.3576   12.4061 O   0  0  0  0  0  0  0  0  0  0  0  0
   44.6581    5.1908   12.4512 C   0  0  0  0  0  0  0  0  0  0  0  0
   43.8803    2.3078   10.0658 C   0  0  0  0  0  0  0  0  0  0  0  0
   44.6563    4.9787    9.9520 C   0  0  0  0  0  0  0  0  0  0  0  0
   44.4740    4.2522    8.7726 C   0  0  0  0  0  0  0  0  0  0  0  0
   44.0859    2.9161    8.8296 C   0  0  0  0  0  0  0  0  0  0  0  0
   43.4274    4.8480   12.0472 C   0  0  0  0  0  0  0  0  0  0  0  0
   44.8862    3.4174   10.1432 C   0  0  0  0  0  0  0  0  0  0  0  0
   43.4053    5.2564   10.7178 C   0  0  0  0  0  0  0  0  0  0  0  0
   44.1732    3.7436   12.4395 C   0  0  0  0  0  0  0  0  0  0  0  0
   44.1399    4.5426    9.7676 C   0  0  0  0  0  0  0  0  0  0  0  0
   44.9068    3.0311   11.4896 C   0  0  0  0  0  0  0  0  0  0  0  0
   42.7261    5.5156   13.0074 O   0  0  0  0  0  0  0  0  0  0  0  0
   45.7013    2.6725    9.1277 C   0  0  0  0  0  0  0  0  0  0  0  0
   44.8449    5.5153    9.4159 H   0  0  0  0  0  0  0  0  0  0  0  0
   42.5852    6.7504   11.8127 H   0  0  0  0  0  0  0  0  0  0  0  0
   43.1881    2.4195   12.9230 H   0  0  0  0  0  0  0  0  0  0  0  0
   42.4279    4.7697   12.8920 H   0  0  0  0  0  0  0  0  0  0  0  0
   44.7744    1.5963   11.2186 H   0  0  0  0  0  0  0  0  0  0  0  0
   46.5148    2.1940    9.5400 H   0  0  0  0  0  0  0  0  0  0  0  0
   46.5483    3.7971    8.8068 H   0  0  0  0  0  0  0  0  0  0  0  0
   45.3151    2.6186    8.2940 H   0  0  0  0  0  0  0  0  0  0  0  0
   43.9933    2.9517   13.1559 H   0  0  0  0  0  0  0  0  0  0  0  0
   43.7285    5.2422   13.0270 H   0  0  0  0  0  0  0  0  0  0  0  0
   45.4454    4.7453   13.0678 H   0  0  0  0  0  0  0  0  0  0  0  0
   44.9609    6.2176   12.2200 H   0  0  0  0  0  0  0  0  0  0  0  0
   43.5774    1.2655   10.1165 H   0  0  0  0  0  0  0  0  0  0  0  0
   44.9597    6.0212    9.8830 H   0  0  0  0  0  0  0  0  0  0  0  0
   44.6353    4.7303    7.8099 H   0  0  0  0  0  0  0  0  0  0  0  0
   43.9434    2.3484    7.9143 H   0  0  0  0  0  0  0  0  0  0  0  0
   42.8306    6.1214   10.4035 H   0  0  0  0  0  0  0  0  0  0  0  0
   44.1863    3.4392   13.4820 H   0  0  0  0  0  0  0  0  0  0  0  0
   44.1265    4.8690    8.7302 H   0  0  0  0  0  0  0  0  0  0  0  0
   45.4933    2.1724   11.8077 H   0  0  0  0  0  0  0  0  0  0  0  0
   42.2577    6.2549   12.5874 H   0  0  0  0  0  0  0  0  0  0  0  0
   45.7897    1.6149    9.3975 H   0  0  0  0  0  0  0  0  0  0  0  0
   45.2301    2.7170    8.1402 H   0  0  0  0  0  0  0  0  0  0  0  0
   46.7038    3.1062    9.0617 H   0  0  0  0  0  0  0  0  0  0  0  0
  2  1  2  0
  3  1  1  0
  4  2  1  0
  5  7  1  0
  6  2  1  0
  7  3  2  0
  8  3  1  0
  6  5  2  0
 10  9  2  0
 11  9  1  0
 12 10  1  0
 13  9  1  0
 14 10  1  0
 15 14  2  0
 16 13  2  0
 16 15  1  0
 18 21  2  0
 19 17  2  0
 20 17  1  0
 21 19  1  0
 22 20  2  0
 23 17  1  0
 24 18  1  0
 22 18  1  0
  1 25  1  0
  4 26  1  0
  5 27  1  0
  6 28  1  0
  7 29  1  0
  8 30  1  0
  8 31  1  0
  8 32  1  0
 11 33  1  0
 12 34  1  0
 12 35  1  0
 12 36  1  0
 13 37  1  0
 14 38  1  0
 15 39  1  0
 16 40  1  0
 19 41  1  0
 20 42  1  0
 21 43  1  0
 22 44  1  0
 23 45  1  0
 24 46  1  0
 24 47  1  0
 24 48  1  0
M  END
> <Uni-Dock RESULT> 
ENERGY=   -6.233  LOWER_BOUND=    2.857  UPPER_BOUND=    4.286
INTER + INTRA:          -6.233
INTER:                  -6.233
INTRA:                   0.000
UNBOUND:                 0.000

$$$$

     RDKit          3D

 48 48  0  0  0  0  0  0  0  0999 V2000
   44.9585    4.9527   12.7527 C   0  0  0  0  0  0  0  0  0  0  0  0
   43.9194    4.0539   12.5324 C   0  0  0  0  0  0  0  0  0  0  0  0
   45.5411    5.6300   11.6746 C   0  0  0  0  0  0  0  0  0  0  0  0
   43.3917    3.4155   13.6162 O   0  0  0  0  0  0  0  0  0  0  0  0
   44.0023    4.5021   10.1717 C   0  0  0  0  0  0  0  0  0  0  0  0
   43.4367    3.8201   11.2489 C   0  0  0  0  0  0  0  0  0  0  0  0
   45.0457    5.4066   10.3833 C   0  0  0  0  0  0  0  0  0  0  0  0
   46.6382    6.6254   11.9081 C   0  0  0  0  0  0  0  0  0  0  0  0
   44.6095    5.1985   10.6695 C   0  0  0  0  0  0  0  0  0  0  0  0
   44.8527    4.3946   11.7902 C   0  0  0  0  0  0  0  0  0  0  0  0
   44.3356    4.6853    9.4332 O   0  0  0  0  0  0  0  0  0  0  0  0
   44.8322    2.8956   11.7245 C   0  0  0  0  0  0  0  0  0  0  0  0
   44.6356    6.5891   10.7624 C   0  0  0  0  0  0  0  0  0  0  0  0
   45.1244    5.0270   13.0140 C   0  0  0  0  0  0  0  0  0  0  0  0
   45.1511    6.4205   13.1100 C   0  0  0  0  0  0  0  0  0  0  0  0
   44.9066    7.2019   11.9837 C   0  0  0  0  0  0  0  0  0  0  0  0
   43.6971    3.6038   11.6521 C   0  0  0  0  0  0  0  0  0  0  0  0
   45.5006    5.7364   11.6420 C   0  0  0  0  0  0  0  0  0  0  0  0
   43.7750    4.4411   12.7600 C   0  0  0  0  0  0  0  0  0  0  0  0
   44.5116    3.8107   10.5458 C   0  0  0  0  0  0  0  0  0  0  0  0
   44.6815    5.5042   12.7553 C   0  0  0  0  0  0  0  0  0  0  0  0
   45.4169    4.8730   10.5419 C   0  0  0  0  0  0  0  0  0  0  0  0
   42.8274    2.5542   11.6143 O   0  0  0  0  0  0  0  0  0  0  0  0
   46.4970    6.8576   11.6522 C   0  0  0  0  0  0  0  0  0  0  0  0
   45.3106    5.1208   13.7672 H   0  0  0  0  0  0  0  0  0  0  0  0
   42.6835    2.8259   13.3106 H   0  0  0  0  0  0  0  0  0  0  0  0
   43.6296    4.3327    9.1649 H   0  0  0  0  0  0  0  0  0  0  0  0
   42.6264    3.1212   11.0696 H   0  0  0  0  0  0  0  0  0  0  0  0
   45.4714    5.9361    9.5337 H   0  0  0  0  0  0  0  0  0  0  0  0
   47.3082    6.6782   11.0435 H   0  0  0  0  0  0  0  0  0  0  0  0
   47.2466    6.3406   12.7729 H   0  0  0  0  0  0  0  0  0  0  0  0
   46.2117    7.6174   12.0863 H   0  0  0  0  0  0  0  0  0  0  0  0
   44.3421    3.7175    9.4804 H   0  0  0  0  0  0  0  0  0  0  0  0
   43.8456    2.5439   11.4063 H   0  0  0  0  0  0  0  0  0  0  0  0
   45.5917    2.5367   11.0225 H   0  0  0  0  0  0  0  0  0  0  0  0
   45.0448    2.4450   12.6999 H   0  0  0  0  0  0  0  0  0  0  0  0
   44.4441    7.1937    9.8801 H   0  0  0  0  0  0  0  0  0  0  0  0
   45.3184    4.4369   13.9072 H   0  0  0  0  0  0  0  0  0  0  0  0
   45.3629    6.8951   14.0647 H   0  0  0  0  0  0  0  0  0  0  0  0
   44.9268    8.2858   12.0550 H   0  0  0  0  0  0  0  0  0  0  0  0
   43.1472    4.2834   13.6308 H   0  0  0  0  0  0  0  0  0  0  0  0
   44.4445    3.1457    9.6897 H   0  0  0  0  0  0  0  0  0  0  0  0
   44.7453    6.1526   13.6262 H   0  0  0  0  0  0  0  0  0  0  0  0
   46.0553    5.0223    9.6744 H   0  0  0  0  0  0  0  0  0  0  0  0
   42.3297    2.5376   12.4477 H   0  0  0  0  0  0  0  0  0  0  0  0
   46.6701    7.2357   10.6391 H   0  0  0  0  0  0  0  0  0  0  0  0
   46.1337    7.6973   12.2540 H   0  0  0  0  0  0  0  0  0  0  0  0
   47.4477    6.5095   12.0676 H   0  0  0  0  0  0  0  0  0  0  0  0
  2  1  2  0
  3  1  1  0
  4  2  1  0
  5  7  1  0
  6  2  1  0
  7  3  2  0
  8  3  1  0
  6  5  2  0
 10  9  2  0
 11  9  1  0
 12 10  1  0
 13  9  1  0
 14 10  1  0
 15 14  2  0
 16 13  2  0
 16 15  1  0
 18 21  2  0
 19 17  2  0
 20 17  1  0
 21 19  1  0
 22 20  2  0
 23 17  1  0
 24 18  1  0
 22 18  1  0
  1 25  1  0
  4 26  1  0
  5 27  1  0
  6 28  1  0
  7 29  1  0
  8 30  1  0
  8 31  1  0
  8 32  1  0
 11 33  1  0
 12 34  1  0
 12 35  1  0
 12 36  1  0
 13 37  1  0
 14 38  1  0
 15 39  1  0
 16 40  1  0
 19 41  1  0
 20 42  1  0
 21 43  1  0
 22 44  1  0
 23 45  1  0
 24 46  1  0
 24 47  1  0
 24 48  1  0
M  END
> <Uni-Dock RESULT> 
ENERGY=   -6.191  LOWER_BOUND=    4.078  UPPER_BOUND=    5.554
INTER + INTRA:          -6.191
INTER:                  -6.191
INTRA:                   0.000
UNBOUND:                 0.000

$$$$

     RDKit          3D

 48 48  0  0  0  0  0  0  0  0999 V2000
   43.9072    3.9414   12.2273 C   0  0  0  0  0  0  0  0  0  0  0  0
   43.7376    2.9159   11.3022 C   0  0  0  0  0  0  0  0  0  0  0  0
   44.3719    5.1942   11.8089 C   0  0  0  0  0  0  0  0  0  0  0  0
   43.2890    1.7130   11.7631 O   0  0  0  0  0  0  0  0  0  0  0  0
   44.4640    4.3662    9.5276 C   0  0  0  0  0  0  0  0  0  0  0  0
   44.0146    3.1165    9.9539 C   0  0  0  0  0  0  0  0  0  0  0  0
   44.6370    5.4018   10.4490 C   0  0  0  0  0  0  0  0  0  0  0  0
   44.5246    6.3141   12.7945 C   0  0  0  0  0  0  0  0  0  0  0  0
   44.3237    4.9387   10.3959 C   0  0  0  0  0  0  0  0  0  0  0  0
   44.5170    3.8805   11.2926 C   0  0  0  0  0  0  0  0  0  0  0  0
   44.8918    4.9723    9.1537 O   0  0  0  0  0  0  0  0  0  0  0  0
   45.3686    2.6903   10.9607 C   0  0  0  0  0  0  0  0  0  0  0  0
   43.5264    6.0312   10.7335 C   0  0  0  0  0  0  0  0  0  0  0  0
   43.8853    3.9480   12.5447 C   0  0  0  0  0  0  0  0  0  0  0  0
   43.0857    5.0417   12.8857 C   0  0  0  0  0  0  0  0  0  0  0  0
   42.9062    6.0838   11.9797 C   0  0  0  0  0  0  0  0  0  0  0  0
   44.1697    2.8610   10.3872 C   0  0  0  0  0  0  0  0  0  0  0  0
   44.2953    5.2793   11.7787 C   0  0  0  0  0  0  0  0  0  0  0  0
   43.3264    3.0718   11.4730 C   0  0  0  0  0  0  0  0  0  0  0  0
   45.0788    3.8348    9.9933 C   0  0  0  0  0  0  0  0  0  0  0  0
   43.3943    4.2801   12.1711 C   0  0  0  0  0  0  0  0  0  0  0  0
   45.1460    5.0416   10.6913 C   0  0  0  0  0  0  0  0  0  0  0  0
   44.1376    1.6967    9.6781 O   0  0  0  0  0  0  0  0  0  0  0  0
   44.3906    6.5623   12.5501 C   0  0  0  0  0  0  0  0  0  0  0  0
   43.6761    3.7580   13.2734 H   0  0  0  0  0  0  0  0  0  0  0  0
   43.2209    1.1022   11.0116 H   0  0  0  0  0  0  0  0  0  0  0  0
   44.6778    4.5372    8.4757 H   0  0  0  0  0  0  0  0  0  0  0  0
   43.8842    2.3218    9.2268 H   0  0  0  0  0  0  0  0  0  0  0  0
   44.9811    6.3729   10.0996 H   0  0  0  0  0  0  0  0  0  0  0  0
   45.3207    7.0000   12.4861 H   0  0  0  0  0  0  0  0  0  0  0  0
   44.7931    5.9297   13.7841 H   0  0  0  0  0  0  0  0  0  0  0  0
   43.5871    6.8730   12.8740 H   0  0  0  0  0  0  0  0  0  0  0  0
   45.4212    4.1713    9.0227 H   0  0  0  0  0  0  0  0  0  0  0  0
   44.9684    2.1709   10.0841 H   0  0  0  0  0  0  0  0  0  0  0  0
   46.3978    3.0050   10.7604 H   0  0  0  0  0  0  0  0  0  0  0  0
   45.3978    1.9710   11.7861 H   0  0  0  0  0  0  0  0  0  0  0  0
   43.3901    6.8414   10.0224 H   0  0  0  0  0  0  0  0  0  0  0  0
   44.0111    3.1456   13.2685 H   0  0  0  0  0  0  0  0  0  0  0  0
   42.6033    5.0792   13.8591 H   0  0  0  0  0  0  0  0  0  0  0  0
   42.2851    6.9357   12.2419 H   0  0  0  0  0  0  0  0  0  0  0  0
   42.6176    2.3144   11.7915 H   0  0  0  0  0  0  0  0  0  0  0  0
   45.7355    3.6547    9.1472 H   0  0  0  0  0  0  0  0  0  0  0  0
   42.7388    4.4389   13.0244 H   0  0  0  0  0  0  0  0  0  0  0  0
   45.8659    5.7948   10.3799 H   0  0  0  0  0  0  0  0  0  0  0  0
   43.4593    1.1199   10.0651 H   0  0  0  0  0  0  0  0  0  0  0  0
   44.6986    7.3874   11.8993 H   0  0  0  0  0  0  0  0  0  0  0  0
   43.4201    6.8328   12.9793 H   0  0  0  0  0  0  0  0  0  0  0  0
   45.1194    6.4588   13.3597 H   0  0  0  0  0  0  0  0  0  0  0  0
  2  1  2  0
  3  1  1  0
  4  2  1  0
  5  7  1  0
  6  2  1  0
  7  3  2  0
  8  3  1  0
  6  5  2  0
 10  9  2  0
 11  9  1  0
 12 10  1  0
 13  9  1  0
 14 10  1  0
 15 14  2  0
 16 13  2  0
 16 15  1  0
 18 21  2  0
 19 17  2  0
 20 17  1  0
 21 19  1  0
 22 20  2  0
 23 17  1  0
 24 18  1  0
 22 18  1  0
  1 25  1  0
  4 26  1  0
  5 27  1  0
  6 28  1  0
  7 29  1  0
  8 30  1  0
  8 31  1  0
  8 32  1  0
 11 33  1  0
 12 34  1  0
 12 35  1  0
 12 36  1  0
 13 37  1  0
 14 38  1  0
 15 39  1  0
 16 40  1  0
 19 41  1  0
 20 42  1  0
 21 43  1  0
 22 44  1  0
 23 45  1  0
 24 46  1  0
 24 47  1  0
 24 48  1  0
M  END
> <Uni-Dock RESULT> 
ENERGY=   -6.188  LOWER_BOUND=    3.419  UPPER_BOUND=    5.493
INTER + INTRA:          -6.188
INTER:                  -6.188
INTRA:                   0.000
UNBOUND:                 0.000

$$$$

     RDKit          3D

 48 48  0  0  0  0  0  0  0  0999 V2000
   44.7003    5.5103   10.8639 C   0  0  0  0  0  0  0  0  0  0  0  0
   44.9197    6.5953   11.7068 C   0  0  0  0  0  0  0  0  0  0  0  0
   44.8876    4.2055   11.3362 C   0  0  0  0  0  0  0  0  0  0  0  0
   44.7297    7.8454   11.1950 O   0  0  0  0  0  0  0  0  0  0  0  0
   45.4909    5.1091   13.5083 C   0  0  0  0  0  0  0  0  0  0  0  0
   45.3165    6.4064   13.0266 C   0  0  0  0  0  0  0  0  0  0  0  0
   45.2726    4.0136   12.6694 C   0  0  0  0  0  0  0  0  0  0  0  0
   44.6201    3.0304   10.4437 C   0  0  0  0  0  0  0  0  0  0  0  0
   45.0958    4.5446   12.7167 C   0  0  0  0  0  0  0  0  0  0  0  0
   45.4260    5.4632   11.7126 C   0  0  0  0  0  0  0  0  0  0  0  0
   45.7992    4.4348   13.8829 O   0  0  0  0  0  0  0  0  0  0  0  0
   46.5857    6.4075   11.8361 C   0  0  0  0  0  0  0  0  0  0  0  0
   44.0118    3.6801   12.5726 C   0  0  0  0  0  0  0  0  0  0  0  0
   44.6349    5.4916   10.5530 C   0  0  0  0  0  0  0  0  0  0  0  0
   43.5479    4.6263   10.4059 C   0  0  0  0  0  0  0  0  0  0  0  0
   43.2363    3.7201   11.4161 C   0  0  0  0  0  0  0  0  0  0  0  0
   45.4709    6.5877   12.5571 C   0  0  0  0  0  0  0  0  0  0  0  0
   44.7969    4.1452   11.3825 C   0  0  0  0  0  0  0  0  0  0  0  0
   44.4634    6.5425   11.5993 C   0  0  0  0  0  0  0  0  0  0  0  0
   46.1509    5.4348   12.9290 C   0  0  0  0  0  0  0  0  0  0  0  0
   44.1312    5.3206   11.0090 C   0  0  0  0  0  0  0  0  0  0  0  0
   45.8184    4.2145   12.3387 C   0  0  0  0  0  0  0  0  0  0  0  0
   45.8279    7.7585   13.1582 O   0  0  0  0  0  0  0  0  0  0  0  0
   44.4622    2.8400   10.7232 C   0  0  0  0  0  0  0  0  0  0  0  0
   44.3840    5.6878    9.8393 H   0  0  0  0  0  0  0  0  0  0  0  0
   44.9189    8.4945   11.8917 H   0  0  0  0  0  0  0  0  0  0  0  0
   45.7945    4.9483   14.5395 H   0  0  0  0  0  0  0  0  0  0  0  0
   45.4889    7.2476   13.6898 H   0  0  0  0  0  0  0  0  0  0  0  0
   45.4058    3.0079   13.0622 H   0  0  0  0  0  0  0  0  0  0  0  0
   45.2525    2.1795   10.7182 H   0  0  0  0  0  0  0  0  0  0  0  0
   44.8407    3.2748    9.3993 H   0  0  0  0  0  0  0  0  0  0  0  0
   43.5704    2.7313   10.5234 H   0  0  0  0  0  0  0  0  0  0  0  0
   46.5253    5.0763   13.8797 H   0  0  0  0  0  0  0  0  0  0  0  0
   46.4506    7.0621   12.7030 H   0  0  0  0  0  0  0  0  0  0  0  0
   47.5203    5.8476   11.9435 H   0  0  0  0  0  0  0  0  0  0  0  0
   46.6832    7.0463   10.9518 H   0  0  0  0  0  0  0  0  0  0  0  0
   43.7734    2.9750   13.3643 H   0  0  0  0  0  0  0  0  0  0  0  0
   44.8595    6.1912    9.7505 H   0  0  0  0  0  0  0  0  0  0  0  0
   42.9451    4.6605    9.5021 H   0  0  0  0  0  0  0  0  0  0  0  0
   42.3917    3.0459   11.3047 H   0  0  0  0  0  0  0  0  0  0  0  0
   43.9313    7.4389   11.2983 H   0  0  0  0  0  0  0  0  0  0  0  0
   46.9395    5.4854   13.6740 H   0  0  0  0  0  0  0  0  0  0  0  0
   43.3481    5.2898   10.2548 H   0  0  0  0  0  0  0  0  0  0  0  0
   46.3613    3.3188   12.6309 H   0  0  0  0  0  0  0  0  0  0  0  0
   45.2705    8.4691   12.8021 H   0  0  0  0  0  0  0  0  0  0  0  0
   44.6380    2.0014   11.4052 H   0  0  0  0  0  0  0  0  0  0  0  0
   43.4063    2.8076   10.4349 H   0  0  0  0  0  0  0  0  0  0  0  0
   45.0778    2.7040    9.8288 H   0  0  0  0  0  0  0  0  0  0  0  0
  2  1  2  0
  3  1  1  0
  4  2  1  0
  5  7  1  0
  6  2  1  0
  7  3  2  0
  8  3  1  0
  6  5  2  0
 10  9  2  0
 11  9  1  0
 12 10  1  0
 13  9  1  0
 14 10  1  0
 15 14  2  0
 16 13  2  0
 16 15  1  0
 18 21  2  0
 19 17  2  0
 20 17  1  0
 21 19  1  0
 22 20  2  0
 23 17  1  0
 24 18  1  0
 22 18  1  0
  1 25  1  0
  4 26  1  0
  5 27  1  0
  6 28  1  0
  7 29  1  0
  8 30  1  0
  8 31  1  0
  8 32  1  0
 11 33  1  0
 12 34  1  0
 12 35  1  0
 12 36  1  0
 13 37  1  0
 14 38  1  0
 15 39  1  0
 16 40  1  0
 19 41  1  0
 20 42  1  0
 21 43  1  0
 22 44  1  0
 23 45  1  0
 24 46  1  0
 24 47  1  0
 24 48  1  0
M  END
> <Uni-Dock RESULT> 
ENERGY=   -6.151  LOWER_BOUND=    4.218  UPPER_BOUND=    5.705
INTER + INTRA:          -6.151
INTER:                  -6.151
INTRA:                   0.000
UNBOUND:                 0.000

$$$$

     RDKit          3D

 48 48  0  0  0  0  0  0  0  0999 V2000
   44.5480    6.4763   11.4825 C   0  0  0  0  0  0  0  0  0  0  0  0
   45.3876    7.2808   12.2465 C   0  0  0  0  0  0  0  0  0  0  0  0
   44.4640    5.1030   11.7426 C   0  0  0  0  0  0  0  0  0  0  0  0
   45.4376    8.6107   11.9473 O   0  0  0  0  0  0  0  0  0  0  0  0
   46.0566    5.3783   13.5555 C   0  0  0  0  0  0  0  0  0  0  0  0
   46.1461    6.7429   13.2811 C   0  0  0  0  0  0  0  0  0  0  0  0
   45.2160    4.5628   12.7939 C   0  0  0  0  0  0  0  0  0  0  0  0
   43.5357    4.2358   10.9457 C   0  0  0  0  0  0  0  0  0  0  0  0
   45.2472    5.1023   12.9471 C   0  0  0  0  0  0  0  0  0  0  0  0
   45.4726    6.0758   11.9659 C   0  0  0  0  0  0  0  0  0  0  0  0
   46.2454    4.5873   13.7251 O   0  0  0  0  0  0  0  0  0  0  0  0
   46.8365    6.6361   11.6872 C   0  0  0  0  0  0  0  0  0  0  0  0
   43.9679    4.6011   13.1827 C   0  0  0  0  0  0  0  0  0  0  0  0
   44.3738    6.5359   11.2229 C   0  0  0  0  0  0  0  0  0  0  0  0
   43.0906    6.0353   11.4568 C   0  0  0  0  0  0  0  0  0  0  0  0
   42.8876    5.0675   12.4371 C   0  0  0  0  0  0  0  0  0  0  0  0
   46.1723    6.9636   12.8038 C   0  0  0  0  0  0  0  0  0  0  0  0
   44.3816    5.0612   11.8166 C   0  0  0  0  0  0  0  0  0  0  0  0
   44.9318    7.3727   12.3260 C   0  0  0  0  0  0  0  0  0  0  0  0
   46.5336    5.6223   12.7872 C   0  0  0  0  0  0  0  0  0  0  0  0
   44.0394    6.4203   11.8276 C   0  0  0  0  0  0  0  0  0  0  0  0
   45.6415    4.6714   12.2892 C   0  0  0  0  0  0  0  0  0  0  0  0
   47.0739    7.8591   13.2984 O   0  0  0  0  0  0  0  0  0  0  0  0
   43.4359    4.0440   11.2500 C   0  0  0  0  0  0  0  0  0  0  0  0
   43.9617    6.9253   10.6849 H   0  0  0  0  0  0  0  0  0  0  0  0
   46.0594    9.0396   12.5572 H   0  0  0  0  0  0  0  0  0  0  0  0
   46.6394    4.9473   14.3654 H   0  0  0  0  0  0  0  0  0  0  0  0
   46.8025    7.3641   13.8814 H   0  0  0  0  0  0  0  0  0  0  0  0
   45.1517    3.5018   13.0251 H   0  0  0  0  0  0  0  0  0  0  0  0
   43.9170    3.2112   10.8815 H   0  0  0  0  0  0  0  0  0  0  0  0
   43.4352    4.6092    9.9212 H   0  0  0  0  0  0  0  0  0  0  0  0
   42.5469    4.2166   11.4143 H   0  0  0  0  0  0  0  0  0  0  0  0
   47.0867    5.0012   13.4806 H   0  0  0  0  0  0  0  0  0  0  0  0
   47.2359    7.1235   12.5824 H   0  0  0  0  0  0  0  0  0  0  0  0
   47.5165    5.8384   11.3716 H   0  0  0  0  0  0  0  0  0  0  0  0
   46.8110    7.3840   10.8875 H   0  0  0  0  0  0  0  0  0  0  0  0
   43.8156    3.8459   13.9489 H   0  0  0  0  0  0  0  0  0  0  0  0
   44.5084    7.2916   10.4519 H   0  0  0  0  0  0  0  0  0  0  0  0
   42.2500    6.4018   10.8731 H   0  0  0  0  0  0  0  0  0  0  0  0
   41.8909    4.6762   12.6215 H   0  0  0  0  0  0  0  0  0  0  0  0
   44.6436    8.4188   12.3294 H   0  0  0  0  0  0  0  0  0  0  0  0
   47.5078    5.3173   13.1581 H   0  0  0  0  0  0  0  0  0  0  0  0
   43.0732    6.7443   11.4476 H   0  0  0  0  0  0  0  0  0  0  0  0
   45.9363    3.6248   12.2735 H   0  0  0  0  0  0  0  0  0  0  0  0
   46.6845    8.7469   13.2476 H   0  0  0  0  0  0  0  0  0  0  0  0
   43.5655    3.0738   11.7411 H   0  0  0  0  0  0  0  0  0  0  0  0
   42.3956    4.3493   11.4045 H   0  0  0  0  0  0  0  0  0  0  0  0
   43.6142    3.9243   10.1769 H   0  0  0  0  0  0  0  0  0  0  0  0
  2  1  2  0
  3  1  1  0
  4  2  1  0
  5  7  1  0
  6  2  1  0
  7  3  2  0
  8  3  1  0
  6  5  2  0
 10  9  2  0
 11  9  1  0
 12 10  1  0
 13  9  1  0
 14 10  1  0
 15 14  2  0
 16 13  2  0
 16 15  1  0
 18 21  2  0
 19 17  2  0
 20 17  1  0
 21 19  1  0
 22 20  2  0
 23 17  1  0
 24 18  1  0
 22 18  1  0
  1 25  1  0
  4 26  1  0
  5 27  1  0
  6 28  1  0
  7 29  1  0
  8 30  1  0
  8 31  1  0
  8 32  1  0
 11 33  1  0
 12 34  1  0
 12 35  1  0
 12 36  1  0
 13 37  1  0
 14 38  1  0
 15 39  1  0
 16 40  1  0
 19 41  1  0
 20 42  1  0
 21 43  1  0
 22 44  1  0
 23 45  1  0
 24 46  1  0
 24 47  1  0
 24 48  1  0
M  END
> <Uni-Dock RESULT> 
ENERGY=   -5.994  LOWER_BOUND=    5.288  UPPER_BOUND=    6.447
INTER + INTRA:          -5.994
INTER:                  -5.994
INTRA:                   0.000
UNBOUND:                 0.000

$$$$

     RDKit          3D

 48 48  0  0  0  0  0  0  0  0999 V2000
   48.6653    4.0200   19.4392 C   0  0  0  0  0  0  0  0  0  0  0  0
   49.1593    4.9949   20.3003 C   0  0  0  0  0  0  0  0  0  0  0  0
   47.7342    4.3628   18.4512 C   0  0  0  0  0  0  0  0  0  0  0  0
   50.0590    4.6069   21.2494 O   0  0  0  0  0  0  0  0  0  0  0  0
   47.8328    6.6711   19.1999 C   0  0  0  0  0  0  0  0  0  0  0  0
   48.7489    6.3196   20.1911 C   0  0  0  0  0  0  0  0  0  0  0  0
   47.3315    5.6992   18.3306 C   0  0  0  0  0  0  0  0  0  0  0  0
   47.2233    3.3240   17.4979 C   0  0  0  0  0  0  0  0  0  0  0  0
   47.7942    5.7862   18.6370 C   0  0  0  0  0  0  0  0  0  0  0  0
   48.0717    4.9280   19.7083 C   0  0  0  0  0  0  0  0  0  0  0  0
   47.1851    6.9989   18.7959 O   0  0  0  0  0  0  0  0  0  0  0  0
   47.7210    5.2720   21.1262 C   0  0  0  0  0  0  0  0  0  0  0  0
   48.1324    5.4383   17.3302 C   0  0  0  0  0  0  0  0  0  0  0  0
   48.7014    3.7039   19.4319 C   0  0  0  0  0  0  0  0  0  0  0  0
   49.0415    3.3526   18.1231 C   0  0  0  0  0  0  0  0  0  0  0  0
   48.7568    4.2201   17.0718 C   0  0  0  0  0  0  0  0  0  0  0  0
   48.7285    5.8910   20.4962 C   0  0  0  0  0  0  0  0  0  0  0  0
   47.7707    4.3927   18.3426 C   0  0  0  0  0  0  0  0  0  0  0  0
   49.4891    4.8363   20.0026 C   0  0  0  0  0  0  0  0  0  0  0  0
   47.4954    6.2014   19.9367 C   0  0  0  0  0  0  0  0  0  0  0  0
   49.0059    4.0846   18.9287 C   0  0  0  0  0  0  0  0  0  0  0  0
   47.0135    5.4499   18.8638 C   0  0  0  0  0  0  0  0  0  0  0  0
   49.1612    6.6503   21.5430 O   0  0  0  0  0  0  0  0  0  0  0  0
   47.2380    3.5634   17.2118 C   0  0  0  0  0  0  0  0  0  0  0  0
   49.0092    2.9942   19.5435 H   0  0  0  0  0  0  0  0  0  0  0  0
   50.3112    5.3862   21.7704 H   0  0  0  0  0  0  0  0  0  0  0  0
   47.5091    7.7040   19.1003 H   0  0  0  0  0  0  0  0  0  0  0  0
   49.1302    7.0852   20.8585 H   0  0  0  0  0  0  0  0  0  0  0  0
   46.6232    5.9906   17.5581 H   0  0  0  0  0  0  0  0  0  0  0  0
   46.2093    3.5665   17.1628 H   0  0  0  0  0  0  0  0  0  0  0  0
   47.1798    2.3408   17.9780 H   0  0  0  0  0  0  0  0  0  0  0  0
   47.8795    3.2629   16.6242 H   0  0  0  0  0  0  0  0  0  0  0  0
   46.9947    7.1402   19.7354 H   0  0  0  0  0  0  0  0  0  0  0  0
   48.2374    6.1873   21.4327 H   0  0  0  0  0  0  0  0  0  0  0  0
   46.6398    5.4120   21.2257 H   0  0  0  0  0  0  0  0  0  0  0  0
   48.0165    4.4778   21.8201 H   0  0  0  0  0  0  0  0  0  0  0  0
   47.9077    6.1192   16.5139 H   0  0  0  0  0  0  0  0  0  0  0  0
   48.9336    3.0102   20.2373 H   0  0  0  0  0  0  0  0  0  0  0  0
   49.5288    2.4012   17.9255 H   0  0  0  0  0  0  0  0  0  0  0  0
   49.0200    3.9498   16.0530 H   0  0  0  0  0  0  0  0  0  0  0  0
   50.4504    4.5829   20.4374 H   0  0  0  0  0  0  0  0  0  0  0  0
   46.9092    7.0240   20.3357 H   0  0  0  0  0  0  0  0  0  0  0  0
   49.5996    3.2557   18.5499 H   0  0  0  0  0  0  0  0  0  0  0  0
   46.0438    5.6958   18.4374 H   0  0  0  0  0  0  0  0  0  0  0  0
   50.0295    6.3194   21.8242 H   0  0  0  0  0  0  0  0  0  0  0  0
   46.6012    4.1636   16.5535 H   0  0  0  0  0  0  0  0  0  0  0  0
   48.0550    3.1671   16.5997 H   0  0  0  0  0  0  0  0  0  0  0  0
   46.6522    2.7269   17.6050 H   0  0  0  0  0  0  0  0  0  0  0  0
  2  1  2  0
  3  1  1  0
  4  2  1  0
  5  7  1  0
  6  2  1  0
  7  3  2  0
  8  3  1  0
  6  5  2  0
 10  9  2  0
 11  9  1  0
 12 10  1  0
 13  9  1  0
 14 10  1  0
 15 14  2  0
 16 13  2  0
 16 15  1  0
 18 21  2  0
 19 17  2  0
 20 17  1  0
 21 19  1  0
 22 20  2  0
 23 17  1  0
 24 18  1  0
 22 18  1  0
  1 25  1  0
  4 26  1  0
  5 27  1  0
  6 28  1  0
  7 29  1  0
  8 30  1  0
  8 31  1  0
  8 32  1  0
 11 33  1  0
 12 34  1  0
 12 35  1  0
 12 36  1  0
 13 37  1  0
 14 38  1  0
 15 39  1  0
 16 40  1  0
 19 41  1  0
 20 42  1  0
 21 43  1  0
 22 44  1  0
 23 45  1  0
 24 46  1  0
 24 47  1  0
 24 48  1  0
M  END
> <Uni-Dock RESULT> 
ENERGY=   -5.992  LOWER_BOUND=   10.454  UPPER_BOUND=   12.366
INTER + INTRA:          -5.992
INTER:                  -5.992
INTRA:                   0.000
UNBOUND:                 0.000

$$$$
