
     RDKit          3D

 48 48  0  0  0  0  0  0  0  0999 V2000
   46.4287    3.4764    7.0711 C   0  0  0  0  0  0  0  0  0  0  0  0
   47.3679    2.8271    6.2727 C   0  0  0  0  0  0  0  0  0  0  0  0
   45.7696    2.7697    8.0864 C   0  0  0  0  0  0  0  0  0  0  0  0
   48.0226    3.4824    5.2715 O   0  0  0  0  0  0  0  0  0  0  0  0
   47.0307    0.7810    7.4908 C   0  0  0  0  0  0  0  0  0  0  0  0
   47.6711    1.4862    6.4738 C   0  0  0  0  0  0  0  0  0  0  0  0
   46.0874    1.4211    8.2975 C   0  0  0  0  0  0  0  0  0  0  0  0
   44.7808    3.4632    8.9764 C   0  0  0  0  0  0  0  0  0  0  0  0
   46.2500    1.6076    7.9335 C   0  0  0  0  0  0  0  0  0  0  0  0
   46.8565    2.5546    7.0988 C   0  0  0  0  0  0  0  0  0  0  0  0
   46.6566    0.3047    7.9962 O   0  0  0  0  0  0  0  0  0  0  0  0
   48.0089    2.2140    6.2002 C   0  0  0  0  0  0  0  0  0  0  0  0
   45.1806    1.9548    8.7575 C   0  0  0  0  0  0  0  0  0  0  0  0
   46.3584    3.8672    7.1129 C   0  0  0  0  0  0  0  0  0  0  0  0
   45.2867    4.2180    7.9378 C   0  0  0  0  0  0  0  0  0  0  0  0
   44.6975    3.2614    8.7603 C   0  0  0  0  0  0  0  0  0  0  0  0
   45.2483    2.6750    8.9496 C   0  0  0  0  0  0  0  0  0  0  0  0
   46.9473    2.4360    6.7459 C   0  0  0  0  0  0  0  0  0  0  0  0
   45.6241    1.4139    8.5044 C   0  0  0  0  0  0  0  0  0  0  0  0
   45.7153    3.8220    8.3163 C   0  0  0  0  0  0  0  0  0  0  0  0
   46.4774    1.2934    7.4064 C   0  0  0  0  0  0  0  0  0  0  0  0
   46.5693    3.7006    7.2175 C   0  0  0  0  0  0  0  0  0  0  0  0
   44.4138    2.7470   10.0256 O   0  0  0  0  0  0  0  0  0  0  0  0
   47.8912    2.3080    5.5869 C   0  0  0  0  0  0  0  0  0  0  0  0
   46.2018    4.5264    6.9137 H   0  0  0  0  0  0  0  0  0  0  0  0
   47.7090    4.4009    5.2490 H   0  0  0  0  0  0  0  0  0  0  0  0
   47.2683   -0.2662    7.6569 H   0  0  0  0  0  0  0  0  0  0  0  0
   48.4061    0.9942    5.8438 H   0  0  0  0  0  0  0  0  0  0  0  0
   45.6009    0.8598    9.0923 H   0  0  0  0  0  0  0  0  0  0  0  0
   44.2600    4.2599    8.4350 H   0  0  0  0  0  0  0  0  0  0  0  0
   44.0190    2.7629    9.3344 H   0  0  0  0  0  0  0  0  0  0  0  0
   45.2950    3.8984    9.8388 H   0  0  0  0  0  0  0  0  0  0  0  0
   47.3998    0.1722    7.3887 H   0  0  0  0  0  0  0  0  0  0  0  0
   47.7150    1.4399    5.4840 H   0  0  0  0  0  0  0  0  0  0  0  0
   48.3454    3.0840    5.6264 H   0  0  0  0  0  0  0  0  0  0  0  0
   48.8590    1.8599    6.7920 H   0  0  0  0  0  0  0  0  0  0  0  0
   44.7249    1.2041    9.3972 H   0  0  0  0  0  0  0  0  0  0  0  0
   46.8029    4.6313    6.4787 H   0  0  0  0  0  0  0  0  0  0  0  0
   44.9125    5.2385    7.9372 H   0  0  0  0  0  0  0  0  0  0  0  0
   43.8640    3.5310    9.4028 H   0  0  0  0  0  0  0  0  0  0  0  0
   45.2567    0.5266    9.0118 H   0  0  0  0  0  0  0  0  0  0  0  0
   45.4319    4.8111    8.6610 H   0  0  0  0  0  0  0  0  0  0  0  0
   46.7719    0.3022    7.0699 H   0  0  0  0  0  0  0  0  0  0  0  0
   46.9388    4.5995    6.7291 H   0  0  0  0  0  0  0  0  0  0  0  0
   44.2400    3.6828   10.2175 H   0  0  0  0  0  0  0  0  0  0  0  0
   47.7002    1.3861    5.0277 H   0  0  0  0  0  0  0  0  0  0  0  0
   48.9248    2.2969    5.9459 H   0  0  0  0  0  0  0  0  0  0  0  0
   47.7675    3.1424    4.8886 H   0  0  0  0  0  0  0  0  0  0  0  0
  2  1  2  0
  3  1  1  0
  4  2  1  0
  5  7  1  0
  6  2  1  0
  7  3  2  0
  8  3  1  0
  6  5  2  0
 10  9  2  0
 11  9  1  0
 12 10  1  0
 13  9  1  0
 14 10  1  0
 15 14  2  0
 16 13  2  0
 16 15  1  0
 18 21  2  0
 19 17  2  0
 20 17  1  0
 21 19  1  0
 22 20  2  0
 23 17  1  0
 24 18  1  0
 22 18  1  0
  1 25  1  0
  4 26  1  0
  5 27  1  0
  6 28  1  0
  7 29  1  0
  8 30  1  0
  8 31  1  0
  8 32  1  0
 11 33  1  0
 12 34  1  0
 12 35  1  0
 12 36  1  0
 13 37  1  0
 14 38  1  0
 15 39  1  0
 16 40  1  0
 19 41  1  0
 20 42  1  0
 21 43  1  0
 22 44  1  0
 23 45  1  0
 24 46  1  0
 24 47  1  0
 24 48  1  0
M  END
> <Uni-Dock RESULT> 
ENERGY=  -14.408  LOWER_BOUND=    0.000  UPPER_BOUND=    0.000
INTER + INTRA:         -14.408
INTER:                 -14.408
INTRA:                   0.000
UNBOUND:                 0.000

$$$$

     RDKit          3D

 48 48  0  0  0  0  0  0  0  0999 V2000
   46.4286    3.4759    7.0705 C   0  0  0  0  0  0  0  0  0  0  0  0
   47.3681    2.8267    6.2724 C   0  0  0  0  0  0  0  0  0  0  0  0
   45.7696    2.7692    8.0859 C   0  0  0  0  0  0  0  0  0  0  0  0
   48.0227    3.4820    5.2711 O   0  0  0  0  0  0  0  0  0  0  0  0
   47.0315    0.7808    7.4908 C   0  0  0  0  0  0  0  0  0  0  0  0
   47.6717    1.4861    6.4737 C   0  0  0  0  0  0  0  0  0  0  0  0
   46.0879    1.4207    8.2972 C   0  0  0  0  0  0  0  0  0  0  0  0
   44.7805    3.4625    8.9756 C   0  0  0  0  0  0  0  0  0  0  0  0
   46.2504    1.6072    7.9332 C   0  0  0  0  0  0  0  0  0  0  0  0
   46.8567    2.5542    7.0984 C   0  0  0  0  0  0  0  0  0  0  0  0
   46.6575    0.3045    7.9963 O   0  0  0  0  0  0  0  0  0  0  0  0
   48.0094    2.2138    6.2000 C   0  0  0  0  0  0  0  0  0  0  0  0
   45.1808    1.9542    8.7570 C   0  0  0  0  0  0  0  0  0  0  0  0
   46.3582    3.8667    7.1122 C   0  0  0  0  0  0  0  0  0  0  0  0
   45.2863    4.2174    7.9369 C   0  0  0  0  0  0  0  0  0  0  0  0
   44.6973    3.2607    8.7596 C   0  0  0  0  0  0  0  0  0  0  0  0
   45.2483    2.6745    8.9490 C   0  0  0  0  0  0  0  0  0  0  0  0
   46.9476    2.4357    6.7455 C   0  0  0  0  0  0  0  0  0  0  0  0
   45.6245    1.4134    8.5041 C   0  0  0  0  0  0  0  0  0  0  0  0
   45.7150    3.8215    8.3156 C   0  0  0  0  0  0  0  0  0  0  0  0
   46.4780    1.2930    7.4062 C   0  0  0  0  0  0  0  0  0  0  0  0
   46.5692    3.7002    7.2168 C   0  0  0  0  0  0  0  0  0  0  0  0
   44.4136    2.7464   10.0249 O   0  0  0  0  0  0  0  0  0  0  0  0
   47.8917    2.3078    5.5867 C   0  0  0  0  0  0  0  0  0  0  0  0
   46.2014    4.5258    6.9128 H   0  0  0  0  0  0  0  0  0  0  0  0
   47.7088    4.4005    5.2484 H   0  0  0  0  0  0  0  0  0  0  0  0
   47.2694   -0.2663    7.6572 H   0  0  0  0  0  0  0  0  0  0  0  0
   48.4070    0.9941    5.8439 H   0  0  0  0  0  0  0  0  0  0  0  0
   45.6014    0.8595    9.0922 H   0  0  0  0  0  0  0  0  0  0  0  0
   44.2595    4.2590    8.4340 H   0  0  0  0  0  0  0  0  0  0  0  0
   44.0189    2.7621    9.3337 H   0  0  0  0  0  0  0  0  0  0  0  0
   45.2944    3.8981    9.8380 H   0  0  0  0  0  0  0  0  0  0  0  0
   47.4008    0.1721    7.3889 H   0  0  0  0  0  0  0  0  0  0  0  0
   47.7158    1.4395    5.4840 H   0  0  0  0  0  0  0  0  0  0  0  0
   48.3456    3.0839    5.6261 H   0  0  0  0  0  0  0  0  0  0  0  0
   48.8595    1.8602    6.7920 H   0  0  0  0  0  0  0  0  0  0  0  0
   44.7253    1.2035    9.3968 H   0  0  0  0  0  0  0  0  0  0  0  0
   46.8025    4.6308    6.4779 H   0  0  0  0  0  0  0  0  0  0  0  0
   44.9117    5.2377    7.9361 H   0  0  0  0  0  0  0  0  0  0  0  0
   43.8637    3.5301    9.4019 H   0  0  0  0  0  0  0  0  0  0  0  0
   45.2574    0.5262    9.0116 H   0  0  0  0  0  0  0  0  0  0  0  0
   45.4312    4.8106    8.6600 H   0  0  0  0  0  0  0  0  0  0  0  0
   46.7729    0.3019    7.0700 H   0  0  0  0  0  0  0  0  0  0  0  0
   46.9384    4.5991    6.7283 H   0  0  0  0  0  0  0  0  0  0  0  0
   44.2395    3.6822   10.2166 H   0  0  0  0  0  0  0  0  0  0  0  0
   47.7011    1.3856    5.0277 H   0  0  0  0  0  0  0  0  0  0  0  0
   48.9253    2.2970    5.9459 H   0  0  0  0  0  0  0  0  0  0  0  0
   47.7678    3.1420    4.8883 H   0  0  0  0  0  0  0  0  0  0  0  0
  2  1  2  0
  3  1  1  0
  4  2  1  0
  5  7  1  0
  6  2  1  0
  7  3  2  0
  8  3  1  0
  6  5  2  0
 10  9  2  0
 11  9  1  0
 12 10  1  0
 13  9  1  0
 14 10  1  0
 15 14  2  0
 16 13  2  0
 16 15  1  0
 18 21  2  0
 19 17  2  0
 20 17  1  0
 21 19  1  0
 22 20  2  0
 23 17  1  0
 24 18  1  0
 22 18  1  0
  1 25  1  0
  4 26  1  0
  5 27  1  0
  6 28  1  0
  7 29  1  0
  8 30  1  0
  8 31  1  0
  8 32  1  0
 11 33  1  0
 12 34  1  0
 12 35  1  0
 12 36  1  0
 13 37  1  0
 14 38  1  0
 15 39  1  0
 16 40  1  0
 19 41  1  0
 20 42  1  0
 21 43  1  0
 22 44  1  0
 23 45  1  0
 24 46  1  0
 24 47  1  0
 24 48  1  0
M  END
> <Uni-Dock RESULT> 
ENERGY=  -14.408  LOWER_BOUND=    0.001  UPPER_BOUND=    0.001
INTER + INTRA:         -14.408
INTER:                 -14.408
INTRA:                   0.000
UNBOUND:                 0.000

$$$$

     RDKit          3D

 48 48  0  0  0  0  0  0  0  0999 V2000
   46.2073    3.6336    7.4764 C   0  0  0  0  0  0  0  0  0  0  0  0
   45.2324    3.4567    8.4559 C   0  0  0  0  0  0  0  0  0  0  0  0
   46.9183    2.5267    6.9929 C   0  0  0  0  0  0  0  0  0  0  0  0
   44.5267    4.5125    8.9537 O   0  0  0  0  0  0  0  0  0  0  0  0
   45.6370    1.0861    8.4705 C   0  0  0  0  0  0  0  0  0  0  0  0
   44.9446    2.1932    8.9569 C   0  0  0  0  0  0  0  0  0  0  0  0
   46.6164    1.2509    7.4888 C   0  0  0  0  0  0  0  0  0  0  0  0
   47.9470    2.6961    5.9142 C   0  0  0  0  0  0  0  0  0  0  0  0
   46.4354    1.5925    7.6992 C   0  0  0  0  0  0  0  0  0  0  0  0
   45.7849    2.8152    7.9069 C   0  0  0  0  0  0  0  0  0  0  0  0
   46.0373    0.4293    8.2954 O   0  0  0  0  0  0  0  0  0  0  0  0
   44.5909    2.9487    8.8059 C   0  0  0  0  0  0  0  0  0  0  0  0
   47.5427    1.5004    6.8575 C   0  0  0  0  0  0  0  0  0  0  0  0
   46.2781    3.9501    7.2435 C   0  0  0  0  0  0  0  0  0  0  0  0
   47.3877    3.8609    6.3993 C   0  0  0  0  0  0  0  0  0  0  0  0
   48.0203    2.6355    6.2063 C   0  0  0  0  0  0  0  0  0  0  0  0
   47.4818    2.0193    6.3215 C   0  0  0  0  0  0  0  0  0  0  0  0
   45.6773    2.8910    8.2667 C   0  0  0  0  0  0  0  0  0  0  0  0
   47.0893    1.1523    7.3335 C   0  0  0  0  0  0  0  0  0  0  0  0
   46.9798    3.3150    6.2596 C   0  0  0  0  0  0  0  0  0  0  0  0
   46.1835    1.5852    8.3032 C   0  0  0  0  0  0  0  0  0  0  0  0
   46.0732    3.7475    7.2304 C   0  0  0  0  0  0  0  0  0  0  0  0
   48.3679    1.5554    5.3947 O   0  0  0  0  0  0  0  0  0  0  0  0
   44.6780    3.3460    9.2889 C   0  0  0  0  0  0  0  0  0  0  0  0
   46.4222    4.6228    7.0836 H   0  0  0  0  0  0  0  0  0  0  0  0
   44.8353    5.3222    8.5159 H   0  0  0  0  0  0  0  0  0  0  0  0
   45.4119    0.0946    8.8539 H   0  0  0  0  0  0  0  0  0  0  0  0
   44.1813    2.0712    9.7196 H   0  0  0  0  0  0  0  0  0  0  0  0
   47.1436    0.3766    7.1132 H   0  0  0  0  0  0  0  0  0  0  0  0
   48.4375    3.6721    5.9924 H   0  0  0  0  0  0  0  0  0  0  0  0
   48.7282    1.9333    5.9958 H   0  0  0  0  0  0  0  0  0  0  0  0
   47.4743    2.6151    4.9306 H   0  0  0  0  0  0  0  0  0  0  0  0
   45.2656    0.6046    8.8546 H   0  0  0  0  0  0  0  0  0  0  0  0
   44.8522    2.6576    9.8284 H   0  0  0  0  0  0  0  0  0  0  0  0
   44.2233    3.9798    8.8398 H   0  0  0  0  0  0  0  0  0  0  0  0
   43.7723    2.3180    8.4447 H   0  0  0  0  0  0  0  0  0  0  0  0
   48.0322    0.5417    6.7108 H   0  0  0  0  0  0  0  0  0  0  0  0
   45.8000    4.9180    7.3791 H   0  0  0  0  0  0  0  0  0  0  0  0
   47.7576    4.7487    5.8929 H   0  0  0  0  0  0  0  0  0  0  0  0
   48.8834    2.5628    5.5505 H   0  0  0  0  0  0  0  0  0  0  0  0
   47.4846    0.1412    7.3666 H   0  0  0  0  0  0  0  0  0  0  0  0
   47.2761    3.9970    5.4693 H   0  0  0  0  0  0  0  0  0  0  0  0
   45.8766    0.8969    9.0870 H   0  0  0  0  0  0  0  0  0  0  0  0
   45.6767    4.7589    7.1749 H   0  0  0  0  0  0  0  0  0  0  0  0
   48.5474    2.2665    4.7584 H   0  0  0  0  0  0  0  0  0  0  0  0
   44.8447    2.8448   10.2482 H   0  0  0  0  0  0  0  0  0  0  0  0
   43.6633    3.1237    8.9447 H   0  0  0  0  0  0  0  0  0  0  0  0
   44.7639    4.4232    9.4665 H   0  0  0  0  0  0  0  0  0  0  0  0
  2  1  2  0
  3  1  1  0
  4  2  1  0
  5  7  1  0
  6  2  1  0
  7  3  2  0
  8  3  1  0
  6  5  2  0
 10  9  2  0
 11  9  1  0
 12 10  1  0
 13  9  1  0
 14 10  1  0
 15 14  2  0
 16 13  2  0
 16 15  1  0
 18 21  2  0
 19 17  2  0
 20 17  1  0
 21 19  1  0
 22 20  2  0
 23 17  1  0
 24 18  1  0
 22 18  1  0
  1 25  1  0
  4 26  1  0
  5 27  1  0
  6 28  1  0
  7 29  1  0
  8 30  1  0
  8 31  1  0
  8 32  1  0
 11 33  1  0
 12 34  1  0
 12 35  1  0
 12 36  1  0
 13 37  1  0
 14 38  1  0
 15 39  1  0
 16 40  1  0
 19 41  1  0
 20 42  1  0
 21 43  1  0
 22 44  1  0
 23 45  1  0
 24 46  1  0
 24 47  1  0
 24 48  1  0
M  END
> <Uni-Dock RESULT> 
ENERGY=  -14.238  LOWER_BOUND=    0.727  UPPER_BOUND=    3.056
INTER + INTRA:         -14.238
INTER:                 -14.238
INTRA:                   0.000
UNBOUND:                 0.000

$$$$

     RDKit          3D

 48 48  0  0  0  0  0  0  0  0999 V2000
   46.0005    1.5941    8.0532 C   0  0  0  0  0  0  0  0  0  0  0  0
   45.0911    2.1842    8.9284 C   0  0  0  0  0  0  0  0  0  0  0  0
   46.7787    2.3991    7.2100 C   0  0  0  0  0  0  0  0  0  0  0  0
   44.3131    1.4308    9.7578 O   0  0  0  0  0  0  0  0  0  0  0  0
   45.7299    4.3723    8.1620 C   0  0  0  0  0  0  0  0  0  0  0  0
   44.9492    3.5650    8.9868 C   0  0  0  0  0  0  0  0  0  0  0  0
   46.6448    3.7925    7.2806 C   0  0  0  0  0  0  0  0  0  0  0  0
   47.7864    1.7808    6.2865 C   0  0  0  0  0  0  0  0  0  0  0  0
   46.3464    3.5541    7.4993 C   0  0  0  0  0  0  0  0  0  0  0  0
   45.8029    2.5558    8.3173 C   0  0  0  0  0  0  0  0  0  0  0  0
   46.0838    4.8833    7.6761 O   0  0  0  0  0  0  0  0  0  0  0  0
   44.8828    2.8658    9.4615 C   0  0  0  0  0  0  0  0  0  0  0  0
   47.1986    3.2344    6.4436 C   0  0  0  0  0  0  0  0  0  0  0  0
   46.1394    1.2199    8.0464 C   0  0  0  0  0  0  0  0  0  0  0  0
   46.9934    0.8964    6.9890 C   0  0  0  0  0  0  0  0  0  0  0  0
   47.5232    1.9041    6.1872 C   0  0  0  0  0  0  0  0  0  0  0  0
   47.5719    2.6089    6.6161 C   0  0  0  0  0  0  0  0  0  0  0  0
   45.4343    2.5975    8.4136 C   0  0  0  0  0  0  0  0  0  0  0  0
   46.8285    3.7667    6.8082 C   0  0  0  0  0  0  0  0  0  0  0  0
   47.2701    1.4449    7.3153 C   0  0  0  0  0  0  0  0  0  0  0  0
   45.7634    3.7635    7.7102 C   0  0  0  0  0  0  0  0  0  0  0  0
   46.2039    1.4426    8.2179 C   0  0  0  0  0  0  0  0  0  0  0  0
   48.6039    2.6561    5.7261 O   0  0  0  0  0  0  0  0  0  0  0  0
   44.3112    2.6028    9.4081 C   0  0  0  0  0  0  0  0  0  0  0  0
   46.1120    0.5147    8.0179 H   0  0  0  0  0  0  0  0  0  0  0  0
   44.5184    0.4943    9.6049 H   0  0  0  0  0  0  0  0  0  0  0  0
   45.6279    5.4532    8.2076 H   0  0  0  0  0  0  0  0  0  0  0  0
   44.2366    4.0101    9.6748 H   0  0  0  0  0  0  0  0  0  0  0  0
   47.2529    4.4356    6.6480 H   0  0  0  0  0  0  0  0  0  0  0  0
   47.4528    0.7939    5.9490 H   0  0  0  0  0  0  0  0  0  0  0  0
   47.9283    2.3979    5.3932 H   0  0  0  0  0  0  0  0  0  0  0  0
   48.7472    1.6737    6.7991 H   0  0  0  0  0  0  0  0  0  0  0  0
   45.4858    4.9933    8.4307 H   0  0  0  0  0  0  0  0  0  0  0  0
   43.9827    3.3715    9.0974 H   0  0  0  0  0  0  0  0  0  0  0  0
   44.5632    1.9564    9.9814 H   0  0  0  0  0  0  0  0  0  0  0  0
   45.3893    3.5036   10.1928 H   0  0  0  0  0  0  0  0  0  0  0  0
   47.6090    4.0248    5.8214 H   0  0  0  0  0  0  0  0  0  0  0  0
   45.7374    0.4159    8.6594 H   0  0  0  0  0  0  0  0  0  0  0  0
   47.2442   -0.1427    6.7920 H   0  0  0  0  0  0  0  0  0  0  0  0
   48.1875    1.6559    5.3642 H   0  0  0  0  0  0  0  0  0  0  0  0
   47.0786    4.6703    6.2601 H   0  0  0  0  0  0  0  0  0  0  0  0
   47.8491    0.5378    7.1760 H   0  0  0  0  0  0  0  0  0  0  0  0
   45.1922    4.6767    7.8594 H   0  0  0  0  0  0  0  0  0  0  0  0
   45.9753    0.5329    8.7687 H   0  0  0  0  0  0  0  0  0  0  0  0
   49.0249    1.7816    5.6973 H   0  0  0  0  0  0  0  0  0  0  0  0
   43.5277    3.3068    9.1086 H   0  0  0  0  0  0  0  0  0  0  0  0
   44.6869    2.8898   10.3949 H   0  0  0  0  0  0  0  0  0  0  0  0
   43.8480    1.6131    9.4793 H   0  0  0  0  0  0  0  0  0  0  0  0
  2  1  2  0
  3  1  1  0
  4  2  1  0
  5  7  1  0
  6  2  1  0
  7  3  2  0
  8  3  1  0
  6  5  2  0
 10  9  2  0
 11  9  1  0
 12 10  1  0
 13  9  1  0
 14 10  1  0
 15 14  2  0
 16 13  2  0
 16 15  1  0
 18 21  2  0
 19 17  2  0
 20 17  1  0
 21 19  1  0
 22 20  2  0
 23 17  1  0
 24 18  1  0
 22 18  1  0
  1 25  1  0
  4 26  1  0
  5 27  1  0
  6 28  1  0
  7 29  1  0
  8 30  1  0
  8 31  1  0
  8 32  1  0
 11 33  1  0
 12 34  1  0
 12 35  1  0
 12 36  1  0
 13 37  1  0
 14 38  1  0
 15 39  1  0
 16 40  1  0
 19 41  1  0
 20 42  1  0
 21 43  1  0
 22 44  1  0
 23 45  1  0
 24 46  1  0
 24 47  1  0
 24 48  1  0
M  END
> <Uni-Dock RESULT> 
ENERGY=  -14.218  LOWER_BOUND=    0.899  UPPER_BOUND=    3.691
INTER + INTRA:         -14.218
INTER:                 -14.218
INTRA:                   0.000
UNBOUND:                 0.000

$$$$
