
     RDKit          3D

 48 48  0  0  0  0  0  0  0  0999 V2000
   46.1542    3.5959    7.4896 C   0  0  0  0  0  0  0  0  0  0  0  0
   45.1635    3.2691    8.4131 C   0  0  0  0  0  0  0  0  0  0  0  0
   46.9574    2.5859    6.9427 C   0  0  0  0  0  0  0  0  0  0  0  0
   44.3595    4.2259    8.9599 O   0  0  0  0  0  0  0  0  0  0  0  0
   45.7683    0.9453    8.2822 C   0  0  0  0  0  0  0  0  0  0  0  0
   44.9640    1.9531    8.8106 C   0  0  0  0  0  0  0  0  0  0  0  0
   46.7646    1.2605    7.3559 C   0  0  0  0  0  0  0  0  0  0  0  0
   48.0507    2.9256    5.9732 C   0  0  0  0  0  0  0  0  0  0  0  0
   46.4700    3.6378    7.3760 C   0  0  0  0  0  0  0  0  0  0  0  0
   45.9988    2.5099    8.0593 C   0  0  0  0  0  0  0  0  0  0  0  0
   46.2695    4.9136    7.8223 O   0  0  0  0  0  0  0  0  0  0  0  0
   45.2307    2.6105    9.3444 C   0  0  0  0  0  0  0  0  0  0  0  0
   47.1810    3.5117    6.1836 C   0  0  0  0  0  0  0  0  0  0  0  0
   46.2614    1.2443    7.5110 C   0  0  0  0  0  0  0  0  0  0  0  0
   46.9736    1.1149    6.3160 C   0  0  0  0  0  0  0  0  0  0  0  0
   47.4336    2.2491    5.6521 C   0  0  0  0  0  0  0  0  0  0  0  0
   47.6680    2.4024    6.2963 C   0  0  0  0  0  0  0  0  0  0  0  0
   45.6293    2.6274    8.1918 C   0  0  0  0  0  0  0  0  0  0  0  0
   47.5879    1.4811    7.3330 C   0  0  0  0  0  0  0  0  0  0  0  0
   46.7498    3.4422    6.1954 C   0  0  0  0  0  0  0  0  0  0  0  0
   46.5727    1.5958    8.2837 C   0  0  0  0  0  0  0  0  0  0  0  0
   45.7338    3.5562    7.1475 C   0  0  0  0  0  0  0  0  0  0  0  0
   48.6756    2.2537    5.3897 O   0  0  0  0  0  0  0  0  0  0  0  0
   44.5583    2.7710    9.2323 C   0  0  0  0  0  0  0  0  0  0  0  0
   46.3100    4.6276    7.1889 H   0  0  0  0  0  0  0  0  0  0  0  0
   44.6114    5.0873    8.5895 H   0  0  0  0  0  0  0  0  0  0  0  0
   45.6212   -0.0852    8.5941 H   0  0  0  0  0  0  0  0  0  0  0  0
   44.1882    1.7141    9.5320 H   0  0  0  0  0  0  0  0  0  0  0  0
   47.3897    0.4643    6.9575 H   0  0  0  0  0  0  0  0  0  0  0  0
   48.9767    3.1419    6.5145 H   0  0  0  0  0  0  0  0  0  0  0  0
   47.7803    3.7989    5.3702 H   0  0  0  0  0  0  0  0  0  0  0  0
   48.2304    2.0966    5.2806 H   0  0  0  0  0  0  0  0  0  0  0  0
   45.7689    4.8870    8.6516 H   0  0  0  0  0  0  0  0  0  0  0  0
   45.8392    3.0993   10.1120 H   0  0  0  0  0  0  0  0  0  0  0  0
   44.3089    3.1808    9.1911 H   0  0  0  0  0  0  0  0  0  0  0  0
   44.9487    1.6233    9.7256 H   0  0  0  0  0  0  0  0  0  0  0  0
   47.5374    4.4003    5.6700 H   0  0  0  0  0  0  0  0  0  0  0  0
   45.9118    0.3441    8.0121 H   0  0  0  0  0  0  0  0  0  0  0  0
   47.1689    0.1281    5.9044 H   0  0  0  0  0  0  0  0  0  0  0  0
   47.9878    2.1520    4.7227 H   0  0  0  0  0  0  0  0  0  0  0  0
   48.3152    0.6774    7.4031 H   0  0  0  0  0  0  0  0  0  0  0  0
   46.8083    4.1698    5.3925 H   0  0  0  0  0  0  0  0  0  0  0  0
   46.5226    0.8742    9.0958 H   0  0  0  0  0  0  0  0  0  0  0  0
   45.0218    4.3749    7.0702 H   0  0  0  0  0  0  0  0  0  0  0  0
   48.6028    2.9627    4.7304 H   0  0  0  0  0  0  0  0  0  0  0  0
   43.6574    3.2242    8.8054 H   0  0  0  0  0  0  0  0  0  0  0  0
   44.9162    3.4000   10.0531 H   0  0  0  0  0  0  0  0  0  0  0  0
   44.2705    1.7938    9.6341 H   0  0  0  0  0  0  0  0  0  0  0  0
  2  1  2  0
  3  1  1  0
  4  2  1  0
  5  7  1  0
  6  2  1  0
  7  3  2  0
  8  3  1  0
  6  5  2  0
 10  9  2  0
 11  9  1  0
 12 10  1  0
 13  9  1  0
 14 10  1  0
 15 14  2  0
 16 13  2  0
 16 15  1  0
 18 21  2  0
 19 17  2  0
 20 17  1  0
 21 19  1  0
 22 20  2  0
 23 17  1  0
 24 18  1  0
 22 18  1  0
  1 25  1  0
  4 26  1  0
  5 27  1  0
  6 28  1  0
  7 29  1  0
  8 30  1  0
  8 31  1  0
  8 32  1  0
 11 33  1  0
 12 34  1  0
 12 35  1  0
 12 36  1  0
 13 37  1  0
 14 38  1  0
 15 39  1  0
 16 40  1  0
 19 41  1  0
 20 42  1  0
 21 43  1  0
 22 44  1  0
 23 45  1  0
 24 46  1  0
 24 47  1  0
 24 48  1  0
M  END
> <Uni-Dock RESULT> 
ENERGY=  -11.621  LOWER_BOUND=    0.000  UPPER_BOUND=    0.000
INTER + INTRA:         -11.621
INTER:                 -11.621
INTRA:                   0.000
UNBOUND:                 0.000

$$$$

     RDKit          3D

 48 48  0  0  0  0  0  0  0  0999 V2000
   46.5111    3.5921    7.1631 C   0  0  0  0  0  0  0  0  0  0  0  0
   47.4064    2.6267    6.7071 C   0  0  0  0  0  0  0  0  0  0  0  0
   45.5428    3.2493    8.1166 C   0  0  0  0  0  0  0  0  0  0  0  0
   48.3655    2.9274    5.7849 O   0  0  0  0  0  0  0  0  0  0  0  0
   46.3791    0.9688    8.1140 C   0  0  0  0  0  0  0  0  0  0  0  0
   47.3485    1.3206    7.1768 C   0  0  0  0  0  0  0  0  0  0  0  0
   45.4763    1.9276    8.5785 C   0  0  0  0  0  0  0  0  0  0  0  0
   44.5501    4.2686    8.5920 C   0  0  0  0  0  0  0  0  0  0  0  0
   46.2109    3.7434    7.1993 C   0  0  0  0  0  0  0  0  0  0  0  0
   46.4500    2.3725    7.3553 C   0  0  0  0  0  0  0  0  0  0  0  0
   46.6390    4.4528    6.1128 O   0  0  0  0  0  0  0  0  0  0  0  0
   47.2002    1.5657    6.3364 C   0  0  0  0  0  0  0  0  0  0  0  0
   45.5103    4.4659    8.1640 C   0  0  0  0  0  0  0  0  0  0  0  0
   45.9647    1.7416    8.5120 C   0  0  0  0  0  0  0  0  0  0  0  0
   45.2624    2.4632    9.4805 C   0  0  0  0  0  0  0  0  0  0  0  0
   45.0351    3.8259    9.3063 C   0  0  0  0  0  0  0  0  0  0  0  0
   44.8220    3.6026    8.6753 C   0  0  0  0  0  0  0  0  0  0  0  0
   46.8326    2.3269    7.2157 C   0  0  0  0  0  0  0  0  0  0  0  0
   44.7095    2.2481    8.3879 C   0  0  0  0  0  0  0  0  0  0  0  0
   45.9206    4.3344    8.2371 C   0  0  0  0  0  0  0  0  0  0  0  0
   45.7110    1.6108    7.6540 C   0  0  0  0  0  0  0  0  0  0  0  0
   46.9227    3.6958    7.5025 C   0  0  0  0  0  0  0  0  0  0  0  0
   43.8208    4.1855    9.3944 O   0  0  0  0  0  0  0  0  0  0  0  0
   47.8927    1.6503    6.3980 C   0  0  0  0  0  0  0  0  0  0  0  0
   46.5569    4.6094    6.7861 H   0  0  0  0  0  0  0  0  0  0  0  0
   48.2862    3.8673    5.5544 H   0  0  0  0  0  0  0  0  0  0  0  0
   46.3249   -0.0527    8.4804 H   0  0  0  0  0  0  0  0  0  0  0  0
   48.0527    0.5792    6.8113 H   0  0  0  0  0  0  0  0  0  0  0  0
   44.7203    1.6367    9.3046 H   0  0  0  0  0  0  0  0  0  0  0  0
   43.6715    4.2677    7.9398 H   0  0  0  0  0  0  0  0  0  0  0  0
   44.9901    5.2715    8.5925 H   0  0  0  0  0  0  0  0  0  0  0  0
   44.2306    4.0544    9.6173 H   0  0  0  0  0  0  0  0  0  0  0  0
   47.1108    3.8592    5.5094 H   0  0  0  0  0  0  0  0  0  0  0  0
   46.6805    1.5943    5.3733 H   0  0  0  0  0  0  0  0  0  0  0  0
   48.2152    1.9578    6.2154 H   0  0  0  0  0  0  0  0  0  0  0  0
   47.2853    0.5154    6.6348 H   0  0  0  0  0  0  0  0  0  0  0  0
   45.3360    5.5289    8.0227 H   0  0  0  0  0  0  0  0  0  0  0  0
   46.1303    0.6779    8.6695 H   0  0  0  0  0  0  0  0  0  0  0  0
   44.8930    1.9604   10.3705 H   0  0  0  0  0  0  0  0  0  0  0  0
   44.4892    4.3899   10.0575 H   0  0  0  0  0  0  0  0  0  0  0  0
   43.8433    1.6899    8.7313 H   0  0  0  0  0  0  0  0  0  0  0  0
   46.0139    5.3940    8.4518 H   0  0  0  0  0  0  0  0  0  0  0  0
   45.6104    0.5520    7.4275 H   0  0  0  0  0  0  0  0  0  0  0  0
   47.7768    4.2726    7.1546 H   0  0  0  0  0  0  0  0  0  0  0  0
   44.0371    5.1240    9.5172 H   0  0  0  0  0  0  0  0  0  0  0  0
   48.8700    2.1156    6.5637 H   0  0  0  0  0  0  0  0  0  0  0  0
   47.6444    1.7175    5.3344 H   0  0  0  0  0  0  0  0  0  0  0  0
   47.9850    0.5947    6.6745 H   0  0  0  0  0  0  0  0  0  0  0  0
  2  1  2  0
  3  1  1  0
  4  2  1  0
  5  7  1  0
  6  2  1  0
  7  3  2  0
  8  3  1  0
  6  5  2  0
 10  9  2  0
 11  9  1  0
 12 10  1  0
 13  9  1  0
 14 10  1  0
 15 14  2  0
 16 13  2  0
 16 15  1  0
 18 21  2  0
 19 17  2  0
 20 17  1  0
 21 19  1  0
 22 20  2  0
 23 17  1  0
 24 18  1  0
 22 18  1  0
  1 25  1  0
  4 26  1  0
  5 27  1  0
  6 28  1  0
  7 29  1  0
  8 30  1  0
  8 31  1  0
  8 32  1  0
 11 33  1  0
 12 34  1  0
 12 35  1  0
 12 36  1  0
 13 37  1  0
 14 38  1  0
 15 39  1  0
 16 40  1  0
 19 41  1  0
 20 42  1  0
 21 43  1  0
 22 44  1  0
 23 45  1  0
 24 46  1  0
 24 47  1  0
 24 48  1  0
M  END
> <Uni-Dock RESULT> 
ENERGY=  -11.206  LOWER_BOUND=    0.778  UPPER_BOUND=    3.143
INTER + INTRA:         -11.206
INTER:                 -11.206
INTRA:                   0.000
UNBOUND:                 0.000

$$$$

     RDKit          3D

 48 48  0  0  0  0  0  0  0  0999 V2000
   46.4722    1.5734    7.7564 C   0  0  0  0  0  0  0  0  0  0  0  0
   47.2340    1.8151    6.6152 C   0  0  0  0  0  0  0  0  0  0  0  0
   45.7346    2.6152    8.3353 C   0  0  0  0  0  0  0  0  0  0  0  0
   47.9583    0.8229    6.0220 O   0  0  0  0  0  0  0  0  0  0  0  0
   46.5640    4.1247    6.6226 C   0  0  0  0  0  0  0  0  0  0  0  0
   47.2830    3.0806    6.0442 C   0  0  0  0  0  0  0  0  0  0  0  0
   45.7969    3.8947    7.7666 C   0  0  0  0  0  0  0  0  0  0  0  0
   44.9368    2.3791    9.5836 C   0  0  0  0  0  0  0  0  0  0  0  0
   46.3889    1.5951    8.0835 C   0  0  0  0  0  0  0  0  0  0  0  0
   46.7469    2.6744    7.2661 C   0  0  0  0  0  0  0  0  0  0  0  0
   47.1258    0.4472    8.1623 O   0  0  0  0  0  0  0  0  0  0  0  0
   47.9758    2.6585    6.4051 C   0  0  0  0  0  0  0  0  0  0  0  0
   45.2405    1.6401    8.8724 C   0  0  0  0  0  0  0  0  0  0  0  0
   45.9170    3.8069    7.2612 C   0  0  0  0  0  0  0  0  0  0  0  0
   44.7655    3.8547    8.0508 C   0  0  0  0  0  0  0  0  0  0  0  0
   44.4271    2.7708    8.8568 C   0  0  0  0  0  0  0  0  0  0  0  0
   45.1004    2.8362    9.0462 C   0  0  0  0  0  0  0  0  0  0  0  0
   46.8852    2.4931    6.9256 C   0  0  0  0  0  0  0  0  0  0  0  0
   45.8716    3.9086    8.6159 C   0  0  0  0  0  0  0  0  0  0  0  0
   45.2125    1.5898    8.4393 C   0  0  0  0  0  0  0  0  0  0  0  0
   46.7677    3.7368    7.5597 C   0  0  0  0  0  0  0  0  0  0  0  0
   46.1097    1.4187    7.3821 C   0  0  0  0  0  0  0  0  0  0  0  0
   44.2382    3.0476   10.0812 O   0  0  0  0  0  0  0  0  0  0  0  0
   47.8724    2.2992    5.8129 C   0  0  0  0  0  0  0  0  0  0  0  0
   46.4443    0.5836    8.2022 H   0  0  0  0  0  0  0  0  0  0  0  0
   47.8258    0.0031    6.5250 H   0  0  0  0  0  0  0  0  0  0  0  0
   46.6035    5.1182    6.1842 H   0  0  0  0  0  0  0  0  0  0  0  0
   47.8821    3.2536    5.1551 H   0  0  0  0  0  0  0  0  0  0  0  0
   45.2467    4.7210    8.2114 H   0  0  0  0  0  0  0  0  0  0  0  0
   45.5617    2.5517   10.4651 H   0  0  0  0  0  0  0  0  0  0  0  0
   44.5553    1.3530    9.6150 H   0  0  0  0  0  0  0  0  0  0  0  0
   44.0710    3.0482    9.6265 H   0  0  0  0  0  0  0  0  0  0  0  0
   47.8959    0.5211    7.5788 H   0  0  0  0  0  0  0  0  0  0  0  0
   48.8707    2.5401    7.0244 H   0  0  0  0  0  0  0  0  0  0  0  0
   47.9210    1.8384    5.6820 H   0  0  0  0  0  0  0  0  0  0  0  0
   48.0861    3.5901    5.8400 H   0  0  0  0  0  0  0  0  0  0  0  0
   44.9816    0.7913    9.4993 H   0  0  0  0  0  0  0  0  0  0  0  0
   46.1614    4.6657    6.6395 H   0  0  0  0  0  0  0  0  0  0  0  0
   44.1332    4.7388    8.0361 H   0  0  0  0  0  0  0  0  0  0  0  0
   43.5324    2.8048    9.4721 H   0  0  0  0  0  0  0  0  0  0  0  0
   45.7782    4.8750    9.1027 H   0  0  0  0  0  0  0  0  0  0  0  0
   44.6186    0.7451    8.7728 H   0  0  0  0  0  0  0  0  0  0  0  0
   47.3725    4.5802    7.2349 H   0  0  0  0  0  0  0  0  0  0  0  0
   46.2007    0.4408    6.9146 H   0  0  0  0  0  0  0  0  0  0  0  0
   43.7718    2.2166   10.2672 H   0  0  0  0  0  0  0  0  0  0  0  0
   47.5251    1.5330    5.1119 H   0  0  0  0  0  0  0  0  0  0  0  0
   48.8405    1.9930    6.2209 H   0  0  0  0  0  0  0  0  0  0  0  0
   48.0048    3.2246    5.2425 H   0  0  0  0  0  0  0  0  0  0  0  0
  2  1  2  0
  3  1  1  0
  4  2  1  0
  5  7  1  0
  6  2  1  0
  7  3  2  0
  8  3  1  0
  6  5  2  0
 10  9  2  0
 11  9  1  0
 12 10  1  0
 13  9  1  0
 14 10  1  0
 15 14  2  0
 16 13  2  0
 16 15  1  0
 18 21  2  0
 19 17  2  0
 20 17  1  0
 21 19  1  0
 22 20  2  0
 23 17  1  0
 24 18  1  0
 22 18  1  0
  1 25  1  0
  4 26  1  0
  5 27  1  0
  6 28  1  0
  7 29  1  0
  8 30  1  0
  8 31  1  0
  8 32  1  0
 11 33  1  0
 12 34  1  0
 12 35  1  0
 12 36  1  0
 13 37  1  0
 14 38  1  0
 15 39  1  0
 16 40  1  0
 19 41  1  0
 20 42  1  0
 21 43  1  0
 22 44  1  0
 23 45  1  0
 24 46  1  0
 24 47  1  0
 24 48  1  0
M  END
> <Uni-Dock RESULT> 
ENERGY=  -10.842  LOWER_BOUND=    1.012  UPPER_BOUND=    3.665
INTER + INTRA:         -10.842
INTER:                 -10.842
INTRA:                   0.000
UNBOUND:                 0.000

$$$$

     RDKit          3D

 48 48  0  0  0  0  0  0  0  0999 V2000
   43.8923    3.1037   11.2388 C   0  0  0  0  0  0  0  0  0  0  0  0
   43.6555    3.9495   12.3204 C   0  0  0  0  0  0  0  0  0  0  0  0
   44.3382    3.6372   10.0218 C   0  0  0  0  0  0  0  0  0  0  0  0
   43.2277    3.4634   13.5210 O   0  0  0  0  0  0  0  0  0  0  0  0
   44.2743    5.8604   10.9980 C   0  0  0  0  0  0  0  0  0  0  0  0
   43.8452    5.3212   12.2091 C   0  0  0  0  0  0  0  0  0  0  0  0
   44.5149    5.0228    9.9068 C   0  0  0  0  0  0  0  0  0  0  0  0
   44.5649    2.7439    8.8381 C   0  0  0  0  0  0  0  0  0  0  0  0
   43.8369    2.9677   10.9342 C   0  0  0  0  0  0  0  0  0  0  0  0
   43.8423    4.3388   11.2191 C   0  0  0  0  0  0  0  0  0  0  0  0
   43.1265    2.0598   11.6677 O   0  0  0  0  0  0  0  0  0  0  0  0
   43.0642    4.9265   12.3595 C   0  0  0  0  0  0  0  0  0  0  0  0
   44.5705    2.4517    9.8670 C   0  0  0  0  0  0  0  0  0  0  0  0
   44.6081    5.1836   10.3998 C   0  0  0  0  0  0  0  0  0  0  0  0
   45.3444    4.6693    9.3297 C   0  0  0  0  0  0  0  0  0  0  0  0
   45.3255    3.3027    9.0632 C   0  0  0  0  0  0  0  0  0  0  0  0
   44.6333    3.4084    9.1179 C   0  0  0  0  0  0  0  0  0  0  0  0
   43.8523    4.3500   11.6285 C   0  0  0  0  0  0  0  0  0  0  0  0
   44.1046    4.6874    9.2389 C   0  0  0  0  0  0  0  0  0  0  0  0
   44.7704    2.5864   10.2315 C   0  0  0  0  0  0  0  0  0  0  0  0
   43.7090    5.1569   10.4923 C   0  0  0  0  0  0  0  0  0  0  0  0
   44.3743    3.0572   11.4857 C   0  0  0  0  0  0  0  0  0  0  0  0
   45.0064    2.9894    7.8751 O   0  0  0  0  0  0  0  0  0  0  0  0
   43.3960    4.8415   12.9704 C   0  0  0  0  0  0  0  0  0  0  0  0
   43.7348    2.0333   11.3301 H   0  0  0  0  0  0  0  0  0  0  0  0
   43.1434    2.4988   13.4496 H   0  0  0  0  0  0  0  0  0  0  0  0
   44.4183    6.9333   10.9031 H   0  0  0  0  0  0  0  0  0  0  0  0
   43.6555    5.9676   13.0609 H   0  0  0  0  0  0  0  0  0  0  0  0
   44.8425    5.4587    8.9655 H   0  0  0  0  0  0  0  0  0  0  0  0
   43.6386    2.6402    8.2649 H   0  0  0  0  0  0  0  0  0  0  0  0
   44.8977    1.7504    9.1567 H   0  0  0  0  0  0  0  0  0  0  0  0
   45.3427    3.1518    8.1839 H   0  0  0  0  0  0  0  0  0  0  0  0
   42.6568    2.5211   12.3789 H   0  0  0  0  0  0  0  0  0  0  0  0
   41.9952    4.7288   12.2304 H   0  0  0  0  0  0  0  0  0  0  0  0
   43.4025    4.4991   13.3090 H   0  0  0  0  0  0  0  0  0  0  0  0
   43.1942    6.0122   12.4212 H   0  0  0  0  0  0  0  0  0  0  0  0
   44.5520    1.3845    9.6639 H   0  0  0  0  0  0  0  0  0  0  0  0
   44.6380    6.2546   10.5890 H   0  0  0  0  0  0  0  0  0  0  0  0
   45.9323    5.3364    8.7046 H   0  0  0  0  0  0  0  0  0  0  0  0
   45.8969    2.8995    8.2317 H   0  0  0  0  0  0  0  0  0  0  0  0
   43.9977    5.3166    8.3600 H   0  0  0  0  0  0  0  0  0  0  0  0
   45.1767    1.5839   10.1454 H   0  0  0  0  0  0  0  0  0  0  0  0
   43.2893    6.1567   10.5758 H   0  0  0  0  0  0  0  0  0  0  0  0
   44.4756    2.4092   12.3535 H   0  0  0  0  0  0  0  0  0  0  0  0
   45.3554    2.0863    7.9473 H   0  0  0  0  0  0  0  0  0  0  0  0
   43.9934    4.3964   13.7731 H   0  0  0  0  0  0  0  0  0  0  0  0
   42.3444    4.5818   13.1261 H   0  0  0  0  0  0  0  0  0  0  0  0
   43.5079    5.9281   13.0472 H   0  0  0  0  0  0  0  0  0  0  0  0
  2  1  2  0
  3  1  1  0
  4  2  1  0
  5  7  1  0
  6  2  1  0
  7  3  2  0
  8  3  1  0
  6  5  2  0
 10  9  2  0
 11  9  1  0
 12 10  1  0
 13  9  1  0
 14 10  1  0
 15 14  2  0
 16 13  2  0
 16 15  1  0
 18 21  2  0
 19 17  2  0
 20 17  1  0
 21 19  1  0
 22 20  2  0
 23 17  1  0
 24 18  1  0
 22 18  1  0
  1 25  1  0
  4 26  1  0
  5 27  1  0
  6 28  1  0
  7 29  1  0
  8 30  1  0
  8 31  1  0
  8 32  1  0
 11 33  1  0
 12 34  1  0
 12 35  1  0
 12 36  1  0
 13 37  1  0
 14 38  1  0
 15 39  1  0
 16 40  1  0
 19 41  1  0
 20 42  1  0
 21 43  1  0
 22 44  1  0
 23 45  1  0
 24 46  1  0
 24 47  1  0
 24 48  1  0
M  END
> <Uni-Dock RESULT> 
ENERGY=   -8.752  LOWER_BOUND=    2.709  UPPER_BOUND=    4.703
INTER + INTRA:          -8.752
INTER:                  -8.752
INTRA:                   0.000
UNBOUND:                 0.000

$$$$
