
     RDKit          3D

 48 48  0  0  0  0  0  0  0  0999 V2000
   46.4938    3.6711    7.4136 C   0  0  0  0  0  0  0  0  0  0  0  0
   45.5261    3.7534    8.4100 C   0  0  0  0  0  0  0  0  0  0  0  0
   46.9080    2.4206    6.9389 C   0  0  0  0  0  0  0  0  0  0  0  0
   45.1532    4.9958    8.8318 O   0  0  0  0  0  0  0  0  0  0  0  0
   45.3813    1.3552    8.4987 C   0  0  0  0  0  0  0  0  0  0  0  0
   44.9632    2.6046    8.9562 C   0  0  0  0  0  0  0  0  0  0  0  0
   46.3527    1.2627    7.4988 C   0  0  0  0  0  0  0  0  0  0  0  0
   47.9750    2.3232    5.8897 C   0  0  0  0  0  0  0  0  0  0  0  0
   46.5592    3.6337    7.3843 C   0  0  0  0  0  0  0  0  0  0  0  0
   45.7568    2.6371    7.9537 C   0  0  0  0  0  0  0  0  0  0  0  0
   46.2835    4.9667    7.5029 O   0  0  0  0  0  0  0  0  0  0  0  0
   44.5218    2.9533    8.7450 C   0  0  0  0  0  0  0  0  0  0  0  0
   47.7012    3.3081    6.6541 C   0  0  0  0  0  0  0  0  0  0  0  0
   46.1330    1.2970    7.7699 C   0  0  0  0  0  0  0  0  0  0  0  0
   47.2770    0.9676    7.0386 C   0  0  0  0  0  0  0  0  0  0  0  0
   48.0614    1.9736    6.4804 C   0  0  0  0  0  0  0  0  0  0  0  0
   45.1479    2.9862    8.9715 C   0  0  0  0  0  0  0  0  0  0  0  0
   46.9080    2.5282    6.8519 C   0  0  0  0  0  0  0  0  0  0  0  0
   45.8629    1.7943    8.9194 C   0  0  0  0  0  0  0  0  0  0  0  0
   45.2924    3.9461    7.9778 C   0  0  0  0  0  0  0  0  0  0  0  0
   46.7389    1.5648    7.8556 C   0  0  0  0  0  0  0  0  0  0  0  0
   46.1677    3.7160    6.9153 C   0  0  0  0  0  0  0  0  0  0  0  0
   44.2819    3.2514    9.9909 O   0  0  0  0  0  0  0  0  0  0  0  0
   47.8233    2.2657    5.6928 C   0  0  0  0  0  0  0  0  0  0  0  0
   46.9213    4.5854    7.0102 H   0  0  0  0  0  0  0  0  0  0  0  0
   44.4775    4.8960    9.5219 H   0  0  0  0  0  0  0  0  0  0  0  0
   44.9535    0.4501    8.9220 H   0  0  0  0  0  0  0  0  0  0  0  0
   44.2085    2.6609    9.7338 H   0  0  0  0  0  0  0  0  0  0  0  0
   46.6735    0.2808    7.1580 H   0  0  0  0  0  0  0  0  0  0  0  0
   48.9616    2.2861    6.3616 H   0  0  0  0  0  0  0  0  0  0  0  0
   47.9376    3.1839    5.2136 H   0  0  0  0  0  0  0  0  0  0  0  0
   47.8408    1.4246    5.2784 H   0  0  0  0  0  0  0  0  0  0  0  0
   45.4752    5.0806    8.0251 H   0  0  0  0  0  0  0  0  0  0  0  0
   43.8008    3.4928    8.1225 H   0  0  0  0  0  0  0  0  0  0  0  0
   44.0300    2.0445    9.1078 H   0  0  0  0  0  0  0  0  0  0  0  0
   44.7771    3.5617    9.6186 H   0  0  0  0  0  0  0  0  0  0  0  0
   48.3093    4.0974    6.2210 H   0  0  0  0  0  0  0  0  0  0  0  0
   45.5354    0.4941    8.1967 H   0  0  0  0  0  0  0  0  0  0  0  0
   47.5547   -0.0748    6.9052 H   0  0  0  0  0  0  0  0  0  0  0  0
   48.9516    1.7210    5.9112 H   0  0  0  0  0  0  0  0  0  0  0  0
   45.7519    1.0364    9.6879 H   0  0  0  0  0  0  0  0  0  0  0  0
   44.7234    4.8700    8.0277 H   0  0  0  0  0  0  0  0  0  0  0  0
   47.2909    0.6284    7.8137 H   0  0  0  0  0  0  0  0  0  0  0  0
   46.2684    4.4701    6.1383 H   0  0  0  0  0  0  0  0  0  0  0  0
   44.2882    2.4980   10.6032 H   0  0  0  0  0  0  0  0  0  0  0  0
   48.6630    1.6307    5.9944 H   0  0  0  0  0  0  0  0  0  0  0  0
   48.2451    3.2004    5.3088 H   0  0  0  0  0  0  0  0  0  0  0  0
   47.2741    1.7678    4.8878 H   0  0  0  0  0  0  0  0  0  0  0  0
  2  1  2  0
  3  1  1  0
  4  2  1  0
  5  7  1  0
  6  2  1  0
  7  3  2  0
  8  3  1  0
  6  5  2  0
 10  9  2  0
 11  9  1  0
 12 10  1  0
 13  9  1  0
 14 10  1  0
 15 14  2  0
 16 13  2  0
 16 15  1  0
 18 21  2  0
 19 17  2  0
 20 17  1  0
 21 19  1  0
 22 20  2  0
 23 17  1  0
 24 18  1  0
 22 18  1  0
  1 25  1  0
  4 26  1  0
  5 27  1  0
  6 28  1  0
  7 29  1  0
  8 30  1  0
  8 31  1  0
  8 32  1  0
 11 33  1  0
 12 34  1  0
 12 35  1  0
 12 36  1  0
 13 37  1  0
 14 38  1  0
 15 39  1  0
 16 40  1  0
 19 41  1  0
 20 42  1  0
 21 43  1  0
 22 44  1  0
 23 45  1  0
 24 46  1  0
 24 47  1  0
 24 48  1  0
M  END
> <Uni-Dock RESULT> 
ENERGY=  -12.778  LOWER_BOUND=    0.000  UPPER_BOUND=    0.000
INTER + INTRA:         -12.778
INTER:                 -12.778
INTRA:                   0.000
UNBOUND:                 0.000

$$$$

     RDKit          3D

 48 48  0  0  0  0  0  0  0  0999 V2000
   46.1175    1.6825    8.1912 C   0  0  0  0  0  0  0  0  0  0  0  0
   47.0966    1.4879    7.2218 C   0  0  0  0  0  0  0  0  0  0  0  0
   45.4993    2.9319    8.3232 C   0  0  0  0  0  0  0  0  0  0  0  0
   47.6623    0.2500    7.1305 O   0  0  0  0  0  0  0  0  0  0  0  0
   46.8828    3.7756    6.5141 C   0  0  0  0  0  0  0  0  0  0  0  0
   47.4839    2.5243    6.3788 C   0  0  0  0  0  0  0  0  0  0  0  0
   45.8991    3.9806    7.4848 C   0  0  0  0  0  0  0  0  0  0  0  0
   44.4679    3.1588    9.3879 C   0  0  0  0  0  0  0  0  0  0  0  0
   46.0851    1.7309    8.2473 C   0  0  0  0  0  0  0  0  0  0  0  0
   46.5095    2.5661    7.2064 C   0  0  0  0  0  0  0  0  0  0  0  0
   46.3633    0.3937    8.2865 O   0  0  0  0  0  0  0  0  0  0  0  0
   47.3089    2.0581    6.0425 C   0  0  0  0  0  0  0  0  0  0  0  0
   45.3434    2.2328    9.3155 C   0  0  0  0  0  0  0  0  0  0  0  0
   46.1678    3.9266    7.2661 C   0  0  0  0  0  0  0  0  0  0  0  0
   45.4245    4.4325    8.3355 C   0  0  0  0  0  0  0  0  0  0  0  0
   45.0121    3.5851    9.3606 C   0  0  0  0  0  0  0  0  0  0  0  0
   47.5504    2.2024    6.6469 C   0  0  0  0  0  0  0  0  0  0  0  0
   45.4263    2.8181    8.3527 C   0  0  0  0  0  0  0  0  0  0  0  0
   47.3647    3.5162    7.0640 C   0  0  0  0  0  0  0  0  0  0  0  0
   46.6871    1.1960    7.0614 C   0  0  0  0  0  0  0  0  0  0  0  0
   46.2985    3.8231    7.9130 C   0  0  0  0  0  0  0  0  0  0  0  0
   45.6222    1.5035    7.9096 C   0  0  0  0  0  0  0  0  0  0  0  0
   48.5771    1.8583    5.8181 O   0  0  0  0  0  0  0  0  0  0  0  0
   44.2623    3.1551    9.2369 C   0  0  0  0  0  0  0  0  0  0  0  0
   45.8400    0.8564    8.8406 H   0  0  0  0  0  0  0  0  0  0  0  0
   48.3207    0.2650    6.4171 H   0  0  0  0  0  0  0  0  0  0  0  0
   47.1813    4.5951    5.8656 H   0  0  0  0  0  0  0  0  0  0  0  0
   48.2470    2.3801    5.6210 H   0  0  0  0  0  0  0  0  0  0  0  0
   45.4451    4.9643    7.5826 H   0  0  0  0  0  0  0  0  0  0  0  0
   44.9514    3.4851   10.3138 H   0  0  0  0  0  0  0  0  0  0  0  0
   43.9037    2.2416    9.5870 H   0  0  0  0  0  0  0  0  0  0  0  0
   43.7468    3.9220    9.0769 H   0  0  0  0  0  0  0  0  0  0  0  0
   46.8792    0.1515    7.5028 H   0  0  0  0  0  0  0  0  0  0  0  0
   46.7440    1.2934    5.4999 H   0  0  0  0  0  0  0  0  0  0  0  0
   47.5456    2.8590    5.3339 H   0  0  0  0  0  0  0  0  0  0  0  0
   48.2565    1.6342    6.3901 H   0  0  0  0  0  0  0  0  0  0  0  0
   45.0244    1.5668   10.1125 H   0  0  0  0  0  0  0  0  0  0  0  0
   46.4790    4.6074    6.4766 H   0  0  0  0  0  0  0  0  0  0  0  0
   45.1679    5.4882    8.3672 H   0  0  0  0  0  0  0  0  0  0  0  0
   44.4340    3.9752   10.1937 H   0  0  0  0  0  0  0  0  0  0  0  0
   48.0303    4.3096    6.7404 H   0  0  0  0  0  0  0  0  0  0  0  0
   46.8403    0.1752    6.7234 H   0  0  0  0  0  0  0  0  0  0  0  0
   46.1515    4.8528    8.2313 H   0  0  0  0  0  0  0  0  0  0  0  0
   44.9475    0.7102    8.2226 H   0  0  0  0  0  0  0  0  0  0  0  0
   49.0908    2.6573    5.6173 H   0  0  0  0  0  0  0  0  0  0  0  0
   44.4994    4.0029    9.8882 H   0  0  0  0  0  0  0  0  0  0  0  0
   44.0064    2.3102    9.8847 H   0  0  0  0  0  0  0  0  0  0  0  0
   43.3906    3.4103    8.6266 H   0  0  0  0  0  0  0  0  0  0  0  0
  2  1  2  0
  3  1  1  0
  4  2  1  0
  5  7  1  0
  6  2  1  0
  7  3  2  0
  8  3  1  0
  6  5  2  0
 10  9  2  0
 11  9  1  0
 12 10  1  0
 13  9  1  0
 14 10  1  0
 15 14  2  0
 16 13  2  0
 16 15  1  0
 18 21  2  0
 19 17  2  0
 20 17  1  0
 21 19  1  0
 22 20  2  0
 23 17  1  0
 24 18  1  0
 22 18  1  0
  1 25  1  0
  4 26  1  0
  5 27  1  0
  6 28  1  0
  7 29  1  0
  8 30  1  0
  8 31  1  0
  8 32  1  0
 11 33  1  0
 12 34  1  0
 12 35  1  0
 12 36  1  0
 13 37  1  0
 14 38  1  0
 15 39  1  0
 16 40  1  0
 19 41  1  0
 20 42  1  0
 21 43  1  0
 22 44  1  0
 23 45  1  0
 24 46  1  0
 24 47  1  0
 24 48  1  0
M  END
> <Uni-Dock RESULT> 
ENERGY=  -12.149  LOWER_BOUND=    1.650  UPPER_BOUND=    3.649
INTER + INTRA:         -12.149
INTER:                 -12.149
INTRA:                   0.000
UNBOUND:                 0.000

$$$$

     RDKit          3D

 48 48  0  0  0  0  0  0  0  0999 V2000
   46.1192    1.6813    8.1907 C   0  0  0  0  0  0  0  0  0  0  0  0
   47.0983    1.4876    7.2212 C   0  0  0  0  0  0  0  0  0  0  0  0
   45.4994    2.9299    8.3225 C   0  0  0  0  0  0  0  0  0  0  0  0
   47.6655    0.2504    7.1301 O   0  0  0  0  0  0  0  0  0  0  0  0
   46.8815    3.7748    6.5129 C   0  0  0  0  0  0  0  0  0  0  0  0
   47.4841    2.5243    6.3778 C   0  0  0  0  0  0  0  0  0  0  0  0
   45.8977    3.9788    7.4837 C   0  0  0  0  0  0  0  0  0  0  0  0
   44.4679    3.1558    9.3874 C   0  0  0  0  0  0  0  0  0  0  0  0
   46.0867    1.7296    8.2468 C   0  0  0  0  0  0  0  0  0  0  0  0
   46.5098    2.5650    7.2056 C   0  0  0  0  0  0  0  0  0  0  0  0
   46.3665    0.3927    8.2863 O   0  0  0  0  0  0  0  0  0  0  0  0
   47.3096    2.0578    6.0417 C   0  0  0  0  0  0  0  0  0  0  0  0
   45.3445    2.2308    9.3151 C   0  0  0  0  0  0  0  0  0  0  0  0
   46.1664    3.9251    7.2650 C   0  0  0  0  0  0  0  0  0  0  0  0
   45.4227    4.4304    8.3345 C   0  0  0  0  0  0  0  0  0  0  0  0
   45.0116    3.5828    9.3599 C   0  0  0  0  0  0  0  0  0  0  0  0
   47.5510    2.2025    6.6460 C   0  0  0  0  0  0  0  0  0  0  0  0
   45.4266    2.8160    8.3521 C   0  0  0  0  0  0  0  0  0  0  0  0
   47.3638    3.5162    7.0627 C   0  0  0  0  0  0  0  0  0  0  0  0
   46.6892    1.1951    7.0610 C   0  0  0  0  0  0  0  0  0  0  0  0
   46.2974    3.8220    7.9119 C   0  0  0  0  0  0  0  0  0  0  0  0
   45.6240    1.5015    7.9092 C   0  0  0  0  0  0  0  0  0  0  0  0
   48.5780    1.8595    5.8171 O   0  0  0  0  0  0  0  0  0  0  0  0
   44.2623    3.1518    9.2364 C   0  0  0  0  0  0  0  0  0  0  0  0
   45.8428    0.8549    8.8404 H   0  0  0  0  0  0  0  0  0  0  0  0
   48.3238    0.2660    6.4166 H   0  0  0  0  0  0  0  0  0  0  0  0
   47.1788    4.5946    5.8641 H   0  0  0  0  0  0  0  0  0  0  0  0
   48.2472    2.3808    5.6199 H   0  0  0  0  0  0  0  0  0  0  0  0
   45.4425    4.9620    7.5814 H   0  0  0  0  0  0  0  0  0  0  0  0
   44.9512    3.4830   10.3131 H   0  0  0  0  0  0  0  0  0  0  0  0
   43.9050    2.2379    9.5868 H   0  0  0  0  0  0  0  0  0  0  0  0
   43.7458    3.9180    9.0763 H   0  0  0  0  0  0  0  0  0  0  0  0
   46.8826    0.1510    7.5026 H   0  0  0  0  0  0  0  0  0  0  0  0
   46.7456    1.2922    5.4994 H   0  0  0  0  0  0  0  0  0  0  0  0
   47.5451    2.8587    5.3329 H   0  0  0  0  0  0  0  0  0  0  0  0
   48.2579    1.6351    6.3892 H   0  0  0  0  0  0  0  0  0  0  0  0
   45.0266    1.5647   10.1123 H   0  0  0  0  0  0  0  0  0  0  0  0
   46.4767    4.6062    6.4753 H   0  0  0  0  0  0  0  0  0  0  0  0
   45.1649    5.4858    8.3659 H   0  0  0  0  0  0  0  0  0  0  0  0
   44.4332    3.9724   10.1929 H   0  0  0  0  0  0  0  0  0  0  0  0
   48.0284    4.3103    6.7388 H   0  0  0  0  0  0  0  0  0  0  0  0
   46.8435    0.1745    6.7232 H   0  0  0  0  0  0  0  0  0  0  0  0
   46.1492    4.8516    8.2300 H   0  0  0  0  0  0  0  0  0  0  0  0
   44.9503    0.7075    8.2227 H   0  0  0  0  0  0  0  0  0  0  0  0
   49.0907    2.6591    5.6159 H   0  0  0  0  0  0  0  0  0  0  0  0
   44.4985    4.0001    9.8875 H   0  0  0  0  0  0  0  0  0  0  0  0
   44.0076    2.3067    9.8845 H   0  0  0  0  0  0  0  0  0  0  0  0
   43.3902    3.4057    8.6262 H   0  0  0  0  0  0  0  0  0  0  0  0
  2  1  2  0
  3  1  1  0
  4  2  1  0
  5  7  1  0
  6  2  1  0
  7  3  2  0
  8  3  1  0
  6  5  2  0
 10  9  2  0
 11  9  1  0
 12 10  1  0
 13  9  1  0
 14 10  1  0
 15 14  2  0
 16 13  2  0
 16 15  1  0
 18 21  2  0
 19 17  2  0
 20 17  1  0
 21 19  1  0
 22 20  2  0
 23 17  1  0
 24 18  1  0
 22 18  1  0
  1 25  1  0
  4 26  1  0
  5 27  1  0
  6 28  1  0
  7 29  1  0
  8 30  1  0
  8 31  1  0
  8 32  1  0
 11 33  1  0
 12 34  1  0
 12 35  1  0
 12 36  1  0
 13 37  1  0
 14 38  1  0
 15 39  1  0
 16 40  1  0
 19 41  1  0
 20 42  1  0
 21 43  1  0
 22 44  1  0
 23 45  1  0
 24 46  1  0
 24 47  1  0
 24 48  1  0
M  END
> <Uni-Dock RESULT> 
ENERGY=  -12.145  LOWER_BOUND=    1.650  UPPER_BOUND=    3.649
INTER + INTRA:         -12.145
INTER:                 -12.145
INTRA:                   0.000
UNBOUND:                 0.000

$$$$
