
     RDKit          3D

 48 48  0  0  0  0  0  0  0  0999 V2000
   46.4695    3.4944    7.0696 C   0  0  0  0  0  0  0  0  0  0  0  0
   47.2814    2.6592    6.3052 C   0  0  0  0  0  0  0  0  0  0  0  0
   45.7848    2.9770    8.1777 C   0  0  0  0  0  0  0  0  0  0  0  0
   47.9673    3.1309    5.2246 O   0  0  0  0  0  0  0  0  0  0  0  0
   46.7274    0.7877    7.7102 C   0  0  0  0  0  0  0  0  0  0  0  0
   47.4166    1.3125    6.6188 C   0  0  0  0  0  0  0  0  0  0  0  0
   45.9107    1.6151    8.4840 C   0  0  0  0  0  0  0  0  0  0  0  0
   44.8802    3.8556    8.9903 C   0  0  0  0  0  0  0  0  0  0  0  0
   46.2290    1.6408    7.9162 C   0  0  0  0  0  0  0  0  0  0  0  0
   46.7058    2.6666    7.0907 C   0  0  0  0  0  0  0  0  0  0  0  0
   46.6476    0.3447    7.8067 O   0  0  0  0  0  0  0  0  0  0  0  0
   47.7210    2.4252    6.0124 C   0  0  0  0  0  0  0  0  0  0  0  0
   45.2854    1.8968    8.9097 C   0  0  0  0  0  0  0  0  0  0  0  0
   46.2076    3.9640    7.2897 C   0  0  0  0  0  0  0  0  0  0  0  0
   45.2617    4.2236    8.2846 C   0  0  0  0  0  0  0  0  0  0  0  0
   44.8004    3.1895    9.0951 C   0  0  0  0  0  0  0  0  0  0  0  0
   47.6258    2.1199    6.4578 C   0  0  0  0  0  0  0  0  0  0  0  0
   45.5660    2.8436    8.1995 C   0  0  0  0  0  0  0  0  0  0  0  0
   47.2333    3.4518    6.5395 C   0  0  0  0  0  0  0  0  0  0  0  0
   47.0119    1.1485    7.2383 C   0  0  0  0  0  0  0  0  0  0  0  0
   46.2063    3.8128    7.4152 C   0  0  0  0  0  0  0  0  0  0  0  0
   45.9861    1.5100    8.1129 C   0  0  0  0  0  0  0  0  0  0  0  0
   48.6239    1.7236    5.6174 O   0  0  0  0  0  0  0  0  0  0  0  0
   44.4867    3.2381    9.1638 C   0  0  0  0  0  0  0  0  0  0  0  0
   46.3622    4.5444    6.8145 H   0  0  0  0  0  0  0  0  0  0  0  0
   47.7793    4.0788    5.1312 H   0  0  0  0  0  0  0  0  0  0  0  0
   46.8243   -0.2662    7.9567 H   0  0  0  0  0  0  0  0  0  0  0  0
   48.0526    0.6739    6.0128 H   0  0  0  0  0  0  0  0  0  0  0  0
   45.3730    1.1898    9.3286 H   0  0  0  0  0  0  0  0  0  0  0  0
   45.2476    4.8871    9.0046 H   0  0  0  0  0  0  0  0  0  0  0  0
   44.8335    3.5137   10.0296 H   0  0  0  0  0  0  0  0  0  0  0  0
   43.8707    3.8449    8.5683 H   0  0  0  0  0  0  0  0  0  0  0  0
   47.2978    0.2783    7.0914 H   0  0  0  0  0  0  0  0  0  0  0  0
   47.9680    3.3472    5.4754 H   0  0  0  0  0  0  0  0  0  0  0  0
   47.3327    1.7103    5.2798 H   0  0  0  0  0  0  0  0  0  0  0  0
   48.6484    2.0368    6.4454 H   0  0  0  0  0  0  0  0  0  0  0  0
   44.9291    1.0858    9.5389 H   0  0  0  0  0  0  0  0  0  0  0  0
   46.5534    4.7878    6.6687 H   0  0  0  0  0  0  0  0  0  0  0  0
   44.8856    5.2336    8.4263 H   0  0  0  0  0  0  0  0  0  0  0  0
   44.0649    3.3879    9.8697 H   0  0  0  0  0  0  0  0  0  0  0  0
   47.7113    4.2182    5.9381 H   0  0  0  0  0  0  0  0  0  0  0  0
   47.3324    0.1131    7.1688 H   0  0  0  0  0  0  0  0  0  0  0  0
   45.9067    4.8562    7.4822 H   0  0  0  0  0  0  0  0  0  0  0  0
   45.5166    0.7436    8.7252 H   0  0  0  0  0  0  0  0  0  0  0  0
   48.9522    2.5033    5.1411 H   0  0  0  0  0  0  0  0  0  0  0  0
   43.7684    2.4229    9.3009 H   0  0  0  0  0  0  0  0  0  0  0  0
   43.9281    4.1035    8.7920 H   0  0  0  0  0  0  0  0  0  0  0  0
   44.9258    3.4902   10.1339 H   0  0  0  0  0  0  0  0  0  0  0  0
  2  1  2  0
  3  1  1  0
  4  2  1  0
  5  7  1  0
  6  2  1  0
  7  3  2  0
  8  3  1  0
  6  5  2  0
 10  9  2  0
 11  9  1  0
 12 10  1  0
 13  9  1  0
 14 10  1  0
 15 14  2  0
 16 13  2  0
 16 15  1  0
 18 21  2  0
 19 17  2  0
 20 17  1  0
 21 19  1  0
 22 20  2  0
 23 17  1  0
 24 18  1  0
 22 18  1  0
  1 25  1  0
  4 26  1  0
  5 27  1  0
  6 28  1  0
  7 29  1  0
  8 30  1  0
  8 31  1  0
  8 32  1  0
 11 33  1  0
 12 34  1  0
 12 35  1  0
 12 36  1  0
 13 37  1  0
 14 38  1  0
 15 39  1  0
 16 40  1  0
 19 41  1  0
 20 42  1  0
 21 43  1  0
 22 44  1  0
 23 45  1  0
 24 46  1  0
 24 47  1  0
 24 48  1  0
M  END
> <Uni-Dock RESULT> 
ENERGY=  -15.071  LOWER_BOUND=    0.000  UPPER_BOUND=    0.000
INTER + INTRA:         -15.071
INTER:                 -15.071
INTRA:                   0.000
UNBOUND:                 0.000

$$$$

     RDKit          3D

 48 48  0  0  0  0  0  0  0  0999 V2000
   46.4617    3.4944    7.0626 C   0  0  0  0  0  0  0  0  0  0  0  0
   47.2807    2.6639    6.3006 C   0  0  0  0  0  0  0  0  0  0  0  0
   45.7827    2.9748    8.1732 C   0  0  0  0  0  0  0  0  0  0  0  0
   47.9614    3.1379    5.2177 O   0  0  0  0  0  0  0  0  0  0  0  0
   46.7452    0.7926    7.7130 C   0  0  0  0  0  0  0  0  0  0  0  0
   47.4286    1.3197    6.6191 C   0  0  0  0  0  0  0  0  0  0  0  0
   45.9214    1.6152    8.4843 C   0  0  0  0  0  0  0  0  0  0  0  0
   44.8706    3.8480    8.9832 C   0  0  0  0  0  0  0  0  0  0  0  0
   46.2390    1.6417    7.9163 C   0  0  0  0  0  0  0  0  0  0  0  0
   46.7057    2.6689    7.0866 C   0  0  0  0  0  0  0  0  0  0  0  0
   46.6695    0.3492    7.8112 O   0  0  0  0  0  0  0  0  0  0  0  0
   47.7223    2.4329    6.0084 C   0  0  0  0  0  0  0  0  0  0  0  0
   45.2938    1.8927    8.9095 C   0  0  0  0  0  0  0  0  0  0  0  0
   46.1956    3.9624    7.2812 C   0  0  0  0  0  0  0  0  0  0  0  0
   45.2482    4.2168    8.2759 C   0  0  0  0  0  0  0  0  0  0  0  0
   44.7971    3.1816    9.0905 C   0  0  0  0  0  0  0  0  0  0  0  0
   47.6302    2.1284    6.4550 C   0  0  0  0  0  0  0  0  0  0  0  0
   45.5652    2.8394    8.1956 C   0  0  0  0  0  0  0  0  0  0  0  0
   47.2254    3.4569    6.5320 C   0  0  0  0  0  0  0  0  0  0  0  0
   47.0260    1.1542    7.2395 C   0  0  0  0  0  0  0  0  0  0  0  0
   46.1958    3.8116    7.4072 C   0  0  0  0  0  0  0  0  0  0  0  0
   45.9975    1.5094    8.1136 C   0  0  0  0  0  0  0  0  0  0  0  0
   48.6313    1.7382    5.6152 O   0  0  0  0  0  0  0  0  0  0  0  0
   44.4830    3.2275    9.1593 C   0  0  0  0  0  0  0  0  0  0  0  0
   46.3445    4.5424    6.8037 H   0  0  0  0  0  0  0  0  0  0  0  0
   47.7645    4.0837    5.1210 H   0  0  0  0  0  0  0  0  0  0  0  0
   46.8520   -0.2595    7.9633 H   0  0  0  0  0  0  0  0  0  0  0  0
   48.0700    0.6848    6.0150 H   0  0  0  0  0  0  0  0  0  0  0  0
   45.3883    1.1881    9.3310 H   0  0  0  0  0  0  0  0  0  0  0  0
   45.2285    4.8829    8.9934 H   0  0  0  0  0  0  0  0  0  0  0  0
   44.8279    3.5095   10.0238 H   0  0  0  0  0  0  0  0  0  0  0  0
   43.8609    3.8264    8.5621 H   0  0  0  0  0  0  0  0  0  0  0  0
   47.3198    0.2862    7.0956 H   0  0  0  0  0  0  0  0  0  0  0  0
   47.9603    3.3551    5.4677 H   0  0  0  0  0  0  0  0  0  0  0  0
   47.3400    1.7117    5.2787 H   0  0  0  0  0  0  0  0  0  0  0  0
   48.6536    2.0547    6.4420 H   0  0  0  0  0  0  0  0  0  0  0  0
   44.9456    1.0808    9.5420 H   0  0  0  0  0  0  0  0  0  0  0  0
   46.5333    4.7870    6.6569 H   0  0  0  0  0  0  0  0  0  0  0  0
   44.8629    5.2239    8.4141 H   0  0  0  0  0  0  0  0  0  0  0  0
   44.0604    3.3760    9.8650 H   0  0  0  0  0  0  0  0  0  0  0  0
   47.6958    4.2254    5.9275 H   0  0  0  0  0  0  0  0  0  0  0  0
   47.3559    0.1216    7.1736 H   0  0  0  0  0  0  0  0  0  0  0  0
   45.8866    4.8525    7.4706 H   0  0  0  0  0  0  0  0  0  0  0  0
   45.5355    0.7411    8.7291 H   0  0  0  0  0  0  0  0  0  0  0  0
   48.9520    2.5192    5.1358 H   0  0  0  0  0  0  0  0  0  0  0  0
   43.7724    2.4062    9.3000 H   0  0  0  0  0  0  0  0  0  0  0  0
   43.9161    4.0863    8.7848 H   0  0  0  0  0  0  0  0  0  0  0  0
   44.9204    3.4872   10.1281 H   0  0  0  0  0  0  0  0  0  0  0  0
  2  1  2  0
  3  1  1  0
  4  2  1  0
  5  7  1  0
  6  2  1  0
  7  3  2  0
  8  3  1  0
  6  5  2  0
 10  9  2  0
 11  9  1  0
 12 10  1  0
 13  9  1  0
 14 10  1  0
 15 14  2  0
 16 13  2  0
 16 15  1  0
 18 21  2  0
 19 17  2  0
 20 17  1  0
 21 19  1  0
 22 20  2  0
 23 17  1  0
 24 18  1  0
 22 18  1  0
  1 25  1  0
  4 26  1  0
  5 27  1  0
  6 28  1  0
  7 29  1  0
  8 30  1  0
  8 31  1  0
  8 32  1  0
 11 33  1  0
 12 34  1  0
 12 35  1  0
 12 36  1  0
 13 37  1  0
 14 38  1  0
 15 39  1  0
 16 40  1  0
 19 41  1  0
 20 42  1  0
 21 43  1  0
 22 44  1  0
 23 45  1  0
 24 46  1  0
 24 47  1  0
 24 48  1  0
M  END
> <Uni-Dock RESULT> 
ENERGY=  -15.063  LOWER_BOUND=    0.013  UPPER_BOUND=    0.013
INTER + INTRA:         -15.063
INTER:                 -15.063
INTRA:                   0.000
UNBOUND:                 0.000

$$$$

     RDKit          3D

 48 48  0  0  0  0  0  0  0  0999 V2000
   46.0613    1.6322    7.9977 C   0  0  0  0  0  0  0  0  0  0  0  0
   45.0630    2.1874    8.7955 C   0  0  0  0  0  0  0  0  0  0  0  0
   46.8855    2.4673    7.2310 C   0  0  0  0  0  0  0  0  0  0  0  0
   44.2477    1.4049    9.5593 O   0  0  0  0  0  0  0  0  0  0  0  0
   45.6692    4.3972    8.0655 C   0  0  0  0  0  0  0  0  0  0  0  0
   44.8633    3.5616    8.8362 C   0  0  0  0  0  0  0  0  0  0  0  0
   46.6731    3.8523    7.2620 C   0  0  0  0  0  0  0  0  0  0  0  0
   47.9423    1.8827    6.3411 C   0  0  0  0  0  0  0  0  0  0  0  0
   46.1622    3.6444    7.6084 C   0  0  0  0  0  0  0  0  0  0  0  0
   45.7825    2.4255    8.1839 C   0  0  0  0  0  0  0  0  0  0  0  0
   45.5944    4.8378    7.9553 O   0  0  0  0  0  0  0  0  0  0  0  0
   44.7153    2.3295    9.2343 C   0  0  0  0  0  0  0  0  0  0  0  0
   47.1576    3.7010    6.6343 C   0  0  0  0  0  0  0  0  0  0  0  0
   46.4322    1.2577    7.7534 C   0  0  0  0  0  0  0  0  0  0  0  0
   47.4303    1.3113    6.7772 C   0  0  0  0  0  0  0  0  0  0  0  0
   47.7932    2.5335    6.2174 C   0  0  0  0  0  0  0  0  0  0  0  0
   45.0151    2.7685    9.0999 C   0  0  0  0  0  0  0  0  0  0  0  0
   46.8516    2.5833    7.0040 C   0  0  0  0  0  0  0  0  0  0  0  0
   45.5708    1.5336    8.7825 C   0  0  0  0  0  0  0  0  0  0  0  0
   45.3696    3.9106    8.3931 C   0  0  0  0  0  0  0  0  0  0  0  0
   46.4933    1.4437    7.7371 C   0  0  0  0  0  0  0  0  0  0  0  0
   46.2913    3.8200    7.3490 C   0  0  0  0  0  0  0  0  0  0  0  0
   44.1117    2.9020   10.1127 O   0  0  0  0  0  0  0  0  0  0  0  0
   47.8675    2.4909    5.9041 C   0  0  0  0  0  0  0  0  0  0  0  0
   46.2071    0.5568    7.9646 H   0  0  0  0  0  0  0  0  0  0  0  0
   44.5045    0.4773    9.4319 H   0  0  0  0  0  0  0  0  0  0  0  0
   45.5137    5.4724    8.0885 H   0  0  0  0  0  0  0  0  0  0  0  0
   44.0804    3.9793    9.4624 H   0  0  0  0  0  0  0  0  0  0  0  0
   47.2897    4.5164    6.6600 H   0  0  0  0  0  0  0  0  0  0  0  0
   48.3430    0.9569    6.7671 H   0  0  0  0  0  0  0  0  0  0  0  0
   48.7821    2.5758    6.2241 H   0  0  0  0  0  0  0  0  0  0  0  0
   47.5221    1.6659    5.3543 H   0  0  0  0  0  0  0  0  0  0  0  0
   44.9202    4.6855    8.6344 H   0  0  0  0  0  0  0  0  0  0  0  0
   44.5603    1.2956    9.5606 H   0  0  0  0  0  0  0  0  0  0  0  0
   43.7624    2.6979    8.8408 H   0  0  0  0  0  0  0  0  0  0  0  0
   44.9972    2.9150   10.1153 H   0  0  0  0  0  0  0  0  0  0  0  0
   47.4365    4.6576    6.2011 H   0  0  0  0  0  0  0  0  0  0  0  0
   46.1655    0.2914    8.1765 H   0  0  0  0  0  0  0  0  0  0  0  0
   47.9240    0.3982    6.4544 H   0  0  0  0  0  0  0  0  0  0  0  0
   48.5689    2.5788    5.4581 H   0  0  0  0  0  0  0  0  0  0  0  0
   45.3044    0.6373    9.3331 H   0  0  0  0  0  0  0  0  0  0  0  0
   44.9324    4.8696    8.6555 H   0  0  0  0  0  0  0  0  0  0  0  0
   46.9317    0.4779    7.4962 H   0  0  0  0  0  0  0  0  0  0  0  0
   46.5681    4.7208    6.8063 H   0  0  0  0  0  0  0  0  0  0  0  0
   43.9630    2.0281   10.5088 H   0  0  0  0  0  0  0  0  0  0  0  0
   47.6787    3.2457    5.1336 H   0  0  0  0  0  0  0  0  0  0  0  0
   47.8264    1.5115    5.4158 H   0  0  0  0  0  0  0  0  0  0  0  0
   48.8725    2.6424    6.3096 H   0  0  0  0  0  0  0  0  0  0  0  0
  2  1  2  0
  3  1  1  0
  4  2  1  0
  5  7  1  0
  6  2  1  0
  7  3  2  0
  8  3  1  0
  6  5  2  0
 10  9  2  0
 11  9  1  0
 12 10  1  0
 13  9  1  0
 14 10  1  0
 15 14  2  0
 16 13  2  0
 16 15  1  0
 18 21  2  0
 19 17  2  0
 20 17  1  0
 21 19  1  0
 22 20  2  0
 23 17  1  0
 24 18  1  0
 22 18  1  0
  1 25  1  0
  4 26  1  0
  5 27  1  0
  6 28  1  0
  7 29  1  0
  8 30  1  0
  8 31  1  0
  8 32  1  0
 11 33  1  0
 12 34  1  0
 12 35  1  0
 12 36  1  0
 13 37  1  0
 14 38  1  0
 15 39  1  0
 16 40  1  0
 19 41  1  0
 20 42  1  0
 21 43  1  0
 22 44  1  0
 23 45  1  0
 24 46  1  0
 24 47  1  0
 24 48  1  0
M  END
> <Uni-Dock RESULT> 
ENERGY=  -14.707  LOWER_BOUND=    1.495  UPPER_BOUND=    3.699
INTER + INTRA:         -14.707
INTER:                 -14.707
INTRA:                   0.000
UNBOUND:                 0.000

$$$$

     RDKit          3D

 48 48  0  0  0  0  0  0  0  0999 V2000
   46.3529    3.7785    7.4349 C   0  0  0  0  0  0  0  0  0  0  0  0
   45.4067    3.8362    8.4559 C   0  0  0  0  0  0  0  0  0  0  0  0
   46.8427    2.5365    7.0081 C   0  0  0  0  0  0  0  0  0  0  0  0
   44.9037    5.0270    8.8911 O   0  0  0  0  0  0  0  0  0  0  0  0
   45.4387    1.4401    8.6594 C   0  0  0  0  0  0  0  0  0  0  0  0
   44.9454    2.6775    9.0683 C   0  0  0  0  0  0  0  0  0  0  0  0
   46.3873    1.3697    7.6369 C   0  0  0  0  0  0  0  0  0  0  0  0
   47.8867    2.4599    5.9336 C   0  0  0  0  0  0  0  0  0  0  0  0
   46.1119    1.8245    8.0132 C   0  0  0  0  0  0  0  0  0  0  0  0
   45.9289    3.2100    7.9234 C   0  0  0  0  0  0  0  0  0  0  0  0
   45.4080    1.0374    8.8804 O   0  0  0  0  0  0  0  0  0  0  0  0
   44.9394    3.9477    8.7768 C   0  0  0  0  0  0  0  0  0  0  0  0
   47.0395    1.1676    7.2064 C   0  0  0  0  0  0  0  0  0  0  0  0
   46.7062    3.9232    6.9969 C   0  0  0  0  0  0  0  0  0  0  0  0
   47.6367    3.2674    6.1870 C   0  0  0  0  0  0  0  0  0  0  0  0
   47.8034    1.8890    6.2917 C   0  0  0  0  0  0  0  0  0  0  0  0
   44.9388    3.4151    8.6468 C   0  0  0  0  0  0  0  0  0  0  0  0
   47.0229    2.3795    7.1029 C   0  0  0  0  0  0  0  0  0  0  0  0
   45.6272    4.2518    7.7747 C   0  0  0  0  0  0  0  0  0  0  0  0
   45.2698    2.0700    8.7517 C   0  0  0  0  0  0  0  0  0  0  0  0
   46.6660    3.7308    6.9993 C   0  0  0  0  0  0  0  0  0  0  0  0
   46.3077    1.5503    7.9767 C   0  0  0  0  0  0  0  0  0  0  0  0
   43.9180    3.8812    9.4216 O   0  0  0  0  0  0  0  0  0  0  0  0
   48.1161    1.8143    6.2450 C   0  0  0  0  0  0  0  0  0  0  0  0
   46.7148    4.6883    6.9657 H   0  0  0  0  0  0  0  0  0  0  0  0
   45.3123    5.7403    8.3744 H   0  0  0  0  0  0  0  0  0  0  0  0
   45.0863    0.5308    9.1388 H   0  0  0  0  0  0  0  0  0  0  0  0
   44.2082    2.7388    9.8634 H   0  0  0  0  0  0  0  0  0  0  0  0
   46.7688    0.3972    7.3333 H   0  0  0  0  0  0  0  0  0  0  0  0
   47.7703    3.2797    5.2170 H   0  0  0  0  0  0  0  0  0  0  0  0
   47.8014    1.5237    5.3718 H   0  0  0  0  0  0  0  0  0  0  0  0
   48.8852    2.5166    6.3776 H   0  0  0  0  0  0  0  0  0  0  0  0
   44.7960    1.5904    9.3889 H   0  0  0  0  0  0  0  0  0  0  0  0
   44.9413    5.0217    8.5621 H   0  0  0  0  0  0  0  0  0  0  0  0
   45.1853    3.8224    9.8362 H   0  0  0  0  0  0  0  0  0  0  0  0
   43.9269    3.5756    8.5905 H   0  0  0  0  0  0  0  0  0  0  0  0
   47.1653    0.0918    7.2927 H   0  0  0  0  0  0  0  0  0  0  0  0
   46.5932    5.0007    6.8974 H   0  0  0  0  0  0  0  0  0  0  0  0
   48.2310    3.8338    5.4744 H   0  0  0  0  0  0  0  0  0  0  0  0
   48.5262    1.3760    5.6633 H   0  0  0  0  0  0  0  0  0  0  0  0
   45.3715    5.3022    7.6818 H   0  0  0  0  0  0  0  0  0  0  0  0
   44.7200    1.4266    9.4325 H   0  0  0  0  0  0  0  0  0  0  0  0
   47.1975    4.3861    6.3128 H   0  0  0  0  0  0  0  0  0  0  0  0
   46.5546    0.4946    8.0603 H   0  0  0  0  0  0  0  0  0  0  0  0
   43.8047    4.8287    9.2428 H   0  0  0  0  0  0  0  0  0  0  0  0
   48.6164    0.9806    6.7487 H   0  0  0  0  0  0  0  0  0  0  0  0
   48.8789    2.5715    6.0354 H   0  0  0  0  0  0  0  0  0  0  0  0
   47.7012    1.4578    5.2972 H   0  0  0  0  0  0  0  0  0  0  0  0
  2  1  2  0
  3  1  1  0
  4  2  1  0
  5  7  1  0
  6  2  1  0
  7  3  2  0
  8  3  1  0
  6  5  2  0
 10  9  2  0
 11  9  1  0
 12 10  1  0
 13  9  1  0
 14 10  1  0
 15 14  2  0
 16 13  2  0
 16 15  1  0
 18 21  2  0
 19 17  2  0
 20 17  1  0
 21 19  1  0
 22 20  2  0
 23 17  1  0
 24 18  1  0
 22 18  1  0
  1 25  1  0
  4 26  1  0
  5 27  1  0
  6 28  1  0
  7 29  1  0
  8 30  1  0
  8 31  1  0
  8 32  1  0
 11 33  1  0
 12 34  1  0
 12 35  1  0
 12 36  1  0
 13 37  1  0
 14 38  1  0
 15 39  1  0
 16 40  1  0
 19 41  1  0
 20 42  1  0
 21 43  1  0
 22 44  1  0
 23 45  1  0
 24 46  1  0
 24 47  1  0
 24 48  1  0
M  END
> <Uni-Dock RESULT> 
ENERGY=  -14.557  LOWER_BOUND=    1.517  UPPER_BOUND=    3.094
INTER + INTRA:         -14.557
INTER:                 -14.557
INTRA:                   0.000
UNBOUND:                 0.000

$$$$

     RDKit          3D

 48 48  0  0  0  0  0  0  0  0999 V2000
   45.8753    1.7618    8.3984 C   0  0  0  0  0  0  0  0  0  0  0  0
   46.9055    1.5324    7.4889 C   0  0  0  0  0  0  0  0  0  0  0  0
   45.3186    3.0430    8.5120 C   0  0  0  0  0  0  0  0  0  0  0  0
   47.4654    0.2966    7.3475 O   0  0  0  0  0  0  0  0  0  0  0  0
   46.8612    3.8400    6.8134 C   0  0  0  0  0  0  0  0  0  0  0  0
   47.3997    2.5603    6.6956 C   0  0  0  0  0  0  0  0  0  0  0  0
   45.8282    4.0821    7.7215 C   0  0  0  0  0  0  0  0  0  0  0  0
   44.2323    3.3138    9.5105 C   0  0  0  0  0  0  0  0  0  0  0  0
   46.2518    3.6070    7.5834 C   0  0  0  0  0  0  0  0  0  0  0  0
   46.3067    2.2271    7.8161 C   0  0  0  0  0  0  0  0  0  0  0  0
   47.0399    4.2361    6.6614 O   0  0  0  0  0  0  0  0  0  0  0  0
   47.2404    1.3216    7.0681 C   0  0  0  0  0  0  0  0  0  0  0  0
   45.3732    4.4222    8.2950 C   0  0  0  0  0  0  0  0  0  0  0  0
   45.4513    1.6837    8.7878 C   0  0  0  0  0  0  0  0  0  0  0  0
   44.5696    2.4984    9.5026 C   0  0  0  0  0  0  0  0  0  0  0  0
   44.5305    3.8682    9.2561 C   0  0  0  0  0  0  0  0  0  0  0  0
   47.0564    1.8146    6.9142 C   0  0  0  0  0  0  0  0  0  0  0  0
   45.3951    3.2548    8.6363 C   0  0  0  0  0  0  0  0  0  0  0  0
   46.2686    1.1332    7.8360 C   0  0  0  0  0  0  0  0  0  0  0  0
   47.0194    3.2010    6.8345 C   0  0  0  0  0  0  0  0  0  0  0  0
   45.4342    1.8550    8.6930 C   0  0  0  0  0  0  0  0  0  0  0  0
   46.1854    3.9213    7.6910 C   0  0  0  0  0  0  0  0  0  0  0  0
   47.8844    1.1501    6.0584 O   0  0  0  0  0  0  0  0  0  0  0  0
   44.4735    4.0263    9.5341 C   0  0  0  0  0  0  0  0  0  0  0  0
   45.4988    0.9557    9.0209 H   0  0  0  0  0  0  0  0  0  0  0  0
   47.0211   -0.3137    7.9581 H   0  0  0  0  0  0  0  0  0  0  0  0
   47.2479    4.6494    6.2001 H   0  0  0  0  0  0  0  0  0  0  0  0
   48.2037    2.3659    5.9918 H   0  0  0  0  0  0  0  0  0  0  0  0
   45.4227    5.0879    7.8078 H   0  0  0  0  0  0  0  0  0  0  0  0
   43.6048    2.4279    9.6546 H   0  0  0  0  0  0  0  0  0  0  0  0
   43.5780    4.1220    9.1668 H   0  0  0  0  0  0  0  0  0  0  0  0
   44.6705    3.5978   10.4721 H   0  0  0  0  0  0  0  0  0  0  0  0
   47.6082    3.5822    6.2275 H   0  0  0  0  0  0  0  0  0  0  0  0
   47.1373    0.2795    7.3889 H   0  0  0  0  0  0  0  0  0  0  0  0
   48.2791    1.6198    7.2437 H   0  0  0  0  0  0  0  0  0  0  0  0
   47.0262    1.3594    5.9952 H   0  0  0  0  0  0  0  0  0  0  0  0
   45.3473    5.4904    8.0983 H   0  0  0  0  0  0  0  0  0  0  0  0
   45.4641    0.6161    8.9975 H   0  0  0  0  0  0  0  0  0  0  0  0
   43.9136    2.0625   10.2518 H   0  0  0  0  0  0  0  0  0  0  0  0
   43.8461    4.5045    9.8102 H   0  0  0  0  0  0  0  0  0  0  0  0
   46.2866    0.0502    7.9012 H   0  0  0  0  0  0  0  0  0  0  0  0
   47.6354    3.7200    6.1060 H   0  0  0  0  0  0  0  0  0  0  0  0
   44.8138    1.3188    9.4077 H   0  0  0  0  0  0  0  0  0  0  0  0
   46.1578    5.0058    7.6161 H   0  0  0  0  0  0  0  0  0  0  0  0
   47.8050    0.1981    6.2314 H   0  0  0  0  0  0  0  0  0  0  0  0
   44.8842    5.0165    9.7574 H   0  0  0  0  0  0  0  0  0  0  0  0
   44.3358    3.5092   10.4895 H   0  0  0  0  0  0  0  0  0  0  0  0
   43.4980    4.1477    9.0534 H   0  0  0  0  0  0  0  0  0  0  0  0
  2  1  2  0
  3  1  1  0
  4  2  1  0
  5  7  1  0
  6  2  1  0
  7  3  2  0
  8  3  1  0
  6  5  2  0
 10  9  2  0
 11  9  1  0
 12 10  1  0
 13  9  1  0
 14 10  1  0
 15 14  2  0
 16 13  2  0
 16 15  1  0
 18 21  2  0
 19 17  2  0
 20 17  1  0
 21 19  1  0
 22 20  2  0
 23 17  1  0
 24 18  1  0
 22 18  1  0
  1 25  1  0
  4 26  1  0
  5 27  1  0
  6 28  1  0
  7 29  1  0
  8 30  1  0
  8 31  1  0
  8 32  1  0
 11 33  1  0
 12 34  1  0
 12 35  1  0
 12 36  1  0
 13 37  1  0
 14 38  1  0
 15 39  1  0
 16 40  1  0
 19 41  1  0
 20 42  1  0
 21 43  1  0
 22 44  1  0
 23 45  1  0
 24 46  1  0
 24 47  1  0
 24 48  1  0
M  END
> <Uni-Dock RESULT> 
ENERGY=  -13.504  LOWER_BOUND=    0.679  UPPER_BOUND=    2.160
INTER + INTRA:         -13.504
INTER:                 -13.504
INTRA:                   0.000
UNBOUND:                 0.000

$$$$

     RDKit          3D

 48 48  0  0  0  0  0  0  0  0999 V2000
   46.5276    1.5556    7.7216 C   0  0  0  0  0  0  0  0  0  0  0  0
   47.4680    1.9952    6.7923 C   0  0  0  0  0  0  0  0  0  0  0  0
   45.5968    2.4593    8.2520 C   0  0  0  0  0  0  0  0  0  0  0  0
   48.3837    1.1415    6.2509 O   0  0  0  0  0  0  0  0  0  0  0  0
   46.5925    4.2313    6.9220 C   0  0  0  0  0  0  0  0  0  0  0  0
   47.5051    3.3239    6.3881 C   0  0  0  0  0  0  0  0  0  0  0  0
   45.6451    3.8024    7.8541 C   0  0  0  0  0  0  0  0  0  0  0  0
   44.6001    2.0088    9.2787 C   0  0  0  0  0  0  0  0  0  0  0  0
   46.1832    3.5726    7.5680 C   0  0  0  0  0  0  0  0  0  0  0  0
   46.7143    2.2990    7.3291 C   0  0  0  0  0  0  0  0  0  0  0  0
   46.6129    4.6911    6.9111 O   0  0  0  0  0  0  0  0  0  0  0  0
   47.8046    2.0569    6.3269 C   0  0  0  0  0  0  0  0  0  0  0  0
   45.1704    3.7654    8.5059 C   0  0  0  0  0  0  0  0  0  0  0  0
   46.1989    1.2174    8.0610 C   0  0  0  0  0  0  0  0  0  0  0  0
   45.1837    1.4076    9.0018 C   0  0  0  0  0  0  0  0  0  0  0  0
   44.6692    2.6821    9.2244 C   0  0  0  0  0  0  0  0  0  0  0  0
   47.4527    2.4771    6.3448 C   0  0  0  0  0  0  0  0  0  0  0  0
   45.6127    2.6342    8.4399 C   0  0  0  0  0  0  0  0  0  0  0  0
   47.0406    1.3126    6.9841 C   0  0  0  0  0  0  0  0  0  0  0  0
   46.9533    3.7147    6.7302 C   0  0  0  0  0  0  0  0  0  0  0  0
   46.1160    1.3925    8.0284 C   0  0  0  0  0  0  0  0  0  0  0  0
   46.0296    3.7937    7.7736 C   0  0  0  0  0  0  0  0  0  0  0  0
   48.3525    2.4452    5.3207 O   0  0  0  0  0  0  0  0  0  0  0  0
   44.5947    2.7150    9.5388 C   0  0  0  0  0  0  0  0  0  0  0  0
   46.5088    0.5174    8.0390 H   0  0  0  0  0  0  0  0  0  0  0  0
   48.2356    0.2565    6.6219 H   0  0  0  0  0  0  0  0  0  0  0  0
   46.6207    5.2731    6.6143 H   0  0  0  0  0  0  0  0  0  0  0  0
   48.2448    3.6516    5.6634 H   0  0  0  0  0  0  0  0  0  0  0  0
   44.9437    4.5236    8.2680 H   0  0  0  0  0  0  0  0  0  0  0  0
   44.3191    0.9628    9.1173 H   0  0  0  0  0  0  0  0  0  0  0  0
   43.6825    2.6038    9.2201 H   0  0  0  0  0  0  0  0  0  0  0  0
   45.0247    2.1109   10.2820 H   0  0  0  0  0  0  0  0  0  0  0  0
   47.3126    4.4462    6.2872 H   0  0  0  0  0  0  0  0  0  0  0  0
   48.0862    0.9995    6.2827 H   0  0  0  0  0  0  0  0  0  0  0  0
   48.7001    2.6261    6.5966 H   0  0  0  0  0  0  0  0  0  0  0  0
   47.4719    2.3520    5.3266 H   0  0  0  0  0  0  0  0  0  0  0  0
   44.7729    4.7623    8.6753 H   0  0  0  0  0  0  0  0  0  0  0  0
   46.5854    0.2124    7.9040 H   0  0  0  0  0  0  0  0  0  0  0  0
   44.7952    0.5599    9.5605 H   0  0  0  0  0  0  0  0  0  0  0  0
   43.8797    2.8335    9.9552 H   0  0  0  0  0  0  0  0  0  0  0  0
   47.4208    0.3410    6.6857 H   0  0  0  0  0  0  0  0  0  0  0  0
   47.2792    4.6156    6.2185 H   0  0  0  0  0  0  0  0  0  0  0  0
   45.7901    0.4794    8.5213 H   0  0  0  0  0  0  0  0  0  0  0  0
   45.6387    4.7663    8.0633 H   0  0  0  0  0  0  0  0  0  0  0  0
   48.6104    1.5219    5.1670 H   0  0  0  0  0  0  0  0  0  0  0  0
   44.6790    3.6630   10.0805 H   0  0  0  0  0  0  0  0  0  0  0  0
   44.7419    1.9109   10.2674 H   0  0  0  0  0  0  0  0  0  0  0  0
   43.5864    2.6342    9.1213 H   0  0  0  0  0  0  0  0  0  0  0  0
  2  1  2  0
  3  1  1  0
  4  2  1  0
  5  7  1  0
  6  2  1  0
  7  3  2  0
  8  3  1  0
  6  5  2  0
 10  9  2  0
 11  9  1  0
 12 10  1  0
 13  9  1  0
 14 10  1  0
 15 14  2  0
 16 13  2  0
 16 15  1  0
 18 21  2  0
 19 17  2  0
 20 17  1  0
 21 19  1  0
 22 20  2  0
 23 17  1  0
 24 18  1  0
 22 18  1  0
  1 25  1  0
  4 26  1  0
  5 27  1  0
  6 28  1  0
  7 29  1  0
  8 30  1  0
  8 31  1  0
  8 32  1  0
 11 33  1  0
 12 34  1  0
 12 35  1  0
 12 36  1  0
 13 37  1  0
 14 38  1  0
 15 39  1  0
 16 40  1  0
 19 41  1  0
 20 42  1  0
 21 43  1  0
 22 44  1  0
 23 45  1  0
 24 46  1  0
 24 47  1  0
 24 48  1  0
M  END
> <Uni-Dock RESULT> 
ENERGY=  -12.886  LOWER_BOUND=    0.734  UPPER_BOUND=    2.091
INTER + INTRA:         -12.886
INTER:                 -12.886
INTRA:                   0.000
UNBOUND:                 0.000

$$$$
