
     RDKit          3D

 48 48  0  0  0  0  0  0  0  0999 V2000
   46.4847    3.4082    6.8505 C   0  0  0  0  0  0  0  0  0  0  0  0
   47.3979    2.5175    6.2902 C   0  0  0  0  0  0  0  0  0  0  0  0
   45.7028    3.0091    7.9432 C   0  0  0  0  0  0  0  0  0  0  0  0
   48.1794    2.8750    5.2310 O   0  0  0  0  0  0  0  0  0  0  0  0
   46.7554    0.8214    7.8693 C   0  0  0  0  0  0  0  0  0  0  0  0
   47.5398    1.2301    6.7926 C   0  0  0  0  0  0  0  0  0  0  0  0
   45.8367    1.7051    8.4394 C   0  0  0  0  0  0  0  0  0  0  0  0
   44.6912    3.9450    8.5360 C   0  0  0  0  0  0  0  0  0  0  0  0
   46.4203    1.6498    7.8407 C   0  0  0  0  0  0  0  0  0  0  0  0
   46.6381    2.6864    6.9244 C   0  0  0  0  0  0  0  0  0  0  0  0
   47.0089    0.4221    7.7263 O   0  0  0  0  0  0  0  0  0  0  0  0
   47.5407    2.5327    5.7357 C   0  0  0  0  0  0  0  0  0  0  0  0
   45.5755    1.8234    8.9358 C   0  0  0  0  0  0  0  0  0  0  0  0
   45.9818    3.9091    7.1376 C   0  0  0  0  0  0  0  0  0  0  0  0
   45.1346    4.0859    8.2344 C   0  0  0  0  0  0  0  0  0  0  0  0
   44.9314    3.0426    9.1340 C   0  0  0  0  0  0  0  0  0  0  0  0
   47.5495    2.5396    6.1509 C   0  0  0  0  0  0  0  0  0  0  0  0
   45.6423    2.7451    8.1808 C   0  0  0  0  0  0  0  0  0  0  0  0
   47.2969    3.7746    6.7349 C   0  0  0  0  0  0  0  0  0  0  0  0
   46.8571    1.4043    6.5587 C   0  0  0  0  0  0  0  0  0  0  0  0
   46.3401    3.8793    7.7457 C   0  0  0  0  0  0  0  0  0  0  0  0
   45.8996    1.5100    7.5705 C   0  0  0  0  0  0  0  0  0  0  0  0
   48.4916    2.4823    5.1669 O   0  0  0  0  0  0  0  0  0  0  0  0
   44.5899    2.8632    9.2433 C   0  0  0  0  0  0  0  0  0  0  0  0
   46.3733    4.4106    6.4482 H   0  0  0  0  0  0  0  0  0  0  0  0
   47.9736    3.7936    4.9934 H   0  0  0  0  0  0  0  0  0  0  0  0
   46.8576   -0.1864    8.2626 H   0  0  0  0  0  0  0  0  0  0  0  0
   48.2553    0.5470    6.3445 H   0  0  0  0  0  0  0  0  0  0  0  0
   45.2260    1.3698    9.2748 H   0  0  0  0  0  0  0  0  0  0  0  0
   43.7328    3.8360    8.0191 H   0  0  0  0  0  0  0  0  0  0  0  0
   44.5447    3.7384    9.6013 H   0  0  0  0  0  0  0  0  0  0  0  0
   45.0240    4.9847    8.4501 H   0  0  0  0  0  0  0  0  0  0  0  0
   47.5710    0.4095    6.9370 H   0  0  0  0  0  0  0  0  0  0  0  0
   47.5830    3.4498    5.1385 H   0  0  0  0  0  0  0  0  0  0  0  0
   48.5605    2.3036    6.0613 H   0  0  0  0  0  0  0  0  0  0  0  0
   47.1766    1.7313    5.0847 H   0  0  0  0  0  0  0  0  0  0  0  0
   45.4209    1.0057    9.6343 H   0  0  0  0  0  0  0  0  0  0  0  0
   46.1253    4.7384    6.4481 H   0  0  0  0  0  0  0  0  0  0  0  0
   44.6337    5.0386    8.3857 H   0  0  0  0  0  0  0  0  0  0  0  0
   44.2732    3.1767    9.9878 H   0  0  0  0  0  0  0  0  0  0  0  0
   47.8407    4.6541    6.4028 H   0  0  0  0  0  0  0  0  0  0  0  0
   47.0436    0.4369    6.1039 H   0  0  0  0  0  0  0  0  0  0  0  0
   46.1441    4.8516    8.1916 H   0  0  0  0  0  0  0  0  0  0  0  0
   45.3545    0.6217    7.8819 H   0  0  0  0  0  0  0  0  0  0  0  0
   48.5589    1.5639    4.8591 H   0  0  0  0  0  0  0  0  0  0  0  0
   44.8344    3.6652    9.9479 H   0  0  0  0  0  0  0  0  0  0  0  0
   43.6191    3.0773    8.7861 H   0  0  0  0  0  0  0  0  0  0  0  0
   44.5128    1.9362    9.8212 H   0  0  0  0  0  0  0  0  0  0  0  0
  2  1  2  0
  3  1  1  0
  4  2  1  0
  5  7  1  0
  6  2  1  0
  7  3  2  0
  8  3  1  0
  6  5  2  0
 10  9  2  0
 11  9  1  0
 12 10  1  0
 13  9  1  0
 14 10  1  0
 15 14  2  0
 16 13  2  0
 16 15  1  0
 18 21  2  0
 19 17  2  0
 20 17  1  0
 21 19  1  0
 22 20  2  0
 23 17  1  0
 24 18  1  0
 22 18  1  0
  1 25  1  0
  4 26  1  0
  5 27  1  0
  6 28  1  0
  7 29  1  0
  8 30  1  0
  8 31  1  0
  8 32  1  0
 11 33  1  0
 12 34  1  0
 12 35  1  0
 12 36  1  0
 13 37  1  0
 14 38  1  0
 15 39  1  0
 16 40  1  0
 19 41  1  0
 20 42  1  0
 21 43  1  0
 22 44  1  0
 23 45  1  0
 24 46  1  0
 24 47  1  0
 24 48  1  0
M  END
> <Uni-Dock RESULT> 
ENERGY=  -13.141  LOWER_BOUND=    0.000  UPPER_BOUND=    0.000
INTER + INTRA:         -13.141
INTER:                 -13.141
INTRA:                   0.000
UNBOUND:                 0.000

$$$$

     RDKit          3D

 48 48  0  0  0  0  0  0  0  0999 V2000
   46.4847    3.4082    6.8505 C   0  0  0  0  0  0  0  0  0  0  0  0
   47.3978    2.5175    6.2902 C   0  0  0  0  0  0  0  0  0  0  0  0
   45.7028    3.0091    7.9432 C   0  0  0  0  0  0  0  0  0  0  0  0
   48.1794    2.8751    5.2309 O   0  0  0  0  0  0  0  0  0  0  0  0
   46.7554    0.8213    7.8693 C   0  0  0  0  0  0  0  0  0  0  0  0
   47.5398    1.2301    6.7925 C   0  0  0  0  0  0  0  0  0  0  0  0
   45.8368    1.7051    8.4394 C   0  0  0  0  0  0  0  0  0  0  0  0
   44.6912    3.9449    8.5360 C   0  0  0  0  0  0  0  0  0  0  0  0
   46.4203    1.6498    7.8407 C   0  0  0  0  0  0  0  0  0  0  0  0
   46.6381    2.6864    6.9244 C   0  0  0  0  0  0  0  0  0  0  0  0
   47.0089    0.4221    7.7263 O   0  0  0  0  0  0  0  0  0  0  0  0
   47.5407    2.5327    5.7356 C   0  0  0  0  0  0  0  0  0  0  0  0
   45.5756    1.8233    8.9358 C   0  0  0  0  0  0  0  0  0  0  0  0
   45.9817    3.9091    7.1376 C   0  0  0  0  0  0  0  0  0  0  0  0
   45.1346    4.0859    8.2344 C   0  0  0  0  0  0  0  0  0  0  0  0
   44.9314    3.0425    9.1340 C   0  0  0  0  0  0  0  0  0  0  0  0
   47.5495    2.5396    6.1509 C   0  0  0  0  0  0  0  0  0  0  0  0
   45.6423    2.7451    8.1808 C   0  0  0  0  0  0  0  0  0  0  0  0
   47.2969    3.7746    6.7349 C   0  0  0  0  0  0  0  0  0  0  0  0
   46.8571    1.4043    6.5586 C   0  0  0  0  0  0  0  0  0  0  0  0
   46.3401    3.8793    7.7457 C   0  0  0  0  0  0  0  0  0  0  0  0
   45.8997    1.5100    7.5705 C   0  0  0  0  0  0  0  0  0  0  0  0
   48.4916    2.4823    5.1668 O   0  0  0  0  0  0  0  0  0  0  0  0
   44.5900    2.8631    9.2433 C   0  0  0  0  0  0  0  0  0  0  0  0
   46.3732    4.4106    6.4482 H   0  0  0  0  0  0  0  0  0  0  0  0
   47.9735    3.7936    4.9934 H   0  0  0  0  0  0  0  0  0  0  0  0
   46.8577   -0.1865    8.2626 H   0  0  0  0  0  0  0  0  0  0  0  0
   48.2553    0.5470    6.3444 H   0  0  0  0  0  0  0  0  0  0  0  0
   45.2261    1.3697    9.2748 H   0  0  0  0  0  0  0  0  0  0  0  0
   43.7328    3.8359    8.0191 H   0  0  0  0  0  0  0  0  0  0  0  0
   44.5447    3.7383    9.6014 H   0  0  0  0  0  0  0  0  0  0  0  0
   45.0239    4.9847    8.4502 H   0  0  0  0  0  0  0  0  0  0  0  0
   47.5710    0.4095    6.9370 H   0  0  0  0  0  0  0  0  0  0  0  0
   47.5829    3.4498    5.1384 H   0  0  0  0  0  0  0  0  0  0  0  0
   48.5604    2.3036    6.0613 H   0  0  0  0  0  0  0  0  0  0  0  0
   47.1766    1.7313    5.0847 H   0  0  0  0  0  0  0  0  0  0  0  0
   45.4209    1.0057    9.6343 H   0  0  0  0  0  0  0  0  0  0  0  0
   46.1252    4.7384    6.4481 H   0  0  0  0  0  0  0  0  0  0  0  0
   44.6336    5.0386    8.3857 H   0  0  0  0  0  0  0  0  0  0  0  0
   44.2732    3.1766    9.9878 H   0  0  0  0  0  0  0  0  0  0  0  0
   47.8406    4.6541    6.4028 H   0  0  0  0  0  0  0  0  0  0  0  0
   47.0436    0.4369    6.1039 H   0  0  0  0  0  0  0  0  0  0  0  0
   46.1440    4.8516    8.1916 H   0  0  0  0  0  0  0  0  0  0  0  0
   45.3546    0.6217    7.8819 H   0  0  0  0  0  0  0  0  0  0  0  0
   48.5588    1.5639    4.8591 H   0  0  0  0  0  0  0  0  0  0  0  0
   44.8344    3.6651    9.9479 H   0  0  0  0  0  0  0  0  0  0  0  0
   43.6191    3.0772    8.7862 H   0  0  0  0  0  0  0  0  0  0  0  0
   44.5129    1.9362    9.8212 H   0  0  0  0  0  0  0  0  0  0  0  0
  2  1  2  0
  3  1  1  0
  4  2  1  0
  5  7  1  0
  6  2  1  0
  7  3  2  0
  8  3  1  0
  6  5  2  0
 10  9  2  0
 11  9  1  0
 12 10  1  0
 13  9  1  0
 14 10  1  0
 15 14  2  0
 16 13  2  0
 16 15  1  0
 18 21  2  0
 19 17  2  0
 20 17  1  0
 21 19  1  0
 22 20  2  0
 23 17  1  0
 24 18  1  0
 22 18  1  0
  1 25  1  0
  4 26  1  0
  5 27  1  0
  6 28  1  0
  7 29  1  0
  8 30  1  0
  8 31  1  0
  8 32  1  0
 11 33  1  0
 12 34  1  0
 12 35  1  0
 12 36  1  0
 13 37  1  0
 14 38  1  0
 15 39  1  0
 16 40  1  0
 19 41  1  0
 20 42  1  0
 21 43  1  0
 22 44  1  0
 23 45  1  0
 24 46  1  0
 24 47  1  0
 24 48  1  0
M  END
> <Uni-Dock RESULT> 
ENERGY=  -13.138  LOWER_BOUND=    0.000  UPPER_BOUND=    0.000
INTER + INTRA:         -13.138
INTER:                 -13.138
INTRA:                   0.000
UNBOUND:                 0.000

$$$$

     RDKit          3D

 48 48  0  0  0  0  0  0  0  0999 V2000
   45.8595    1.7174    8.0236 C   0  0  0  0  0  0  0  0  0  0  0  0
   45.0844    2.4786    8.8959 C   0  0  0  0  0  0  0  0  0  0  0  0
   46.7117    2.3549    7.1116 C   0  0  0  0  0  0  0  0  0  0  0  0
   44.2497    1.8908    9.8007 O   0  0  0  0  0  0  0  0  0  0  0  0
   45.9686    4.5078    7.9559 C   0  0  0  0  0  0  0  0  0  0  0  0
   45.1348    3.8667    8.8698 C   0  0  0  0  0  0  0  0  0  0  0  0
   46.7503    3.7556    7.0765 C   0  0  0  0  0  0  0  0  0  0  0  0
   47.5270    1.5502    6.1430 C   0  0  0  0  0  0  0  0  0  0  0  0
   46.2002    3.6816    7.7042 C   0  0  0  0  0  0  0  0  0  0  0  0
   45.6962    2.4366    8.1010 C   0  0  0  0  0  0  0  0  0  0  0  0
   45.7145    4.8657    8.1826 O   0  0  0  0  0  0  0  0  0  0  0  0
   44.5754    2.3005    9.0893 C   0  0  0  0  0  0  0  0  0  0  0  0
   47.2426    3.7755    6.7836 C   0  0  0  0  0  0  0  0  0  0  0  0
   46.2696    1.2814    7.5460 C   0  0  0  0  0  0  0  0  0  0  0  0
   47.3145    1.3725    6.6232 C   0  0  0  0  0  0  0  0  0  0  0  0
   47.8013    2.6201    6.2418 C   0  0  0  0  0  0  0  0  0  0  0  0
   44.9690    2.4305    9.0610 C   0  0  0  0  0  0  0  0  0  0  0  0
   46.8438    2.6728    7.0051 C   0  0  0  0  0  0  0  0  0  0  0  0
   45.9173    1.4327    8.8738 C   0  0  0  0  0  0  0  0  0  0  0  0
   44.9356    3.5458    8.2307 C   0  0  0  0  0  0  0  0  0  0  0  0
   46.8513    1.5502    7.8433 C   0  0  0  0  0  0  0  0  0  0  0  0
   45.8709    3.6627    7.1994 C   0  0  0  0  0  0  0  0  0  0  0  0
   44.0752    2.2754   10.0790 O   0  0  0  0  0  0  0  0  0  0  0  0
   47.8257    2.7834    5.8764 C   0  0  0  0  0  0  0  0  0  0  0  0
   45.8097    0.6328    8.0440 H   0  0  0  0  0  0  0  0  0  0  0  0
   44.3218    0.9274    9.7047 H   0  0  0  0  0  0  0  0  0  0  0  0
   46.0076    5.5933    7.9266 H   0  0  0  0  0  0  0  0  0  0  0  0
   44.5239    4.4463    9.5556 H   0  0  0  0  0  0  0  0  0  0  0  0
   47.3910    4.2698    6.3636 H   0  0  0  0  0  0  0  0  0  0  0  0
   46.9520    1.3699    5.2295 H   0  0  0  0  0  0  0  0  0  0  0  0
   48.4525    2.0739    5.8815 H   0  0  0  0  0  0  0  0  0  0  0  0
   47.8118    0.5867    6.5785 H   0  0  0  0  0  0  0  0  0  0  0  0
   44.9982    4.6871    8.8103 H   0  0  0  0  0  0  0  0  0  0  0  0
   44.3222    1.2507    9.2718 H   0  0  0  0  0  0  0  0  0  0  0  0
   44.8609    2.7428   10.0492 H   0  0  0  0  0  0  0  0  0  0  0  0
   43.6754    2.7965    8.7121 H   0  0  0  0  0  0  0  0  0  0  0  0
   47.6183    4.7517    6.4898 H   0  0  0  0  0  0  0  0  0  0  0  0
   45.9056    0.2959    7.8291 H   0  0  0  0  0  0  0  0  0  0  0  0
   47.7479    0.4687    6.2025 H   0  0  0  0  0  0  0  0  0  0  0  0
   48.6137    2.6944    5.5244 H   0  0  0  0  0  0  0  0  0  0  0  0
   45.9283    0.5642    9.5259 H   0  0  0  0  0  0  0  0  0  0  0  0
   44.1947    4.3270    8.3658 H   0  0  0  0  0  0  0  0  0  0  0  0
   47.5850    0.7605    7.7000 H   0  0  0  0  0  0  0  0  0  0  0  0
   45.8374    4.5325    6.5471 H   0  0  0  0  0  0  0  0  0  0  0  0
   43.4825    3.0444   10.0872 H   0  0  0  0  0  0  0  0  0  0  0  0
   48.7699    2.2900    6.1303 H   0  0  0  0  0  0  0  0  0  0  0  0
   47.4141    2.3181    4.9756 H   0  0  0  0  0  0  0  0  0  0  0  0
   48.0555    3.8320    5.6603 H   0  0  0  0  0  0  0  0  0  0  0  0
  2  1  2  0
  3  1  1  0
  4  2  1  0
  5  7  1  0
  6  2  1  0
  7  3  2  0
  8  3  1  0
  6  5  2  0
 10  9  2  0
 11  9  1  0
 12 10  1  0
 13  9  1  0
 14 10  1  0
 15 14  2  0
 16 13  2  0
 16 15  1  0
 18 21  2  0
 19 17  2  0
 20 17  1  0
 21 19  1  0
 22 20  2  0
 23 17  1  0
 24 18  1  0
 22 18  1  0
  1 25  1  0
  4 26  1  0
  5 27  1  0
  6 28  1  0
  7 29  1  0
  8 30  1  0
  8 31  1  0
  8 32  1  0
 11 33  1  0
 12 34  1  0
 12 35  1  0
 12 36  1  0
 13 37  1  0
 14 38  1  0
 15 39  1  0
 16 40  1  0
 19 41  1  0
 20 42  1  0
 21 43  1  0
 22 44  1  0
 23 45  1  0
 24 46  1  0
 24 47  1  0
 24 48  1  0
M  END
> <Uni-Dock RESULT> 
ENERGY=  -12.460  LOWER_BOUND=    1.577  UPPER_BOUND=    3.702
INTER + INTRA:         -12.460
INTER:                 -12.460
INTRA:                   0.000
UNBOUND:                 0.000

$$$$

     RDKit          3D

 48 48  0  0  0  0  0  0  0  0999 V2000
   46.0873    3.7304    7.6454 C   0  0  0  0  0  0  0  0  0  0  0  0
   44.9984    3.5844    8.5020 C   0  0  0  0  0  0  0  0  0  0  0  0
   46.8132    2.6011    7.2424 C   0  0  0  0  0  0  0  0  0  0  0  0
   44.2659    4.6609    8.9086 O   0  0  0  0  0  0  0  0  0  0  0  0
   45.3499    1.2070    8.5896 C   0  0  0  0  0  0  0  0  0  0  0  0
   44.6241    2.3326    8.9742 C   0  0  0  0  0  0  0  0  0  0  0  0
   46.4433    1.3407    7.7313 C   0  0  0  0  0  0  0  0  0  0  0  0
   48.0086    2.7455    6.3476 C   0  0  0  0  0  0  0  0  0  0  0  0
   45.8398    1.7813    8.1105 C   0  0  0  0  0  0  0  0  0  0  0  0
   45.7980    3.1799    8.0493 C   0  0  0  0  0  0  0  0  0  0  0  0
   45.0182    1.0487    8.9199 O   0  0  0  0  0  0  0  0  0  0  0  0
   44.8421    3.9927    8.8722 C   0  0  0  0  0  0  0  0  0  0  0  0
   46.7397    1.0539    7.3332 C   0  0  0  0  0  0  0  0  0  0  0  0
   46.6885    3.8330    7.1823 C   0  0  0  0  0  0  0  0  0  0  0  0
   47.5914    3.1065    6.4020 C   0  0  0  0  0  0  0  0  0  0  0  0
   47.6170    1.7163    6.4774 C   0  0  0  0  0  0  0  0  0  0  0  0
   44.8492    3.7139    8.5643 C   0  0  0  0  0  0  0  0  0  0  0  0
   46.8290    2.2414    7.2557 C   0  0  0  0  0  0  0  0  0  0  0  0
   45.3593    4.1697    7.3552 C   0  0  0  0  0  0  0  0  0  0  0  0
   45.3191    2.5366    9.1367 C   0  0  0  0  0  0  0  0  0  0  0  0
   46.3525    3.4374    6.7030 C   0  0  0  0  0  0  0  0  0  0  0  0
   46.3133    1.8041    8.4832 C   0  0  0  0  0  0  0  0  0  0  0  0
   43.8806    4.4602    9.1677 O   0  0  0  0  0  0  0  0  0  0  0  0
   47.9202    1.4717    6.5722 C   0  0  0  0  0  0  0  0  0  0  0  0
   46.3793    4.7126    7.2860 H   0  0  0  0  0  0  0  0  0  0  0  0
   44.6396    5.4587    8.5005 H   0  0  0  0  0  0  0  0  0  0  0  0
   45.0657    0.2260    8.9606 H   0  0  0  0  0  0  0  0  0  0  0  0
   43.7734    2.2350    9.6421 H   0  0  0  0  0  0  0  0  0  0  0  0
   47.0050    0.4540    7.4455 H   0  0  0  0  0  0  0  0  0  0  0  0
   48.9085    2.9073    6.9490 H   0  0  0  0  0  0  0  0  0  0  0  0
   48.1487    1.8490    5.7346 H   0  0  0  0  0  0  0  0  0  0  0  0
   47.8836    3.5905    5.6624 H   0  0  0  0  0  0  0  0  0  0  0  0
   44.4376    1.6482    9.4124 H   0  0  0  0  0  0  0  0  0  0  0  0
   44.9599    5.0657    8.6870 H   0  0  0  0  0  0  0  0  0  0  0  0
   43.8092    3.7267    8.6259 H   0  0  0  0  0  0  0  0  0  0  0  0
   45.0191    3.8204    9.9388 H   0  0  0  0  0  0  0  0  0  0  0  0
   46.7551   -0.0307    7.3962 H   0  0  0  0  0  0  0  0  0  0  0  0
   46.6866    4.9183    7.1067 H   0  0  0  0  0  0  0  0  0  0  0  0
   48.2744    3.6268    5.7355 H   0  0  0  0  0  0  0  0  0  0  0  0
   48.3179    1.1483    5.8721 H   0  0  0  0  0  0  0  0  0  0  0  0
   44.9875    5.0938    6.9224 H   0  0  0  0  0  0  0  0  0  0  0  0
   44.9308    2.1762   10.0837 H   0  0  0  0  0  0  0  0  0  0  0  0
   46.7508    3.8061    5.7607 H   0  0  0  0  0  0  0  0  0  0  0  0
   46.6840    0.8877    8.9372 H   0  0  0  0  0  0  0  0  0  0  0  0
   43.6239    4.0200    9.9942 H   0  0  0  0  0  0  0  0  0  0  0  0
   47.8624    1.5934    5.4854 H   0  0  0  0  0  0  0  0  0  0  0  0
   48.8977    1.8230    6.9163 H   0  0  0  0  0  0  0  0  0  0  0  0
   47.8339    0.4007    6.7837 H   0  0  0  0  0  0  0  0  0  0  0  0
  2  1  2  0
  3  1  1  0
  4  2  1  0
  5  7  1  0
  6  2  1  0
  7  3  2  0
  8  3  1  0
  6  5  2  0
 10  9  2  0
 11  9  1  0
 12 10  1  0
 13  9  1  0
 14 10  1  0
 15 14  2  0
 16 13  2  0
 16 15  1  0
 18 21  2  0
 19 17  2  0
 20 17  1  0
 21 19  1  0
 22 20  2  0
 23 17  1  0
 24 18  1  0
 22 18  1  0
  1 25  1  0
  4 26  1  0
  5 27  1  0
  6 28  1  0
  7 29  1  0
  8 30  1  0
  8 31  1  0
  8 32  1  0
 11 33  1  0
 12 34  1  0
 12 35  1  0
 12 36  1  0
 13 37  1  0
 14 38  1  0
 15 39  1  0
 16 40  1  0
 19 41  1  0
 20 42  1  0
 21 43  1  0
 22 44  1  0
 23 45  1  0
 24 46  1  0
 24 47  1  0
 24 48  1  0
M  END
> <Uni-Dock RESULT> 
ENERGY=  -11.968  LOWER_BOUND=    1.674  UPPER_BOUND=    3.138
INTER + INTRA:         -11.968
INTER:                 -11.968
INTRA:                   0.000
UNBOUND:                 0.000

$$$$

     RDKit          3D

 48 48  0  0  0  0  0  0  0  0999 V2000
   46.0873    3.7304    7.6454 C   0  0  0  0  0  0  0  0  0  0  0  0
   44.9983    3.5843    8.5020 C   0  0  0  0  0  0  0  0  0  0  0  0
   46.8132    2.6011    7.2424 C   0  0  0  0  0  0  0  0  0  0  0  0
   44.2658    4.6607    8.9086 O   0  0  0  0  0  0  0  0  0  0  0  0
   45.3499    1.2069    8.5896 C   0  0  0  0  0  0  0  0  0  0  0  0
   44.6240    2.3324    8.9741 C   0  0  0  0  0  0  0  0  0  0  0  0
   46.4434    1.3406    7.7313 C   0  0  0  0  0  0  0  0  0  0  0  0
   48.0086    2.7456    6.3477 C   0  0  0  0  0  0  0  0  0  0  0  0
   45.8399    1.7813    8.1104 C   0  0  0  0  0  0  0  0  0  0  0  0
   45.7979    3.1798    8.0494 C   0  0  0  0  0  0  0  0  0  0  0  0
   45.0182    1.0486    8.9198 O   0  0  0  0  0  0  0  0  0  0  0  0
   44.8420    3.9925    8.8723 C   0  0  0  0  0  0  0  0  0  0  0  0
   46.7397    1.0539    7.3331 C   0  0  0  0  0  0  0  0  0  0  0  0
   46.6884    3.8330    7.1824 C   0  0  0  0  0  0  0  0  0  0  0  0
   47.5914    3.1065    6.4021 C   0  0  0  0  0  0  0  0  0  0  0  0
   47.6170    1.7163    6.4774 C   0  0  0  0  0  0  0  0  0  0  0  0
   44.8492    3.7138    8.5643 C   0  0  0  0  0  0  0  0  0  0  0  0
   46.8290    2.2414    7.2557 C   0  0  0  0  0  0  0  0  0  0  0  0
   45.3592    4.1696    7.3552 C   0  0  0  0  0  0  0  0  0  0  0  0
   45.3191    2.5364    9.1367 C   0  0  0  0  0  0  0  0  0  0  0  0
   46.3525    3.4374    6.7031 C   0  0  0  0  0  0  0  0  0  0  0  0
   46.3133    1.8040    8.4832 C   0  0  0  0  0  0  0  0  0  0  0  0
   43.8805    4.4600    9.1678 O   0  0  0  0  0  0  0  0  0  0  0  0
   47.9202    1.4718    6.5722 C   0  0  0  0  0  0  0  0  0  0  0  0
   46.3792    4.7126    7.2861 H   0  0  0  0  0  0  0  0  0  0  0  0
   44.6394    5.4585    8.5006 H   0  0  0  0  0  0  0  0  0  0  0  0
   45.0657    0.2258    8.9605 H   0  0  0  0  0  0  0  0  0  0  0  0
   43.7733    2.2348    9.6421 H   0  0  0  0  0  0  0  0  0  0  0  0
   47.0050    0.4540    7.4454 H   0  0  0  0  0  0  0  0  0  0  0  0
   48.9085    2.9074    6.9491 H   0  0  0  0  0  0  0  0  0  0  0  0
   48.1487    1.8491    5.7346 H   0  0  0  0  0  0  0  0  0  0  0  0
   47.8836    3.5906    5.6625 H   0  0  0  0  0  0  0  0  0  0  0  0
   44.4376    1.6480    9.4123 H   0  0  0  0  0  0  0  0  0  0  0  0
   44.9598    5.0655    8.6871 H   0  0  0  0  0  0  0  0  0  0  0  0
   43.8091    3.7265    8.6259 H   0  0  0  0  0  0  0  0  0  0  0  0
   45.0190    3.8202    9.9388 H   0  0  0  0  0  0  0  0  0  0  0  0
   46.7552   -0.0307    7.3962 H   0  0  0  0  0  0  0  0  0  0  0  0
   46.6865    4.9183    7.1068 H   0  0  0  0  0  0  0  0  0  0  0  0
   48.2744    3.6269    5.7356 H   0  0  0  0  0  0  0  0  0  0  0  0
   48.3179    1.1484    5.8721 H   0  0  0  0  0  0  0  0  0  0  0  0
   44.9874    5.0938    6.9225 H   0  0  0  0  0  0  0  0  0  0  0  0
   44.9308    2.1761   10.0837 H   0  0  0  0  0  0  0  0  0  0  0  0
   46.7508    3.8061    5.7608 H   0  0  0  0  0  0  0  0  0  0  0  0
   46.6840    0.8876    8.9371 H   0  0  0  0  0  0  0  0  0  0  0  0
   43.6238    4.0198    9.9942 H   0  0  0  0  0  0  0  0  0  0  0  0
   47.8624    1.5935    5.4854 H   0  0  0  0  0  0  0  0  0  0  0  0
   48.8977    1.8230    6.9164 H   0  0  0  0  0  0  0  0  0  0  0  0
   47.8340    0.4008    6.7836 H   0  0  0  0  0  0  0  0  0  0  0  0
  2  1  2  0
  3  1  1  0
  4  2  1  0
  5  7  1  0
  6  2  1  0
  7  3  2  0
  8  3  1  0
  6  5  2  0
 10  9  2  0
 11  9  1  0
 12 10  1  0
 13  9  1  0
 14 10  1  0
 15 14  2  0
 16 13  2  0
 16 15  1  0
 18 21  2  0
 19 17  2  0
 20 17  1  0
 21 19  1  0
 22 20  2  0
 23 17  1  0
 24 18  1  0
 22 18  1  0
  1 25  1  0
  4 26  1  0
  5 27  1  0
  6 28  1  0
  7 29  1  0
  8 30  1  0
  8 31  1  0
  8 32  1  0
 11 33  1  0
 12 34  1  0
 12 35  1  0
 12 36  1  0
 13 37  1  0
 14 38  1  0
 15 39  1  0
 16 40  1  0
 19 41  1  0
 20 42  1  0
 21 43  1  0
 22 44  1  0
 23 45  1  0
 24 46  1  0
 24 47  1  0
 24 48  1  0
M  END
> <Uni-Dock RESULT> 
ENERGY=  -11.968  LOWER_BOUND=    1.674  UPPER_BOUND=    3.138
INTER + INTRA:         -11.968
INTER:                 -11.968
INTRA:                   0.000
UNBOUND:                 0.000

$$$$

     RDKit          3D

 48 48  0  0  0  0  0  0  0  0999 V2000
   45.3789    4.3332    8.3837 C   0  0  0  0  0  0  0  0  0  0  0  0
   46.1298    3.5270    7.5308 C   0  0  0  0  0  0  0  0  0  0  0  0
   44.6901    3.7572    9.4600 C   0  0  0  0  0  0  0  0  0  0  0  0
   46.8178    4.0551    6.4781 O   0  0  0  0  0  0  0  0  0  0  0  0
   45.5053    1.5714    8.7835 C   0  0  0  0  0  0  0  0  0  0  0  0
   46.1994    2.1530    7.7243 C   0  0  0  0  0  0  0  0  0  0  0  0
   44.7494    2.3691    9.6451 C   0  0  0  0  0  0  0  0  0  0  0  0
   43.8501    4.6071   10.3669 C   0  0  0  0  0  0  0  0  0  0  0  0
   45.2530    2.4072    8.9764 C   0  0  0  0  0  0  0  0  0  0  0  0
   45.4673    3.6040    8.2813 C   0  0  0  0  0  0  0  0  0  0  0  0
   45.7001    1.1971    8.5265 O   0  0  0  0  0  0  0  0  0  0  0  0
   46.2096    3.6554    6.9783 C   0  0  0  0  0  0  0  0  0  0  0  0
   44.5592    2.3918   10.1853 C   0  0  0  0  0  0  0  0  0  0  0  0
   44.9639    4.7920    8.8348 C   0  0  0  0  0  0  0  0  0  0  0  0
   44.2682    4.7796   10.0463 C   0  0  0  0  0  0  0  0  0  0  0  0
   44.0657    3.5789   10.7220 C   0  0  0  0  0  0  0  0  0  0  0  0
   46.2661    3.5687    7.3806 C   0  0  0  0  0  0  0  0  0  0  0  0
   44.6310    3.4518    9.6418 C   0  0  0  0  0  0  0  0  0  0  0  0
   46.2050    4.6567    8.2423 C   0  0  0  0  0  0  0  0  0  0  0  0
   45.5152    2.4238    7.6253 C   0  0  0  0  0  0  0  0  0  0  0  0
   45.3841    4.6014    9.3697 C   0  0  0  0  0  0  0  0  0  0  0  0
   44.6938    2.3692    8.7541 C   0  0  0  0  0  0  0  0  0  0  0  0
   47.0803    3.6652    6.2911 O   0  0  0  0  0  0  0  0  0  0  0  0
   43.7228    3.4047   10.8348 C   0  0  0  0  0  0  0  0  0  0  0  0
   45.3225    5.4055    8.2224 H   0  0  0  0  0  0  0  0  0  0  0  0
   46.6785    5.0159    6.4709 H   0  0  0  0  0  0  0  0  0  0  0  0
   45.5510    0.4965    8.9362 H   0  0  0  0  0  0  0  0  0  0  0  0
   46.7881    1.5378    7.0504 H   0  0  0  0  0  0  0  0  0  0  0  0
   44.2071    1.9003   10.4632 H   0  0  0  0  0  0  0  0  0  0  0  0
   42.8332    4.6856    9.9701 H   0  0  0  0  0  0  0  0  0  0  0  0
   43.8054    4.1786   11.3737 H   0  0  0  0  0  0  0  0  0  0  0  0
   44.2724    5.6130   10.4611 H   0  0  0  0  0  0  0  0  0  0  0  0
   46.1651    1.3208    7.6853 H   0  0  0  0  0  0  0  0  0  0  0  0
   46.2747    4.6774    6.5898 H   0  0  0  0  0  0  0  0  0  0  0  0
   47.2319    3.2866    7.1099 H   0  0  0  0  0  0  0  0  0  0  0  0
   45.6964    3.0482    6.2257 H   0  0  0  0  0  0  0  0  0  0  0  0
   44.4043    1.4520   10.7080 H   0  0  0  0  0  0  0  0  0  0  0  0
   45.1099    5.7419    8.3249 H   0  0  0  0  0  0  0  0  0  0  0  0
   43.8846    5.7079   10.4619 H   0  0  0  0  0  0  0  0  0  0  0  0
   43.5252    3.5657   11.6642 H   0  0  0  0  0  0  0  0  0  0  0  0
   46.7922    5.5468    8.0360 H   0  0  0  0  0  0  0  0  0  0  0  0
   45.5521    1.5717    6.9545 H   0  0  0  0  0  0  0  0  0  0  0  0
   45.3373    5.4608   10.0343 H   0  0  0  0  0  0  0  0  0  0  0  0
   44.1021    1.4753    8.9385 H   0  0  0  0  0  0  0  0  0  0  0  0
   47.0208    2.8365    5.7888 H   0  0  0  0  0  0  0  0  0  0  0  0
   44.1239    4.0091   11.6553 H   0  0  0  0  0  0  0  0  0  0  0  0
   42.7325    3.7848   10.5663 H   0  0  0  0  0  0  0  0  0  0  0  0
   43.6201    2.3800   11.2071 H   0  0  0  0  0  0  0  0  0  0  0  0
  2  1  2  0
  3  1  1  0
  4  2  1  0
  5  7  1  0
  6  2  1  0
  7  3  2  0
  8  3  1  0
  6  5  2  0
 10  9  2  0
 11  9  1  0
 12 10  1  0
 13  9  1  0
 14 10  1  0
 15 14  2  0
 16 13  2  0
 16 15  1  0
 18 21  2  0
 19 17  2  0
 20 17  1  0
 21 19  1  0
 22 20  2  0
 23 17  1  0
 24 18  1  0
 22 18  1  0
  1 25  1  0
  4 26  1  0
  5 27  1  0
  6 28  1  0
  7 29  1  0
  8 30  1  0
  8 31  1  0
  8 32  1  0
 11 33  1  0
 12 34  1  0
 12 35  1  0
 12 36  1  0
 13 37  1  0
 14 38  1  0
 15 39  1  0
 16 40  1  0
 19 41  1  0
 20 42  1  0
 21 43  1  0
 22 44  1  0
 23 45  1  0
 24 46  1  0
 24 47  1  0
 24 48  1  0
M  END
> <Uni-Dock RESULT> 
ENERGY=  -10.573  LOWER_BOUND=    1.237  UPPER_BOUND=    1.977
INTER + INTRA:         -10.573
INTER:                 -10.573
INTRA:                   0.000
UNBOUND:                 0.000

$$$$
