
     RDKit          3D

 48 48  0  0  0  0  0  0  0  0999 V2000
   46.1493    3.4595    7.3687 C   0  0  0  0  0  0  0  0  0  0  0  0
   46.9390    2.9632    6.3337 C   0  0  0  0  0  0  0  0  0  0  0  0
   45.7239    2.6026    8.3930 C   0  0  0  0  0  0  0  0  0  0  0  0
   47.3763    3.7704    5.3247 O   0  0  0  0  0  0  0  0  0  0  0  0
   46.8740    0.7626    7.3014 C   0  0  0  0  0  0  0  0  0  0  0  0
   47.3053    1.6237    6.2943 C   0  0  0  0  0  0  0  0  0  0  0  0
   46.0822    1.2484    8.3440 C   0  0  0  0  0  0  0  0  0  0  0  0
   44.8452    3.1142    9.4960 C   0  0  0  0  0  0  0  0  0  0  0  0
   45.9167    3.4568    7.6318 C   0  0  0  0  0  0  0  0  0  0  0  0
   45.7333    2.1843    8.1827 C   0  0  0  0  0  0  0  0  0  0  0  0
   45.1079    4.4754    8.0521 O   0  0  0  0  0  0  0  0  0  0  0  0
   44.6721    1.9366    9.2145 C   0  0  0  0  0  0  0  0  0  0  0  0
   46.9015    3.6921    6.6726 C   0  0  0  0  0  0  0  0  0  0  0  0
   46.5628    1.1402    7.7514 C   0  0  0  0  0  0  0  0  0  0  0  0
   47.5508    1.3693    6.7914 C   0  0  0  0  0  0  0  0  0  0  0  0
   47.7197    2.6437    6.2528 C   0  0  0  0  0  0  0  0  0  0  0  0
   47.4022    2.3633    6.3410 C   0  0  0  0  0  0  0  0  0  0  0  0
   45.4940    2.6368    8.3617 C   0  0  0  0  0  0  0  0  0  0  0  0
   47.1868    1.3130    7.2271 C   0  0  0  0  0  0  0  0  0  0  0  0
   46.6865    3.5483    6.4551 C   0  0  0  0  0  0  0  0  0  0  0  0
   46.2356    1.4538    8.2406 C   0  0  0  0  0  0  0  0  0  0  0  0
   45.7363    3.6880    7.4680 C   0  0  0  0  0  0  0  0  0  0  0  0
   48.3210    2.2693    5.3377 O   0  0  0  0  0  0  0  0  0  0  0  0
   44.4974    2.7989    9.4712 C   0  0  0  0  0  0  0  0  0  0  0  0
   45.8603    4.5059    7.3894 H   0  0  0  0  0  0  0  0  0  0  0  0
   47.0473    4.6695    5.4862 H   0  0  0  0  0  0  0  0  0  0  0  0
   47.1521   -0.2875    7.2726 H   0  0  0  0  0  0  0  0  0  0  0  0
   47.9207    1.2515    5.4805 H   0  0  0  0  0  0  0  0  0  0  0  0
   45.7467    0.5629    9.1192 H   0  0  0  0  0  0  0  0  0  0  0  0
   43.7932    3.0248    9.2081 H   0  0  0  0  0  0  0  0  0  0  0  0
   45.0648    4.1645    9.7147 H   0  0  0  0  0  0  0  0  0  0  0  0
   45.0088    2.5496   10.4199 H   0  0  0  0  0  0  0  0  0  0  0  0
   45.3596    5.2852    7.5798 H   0  0  0  0  0  0  0  0  0  0  0  0
   43.6832    2.1647    8.8039 H   0  0  0  0  0  0  0  0  0  0  0  0
   44.8503    2.5572   10.0986 H   0  0  0  0  0  0  0  0  0  0  0  0
   44.6641    0.8906    9.5388 H   0  0  0  0  0  0  0  0  0  0  0  0
   47.0451    4.6788    6.2441 H   0  0  0  0  0  0  0  0  0  0  0  0
   46.4443    0.1399    8.1614 H   0  0  0  0  0  0  0  0  0  0  0  0
   48.1882    0.5518    6.4645 H   0  0  0  0  0  0  0  0  0  0  0  0
   48.4893    2.8192    5.5058 H   0  0  0  0  0  0  0  0  0  0  0  0
   47.7455    0.3862    7.1492 H   0  0  0  0  0  0  0  0  0  0  0  0
   46.8689    4.3625    5.7598 H   0  0  0  0  0  0  0  0  0  0  0  0
   46.0748    0.6335    8.9367 H   0  0  0  0  0  0  0  0  0  0  0  0
   45.1863    4.6222    7.5538 H   0  0  0  0  0  0  0  0  0  0  0  0
   48.7360    1.3927    5.3823 H   0  0  0  0  0  0  0  0  0  0  0  0
   44.9877    3.2145   10.3568 H   0  0  0  0  0  0  0  0  0  0  0  0
   44.0466    1.8363    9.7347 H   0  0  0  0  0  0  0  0  0  0  0  0
   43.6833    3.4667    9.1705 H   0  0  0  0  0  0  0  0  0  0  0  0
  2  1  2  0
  3  1  1  0
  4  2  1  0
  5  7  1  0
  6  2  1  0
  7  3  2  0
  8  3  1  0
  6  5  2  0
 10  9  2  0
 11  9  1  0
 12 10  1  0
 13  9  1  0
 14 10  1  0
 15 14  2  0
 16 13  2  0
 16 15  1  0
 18 21  2  0
 19 17  2  0
 20 17  1  0
 21 19  1  0
 22 20  2  0
 23 17  1  0
 24 18  1  0
 22 18  1  0
  1 25  1  0
  4 26  1  0
  5 27  1  0
  6 28  1  0
  7 29  1  0
  8 30  1  0
  8 31  1  0
  8 32  1  0
 11 33  1  0
 12 34  1  0
 12 35  1  0
 12 36  1  0
 13 37  1  0
 14 38  1  0
 15 39  1  0
 16 40  1  0
 19 41  1  0
 20 42  1  0
 21 43  1  0
 22 44  1  0
 23 45  1  0
 24 46  1  0
 24 47  1  0
 24 48  1  0
M  END
> <Uni-Dock RESULT> 
ENERGY=  -15.207  LOWER_BOUND=    0.000  UPPER_BOUND=    0.000
INTER + INTRA:         -15.207
INTER:                 -15.207
INTRA:                   0.000
UNBOUND:                 0.000

$$$$

     RDKit          3D

 48 48  0  0  0  0  0  0  0  0999 V2000
   46.1110    3.4568    7.3576 C   0  0  0  0  0  0  0  0  0  0  0  0
   46.9070    2.9678    6.3240 C   0  0  0  0  0  0  0  0  0  0  0  0
   45.7060    2.6000    8.3902 C   0  0  0  0  0  0  0  0  0  0  0  0
   47.3249    3.7752    5.3070 O   0  0  0  0  0  0  0  0  0  0  0  0
   46.8888    0.7743    7.3097 C   0  0  0  0  0  0  0  0  0  0  0  0
   47.2997    1.6355    6.2942 C   0  0  0  0  0  0  0  0  0  0  0  0
   46.0909    1.2529    8.3510 C   0  0  0  0  0  0  0  0  0  0  0  0
   44.8208    3.1031    9.4920 C   0  0  0  0  0  0  0  0  0  0  0  0
   45.8793    3.4516    7.6215 C   0  0  0  0  0  0  0  0  0  0  0  0
   45.7230    2.1803    8.1833 C   0  0  0  0  0  0  0  0  0  0  0  0
   45.0518    4.4574    8.0362 O   0  0  0  0  0  0  0  0  0  0  0  0
   44.6702    1.9200    9.2206 C   0  0  0  0  0  0  0  0  0  0  0  0
   46.8561    3.6986    6.6571 C   0  0  0  0  0  0  0  0  0  0  0  0
   46.5717    1.1494    7.7577 C   0  0  0  0  0  0  0  0  0  0  0  0
   47.5518    1.3901    6.7926 C   0  0  0  0  0  0  0  0  0  0  0  0
   47.6937    2.6632    6.2431 C   0  0  0  0  0  0  0  0  0  0  0  0
   47.3821    2.3772    6.3345 C   0  0  0  0  0  0  0  0  0  0  0  0
   45.4753    2.6294    8.3595 C   0  0  0  0  0  0  0  0  0  0  0  0
   47.1904    1.3302    7.2299 C   0  0  0  0  0  0  0  0  0  0  0  0
   46.6433    3.5487    6.4415 C   0  0  0  0  0  0  0  0  0  0  0  0
   46.2399    1.4604    8.2454 C   0  0  0  0  0  0  0  0  0  0  0  0
   45.6938    3.6778    7.4564 C   0  0  0  0  0  0  0  0  0  0  0  0
   48.2993    2.2933    5.3290 O   0  0  0  0  0  0  0  0  0  0  0  0
   44.4792    2.7807    9.4709 C   0  0  0  0  0  0  0  0  0  0  0  0
   45.8012    4.4974    7.3708 H   0  0  0  0  0  0  0  0  0  0  0  0
   46.9787    4.6689    5.4623 H   0  0  0  0  0  0  0  0  0  0  0  0
   47.1877   -0.2702    7.2885 H   0  0  0  0  0  0  0  0  0  0  0  0
   47.9197    1.2690    5.4814 H   0  0  0  0  0  0  0  0  0  0  0  0
   45.7715    0.5672    9.1329 H   0  0  0  0  0  0  0  0  0  0  0  0
   43.7699    2.9904    9.2084 H   0  0  0  0  0  0  0  0  0  0  0  0
   45.0202    4.1593    9.7014 H   0  0  0  0  0  0  0  0  0  0  0  0
   44.9985    2.5494   10.4199 H   0  0  0  0  0  0  0  0  0  0  0  0
   45.2858    5.2681    7.5565 H   0  0  0  0  0  0  0  0  0  0  0  0
   43.6757    2.1251    8.8115 H   0  0  0  0  0  0  0  0  0  0  0  0
   44.8389    2.5512   10.0991 H   0  0  0  0  0  0  0  0  0  0  0  0
   44.6840    0.8767    9.5535 H   0  0  0  0  0  0  0  0  0  0  0  0
   46.9788    4.6843    6.2201 H   0  0  0  0  0  0  0  0  0  0  0  0
   46.4744    0.1503    8.1762 H   0  0  0  0  0  0  0  0  0  0  0  0
   48.2043    0.5828    6.4702 H   0  0  0  0  0  0  0  0  0  0  0  0
   48.4572    2.8478    5.4921 H   0  0  0  0  0  0  0  0  0  0  0  0
   47.7672    0.4141    7.1576 H   0  0  0  0  0  0  0  0  0  0  0  0
   46.8073    4.3607    5.7390 H   0  0  0  0  0  0  0  0  0  0  0  0
   46.0976    0.6428    8.9487 H   0  0  0  0  0  0  0  0  0  0  0  0
   45.1256    4.6016    7.5365 H   0  0  0  0  0  0  0  0  0  0  0  0
   48.7319    1.4255    5.3793 H   0  0  0  0  0  0  0  0  0  0  0  0
   44.9640    3.2133   10.3514 H   0  0  0  0  0  0  0  0  0  0  0  0
   44.0485    1.8116    9.7438 H   0  0  0  0  0  0  0  0  0  0  0  0
   43.6510    3.4298    9.1675 H   0  0  0  0  0  0  0  0  0  0  0  0
  2  1  2  0
  3  1  1  0
  4  2  1  0
  5  7  1  0
  6  2  1  0
  7  3  2  0
  8  3  1  0
  6  5  2  0
 10  9  2  0
 11  9  1  0
 12 10  1  0
 13  9  1  0
 14 10  1  0
 15 14  2  0
 16 13  2  0
 16 15  1  0
 18 21  2  0
 19 17  2  0
 20 17  1  0
 21 19  1  0
 22 20  2  0
 23 17  1  0
 24 18  1  0
 22 18  1  0
  1 25  1  0
  4 26  1  0
  5 27  1  0
  6 28  1  0
  7 29  1  0
  8 30  1  0
  8 31  1  0
  8 32  1  0
 11 33  1  0
 12 34  1  0
 12 35  1  0
 12 36  1  0
 13 37  1  0
 14 38  1  0
 15 39  1  0
 16 40  1  0
 19 41  1  0
 20 42  1  0
 21 43  1  0
 22 44  1  0
 23 45  1  0
 24 46  1  0
 24 47  1  0
 24 48  1  0
M  END
> <Uni-Dock RESULT> 
ENERGY=  -15.193  LOWER_BOUND=    0.032  UPPER_BOUND=    0.032
INTER + INTRA:         -15.193
INTER:                 -15.193
INTRA:                   0.000
UNBOUND:                 0.000

$$$$

     RDKit          3D

 48 48  0  0  0  0  0  0  0  0999 V2000
   45.8376    1.9043    8.2455 C   0  0  0  0  0  0  0  0  0  0  0  0
   46.9373    1.4895    7.4973 C   0  0  0  0  0  0  0  0  0  0  0  0
   45.4398    3.2478    8.2135 C   0  0  0  0  0  0  0  0  0  0  0  0
   47.3476    0.1886    7.4997 O   0  0  0  0  0  0  0  0  0  0  0  0
   47.2755    3.7324    6.6985 C   0  0  0  0  0  0  0  0  0  0  0  0
   47.6561    2.3923    6.7238 C   0  0  0  0  0  0  0  0  0  0  0  0
   46.1750    4.1600    7.4442 C   0  0  0  0  0  0  0  0  0  0  0  0
   44.2789    3.7166    9.0400 C   0  0  0  0  0  0  0  0  0  0  0  0
   45.6275    2.1222    8.4234 C   0  0  0  0  0  0  0  0  0  0  0  0
   45.8377    3.4664    8.0990 C   0  0  0  0  0  0  0  0  0  0  0  0
   44.7763    1.8214    9.4498 O   0  0  0  0  0  0  0  0  0  0  0  0
   45.1457    4.5602    8.8585 C   0  0  0  0  0  0  0  0  0  0  0  0
   46.2682    1.1021    7.7207 C   0  0  0  0  0  0  0  0  0  0  0  0
   46.7106    3.7743    7.0466 C   0  0  0  0  0  0  0  0  0  0  0  0
   47.3552    2.7575    6.3389 C   0  0  0  0  0  0  0  0  0  0  0  0
   47.1342    1.4231    6.6757 C   0  0  0  0  0  0  0  0  0  0  0  0
   47.2229    1.8006    6.8678 C   0  0  0  0  0  0  0  0  0  0  0  0
   45.4600    3.2864    8.4439 C   0  0  0  0  0  0  0  0  0  0  0  0
   47.0333    3.1516    6.5968 C   0  0  0  0  0  0  0  0  0  0  0  0
   46.5395    1.1808    7.9063 C   0  0  0  0  0  0  0  0  0  0  0  0
   46.1470    3.8920    7.3830 C   0  0  0  0  0  0  0  0  0  0  0  0
   45.6542    1.9213    8.6913 C   0  0  0  0  0  0  0  0  0  0  0  0
   48.0776    1.0402    6.1257 O   0  0  0  0  0  0  0  0  0  0  0  0
   44.4834    4.0748    9.2656 C   0  0  0  0  0  0  0  0  0  0  0  0
   45.2847    1.1949    8.8539 H   0  0  0  0  0  0  0  0  0  0  0  0
   46.7546   -0.3195    8.0768 H   0  0  0  0  0  0  0  0  0  0  0  0
   47.8377    4.4444    6.1003 H   0  0  0  0  0  0  0  0  0  0  0  0
   48.5115    2.0539    6.1465 H   0  0  0  0  0  0  0  0  0  0  0  0
   45.8940    5.2107    7.4206 H   0  0  0  0  0  0  0  0  0  0  0  0
   44.6239    4.0130   10.0353 H   0  0  0  0  0  0  0  0  0  0  0  0
   43.5300    2.9246    9.1457 H   0  0  0  0  0  0  0  0  0  0  0  0
   43.7828    4.5711    8.5680 H   0  0  0  0  0  0  0  0  0  0  0  0
   44.7389    0.8565    9.5480 H   0  0  0  0  0  0  0  0  0  0  0  0
   45.4248    4.5226    9.9164 H   0  0  0  0  0  0  0  0  0  0  0  0
   44.0596    4.4582    8.7654 H   0  0  0  0  0  0  0  0  0  0  0  0
   45.4205    5.5494    8.4772 H   0  0  0  0  0  0  0  0  0  0  0  0
   46.1062    0.0586    7.9711 H   0  0  0  0  0  0  0  0  0  0  0  0
   46.8943    4.8101    6.7709 H   0  0  0  0  0  0  0  0  0  0  0  0
   48.0301    3.0083    5.5246 H   0  0  0  0  0  0  0  0  0  0  0  0
   47.6372    0.6338    6.1234 H   0  0  0  0  0  0  0  0  0  0  0  0
   47.5582    3.6425    5.7840 H   0  0  0  0  0  0  0  0  0  0  0  0
   46.6927    0.1237    8.1032 H   0  0  0  0  0  0  0  0  0  0  0  0
   45.9952    4.9465    7.1638 H   0  0  0  0  0  0  0  0  0  0  0  0
   45.1183    1.4256    9.4973 H   0  0  0  0  0  0  0  0  0  0  0  0
   48.4794    1.6046    5.4455 H   0  0  0  0  0  0  0  0  0  0  0  0
   43.4879    4.0241    8.8139 H   0  0  0  0  0  0  0  0  0  0  0  0
   44.7884    5.1243    9.3339 H   0  0  0  0  0  0  0  0  0  0  0  0
   44.4291    3.6856   10.2877 H   0  0  0  0  0  0  0  0  0  0  0  0
  2  1  2  0
  3  1  1  0
  4  2  1  0
  5  7  1  0
  6  2  1  0
  7  3  2  0
  8  3  1  0
  6  5  2  0
 10  9  2  0
 11  9  1  0
 12 10  1  0
 13  9  1  0
 14 10  1  0
 15 14  2  0
 16 13  2  0
 16 15  1  0
 18 21  2  0
 19 17  2  0
 20 17  1  0
 21 19  1  0
 22 20  2  0
 23 17  1  0
 24 18  1  0
 22 18  1  0
  1 25  1  0
  4 26  1  0
  5 27  1  0
  6 28  1  0
  7 29  1  0
  8 30  1  0
  8 31  1  0
  8 32  1  0
 11 33  1  0
 12 34  1  0
 12 35  1  0
 12 36  1  0
 13 37  1  0
 14 38  1  0
 15 39  1  0
 16 40  1  0
 19 41  1  0
 20 42  1  0
 21 43  1  0
 22 44  1  0
 23 45  1  0
 24 46  1  0
 24 47  1  0
 24 48  1  0
M  END
> <Uni-Dock RESULT> 
ENERGY=  -14.635  LOWER_BOUND=    1.110  UPPER_BOUND=    2.174
INTER + INTRA:         -14.635
INTER:                 -14.635
INTRA:                   0.000
UNBOUND:                 0.000

$$$$

     RDKit          3D

 48 48  0  0  0  0  0  0  0  0999 V2000
   45.8373    1.9041    8.2454 C   0  0  0  0  0  0  0  0  0  0  0  0
   46.9370    1.4890    7.4973 C   0  0  0  0  0  0  0  0  0  0  0  0
   45.4399    3.2477    8.2134 C   0  0  0  0  0  0  0  0  0  0  0  0
   47.3469    0.1880    7.4997 O   0  0  0  0  0  0  0  0  0  0  0  0
   47.2758    3.7319    6.6985 C   0  0  0  0  0  0  0  0  0  0  0  0
   47.6561    2.3916    6.7239 C   0  0  0  0  0  0  0  0  0  0  0  0
   46.1754    4.1598    7.4442 C   0  0  0  0  0  0  0  0  0  0  0  0
   44.2791    3.7168    9.0398 C   0  0  0  0  0  0  0  0  0  0  0  0
   45.6272    2.1221    8.4233 C   0  0  0  0  0  0  0  0  0  0  0  0
   45.8379    3.4662    8.0989 C   0  0  0  0  0  0  0  0  0  0  0  0
   44.7758    1.8216    9.4496 O   0  0  0  0  0  0  0  0  0  0  0  0
   45.1461    4.5602    8.8584 C   0  0  0  0  0  0  0  0  0  0  0  0
   46.2678    1.1018    7.7206 C   0  0  0  0  0  0  0  0  0  0  0  0
   46.7109    3.7739    7.0466 C   0  0  0  0  0  0  0  0  0  0  0  0
   47.3554    2.7569    6.3390 C   0  0  0  0  0  0  0  0  0  0  0  0
   47.1339    1.4226    6.6758 C   0  0  0  0  0  0  0  0  0  0  0  0
   47.2227    1.8000    6.8678 C   0  0  0  0  0  0  0  0  0  0  0  0
   45.4601    3.2864    8.4438 C   0  0  0  0  0  0  0  0  0  0  0  0
   47.0335    3.1511    6.5968 C   0  0  0  0  0  0  0  0  0  0  0  0
   46.5390    1.1804    7.9063 C   0  0  0  0  0  0  0  0  0  0  0  0
   46.1474    3.8917    7.3830 C   0  0  0  0  0  0  0  0  0  0  0  0
   45.6539    1.9212    8.6912 C   0  0  0  0  0  0  0  0  0  0  0  0
   48.0773    1.0394    6.1258 O   0  0  0  0  0  0  0  0  0  0  0  0
   44.4836    4.0750    9.2654 C   0  0  0  0  0  0  0  0  0  0  0  0
   45.2842    1.1949    8.8538 H   0  0  0  0  0  0  0  0  0  0  0  0
   46.7538   -0.3199    8.0767 H   0  0  0  0  0  0  0  0  0  0  0  0
   47.8383    4.4437    6.1004 H   0  0  0  0  0  0  0  0  0  0  0  0
   48.5115    2.0530    6.1467 H   0  0  0  0  0  0  0  0  0  0  0  0
   45.8947    5.2105    7.4205 H   0  0  0  0  0  0  0  0  0  0  0  0
   44.6240    4.0132   10.0351 H   0  0  0  0  0  0  0  0  0  0  0  0
   43.5299    2.9251    9.1454 H   0  0  0  0  0  0  0  0  0  0  0  0
   43.7832    4.5715    8.5677 H   0  0  0  0  0  0  0  0  0  0  0  0
   44.7383    0.8566    9.5478 H   0  0  0  0  0  0  0  0  0  0  0  0
   45.4251    4.5225    9.9163 H   0  0  0  0  0  0  0  0  0  0  0  0
   44.0600    4.4585    8.7652 H   0  0  0  0  0  0  0  0  0  0  0  0
   45.4212    5.5493    8.4771 H   0  0  0  0  0  0  0  0  0  0  0  0
   46.1055    0.0584    7.9710 H   0  0  0  0  0  0  0  0  0  0  0  0
   46.8949    4.8097    6.7709 H   0  0  0  0  0  0  0  0  0  0  0  0
   48.0304    3.0075    5.5247 H   0  0  0  0  0  0  0  0  0  0  0  0
   47.6367    0.6332    6.1235 H   0  0  0  0  0  0  0  0  0  0  0  0
   47.5586    3.6418    5.7841 H   0  0  0  0  0  0  0  0  0  0  0  0
   46.6919    0.1233    8.1031 H   0  0  0  0  0  0  0  0  0  0  0  0
   45.9958    4.9463    7.1638 H   0  0  0  0  0  0  0  0  0  0  0  0
   45.1177    1.4256    9.4971 H   0  0  0  0  0  0  0  0  0  0  0  0
   48.4792    1.6037    5.4456 H   0  0  0  0  0  0  0  0  0  0  0  0
   43.4882    4.0246    8.8136 H   0  0  0  0  0  0  0  0  0  0  0  0
   44.7889    5.1245    9.3338 H   0  0  0  0  0  0  0  0  0  0  0  0
   44.4291    3.6858   10.2875 H   0  0  0  0  0  0  0  0  0  0  0  0
  2  1  2  0
  3  1  1  0
  4  2  1  0
  5  7  1  0
  6  2  1  0
  7  3  2  0
  8  3  1  0
  6  5  2  0
 10  9  2  0
 11  9  1  0
 12 10  1  0
 13  9  1  0
 14 10  1  0
 15 14  2  0
 16 13  2  0
 16 15  1  0
 18 21  2  0
 19 17  2  0
 20 17  1  0
 21 19  1  0
 22 20  2  0
 23 17  1  0
 24 18  1  0
 22 18  1  0
  1 25  1  0
  4 26  1  0
  5 27  1  0
  6 28  1  0
  7 29  1  0
  8 30  1  0
  8 31  1  0
  8 32  1  0
 11 33  1  0
 12 34  1  0
 12 35  1  0
 12 36  1  0
 13 37  1  0
 14 38  1  0
 15 39  1  0
 16 40  1  0
 19 41  1  0
 20 42  1  0
 21 43  1  0
 22 44  1  0
 23 45  1  0
 24 46  1  0
 24 47  1  0
 24 48  1  0
M  END
> <Uni-Dock RESULT> 
ENERGY=  -14.634  LOWER_BOUND=    1.110  UPPER_BOUND=    2.174
INTER + INTRA:         -14.634
INTER:                 -14.634
INTRA:                   0.000
UNBOUND:                 0.000

$$$$

     RDKit          3D

 48 48  0  0  0  0  0  0  0  0999 V2000
   46.2015    1.6773    7.9762 C   0  0  0  0  0  0  0  0  0  0  0  0
   45.1157    2.2216    8.6588 C   0  0  0  0  0  0  0  0  0  0  0  0
   46.9986    2.4985    7.1671 C   0  0  0  0  0  0  0  0  0  0  0  0
   44.3232    1.4529    9.4600 O   0  0  0  0  0  0  0  0  0  0  0  0
   45.5814    4.3896    7.7283 C   0  0  0  0  0  0  0  0  0  0  0  0
   44.8022    3.5700    8.5423 C   0  0  0  0  0  0  0  0  0  0  0  0
   46.6723    3.8555    7.0392 C   0  0  0  0  0  0  0  0  0  0  0  0
   48.1505    1.9208    6.3991 C   0  0  0  0  0  0  0  0  0  0  0  0
   46.4483    1.6451    7.7285 C   0  0  0  0  0  0  0  0  0  0  0  0
   46.7035    2.8444    7.0556 C   0  0  0  0  0  0  0  0  0  0  0  0
   47.0466    0.5014    7.2785 O   0  0  0  0  0  0  0  0  0  0  0  0
   47.6145    2.8810    5.8636 C   0  0  0  0  0  0  0  0  0  0  0  0
   45.6025    1.6059    8.8367 C   0  0  0  0  0  0  0  0  0  0  0  0
   46.0898    4.0168    7.5173 C   0  0  0  0  0  0  0  0  0  0  0  0
   45.2419    3.9843    8.6264 C   0  0  0  0  0  0  0  0  0  0  0  0
   44.9987    2.7803    9.2851 C   0  0  0  0  0  0  0  0  0  0  0  0
   45.0114    2.9383    8.8825 C   0  0  0  0  0  0  0  0  0  0  0  0
   46.9665    2.3783    6.9683 C   0  0  0  0  0  0  0  0  0  0  0  0
   45.6404    3.9860    8.2181 C   0  0  0  0  0  0  0  0  0  0  0  0
   45.3507    1.6187    8.6115 C   0  0  0  0  0  0  0  0  0  0  0  0
   46.6219    3.7040    7.2648 C   0  0  0  0  0  0  0  0  0  0  0  0
   46.3314    1.3380    7.6589 C   0  0  0  0  0  0  0  0  0  0  0  0
   44.0487    3.1677    9.8206 O   0  0  0  0  0  0  0  0  0  0  0  0
   48.0444    2.0785    5.9690 C   0  0  0  0  0  0  0  0  0  0  0  0
   46.4365    0.6209    8.0656 H   0  0  0  0  0  0  0  0  0  0  0  0
   44.6621    0.5431    9.4453 H   0  0  0  0  0  0  0  0  0  0  0  0
   45.3374    5.4438    7.6284 H   0  0  0  0  0  0  0  0  0  0  0  0
   43.9522    3.9794    9.0801 H   0  0  0  0  0  0  0  0  0  0  0  0
   47.2670    4.5060    6.4015 H   0  0  0  0  0  0  0  0  0  0  0  0
   47.8087    1.5683    5.4211 H   0  0  0  0  0  0  0  0  0  0  0  0
   48.5996    1.0819    6.9411 H   0  0  0  0  0  0  0  0  0  0  0  0
   48.9362    2.6690    6.2511 H   0  0  0  0  0  0  0  0  0  0  0  0
   46.7708   -0.2360    7.8464 H   0  0  0  0  0  0  0  0  0  0  0  0
   47.2241    2.2382    5.0680 H   0  0  0  0  0  0  0  0  0  0  0  0
   48.6182    2.5445    6.1428 H   0  0  0  0  0  0  0  0  0  0  0  0
   47.7044    3.8943    5.4581 H   0  0  0  0  0  0  0  0  0  0  0  0
   45.4034    0.6762    9.3599 H   0  0  0  0  0  0  0  0  0  0  0  0
   46.2688    4.9646    7.0149 H   0  0  0  0  0  0  0  0  0  0  0  0
   44.7715    4.9000    8.9755 H   0  0  0  0  0  0  0  0  0  0  0  0
   44.3383    2.7578   10.1480 H   0  0  0  0  0  0  0  0  0  0  0  0
   45.3861    5.0197    8.4277 H   0  0  0  0  0  0  0  0  0  0  0  0
   44.8556    0.8105    9.1419 H   0  0  0  0  0  0  0  0  0  0  0  0
   47.1173    4.5258    6.7524 H   0  0  0  0  0  0  0  0  0  0  0  0
   46.5953    0.3021    7.4590 H   0  0  0  0  0  0  0  0  0  0  0  0
   43.9192    4.1267    9.8997 H   0  0  0  0  0  0  0  0  0  0  0  0
   49.0176    2.0422    6.4681 H   0  0  0  0  0  0  0  0  0  0  0  0
   48.0756    2.8442    5.1868 H   0  0  0  0  0  0  0  0  0  0  0  0
   47.8632    1.1178    5.4754 H   0  0  0  0  0  0  0  0  0  0  0  0
  2  1  2  0
  3  1  1  0
  4  2  1  0
  5  7  1  0
  6  2  1  0
  7  3  2  0
  8  3  1  0
  6  5  2  0
 10  9  2  0
 11  9  1  0
 12 10  1  0
 13  9  1  0
 14 10  1  0
 15 14  2  0
 16 13  2  0
 16 15  1  0
 18 21  2  0
 19 17  2  0
 20 17  1  0
 21 19  1  0
 22 20  2  0
 23 17  1  0
 24 18  1  0
 22 18  1  0
  1 25  1  0
  4 26  1  0
  5 27  1  0
  6 28  1  0
  7 29  1  0
  8 30  1  0
  8 31  1  0
  8 32  1  0
 11 33  1  0
 12 34  1  0
 12 35  1  0
 12 36  1  0
 13 37  1  0
 14 38  1  0
 15 39  1  0
 16 40  1  0
 19 41  1  0
 20 42  1  0
 21 43  1  0
 22 44  1  0
 23 45  1  0
 24 46  1  0
 24 47  1  0
 24 48  1  0
M  END
> <Uni-Dock RESULT> 
ENERGY=  -14.394  LOWER_BOUND=    1.265  UPPER_BOUND=    3.658
INTER + INTRA:         -14.394
INTER:                 -14.394
INTRA:                   0.000
UNBOUND:                 0.000

$$$$

     RDKit          3D

 48 48  0  0  0  0  0  0  0  0999 V2000
   46.2014    1.6773    7.9763 C   0  0  0  0  0  0  0  0  0  0  0  0
   45.1157    2.2216    8.6589 C   0  0  0  0  0  0  0  0  0  0  0  0
   46.9986    2.4985    7.1672 C   0  0  0  0  0  0  0  0  0  0  0  0
   44.3232    1.4529    9.4601 O   0  0  0  0  0  0  0  0  0  0  0  0
   45.5814    4.3897    7.7284 C   0  0  0  0  0  0  0  0  0  0  0  0
   44.8022    3.5700    8.5424 C   0  0  0  0  0  0  0  0  0  0  0  0
   46.6722    3.8555    7.0393 C   0  0  0  0  0  0  0  0  0  0  0  0
   48.1504    1.9208    6.3992 C   0  0  0  0  0  0  0  0  0  0  0  0
   46.4483    1.6451    7.7286 C   0  0  0  0  0  0  0  0  0  0  0  0
   46.7034    2.8444    7.0557 C   0  0  0  0  0  0  0  0  0  0  0  0
   47.0465    0.5014    7.2786 O   0  0  0  0  0  0  0  0  0  0  0  0
   47.6144    2.8809    5.8636 C   0  0  0  0  0  0  0  0  0  0  0  0
   45.6024    1.6059    8.8367 C   0  0  0  0  0  0  0  0  0  0  0  0
   46.0898    4.0168    7.5174 C   0  0  0  0  0  0  0  0  0  0  0  0
   45.2419    3.9844    8.6265 C   0  0  0  0  0  0  0  0  0  0  0  0
   44.9986    2.7803    9.2852 C   0  0  0  0  0  0  0  0  0  0  0  0
   45.0114    2.9383    8.8826 C   0  0  0  0  0  0  0  0  0  0  0  0
   46.9664    2.3783    6.9684 C   0  0  0  0  0  0  0  0  0  0  0  0
   45.6403    3.9860    8.2182 C   0  0  0  0  0  0  0  0  0  0  0  0
   45.3506    1.6188    8.6116 C   0  0  0  0  0  0  0  0  0  0  0  0
   46.6218    3.7040    7.2649 C   0  0  0  0  0  0  0  0  0  0  0  0
   46.3313    1.3380    7.6590 C   0  0  0  0  0  0  0  0  0  0  0  0
   44.0487    3.1678    9.8207 O   0  0  0  0  0  0  0  0  0  0  0  0
   48.0443    2.0784    5.9691 C   0  0  0  0  0  0  0  0  0  0  0  0
   46.4364    0.6210    8.0657 H   0  0  0  0  0  0  0  0  0  0  0  0
   44.6620    0.5432    9.4454 H   0  0  0  0  0  0  0  0  0  0  0  0
   45.3374    5.4438    7.6284 H   0  0  0  0  0  0  0  0  0  0  0  0
   43.9522    3.9795    9.0802 H   0  0  0  0  0  0  0  0  0  0  0  0
   47.2670    4.5059    6.4016 H   0  0  0  0  0  0  0  0  0  0  0  0
   47.8086    1.5683    5.4211 H   0  0  0  0  0  0  0  0  0  0  0  0
   48.5995    1.0819    6.9412 H   0  0  0  0  0  0  0  0  0  0  0  0
   48.9362    2.6690    6.2511 H   0  0  0  0  0  0  0  0  0  0  0  0
   46.7707   -0.2360    7.8465 H   0  0  0  0  0  0  0  0  0  0  0  0
   47.2240    2.2382    5.0681 H   0  0  0  0  0  0  0  0  0  0  0  0
   48.6181    2.5445    6.1428 H   0  0  0  0  0  0  0  0  0  0  0  0
   47.7044    3.8943    5.4582 H   0  0  0  0  0  0  0  0  0  0  0  0
   45.4033    0.6762    9.3600 H   0  0  0  0  0  0  0  0  0  0  0  0
   46.2688    4.9646    7.0150 H   0  0  0  0  0  0  0  0  0  0  0  0
   44.7715    4.9000    8.9755 H   0  0  0  0  0  0  0  0  0  0  0  0
   44.3382    2.7579   10.1480 H   0  0  0  0  0  0  0  0  0  0  0  0
   45.3861    5.0197    8.4278 H   0  0  0  0  0  0  0  0  0  0  0  0
   44.8555    0.8105    9.1421 H   0  0  0  0  0  0  0  0  0  0  0  0
   47.1173    4.5258    6.7525 H   0  0  0  0  0  0  0  0  0  0  0  0
   46.5953    0.3021    7.4591 H   0  0  0  0  0  0  0  0  0  0  0  0
   43.9191    4.1268    9.8997 H   0  0  0  0  0  0  0  0  0  0  0  0
   49.0175    2.0422    6.4682 H   0  0  0  0  0  0  0  0  0  0  0  0
   48.0755    2.8441    5.1869 H   0  0  0  0  0  0  0  0  0  0  0  0
   47.8631    1.1178    5.4755 H   0  0  0  0  0  0  0  0  0  0  0  0
  2  1  2  0
  3  1  1  0
  4  2  1  0
  5  7  1  0
  6  2  1  0
  7  3  2  0
  8  3  1  0
  6  5  2  0
 10  9  2  0
 11  9  1  0
 12 10  1  0
 13  9  1  0
 14 10  1  0
 15 14  2  0
 16 13  2  0
 16 15  1  0
 18 21  2  0
 19 17  2  0
 20 17  1  0
 21 19  1  0
 22 20  2  0
 23 17  1  0
 24 18  1  0
 22 18  1  0
  1 25  1  0
  4 26  1  0
  5 27  1  0
  6 28  1  0
  7 29  1  0
  8 30  1  0
  8 31  1  0
  8 32  1  0
 11 33  1  0
 12 34  1  0
 12 35  1  0
 12 36  1  0
 13 37  1  0
 14 38  1  0
 15 39  1  0
 16 40  1  0
 19 41  1  0
 20 42  1  0
 21 43  1  0
 22 44  1  0
 23 45  1  0
 24 46  1  0
 24 47  1  0
 24 48  1  0
M  END
> <Uni-Dock RESULT> 
ENERGY=  -14.394  LOWER_BOUND=    1.265  UPPER_BOUND=    3.658
INTER + INTRA:         -14.394
INTER:                 -14.394
INTRA:                   0.000
UNBOUND:                 0.000

$$$$

     RDKit          3D

 48 48  0  0  0  0  0  0  0  0999 V2000
   46.1692    3.6313    7.3321 C   0  0  0  0  0  0  0  0  0  0  0  0
   45.3777    3.5041    8.4716 C   0  0  0  0  0  0  0  0  0  0  0  0
   46.8398    2.5117    6.8209 C   0  0  0  0  0  0  0  0  0  0  0  0
   44.7058    4.5712    8.9918 O   0  0  0  0  0  0  0  0  0  0  0  0
   45.9247    1.1673    8.6251 C   0  0  0  0  0  0  0  0  0  0  0  0
   45.2493    2.2816    9.1190 C   0  0  0  0  0  0  0  0  0  0  0  0
   46.7209    1.2824    7.4837 C   0  0  0  0  0  0  0  0  0  0  0  0
   47.7227    2.6397    5.6149 C   0  0  0  0  0  0  0  0  0  0  0  0
   46.4242    3.5579    7.1020 C   0  0  0  0  0  0  0  0  0  0  0  0
   46.8824    2.2400    7.1999 C   0  0  0  0  0  0  0  0  0  0  0  0
   47.0807    4.4195    6.2683 O   0  0  0  0  0  0  0  0  0  0  0  0
   48.0698    1.7758    6.4082 C   0  0  0  0  0  0  0  0  0  0  0  0
   45.3213    3.9942    7.8357 C   0  0  0  0  0  0  0  0  0  0  0  0
   46.2090    1.3570    8.0549 C   0  0  0  0  0  0  0  0  0  0  0  0
   45.1039    1.7875    8.7922 C   0  0  0  0  0  0  0  0  0  0  0  0
   44.6608    3.1045    8.6826 C   0  0  0  0  0  0  0  0  0  0  0  0
   45.0297    2.8849    8.7365 C   0  0  0  0  0  0  0  0  0  0  0  0
   47.0557    2.6019    6.8352 C   0  0  0  0  0  0  0  0  0  0  0  0
   45.5145    1.6166    8.4348 C   0  0  0  0  0  0  0  0  0  0  0  0
   45.5349    4.0100    8.0971 C   0  0  0  0  0  0  0  0  0  0  0  0
   46.5242    1.4766    7.4796 C   0  0  0  0  0  0  0  0  0  0  0  0
   46.5438    3.8691    7.1429 C   0  0  0  0  0  0  0  0  0  0  0  0
   44.0446    3.0677    9.6615 O   0  0  0  0  0  0  0  0  0  0  0  0
   48.1161    2.4466    5.7854 C   0  0  0  0  0  0  0  0  0  0  0  0
   46.2713    4.5914    6.8352 H   0  0  0  0  0  0  0  0  0  0  0  0
   44.8870    5.3479    8.4382 H   0  0  0  0  0  0  0  0  0  0  0  0
   45.8331    0.2099    9.1309 H   0  0  0  0  0  0  0  0  0  0  0  0
   44.6292    2.1985   10.0066 H   0  0  0  0  0  0  0  0  0  0  0  0
   47.2481    0.4056    7.1140 H   0  0  0  0  0  0  0  0  0  0  0  0
   48.7394    2.9036    5.9221 H   0  0  0  0  0  0  0  0  0  0  0  0
   47.3461    3.4115    4.9355 H   0  0  0  0  0  0  0  0  0  0  0  0
   47.7551    1.7006    5.0527 H   0  0  0  0  0  0  0  0  0  0  0  0
   46.6445    5.2855    6.3128 H   0  0  0  0  0  0  0  0  0  0  0  0
   48.9566    2.3584    6.6776 H   0  0  0  0  0  0  0  0  0  0  0  0
   47.8764    1.8833    5.3360 H   0  0  0  0  0  0  0  0  0  0  0  0
   48.2936    0.7213    6.6014 H   0  0  0  0  0  0  0  0  0  0  0  0
   44.9644    5.0163    7.7610 H   0  0  0  0  0  0  0  0  0  0  0  0
   46.5417    0.3262    8.1522 H   0  0  0  0  0  0  0  0  0  0  0  0
   44.5896    1.0937    9.4522 H   0  0  0  0  0  0  0  0  0  0  0  0
   43.8006    3.4370    9.2576 H   0  0  0  0  0  0  0  0  0  0  0  0
   45.1216    0.7319    8.9247 H   0  0  0  0  0  0  0  0  0  0  0  0
   45.1432    4.9939    8.3382 H   0  0  0  0  0  0  0  0  0  0  0  0
   46.8959    0.4827    7.2403 H   0  0  0  0  0  0  0  0  0  0  0  0
   46.9277    4.7550    6.6424 H   0  0  0  0  0  0  0  0  0  0  0  0
   43.7960    2.2006   10.0209 H   0  0  0  0  0  0  0  0  0  0  0  0
   47.6530    2.3120    4.8031 H   0  0  0  0  0  0  0  0  0  0  0  0
   48.7527    1.5815    5.9985 H   0  0  0  0  0  0  0  0  0  0  0  0
   48.7659    3.3274    5.7533 H   0  0  0  0  0  0  0  0  0  0  0  0
  2  1  2  0
  3  1  1  0
  4  2  1  0
  5  7  1  0
  6  2  1  0
  7  3  2  0
  8  3  1  0
  6  5  2  0
 10  9  2  0
 11  9  1  0
 12 10  1  0
 13  9  1  0
 14 10  1  0
 15 14  2  0
 16 13  2  0
 16 15  1  0
 18 21  2  0
 19 17  2  0
 20 17  1  0
 21 19  1  0
 22 20  2  0
 23 17  1  0
 24 18  1  0
 22 18  1  0
  1 25  1  0
  4 26  1  0
  5 27  1  0
  6 28  1  0
  7 29  1  0
  8 30  1  0
  8 31  1  0
  8 32  1  0
 11 33  1  0
 12 34  1  0
 12 35  1  0
 12 36  1  0
 13 37  1  0
 14 38  1  0
 15 39  1  0
 16 40  1  0
 19 41  1  0
 20 42  1  0
 21 43  1  0
 22 44  1  0
 23 45  1  0
 24 46  1  0
 24 47  1  0
 24 48  1  0
M  END
> <Uni-Dock RESULT> 
ENERGY=  -14.115  LOWER_BOUND=    0.852  UPPER_BOUND=    3.045
INTER + INTRA:         -14.115
INTER:                 -14.115
INTRA:                   0.000
UNBOUND:                 0.000

$$$$
