
     RDKit          3D

109114  0  0  0  0  0  0  0  0999 V2000
   47.3748   10.7927   18.5408 O   0  0  0  0  0  0  0  0  0  0  0  0
   48.5706   11.0537   17.7964 C   0  0  2  0  0  0  0  0  0  0  0  0
   49.6506   10.0648   18.2512 C   0  0  0  0  0  0  0  0  0  0  0  0
   49.1744    8.6088   18.1809 C   0  0  2  0  0  0  0  0  0  0  0  0
   48.2238    8.3489   19.2103 O   0  0  0  0  0  0  0  0  0  0  0  0
   50.3293    7.6751   18.3966 C   0  0  0  0  0  0  0  0  0  0  0  0
   50.8370    6.9022   17.4241 C   0  0  0  0  0  0  0  0  0  0  0  0
   51.9718    6.0040   17.6858 C   0  0  0  0  0  0  0  0  0  0  0  0
   53.2835    6.5013   17.6403 C   0  0  0  0  0  0  0  0  0  0  0  0
   54.3471    5.7051   17.9265 N   0  0  0  0  0  0  0  0  0  0  0  0
   54.1534    4.4233   18.2567 C   0  0  0  0  0  0  0  0  0  0  0  0
   55.2748    3.6667   18.5730 C   0  0  0  0  0  0  0  0  0  0  0  0
   55.1837    2.3237   18.9515 C   0  0  0  0  0  0  0  0  0  0  0  0
   53.9413    1.7101   19.0073 C   0  0  0  0  0  0  0  0  0  0  0  0
   52.7998    2.4521   18.6910 C   0  0  0  0  0  0  0  0  0  0  0  0
   52.8790    3.8224   18.3154 C   0  0  0  0  0  0  0  0  0  0  0  0
   51.7580    4.6421   18.0083 C   0  0  0  0  0  0  0  0  0  0  0  0
   50.3888    4.0808   18.0063 C   0  0  0  0  0  0  0  0  0  0  0  0
   49.5433    4.2232   19.1195 C   0  0  0  0  0  0  0  0  0  0  0  0
   48.2477    3.6992   19.1009 C   0  0  0  0  0  0  0  0  0  0  0  0
   47.7934    3.0258   17.9732 C   0  0  0  0  0  0  0  0  0  0  0  0
   46.5570    2.5082   17.9582 F   0  0  0  0  0  0  0  0  0  0  0  0
   48.6125    2.8659   16.8636 C   0  0  0  0  0  0  0  0  0  0  0  0
   49.9068    3.3914   16.8789 C   0  0  0  0  0  0  0  0  0  0  0  0
   53.5849    7.9494   17.2949 C   0  0  0  0  0  0  0  0  0  0  0  0
   54.7862    8.2955   16.4439 C   0  0  0  0  0  0  0  0  0  0  0  0
   53.4065    8.4370   15.8724 C   0  0  0  0  0  0  0  0  0  0  0  0
   49.0193   12.4897   18.0225 C   0  0  0  0  0  0  0  0  0  0  0  0
   48.0482   13.4392   17.3210 C   0  0  0  0  0  0  0  0  0  0  0  0
   46.8328   13.0836   17.3758 O   0  0  0  0  0  0  0  0  0  0  0  0
   48.5771   14.4546   16.7895 O   0  0  0  0  0  0  0  0  0  0  0  0
   50.9564    6.8939   17.8913 Ca  0  0  0  0  0 15  0  0  0  0  0  0
   47.6310   10.5133   17.4251 O   0  0  0  0  0  0  0  0  0  0  0  0
   48.7381   11.0350   16.6814 C   0  0  2  0  0  0  0  0  0  0  0  0
   49.7382    9.8898   16.4506 C   0  0  0  0  0  0  0  0  0  0  0  0
   50.3740    9.3235   17.7321 C   0  0  2  0  0  0  0  0  0  0  0  0
   51.5867   10.0047   18.0528 O   0  0  0  0  0  0  0  0  0  0  0  0
   50.7886    7.8936   17.5257 C   0  0  0  0  0  0  0  0  0  0  0  0
   50.4203    6.8846   18.3307 C   0  0  0  0  0  0  0  0  0  0  0  0
   50.8088    5.4817   18.0870 C   0  0  0  0  0  0  0  0  0  0  0  0
   49.8047    4.5558   17.7428 C   0  0  0  0  0  0  0  0  0  0  0  0
   50.0982    3.2550   17.4875 N   0  0  0  0  0  0  0  0  0  0  0  0
   51.3583    2.8215   17.5852 C   0  0  0  0  0  0  0  0  0  0  0  0
   51.5961    1.4804   17.3174 C   0  0  0  0  0  0  0  0  0  0  0  0
   52.8757    0.9271   17.3742 C   0  0  0  0  0  0  0  0  0  0  0  0
   53.9474    1.7284   17.7347 C   0  0  0  0  0  0  0  0  0  0  0  0
   53.7289    3.0777   18.0165 C   0  0  0  0  0  0  0  0  0  0  0  0
   52.4344    3.6548   17.9363 C   0  0  0  0  0  0  0  0  0  0  0  0
   52.1465    5.0270   18.1883 C   0  0  0  0  0  0  0  0  0  0  0  0
   53.2346    5.9551   18.5499 C   0  0  0  0  0  0  0  0  0  0  0  0
   54.0887    6.4909   17.5665 C   0  0  0  0  0  0  0  0  0  0  0  0
   55.1389    7.3390   17.9185 C   0  0  0  0  0  0  0  0  0  0  0  0
   55.3375    7.6478   19.2601 C   0  0  0  0  0  0  0  0  0  0  0  0
   56.3524    8.4518   19.6070 F   0  0  0  0  0  0  0  0  0  0  0  0
   54.5126    7.1319   20.2538 C   0  0  0  0  0  0  0  0  0  0  0  0
   53.4562    6.2920   19.8964 C   0  0  0  0  0  0  0  0  0  0  0  0
   48.3431    4.9515   17.6211 C   0  0  0  0  0  0  0  0  0  0  0  0
   47.4876    5.1073   18.8627 C   0  0  0  0  0  0  0  0  0  0  0  0
   47.2381    3.9654   17.9313 C   0  0  0  0  0  0  0  0  0  0  0  0
   49.3472   12.2345   17.3937 C   0  0  0  0  0  0  0  0  0  0  0  0
   48.3828   13.4139   17.3039 C   0  0  0  0  0  0  0  0  0  0  0  0
   48.9217   14.5296   17.0922 O   0  0  0  0  0  0  0  0  0  0  0  0
   47.1613   13.1194   17.4637 O   0  0  0  0  0  0  0  0  0  0  0  0
   46.7711   11.5318   18.2628 H   0  0  0  0  0  0  0  0  0  0  0  0
   48.3532   10.8697   16.7371 H   0  0  0  0  0  0  0  0  0  0  0  0
   50.5427   10.2078   17.6265 H   0  0  0  0  0  0  0  0  0  0  0  0
   49.9275   10.3008   19.2909 H   0  0  0  0  0  0  0  0  0  0  0  0
   48.6881    8.4198   17.2188 H   0  0  0  0  0  0  0  0  0  0  0  0
   47.6012    9.1141   19.1611 H   0  0  0  0  0  0  0  0  0  0  0  0
   50.7495    7.6633   19.4004 H   0  0  0  0  0  0  0  0  0  0  0  0
   50.4264    6.8976   16.4175 H   0  0  0  0  0  0  0  0  0  0  0  0
   56.2540    4.1408   18.5288 H   0  0  0  0  0  0  0  0  0  0  0  0
   56.0809    1.7680   19.2172 H   0  0  0  0  0  0  0  0  0  0  0  0
   53.8505    0.6667   19.3122 H   0  0  0  0  0  0  0  0  0  0  0  0
   51.8340    1.9490   18.7471 H   0  0  0  0  0  0  0  0  0  0  0  0
   49.8792    4.7746   19.9966 H   0  0  0  0  0  0  0  0  0  0  0  0
   47.5897    3.8232   19.9555 H   0  0  0  0  0  0  0  0  0  0  0  0
   48.2399    2.3397   15.9902 H   0  0  0  0  0  0  0  0  0  0  0  0
   50.5458    3.2648   16.0064 H   0  0  0  0  0  0  0  0  0  0  0  0
   53.3474    8.6629   18.0822 H   0  0  0  0  0  0  0  0  0  0  0  0
   55.3336    9.2024   16.6771 H   0  0  0  0  0  0  0  0  0  0  0  0
   55.4118    7.4854   16.0823 H   0  0  0  0  0  0  0  0  0  0  0  0
   53.0173    9.4389   15.7255 H   0  0  0  0  0  0  0  0  0  0  0  0
   53.0909    7.7257   15.1149 H   0  0  0  0  0  0  0  0  0  0  0  0
   49.0291   12.7392   19.0907 H   0  0  0  0  0  0  0  0  0  0  0  0
   50.0230   12.6442   17.6106 H   0  0  0  0  0  0  0  0  0  0  0  0
   47.0753   11.3220   17.5980 H   0  0  0  0  0  0  0  0  0  0  0  0
   48.3373   11.3399   15.7044 H   0  0  0  0  0  0  0  0  0  0  0  0
   49.1851    9.0897   15.9428 H   0  0  0  0  0  0  0  0  0  0  0  0
   50.5231   10.2347   15.7633 H   0  0  0  0  0  0  0  0  0  0  0  0
   49.6970    9.4064   18.5908 H   0  0  0  0  0  0  0  0  0  0  0  0
   51.4487   10.9565   17.8877 H   0  0  0  0  0  0  0  0  0  0  0  0
   51.4322    7.7015   16.6717 H   0  0  0  0  0  0  0  0  0  0  0  0
   49.7752    7.0647   19.1881 H   0  0  0  0  0  0  0  0  0  0  0  0
   50.7567    0.8424   17.0517 H   0  0  0  0  0  0  0  0  0  0  0  0
   53.0287   -0.1253   17.1480 H   0  0  0  0  0  0  0  0  0  0  0  0
   54.9516    1.3189   17.7895 H   0  0  0  0  0  0  0  0  0  0  0  0
   54.5863    3.6844   18.2978 H   0  0  0  0  0  0  0  0  0  0  0  0
   53.9349    6.2458   16.5188 H   0  0  0  0  0  0  0  0  0  0  0  0
   55.8001    7.7549   17.1632 H   0  0  0  0  0  0  0  0  0  0  0  0
   54.6936    7.3900   21.2959 H   0  0  0  0  0  0  0  0  0  0  0  0
   52.8025    5.8961   20.6712 H   0  0  0  0  0  0  0  0  0  0  0  0
   48.1352    5.6269   16.7957 H   0  0  0  0  0  0  0  0  0  0  0  0
   46.7835    5.9365   18.8774 H   0  0  0  0  0  0  0  0  0  0  0  0
   47.9377    4.8844   19.8225 H   0  0  0  0  0  0  0  0  0  0  0  0
   47.5109    2.9710   18.2630 H   0  0  0  0  0  0  0  0  0  0  0  0
   46.3580    3.9982   17.3008 H   0  0  0  0  0  0  0  0  0  0  0  0
   50.3028   12.5200   16.9392 H   0  0  0  0  0  0  0  0  0  0  0  0
   49.5090   12.0269   18.4583 H   0  0  0  0  0  0  0  0  0  0  0  0
  2  1  1  0
  2  3  1  0
  3  4  1  0
  4  5  1  0
  4  6  1  0
  6  7  2  0
  7  8  1  0
  8  9  2  0
  9 10  1  0
 10 11  2  0
 11 12  1  0
 12 13  2  0
 13 14  1  0
 14 15  2  0
 15 16  1  0
 11 16  1  0
 16 17  2  0
  8 17  1  0
 17 18  1  0
 18 19  2  0
 19 20  1  0
 20 21  2  0
 21 22  1  0
 21 23  1  0
 23 24  2  0
 18 24  1  0
  9 25  1  0
 25 26  1  0
 26 27  1  0
 25 27  1  0
  2 28  1  0
 28 29  1  0
 29 30  2  0
 29 31  1  0
 34 33  1  0
 34 35  1  0
 35 36  1  0
 36 37  1  0
 36 38  1  0
 38 39  2  0
 39 40  1  0
 40 41  2  0
 41 42  1  0
 42 43  2  0
 43 44  1  0
 44 45  2  0
 45 46  1  0
 46 47  2  0
 47 48  1  0
 43 48  1  0
 48 49  2  0
 40 49  1  0
 49 50  1  0
 50 51  2  0
 51 52  1  0
 52 53  2  0
 53 54  1  0
 53 55  1  0
 55 56  2  0
 50 56  1  0
 41 57  1  0
 57 58  1  0
 58 59  1  0
 57 59  1  0
 34 60  1  0
 60 61  1  0
 61 62  2  0
 61 63  1  0
  1 64  1  0
  2 65  1  6
  3 66  1  0
  3 67  1  0
  4 68  1  6
  5 69  1  0
  6 70  1  0
  7 71  1  0
 12 72  1  0
 13 73  1  0
 14 74  1  0
 15 75  1  0
 19 76  1  0
 20 77  1  0
 23 78  1  0
 24 79  1  0
 25 80  1  0
 26 81  1  0
 26 82  1  0
 27 83  1  0
 27 84  1  0
 28 85  1  0
 28 86  1  0
 33 87  1  0
 34 88  1  6
 35 89  1  0
 35 90  1  0
 36 91  1  1
 37 92  1  0
 38 93  1  0
 39 94  1  0
 44 95  1  0
 45 96  1  0
 46 97  1  0
 47 98  1  0
 51 99  1  0
 52100  1  0
 55101  1  0
 56102  1  0
 57103  1  0
 58104  1  0
 58105  1  0
 59106  1  0
 59107  1  0
 60108  1  0
 60109  1  0
M  CHG  3  31  -1  32   2  63  -1
M  END
> <Uni-Dock RESULT> 
ENERGY=   -7.289  LOWER_BOUND=    0.000  UPPER_BOUND=    0.000
INTER + INTRA:          -7.289
INTER:                  -7.289
INTRA:                   0.000
UNBOUND:                 0.000

$$$$

     RDKit          3D

109114  0  0  0  0  0  0  0  0999 V2000
   48.7197    4.4083   18.2471 O   0  0  0  0  0  0  0  0  0  0  0  0
   48.7603    5.6761   18.9130 C   0  0  2  0  0  0  0  0  0  0  0  0
   49.2794    6.7268   17.9242 C   0  0  0  0  0  0  0  0  0  0  0  0
   48.4865    6.7339   16.6116 C   0  0  2  0  0  0  0  0  0  0  0  0
   48.7915    5.5732   15.8431 O   0  0  0  0  0  0  0  0  0  0  0  0
   48.8656    7.9269   15.7839 C   0  0  0  0  0  0  0  0  0  0  0  0
   48.0363    8.9591   15.5651 C   0  0  0  0  0  0  0  0  0  0  0  0
   48.4559   10.1071   14.7472 C   0  0  0  0  0  0  0  0  0  0  0  0
   49.2018   11.1449   15.3273 C   0  0  0  0  0  0  0  0  0  0  0  0
   49.6446   12.1927   14.5834 N   0  0  0  0  0  0  0  0  0  0  0  0
   49.3696   12.2479   13.2755 C   0  0  0  0  0  0  0  0  0  0  0  0
   49.8775   13.3243   12.5589 C   0  0  0  0  0  0  0  0  0  0  0  0
   49.6676   13.4684   11.1840 C   0  0  0  0  0  0  0  0  0  0  0  0
   48.9210   12.5197   10.5015 C   0  0  0  0  0  0  0  0  0  0  0  0
   48.3985   11.4297   11.2033 C   0  0  0  0  0  0  0  0  0  0  0  0
   48.6150   11.2664   12.6002 C   0  0  0  0  0  0  0  0  0  0  0  0
   48.1370   10.1695   13.3692 C   0  0  0  0  0  0  0  0  0  0  0  0
   47.3032    9.1168   12.7477 C   0  0  0  0  0  0  0  0  0  0  0  0
   47.8674    7.9061   12.3112 C   0  0  0  0  0  0  0  0  0  0  0  0
   47.0674    6.9143   11.7368 C   0  0  0  0  0  0  0  0  0  0  0  0
   45.7022    7.1299   11.5905 C   0  0  0  0  0  0  0  0  0  0  0  0
   44.9348    6.1872   11.0256 F   0  0  0  0  0  0  0  0  0  0  0  0
   45.1226    8.3206   12.0074 C   0  0  0  0  0  0  0  0  0  0  0  0
   45.9198    9.3122   12.5845 C   0  0  0  0  0  0  0  0  0  0  0  0
   49.5732   11.1448   16.8001 C   0  0  0  0  0  0  0  0  0  0  0  0
   49.5597   12.4347   17.5893 C   0  0  0  0  0  0  0  0  0  0  0  0
   48.5071   11.3972   17.8454 C   0  0  0  0  0  0  0  0  0  0  0  0
   49.6599    5.5907   20.1367 C   0  0  0  0  0  0  0  0  0  0  0  0
   48.9767    4.7412   21.2083 C   0  0  0  0  0  0  0  0  0  0  0  0
   48.3331    3.7458   20.7593 O   0  0  0  0  0  0  0  0  0  0  0  0
   49.1488    5.1318   22.3962 O   0  0  0  0  0  0  0  0  0  0  0  0
   48.4683    8.8881   15.3629 Ca  0  0  0  0  0 15  0  0  0  0  0  0
   47.8325    5.1377   18.5103 O   0  0  0  0  0  0  0  0  0  0  0  0
   47.9248    6.2553   19.4010 C   0  0  2  0  0  0  0  0  0  0  0  0
   47.7944    7.5407   18.5669 C   0  0  0  0  0  0  0  0  0  0  0  0
   48.9297    7.7672   17.5534 C   0  0  2  0  0  0  0  0  0  0  0  0
   49.9925    8.5272   18.1282 O   0  0  0  0  0  0  0  0  0  0  0  0
   48.4474    8.6050   16.4025 C   0  0  0  0  0  0  0  0  0  0  0  0
   48.5741    8.2497   15.1143 C   0  0  0  0  0  0  0  0  0  0  0  0
   48.0591    9.0713   14.0015 C   0  0  0  0  0  0  0  0  0  0  0  0
   46.9870    8.5716   13.2367 C   0  0  0  0  0  0  0  0  0  0  0  0
   46.4548    9.2858   12.2120 N   0  0  0  0  0  0  0  0  0  0  0  0
   46.9637   10.4793   11.8925 C   0  0  0  0  0  0  0  0  0  0  0  0
   46.3812   11.1601   10.8323 C   0  0  0  0  0  0  0  0  0  0  0  0
   46.8233   12.4193   10.4254 C   0  0  0  0  0  0  0  0  0  0  0  0
   47.8959   13.0066   11.0777 C   0  0  0  0  0  0  0  0  0  0  0  0
   48.5016   12.3352   12.1408 C   0  0  0  0  0  0  0  0  0  0  0  0
   48.0418   11.0652   12.5778 C   0  0  0  0  0  0  0  0  0  0  0  0
   48.5993   10.3377   13.6684 C   0  0  0  0  0  0  0  0  0  0  0  0
   49.7251   10.9041   14.4350 C   0  0  0  0  0  0  0  0  0  0  0  0
   49.5106   11.8864   15.4214 C   0  0  0  0  0  0  0  0  0  0  0  0
   50.5828   12.4450   16.1173 C   0  0  0  0  0  0  0  0  0  0  0  0
   51.8745   12.0224   15.8211 C   0  0  0  0  0  0  0  0  0  0  0  0
   52.9106   12.5641   16.4768 F   0  0  0  0  0  0  0  0  0  0  0  0
   52.1179   11.0566   14.8506 C   0  0  0  0  0  0  0  0  0  0  0  0
   51.0414   10.4922   14.1638 C   0  0  0  0  0  0  0  0  0  0  0  0
   46.3521    7.2200   13.5151 C   0  0  0  0  0  0  0  0  0  0  0  0
   47.0206    5.9478   13.0333 C   0  0  0  0  0  0  0  0  0  0  0  0
   45.7439    6.3976   12.4000 C   0  0  0  0  0  0  0  0  0  0  0  0
   49.2102    6.1905   20.2138 C   0  0  0  0  0  0  0  0  0  0  0  0
   49.1086    5.0499   21.2227 C   0  0  0  0  0  0  0  0  0  0  0  0
   49.5808    5.2995   22.3605 O   0  0  0  0  0  0  0  0  0  0  0  0
   48.5692    3.9921   20.7816 O   0  0  0  0  0  0  0  0  0  0  0  0
   48.4761    3.7789   18.9768 H   0  0  0  0  0  0  0  0  0  0  0  0
   47.7335    5.9399   19.1949 H   0  0  0  0  0  0  0  0  0  0  0  0
   49.2349    7.7133   18.4052 H   0  0  0  0  0  0  0  0  0  0  0  0
   50.3361    6.5088   17.7026 H   0  0  0  0  0  0  0  0  0  0  0  0
   47.4126    6.7247   16.8227 H   0  0  0  0  0  0  0  0  0  0  0  0
   48.7344    4.8324   16.4939 H   0  0  0  0  0  0  0  0  0  0  0  0
   49.8716    7.9171   15.3692 H   0  0  0  0  0  0  0  0  0  0  0  0
   47.0265    8.9830   15.9672 H   0  0  0  0  0  0  0  0  0  0  0  0
   50.4625   14.0746   13.0884 H   0  0  0  0  0  0  0  0  0  0  0  0
   50.1019   14.3110   10.6495 H   0  0  0  0  0  0  0  0  0  0  0  0
   48.7574   12.6099    9.4268 H   0  0  0  0  0  0  0  0  0  0  0  0
   47.8192   10.6946   10.6438 H   0  0  0  0  0  0  0  0  0  0  0  0
   48.9309    7.7155   12.4483 H   0  0  0  0  0  0  0  0  0  0  0  0
   47.5015    5.9730   11.4142 H   0  0  0  0  0  0  0  0  0  0  0  0
   44.0540    8.4705   11.8881 H   0  0  0  0  0  0  0  0  0  0  0  0
   45.4615   10.2442   12.9111 H   0  0  0  0  0  0  0  0  0  0  0  0
   50.3558   10.4381   17.0710 H   0  0  0  0  0  0  0  0  0  0  0  0
   50.3236   12.5792   18.3457 H   0  0  0  0  0  0  0  0  0  0  0  0
   49.2684   13.3476   17.0792 H   0  0  0  0  0  0  0  0  0  0  0  0
   48.5623   10.8346   18.7714 H   0  0  0  0  0  0  0  0  0  0  0  0
   47.4936   11.6040   17.5148 H   0  0  0  0  0  0  0  0  0  0  0  0
   50.6211    5.1223   19.8912 H   0  0  0  0  0  0  0  0  0  0  0  0
   49.8441    6.5911   20.5443 H   0  0  0  0  0  0  0  0  0  0  0  0
   48.0023    4.3591   19.1082 H   0  0  0  0  0  0  0  0  0  0  0  0
   47.0532    6.1915   20.0676 H   0  0  0  0  0  0  0  0  0  0  0  0
   46.8425    7.4669   18.0261 H   0  0  0  0  0  0  0  0  0  0  0  0
   47.7210    8.4010   19.2464 H   0  0  0  0  0  0  0  0  0  0  0  0
   49.3437    6.8189   17.1905 H   0  0  0  0  0  0  0  0  0  0  0  0
   50.1315    8.2068   19.0395 H   0  0  0  0  0  0  0  0  0  0  0  0
   47.9830    9.5521   16.6627 H   0  0  0  0  0  0  0  0  0  0  0  0
   49.0364    7.3033   14.8416 H   0  0  0  0  0  0  0  0  0  0  0  0
   45.5510   10.6966   10.3049 H   0  0  0  0  0  0  0  0  0  0  0  0
   46.3378   12.9301    9.5976 H   0  0  0  0  0  0  0  0  0  0  0  0
   48.2600   13.9842   10.7761 H   0  0  0  0  0  0  0  0  0  0  0  0
   49.3416   12.8172   12.6350 H   0  0  0  0  0  0  0  0  0  0  0  0
   48.5012   12.2186   15.6491 H   0  0  0  0  0  0  0  0  0  0  0  0
   50.4221   13.2028   16.8792 H   0  0  0  0  0  0  0  0  0  0  0  0
   53.1401   10.7468   14.6392 H   0  0  0  0  0  0  0  0  0  0  0  0
   51.2286    9.7281   13.4118 H   0  0  0  0  0  0  0  0  0  0  0  0
   45.8241    7.1665   14.4634 H   0  0  0  0  0  0  0  0  0  0  0  0
   47.0005    5.0930   13.7060 H   0  0  0  0  0  0  0  0  0  0  0  0
   47.9301    6.0392   12.4519 H   0  0  0  0  0  0  0  0  0  0  0  0
   45.7877    6.7849   11.3893 H   0  0  0  0  0  0  0  0  0  0  0  0
   44.8359    5.8533   12.6288 H   0  0  0  0  0  0  0  0  0  0  0  0
   49.3839    7.1288   20.7530 H   0  0  0  0  0  0  0  0  0  0  0  0
   50.0769    5.9833   19.5747 H   0  0  0  0  0  0  0  0  0  0  0  0
  2  1  1  0
  2  3  1  0
  3  4  1  0
  4  5  1  0
  4  6  1  0
  6  7  2  0
  7  8  1  0
  8  9  2  0
  9 10  1  0
 10 11  2  0
 11 12  1  0
 12 13  2  0
 13 14  1  0
 14 15  2  0
 15 16  1  0
 11 16  1  0
 16 17  2  0
  8 17  1  0
 17 18  1  0
 18 19  2  0
 19 20  1  0
 20 21  2  0
 21 22  1  0
 21 23  1  0
 23 24  2  0
 18 24  1  0
  9 25  1  0
 25 26  1  0
 26 27  1  0
 25 27  1  0
  2 28  1  0
 28 29  1  0
 29 30  2  0
 29 31  1  0
 34 33  1  0
 34 35  1  0
 35 36  1  0
 36 37  1  0
 36 38  1  0
 38 39  2  0
 39 40  1  0
 40 41  2  0
 41 42  1  0
 42 43  2  0
 43 44  1  0
 44 45  2  0
 45 46  1  0
 46 47  2  0
 47 48  1  0
 43 48  1  0
 48 49  2  0
 40 49  1  0
 49 50  1  0
 50 51  2  0
 51 52  1  0
 52 53  2  0
 53 54  1  0
 53 55  1  0
 55 56  2  0
 50 56  1  0
 41 57  1  0
 57 58  1  0
 58 59  1  0
 57 59  1  0
 34 60  1  0
 60 61  1  0
 61 62  2  0
 61 63  1  0
  1 64  1  0
  2 65  1  6
  3 66  1  0
  3 67  1  0
  4 68  1  6
  5 69  1  0
  6 70  1  0
  7 71  1  0
 12 72  1  0
 13 73  1  0
 14 74  1  0
 15 75  1  0
 19 76  1  0
 20 77  1  0
 23 78  1  0
 24 79  1  0
 25 80  1  0
 26 81  1  0
 26 82  1  0
 27 83  1  0
 27 84  1  0
 28 85  1  0
 28 86  1  0
 33 87  1  0
 34 88  1  6
 35 89  1  0
 35 90  1  0
 36 91  1  1
 37 92  1  0
 38 93  1  0
 39 94  1  0
 44 95  1  0
 45 96  1  0
 46 97  1  0
 47 98  1  0
 51 99  1  0
 52100  1  0
 55101  1  0
 56102  1  0
 57103  1  0
 58104  1  0
 58105  1  0
 59106  1  0
 59107  1  0
 60108  1  0
 60109  1  0
M  CHG  3  31  -1  32   2  63  -1
M  END
> <Uni-Dock RESULT> 
ENERGY=   -6.777  LOWER_BOUND=    4.349  UPPER_BOUND=    8.280
INTER + INTRA:          -6.777
INTER:                  -6.777
INTRA:                   0.000
UNBOUND:                 0.000

$$$$

     RDKit          3D

109114  0  0  0  0  0  0  0  0999 V2000
   49.4644    5.3215   19.0765 O   0  0  0  0  0  0  0  0  0  0  0  0
   48.7121    6.3324   19.7580 C   0  0  2  0  0  0  0  0  0  0  0  0
   49.1715    7.7041   19.2495 C   0  0  0  0  0  0  0  0  0  0  0  0
   49.1173    7.8070   17.7204 C   0  0  2  0  0  0  0  0  0  0  0  0
   50.1535    7.0232   17.1348 O   0  0  0  0  0  0  0  0  0  0  0  0
   49.3369    9.2274   17.2888 C   0  0  0  0  0  0  0  0  0  0  0  0
   48.3696    9.9868   16.7515 C   0  0  0  0  0  0  0  0  0  0  0  0
   48.6347   11.3753   16.3457 C   0  0  0  0  0  0  0  0  0  0  0  0
   48.5785   12.4057   17.2969 C   0  0  0  0  0  0  0  0  0  0  0  0
   48.8676   13.6902   16.9593 N   0  0  0  0  0  0  0  0  0  0  0  0
   49.2109   13.9900   15.7017 C   0  0  0  0  0  0  0  0  0  0  0  0
   49.5294   15.3133   15.4227 C   0  0  0  0  0  0  0  0  0  0  0  0
   49.9213   15.7313   14.1472 C   0  0  0  0  0  0  0  0  0  0  0  0
   49.9886   14.8085   13.1141 C   0  0  0  0  0  0  0  0  0  0  0  0
   49.6703   13.4722   13.3721 C   0  0  0  0  0  0  0  0  0  0  0  0
   49.2812   13.0329   14.6684 C   0  0  0  0  0  0  0  0  0  0  0  0
   48.9713   11.6865   15.0061 C   0  0  0  0  0  0  0  0  0  0  0  0
   48.9808   10.6267   13.9735 C   0  0  0  0  0  0  0  0  0  0  0  0
   50.0965    9.7898   13.8012 C   0  0  0  0  0  0  0  0  0  0  0  0
   50.0887    8.7842   12.8305 C   0  0  0  0  0  0  0  0  0  0  0  0
   48.9696    8.6141   12.0242 C   0  0  0  0  0  0  0  0  0  0  0  0
   48.9651    7.6610   11.0817 F   0  0  0  0  0  0  0  0  0  0  0  0
   47.8580    9.4329   12.1704 C   0  0  0  0  0  0  0  0  0  0  0  0
   47.8623   10.4368   13.1420 C   0  0  0  0  0  0  0  0  0  0  0  0
   48.2179   12.1436   18.7489 C   0  0  0  0  0  0  0  0  0  0  0  0
   47.3581   13.1277   19.5101 C   0  0  0  0  0  0  0  0  0  0  0  0
   46.7915   11.7949   19.1193 C   0  0  0  0  0  0  0  0  0  0  0  0
   48.9223    6.2116   21.2598 C   0  0  0  0  0  0  0  0  0  0  0  0
   48.2162    4.9555   21.7698 C   0  0  0  0  0  0  0  0  0  0  0  0
   48.2798    3.9613   20.9860 O   0  0  0  0  0  0  0  0  0  0  0  0
   47.6725    5.0659   22.9036 O   0  0  0  0  0  0  0  0  0  0  0  0
   48.8362   10.1008   16.7934 Ca  0  0  0  0  0 15  0  0  0  0  0  0
   48.3503    5.6629   18.9014 O   0  0  0  0  0  0  0  0  0  0  0  0
   47.5966    6.4941   19.7914 C   0  0  2  0  0  0  0  0  0  0  0  0
   47.3723    7.8498   19.1009 C   0  0  0  0  0  0  0  0  0  0  0  0
   48.6563    8.6520   18.8271 C   0  0  2  0  0  0  0  0  0  0  0  0
   48.9649    9.5221   19.9157 O   0  0  0  0  0  0  0  0  0  0  0  0
   48.4618    9.5711   17.6539 C   0  0  0  0  0  0  0  0  0  0  0  0
   49.2781    9.6074   16.5890 C   0  0  0  0  0  0  0  0  0  0  0  0
   49.0462   10.4923   15.4306 C   0  0  0  0  0  0  0  0  0  0  0  0
   48.7154    9.9071   14.1928 C   0  0  0  0  0  0  0  0  0  0  0  0
   48.4713   10.6657   13.0936 N   0  0  0  0  0  0  0  0  0  0  0  0
   48.5675   11.9965   13.1638 C   0  0  0  0  0  0  0  0  0  0  0  0
   48.3115   12.7184   12.0062 C   0  0  0  0  0  0  0  0  0  0  0  0
   48.3679   14.1121   11.9721 C   0  0  0  0  0  0  0  0  0  0  0  0
   48.7159   14.8066   13.1199 C   0  0  0  0  0  0  0  0  0  0  0  0
   48.9856   14.0995   14.2925 C   0  0  0  0  0  0  0  0  0  0  0  0
   48.9057   12.6831   14.3427 C   0  0  0  0  0  0  0  0  0  0  0  0
   49.1458   11.9030   15.5103 C   0  0  0  0  0  0  0  0  0  0  0  0
   49.4935   12.5652   16.7818 C   0  0  0  0  0  0  0  0  0  0  0  0
   48.5012   13.1564   17.5876 C   0  0  0  0  0  0  0  0  0  0  0  0
   48.8402   13.8134   18.7706 C   0  0  0  0  0  0  0  0  0  0  0  0
   50.1780   13.8829   19.1455 C   0  0  0  0  0  0  0  0  0  0  0  0
   50.5125   14.5236   20.2743 F   0  0  0  0  0  0  0  0  0  0  0  0
   51.1802   13.3114   18.3690 C   0  0  0  0  0  0  0  0  0  0  0  0
   50.8358   12.6455   17.1913 C   0  0  0  0  0  0  0  0  0  0  0  0
   48.5965    8.4035   14.0119 C   0  0  0  0  0  0  0  0  0  0  0  0
   49.8404    7.5526   13.8496 C   0  0  0  0  0  0  0  0  0  0  0  0
   48.9212    7.7476   12.6875 C   0  0  0  0  0  0  0  0  0  0  0  0
   48.2946    6.6108   21.1391 C   0  0  0  0  0  0  0  0  0  0  0  0
   48.1977    5.2753   21.8713 C   0  0  0  0  0  0  0  0  0  0  0  0
   47.9729    5.3576   23.1052 O   0  0  0  0  0  0  0  0  0  0  0  0
   48.3659    4.2526   21.1430 O   0  0  0  0  0  0  0  0  0  0  0  0
   49.1819    4.4850   19.5333 H   0  0  0  0  0  0  0  0  0  0  0  0
   47.6556    6.1990   19.4948 H   0  0  0  0  0  0  0  0  0  0  0  0
   48.5414    8.4776   19.7091 H   0  0  0  0  0  0  0  0  0  0  0  0
   50.2076    7.8734   19.5830 H   0  0  0  0  0  0  0  0  0  0  0  0
   48.1594    7.4261   17.3531 H   0  0  0  0  0  0  0  0  0  0  0  0
   50.0998    6.1596   17.6111 H   0  0  0  0  0  0  0  0  0  0  0  0
   50.3388    9.6221   17.4456 H   0  0  0  0  0  0  0  0  0  0  0  0
   47.3649    9.6071   16.5830 H   0  0  0  0  0  0  0  0  0  0  0  0
   49.4763   16.0440   16.2282 H   0  0  0  0  0  0  0  0  0  0  0  0
   50.1883   16.7713   13.9702 H   0  0  0  0  0  0  0  0  0  0  0  0
   50.3039   15.1147   12.1158 H   0  0  0  0  0  0  0  0  0  0  0  0
   49.7356   12.7647   12.5448 H   0  0  0  0  0  0  0  0  0  0  0  0
   50.9667    9.8957   14.4476 H   0  0  0  0  0  0  0  0  0  0  0  0
   50.9450    8.1281   12.7086 H   0  0  0  0  0  0  0  0  0  0  0  0
   46.9913    9.2836   11.5339 H   0  0  0  0  0  0  0  0  0  0  0  0
   46.9882   11.0762   13.2543 H   0  0  0  0  0  0  0  0  0  0  0  0
   48.9993   11.6569   19.3301 H   0  0  0  0  0  0  0  0  0  0  0  0
   47.5802   13.2964   20.5583 H   0  0  0  0  0  0  0  0  0  0  0  0
   47.0015   14.0107   18.9889 H   0  0  0  0  0  0  0  0  0  0  0  0
   46.6367   11.0591   19.9014 H   0  0  0  0  0  0  0  0  0  0  0  0
   46.0423   11.7678   18.3336 H   0  0  0  0  0  0  0  0  0  0  0  0
   49.9880    6.1280   21.5062 H   0  0  0  0  0  0  0  0  0  0  0  0
   48.5044    7.0844   21.7740 H   0  0  0  0  0  0  0  0  0  0  0  0
   48.5179    4.8452   19.4454 H   0  0  0  0  0  0  0  0  0  0  0  0
   46.6185    6.0078   19.9139 H   0  0  0  0  0  0  0  0  0  0  0  0
   46.8747    7.6358   18.1467 H   0  0  0  0  0  0  0  0  0  0  0  0
   46.6782    8.4483   19.7070 H   0  0  0  0  0  0  0  0  0  0  0  0
   49.5172    7.9936   18.6599 H   0  0  0  0  0  0  0  0  0  0  0  0
   48.7914    9.0380   20.7451 H   0  0  0  0  0  0  0  0  0  0  0  0
   47.6068   10.2394   17.7073 H   0  0  0  0  0  0  0  0  0  0  0  0
   50.1367    8.9423   16.5238 H   0  0  0  0  0  0  0  0  0  0  0  0
   48.0558   12.1784   11.0978 H   0  0  0  0  0  0  0  0  0  0  0  0
   48.1512   14.6475   11.0510 H   0  0  0  0  0  0  0  0  0  0  0  0
   48.7700   15.8911   13.1163 H   0  0  0  0  0  0  0  0  0  0  0  0
   49.2572   14.6679   15.1788 H   0  0  0  0  0  0  0  0  0  0  0  0
   47.4566   13.1048   17.2916 H   0  0  0  0  0  0  0  0  0  0  0  0
   48.0780   14.2707   19.3955 H   0  0  0  0  0  0  0  0  0  0  0  0
   52.2190   13.3833   18.6871 H   0  0  0  0  0  0  0  0  0  0  0  0
   51.6173   12.1878   16.5880 H   0  0  0  0  0  0  0  0  0  0  0  0
   47.7656    7.9576   14.5518 H   0  0  0  0  0  0  0  0  0  0  0  0
   49.8504    6.5895   14.3554 H   0  0  0  0  0  0  0  0  0  0  0  0
   50.8003    8.0540   13.8214 H   0  0  0  0  0  0  0  0  0  0  0  0
   49.2612    8.3727   11.8708 H   0  0  0  0  0  0  0  0  0  0  0  0
   48.2944    6.9188   12.3820 H   0  0  0  0  0  0  0  0  0  0  0  0
   47.8330    7.3900   21.7564 H   0  0  0  0  0  0  0  0  0  0  0  0
   49.3604    6.8391   21.0184 H   0  0  0  0  0  0  0  0  0  0  0  0
  2  1  1  0
  2  3  1  0
  3  4  1  0
  4  5  1  0
  4  6  1  0
  6  7  2  0
  7  8  1  0
  8  9  2  0
  9 10  1  0
 10 11  2  0
 11 12  1  0
 12 13  2  0
 13 14  1  0
 14 15  2  0
 15 16  1  0
 11 16  1  0
 16 17  2  0
  8 17  1  0
 17 18  1  0
 18 19  2  0
 19 20  1  0
 20 21  2  0
 21 22  1  0
 21 23  1  0
 23 24  2  0
 18 24  1  0
  9 25  1  0
 25 26  1  0
 26 27  1  0
 25 27  1  0
  2 28  1  0
 28 29  1  0
 29 30  2  0
 29 31  1  0
 34 33  1  0
 34 35  1  0
 35 36  1  0
 36 37  1  0
 36 38  1  0
 38 39  2  0
 39 40  1  0
 40 41  2  0
 41 42  1  0
 42 43  2  0
 43 44  1  0
 44 45  2  0
 45 46  1  0
 46 47  2  0
 47 48  1  0
 43 48  1  0
 48 49  2  0
 40 49  1  0
 49 50  1  0
 50 51  2  0
 51 52  1  0
 52 53  2  0
 53 54  1  0
 53 55  1  0
 55 56  2  0
 50 56  1  0
 41 57  1  0
 57 58  1  0
 58 59  1  0
 57 59  1  0
 34 60  1  0
 60 61  1  0
 61 62  2  0
 61 63  1  0
  1 64  1  0
  2 65  1  6
  3 66  1  0
  3 67  1  0
  4 68  1  6
  5 69  1  0
  6 70  1  0
  7 71  1  0
 12 72  1  0
 13 73  1  0
 14 74  1  0
 15 75  1  0
 19 76  1  0
 20 77  1  0
 23 78  1  0
 24 79  1  0
 25 80  1  0
 26 81  1  0
 26 82  1  0
 27 83  1  0
 27 84  1  0
 28 85  1  0
 28 86  1  0
 33 87  1  0
 34 88  1  6
 35 89  1  0
 35 90  1  0
 36 91  1  1
 37 92  1  0
 38 93  1  0
 39 94  1  0
 44 95  1  0
 45 96  1  0
 46 97  1  0
 47 98  1  0
 51 99  1  0
 52100  1  0
 55101  1  0
 56102  1  0
 57103  1  0
 58104  1  0
 58105  1  0
 59106  1  0
 59107  1  0
 60108  1  0
 60109  1  0
M  CHG  3  31  -1  32   2  63  -1
M  END
> <Uni-Dock RESULT> 
ENERGY=   -6.559  LOWER_BOUND=    4.690  UPPER_BOUND=    8.608
INTER + INTRA:          -6.559
INTER:                  -6.559
INTRA:                   0.000
UNBOUND:                 0.000

$$$$

     RDKit          3D

109114  0  0  0  0  0  0  0  0999 V2000
   53.1531   11.5352   11.2882 O   0  0  0  0  0  0  0  0  0  0  0  0
   52.3008   10.3928   11.1435 C   0  0  2  0  0  0  0  0  0  0  0  0
   51.9391    9.8776   12.5416 C   0  0  0  0  0  0  0  0  0  0  0  0
   51.3619   10.9800   13.4378 C   0  0  2  0  0  0  0  0  0  0  0  0
   52.3873   11.8915   13.8235 O   0  0  0  0  0  0  0  0  0  0  0  0
   50.8010   10.3842   14.6958 C   0  0  0  0  0  0  0  0  0  0  0  0
   49.4865   10.3425   14.9628 C   0  0  0  0  0  0  0  0  0  0  0  0
   48.9860    9.7458   16.2104 C   0  0  0  0  0  0  0  0  0  0  0  0
   48.7998    8.3574   16.2971 C   0  0  0  0  0  0  0  0  0  0  0  0
   48.3860    7.7748   17.4533 N   0  0  0  0  0  0  0  0  0  0  0  0
   48.1469    8.5273   18.5331 C   0  0  0  0  0  0  0  0  0  0  0  0
   47.7599    7.8738   19.6964 C   0  0  0  0  0  0  0  0  0  0  0  0
   47.5055    8.5618   20.8869 C   0  0  0  0  0  0  0  0  0  0  0  0
   47.6288    9.9428   20.9202 C   0  0  0  0  0  0  0  0  0  0  0  0
   48.0147   10.6208   19.7604 C   0  0  0  0  0  0  0  0  0  0  0  0
   48.2873    9.9304   18.5463 C   0  0  0  0  0  0  0  0  0  0  0  0
   48.7102   10.5538   17.3398 C   0  0  0  0  0  0  0  0  0  0  0  0
   48.8435   12.0250   17.2554 C   0  0  0  0  0  0  0  0  0  0  0  0
   50.0905   12.6523   17.4174 C   0  0  0  0  0  0  0  0  0  0  0  0
   50.2057   14.0420   17.3233 C   0  0  0  0  0  0  0  0  0  0  0  0
   49.0756   14.8113   17.0730 C   0  0  0  0  0  0  0  0  0  0  0  0
   49.1801   16.1455   16.9979 F   0  0  0  0  0  0  0  0  0  0  0  0
   47.8315   14.2154   16.9163 C   0  0  0  0  0  0  0  0  0  0  0  0
   47.7144   12.8262   17.0071 C   0  0  0  0  0  0  0  0  0  0  0  0
   49.0702    7.4329   15.1226 C   0  0  0  0  0  0  0  0  0  0  0  0
   48.1640    6.2512   14.8589 C   0  0  0  0  0  0  0  0  0  0  0  0
   48.1319    7.4318   13.9340 C   0  0  0  0  0  0  0  0  0  0  0  0
   53.0090    9.3166   10.3345 C   0  0  0  0  0  0  0  0  0  0  0  0
   53.1131    9.7658    8.8772 C   0  0  0  0  0  0  0  0  0  0  0  0
   53.3434   11.0027    8.7231 O   0  0  0  0  0  0  0  0  0  0  0  0
   52.9675    8.8510    8.0197 O   0  0  0  0  0  0  0  0  0  0  0  0
   49.8454   10.2185   15.2600 Ca  0  0  0  0  0 15  0  0  0  0  0  0
   52.0091   11.4926   11.0090 O   0  0  0  0  0  0  0  0  0  0  0  0
   51.2992   10.3071   10.6327 C   0  0  2  0  0  0  0  0  0  0  0  0
   50.3083    9.9681   11.7588 C   0  0  0  0  0  0  0  0  0  0  0  0
   50.9626    9.6087   13.1041 C   0  0  2  0  0  0  0  0  0  0  0  0
   51.1974    8.2044   13.2066 O   0  0  0  0  0  0  0  0  0  0  0  0
   50.0302    9.9185   14.2416 C   0  0  0  0  0  0  0  0  0  0  0  0
   50.3654   10.6753   15.2983 C   0  0  0  0  0  0  0  0  0  0  0  0
   49.4208   10.9974   16.3858 C   0  0  0  0  0  0  0  0  0  0  0  0
   48.9976   12.3325   16.5356 C   0  0  0  0  0  0  0  0  0  0  0  0
   48.1157   12.6914   17.5035 N   0  0  0  0  0  0  0  0  0  0  0  0
   47.6488   11.7754   18.3569 C   0  0  0  0  0  0  0  0  0  0  0  0
   46.7540   12.2030   19.3281 C   0  0  0  0  0  0  0  0  0  0  0  0
   46.1932   11.3275   20.2586 C   0  0  0  0  0  0  0  0  0  0  0  0
   46.5555    9.9900   20.2376 C   0  0  0  0  0  0  0  0  0  0  0  0
   47.4604    9.5408   19.2747 C   0  0  0  0  0  0  0  0  0  0  0  0
   48.0161   10.4196   18.3082 C   0  0  0  0  0  0  0  0  0  0  0  0
   48.9255   10.0225   17.2862 C   0  0  0  0  0  0  0  0  0  0  0  0
   49.3408    8.6113   17.1751 C   0  0  0  0  0  0  0  0  0  0  0  0
   48.5053    7.6543   16.5672 C   0  0  0  0  0  0  0  0  0  0  0  0
   48.8873    6.3144   16.4980 C   0  0  0  0  0  0  0  0  0  0  0  0
   50.1078    5.9306   17.0438 C   0  0  0  0  0  0  0  0  0  0  0  0
   50.4756    4.6427   16.9923 F   0  0  0  0  0  0  0  0  0  0  0  0
   50.9527    6.8521   17.6529 C   0  0  0  0  0  0  0  0  0  0  0  0
   50.5716    8.1940   17.7107 C   0  0  0  0  0  0  0  0  0  0  0  0
   49.4840   13.4453   15.6232 C   0  0  0  0  0  0  0  0  0  0  0  0
   50.8486   14.0690   15.8389 C   0  0  0  0  0  0  0  0  0  0  0  0
   49.6176   14.8662   16.1262 C   0  0  0  0  0  0  0  0  0  0  0  0
   52.2687    9.1759   10.3204 C   0  0  0  0  0  0  0  0  0  0  0  0
   52.9927    9.4828    9.0125 C   0  0  0  0  0  0  0  0  0  0  0  0
   53.1606    8.4971    8.2508 O   0  0  0  0  0  0  0  0  0  0  0  0
   53.3413   10.6916    8.8649 O   0  0  0  0  0  0  0  0  0  0  0  0
   53.4185   11.7376   10.3518 H   0  0  0  0  0  0  0  0  0  0  0  0
   51.3811   10.7215   10.6443 H   0  0  0  0  0  0  0  0  0  0  0  0
   51.2213    9.0527   12.4367 H   0  0  0  0  0  0  0  0  0  0  0  0
   52.8487    9.4730   13.0131 H   0  0  0  0  0  0  0  0  0  0  0  0
   50.5983   11.5439   12.8932 H   0  0  0  0  0  0  0  0  0  0  0  0
   52.8639   12.0874   12.9808 H   0  0  0  0  0  0  0  0  0  0  0  0
   51.5287    9.9703   15.3909 H   0  0  0  0  0  0  0  0  0  0  0  0
   48.7462   10.7558   14.2823 H   0  0  0  0  0  0  0  0  0  0  0  0
   47.6584    6.7899   19.6773 H   0  0  0  0  0  0  0  0  0  0  0  0
   47.2289    8.0153   21.7863 H   0  0  0  0  0  0  0  0  0  0  0  0
   47.4458   10.4945   21.8432 H   0  0  0  0  0  0  0  0  0  0  0  0
   48.1096   11.7058   19.8130 H   0  0  0  0  0  0  0  0  0  0  0  0
   50.9867   12.0564   17.5845 H   0  0  0  0  0  0  0  0  0  0  0  0
   51.1720   14.5245   17.4331 H   0  0  0  0  0  0  0  0  0  0  0  0
   46.9600   14.8317   16.7182 H   0  0  0  0  0  0  0  0  0  0  0  0
   46.7371   12.3626   16.8826 H   0  0  0  0  0  0  0  0  0  0  0  0
   50.1246    7.2726   14.9043 H   0  0  0  0  0  0  0  0  0  0  0  0
   48.6135    5.3338   14.4944 H   0  0  0  0  0  0  0  0  0  0  0  0
   47.3179    6.0933   15.5204 H   0  0  0  0  0  0  0  0  0  0  0  0
   48.5657    7.3158   12.9464 H   0  0  0  0  0  0  0  0  0  0  0  0
   47.2598    8.0783   13.9596 H   0  0  0  0  0  0  0  0  0  0  0  0
   54.0243    9.1403   10.7108 H   0  0  0  0  0  0  0  0  0  0  0  0
   52.4454    8.3776   10.3746 H   0  0  0  0  0  0  0  0  0  0  0  0
   52.6747   11.5985   10.2753 H   0  0  0  0  0  0  0  0  0  0  0  0
   50.7199   10.5661    9.7352 H   0  0  0  0  0  0  0  0  0  0  0  0
   49.6753   10.8540   11.8951 H   0  0  0  0  0  0  0  0  0  0  0  0
   49.6581    9.1470   11.4267 H   0  0  0  0  0  0  0  0  0  0  0  0
   51.9193   10.1270   13.2405 H   0  0  0  0  0  0  0  0  0  0  0  0
   51.5225    7.8909   12.3416 H   0  0  0  0  0  0  0  0  0  0  0  0
   49.0380    9.4804   14.1787 H   0  0  0  0  0  0  0  0  0  0  0  0
   51.3555   11.1202   15.3717 H   0  0  0  0  0  0  0  0  0  0  0  0
   46.4798   13.2546   19.3612 H   0  0  0  0  0  0  0  0  0  0  0  0
   45.4870   11.6935   20.9997 H   0  0  0  0  0  0  0  0  0  0  0  0
   46.1352    9.2908   20.9544 H   0  0  0  0  0  0  0  0  0  0  0  0
   47.7287    8.4871   19.2805 H   0  0  0  0  0  0  0  0  0  0  0  0
   47.5501    7.9548   16.1445 H   0  0  0  0  0  0  0  0  0  0  0  0
   48.2461    5.5727   16.0297 H   0  0  0  0  0  0  0  0  0  0  0  0
   51.9014    6.5219   18.0729 H   0  0  0  0  0  0  0  0  0  0  0  0
   51.2362    8.9187   18.1769 H   0  0  0  0  0  0  0  0  0  0  0  0
   49.1448   13.3540   14.5949 H   0  0  0  0  0  0  0  0  0  0  0  0
   51.4312   14.3040   14.9507 H   0  0  0  0  0  0  0  0  0  0  0  0
   51.4361   13.7290   16.6832 H   0  0  0  0  0  0  0  0  0  0  0  0
   49.3767   15.0725   17.1619 H   0  0  0  0  0  0  0  0  0  0  0  0
   49.3457   15.6588   15.4399 H   0  0  0  0  0  0  0  0  0  0  0  0
   51.7412    8.2204   10.2201 H   0  0  0  0  0  0  0  0  0  0  0  0
   53.0334    9.0785   11.1004 H   0  0  0  0  0  0  0  0  0  0  0  0
  2  1  1  0
  2  3  1  0
  3  4  1  0
  4  5  1  0
  4  6  1  0
  6  7  2  0
  7  8  1  0
  8  9  2  0
  9 10  1  0
 10 11  2  0
 11 12  1  0
 12 13  2  0
 13 14  1  0
 14 15  2  0
 15 16  1  0
 11 16  1  0
 16 17  2  0
  8 17  1  0
 17 18  1  0
 18 19  2  0
 19 20  1  0
 20 21  2  0
 21 22  1  0
 21 23  1  0
 23 24  2  0
 18 24  1  0
  9 25  1  0
 25 26  1  0
 26 27  1  0
 25 27  1  0
  2 28  1  0
 28 29  1  0
 29 30  2  0
 29 31  1  0
 34 33  1  0
 34 35  1  0
 35 36  1  0
 36 37  1  0
 36 38  1  0
 38 39  2  0
 39 40  1  0
 40 41  2  0
 41 42  1  0
 42 43  2  0
 43 44  1  0
 44 45  2  0
 45 46  1  0
 46 47  2  0
 47 48  1  0
 43 48  1  0
 48 49  2  0
 40 49  1  0
 49 50  1  0
 50 51  2  0
 51 52  1  0
 52 53  2  0
 53 54  1  0
 53 55  1  0
 55 56  2  0
 50 56  1  0
 41 57  1  0
 57 58  1  0
 58 59  1  0
 57 59  1  0
 34 60  1  0
 60 61  1  0
 61 62  2  0
 61 63  1  0
  1 64  1  0
  2 65  1  6
  3 66  1  0
  3 67  1  0
  4 68  1  6
  5 69  1  0
  6 70  1  0
  7 71  1  0
 12 72  1  0
 13 73  1  0
 14 74  1  0
 15 75  1  0
 19 76  1  0
 20 77  1  0
 23 78  1  0
 24 79  1  0
 25 80  1  0
 26 81  1  0
 26 82  1  0
 27 83  1  0
 27 84  1  0
 28 85  1  0
 28 86  1  0
 33 87  1  0
 34 88  1  6
 35 89  1  0
 35 90  1  0
 36 91  1  1
 37 92  1  0
 38 93  1  0
 39 94  1  0
 44 95  1  0
 45 96  1  0
 46 97  1  0
 47 98  1  0
 51 99  1  0
 52100  1  0
 55101  1  0
 56102  1  0
 57103  1  0
 58104  1  0
 58105  1  0
 59106  1  0
 59107  1  0
 60108  1  0
 60109  1  0
M  CHG  3  31  -1  32   2  63  -1
M  END
> <Uni-Dock RESULT> 
ENERGY=   -6.469  LOWER_BOUND=    4.463  UPPER_BOUND=    8.358
INTER + INTRA:          -6.469
INTER:                  -6.469
INTRA:                   0.000
UNBOUND:                 0.000

$$$$

     RDKit          3D

109114  0  0  0  0  0  0  0  0999 V2000
   52.6765   12.8684   12.3866 O   0  0  0  0  0  0  0  0  0  0  0  0
   53.6737   11.9155   12.7738 C   0  0  2  0  0  0  0  0  0  0  0  0
   53.1226   11.0827   13.9373 C   0  0  0  0  0  0  0  0  0  0  0  0
   51.7567   10.4642   13.6158 C   0  0  2  0  0  0  0  0  0  0  0  0
   50.7487   11.4716   13.6005 O   0  0  0  0  0  0  0  0  0  0  0  0
   51.3758    9.4709   14.6743 C   0  0  0  0  0  0  0  0  0  0  0  0
   51.3298    8.1479   14.4536 C   0  0  0  0  0  0  0  0  0  0  0  0
   50.9519    7.2144   15.5253 C   0  0  0  0  0  0  0  0  0  0  0  0
   51.9160    6.7806   16.4484 C   0  0  0  0  0  0  0  0  0  0  0  0
   51.5832    5.9576   17.4776 N   0  0  0  0  0  0  0  0  0  0  0  0
   50.3188    5.5456   17.6225 C   0  0  0  0  0  0  0  0  0  0  0  0
   50.0304    4.7338   18.7125 C   0  0  0  0  0  0  0  0  0  0  0  0
   48.7386    4.2645   18.9697 C   0  0  0  0  0  0  0  0  0  0  0  0
   47.7030    4.6030   18.1116 C   0  0  0  0  0  0  0  0  0  0  0  0
   47.9712    5.4169   17.0074 C   0  0  0  0  0  0  0  0  0  0  0  0
   49.2794    5.9098   16.7418 C   0  0  0  0  0  0  0  0  0  0  0  0
   49.6162    6.7627   15.6547 C   0  0  0  0  0  0  0  0  0  0  0  0
   48.5946    7.1601   14.6607 C   0  0  0  0  0  0  0  0  0  0  0  0
   47.9279    8.3933   14.7569 C   0  0  0  0  0  0  0  0  0  0  0  0
   46.9735    8.7627   13.8049 C   0  0  0  0  0  0  0  0  0  0  0  0
   46.6768    7.8997   12.7567 C   0  0  0  0  0  0  0  0  0  0  0  0
   45.7505    8.2441   11.8510 F   0  0  0  0  0  0  0  0  0  0  0  0
   47.3168    6.6728   12.6441 C   0  0  0  0  0  0  0  0  0  0  0  0
   48.2732    6.3028   13.5928 C   0  0  0  0  0  0  0  0  0  0  0  0
   53.3674    7.2205   16.3647 C   0  0  0  0  0  0  0  0  0  0  0  0
   54.4787    6.2448   16.6807 C   0  0  0  0  0  0  0  0  0  0  0  0
   54.2553    6.6810   15.2631 C   0  0  0  0  0  0  0  0  0  0  0  0
   54.9505   12.6365   13.1789 C   0  0  0  0  0  0  0  0  0  0  0  0
   55.6107   13.2326   11.9358 C   0  0  0  0  0  0  0  0  0  0  0  0
   54.7990   13.7021   11.0828 O   0  0  0  0  0  0  0  0  0  0  0  0
   56.8722   13.1904   11.9230 O   0  0  0  0  0  0  0  0  0  0  0  0
   51.1881    8.3791   14.8524 Ca  0  0  0  0  0 15  0  0  0  0  0  0
   52.9902   11.8644   11.8556 O   0  0  0  0  0  0  0  0  0  0  0  0
   54.1654   11.1055   12.1624 C   0  0  2  0  0  0  0  0  0  0  0  0
   53.7227    9.7884   12.8214 C   0  0  0  0  0  0  0  0  0  0  0  0
   53.0126    9.9544   14.1762 C   0  0  2  0  0  0  0  0  0  0  0  0
   53.9436    9.9100   15.2573 O   0  0  0  0  0  0  0  0  0  0  0  0
   52.0863    8.7981   14.4293 C   0  0  0  0  0  0  0  0  0  0  0  0
   50.7882    8.9346   14.7427 C   0  0  0  0  0  0  0  0  0  0  0  0
   49.8881    7.7834   14.9502 C   0  0  0  0  0  0  0  0  0  0  0  0
   48.8502    7.5656   14.0231 C   0  0  0  0  0  0  0  0  0  0  0  0
   47.9999    6.5143   14.1462 N   0  0  0  0  0  0  0  0  0  0  0  0
   48.1202    5.6731   15.1773 C   0  0  0  0  0  0  0  0  0  0  0  0
   47.2188    4.6202   15.2526 C   0  0  0  0  0  0  0  0  0  0  0  0
   47.2646    3.6750   16.2779 C   0  0  0  0  0  0  0  0  0  0  0  0
   48.2211    3.7977   17.2733 C   0  0  0  0  0  0  0  0  0  0  0  0
   49.1318    4.8539   17.2211 C   0  0  0  0  0  0  0  0  0  0  0  0
   49.1086    5.8054   16.1679 C   0  0  0  0  0  0  0  0  0  0  0  0
   50.0214    6.8919   16.0428 C   0  0  0  0  0  0  0  0  0  0  0  0
   51.0886    7.0784   17.0441 C   0  0  0  0  0  0  0  0  0  0  0  0
   52.2660    6.3066   17.0024 C   0  0  0  0  0  0  0  0  0  0  0  0
   53.2556    6.4615   17.9733 C   0  0  0  0  0  0  0  0  0  0  0  0
   53.0634    7.3887   18.9923 C   0  0  0  0  0  0  0  0  0  0  0  0
   54.0043    7.5338   19.9359 F   0  0  0  0  0  0  0  0  0  0  0  0
   51.9102    8.1629   19.0615 C   0  0  0  0  0  0  0  0  0  0  0  0
   50.9269    8.0125   18.0818 C   0  0  0  0  0  0  0  0  0  0  0  0
   48.6257    8.4754   12.8276 C   0  0  0  0  0  0  0  0  0  0  0  0
   47.9154    9.8033   13.0005 C   0  0  0  0  0  0  0  0  0  0  0  0
   47.2396    8.6941   12.2614 C   0  0  0  0  0  0  0  0  0  0  0  0
   55.1220   11.9195   13.0224 C   0  0  0  0  0  0  0  0  0  0  0  0
   55.7336   13.0324   12.1760 C   0  0  0  0  0  0  0  0  0  0  0  0
   56.9559   13.2459   12.3768 O   0  0  0  0  0  0  0  0  0  0  0  0
   54.9283   13.6067   11.3847 O   0  0  0  0  0  0  0  0  0  0  0  0
   53.1473   13.4240   11.7099 H   0  0  0  0  0  0  0  0  0  0  0  0
   53.8499   11.2489   11.9206 H   0  0  0  0  0  0  0  0  0  0  0  0
   53.8512   10.2983   14.1832 H   0  0  0  0  0  0  0  0  0  0  0  0
   53.0213   11.7350   14.8191 H   0  0  0  0  0  0  0  0  0  0  0  0
   51.7805    9.9974   12.6263 H   0  0  0  0  0  0  0  0  0  0  0  0
   51.1433   12.1979   13.0597 H   0  0  0  0  0  0  0  0  0  0  0  0
   51.1433    9.8854   15.6532 H   0  0  0  0  0  0  0  0  0  0  0  0
   51.5538    7.7173   13.4809 H   0  0  0  0  0  0  0  0  0  0  0  0
   50.8390    4.4617   19.3891 H   0  0  0  0  0  0  0  0  0  0  0  0
   48.5438    3.6513   19.8473 H   0  0  0  0  0  0  0  0  0  0  0  0
   46.6869    4.2557   18.3035 H   0  0  0  0  0  0  0  0  0  0  0  0
   47.1396    5.6733   16.3503 H   0  0  0  0  0  0  0  0  0  0  0  0
   48.1744    9.0892   15.5577 H   0  0  0  0  0  0  0  0  0  0  0  0
   46.4702    9.7223   13.8714 H   0  0  0  0  0  0  0  0  0  0  0  0
   47.0746    6.0127   11.8169 H   0  0  0  0  0  0  0  0  0  0  0  0
   48.7736    5.3403   13.5005 H   0  0  0  0  0  0  0  0  0  0  0  0
   53.5479    8.2504   16.6681 H   0  0  0  0  0  0  0  0  0  0  0  0
   55.3577    6.6198   17.1939 H   0  0  0  0  0  0  0  0  0  0  0  0
   54.2100    5.2292   16.9545 H   0  0  0  0  0  0  0  0  0  0  0  0
   54.9787    7.3566   14.8190 H   0  0  0  0  0  0  0  0  0  0  0  0
   53.8385    5.9605   14.5655 H   0  0  0  0  0  0  0  0  0  0  0  0
   54.7399   13.4543   13.8790 H   0  0  0  0  0  0  0  0  0  0  0  0
   55.6505   11.9361   13.6483 H   0  0  0  0  0  0  0  0  0  0  0  0
   53.3605   12.7221   11.5094 H   0  0  0  0  0  0  0  0  0  0  0  0
   54.6366   10.8634   11.1994 H   0  0  0  0  0  0  0  0  0  0  0  0
   53.0373    9.3013   12.1164 H   0  0  0  0  0  0  0  0  0  0  0  0
   54.5982    9.1342   12.9345 H   0  0  0  0  0  0  0  0  0  0  0  0
   52.4660   10.9033   14.2334 H   0  0  0  0  0  0  0  0  0  0  0  0
   54.7357   10.4145   14.9919 H   0  0  0  0  0  0  0  0  0  0  0  0
   52.5273    7.8079   14.3564 H   0  0  0  0  0  0  0  0  0  0  0  0
   50.3352    9.9210   14.8175 H   0  0  0  0  0  0  0  0  0  0  0  0
   46.4545    4.5289   14.4847 H   0  0  0  0  0  0  0  0  0  0  0  0
   46.5498    2.8562   16.3014 H   0  0  0  0  0  0  0  0  0  0  0  0
   48.2735    3.0764   18.0833 H   0  0  0  0  0  0  0  0  0  0  0  0
   49.8715    4.9281   18.0146 H   0  0  0  0  0  0  0  0  0  0  0  0
   52.4133    5.5797   16.2079 H   0  0  0  0  0  0  0  0  0  0  0  0
   54.1657    5.8686   17.9450 H   0  0  0  0  0  0  0  0  0  0  0  0
   51.7869    8.8795   19.8719 H   0  0  0  0  0  0  0  0  0  0  0  0
   50.0288    8.6253   18.1276 H   0  0  0  0  0  0  0  0  0  0  0  0
   49.4213    8.4386   12.0884 H   0  0  0  0  0  0  0  0  0  0  0  0
   48.3041   10.6492   12.4375 H   0  0  0  0  0  0  0  0  0  0  0  0
   47.5387   10.0549   13.9845 H   0  0  0  0  0  0  0  0  0  0  0  0
   46.4021    8.2015   12.7402 H   0  0  0  0  0  0  0  0  0  0  0  0
   47.1543    8.7701   11.1843 H   0  0  0  0  0  0  0  0  0  0  0  0
   55.9269   11.2910   13.4203 H   0  0  0  0  0  0  0  0  0  0  0  0
   54.5986   12.3974   13.8592 H   0  0  0  0  0  0  0  0  0  0  0  0
  2  1  1  0
  2  3  1  0
  3  4  1  0
  4  5  1  0
  4  6  1  0
  6  7  2  0
  7  8  1  0
  8  9  2  0
  9 10  1  0
 10 11  2  0
 11 12  1  0
 12 13  2  0
 13 14  1  0
 14 15  2  0
 15 16  1  0
 11 16  1  0
 16 17  2  0
  8 17  1  0
 17 18  1  0
 18 19  2  0
 19 20  1  0
 20 21  2  0
 21 22  1  0
 21 23  1  0
 23 24  2  0
 18 24  1  0
  9 25  1  0
 25 26  1  0
 26 27  1  0
 25 27  1  0
  2 28  1  0
 28 29  1  0
 29 30  2  0
 29 31  1  0
 34 33  1  0
 34 35  1  0
 35 36  1  0
 36 37  1  0
 36 38  1  0
 38 39  2  0
 39 40  1  0
 40 41  2  0
 41 42  1  0
 42 43  2  0
 43 44  1  0
 44 45  2  0
 45 46  1  0
 46 47  2  0
 47 48  1  0
 43 48  1  0
 48 49  2  0
 40 49  1  0
 49 50  1  0
 50 51  2  0
 51 52  1  0
 52 53  2  0
 53 54  1  0
 53 55  1  0
 55 56  2  0
 50 56  1  0
 41 57  1  0
 57 58  1  0
 58 59  1  0
 57 59  1  0
 34 60  1  0
 60 61  1  0
 61 62  2  0
 61 63  1  0
  1 64  1  0
  2 65  1  6
  3 66  1  0
  3 67  1  0
  4 68  1  6
  5 69  1  0
  6 70  1  0
  7 71  1  0
 12 72  1  0
 13 73  1  0
 14 74  1  0
 15 75  1  0
 19 76  1  0
 20 77  1  0
 23 78  1  0
 24 79  1  0
 25 80  1  0
 26 81  1  0
 26 82  1  0
 27 83  1  0
 27 84  1  0
 28 85  1  0
 28 86  1  0
 33 87  1  0
 34 88  1  6
 35 89  1  0
 35 90  1  0
 36 91  1  1
 37 92  1  0
 38 93  1  0
 39 94  1  0
 44 95  1  0
 45 96  1  0
 46 97  1  0
 47 98  1  0
 51 99  1  0
 52100  1  0
 55101  1  0
 56102  1  0
 57103  1  0
 58104  1  0
 58105  1  0
 59106  1  0
 59107  1  0
 60108  1  0
 60109  1  0
M  CHG  3  31  -1  32   2  63  -1
M  END
> <Uni-Dock RESULT> 
ENERGY=   -6.119  LOWER_BOUND=    3.996  UPPER_BOUND=    5.807
INTER + INTRA:          -6.119
INTER:                  -6.119
INTRA:                   0.000
UNBOUND:                 0.000

$$$$

     RDKit          3D

109114  0  0  0  0  0  0  0  0999 V2000
   47.4760    5.4957   18.7584 O   0  0  0  0  0  0  0  0  0  0  0  0
   48.6624    5.5265   17.9561 C   0  0  2  0  0  0  0  0  0  0  0  0
   48.6008    6.7594   17.0465 C   0  0  0  0  0  0  0  0  0  0  0  0
   48.3422    8.0509   17.8319 C   0  0  2  0  0  0  0  0  0  0  0  0
   46.9964    8.0843   18.2997 O   0  0  0  0  0  0  0  0  0  0  0  0
   48.5332    9.2448   16.9430 C   0  0  0  0  0  0  0  0  0  0  0  0
   49.5556   10.1032   17.0804 C   0  0  0  0  0  0  0  0  0  0  0  0
   49.6999   11.2585   16.1819 C   0  0  0  0  0  0  0  0  0  0  0  0
   50.3190   11.1008   14.9322 C   0  0  0  0  0  0  0  0  0  0  0  0
   50.4210   12.1401   14.0623 N   0  0  0  0  0  0  0  0  0  0  0  0
   49.9286   13.3392   14.3924 C   0  0  0  0  0  0  0  0  0  0  0  0
   50.0303   14.3551   13.4501 C   0  0  0  0  0  0  0  0  0  0  0  0
   49.5302   15.6398   13.6840 C   0  0  0  0  0  0  0  0  0  0  0  0
   48.9197   15.9275   14.8955 C   0  0  0  0  0  0  0  0  0  0  0  0
   48.8086   14.9209   15.8588 C   0  0  0  0  0  0  0  0  0  0  0  0
   49.3035   13.6069   15.6278 C   0  0  0  0  0  0  0  0  0  0  0  0
   49.1992   12.5303   16.5514 C   0  0  0  0  0  0  0  0  0  0  0  0
   48.5943   12.7350   17.8862 C   0  0  0  0  0  0  0  0  0  0  0  0
   47.2507   12.4061   18.1336 C   0  0  0  0  0  0  0  0  0  0  0  0
   46.6942   12.5927   19.4020 C   0  0  0  0  0  0  0  0  0  0  0  0
   47.4751   13.1140   20.4267 C   0  0  0  0  0  0  0  0  0  0  0  0
   46.9399   13.3091   21.6401 F   0  0  0  0  0  0  0  0  0  0  0  0
   48.8030   13.4534   20.2052 C   0  0  0  0  0  0  0  0  0  0  0  0
   49.3623   13.2650   18.9389 C   0  0  0  0  0  0  0  0  0  0  0  0
   50.8837    9.7668   14.4751 C   0  0  0  0  0  0  0  0  0  0  0  0
   52.1769    9.7149   13.6927 C   0  0  0  0  0  0  0  0  0  0  0  0
   52.1477    9.2269   15.1108 C   0  0  0  0  0  0  0  0  0  0  0  0
   48.7665    4.2503   17.1347 C   0  0  0  0  0  0  0  0  0  0  0  0
   49.0932    3.0785   18.0603 C   0  0  0  0  0  0  0  0  0  0  0  0
   48.5174    3.1230   19.1887 O   0  0  0  0  0  0  0  0  0  0  0  0
   49.8815    2.2170   17.5811 O   0  0  0  0  0  0  0  0  0  0  0  0
   49.1787   10.1485   16.7830 Ca  0  0  0  0  0 15  0  0  0  0  0  0
   48.5699    5.8113   19.0620 O   0  0  0  0  0  0  0  0  0  0  0  0
   49.7427    5.5678   18.2771 C   0  0  2  0  0  0  0  0  0  0  0  0
   50.2581    6.9209   17.7591 C   0  0  0  0  0  0  0  0  0  0  0  0
   49.3015    7.6480   16.7982 C   0  0  2  0  0  0  0  0  0  0  0  0
   49.5636    7.2937   15.4405 O   0  0  0  0  0  0  0  0  0  0  0  0
   49.5313    9.1324   16.8509 C   0  0  0  0  0  0  0  0  0  0  0  0
   48.5603   10.0320   17.0737 C   0  0  0  0  0  0  0  0  0  0  0  0
   48.8158   11.4832   17.1586 C   0  0  0  0  0  0  0  0  0  0  0  0
   48.6382   12.1259   18.3994 C   0  0  0  0  0  0  0  0  0  0  0  0
   48.8747   13.4545   18.5490 N   0  0  0  0  0  0  0  0  0  0  0  0
   49.2602   14.1880   17.5008 C   0  0  0  0  0  0  0  0  0  0  0  0
   49.4817   15.5416   17.7140 C   0  0  0  0  0  0  0  0  0  0  0  0
   49.9017   16.3954   16.6935 C   0  0  0  0  0  0  0  0  0  0  0  0
   50.0809   15.8903   15.4153 C   0  0  0  0  0  0  0  0  0  0  0  0
   49.8552   14.5337   15.1775 C   0  0  0  0  0  0  0  0  0  0  0  0
   49.4525   13.6530   16.2154 C   0  0  0  0  0  0  0  0  0  0  0  0
   49.2277   12.2565   16.0456 C   0  0  0  0  0  0  0  0  0  0  0  0
   49.4237   11.6327   14.7233 C   0  0  0  0  0  0  0  0  0  0  0  0
   50.7128   11.3089   14.2572 C   0  0  0  0  0  0  0  0  0  0  0  0
   50.8951   10.7531   12.9907 C   0  0  0  0  0  0  0  0  0  0  0  0
   49.7833   10.5253   12.1864 C   0  0  0  0  0  0  0  0  0  0  0  0
   49.9521   10.0034   10.9633 F   0  0  0  0  0  0  0  0  0  0  0  0
   48.4986   10.8373   12.6179 C   0  0  0  0  0  0  0  0  0  0  0  0
   48.3194   11.3835   13.8902 C   0  0  0  0  0  0  0  0  0  0  0  0
   48.1893   11.3788   19.6434 C   0  0  0  0  0  0  0  0  0  0  0  0
   46.7261   11.0366   19.8431 C   0  0  0  0  0  0  0  0  0  0  0  0
   47.3703   12.0656   20.7146 C   0  0  0  0  0  0  0  0  0  0  0  0
   49.4490    4.5683   17.1671 C   0  0  0  0  0  0  0  0  0  0  0  0
   49.2427    3.1856   17.7791 C   0  0  0  0  0  0  0  0  0  0  0  0
   49.7531    2.2347   17.1347 O   0  0  0  0  0  0  0  0  0  0  0  0
   48.5743    3.1711   18.8549 O   0  0  0  0  0  0  0  0  0  0  0  0
   47.5486    4.6256   19.2336 H   0  0  0  0  0  0  0  0  0  0  0  0
   49.5208    5.6335   18.6306 H   0  0  0  0  0  0  0  0  0  0  0  0
   49.5444    6.8314   16.4888 H   0  0  0  0  0  0  0  0  0  0  0  0
   47.7891    6.6165   16.3157 H   0  0  0  0  0  0  0  0  0  0  0  0
   49.0023    8.0977   18.7035 H   0  0  0  0  0  0  0  0  0  0  0  0
   46.8555    7.1881   18.6903 H   0  0  0  0  0  0  0  0  0  0  0  0
   47.7905    9.3768   16.1587 H   0  0  0  0  0  0  0  0  0  0  0  0
   50.3033    9.9894   17.8613 H   0  0  0  0  0  0  0  0  0  0  0  0
   50.5108   14.1374   12.4976 H   0  0  0  0  0  0  0  0  0  0  0  0
   49.6045   16.4045   12.9134 H   0  0  0  0  0  0  0  0  0  0  0  0
   48.5132   16.9209   15.0903 H   0  0  0  0  0  0  0  0  0  0  0  0
   48.3201   15.1702   16.8014 H   0  0  0  0  0  0  0  0  0  0  0  0
   46.6388   11.9695   17.3454 H   0  0  0  0  0  0  0  0  0  0  0  0
   45.6605   12.3238   19.5962 H   0  0  0  0  0  0  0  0  0  0  0  0
   49.3989   13.8564   21.0181 H   0  0  0  0  0  0  0  0  0  0  0  0
   50.4042   13.5314   18.7694 H   0  0  0  0  0  0  0  0  0  0  0  0
   50.1345    9.0299   14.1911 H   0  0  0  0  0  0  0  0  0  0  0  0
   52.2678    8.9757   12.9041 H   0  0  0  0  0  0  0  0  0  0  0  0
   52.6885   10.6486   13.4808 H   0  0  0  0  0  0  0  0  0  0  0  0
   52.2116    8.1575   15.2819 H   0  0  0  0  0  0  0  0  0  0  0  0
   52.6451    9.8253   15.8683 H   0  0  0  0  0  0  0  0  0  0  0  0
   47.8214    4.0286   16.6238 H   0  0  0  0  0  0  0  0  0  0  0  0
   49.5630    4.3423   16.3877 H   0  0  0  0  0  0  0  0  0  0  0  0
   48.2581    4.8933   19.2913 H   0  0  0  0  0  0  0  0  0  0  0  0
   50.4949    5.1571   18.9653 H   0  0  0  0  0  0  0  0  0  0  0  0
   50.4239    7.5507   18.6422 H   0  0  0  0  0  0  0  0  0  0  0  0
   51.2328    6.7698   17.2749 H   0  0  0  0  0  0  0  0  0  0  0  0
   48.2527    7.4143   17.0170 H   0  0  0  0  0  0  0  0  0  0  0  0
   49.7417    6.3347   15.4099 H   0  0  0  0  0  0  0  0  0  0  0  0
   50.5526    9.4638   16.6848 H   0  0  0  0  0  0  0  0  0  0  0  0
   47.5342    9.7120   17.2424 H   0  0  0  0  0  0  0  0  0  0  0  0
   49.3254   15.9475   18.7104 H   0  0  0  0  0  0  0  0  0  0  0  0
   50.0765   17.4490   16.8969 H   0  0  0  0  0  0  0  0  0  0  0  0
   50.4034   16.5365   14.6044 H   0  0  0  0  0  0  0  0  0  0  0  0
   50.0020   14.1629   14.1659 H   0  0  0  0  0  0  0  0  0  0  0  0
   51.5810   11.4910   14.8852 H   0  0  0  0  0  0  0  0  0  0  0  0
   51.8876   10.5015   12.6272 H   0  0  0  0  0  0  0  0  0  0  0  0
   47.6476   10.6492   11.9654 H   0  0  0  0  0  0  0  0  0  0  0  0
   47.3140   11.6179   14.2343 H   0  0  0  0  0  0  0  0  0  0  0  0
   48.9149   10.6594   20.0132 H   0  0  0  0  0  0  0  0  0  0  0  0
   46.4996   10.0592   20.2639 H   0  0  0  0  0  0  0  0  0  0  0  0
   46.0169   11.3797   19.0996 H   0  0  0  0  0  0  0  0  0  0  0  0
   47.0918   13.1019   20.5672 H   0  0  0  0  0  0  0  0  0  0  0  0
   47.5884   11.8056   21.7432 H   0  0  0  0  0  0  0  0  0  0  0  0
   50.2763    4.5208   16.4498 H   0  0  0  0  0  0  0  0  0  0  0  0
   48.5285    4.8270   16.6300 H   0  0  0  0  0  0  0  0  0  0  0  0
  2  1  1  0
  2  3  1  0
  3  4  1  0
  4  5  1  0
  4  6  1  0
  6  7  2  0
  7  8  1  0
  8  9  2  0
  9 10  1  0
 10 11  2  0
 11 12  1  0
 12 13  2  0
 13 14  1  0
 14 15  2  0
 15 16  1  0
 11 16  1  0
 16 17  2  0
  8 17  1  0
 17 18  1  0
 18 19  2  0
 19 20  1  0
 20 21  2  0
 21 22  1  0
 21 23  1  0
 23 24  2  0
 18 24  1  0
  9 25  1  0
 25 26  1  0
 26 27  1  0
 25 27  1  0
  2 28  1  0
 28 29  1  0
 29 30  2  0
 29 31  1  0
 34 33  1  0
 34 35  1  0
 35 36  1  0
 36 37  1  0
 36 38  1  0
 38 39  2  0
 39 40  1  0
 40 41  2  0
 41 42  1  0
 42 43  2  0
 43 44  1  0
 44 45  2  0
 45 46  1  0
 46 47  2  0
 47 48  1  0
 43 48  1  0
 48 49  2  0
 40 49  1  0
 49 50  1  0
 50 51  2  0
 51 52  1  0
 52 53  2  0
 53 54  1  0
 53 55  1  0
 55 56  2  0
 50 56  1  0
 41 57  1  0
 57 58  1  0
 58 59  1  0
 57 59  1  0
 34 60  1  0
 60 61  1  0
 61 62  2  0
 61 63  1  0
  1 64  1  0
  2 65  1  6
  3 66  1  0
  3 67  1  0
  4 68  1  6
  5 69  1  0
  6 70  1  0
  7 71  1  0
 12 72  1  0
 13 73  1  0
 14 74  1  0
 15 75  1  0
 19 76  1  0
 20 77  1  0
 23 78  1  0
 24 79  1  0
 25 80  1  0
 26 81  1  0
 26 82  1  0
 27 83  1  0
 27 84  1  0
 28 85  1  0
 28 86  1  0
 33 87  1  0
 34 88  1  6
 35 89  1  0
 35 90  1  0
 36 91  1  1
 37 92  1  0
 38 93  1  0
 39 94  1  0
 44 95  1  0
 45 96  1  0
 46 97  1  0
 47 98  1  0
 51 99  1  0
 52100  1  0
 55101  1  0
 56102  1  0
 57103  1  0
 58104  1  0
 58105  1  0
 59106  1  0
 59107  1  0
 60108  1  0
 60109  1  0
M  CHG  3  31  -1  32   2  63  -1
M  END
> <Uni-Dock RESULT> 
ENERGY=   -5.816  LOWER_BOUND=    4.005  UPPER_BOUND=    9.038
INTER + INTRA:          -5.816
INTER:                  -5.816
INTRA:                   0.000
UNBOUND:                 0.000

$$$$

     RDKit          3D

109114  0  0  0  0  0  0  0  0999 V2000
   49.0508   15.6143   14.0418 O   0  0  0  0  0  0  0  0  0  0  0  0
   49.7894   15.5838   15.2689 C   0  0  2  0  0  0  0  0  0  0  0  0
   49.1880   14.4987   16.1699 C   0  0  0  0  0  0  0  0  0  0  0  0
   49.0919   13.1413   15.4630 C   0  0  2  0  0  0  0  0  0  0  0  0
   48.0640   13.1692   14.4762 O   0  0  0  0  0  0  0  0  0  0  0  0
   48.7324   12.0683   16.4486 C   0  0  0  0  0  0  0  0  0  0  0  0
   49.5888   11.1078   16.8294 C   0  0  0  0  0  0  0  0  0  0  0  0
   49.1887   10.0785   17.8007 C   0  0  0  0  0  0  0  0  0  0  0  0
   49.2599   10.3482   19.1762 C   0  0  0  0  0  0  0  0  0  0  0  0
   48.8498    9.4332   20.0938 N   0  0  0  0  0  0  0  0  0  0  0  0
   48.3702    8.2511   19.6913 C   0  0  0  0  0  0  0  0  0  0  0  0
   47.9336    7.3693   20.6722 C   0  0  0  0  0  0  0  0  0  0  0  0
   47.3957    6.1168   20.3607 C   0  0  0  0  0  0  0  0  0  0  0  0
   47.2982    5.7234   19.0344 C   0  0  0  0  0  0  0  0  0  0  0  0
   47.7336    6.5940   18.0314 C   0  0  0  0  0  0  0  0  0  0  0  0
   48.2722    7.8756   18.3356 C   0  0  0  0  0  0  0  0  0  0  0  0
   48.7074    8.8202   17.3654 C   0  0  0  0  0  0  0  0  0  0  0  0
   48.6771    8.4911   15.9230 C   0  0  0  0  0  0  0  0  0  0  0  0
   47.6127    8.9064   15.1050 C   0  0  0  0  0  0  0  0  0  0  0  0
   47.6015    8.5999   13.7414 C   0  0  0  0  0  0  0  0  0  0  0  0
   48.6498    7.8725   13.1905 C   0  0  0  0  0  0  0  0  0  0  0  0
   48.6342    7.5632   11.8863 F   0  0  0  0  0  0  0  0  0  0  0  0
   49.7091    7.4448   13.9795 C   0  0  0  0  0  0  0  0  0  0  0  0
   49.7239    7.7525   15.3422 C   0  0  0  0  0  0  0  0  0  0  0  0
   49.7721   11.6739   19.7122 C   0  0  0  0  0  0  0  0  0  0  0  0
   50.6268   11.7124   20.9592 C   0  0  0  0  0  0  0  0  0  0  0  0
   51.2480   12.0015   19.6249 C   0  0  0  0  0  0  0  0  0  0  0  0
   49.7293   16.9455   15.9444 C   0  0  0  0  0  0  0  0  0  0  0  0
   50.5676   17.9436   15.1459 C   0  0  0  0  0  0  0  0  0  0  0  0
   50.5021   17.7983   13.8884 O   0  0  0  0  0  0  0  0  0  0  0  0
   51.2054   18.7857   15.8368 O   0  0  0  0  0  0  0  0  0  0  0  0
   49.1212   11.1390   16.9429 Ca  0  0  0  0  0 15  0  0  0  0  0  0
   50.1165   15.1597   14.2560 O   0  0  0  0  0  0  0  0  0  0  0  0
   50.8888   15.3987   15.4381 C   0  0  2  0  0  0  0  0  0  0  0  0
   50.9506   14.0875   16.2393 C   0  0  0  0  0  0  0  0  0  0  0  0
   49.5928   13.5914   16.7660 C   0  0  2  0  0  0  0  0  0  0  0  0
   49.3258   14.1029   18.0715 O   0  0  0  0  0  0  0  0  0  0  0  0
   49.6110   12.0989   16.9429 C   0  0  0  0  0  0  0  0  0  0  0  0
   48.6984   11.2715   16.4097 C   0  0  0  0  0  0  0  0  0  0  0  0
   48.7577    9.8049   16.5656 C   0  0  0  0  0  0  0  0  0  0  0  0
   49.0124    9.0172   15.4259 C   0  0  0  0  0  0  0  0  0  0  0  0
   49.0982    7.6645   15.5048 N   0  0  0  0  0  0  0  0  0  0  0  0
   48.9144    7.0493   16.6766 C   0  0  0  0  0  0  0  0  0  0  0  0
   49.0093    5.6646   16.6940 C   0  0  0  0  0  0  0  0  0  0  0  0
   48.8509    4.9238   17.8657 C   0  0  0  0  0  0  0  0  0  0  0  0
   48.5629    5.5807   19.0515 C   0  0  0  0  0  0  0  0  0  0  0  0
   48.4547    6.9721   19.0545 C   0  0  0  0  0  0  0  0  0  0  0  0
   48.6396    7.7356   17.8720 C   0  0  0  0  0  0  0  0  0  0  0  0
   48.5657    9.1569   17.8104 C   0  0  0  0  0  0  0  0  0  0  0  0
   48.2918    9.9355   19.0331 C   0  0  0  0  0  0  0  0  0  0  0  0
   49.3103   10.1990   19.9695 C   0  0  0  0  0  0  0  0  0  0  0  0
   49.0371   10.9041   21.1417 C   0  0  0  0  0  0  0  0  0  0  0  0
   47.7387   11.3426   21.3795 C   0  0  0  0  0  0  0  0  0  0  0  0
   47.4661   12.0096   22.5098 F   0  0  0  0  0  0  0  0  0  0  0  0
   46.7116   11.0951   20.4751 C   0  0  0  0  0  0  0  0  0  0  0  0
   46.9913   10.3984   19.2981 C   0  0  0  0  0  0  0  0  0  0  0  0
   49.2207    9.6249   14.0494 C   0  0  0  0  0  0  0  0  0  0  0  0
   48.0309   10.0709   13.2229 C   0  0  0  0  0  0  0  0  0  0  0  0
   48.8214    8.8766   12.7962 C   0  0  0  0  0  0  0  0  0  0  0  0
   50.3130   16.5640   16.2303 C   0  0  0  0  0  0  0  0  0  0  0  0
   50.5726   17.8627   15.4720 C   0  0  0  0  0  0  0  0  0  0  0  0
   50.9051   18.8415   16.1871 O   0  0  0  0  0  0  0  0  0  0  0  0
   50.4105   17.7914   14.2178 O   0  0  0  0  0  0  0  0  0  0  0  0
   49.4334   16.4003   13.5686 H   0  0  0  0  0  0  0  0  0  0  0  0
   50.8235   15.3059   15.0311 H   0  0  0  0  0  0  0  0  0  0  0  0
   49.8015   14.4166   17.0774 H   0  0  0  0  0  0  0  0  0  0  0  0
   48.1781   14.8154   16.4751 H   0  0  0  0  0  0  0  0  0  0  0  0
   50.0361   12.9140   14.9585 H   0  0  0  0  0  0  0  0  0  0  0  0
   48.2234   14.0124   13.9872 H   0  0  0  0  0  0  0  0  0  0  0  0
   47.7239   12.1149   16.8548 H   0  0  0  0  0  0  0  0  0  0  0  0
   50.5979   11.0432   16.4300 H   0  0  0  0  0  0  0  0  0  0  0  0
   48.0094    7.6701   21.7159 H   0  0  0  0  0  0  0  0  0  0  0  0
   47.0400    5.4616   21.1534 H   0  0  0  0  0  0  0  0  0  0  0  0
   46.8702    4.7548   18.7725 H   0  0  0  0  0  0  0  0  0  0  0  0
   47.6420    6.2642   16.9961 H   0  0  0  0  0  0  0  0  0  0  0  0
   46.8013    9.5021   15.5209 H   0  0  0  0  0  0  0  0  0  0  0  0
   46.7865    8.9345   13.1071 H   0  0  0  0  0  0  0  0  0  0  0  0
   50.5210    6.8802   13.5316 H   0  0  0  0  0  0  0  0  0  0  0  0
   50.5568    7.4162   15.9574 H   0  0  0  0  0  0  0  0  0  0  0  0
   49.0850   12.5093   19.5893 H   0  0  0  0  0  0  0  0  0  0  0  0
   50.4920   12.5412   21.6459 H   0  0  0  0  0  0  0  0  0  0  0  0
   50.8695   10.7731   21.4465 H   0  0  0  0  0  0  0  0  0  0  0  0
   51.5271   13.0267   19.4054 H   0  0  0  0  0  0  0  0  0  0  0  0
   51.9207   11.2611   19.2022 H   0  0  0  0  0  0  0  0  0  0  0  0
   48.6999   17.3222   15.9881 H   0  0  0  0  0  0  0  0  0  0  0  0
   50.1301   16.8834   16.9625 H   0  0  0  0  0  0  0  0  0  0  0  0
   50.0590   16.0625   13.8387 H   0  0  0  0  0  0  0  0  0  0  0  0
   51.9062   15.6392   15.0987 H   0  0  0  0  0  0  0  0  0  0  0  0
   51.3710   13.3297   15.5663 H   0  0  0  0  0  0  0  0  0  0  0  0
   51.6538   14.2124   17.0744 H   0  0  0  0  0  0  0  0  0  0  0  0
   48.7691   13.8893   16.1061 H   0  0  0  0  0  0  0  0  0  0  0  0
   49.6100   15.0363   18.0918 H   0  0  0  0  0  0  0  0  0  0  0  0
   50.4175   11.7000   17.5519 H   0  0  0  0  0  0  0  0  0  0  0  0
   47.8871   11.6592   15.7972 H   0  0  0  0  0  0  0  0  0  0  0  0
   49.2170    5.1420   15.7634 H   0  0  0  0  0  0  0  0  0  0  0  0
   48.9420    3.8406   17.8463 H   0  0  0  0  0  0  0  0  0  0  0  0
   48.4314    5.0249   19.9751 H   0  0  0  0  0  0  0  0  0  0  0  0
   48.2272    7.4632   19.9976 H   0  0  0  0  0  0  0  0  0  0  0  0
   50.3237    9.8524   19.7843 H   0  0  0  0  0  0  0  0  0  0  0  0
   49.8198   11.1099   21.8668 H   0  0  0  0  0  0  0  0  0  0  0  0
   45.7045   11.4493   20.6892 H   0  0  0  0  0  0  0  0  0  0  0  0
   46.1915   10.2134   18.5837 H   0  0  0  0  0  0  0  0  0  0  0  0
   50.1280   10.2161   13.9597 H   0  0  0  0  0  0  0  0  0  0  0  0
   48.1368   10.9980   12.6635 H   0  0  0  0  0  0  0  0  0  0  0  0
   47.0393    9.9006   13.6245 H   0  0  0  0  0  0  0  0  0  0  0  0
   48.3631    7.9008   12.9009 H   0  0  0  0  0  0  0  0  0  0  0  0
   49.4744    8.9714   11.9373 H   0  0  0  0  0  0  0  0  0  0  0  0
   50.7735   16.6325   17.2226 H   0  0  0  0  0  0  0  0  0  0  0  0
   49.2270   16.4683   16.3492 H   0  0  0  0  0  0  0  0  0  0  0  0
  2  1  1  0
  2  3  1  0
  3  4  1  0
  4  5  1  0
  4  6  1  0
  6  7  2  0
  7  8  1  0
  8  9  2  0
  9 10  1  0
 10 11  2  0
 11 12  1  0
 12 13  2  0
 13 14  1  0
 14 15  2  0
 15 16  1  0
 11 16  1  0
 16 17  2  0
  8 17  1  0
 17 18  1  0
 18 19  2  0
 19 20  1  0
 20 21  2  0
 21 22  1  0
 21 23  1  0
 23 24  2  0
 18 24  1  0
  9 25  1  0
 25 26  1  0
 26 27  1  0
 25 27  1  0
  2 28  1  0
 28 29  1  0
 29 30  2  0
 29 31  1  0
 34 33  1  0
 34 35  1  0
 35 36  1  0
 36 37  1  0
 36 38  1  0
 38 39  2  0
 39 40  1  0
 40 41  2  0
 41 42  1  0
 42 43  2  0
 43 44  1  0
 44 45  2  0
 45 46  1  0
 46 47  2  0
 47 48  1  0
 43 48  1  0
 48 49  2  0
 40 49  1  0
 49 50  1  0
 50 51  2  0
 51 52  1  0
 52 53  2  0
 53 54  1  0
 53 55  1  0
 55 56  2  0
 50 56  1  0
 41 57  1  0
 57 58  1  0
 58 59  1  0
 57 59  1  0
 34 60  1  0
 60 61  1  0
 61 62  2  0
 61 63  1  0
  1 64  1  0
  2 65  1  6
  3 66  1  0
  3 67  1  0
  4 68  1  6
  5 69  1  0
  6 70  1  0
  7 71  1  0
 12 72  1  0
 13 73  1  0
 14 74  1  0
 15 75  1  0
 19 76  1  0
 20 77  1  0
 23 78  1  0
 24 79  1  0
 25 80  1  0
 26 81  1  0
 26 82  1  0
 27 83  1  0
 27 84  1  0
 28 85  1  0
 28 86  1  0
 33 87  1  0
 34 88  1  6
 35 89  1  0
 35 90  1  0
 36 91  1  1
 37 92  1  0
 38 93  1  0
 39 94  1  0
 44 95  1  0
 45 96  1  0
 46 97  1  0
 47 98  1  0
 51 99  1  0
 52100  1  0
 55101  1  0
 56102  1  0
 57103  1  0
 58104  1  0
 58105  1  0
 59106  1  0
 59107  1  0
 60108  1  0
 60109  1  0
M  CHG  3  31  -1  32   2  63  -1
M  END
> <Uni-Dock RESULT> 
ENERGY=   -5.575  LOWER_BOUND=    4.070  UPPER_BOUND=    6.222
INTER + INTRA:          -5.575
INTER:                  -5.575
INTRA:                   0.000
UNBOUND:                 0.000

$$$$

     RDKit          3D

109114  0  0  0  0  0  0  0  0999 V2000
   52.8265    1.8520   18.4823 O   0  0  0  0  0  0  0  0  0  0  0  0
   53.7284    2.9433   18.2635 C   0  0  2  0  0  0  0  0  0  0  0  0
   52.9127    4.1669   17.8294 C   0  0  0  0  0  0  0  0  0  0  0  0
   51.7722    4.4830   18.8045 C   0  0  2  0  0  0  0  0  0  0  0  0
   50.7393    3.5077   18.6905 O   0  0  0  0  0  0  0  0  0  0  0  0
   51.1638    5.8148   18.4758 C   0  0  0  0  0  0  0  0  0  0  0  0
   51.2993    6.8949   19.2606 C   0  0  0  0  0  0  0  0  0  0  0  0
   50.6845    8.1795   18.8933 C   0  0  0  0  0  0  0  0  0  0  0  0
   51.3445    9.0433   18.0056 C   0  0  0  0  0  0  0  0  0  0  0  0
   50.7766   10.2133   17.6109 N   0  0  0  0  0  0  0  0  0  0  0  0
   49.5691   10.5594   18.0711 C   0  0  0  0  0  0  0  0  0  0  0  0
   49.0232   11.7494   17.6064 C   0  0  0  0  0  0  0  0  0  0  0  0
   47.7596   12.1946   18.0064 C   0  0  0  0  0  0  0  0  0  0  0  0
   47.0195   11.4400   18.9043 C   0  0  0  0  0  0  0  0  0  0  0  0
   47.5506   10.2403   19.3864 C   0  0  0  0  0  0  0  0  0  0  0  0
   48.8304    9.7714   18.9778 C   0  0  0  0  0  0  0  0  0  0  0  0
   49.4178    8.5491   19.4067 C   0  0  0  0  0  0  0  0  0  0  0  0
   48.7286    7.6824   20.3882 C   0  0  0  0  0  0  0  0  0  0  0  0
   47.9650    6.5784   19.9728 C   0  0  0  0  0  0  0  0  0  0  0  0
   47.3286    5.7599   20.9101 C   0  0  0  0  0  0  0  0  0  0  0  0
   47.4472    6.0440   22.2654 C   0  0  0  0  0  0  0  0  0  0  0  0
   46.8251    5.2704   23.1661 F   0  0  0  0  0  0  0  0  0  0  0  0
   48.1902    7.1333   22.7002 C   0  0  0  0  0  0  0  0  0  0  0  0
   48.8295    7.9511   21.7652 C   0  0  0  0  0  0  0  0  0  0  0  0
   52.7075    8.7123   17.4225 C   0  0  0  0  0  0  0  0  0  0  0  0
   53.7416    9.8002   17.2375 C   0  0  0  0  0  0  0  0  0  0  0  0
   53.9368    8.7648   18.3052 C   0  0  0  0  0  0  0  0  0  0  0  0
   54.7501    2.5668   17.2011 C   0  0  0  0  0  0  0  0  0  0  0  0
   55.7136    1.5267   17.7722 C   0  0  0  0  0  0  0  0  0  0  0  0
   55.1729    0.6726   18.5371 O   0  0  0  0  0  0  0  0  0  0  0  0
   56.9148    1.6448   17.4028 O   0  0  0  0  0  0  0  0  0  0  0  0
   51.0213    6.8562   18.8685 Ca  0  0  0  0  0 15  0  0  0  0  0  0
   53.3729    2.5339   19.2729 O   0  0  0  0  0  0  0  0  0  0  0  0
   54.4522    3.4283   18.9795 C   0  0  2  0  0  0  0  0  0  0  0  0
   53.9370    4.8674   19.1487 C   0  0  0  0  0  0  0  0  0  0  0  0
   52.8279    5.2733   18.1626 C   0  0  2  0  0  0  0  0  0  0  0  0
   53.3748    5.8574   16.9806 O   0  0  0  0  0  0  0  0  0  0  0  0
   51.9686    6.3552   18.7543 C   0  0  0  0  0  0  0  0  0  0  0  0
   50.6310    6.2840   18.8412 C   0  0  0  0  0  0  0  0  0  0  0  0
   49.8102    7.3429   19.4607 C   0  0  0  0  0  0  0  0  0  0  0  0
   49.1360    7.0542   20.6632 C   0  0  0  0  0  0  0  0  0  0  0  0
   48.3804    7.9897   21.2936 N   0  0  0  0  0  0  0  0  0  0  0  0
   48.2421    9.2077   20.7621 C   0  0  0  0  0  0  0  0  0  0  0  0
   47.4533   10.1199   21.4494 C   0  0  0  0  0  0  0  0  0  0  0  0
   47.2549   11.4232   20.9924 C   0  0  0  0  0  0  0  0  0  0  0  0
   47.8388   11.8217   19.8003 C   0  0  0  0  0  0  0  0  0  0  0  0
   48.6289   10.9174   19.0891 C   0  0  0  0  0  0  0  0  0  0  0  0
   48.8568    9.5976   19.5597 C   0  0  0  0  0  0  0  0  0  0  0  0
   49.6691    8.6341   18.8957 C   0  0  0  0  0  0  0  0  0  0  0  0
   50.3506    8.9858   17.6355 C   0  0  0  0  0  0  0  0  0  0  0  0
   51.5421    9.7369   17.6396 C   0  0  0  0  0  0  0  0  0  0  0  0
   52.1622   10.0980   16.4433 C   0  0  0  0  0  0  0  0  0  0  0  0
   51.5847    9.7101   15.2388 C   0  0  0  0  0  0  0  0  0  0  0  0
   52.1681   10.0645   14.0852 F   0  0  0  0  0  0  0  0  0  0  0  0
   50.4074    8.9707   15.2029 C   0  0  0  0  0  0  0  0  0  0  0  0
   49.7956    8.6021   16.4024 C   0  0  0  0  0  0  0  0  0  0  0  0
   49.2213    5.6946   21.3353 C   0  0  0  0  0  0  0  0  0  0  0  0
   48.3846    4.5371   20.8274 C   0  0  0  0  0  0  0  0  0  0  0  0
   48.0684    5.1527   22.1520 C   0  0  0  0  0  0  0  0  0  0  0  0
   55.0209    3.1493   17.5953 C   0  0  0  0  0  0  0  0  0  0  0  0
   55.7715    1.8207   17.6202 C   0  0  0  0  0  0  0  0  0  0  0  0
   56.8476    1.8029   16.9709 O   0  0  0  0  0  0  0  0  0  0  0  0
   55.2089    0.9009   18.2849 O   0  0  0  0  0  0  0  0  0  0  0  0
   53.4372    1.0870   18.6557 H   0  0  0  0  0  0  0  0  0  0  0  0
   54.2173    3.1712   19.2187 H   0  0  0  0  0  0  0  0  0  0  0  0
   53.5906    5.0265   17.7396 H   0  0  0  0  0  0  0  0  0  0  0  0
   52.4870    3.9697   16.8328 H   0  0  0  0  0  0  0  0  0  0  0  0
   52.1428    4.4613   19.8340 H   0  0  0  0  0  0  0  0  0  0  0  0
   51.2211    2.6455   18.6985 H   0  0  0  0  0  0  0  0  0  0  0  0
   50.6033    5.8642   17.5443 H   0  0  0  0  0  0  0  0  0  0  0  0
   51.8511    6.8622   20.1967 H   0  0  0  0  0  0  0  0  0  0  0  0
   49.5995   12.3486   16.9032 H   0  0  0  0  0  0  0  0  0  0  0  0
   47.3520   13.1193   17.6025 H   0  0  0  0  0  0  0  0  0  0  0  0
   46.0270   11.7661   19.2179 H   0  0  0  0  0  0  0  0  0  0  0  0
   46.9476    9.6623   20.0874 H   0  0  0  0  0  0  0  0  0  0  0  0
   47.8901    6.3299   18.9150 H   0  0  0  0  0  0  0  0  0  0  0  0
   46.7517    4.8981   20.5891 H   0  0  0  0  0  0  0  0  0  0  0  0
   48.2745    7.3384   23.7630 H   0  0  0  0  0  0  0  0  0  0  0  0
   49.4121    8.8037   22.1102 H   0  0  0  0  0  0  0  0  0  0  0  0
   52.6977    7.9400   16.6554 H   0  0  0  0  0  0  0  0  0  0  0  0
   54.3817    9.7536   16.3631 H   0  0  0  0  0  0  0  0  0  0  0  0
   53.4863   10.8106   17.5418 H   0  0  0  0  0  0  0  0  0  0  0  0
   54.7039    8.0133   18.1504 H   0  0  0  0  0  0  0  0  0  0  0  0
   53.8204    9.0695   19.3410 H   0  0  0  0  0  0  0  0  0  0  0  0
   54.2639    2.1335   16.3183 H   0  0  0  0  0  0  0  0  0  0  0  0
   55.3241    3.4489   16.8955 H   0  0  0  0  0  0  0  0  0  0  0  0
   53.7601    1.6393   19.0671 H   0  0  0  0  0  0  0  0  0  0  0  0
   55.2192    3.2483   19.7459 H   0  0  0  0  0  0  0  0  0  0  0  0
   53.5493    4.9420   20.1725 H   0  0  0  0  0  0  0  0  0  0  0  0
   54.7846    5.5618   19.0664 H   0  0  0  0  0  0  0  0  0  0  0  0
   52.2138    4.4139   17.8678 H   0  0  0  0  0  0  0  0  0  0  0  0
   54.1652    5.3429   16.7299 H   0  0  0  0  0  0  0  0  0  0  0  0
   52.4912    7.2371   19.1140 H   0  0  0  0  0  0  0  0  0  0  0  0
   50.0968    5.4055   18.4854 H   0  0  0  0  0  0  0  0  0  0  0  0
   46.9776    9.8077   22.3759 H   0  0  0  0  0  0  0  0  0  0  0  0
   46.6394   12.1160   21.5608 H   0  0  0  0  0  0  0  0  0  0  0  0
   47.6953   12.8297   19.4228 H   0  0  0  0  0  0  0  0  0  0  0  0
   49.0748   11.2546   18.1565 H   0  0  0  0  0  0  0  0  0  0  0  0
   51.9903   10.0427   18.5813 H   0  0  0  0  0  0  0  0  0  0  0  0
   53.0816   10.6771   16.4417 H   0  0  0  0  0  0  0  0  0  0  0  0
   49.9778    8.6829   14.2447 H   0  0  0  0  0  0  0  0  0  0  0  0
   48.8804    8.0140   16.3769 H   0  0  0  0  0  0  0  0  0  0  0  0
   50.2082    5.4529   21.7206 H   0  0  0  0  0  0  0  0  0  0  0  0
   48.8579    3.5578   20.8030 H   0  0  0  0  0  0  0  0  0  0  0  0
   47.6997    4.7244   20.0093 H   0  0  0  0  0  0  0  0  0  0  0  0
   47.1673    5.7484   22.2327 H   0  0  0  0  0  0  0  0  0  0  0  0
   48.3179    4.6000   23.0494 H   0  0  0  0  0  0  0  0  0  0  0  0
   55.7106    3.9425   17.2848 H   0  0  0  0  0  0  0  0  0  0  0  0
   54.2244    3.0589   16.8470 H   0  0  0  0  0  0  0  0  0  0  0  0
  2  1  1  0
  2  3  1  0
  3  4  1  0
  4  5  1  0
  4  6  1  0
  6  7  2  0
  7  8  1  0
  8  9  2  0
  9 10  1  0
 10 11  2  0
 11 12  1  0
 12 13  2  0
 13 14  1  0
 14 15  2  0
 15 16  1  0
 11 16  1  0
 16 17  2  0
  8 17  1  0
 17 18  1  0
 18 19  2  0
 19 20  1  0
 20 21  2  0
 21 22  1  0
 21 23  1  0
 23 24  2  0
 18 24  1  0
  9 25  1  0
 25 26  1  0
 26 27  1  0
 25 27  1  0
  2 28  1  0
 28 29  1  0
 29 30  2  0
 29 31  1  0
 34 33  1  0
 34 35  1  0
 35 36  1  0
 36 37  1  0
 36 38  1  0
 38 39  2  0
 39 40  1  0
 40 41  2  0
 41 42  1  0
 42 43  2  0
 43 44  1  0
 44 45  2  0
 45 46  1  0
 46 47  2  0
 47 48  1  0
 43 48  1  0
 48 49  2  0
 40 49  1  0
 49 50  1  0
 50 51  2  0
 51 52  1  0
 52 53  2  0
 53 54  1  0
 53 55  1  0
 55 56  2  0
 50 56  1  0
 41 57  1  0
 57 58  1  0
 58 59  1  0
 57 59  1  0
 34 60  1  0
 60 61  1  0
 61 62  2  0
 61 63  1  0
  1 64  1  0
  2 65  1  6
  3 66  1  0
  3 67  1  0
  4 68  1  6
  5 69  1  0
  6 70  1  0
  7 71  1  0
 12 72  1  0
 13 73  1  0
 14 74  1  0
 15 75  1  0
 19 76  1  0
 20 77  1  0
 23 78  1  0
 24 79  1  0
 25 80  1  0
 26 81  1  0
 26 82  1  0
 27 83  1  0
 27 84  1  0
 28 85  1  0
 28 86  1  0
 33 87  1  0
 34 88  1  6
 35 89  1  0
 35 90  1  0
 36 91  1  1
 37 92  1  0
 38 93  1  0
 39 94  1  0
 44 95  1  0
 45 96  1  0
 46 97  1  0
 47 98  1  0
 51 99  1  0
 52100  1  0
 55101  1  0
 56102  1  0
 57103  1  0
 58104  1  0
 58105  1  0
 59106  1  0
 59107  1  0
 60108  1  0
 60109  1  0
M  CHG  3  31  -1  32   2  63  -1
M  END
> <Uni-Dock RESULT> 
ENERGY=   -5.560  LOWER_BOUND=    3.808  UPPER_BOUND=    7.940
INTER + INTRA:          -5.560
INTER:                  -5.560
INTRA:                   0.000
UNBOUND:                 0.000

$$$$
