
     RDKit          3D

109114  0  0  0  0  0  0  0  0999 V2000
   52.2306   10.8508   14.7239 O   0  0  0  0  0  0  0  0  0  0  0  0
   50.8476   10.4556   14.7096 C   0  0  2  0  0  0  0  0  0  0  0  0
   50.5742    9.6110   15.9625 C   0  0  0  0  0  0  0  0  0  0  0  0
   49.1945    8.9496   16.0112 C   0  0  2  0  0  0  0  0  0  0  0  0
   48.1798    9.9443   15.9129 O   0  0  0  0  0  0  0  0  0  0  0  0
   49.0239    8.1702   17.2910 C   0  0  0  0  0  0  0  0  0  0  0  0
   48.0596    8.3302   18.2141 C   0  0  0  0  0  0  0  0  0  0  0  0
   48.0424    7.5262   19.4503 C   0  0  0  0  0  0  0  0  0  0  0  0
   47.5927    6.1929   19.4330 C   0  0  0  0  0  0  0  0  0  0  0  0
   47.5774    5.4440   20.5680 N   0  0  0  0  0  0  0  0  0  0  0  0
   48.0164    5.9648   21.7201 C   0  0  0  0  0  0  0  0  0  0  0  0
   48.0018    5.1484   22.8438 C   0  0  0  0  0  0  0  0  0  0  0  0
   48.4416    5.5912   24.0910 C   0  0  0  0  0  0  0  0  0  0  0  0
   48.9071    6.8899   24.2250 C   0  0  0  0  0  0  0  0  0  0  0  0
   48.9282    7.7330   23.1140 C   0  0  0  0  0  0  0  0  0  0  0  0
   48.4813    7.2888   21.8419 C   0  0  0  0  0  0  0  0  0  0  0  0
   48.4776    8.0946   20.6718 C   0  0  0  0  0  0  0  0  0  0  0  0
   48.9055    9.5104   20.7258 C   0  0  0  0  0  0  0  0  0  0  0  0
   50.1999    9.8956   20.3318 C   0  0  0  0  0  0  0  0  0  0  0  0
   50.5939   11.2361   20.3882 C   0  0  0  0  0  0  0  0  0  0  0  0
   49.6958   12.1939   20.8435 C   0  0  0  0  0  0  0  0  0  0  0  0
   50.0793   13.4758   20.9166 F   0  0  0  0  0  0  0  0  0  0  0  0
   48.4103   11.8402   21.2337 C   0  0  0  0  0  0  0  0  0  0  0  0
   48.0150   10.5025   21.1702 C   0  0  0  0  0  0  0  0  0  0  0  0
   47.0657    5.5358   18.1646 C   0  0  0  0  0  0  0  0  0  0  0  0
   48.0333    4.8490   17.2255 C   0  0  0  0  0  0  0  0  0  0  0  0
   47.0644    4.0281   18.0181 C   0  0  0  0  0  0  0  0  0  0  0  0
   50.5235    9.8001   13.3714 C   0  0  0  0  0  0  0  0  0  0  0  0
   51.1765    8.4289   13.2390 C   0  0  0  0  0  0  0  0  0  0  0  0
   52.3862    8.3776   13.6099 O   0  0  0  0  0  0  0  0  0  0  0  0
   50.4165    7.5176   12.8016 O   0  0  0  0  0  0  0  0  0  0  0  0
   49.0913    8.2551   18.5852 Ca  0  0  0  0  0 15  0  0  0  0  0  0
   51.5940   10.5037   14.5531 O   0  0  0  0  0  0  0  0  0  0  0  0
   51.7808    9.0816   14.5786 C   0  0  2  0  0  0  0  0  0  0  0  0
   51.5134    8.5648   16.0017 C   0  0  0  0  0  0  0  0  0  0  0  0
   50.2191    9.1356   16.5962 C   0  0  2  0  0  0  0  0  0  0  0  0
   50.4181   10.5018   16.9519 O   0  0  0  0  0  0  0  0  0  0  0  0
   49.8346    8.4251   17.8616 C   0  0  0  0  0  0  0  0  0  0  0  0
   48.5633    8.1500   18.1982 C   0  0  0  0  0  0  0  0  0  0  0  0
   48.2252    7.4764   19.4621 C   0  0  0  0  0  0  0  0  0  0  0  0
   48.3308    6.0784   19.5628 C   0  0  0  0  0  0  0  0  0  0  0  0
   48.0680    5.4350   20.7322 N   0  0  0  0  0  0  0  0  0  0  0  0
   47.7037    6.1341   21.8148 C   0  0  0  0  0  0  0  0  0  0  0  0
   47.4648    5.4356   22.9924 C   0  0  0  0  0  0  0  0  0  0  0  0
   47.0855    6.0740   24.1737 C   0  0  0  0  0  0  0  0  0  0  0  0
   46.9388    7.4506   24.1882 C   0  0  0  0  0  0  0  0  0  0  0  0
   47.1700    8.1734   23.0199 C   0  0  0  0  0  0  0  0  0  0  0  0
   47.5528    7.5336   21.8115 C   0  0  0  0  0  0  0  0  0  0  0  0
   47.8046    8.2193   20.5911 C   0  0  0  0  0  0  0  0  0  0  0  0
   47.6125    9.6843   20.4928 C   0  0  0  0  0  0  0  0  0  0  0  0
   48.7049   10.5686   20.5547 C   0  0  0  0  0  0  0  0  0  0  0  0
   48.5080   11.9483   20.4523 C   0  0  0  0  0  0  0  0  0  0  0  0
   47.2209   12.4477   20.2911 C   0  0  0  0  0  0  0  0  0  0  0  0
   47.0296   13.7710   20.2012 F   0  0  0  0  0  0  0  0  0  0  0  0
   46.1236   11.5951   20.2277 C   0  0  0  0  0  0  0  0  0  0  0  0
   46.3190   10.2159   20.3255 C   0  0  0  0  0  0  0  0  0  0  0  0
   48.7370    5.2116   18.3800 C   0  0  0  0  0  0  0  0  0  0  0  0
   47.7885    5.0094   17.2206 C   0  0  0  0  0  0  0  0  0  0  0  0
   48.0619    3.8758   18.1600 C   0  0  0  0  0  0  0  0  0  0  0  0
   53.1974    8.7385   14.1276 C   0  0  0  0  0  0  0  0  0  0  0  0
   53.3110    8.9922   12.6276 C   0  0  0  0  0  0  0  0  0  0  0  0
   52.7491   10.0543   12.2267 O   0  0  0  0  0  0  0  0  0  0  0  0
   53.9514    8.1229   11.9807 O   0  0  0  0  0  0  0  0  0  0  0  0
   52.7091   10.0407   14.4092 H   0  0  0  0  0  0  0  0  0  0  0  0
   50.2703   11.3864   14.7810 H   0  0  0  0  0  0  0  0  0  0  0  0
   50.7004   10.2697   16.8336 H   0  0  0  0  0  0  0  0  0  0  0  0
   51.3555    8.8482   16.0714 H   0  0  0  0  0  0  0  0  0  0  0  0
   49.0792    8.2512   15.1741 H   0  0  0  0  0  0  0  0  0  0  0  0
   47.5390    9.5995   15.2601 H   0  0  0  0  0  0  0  0  0  0  0  0
   49.7901    7.4105   17.4529 H   0  0  0  0  0  0  0  0  0  0  0  0
   47.2887    9.0904   18.1147 H   0  0  0  0  0  0  0  0  0  0  0  0
   47.6421    4.1283   22.7371 H   0  0  0  0  0  0  0  0  0  0  0  0
   48.4193    4.9206   24.9467 H   0  0  0  0  0  0  0  0  0  0  0  0
   49.2632    7.2480   25.1862 H   0  0  0  0  0  0  0  0  0  0  0  0
   49.3091    8.7443   23.2456 H   0  0  0  0  0  0  0  0  0  0  0  0
   50.9030    9.1516   19.9601 H   0  0  0  0  0  0  0  0  0  0  0  0
   51.5888   11.5311   20.0752 H   0  0  0  0  0  0  0  0  0  0  0  0
   47.7253   12.6097   21.5809 H   0  0  0  0  0  0  0  0  0  0  0  0
   47.0037   10.2322   21.4681 H   0  0  0  0  0  0  0  0  0  0  0  0
   46.2163    6.0455   17.7066 H   0  0  0  0  0  0  0  0  0  0  0  0
   47.8614    4.9584   16.1607 H   0  0  0  0  0  0  0  0  0  0  0  0
   49.0808    4.8050   17.5042 H   0  0  0  0  0  0  0  0  0  0  0  0
   47.4683    3.4248   18.8265 H   0  0  0  0  0  0  0  0  0  0  0  0
   46.2334    3.5742   17.4921 H   0  0  0  0  0  0  0  0  0  0  0  0
   50.9004   10.4156   12.5472 H   0  0  0  0  0  0  0  0  0  0  0  0
   49.4398    9.7143   13.2449 H   0  0  0  0  0  0  0  0  0  0  0  0
   51.8909   10.7466   13.6331 H   0  0  0  0  0  0  0  0  0  0  0  0
   51.0377    8.6465   13.9007 H   0  0  0  0  0  0  0  0  0  0  0  0
   51.4824    7.4681   15.9764 H   0  0  0  0  0  0  0  0  0  0  0  0
   52.3531    8.8555   16.6500 H   0  0  0  0  0  0  0  0  0  0  0  0
   49.4009    9.0838   15.8651 H   0  0  0  0  0  0  0  0  0  0  0  0
   50.7940   10.9116   16.1396 H   0  0  0  0  0  0  0  0  0  0  0  0
   50.6477    8.1569   18.5337 H   0  0  0  0  0  0  0  0  0  0  0  0
   47.7332    8.4733   17.5739 H   0  0  0  0  0  0  0  0  0  0  0  0
   47.5816    4.3547   22.9893 H   0  0  0  0  0  0  0  0  0  0  0  0
   46.9172    5.4912   25.0761 H   0  0  0  0  0  0  0  0  0  0  0  0
   46.6549    7.9662   25.1001 H   0  0  0  0  0  0  0  0  0  0  0  0
   47.0570    9.2543   23.0574 H   0  0  0  0  0  0  0  0  0  0  0  0
   49.7162   10.1801   20.6628 H   0  0  0  0  0  0  0  0  0  0  0  0
   49.3519   12.6289   20.4820 H   0  0  0  0  0  0  0  0  0  0  0  0
   45.1285   12.0061   20.0962 H   0  0  0  0  0  0  0  0  0  0  0  0
   45.4622    9.5476   20.2585 H   0  0  0  0  0  0  0  0  0  0  0  0
   49.7960    5.2461   18.1398 H   0  0  0  0  0  0  0  0  0  0  0  0
   48.2161    4.9675   16.2235 H   0  0  0  0  0  0  0  0  0  0  0  0
   46.8111    5.4765   17.2626 H   0  0  0  0  0  0  0  0  0  0  0  0
   47.2713    3.5734   18.8425 H   0  0  0  0  0  0  0  0  0  0  0  0
   48.6778    3.0565   17.8057 H   0  0  0  0  0  0  0  0  0  0  0  0
   53.4382    7.6936   14.3469 H   0  0  0  0  0  0  0  0  0  0  0  0
   53.9273    9.3840   14.6291 H   0  0  0  0  0  0  0  0  0  0  0  0
  2  1  1  0
  2  3  1  0
  3  4  1  0
  4  5  1  0
  4  6  1  0
  6  7  2  0
  7  8  1  0
  8  9  2  0
  9 10  1  0
 10 11  2  0
 11 12  1  0
 12 13  2  0
 13 14  1  0
 14 15  2  0
 15 16  1  0
 11 16  1  0
 16 17  2  0
  8 17  1  0
 17 18  1  0
 18 19  2  0
 19 20  1  0
 20 21  2  0
 21 22  1  0
 21 23  1  0
 23 24  2  0
 18 24  1  0
  9 25  1  0
 25 26  1  0
 26 27  1  0
 25 27  1  0
  2 28  1  0
 28 29  1  0
 29 30  2  0
 29 31  1  0
 34 33  1  0
 34 35  1  0
 35 36  1  0
 36 37  1  0
 36 38  1  0
 38 39  2  0
 39 40  1  0
 40 41  2  0
 41 42  1  0
 42 43  2  0
 43 44  1  0
 44 45  2  0
 45 46  1  0
 46 47  2  0
 47 48  1  0
 43 48  1  0
 48 49  2  0
 40 49  1  0
 49 50  1  0
 50 51  2  0
 51 52  1  0
 52 53  2  0
 53 54  1  0
 53 55  1  0
 55 56  2  0
 50 56  1  0
 41 57  1  0
 57 58  1  0
 58 59  1  0
 57 59  1  0
 34 60  1  0
 60 61  1  0
 61 62  2  0
 61 63  1  0
  1 64  1  0
  2 65  1  6
  3 66  1  0
  3 67  1  0
  4 68  1  6
  5 69  1  0
  6 70  1  0
  7 71  1  0
 12 72  1  0
 13 73  1  0
 14 74  1  0
 15 75  1  0
 19 76  1  0
 20 77  1  0
 23 78  1  0
 24 79  1  0
 25 80  1  0
 26 81  1  0
 26 82  1  0
 27 83  1  0
 27 84  1  0
 28 85  1  0
 28 86  1  0
 33 87  1  0
 34 88  1  6
 35 89  1  0
 35 90  1  0
 36 91  1  6
 37 92  1  0
 38 93  1  0
 39 94  1  0
 44 95  1  0
 45 96  1  0
 46 97  1  0
 47 98  1  0
 51 99  1  0
 52100  1  0
 55101  1  0
 56102  1  0
 57103  1  0
 58104  1  0
 58105  1  0
 59106  1  0
 59107  1  0
 60108  1  0
 60109  1  0
M  CHG  3  31  -1  32   2  63  -1
M  END
> <Uni-Dock RESULT> 
ENERGY=   -6.395  LOWER_BOUND=    0.000  UPPER_BOUND=    0.000
INTER + INTRA:          -6.395
INTER:                  -6.395
INTRA:                   0.000
UNBOUND:                 0.000

$$$$

     RDKit          3D

109114  0  0  0  0  0  0  0  0999 V2000
   54.8018   10.5208   11.9098 O   0  0  0  0  0  0  0  0  0  0  0  0
   53.4995   10.9933   12.2969 C   0  0  2  0  0  0  0  0  0  0  0  0
   52.6828    9.7957   12.8035 C   0  0  0  0  0  0  0  0  0  0  0  0
   51.2060   10.0880   13.0813 C   0  0  2  0  0  0  0  0  0  0  0  0
   51.0944   11.1401   14.0348 O   0  0  0  0  0  0  0  0  0  0  0  0
   50.5083    8.8545   13.5973 C   0  0  0  0  0  0  0  0  0  0  0  0
   49.8418    8.7270   14.7579 C   0  0  0  0  0  0  0  0  0  0  0  0
   49.2458    7.4396   15.1609 C   0  0  0  0  0  0  0  0  0  0  0  0
   48.0354    7.0002   14.5934 C   0  0  0  0  0  0  0  0  0  0  0  0
   47.4816    5.8126   14.9572 N   0  0  0  0  0  0  0  0  0  0  0  0
   48.1002    5.0305   15.8499 C   0  0  0  0  0  0  0  0  0  0  0  0
   47.5034    3.8170   16.1671 C   0  0  0  0  0  0  0  0  0  0  0  0
   48.0672    2.9269   17.0807 C   0  0  0  0  0  0  0  0  0  0  0  0
   49.2616    3.2570   17.7018 C   0  0  0  0  0  0  0  0  0  0  0  0
   49.8801    4.4716   17.4057 C   0  0  0  0  0  0  0  0  0  0  0  0
   49.3112    5.3825   16.4772 C   0  0  0  0  0  0  0  0  0  0  0  0
   49.8894    6.6330   16.1302 C   0  0  0  0  0  0  0  0  0  0  0  0
   51.1357    7.0975   16.7796 C   0  0  0  0  0  0  0  0  0  0  0  0
   52.3834    6.9574   16.1451 C   0  0  0  0  0  0  0  0  0  0  0  0
   53.5547    7.3987   16.7686 C   0  0  0  0  0  0  0  0  0  0  0  0
   53.4813    7.9766   18.0303 C   0  0  0  0  0  0  0  0  0  0  0  0
   54.6056    8.3815   18.6368 F   0  0  0  0  0  0  0  0  0  0  0  0
   52.2611    8.1309   18.6761 C   0  0  0  0  0  0  0  0  0  0  0  0
   51.0909    7.6967   18.0499 C   0  0  0  0  0  0  0  0  0  0  0  0
   47.2666    7.8402   13.5826 C   0  0  0  0  0  0  0  0  0  0  0  0
   47.5921    7.7144   12.1102 C   0  0  0  0  0  0  0  0  0  0  0  0
   46.2869    7.1932   12.6255 C   0  0  0  0  0  0  0  0  0  0  0  0
   52.8883   11.7878   11.1477 C   0  0  0  0  0  0  0  0  0  0  0  0
   52.4912   10.8868    9.9838 C   0  0  0  0  0  0  0  0  0  0  0  0
   53.3543   10.0160    9.6666 O   0  0  0  0  0  0  0  0  0  0  0  0
   51.3417   11.1100    9.5061 O   0  0  0  0  0  0  0  0  0  0  0  0
   50.5547    7.9291   14.5074 Ca  0  0  0  0  0 15  0  0  0  0  0  0
   54.1020   10.7745   11.8809 O   0  0  0  0  0  0  0  0  0  0  0  0
   53.3123    9.9561   11.0064 C   0  0  2  0  0  0  0  0  0  0  0  0
   52.7064    8.7966   11.8139 C   0  0  0  0  0  0  0  0  0  0  0  0
   52.0744    9.2693   13.1297 C   0  0  2  0  0  0  0  0  0  0  0  0
   53.1013    9.6000   14.0617 O   0  0  0  0  0  0  0  0  0  0  0  0
   51.2609    8.1827   13.7710 C   0  0  0  0  0  0  0  0  0  0  0  0
   50.1051    8.4082   14.4181 C   0  0  0  0  0  0  0  0  0  0  0  0
   49.3508    7.3190   15.0586 C   0  0  0  0  0  0  0  0  0  0  0  0
   48.5120    6.4971   14.2861 C   0  0  0  0  0  0  0  0  0  0  0  0
   47.8387    5.4554   14.8447 N   0  0  0  0  0  0  0  0  0  0  0  0
   47.9703    5.1958   16.1519 C   0  0  0  0  0  0  0  0  0  0  0  0
   47.2787    4.1092   16.6741 C   0  0  0  0  0  0  0  0  0  0  0  0
   47.3547    3.7552   18.0216 C   0  0  0  0  0  0  0  0  0  0  0  0
   48.1431    4.5027   18.8797 C   0  0  0  0  0  0  0  0  0  0  0  0
   48.8444    5.5983   18.3812 C   0  0  0  0  0  0  0  0  0  0  0  0
   48.7714    5.9696   17.0127 C   0  0  0  0  0  0  0  0  0  0  0  0
   49.4664    7.0746   16.4480 C   0  0  0  0  0  0  0  0  0  0  0  0
   50.2836    7.9695   17.2989 C   0  0  0  0  0  0  0  0  0  0  0  0
   51.6838    7.8457   17.3531 C   0  0  0  0  0  0  0  0  0  0  0  0
   52.4418    8.7032   18.1550 C   0  0  0  0  0  0  0  0  0  0  0  0
   51.8035    9.6832   18.9062 C   0  0  0  0  0  0  0  0  0  0  0  0
   52.5282   10.5008   19.6821 F   0  0  0  0  0  0  0  0  0  0  0  0
   50.4203    9.8263   18.8711 C   0  0  0  0  0  0  0  0  0  0  0  0
   49.6618    8.9731   18.0670 C   0  0  0  0  0  0  0  0  0  0  0  0
   48.3070    6.7253   12.7958 C   0  0  0  0  0  0  0  0  0  0  0  0
   47.5122    7.9149   12.3080 C   0  0  0  0  0  0  0  0  0  0  0  0
   46.9341    6.5387   12.1885 C   0  0  0  0  0  0  0  0  0  0  0  0
   54.1789    9.4352    9.8639 C   0  0  0  0  0  0  0  0  0  0  0  0
   54.5001   10.5923    8.9231 C   0  0  0  0  0  0  0  0  0  0  0  0
   54.7886   11.6810    9.5028 O   0  0  0  0  0  0  0  0  0  0  0  0
   54.4456   10.3201    7.6954 O   0  0  0  0  0  0  0  0  0  0  0  0
   54.6483   10.1152   11.0174 H   0  0  0  0  0  0  0  0  0  0  0  0
   53.6686   11.6822   13.1345 H   0  0  0  0  0  0  0  0  0  0  0  0
   53.1683    9.4349   13.7215 H   0  0  0  0  0  0  0  0  0  0  0  0
   52.7692    8.9631   12.0939 H   0  0  0  0  0  0  0  0  0  0  0  0
   50.7012   10.3991   12.1593 H   0  0  0  0  0  0  0  0  0  0  0  0
   50.4153   11.7454   13.6769 H   0  0  0  0  0  0  0  0  0  0  0  0
   50.5829    7.9923   12.9328 H   0  0  0  0  0  0  0  0  0  0  0  0
   49.7610    9.5465   15.4678 H   0  0  0  0  0  0  0  0  0  0  0  0
   46.5698    3.5559   15.6755 H   0  0  0  0  0  0  0  0  0  0  0  0
   47.5723    1.9837   17.2995 H   0  0  0  0  0  0  0  0  0  0  0  0
   49.7201    2.5712   18.4078 H   0  0  0  0  0  0  0  0  0  0  0  0
   50.8228    4.7002   17.8997 H   0  0  0  0  0  0  0  0  0  0  0  0
   52.4454    6.5190   15.1502 H   0  0  0  0  0  0  0  0  0  0  0  0
   54.5136    7.2979   16.2734 H   0  0  0  0  0  0  0  0  0  0  0  0
   52.2306    8.5911   19.6606 H   0  0  0  0  0  0  0  0  0  0  0  0
   50.1366    7.8286   18.5562 H   0  0  0  0  0  0  0  0  0  0  0  0
   46.9795    8.8312   13.9383 H   0  0  0  0  0  0  0  0  0  0  0  0
   47.5831    8.6209   11.5157 H   0  0  0  0  0  0  0  0  0  0  0  0
   48.3416    6.9913   11.8064 H   0  0  0  0  0  0  0  0  0  0  0  0
   46.1600    6.1145   12.6584 H   0  0  0  0  0  0  0  0  0  0  0  0
   45.3868    7.7430   12.3785 H   0  0  0  0  0  0  0  0  0  0  0  0
   53.6135   12.5115   10.7599 H   0  0  0  0  0  0  0  0  0  0  0  0
   52.0195   12.3532   11.4988 H   0  0  0  0  0  0  0  0  0  0  0  0
   54.5277   11.4195   11.2513 H   0  0  0  0  0  0  0  0  0  0  0  0
   52.4979   10.5833   10.6259 H   0  0  0  0  0  0  0  0  0  0  0  0
   51.9673    8.2815   11.1872 H   0  0  0  0  0  0  0  0  0  0  0  0
   53.5007    8.0726   12.0486 H   0  0  0  0  0  0  0  0  0  0  0  0
   51.4564   10.1622   12.9641 H   0  0  0  0  0  0  0  0  0  0  0  0
   53.6908   10.2129   13.5658 H   0  0  0  0  0  0  0  0  0  0  0  0
   51.6685    7.1750   13.7165 H   0  0  0  0  0  0  0  0  0  0  0  0
   49.7185    9.4171   14.5446 H   0  0  0  0  0  0  0  0  0  0  0  0
   46.6604    3.5156   16.0052 H   0  0  0  0  0  0  0  0  0  0  0  0
   46.8047    2.8917   18.3880 H   0  0  0  0  0  0  0  0  0  0  0  0
   48.2234    4.2364   19.9288 H   0  0  0  0  0  0  0  0  0  0  0  0
   49.4639    6.1653   19.0720 H   0  0  0  0  0  0  0  0  0  0  0  0
   52.1887    7.0910   16.7524 H   0  0  0  0  0  0  0  0  0  0  0  0
   53.5227    8.6194   18.1829 H   0  0  0  0  0  0  0  0  0  0  0  0
   49.9434   10.6014   19.4614 H   0  0  0  0  0  0  0  0  0  0  0  0
   48.5809    9.0961   18.0262 H   0  0  0  0  0  0  0  0  0  0  0  0
   49.1407    6.4111   12.1738 H   0  0  0  0  0  0  0  0  0  0  0  0
   47.8541    8.4109   11.4047 H   0  0  0  0  0  0  0  0  0  0  0  0
   47.0773    8.5841   13.0416 H   0  0  0  0  0  0  0  0  0  0  0  0
   46.1076    6.2712   12.8424 H   0  0  0  0  0  0  0  0  0  0  0  0
   46.8802    6.0916   11.2019 H   0  0  0  0  0  0  0  0  0  0  0  0
   53.6675    8.6395    9.3131 H   0  0  0  0  0  0  0  0  0  0  0  0
   55.1289    9.0471   10.2483 H   0  0  0  0  0  0  0  0  0  0  0  0
  2  1  1  0
  2  3  1  0
  3  4  1  0
  4  5  1  0
  4  6  1  0
  6  7  2  0
  7  8  1  0
  8  9  2  0
  9 10  1  0
 10 11  2  0
 11 12  1  0
 12 13  2  0
 13 14  1  0
 14 15  2  0
 15 16  1  0
 11 16  1  0
 16 17  2  0
  8 17  1  0
 17 18  1  0
 18 19  2  0
 19 20  1  0
 20 21  2  0
 21 22  1  0
 21 23  1  0
 23 24  2  0
 18 24  1  0
  9 25  1  0
 25 26  1  0
 26 27  1  0
 25 27  1  0
  2 28  1  0
 28 29  1  0
 29 30  2  0
 29 31  1  0
 34 33  1  0
 34 35  1  0
 35 36  1  0
 36 37  1  0
 36 38  1  0
 38 39  2  0
 39 40  1  0
 40 41  2  0
 41 42  1  0
 42 43  2  0
 43 44  1  0
 44 45  2  0
 45 46  1  0
 46 47  2  0
 47 48  1  0
 43 48  1  0
 48 49  2  0
 40 49  1  0
 49 50  1  0
 50 51  2  0
 51 52  1  0
 52 53  2  0
 53 54  1  0
 53 55  1  0
 55 56  2  0
 50 56  1  0
 41 57  1  0
 57 58  1  0
 58 59  1  0
 57 59  1  0
 34 60  1  0
 60 61  1  0
 61 62  2  0
 61 63  1  0
  1 64  1  0
  2 65  1  6
  3 66  1  0
  3 67  1  0
  4 68  1  6
  5 69  1  0
  6 70  1  0
  7 71  1  0
 12 72  1  0
 13 73  1  0
 14 74  1  0
 15 75  1  0
 19 76  1  0
 20 77  1  0
 23 78  1  0
 24 79  1  0
 25 80  1  0
 26 81  1  0
 26 82  1  0
 27 83  1  0
 27 84  1  0
 28 85  1  0
 28 86  1  0
 33 87  1  0
 34 88  1  6
 35 89  1  0
 35 90  1  0
 36 91  1  6
 37 92  1  0
 38 93  1  0
 39 94  1  0
 44 95  1  0
 45 96  1  0
 46 97  1  0
 47 98  1  0
 51 99  1  0
 52100  1  0
 55101  1  0
 56102  1  0
 57103  1  0
 58104  1  0
 58105  1  0
 59106  1  0
 59107  1  0
 60108  1  0
 60109  1  0
M  CHG  3  31  -1  32   2  63  -1
M  END
> <Uni-Dock RESULT> 
ENERGY=   -6.175  LOWER_BOUND=    3.261  UPPER_BOUND=    5.238
INTER + INTRA:          -6.175
INTER:                  -6.175
INTRA:                   0.000
UNBOUND:                 0.000

$$$$

     RDKit          3D

109114  0  0  0  0  0  0  0  0999 V2000
   48.1767    8.0259   12.4284 O   0  0  0  0  0  0  0  0  0  0  0  0
   49.3963    8.1914   13.1728 C   0  0  2  0  0  0  0  0  0  0  0  0
   49.0536    8.1780   14.6695 C   0  0  0  0  0  0  0  0  0  0  0  0
   50.2135    8.5307   15.6042 C   0  0  2  0  0  0  0  0  0  0  0  0
   51.2977    7.6331   15.3862 O   0  0  0  0  0  0  0  0  0  0  0  0
   49.7743    8.4613   17.0454 C   0  0  0  0  0  0  0  0  0  0  0  0
   50.3122    7.7078   18.0204 C   0  0  0  0  0  0  0  0  0  0  0  0
   49.7472    7.7015   19.3826 C   0  0  0  0  0  0  0  0  0  0  0  0
   50.0033    8.7625   20.2707 C   0  0  0  0  0  0  0  0  0  0  0  0
   49.4828    8.7656   21.5271 N   0  0  0  0  0  0  0  0  0  0  0  0
   48.6943    7.7612   21.9279 C   0  0  0  0  0  0  0  0  0  0  0  0
   48.1694    7.8266   23.2123 C   0  0  0  0  0  0  0  0  0  0  0  0
   47.3336    6.8352   23.7259 C   0  0  0  0  0  0  0  0  0  0  0  0
   47.0132    5.7415   22.9371 C   0  0  0  0  0  0  0  0  0  0  0  0
   47.5304    5.6478   21.6451 C   0  0  0  0  0  0  0  0  0  0  0  0
   48.3823    6.6530   21.1165 C   0  0  0  0  0  0  0  0  0  0  0  0
   48.9408    6.6193   19.8106 C   0  0  0  0  0  0  0  0  0  0  0  0
   48.7001    5.4671   18.9133 C   0  0  0  0  0  0  0  0  0  0  0  0
   47.7198    5.5210   17.9057 C   0  0  0  0  0  0  0  0  0  0  0  0
   47.5000    4.4259   17.0644 C   0  0  0  0  0  0  0  0  0  0  0  0
   48.2569    3.2725   17.2321 C   0  0  0  0  0  0  0  0  0  0  0  0
   48.0330    2.2156   16.4393 F   0  0  0  0  0  0  0  0  0  0  0  0
   49.2343    3.1956   18.2163 C   0  0  0  0  0  0  0  0  0  0  0  0
   49.4583    4.2921   19.0513 C   0  0  0  0  0  0  0  0  0  0  0  0
   50.9011    9.9325   19.8920 C   0  0  0  0  0  0  0  0  0  0  0  0
   50.3029   11.1324   19.1904 C   0  0  0  0  0  0  0  0  0  0  0  0
   50.7777   11.2639   20.6039 C   0  0  0  0  0  0  0  0  0  0  0  0
   50.1365    9.4230   12.6621 C   0  0  0  0  0  0  0  0  0  0  0  0
   49.4272   10.7140   13.0548 C   0  0  0  0  0  0  0  0  0  0  0  0
   48.1722   10.7041   12.8858 O   0  0  0  0  0  0  0  0  0  0  0  0
   50.1817   11.6147   13.5226 O   0  0  0  0  0  0  0  0  0  0  0  0
   49.2167    7.6957   17.9340 Ca  0  0  0  0  0 15  0  0  0  0  0  0
   48.7824    8.3285   12.7389 O   0  0  0  0  0  0  0  0  0  0  0  0
   48.4304    9.5185   13.4586 C   0  0  2  0  0  0  0  0  0  0  0  0
   48.0552    9.1412   14.9011 C   0  0  0  0  0  0  0  0  0  0  0  0
   49.0722    8.1846   15.5374 C   0  0  2  0  0  0  0  0  0  0  0  0
   48.9164    6.8815   14.9806 O   0  0  0  0  0  0  0  0  0  0  0  0
   48.8422    8.0395   17.0138 C   0  0  0  0  0  0  0  0  0  0  0  0
   49.8372    7.9282   17.9099 C   0  0  0  0  0  0  0  0  0  0  0  0
   49.5697    7.7589   19.3470 C   0  0  0  0  0  0  0  0  0  0  0  0
   49.2653    8.8780   20.1412 C   0  0  0  0  0  0  0  0  0  0  0  0
   48.9699    8.7443   21.4623 N   0  0  0  0  0  0  0  0  0  0  0  0
   48.9630    7.5306   22.0282 C   0  0  0  0  0  0  0  0  0  0  0  0
   48.6358    7.4411   23.3761 C   0  0  0  0  0  0  0  0  0  0  0  0
   48.5967    6.2223   24.0541 C   0  0  0  0  0  0  0  0  0  0  0  0
   48.8910    5.0533   23.3732 C   0  0  0  0  0  0  0  0  0  0  0  0
   49.2244    5.1166   22.0221 C   0  0  0  0  0  0  0  0  0  0  0  0
   49.2708    6.3517   21.3233 C   0  0  0  0  0  0  0  0  0  0  0  0
   49.6013    6.4766   19.9456 C   0  0  0  0  0  0  0  0  0  0  0  0
   49.9918    5.2900   19.1505 C   0  0  0  0  0  0  0  0  0  0  0  0
   49.0777    4.6568   18.2889 C   0  0  0  0  0  0  0  0  0  0  0  0
   49.4639    3.5425   17.5390 C   0  0  0  0  0  0  0  0  0  0  0  0
   50.7615    3.0568   17.6502 C   0  0  0  0  0  0  0  0  0  0  0  0
   51.1309    1.9833   16.9383 F   0  0  0  0  0  0  0  0  0  0  0  0
   51.6845    3.6640   18.4954 C   0  0  0  0  0  0  0  0  0  0  0  0
   51.3016    4.7801   19.2421 C   0  0  0  0  0  0  0  0  0  0  0  0
   49.2530   10.2906   19.5758 C   0  0  0  0  0  0  0  0  0  0  0  0
   50.5476   10.9717   19.1951 C   0  0  0  0  0  0  0  0  0  0  0  0
   49.7938   11.4361   20.4027 C   0  0  0  0  0  0  0  0  0  0  0  0
   47.2731   10.2231   12.7572 C   0  0  0  0  0  0  0  0  0  0  0  0
   47.7870   10.8417   11.4608 C   0  0  0  0  0  0  0  0  0  0  0  0
   48.5847   10.1084   10.8047 O   0  0  0  0  0  0  0  0  0  0  0  0
   47.3510   11.9939   11.2033 O   0  0  0  0  0  0  0  0  0  0  0  0
   47.7655    8.9286   12.4485 H   0  0  0  0  0  0  0  0  0  0  0  0
   50.0074    7.3085   12.9448 H   0  0  0  0  0  0  0  0  0  0  0  0
   48.6771    7.1732   14.9087 H   0  0  0  0  0  0  0  0  0  0  0  0
   48.2062    8.8486   14.8603 H   0  0  0  0  0  0  0  0  0  0  0  0
   50.5619    9.5513   15.4076 H   0  0  0  0  0  0  0  0  0  0  0  0
   52.0961    8.1952   15.3392 H   0  0  0  0  0  0  0  0  0  0  0  0
   48.9203    9.0986   17.2797 H   0  0  0  0  0  0  0  0  0  0  0  0
   51.1462    7.0356   17.8339 H   0  0  0  0  0  0  0  0  0  0  0  0
   48.4163    8.6873   23.8285 H   0  0  0  0  0  0  0  0  0  0  0  0
   46.9382    6.9243   24.7349 H   0  0  0  0  0  0  0  0  0  0  0  0
   46.3554    4.9657   23.3170 H   0  0  0  0  0  0  0  0  0  0  0  0
   47.2535    4.7836   21.0438 H   0  0  0  0  0  0  0  0  0  0  0  0
   47.1340    6.4274   17.7599 H   0  0  0  0  0  0  0  0  0  0  0  0
   46.7504    4.4736   16.2830 H   0  0  0  0  0  0  0  0  0  0  0  0
   49.8162    2.2835   18.3230 H   0  0  0  0  0  0  0  0  0  0  0  0
   50.2318    4.2299   19.8145 H   0  0  0  0  0  0  0  0  0  0  0  0
   51.9168    9.6535   19.6062 H   0  0  0  0  0  0  0  0  0  0  0  0
   50.8896   11.5991   18.4072 H   0  0  0  0  0  0  0  0  0  0  0  0
   49.2329   11.1467   19.0123 H   0  0  0  0  0  0  0  0  0  0  0  0
   50.0201   11.3753   21.3749 H   0  0  0  0  0  0  0  0  0  0  0  0
   51.6869   11.8242   20.7848 H   0  0  0  0  0  0  0  0  0  0  0  0
   50.1895    9.4063   11.5681 H   0  0  0  0  0  0  0  0  0  0  0  0
   51.1644    9.4293   13.0380 H   0  0  0  0  0  0  0  0  0  0  0  0
   48.9009    8.6634   11.8076 H   0  0  0  0  0  0  0  0  0  0  0  0
   49.3212   10.1566   13.4821 H   0  0  0  0  0  0  0  0  0  0  0  0
   47.9610   10.0618   15.4910 H   0  0  0  0  0  0  0  0  0  0  0  0
   47.0705    8.6510   14.8965 H   0  0  0  0  0  0  0  0  0  0  0  0
   50.0985    8.5241   15.3422 H   0  0  0  0  0  0  0  0  0  0  0  0
   48.9407    7.0290   14.0076 H   0  0  0  0  0  0  0  0  0  0  0  0
   47.8051    7.9971   17.3414 H   0  0  0  0  0  0  0  0  0  0  0  0
   50.8777    7.8967   17.5945 H   0  0  0  0  0  0  0  0  0  0  0  0
   48.4001    8.3547   23.9162 H   0  0  0  0  0  0  0  0  0  0  0  0
   48.3269    6.1951   25.1071 H   0  0  0  0  0  0  0  0  0  0  0  0
   48.8554    4.0946   23.8808 H   0  0  0  0  0  0  0  0  0  0  0  0
   49.4433    4.1848   21.5060 H   0  0  0  0  0  0  0  0  0  0  0  0
   48.0659    5.0453   18.1856 H   0  0  0  0  0  0  0  0  0  0  0  0
   48.7645    3.0653   16.8613 H   0  0  0  0  0  0  0  0  0  0  0  0
   52.6934    3.2715   18.5628 H   0  0  0  0  0  0  0  0  0  0  0  0
   52.0288    5.2658   19.8905 H   0  0  0  0  0  0  0  0  0  0  0  0
   48.3849   10.5231   18.9651 H   0  0  0  0  0  0  0  0  0  0  0  0
   50.5425   11.6012   18.3104 H   0  0  0  0  0  0  0  0  0  0  0  0
   51.4791   10.4406   19.3538 H   0  0  0  0  0  0  0  0  0  0  0  0
   50.2115   11.2189   21.3829 H   0  0  0  0  0  0  0  0  0  0  0  0
   49.2716   12.3849   20.3449 H   0  0  0  0  0  0  0  0  0  0  0  0
   46.8415   11.0012   13.3946 H   0  0  0  0  0  0  0  0  0  0  0  0
   46.4889    9.5046   12.4935 H   0  0  0  0  0  0  0  0  0  0  0  0
  2  1  1  0
  2  3  1  0
  3  4  1  0
  4  5  1  0
  4  6  1  0
  6  7  2  0
  7  8  1  0
  8  9  2  0
  9 10  1  0
 10 11  2  0
 11 12  1  0
 12 13  2  0
 13 14  1  0
 14 15  2  0
 15 16  1  0
 11 16  1  0
 16 17  2  0
  8 17  1  0
 17 18  1  0
 18 19  2  0
 19 20  1  0
 20 21  2  0
 21 22  1  0
 21 23  1  0
 23 24  2  0
 18 24  1  0
  9 25  1  0
 25 26  1  0
 26 27  1  0
 25 27  1  0
  2 28  1  0
 28 29  1  0
 29 30  2  0
 29 31  1  0
 34 33  1  0
 34 35  1  0
 35 36  1  0
 36 37  1  0
 36 38  1  0
 38 39  2  0
 39 40  1  0
 40 41  2  0
 41 42  1  0
 42 43  2  0
 43 44  1  0
 44 45  2  0
 45 46  1  0
 46 47  2  0
 47 48  1  0
 43 48  1  0
 48 49  2  0
 40 49  1  0
 49 50  1  0
 50 51  2  0
 51 52  1  0
 52 53  2  0
 53 54  1  0
 53 55  1  0
 55 56  2  0
 50 56  1  0
 41 57  1  0
 57 58  1  0
 58 59  1  0
 57 59  1  0
 34 60  1  0
 60 61  1  0
 61 62  2  0
 61 63  1  0
  1 64  1  0
  2 65  1  6
  3 66  1  0
  3 67  1  0
  4 68  1  6
  5 69  1  0
  6 70  1  0
  7 71  1  0
 12 72  1  0
 13 73  1  0
 14 74  1  0
 15 75  1  0
 19 76  1  0
 20 77  1  0
 23 78  1  0
 24 79  1  0
 25 80  1  0
 26 81  1  0
 26 82  1  0
 27 83  1  0
 27 84  1  0
 28 85  1  0
 28 86  1  0
 33 87  1  0
 34 88  1  6
 35 89  1  0
 35 90  1  0
 36 91  1  6
 37 92  1  0
 38 93  1  0
 39 94  1  0
 44 95  1  0
 45 96  1  0
 46 97  1  0
 47 98  1  0
 51 99  1  0
 52100  1  0
 55101  1  0
 56102  1  0
 57103  1  0
 58104  1  0
 58105  1  0
 59106  1  0
 59107  1  0
 60108  1  0
 60109  1  0
M  CHG  3  31  -1  32   2  63  -1
M  END
> <Uni-Dock RESULT> 
ENERGY=   -5.971  LOWER_BOUND=    2.833  UPPER_BOUND=    5.405
INTER + INTRA:          -5.971
INTER:                  -5.971
INTRA:                   0.000
UNBOUND:                 0.000

$$$$

     RDKit          3D

109114  0  0  0  0  0  0  0  0999 V2000
   53.2790    4.6600   17.5818 O   0  0  0  0  0  0  0  0  0  0  0  0
   51.8454    4.7628   17.5266 C   0  0  2  0  0  0  0  0  0  0  0  0
   51.4686    6.2513   17.5128 C   0  0  0  0  0  0  0  0  0  0  0  0
   49.9717    6.5433   17.6448 C   0  0  2  0  0  0  0  0  0  0  0  0
   49.2598    5.8927   16.5967 O   0  0  0  0  0  0  0  0  0  0  0  0
   49.7135    8.0283   17.5928 C   0  0  0  0  0  0  0  0  0  0  0  0
   48.9168    8.6820   16.7293 C   0  0  0  0  0  0  0  0  0  0  0  0
   48.7950   10.1513   16.7622 C   0  0  0  0  0  0  0  0  0  0  0  0
   48.0014   10.7840   17.7369 C   0  0  0  0  0  0  0  0  0  0  0  0
   47.8871   12.1386   17.7759 N   0  0  0  0  0  0  0  0  0  0  0  0
   48.5537   12.8927   16.8938 C   0  0  0  0  0  0  0  0  0  0  0  0
   48.4208   14.2717   16.9940 C   0  0  0  0  0  0  0  0  0  0  0  0
   49.0757   15.1472   16.1281 C   0  0  0  0  0  0  0  0  0  0  0  0
   49.8858   14.6334   15.1276 C   0  0  0  0  0  0  0  0  0  0  0  0
   50.0332   13.2522   15.0010 C   0  0  0  0  0  0  0  0  0  0  0  0
   49.3689   12.3555   15.8785 C   0  0  0  0  0  0  0  0  0  0  0  0
   49.4771   10.9408   15.8051 C   0  0  0  0  0  0  0  0  0  0  0  0
   50.2756   10.2965   14.7384 C   0  0  0  0  0  0  0  0  0  0  0  0
   51.5846    9.8422   14.9821 C   0  0  0  0  0  0  0  0  0  0  0  0
   52.3303    9.2360   13.9664 C   0  0  0  0  0  0  0  0  0  0  0  0
   51.7705    9.0873   12.7031 C   0  0  0  0  0  0  0  0  0  0  0  0
   52.4919    8.5246   11.7240 F   0  0  0  0  0  0  0  0  0  0  0  0
   50.4783    9.5230   12.4380 C   0  0  0  0  0  0  0  0  0  0  0  0
   49.7314   10.1216   13.4547 C   0  0  0  0  0  0  0  0  0  0  0  0
   47.2029    9.9934   18.7644 C   0  0  0  0  0  0  0  0  0  0  0  0
   47.8587    9.5931   20.0681 C   0  0  0  0  0  0  0  0  0  0  0  0
   46.7800   10.6309   20.0719 C   0  0  0  0  0  0  0  0  0  0  0  0
   51.2355    3.9239   18.6445 C   0  0  0  0  0  0  0  0  0  0  0  0
   51.4777    4.5446   20.0157 C   0  0  0  0  0  0  0  0  0  0  0  0
   52.6569    4.9639   20.2090 O   0  0  0  0  0  0  0  0  0  0  0  0
   50.4628    4.5832   20.7692 O   0  0  0  0  0  0  0  0  0  0  0  0
   49.9189    9.1026   16.8924 Ca  0  0  0  0  0 15  0  0  0  0  0  0
   52.5594    4.6497   17.7741 O   0  0  0  0  0  0  0  0  0  0  0  0
   52.3556    5.4034   18.9776 C   0  0  2  0  0  0  0  0  0  0  0  0
   52.0888    6.8726   18.6116 C   0  0  0  0  0  0  0  0  0  0  0  0
   51.0572    7.0153   17.4848 C   0  0  2  0  0  0  0  0  0  0  0  0
   51.6503    6.6416   16.2434 O   0  0  0  0  0  0  0  0  0  0  0  0
   50.6114    8.4398   17.3239 C   0  0  0  0  0  0  0  0  0  0  0  0
   49.3492    8.7905   17.0254 C   0  0  0  0  0  0  0  0  0  0  0  0
   48.9578   10.1979   16.8480 C   0  0  0  0  0  0  0  0  0  0  0  0
   48.6895   10.9990   17.9714 C   0  0  0  0  0  0  0  0  0  0  0  0
   48.3698   12.3144   17.8378 N   0  0  0  0  0  0  0  0  0  0  0  0
   48.3085   12.8692   16.6204 C   0  0  0  0  0  0  0  0  0  0  0  0
   47.9975   14.2211   16.5344 C   0  0  0  0  0  0  0  0  0  0  0  0
   47.9144   14.8904   15.3130 C   0  0  0  0  0  0  0  0  0  0  0  0
   48.1480   14.1967   14.1378 C   0  0  0  0  0  0  0  0  0  0  0  0
   48.4591   12.8401   14.1971 C   0  0  0  0  0  0  0  0  0  0  0  0
   48.5427   12.1483   15.4342 C   0  0  0  0  0  0  0  0  0  0  0  0
   48.8587   10.7669   15.5558 C   0  0  0  0  0  0  0  0  0  0  0  0
   49.0625    9.9286   14.3522 C   0  0  0  0  0  0  0  0  0  0  0  0
   50.3544    9.6012   13.9021 C   0  0  0  0  0  0  0  0  0  0  0  0
   50.5302    8.8022   12.7690 C   0  0  0  0  0  0  0  0  0  0  0  0
   49.4173    8.3316   12.0819 C   0  0  0  0  0  0  0  0  0  0  0  0
   49.5842    7.5724   10.9904 F   0  0  0  0  0  0  0  0  0  0  0  0
   48.1291    8.6414   12.5056 C   0  0  0  0  0  0  0  0  0  0  0  0
   47.9516    9.4359   13.6401 C   0  0  0  0  0  0  0  0  0  0  0  0
   48.7363   10.4457   19.3880 C   0  0  0  0  0  0  0  0  0  0  0  0
   47.6671    9.4925   19.8709 C   0  0  0  0  0  0  0  0  0  0  0  0
   47.7075   10.8914   20.4036 C   0  0  0  0  0  0  0  0  0  0  0  0
   53.5791    5.2763   19.8801 C   0  0  0  0  0  0  0  0  0  0  0  0
   53.6202    3.8646   20.4571 C   0  0  0  0  0  0  0  0  0  0  0  0
   53.3330    2.9474   19.6321 O   0  0  0  0  0  0  0  0  0  0  0  0
   53.9396    3.7878   21.6721 O   0  0  0  0  0  0  0  0  0  0  0  0
   53.4896    4.8290   18.5365 H   0  0  0  0  0  0  0  0  0  0  0  0
   51.5508    4.3174   16.5676 H   0  0  0  0  0  0  0  0  0  0  0  0
   51.8472    6.6747   16.5715 H   0  0  0  0  0  0  0  0  0  0  0  0
   52.0206    6.7793   18.3006 H   0  0  0  0  0  0  0  0  0  0  0  0
   49.5959    6.1700   18.6045 H   0  0  0  0  0  0  0  0  0  0  0  0
   48.4929    5.4664   17.0278 H   0  0  0  0  0  0  0  0  0  0  0  0
   50.2567    8.5994   18.3473 H   0  0  0  0  0  0  0  0  0  0  0  0
   48.3749    8.1640   15.9418 H   0  0  0  0  0  0  0  0  0  0  0  0
   47.7901   14.6744   17.7823 H   0  0  0  0  0  0  0  0  0  0  0  0
   48.9505   16.2214   16.2414 H   0  0  0  0  0  0  0  0  0  0  0  0
   50.4115   15.3006   14.4514 H   0  0  0  0  0  0  0  0  0  0  0  0
   50.6841   12.8766   14.2134 H   0  0  0  0  0  0  0  0  0  0  0  0
   52.0229    9.9425   15.9739 H   0  0  0  0  0  0  0  0  0  0  0  0
   53.3352    8.8786   14.1596 H   0  0  0  0  0  0  0  0  0  0  0  0
   50.0619    9.3899   11.4427 H   0  0  0  0  0  0  0  0  0  0  0  0
   48.7161   10.4525   13.2442 H   0  0  0  0  0  0  0  0  0  0  0  0
   46.4853    9.2892   18.3400 H   0  0  0  0  0  0  0  0  0  0  0  0
   47.6267    8.6112   20.4650 H   0  0  0  0  0  0  0  0  0  0  0  0
   48.8760    9.9194   20.2565 H   0  0  0  0  0  0  0  0  0  0  0  0
   47.0772   11.6566   20.2727 H   0  0  0  0  0  0  0  0  0  0  0  0
   45.8128   10.3573   20.4756 H   0  0  0  0  0  0  0  0  0  0  0  0
   51.6883    2.9265   18.6595 H   0  0  0  0  0  0  0  0  0  0  0  0
   50.1622    3.7919   18.4758 H   0  0  0  0  0  0  0  0  0  0  0  0
   52.8260    3.7537   18.1198 H   0  0  0  0  0  0  0  0  0  0  0  0
   51.4639    4.9950   19.4666 H   0  0  0  0  0  0  0  0  0  0  0  0
   51.7598    7.4043   19.5135 H   0  0  0  0  0  0  0  0  0  0  0  0
   53.0312    7.3346   18.2825 H   0  0  0  0  0  0  0  0  0  0  0  0
   50.1926    6.3625   17.6659 H   0  0  0  0  0  0  0  0  0  0  0  0
   52.0477    5.7585   16.4205 H   0  0  0  0  0  0  0  0  0  0  0  0
   51.3791    9.2037   17.4330 H   0  0  0  0  0  0  0  0  0  0  0  0
   48.5845    8.0388   16.8425 H   0  0  0  0  0  0  0  0  0  0  0  0
   47.8164   14.7730   17.4534 H   0  0  0  0  0  0  0  0  0  0  0  0
   47.6774   15.9514   15.2902 H   0  0  0  0  0  0  0  0  0  0  0  0
   48.0986   14.7025   13.1788 H   0  0  0  0  0  0  0  0  0  0  0  0
   48.6469   12.3180   13.2619 H   0  0  0  0  0  0  0  0  0  0  0  0
   51.2282    9.9530   14.4480 H   0  0  0  0  0  0  0  0  0  0  0  0
   51.5259    8.5350   12.4325 H   0  0  0  0  0  0  0  0  0  0  0  0
   47.2748    8.2590   11.9574 H   0  0  0  0  0  0  0  0  0  0  0  0
   46.9435    9.6641   13.9817 H   0  0  0  0  0  0  0  0  0  0  0  0
   49.7387   10.2867   19.7759 H   0  0  0  0  0  0  0  0  0  0  0  0
   47.9748    8.6825   20.5251 H   0  0  0  0  0  0  0  0  0  0  0  0
   46.8608    9.2321   19.1948 H   0  0  0  0  0  0  0  0  0  0  0  0
   46.9300   11.5830   20.0880 H   0  0  0  0  0  0  0  0  0  0  0  0
   48.0436   11.0395   21.4241 H   0  0  0  0  0  0  0  0  0  0  0  0
   53.5468    6.0089   20.6926 H   0  0  0  0  0  0  0  0  0  0  0  0
   54.4991    5.4256   19.3036 H   0  0  0  0  0  0  0  0  0  0  0  0
  2  1  1  0
  2  3  1  0
  3  4  1  0
  4  5  1  0
  4  6  1  0
  6  7  2  0
  7  8  1  0
  8  9  2  0
  9 10  1  0
 10 11  2  0
 11 12  1  0
 12 13  2  0
 13 14  1  0
 14 15  2  0
 15 16  1  0
 11 16  1  0
 16 17  2  0
  8 17  1  0
 17 18  1  0
 18 19  2  0
 19 20  1  0
 20 21  2  0
 21 22  1  0
 21 23  1  0
 23 24  2  0
 18 24  1  0
  9 25  1  0
 25 26  1  0
 26 27  1  0
 25 27  1  0
  2 28  1  0
 28 29  1  0
 29 30  2  0
 29 31  1  0
 34 33  1  0
 34 35  1  0
 35 36  1  0
 36 37  1  0
 36 38  1  0
 38 39  2  0
 39 40  1  0
 40 41  2  0
 41 42  1  0
 42 43  2  0
 43 44  1  0
 44 45  2  0
 45 46  1  0
 46 47  2  0
 47 48  1  0
 43 48  1  0
 48 49  2  0
 40 49  1  0
 49 50  1  0
 50 51  2  0
 51 52  1  0
 52 53  2  0
 53 54  1  0
 53 55  1  0
 55 56  2  0
 50 56  1  0
 41 57  1  0
 57 58  1  0
 58 59  1  0
 57 59  1  0
 34 60  1  0
 60 61  1  0
 61 62  2  0
 61 63  1  0
  1 64  1  0
  2 65  1  6
  3 66  1  0
  3 67  1  0
  4 68  1  6
  5 69  1  0
  6 70  1  0
  7 71  1  0
 12 72  1  0
 13 73  1  0
 14 74  1  0
 15 75  1  0
 19 76  1  0
 20 77  1  0
 23 78  1  0
 24 79  1  0
 25 80  1  0
 26 81  1  0
 26 82  1  0
 27 83  1  0
 27 84  1  0
 28 85  1  0
 28 86  1  0
 33 87  1  0
 34 88  1  6
 35 89  1  0
 35 90  1  0
 36 91  1  6
 37 92  1  0
 38 93  1  0
 39 94  1  0
 44 95  1  0
 45 96  1  0
 46 97  1  0
 47 98  1  0
 51 99  1  0
 52100  1  0
 55101  1  0
 56102  1  0
 57103  1  0
 58104  1  0
 58105  1  0
 59106  1  0
 59107  1  0
 60108  1  0
 60109  1  0
M  CHG  3  31  -1  32   2  63  -1
M  END
> <Uni-Dock RESULT> 
ENERGY=   -5.921  LOWER_BOUND=    4.112  UPPER_BOUND=    7.549
INTER + INTRA:          -5.921
INTER:                  -5.921
INTRA:                   0.000
UNBOUND:                 0.000

$$$$

     RDKit          3D

109114  0  0  0  0  0  0  0  0999 V2000
   51.5929   11.2005   16.2460 O   0  0  0  0  0  0  0  0  0  0  0  0
   50.9704   10.4990   17.3366 C   0  0  2  0  0  0  0  0  0  0  0  0
   51.2533    8.9991   17.1695 C   0  0  0  0  0  0  0  0  0  0  0  0
   50.5047    8.0849   18.1428 C   0  0  2  0  0  0  0  0  0  0  0  0
   50.8156    8.4514   19.4836 O   0  0  0  0  0  0  0  0  0  0  0  0
   50.8756    6.6419   17.9083 C   0  0  0  0  0  0  0  0  0  0  0  0
   51.3931    5.7831   18.8039 C   0  0  0  0  0  0  0  0  0  0  0  0
   51.7563    4.4057   18.4221 C   0  0  0  0  0  0  0  0  0  0  0  0
   50.7659    3.4170   18.2744 C   0  0  0  0  0  0  0  0  0  0  0  0
   51.0926    2.1457   17.9190 N   0  0  0  0  0  0  0  0  0  0  0  0
   52.3696    1.8241   17.6805 C   0  0  0  0  0  0  0  0  0  0  0  0
   52.6447    0.5177   17.2968 C   0  0  0  0  0  0  0  0  0  0  0  0
   53.9399    0.0806   17.0203 C   0  0  0  0  0  0  0  0  0  0  0  0
   54.9958    0.9713   17.1333 C   0  0  0  0  0  0  0  0  0  0  0  0
   54.7488    2.2880   17.5217 C   0  0  0  0  0  0  0  0  0  0  0  0
   53.4330    2.7392   17.8053 C   0  0  0  0  0  0  0  0  0  0  0  0
   53.1130    4.0650   18.2035 C   0  0  0  0  0  0  0  0  0  0  0  0
   54.1776    5.0735   18.4036 C   0  0  0  0  0  0  0  0  0  0  0  0
   54.4776    6.0228   17.4095 C   0  0  0  0  0  0  0  0  0  0  0  0
   55.4864    6.9704   17.6088 C   0  0  0  0  0  0  0  0  0  0  0  0
   56.2009    6.9676   18.8008 C   0  0  0  0  0  0  0  0  0  0  0  0
   57.1812    7.8627   18.9843 F   0  0  0  0  0  0  0  0  0  0  0  0
   55.9208    6.0441   19.8000 C   0  0  0  0  0  0  0  0  0  0  0  0
   54.9084    5.1028   19.6034 C   0  0  0  0  0  0  0  0  0  0  0  0
   49.2944    3.7032   18.5417 C   0  0  0  0  0  0  0  0  0  0  0  0
   48.4258    4.2379   17.4240 C   0  0  0  0  0  0  0  0  0  0  0  0
   48.2141    2.8418   17.9208 C   0  0  0  0  0  0  0  0  0  0  0  0
   49.5023   10.9020   17.4239 C   0  0  0  0  0  0  0  0  0  0  0  0
   48.6890   10.3352   16.2656 C   0  0  0  0  0  0  0  0  0  0  0  0
   49.2342   10.4465   15.1281 O   0  0  0  0  0  0  0  0  0  0  0  0
   47.5898    9.8046   16.5967 O   0  0  0  0  0  0  0  0  0  0  0  0
   51.8771    5.8199   17.8179 Ca  0  0  0  0  0 15  0  0  0  0  0  0
   51.0816   10.8862   16.6872 O   0  0  0  0  0  0  0  0  0  0  0  0
   50.2287   10.0224   15.9228 C   0  0  2  0  0  0  0  0  0  0  0  0
   50.8472    8.6156   15.8787 C   0  0  0  0  0  0  0  0  0  0  0  0
   51.3092    8.1376   17.2615 C   0  0  2  0  0  0  0  0  0  0  0  0
   52.4993    8.8290   17.6335 O   0  0  0  0  0  0  0  0  0  0  0  0
   51.6592    6.6777   17.2506 C   0  0  0  0  0  0  0  0  0  0  0  0
   51.3950    5.8463   18.2725 C   0  0  0  0  0  0  0  0  0  0  0  0
   51.7798    4.4264   18.2348 C   0  0  0  0  0  0  0  0  0  0  0  0
   50.9754    3.4989   17.5505 C   0  0  0  0  0  0  0  0  0  0  0  0
   51.3311    2.1889   17.4619 N   0  0  0  0  0  0  0  0  0  0  0  0
   52.4664    1.7626   18.0302 C   0  0  0  0  0  0  0  0  0  0  0  0
   52.7986    0.4197   17.8965 C   0  0  0  0  0  0  0  0  0  0  0  0
   53.9616   -0.1188   18.4481 C   0  0  0  0  0  0  0  0  0  0  0  0
   54.8243    0.7014   19.1552 C   0  0  0  0  0  0  0  0  0  0  0  0
   54.5125    2.0508   19.3054 C   0  0  0  0  0  0  0  0  0  0  0  0
   53.3300    2.6084   18.7514 C   0  0  0  0  0  0  0  0  0  0  0  0
   52.9622    3.9772   18.8702 C   0  0  0  0  0  0  0  0  0  0  0  0
   53.7892    4.9171   19.6609 C   0  0  0  0  0  0  0  0  0  0  0  0
   54.6872    5.8014   19.0358 C   0  0  0  0  0  0  0  0  0  0  0  0
   55.4550    6.6881   19.7955 C   0  0  0  0  0  0  0  0  0  0  0  0
   55.3302    6.6916   21.1799 C   0  0  0  0  0  0  0  0  0  0  0  0
   56.0719    7.5354   21.9103 F   0  0  0  0  0  0  0  0  0  0  0  0
   54.4503    5.8269   21.8227 C   0  0  0  0  0  0  0  0  0  0  0  0
   53.6792    4.9433   21.0649 C   0  0  0  0  0  0  0  0  0  0  0  0
   49.6705    3.9015   16.8792 C   0  0  0  0  0  0  0  0  0  0  0  0
   48.4627    4.2625   17.7133 C   0  0  0  0  0  0  0  0  0  0  0  0
   48.4748    2.9772   16.9451 C   0  0  0  0  0  0  0  0  0  0  0  0
   50.0484   10.5868   14.5168 C   0  0  0  0  0  0  0  0  0  0  0  0
   49.1648   11.8280   14.5946 C   0  0  0  0  0  0  0  0  0  0  0  0
   49.4188   12.5980   15.5678 O   0  0  0  0  0  0  0  0  0  0  0  0
   48.3035   11.9348   13.6830 O   0  0  0  0  0  0  0  0  0  0  0  0
   50.9666   11.0607   15.4893 H   0  0  0  0  0  0  0  0  0  0  0  0
   51.4746   10.8521   18.2454 H   0  0  0  0  0  0  0  0  0  0  0  0
   52.3371    8.8567   17.2864 H   0  0  0  0  0  0  0  0  0  0  0  0
   51.0397    8.6957   16.1367 H   0  0  0  0  0  0  0  0  0  0  0  0
   49.4225    8.1818   17.9977 H   0  0  0  0  0  0  0  0  0  0  0  0
   49.9587    8.4717   19.9537 H   0  0  0  0  0  0  0  0  0  0  0  0
   50.6982    6.2988   16.8879 H   0  0  0  0  0  0  0  0  0  0  0  0
   51.6144    6.0816   19.8257 H   0  0  0  0  0  0  0  0  0  0  0  0
   51.8157   -0.1789   17.2026 H   0  0  0  0  0  0  0  0  0  0  0  0
   54.1148   -0.9492   16.7178 H   0  0  0  0  0  0  0  0  0  0  0  0
   56.0093    0.6508   16.9116 H   0  0  0  0  0  0  0  0  0  0  0  0
   55.5953    2.9688   17.5916 H   0  0  0  0  0  0  0  0  0  0  0  0
   53.9111    6.0392   16.4797 H   0  0  0  0  0  0  0  0  0  0  0  0
   55.7091    7.7064   16.8449 H   0  0  0  0  0  0  0  0  0  0  0  0
   56.4910    6.0669   20.7254 H   0  0  0  0  0  0  0  0  0  0  0  0
   54.6867    4.3877   20.3933 H   0  0  0  0  0  0  0  0  0  0  0  0
   49.0761    4.0647   19.5480 H   0  0  0  0  0  0  0  0  0  0  0  0
   47.6877    4.9901   17.6788 H   0  0  0  0  0  0  0  0  0  0  0  0
   48.8675    4.3641   16.4412 H   0  0  0  0  0  0  0  0  0  0  0  0
   48.5085    2.0293   17.2621 H   0  0  0  0  0  0  0  0  0  0  0  0
   47.3286    2.6413   18.5117 H   0  0  0  0  0  0  0  0  0  0  0  0
   49.4057   11.9923   17.3800 H   0  0  0  0  0  0  0  0  0  0  0  0
   49.0765   10.5753   18.3777 H   0  0  0  0  0  0  0  0  0  0  0  0
   50.6548   11.7786   16.5652 H   0  0  0  0  0  0  0  0  0  0  0  0
   49.2690    9.9686   16.4494 H   0  0  0  0  0  0  0  0  0  0  0  0
   50.1120    7.9227   15.4502 H   0  0  0  0  0  0  0  0  0  0  0  0
   51.7172    8.6298   15.2057 H   0  0  0  0  0  0  0  0  0  0  0  0
   50.5399    8.3405   18.0188 H   0  0  0  0  0  0  0  0  0  0  0  0
   52.2781    9.7795   17.5041 H   0  0  0  0  0  0  0  0  0  0  0  0
   52.1780    6.3098   16.3674 H   0  0  0  0  0  0  0  0  0  0  0  0
   50.9418    6.2106   19.1918 H   0  0  0  0  0  0  0  0  0  0  0  0
   52.1276   -0.2295   17.3395 H   0  0  0  0  0  0  0  0  0  0  0  0
   54.1892   -1.1734   18.3124 H   0  0  0  0  0  0  0  0  0  0  0  0
   55.7391    0.3032   19.5824 H   0  0  0  0  0  0  0  0  0  0  0  0
   55.2091    2.6774   19.8573 H   0  0  0  0  0  0  0  0  0  0  0  0
   54.7744    5.8140   17.9507 H   0  0  0  0  0  0  0  0  0  0  0  0
   56.1340    7.3822   19.3124 H   0  0  0  0  0  0  0  0  0  0  0  0
   54.3650    5.8502   22.9038 H   0  0  0  0  0  0  0  0  0  0  0  0
   52.9780    4.2786   21.5666 H   0  0  0  0  0  0  0  0  0  0  0  0
   49.7935    4.4419   15.9447 H   0  0  0  0  0  0  0  0  0  0  0  0
   47.8301    5.0700   17.3576 H   0  0  0  0  0  0  0  0  0  0  0  0
   48.5428    4.2070   18.7930 H   0  0  0  0  0  0  0  0  0  0  0  0
   48.5653    2.0477   17.5021 H   0  0  0  0  0  0  0  0  0  0  0  0
   47.8495    2.9045   16.0619 H   0  0  0  0  0  0  0  0  0  0  0  0
   49.5924    9.8473   13.8512 H   0  0  0  0  0  0  0  0  0  0  0  0
   51.0140   10.8931   14.0989 H   0  0  0  0  0  0  0  0  0  0  0  0
  2  1  1  0
  2  3  1  0
  3  4  1  0
  4  5  1  0
  4  6  1  0
  6  7  2  0
  7  8  1  0
  8  9  2  0
  9 10  1  0
 10 11  2  0
 11 12  1  0
 12 13  2  0
 13 14  1  0
 14 15  2  0
 15 16  1  0
 11 16  1  0
 16 17  2  0
  8 17  1  0
 17 18  1  0
 18 19  2  0
 19 20  1  0
 20 21  2  0
 21 22  1  0
 21 23  1  0
 23 24  2  0
 18 24  1  0
  9 25  1  0
 25 26  1  0
 26 27  1  0
 25 27  1  0
  2 28  1  0
 28 29  1  0
 29 30  2  0
 29 31  1  0
 34 33  1  0
 34 35  1  0
 35 36  1  0
 36 37  1  0
 36 38  1  0
 38 39  2  0
 39 40  1  0
 40 41  2  0
 41 42  1  0
 42 43  2  0
 43 44  1  0
 44 45  2  0
 45 46  1  0
 46 47  2  0
 47 48  1  0
 43 48  1  0
 48 49  2  0
 40 49  1  0
 49 50  1  0
 50 51  2  0
 51 52  1  0
 52 53  2  0
 53 54  1  0
 53 55  1  0
 55 56  2  0
 50 56  1  0
 41 57  1  0
 57 58  1  0
 58 59  1  0
 57 59  1  0
 34 60  1  0
 60 61  1  0
 61 62  2  0
 61 63  1  0
  1 64  1  0
  2 65  1  6
  3 66  1  0
  3 67  1  0
  4 68  1  6
  5 69  1  0
  6 70  1  0
  7 71  1  0
 12 72  1  0
 13 73  1  0
 14 74  1  0
 15 75  1  0
 19 76  1  0
 20 77  1  0
 23 78  1  0
 24 79  1  0
 25 80  1  0
 26 81  1  0
 26 82  1  0
 27 83  1  0
 27 84  1  0
 28 85  1  0
 28 86  1  0
 33 87  1  0
 34 88  1  6
 35 89  1  0
 35 90  1  0
 36 91  1  6
 37 92  1  0
 38 93  1  0
 39 94  1  0
 44 95  1  0
 45 96  1  0
 46 97  1  0
 47 98  1  0
 51 99  1  0
 52100  1  0
 55101  1  0
 56102  1  0
 57103  1  0
 58104  1  0
 58105  1  0
 59106  1  0
 59107  1  0
 60108  1  0
 60109  1  0
M  CHG  3  31  -1  32   2  63  -1
M  END
> <Uni-Dock RESULT> 
ENERGY=   -5.920  LOWER_BOUND=    4.441  UPPER_BOUND=    6.596
INTER + INTRA:          -5.920
INTER:                  -5.920
INTRA:                   0.000
UNBOUND:                 0.000

$$$$

     RDKit          3D

109114  0  0  0  0  0  0  0  0999 V2000
   51.4289   14.5056   14.9180 O   0  0  0  0  0  0  0  0  0  0  0  0
   51.6793   14.0378   16.2549 C   0  0  2  0  0  0  0  0  0  0  0  0
   50.8699   12.7517   16.4755 C   0  0  0  0  0  0  0  0  0  0  0  0
   50.8731   12.2209   17.9114 C   0  0  2  0  0  0  0  0  0  0  0  0
   52.2124   11.9838   18.3342 O   0  0  0  0  0  0  0  0  0  0  0  0
   50.0734   10.9459   18.0083 C   0  0  0  0  0  0  0  0  0  0  0  0
   50.5042    9.7514   18.4498 C   0  0  0  0  0  0  0  0  0  0  0  0
   49.6221    8.5695   18.4438 C   0  0  0  0  0  0  0  0  0  0  0  0
   48.6332    8.4070   19.4316 C   0  0  0  0  0  0  0  0  0  0  0  0
   47.8136    7.3218   19.4305 N   0  0  0  0  0  0  0  0  0  0  0  0
   47.9243    6.3998   18.4667 C   0  0  0  0  0  0  0  0  0  0  0  0
   47.0459    5.3243   18.4993 C   0  0  0  0  0  0  0  0  0  0  0  0
   47.0735    4.3117   17.5406 C   0  0  0  0  0  0  0  0  0  0  0  0
   48.0083    4.3694   16.5189 C   0  0  0  0  0  0  0  0  0  0  0  0
   48.9059    5.4357   16.4647 C   0  0  0  0  0  0  0  0  0  0  0  0
   48.8836    6.4692   17.4378 C   0  0  0  0  0  0  0  0  0  0  0  0
   49.7671    7.5818   17.4398 C   0  0  0  0  0  0  0  0  0  0  0  0
   50.8337    7.7039   16.4210 C   0  0  0  0  0  0  0  0  0  0  0  0
   50.6703    8.5247   15.2902 C   0  0  0  0  0  0  0  0  0  0  0  0
   51.6843    8.6316   14.3332 C   0  0  0  0  0  0  0  0  0  0  0  0
   52.8622    7.9138   14.5025 C   0  0  0  0  0  0  0  0  0  0  0  0
   53.8262    8.0002   13.5758 F   0  0  0  0  0  0  0  0  0  0  0  0
   53.0503    7.1002   15.6127 C   0  0  0  0  0  0  0  0  0  0  0  0
   52.0404    6.9997   16.5717 C   0  0  0  0  0  0  0  0  0  0  0  0
   48.4557    9.4056   20.5672 C   0  0  0  0  0  0  0  0  0  0  0  0
   47.5569   10.6066   20.3679 C   0  0  0  0  0  0  0  0  0  0  0  0
   47.1352    9.5150   21.3014 C   0  0  0  0  0  0  0  0  0  0  0  0
   51.4251   15.1715   17.2426 C   0  0  0  0  0  0  0  0  0  0  0  0
   49.9401   15.4943   17.3650 C   0  0  0  0  0  0  0  0  0  0  0  0
   49.3174   15.5596   16.2642 O   0  0  0  0  0  0  0  0  0  0  0  0
   49.5206   15.6278   18.5505 O   0  0  0  0  0  0  0  0  0  0  0  0
   49.9375    9.7550   17.5083 Ca  0  0  0  0  0 15  0  0  0  0  0  0
   51.4203   14.4415   15.6600 O   0  0  0  0  0  0  0  0  0  0  0  0
   50.0701   14.4552   16.1446 C   0  0  2  0  0  0  0  0  0  0  0  0
   49.5259   13.0174   16.1576 C   0  0  0  0  0  0  0  0  0  0  0  0
   50.5117   12.0260   16.7898 C   0  0  2  0  0  0  0  0  0  0  0  0
   51.5910   11.7854   15.8899 O   0  0  0  0  0  0  0  0  0  0  0  0
   49.8681   10.6926   17.0379 C   0  0  0  0  0  0  0  0  0  0  0  0
   50.1275    9.9356   18.1173 C   0  0  0  0  0  0  0  0  0  0  0  0
   49.4968    8.6201   18.3104 C   0  0  0  0  0  0  0  0  0  0  0  0
   48.1928    8.5359   18.8281 C   0  0  0  0  0  0  0  0  0  0  0  0
   47.5696    7.3357   18.9744 N   0  0  0  0  0  0  0  0  0  0  0  0
   48.1973    6.2069   18.6205 C   0  0  0  0  0  0  0  0  0  0  0  0
   47.5135    5.0060   18.7693 C   0  0  0  0  0  0  0  0  0  0  0  0
   48.0799    3.7782   18.4247 C   0  0  0  0  0  0  0  0  0  0  0  0
   49.3666    3.7398   17.9149 C   0  0  0  0  0  0  0  0  0  0  0  0
   50.0739    4.9297   17.7584 C   0  0  0  0  0  0  0  0  0  0  0  0
   49.5086    6.1840   18.1093 C   0  0  0  0  0  0  0  0  0  0  0  0
   50.1814    7.4293   17.9689 C   0  0  0  0  0  0  0  0  0  0  0  0
   51.5823    7.4829   17.4920 C   0  0  0  0  0  0  0  0  0  0  0  0
   51.8865    7.8154   16.1594 C   0  0  0  0  0  0  0  0  0  0  0  0
   53.2142    7.8696   15.7265 C   0  0  0  0  0  0  0  0  0  0  0  0
   54.2398    7.5891   16.6218 C   0  0  0  0  0  0  0  0  0  0  0  0
   55.5129    7.6324   16.2062 F   0  0  0  0  0  0  0  0  0  0  0  0
   53.9660    7.2569   17.9446 C   0  0  0  0  0  0  0  0  0  0  0  0
   52.6402    7.2066   18.3799 C   0  0  0  0  0  0  0  0  0  0  0  0
   47.4117    9.7701   19.2550 C   0  0  0  0  0  0  0  0  0  0  0  0
   47.8066   10.5303   20.5004 C   0  0  0  0  0  0  0  0  0  0  0  0
   46.5469    9.7207   20.4953 C   0  0  0  0  0  0  0  0  0  0  0  0
   49.2136   15.3580   15.2618 C   0  0  0  0  0  0  0  0  0  0  0  0
   49.6013   16.8105   15.5210 C   0  0  0  0  0  0  0  0  0  0  0  0
   50.8467   17.0141   15.6306 O   0  0  0  0  0  0  0  0  0  0  0  0
   48.6410   17.6215   15.5861 O   0  0  0  0  0  0  0  0  0  0  0  0
   50.5446   14.9502   14.9870 H   0  0  0  0  0  0  0  0  0  0  0  0
   52.7481   13.7900   16.2893 H   0  0  0  0  0  0  0  0  0  0  0  0
   51.2787   11.9889   15.7975 H   0  0  0  0  0  0  0  0  0  0  0  0
   49.8367   12.9030   16.1382 H   0  0  0  0  0  0  0  0  0  0  0  0
   50.4195   12.9547   18.5878 H   0  0  0  0  0  0  0  0  0  0  0  0
   52.2756   12.3710   19.2297 H   0  0  0  0  0  0  0  0  0  0  0  0
   49.0420   11.0424   17.6655 H   0  0  0  0  0  0  0  0  0  0  0  0
   51.5292    9.5946   18.7768 H   0  0  0  0  0  0  0  0  0  0  0  0
   46.3092    5.2824   19.2974 H   0  0  0  0  0  0  0  0  0  0  0  0
   46.3659    3.4880   17.5971 H   0  0  0  0  0  0  0  0  0  0  0  0
   48.0371    3.5953   15.7581 H   0  0  0  0  0  0  0  0  0  0  0  0
   49.6220    5.4614   15.6452 H   0  0  0  0  0  0  0  0  0  0  0  0
   49.7555    9.1010   15.1598 H   0  0  0  0  0  0  0  0  0  0  0  0
   51.5592    9.2719   13.4677 H   0  0  0  0  0  0  0  0  0  0  0  0
   53.9834    6.5535   15.7240 H   0  0  0  0  0  0  0  0  0  0  0  0
   52.1967    6.3683   17.4443 H   0  0  0  0  0  0  0  0  0  0  0  0
   49.3424    9.5541   21.1860 H   0  0  0  0  0  0  0  0  0  0  0  0
   47.8789   11.5499   20.7946 H   0  0  0  0  0  0  0  0  0  0  0  0
   47.0240   10.7030   19.4280 H   0  0  0  0  0  0  0  0  0  0  0  0
   46.3092    8.8829   20.9868 H   0  0  0  0  0  0  0  0  0  0  0  0
   47.1660    9.7158   22.3654 H   0  0  0  0  0  0  0  0  0  0  0  0
   51.9253   16.0861   16.9060 H   0  0  0  0  0  0  0  0  0  0  0  0
   51.8368   14.9173   18.2242 H   0  0  0  0  0  0  0  0  0  0  0  0
   51.6372   15.4118   15.5899 H   0  0  0  0  0  0  0  0  0  0  0  0
   50.1008   14.8292   17.1743 H   0  0  0  0  0  0  0  0  0  0  0  0
   48.5669   13.0103   16.6912 H   0  0  0  0  0  0  0  0  0  0  0  0
   49.3289   12.7016   15.1225 H   0  0  0  0  0  0  0  0  0  0  0  0
   50.9235   12.4313   17.7239 H   0  0  0  0  0  0  0  0  0  0  0  0
   51.9070   12.6847   15.6441 H   0  0  0  0  0  0  0  0  0  0  0  0
   49.1820   10.3350   16.2724 H   0  0  0  0  0  0  0  0  0  0  0  0
   50.8633   10.2435   18.8570 H   0  0  0  0  0  0  0  0  0  0  0  0
   46.5014    5.0290   19.1656 H   0  0  0  0  0  0  0  0  0  0  0  0
   47.5072    2.8622   18.5481 H   0  0  0  0  0  0  0  0  0  0  0  0
   49.8201    2.7955   17.6310 H   0  0  0  0  0  0  0  0  0  0  0  0
   51.0796    4.8757   17.3482 H   0  0  0  0  0  0  0  0  0  0  0  0
   51.0868    8.0533   15.4599 H   0  0  0  0  0  0  0  0  0  0  0  0
   53.4494    8.1435   14.7039 H   0  0  0  0  0  0  0  0  0  0  0  0
   54.7821    7.0469   18.6276 H   0  0  0  0  0  0  0  0  0  0  0  0
   52.4267    6.9635   19.4193 H   0  0  0  0  0  0  0  0  0  0  0  0
   47.0167   10.3593   18.4320 H   0  0  0  0  0  0  0  0  0  0  0  0
   47.7241   11.6126   20.4753 H   0  0  0  0  0  0  0  0  0  0  0  0
   48.6404   10.1645   21.0887 H   0  0  0  0  0  0  0  0  0  0  0  0
   46.5247    8.8031   21.0783 H   0  0  0  0  0  0  0  0  0  0  0  0
   45.6004   10.2494   20.4664 H   0  0  0  0  0  0  0  0  0  0  0  0
   48.1484   15.2152   15.4688 H   0  0  0  0  0  0  0  0  0  0  0  0
   49.4007   15.1490   14.2025 H   0  0  0  0  0  0  0  0  0  0  0  0
  2  1  1  0
  2  3  1  0
  3  4  1  0
  4  5  1  0
  4  6  1  0
  6  7  2  0
  7  8  1  0
  8  9  2  0
  9 10  1  0
 10 11  2  0
 11 12  1  0
 12 13  2  0
 13 14  1  0
 14 15  2  0
 15 16  1  0
 11 16  1  0
 16 17  2  0
  8 17  1  0
 17 18  1  0
 18 19  2  0
 19 20  1  0
 20 21  2  0
 21 22  1  0
 21 23  1  0
 23 24  2  0
 18 24  1  0
  9 25  1  0
 25 26  1  0
 26 27  1  0
 25 27  1  0
  2 28  1  0
 28 29  1  0
 29 30  2  0
 29 31  1  0
 34 33  1  0
 34 35  1  0
 35 36  1  0
 36 37  1  0
 36 38  1  0
 38 39  2  0
 39 40  1  0
 40 41  2  0
 41 42  1  0
 42 43  2  0
 43 44  1  0
 44 45  2  0
 45 46  1  0
 46 47  2  0
 47 48  1  0
 43 48  1  0
 48 49  2  0
 40 49  1  0
 49 50  1  0
 50 51  2  0
 51 52  1  0
 52 53  2  0
 53 54  1  0
 53 55  1  0
 55 56  2  0
 50 56  1  0
 41 57  1  0
 57 58  1  0
 58 59  1  0
 57 59  1  0
 34 60  1  0
 60 61  1  0
 61 62  2  0
 61 63  1  0
  1 64  1  0
  2 65  1  6
  3 66  1  0
  3 67  1  0
  4 68  1  6
  5 69  1  0
  6 70  1  0
  7 71  1  0
 12 72  1  0
 13 73  1  0
 14 74  1  0
 15 75  1  0
 19 76  1  0
 20 77  1  0
 23 78  1  0
 24 79  1  0
 25 80  1  0
 26 81  1  0
 26 82  1  0
 27 83  1  0
 27 84  1  0
 28 85  1  0
 28 86  1  0
 33 87  1  0
 34 88  1  6
 35 89  1  0
 35 90  1  0
 36 91  1  6
 37 92  1  0
 38 93  1  0
 39 94  1  0
 44 95  1  0
 45 96  1  0
 46 97  1  0
 47 98  1  0
 51 99  1  0
 52100  1  0
 55101  1  0
 56102  1  0
 57103  1  0
 58104  1  0
 58105  1  0
 59106  1  0
 59107  1  0
 60108  1  0
 60109  1  0
M  CHG  3  31  -1  32   2  63  -1
M  END
> <Uni-Dock RESULT> 
ENERGY=   -5.750  LOWER_BOUND=    3.233  UPPER_BOUND=    6.133
INTER + INTRA:          -5.750
INTER:                  -5.750
INTRA:                   0.000
UNBOUND:                 0.000

$$$$

     RDKit          3D

109114  0  0  0  0  0  0  0  0999 V2000
   46.8735    6.9731   18.7166 O   0  0  0  0  0  0  0  0  0  0  0  0
   47.8221    8.0532   18.6661 C   0  0  2  0  0  0  0  0  0  0  0  0
   48.7955    7.7868   17.5088 C   0  0  0  0  0  0  0  0  0  0  0  0
   49.9870    8.7445   17.4292 C   0  0  2  0  0  0  0  0  0  0  0  0
   49.5203   10.0858   17.3204 O   0  0  0  0  0  0  0  0  0  0  0  0
   50.8597    8.4095   16.2456 C   0  0  0  0  0  0  0  0  0  0  0  0
   51.2006    9.2266   15.2339 C   0  0  0  0  0  0  0  0  0  0  0  0
   52.0262    8.7489   14.1091 C   0  0  0  0  0  0  0  0  0  0  0  0
   53.4177    8.5974   14.2538 C   0  0  0  0  0  0  0  0  0  0  0  0
   54.1851    8.1539   13.2224 N   0  0  0  0  0  0  0  0  0  0  0  0
   53.6162    7.8310   12.0548 C   0  0  0  0  0  0  0  0  0  0  0  0
   54.4432    7.3600   11.0430 C   0  0  0  0  0  0  0  0  0  0  0  0
   53.9514    6.9917    9.7910 C   0  0  0  0  0  0  0  0  0  0  0  0
   52.5932    7.0996    9.5365 C   0  0  0  0  0  0  0  0  0  0  0  0
   51.7404    7.5744   10.5329 C   0  0  0  0  0  0  0  0  0  0  0  0
   52.2346    7.9517   11.8092 C   0  0  0  0  0  0  0  0  0  0  0  0
   51.4214    8.4406   12.8666 C   0  0  0  0  0  0  0  0  0  0  0  0
   49.9678    8.6415   12.6736 C   0  0  0  0  0  0  0  0  0  0  0  0
   49.0350    7.6886   13.1219 C   0  0  0  0  0  0  0  0  0  0  0  0
   47.6640    7.8882   12.9331 C   0  0  0  0  0  0  0  0  0  0  0  0
   47.2229    9.0391   12.2910 C   0  0  0  0  0  0  0  0  0  0  0  0
   45.9103    9.2214   12.0920 F   0  0  0  0  0  0  0  0  0  0  0  0
   48.1232    9.9976   11.8434 C   0  0  0  0  0  0  0  0  0  0  0  0
   49.4918    9.8012   12.0388 C   0  0  0  0  0  0  0  0  0  0  0  0
   54.1381    8.9571   15.5461 C   0  0  0  0  0  0  0  0  0  0  0  0
   54.2685    7.9185   16.6389 C   0  0  0  0  0  0  0  0  0  0  0  0
   55.4841    8.3458   15.8769 C   0  0  0  0  0  0  0  0  0  0  0  0
   48.4486    8.2400   20.0439 C   0  0  0  0  0  0  0  0  0  0  0  0
   49.3917    7.0956   20.3975 C   0  0  0  0  0  0  0  0  0  0  0  0
   48.9466    5.9392   20.1362 O   0  0  0  0  0  0  0  0  0  0  0  0
   50.5047    7.4531   20.8802 O   0  0  0  0  0  0  0  0  0  0  0  0
   50.8535    8.2204   14.9607 Ca  0  0  0  0  0 15  0  0  0  0  0  0
   47.4462    7.4219   18.8762 O   0  0  0  0  0  0  0  0  0  0  0  0
   48.6475    6.6554   19.0417 C   0  0  2  0  0  0  0  0  0  0  0  0
   49.3364    6.4993   17.6761 C   0  0  0  0  0  0  0  0  0  0  0  0
   49.4244    7.8268   16.9117 C   0  0  2  0  0  0  0  0  0  0  0  0
   48.1369    8.1745   16.4077 O   0  0  0  0  0  0  0  0  0  0  0  0
   50.3257    7.7148   15.7164 C   0  0  0  0  0  0  0  0  0  0  0  0
   51.1452    8.7003   15.3132 C   0  0  0  0  0  0  0  0  0  0  0  0
   51.9934    8.5621   14.1185 C   0  0  0  0  0  0  0  0  0  0  0  0
   53.2136    7.8693   14.2001 C   0  0  0  0  0  0  0  0  0  0  0  0
   53.9950    7.6881   13.1015 N   0  0  0  0  0  0  0  0  0  0  0  0
   53.6055    8.1711   11.9147 C   0  0  0  0  0  0  0  0  0  0  0  0
   54.4268    7.9443   10.8166 C   0  0  0  0  0  0  0  0  0  0  0  0
   54.1058    8.4029    9.5385 C   0  0  0  0  0  0  0  0  0  0  0  0
   52.9313    9.1091    9.3423 C   0  0  0  0  0  0  0  0  0  0  0  0
   52.0921    9.3518   10.4275 C   0  0  0  0  0  0  0  0  0  0  0  0
   52.4108    8.8930   11.7329 C   0  0  0  0  0  0  0  0  0  0  0  0
   51.5921    9.1082   12.8759 C   0  0  0  0  0  0  0  0  0  0  0  0
   50.3489    9.9066   12.7767 C   0  0  0  0  0  0  0  0  0  0  0  0
   49.0888    9.2865   12.6959 C   0  0  0  0  0  0  0  0  0  0  0  0
   47.9240   10.0540   12.6108 C   0  0  0  0  0  0  0  0  0  0  0  0
   48.0153   11.4410   12.6030 C   0  0  0  0  0  0  0  0  0  0  0  0
   46.8999   12.1783   12.5130 F   0  0  0  0  0  0  0  0  0  0  0  0
   49.2490   12.0789   12.6810 C   0  0  0  0  0  0  0  0  0  0  0  0
   50.4135   11.3136   12.7705 C   0  0  0  0  0  0  0  0  0  0  0  0
   53.7284    7.2912   15.5101 C   0  0  0  0  0  0  0  0  0  0  0  0
   54.2290    8.2065   16.6039 C   0  0  0  0  0  0  0  0  0  0  0  0
   55.2035    7.3671   15.8371 C   0  0  0  0  0  0  0  0  0  0  0  0
   48.3131    5.2951   19.6462 C   0  0  0  0  0  0  0  0  0  0  0  0
   47.9211    5.4893   21.1077 C   0  0  0  0  0  0  0  0  0  0  0  0
   47.1761    6.4900   21.3271 O   0  0  0  0  0  0  0  0  0  0  0  0
   48.3786    4.6316   21.9072 O   0  0  0  0  0  0  0  0  0  0  0  0
   47.3727    6.2436   19.1670 H   0  0  0  0  0  0  0  0  0  0  0  0
   47.2380    8.9529   18.4333 H   0  0  0  0  0  0  0  0  0  0  0  0
   48.2153    7.8385   16.5764 H   0  0  0  0  0  0  0  0  0  0  0  0
   49.1546    6.7511   17.5593 H   0  0  0  0  0  0  0  0  0  0  0  0
   50.6008    8.6620   18.3337 H   0  0  0  0  0  0  0  0  0  0  0  0
   50.0558   10.6005   17.9561 H   0  0  0  0  0  0  0  0  0  0  0  0
   51.2265    7.3820   16.2421 H   0  0  0  0  0  0  0  0  0  0  0  0
   50.8402   10.2508   15.1752 H   0  0  0  0  0  0  0  0  0  0  0  0
   55.5074    7.2700   11.2450 H   0  0  0  0  0  0  0  0  0  0  0  0
   54.6299    6.6226    9.0257 H   0  0  0  0  0  0  0  0  0  0  0  0
   52.1916    6.8074    8.5709 H   0  0  0  0  0  0  0  0  0  0  0  0
   50.6769    7.6385   10.3093 H   0  0  0  0  0  0  0  0  0  0  0  0
   49.3740    6.7921   13.6389 H   0  0  0  0  0  0  0  0  0  0  0  0
   46.9471    7.1566   13.2878 H   0  0  0  0  0  0  0  0  0  0  0  0
   47.7517   10.8917   11.3488 H   0  0  0  0  0  0  0  0  0  0  0  0
   50.1922   10.5598   11.6946 H   0  0  0  0  0  0  0  0  0  0  0  0
   54.0093    9.9924   15.8665 H   0  0  0  0  0  0  0  0  0  0  0  0
   54.1623    8.2539   17.6644 H   0  0  0  0  0  0  0  0  0  0  0  0
   53.8795    6.9228   16.4546 H   0  0  0  0  0  0  0  0  0  0  0  0
   55.9154    7.6276   15.1849 H   0  0  0  0  0  0  0  0  0  0  0  0
   56.2092    8.9699   16.3850 H   0  0  0  0  0  0  0  0  0  0  0  0
   47.6698    8.2631   20.8139 H   0  0  0  0  0  0  0  0  0  0  0  0
   48.9816    9.1947   20.0907 H   0  0  0  0  0  0  0  0  0  0  0  0
   47.0296    7.3733   19.7804 H   0  0  0  0  0  0  0  0  0  0  0  0
   49.3063    7.2276   19.7049 H   0  0  0  0  0  0  0  0  0  0  0  0
   50.3345    6.0713   17.8339 H   0  0  0  0  0  0  0  0  0  0  0  0
   48.7638    5.7836   17.0679 H   0  0  0  0  0  0  0  0  0  0  0  0
   49.7664    8.6335   17.5740 H   0  0  0  0  0  0  0  0  0  0  0  0
   47.5444    8.1110   17.1913 H   0  0  0  0  0  0  0  0  0  0  0  0
   50.2693    6.7862   15.1514 H   0  0  0  0  0  0  0  0  0  0  0  0
   51.1630    9.6612   15.8226 H   0  0  0  0  0  0  0  0  0  0  0  0
   55.3489    7.3872   10.9626 H   0  0  0  0  0  0  0  0  0  0  0  0
   54.7717    8.1959    8.7042 H   0  0  0  0  0  0  0  0  0  0  0  0
   52.6593    9.4646    8.3536 H   0  0  0  0  0  0  0  0  0  0  0  0
   51.1710    9.9011   10.2478 H   0  0  0  0  0  0  0  0  0  0  0  0
   49.0122    8.2007   12.7198 H   0  0  0  0  0  0  0  0  0  0  0  0
   46.9515    9.5762   12.5666 H   0  0  0  0  0  0  0  0  0  0  0  0
   49.2965   13.1626   12.6787 H   0  0  0  0  0  0  0  0  0  0  0  0
   51.3777   11.8128   12.8489 H   0  0  0  0  0  0  0  0  0  0  0  0
   53.2240    6.3836   15.8302 H   0  0  0  0  0  0  0  0  0  0  0  0
   54.0066    7.9308   17.6302 H   0  0  0  0  0  0  0  0  0  0  0  0
   54.2318    9.2756   16.4246 H   0  0  0  0  0  0  0  0  0  0  0  0
   55.8675    7.8650   15.1346 H   0  0  0  0  0  0  0  0  0  0  0  0
   55.6490    6.5151   16.3391 H   0  0  0  0  0  0  0  0  0  0  0  0
   49.1667    4.6134   19.5779 H   0  0  0  0  0  0  0  0  0  0  0  0
   47.4572    4.8453   19.1305 H   0  0  0  0  0  0  0  0  0  0  0  0
  2  1  1  0
  2  3  1  0
  3  4  1  0
  4  5  1  0
  4  6  1  0
  6  7  2  0
  7  8  1  0
  8  9  2  0
  9 10  1  0
 10 11  2  0
 11 12  1  0
 12 13  2  0
 13 14  1  0
 14 15  2  0
 15 16  1  0
 11 16  1  0
 16 17  2  0
  8 17  1  0
 17 18  1  0
 18 19  2  0
 19 20  1  0
 20 21  2  0
 21 22  1  0
 21 23  1  0
 23 24  2  0
 18 24  1  0
  9 25  1  0
 25 26  1  0
 26 27  1  0
 25 27  1  0
  2 28  1  0
 28 29  1  0
 29 30  2  0
 29 31  1  0
 34 33  1  0
 34 35  1  0
 35 36  1  0
 36 37  1  0
 36 38  1  0
 38 39  2  0
 39 40  1  0
 40 41  2  0
 41 42  1  0
 42 43  2  0
 43 44  1  0
 44 45  2  0
 45 46  1  0
 46 47  2  0
 47 48  1  0
 43 48  1  0
 48 49  2  0
 40 49  1  0
 49 50  1  0
 50 51  2  0
 51 52  1  0
 52 53  2  0
 53 54  1  0
 53 55  1  0
 55 56  2  0
 50 56  1  0
 41 57  1  0
 57 58  1  0
 58 59  1  0
 57 59  1  0
 34 60  1  0
 60 61  1  0
 61 62  2  0
 61 63  1  0
  1 64  1  0
  2 65  1  6
  3 66  1  0
  3 67  1  0
  4 68  1  6
  5 69  1  0
  6 70  1  0
  7 71  1  0
 12 72  1  0
 13 73  1  0
 14 74  1  0
 15 75  1  0
 19 76  1  0
 20 77  1  0
 23 78  1  0
 24 79  1  0
 25 80  1  0
 26 81  1  0
 26 82  1  0
 27 83  1  0
 27 84  1  0
 28 85  1  0
 28 86  1  0
 33 87  1  0
 34 88  1  6
 35 89  1  0
 35 90  1  0
 36 91  1  6
 37 92  1  0
 38 93  1  0
 39 94  1  0
 44 95  1  0
 45 96  1  0
 46 97  1  0
 47 98  1  0
 51 99  1  0
 52100  1  0
 55101  1  0
 56102  1  0
 57103  1  0
 58104  1  0
 58105  1  0
 59106  1  0
 59107  1  0
 60108  1  0
 60109  1  0
M  CHG  3  31  -1  32   2  63  -1
M  END
> <Uni-Dock RESULT> 
ENERGY=   -5.746  LOWER_BOUND=    3.512  UPPER_BOUND=    9.054
INTER + INTRA:          -5.746
INTER:                  -5.746
INTRA:                   0.000
UNBOUND:                 0.000

$$$$

     RDKit          3D

109114  0  0  0  0  0  0  0  0999 V2000
   53.7864   12.5177   14.1496 O   0  0  0  0  0  0  0  0  0  0  0  0
   52.3514   12.6000   14.2060 C   0  0  2  0  0  0  0  0  0  0  0  0
   51.7929   11.1792   14.3705 C   0  0  0  0  0  0  0  0  0  0  0  0
   50.2704   11.0633   14.2597 C   0  0  2  0  0  0  0  0  0  0  0  0
   49.6517   11.9017   15.2308 O   0  0  0  0  0  0  0  0  0  0  0  0
   49.8302    9.6352   14.4626 C   0  0  0  0  0  0  0  0  0  0  0  0
   48.9641    9.1779   15.3837 C   0  0  0  0  0  0  0  0  0  0  0  0
   48.6606    7.7395   15.5014 C   0  0  0  0  0  0  0  0  0  0  0  0
   47.7882    7.1133   14.5920 C   0  0  0  0  0  0  0  0  0  0  0  0
   47.5063    5.7867   14.6919 N   0  0  0  0  0  0  0  0  0  0  0  0
   48.0798    5.0504   15.6511 C   0  0  0  0  0  0  0  0  0  0  0  0
   47.7761    3.6956   15.6925 C   0  0  0  0  0  0  0  0  0  0  0  0
   48.3228    2.8394   16.6480 C   0  0  0  0  0  0  0  0  0  0  0  0
   49.1969    3.3488   17.5954 C   0  0  0  0  0  0  0  0  0  0  0  0
   49.5156    4.7067   17.5802 C   0  0  0  0  0  0  0  0  0  0  0  0
   48.9620    5.5838   16.6108 C   0  0  0  0  0  0  0  0  0  0  0  0
   49.2456    6.9741   16.5389 C   0  0  0  0  0  0  0  0  0  0  0  0
   50.1249    7.6205   17.5388 C   0  0  0  0  0  0  0  0  0  0  0  0
   51.4785    7.8813   17.2579 C   0  0  0  0  0  0  0  0  0  0  0  0
   52.3004    8.4914   18.2106 C   0  0  0  0  0  0  0  0  0  0  0  0
   51.7716    8.8376   19.4482 C   0  0  0  0  0  0  0  0  0  0  0  0
   52.5637    9.4041   20.3688 F   0  0  0  0  0  0  0  0  0  0  0  0
   50.4371    8.5954   19.7485 C   0  0  0  0  0  0  0  0  0  0  0  0
   49.6150    7.9928   18.7942 C   0  0  0  0  0  0  0  0  0  0  0  0
   47.0874    7.8870   13.4835 C   0  0  0  0  0  0  0  0  0  0  0  0
   47.7793    8.0666   12.1498 C   0  0  0  0  0  0  0  0  0  0  0  0
   46.5801    7.1759   12.2460 C   0  0  0  0  0  0  0  0  0  0  0  0
   51.8432   13.3886   13.0038 C   0  0  0  0  0  0  0  0  0  0  0  0
   51.9975   12.6049   11.7053 C   0  0  0  0  0  0  0  0  0  0  0  0
   53.1142   12.0247   11.5637 O   0  0  0  0  0  0  0  0  0  0  0  0
   50.9807   12.6153   10.9534 O   0  0  0  0  0  0  0  0  0  0  0  0
   49.9051    8.6215   15.2712 Ca  0  0  0  0  0 15  0  0  0  0  0  0
   53.0724   12.5974   13.9527 O   0  0  0  0  0  0  0  0  0  0  0  0
   52.7687   11.7551   12.8319 C   0  0  2  0  0  0  0  0  0  0  0  0
   52.3239   10.3759   13.3454 C   0  0  0  0  0  0  0  0  0  0  0  0
   51.2899   10.4791   14.4743 C   0  0  2  0  0  0  0  0  0  0  0  0
   51.9330   10.9021   15.6744 O   0  0  0  0  0  0  0  0  0  0  0  0
   50.6718    9.1452   14.7781 C   0  0  0  0  0  0  0  0  0  0  0  0
   49.3778    8.9866   15.1031 C   0  0  0  0  0  0  0  0  0  0  0  0
   48.8158    7.6644   15.4219 C   0  0  0  0  0  0  0  0  0  0  0  0
   48.4427    6.7916   14.3853 C   0  0  0  0  0  0  0  0  0  0  0  0
   47.9630    5.5468   14.6515 N   0  0  0  0  0  0  0  0  0  0  0  0
   47.8412    5.1322   15.9190 C   0  0  0  0  0  0  0  0  0  0  0  0
   47.3654    3.8455   16.1417 C   0  0  0  0  0  0  0  0  0  0  0  0
   47.2078    3.3209   17.4250 C   0  0  0  0  0  0  0  0  0  0  0  0
   47.5334    4.0974   18.5240 C   0  0  0  0  0  0  0  0  0  0  0  0
   48.0101    5.3916   18.3274 C   0  0  0  0  0  0  0  0  0  0  0  0
   48.1709    5.9366   17.0262 C   0  0  0  0  0  0  0  0  0  0  0  0
   48.6552    7.2482   16.7652 C   0  0  0  0  0  0  0  0  0  0  0  0
   48.9694    8.1741   17.8773 C   0  0  0  0  0  0  0  0  0  0  0  0
   50.2949    8.3830   18.2996 C   0  0  0  0  0  0  0  0  0  0  0  0
   50.5759    9.2662   19.3455 C   0  0  0  0  0  0  0  0  0  0  0  0
   49.5346    9.9397   19.9734 C   0  0  0  0  0  0  0  0  0  0  0  0
   49.8016   10.7805   20.9820 F   0  0  0  0  0  0  0  0  0  0  0  0
   48.2151    9.7503   19.5757 C   0  0  0  0  0  0  0  0  0  0  0  0
   47.9330    8.8715   18.5280 C   0  0  0  0  0  0  0  0  0  0  0  0
   48.5486    7.1861   12.9195 C   0  0  0  0  0  0  0  0  0  0  0  0
   47.6029    8.2099   12.3344 C   0  0  0  0  0  0  0  0  0  0  0  0
   47.4658    6.7695   11.9487 C   0  0  0  0  0  0  0  0  0  0  0  0
   53.9926   11.6357   11.9288 C   0  0  0  0  0  0  0  0  0  0  0  0
   54.2049   12.9644   11.2099 C   0  0  0  0  0  0  0  0  0  0  0  0
   54.0392   13.9902   11.9343 O   0  0  0  0  0  0  0  0  0  0  0  0
   54.5234   12.8756    9.9955 O   0  0  0  0  0  0  0  0  0  0  0  0
   53.9681   12.2265   13.2187 H   0  0  0  0  0  0  0  0  0  0  0  0
   52.1207   13.1748   15.1121 H   0  0  0  0  0  0  0  0  0  0  0  0
   52.1221   10.8111   15.3527 H   0  0  0  0  0  0  0  0  0  0  0  0
   52.2698   10.5084   13.6447 H   0  0  0  0  0  0  0  0  0  0  0  0
   49.9377   11.3797   13.2643 H   0  0  0  0  0  0  0  0  0  0  0  0
   48.9409   12.3733   14.7532 H   0  0  0  0  0  0  0  0  0  0  0  0
   50.2933    8.9265   13.7744 H   0  0  0  0  0  0  0  0  0  0  0  0
   48.4958    9.8373   16.1103 H   0  0  0  0  0  0  0  0  0  0  0  0
   47.0951    3.2955   14.9458 H   0  0  0  0  0  0  0  0  0  0  0  0
   48.0645    1.7831   16.6451 H   0  0  0  0  0  0  0  0  0  0  0  0
   49.6401    2.6946   18.3400 H   0  0  0  0  0  0  0  0  0  0  0  0
   50.2133    5.0775   18.3291 H   0  0  0  0  0  0  0  0  0  0  0  0
   51.8945    7.6258   16.2845 H   0  0  0  0  0  0  0  0  0  0  0  0
   53.3406    8.6994   17.9880 H   0  0  0  0  0  0  0  0  0  0  0  0
   50.0469    8.8809   20.7223 H   0  0  0  0  0  0  0  0  0  0  0  0
   48.5679    7.8140   19.0311 H   0  0  0  0  0  0  0  0  0  0  0  0
   46.4656    8.7149   13.8287 H   0  0  0  0  0  0  0  0  0  0  0  0
   47.6685    9.0235   11.6525 H   0  0  0  0  0  0  0  0  0  0  0  0
   48.7469    7.5988   12.0024 H   0  0  0  0  0  0  0  0  0  0  0  0
   46.7462    6.1061   12.1537 H   0  0  0  0  0  0  0  0  0  0  0  0
   45.6517    7.5246   11.8101 H   0  0  0  0  0  0  0  0  0  0  0  0
   52.4163   14.3152   12.8891 H   0  0  0  0  0  0  0  0  0  0  0  0
   50.7957   13.6696   13.1513 H   0  0  0  0  0  0  0  0  0  0  0  0
   53.4460   13.4131   13.5182 H   0  0  0  0  0  0  0  0  0  0  0  0
   51.9314   12.2186   12.2977 H   0  0  0  0  0  0  0  0  0  0  0  0
   51.9255    9.7992   12.5009 H   0  0  0  0  0  0  0  0  0  0  0  0
   53.2038    9.8367   13.7262 H   0  0  0  0  0  0  0  0  0  0  0  0
   50.5119   11.2122   14.2216 H   0  0  0  0  0  0  0  0  0  0  0  0
   52.4358   11.7060   15.4099 H   0  0  0  0  0  0  0  0  0  0  0  0
   51.3379    8.2848   14.7531 H   0  0  0  0  0  0  0  0  0  0  0  0
   48.7136    9.8423   15.2029 H   0  0  0  0  0  0  0  0  0  0  0  0
   47.1111    3.2288   15.2832 H   0  0  0  0  0  0  0  0  0  0  0  0
   46.8410    2.3056   17.5554 H   0  0  0  0  0  0  0  0  0  0  0  0
   47.4278    3.7031   19.5297 H   0  0  0  0  0  0  0  0  0  0  0  0
   48.2675    5.9797   19.2051 H   0  0  0  0  0  0  0  0  0  0  0  0
   51.1146    7.8711   17.7983 H   0  0  0  0  0  0  0  0  0  0  0  0
   51.5993    9.4409   19.6590 H   0  0  0  0  0  0  0  0  0  0  0  0
   47.4185   10.2902   20.0762 H   0  0  0  0  0  0  0  0  0  0  0  0
   46.9021    8.7363   18.2052 H   0  0  0  0  0  0  0  0  0  0  0  0
   49.5604    7.1786   12.5237 H   0  0  0  0  0  0  0  0  0  0  0  0
   48.0046    8.9038   11.6023 H   0  0  0  0  0  0  0  0  0  0  0  0
   46.8397    8.6366   12.9750 H   0  0  0  0  0  0  0  0  0  0  0  0
   46.6106    6.2160   12.3288 H   0  0  0  0  0  0  0  0  0  0  0  0
   47.7743    6.4766   10.9510 H   0  0  0  0  0  0  0  0  0  0  0  0
   53.8642   10.8331   11.1958 H   0  0  0  0  0  0  0  0  0  0  0  0
   54.8906   11.4334   12.5234 H   0  0  0  0  0  0  0  0  0  0  0  0
  2  1  1  0
  2  3  1  0
  3  4  1  0
  4  5  1  0
  4  6  1  0
  6  7  2  0
  7  8  1  0
  8  9  2  0
  9 10  1  0
 10 11  2  0
 11 12  1  0
 12 13  2  0
 13 14  1  0
 14 15  2  0
 15 16  1  0
 11 16  1  0
 16 17  2  0
  8 17  1  0
 17 18  1  0
 18 19  2  0
 19 20  1  0
 20 21  2  0
 21 22  1  0
 21 23  1  0
 23 24  2  0
 18 24  1  0
  9 25  1  0
 25 26  1  0
 26 27  1  0
 25 27  1  0
  2 28  1  0
 28 29  1  0
 29 30  2  0
 29 31  1  0
 34 33  1  0
 34 35  1  0
 35 36  1  0
 36 37  1  0
 36 38  1  0
 38 39  2  0
 39 40  1  0
 40 41  2  0
 41 42  1  0
 42 43  2  0
 43 44  1  0
 44 45  2  0
 45 46  1  0
 46 47  2  0
 47 48  1  0
 43 48  1  0
 48 49  2  0
 40 49  1  0
 49 50  1  0
 50 51  2  0
 51 52  1  0
 52 53  2  0
 53 54  1  0
 53 55  1  0
 55 56  2  0
 50 56  1  0
 41 57  1  0
 57 58  1  0
 58 59  1  0
 57 59  1  0
 34 60  1  0
 60 61  1  0
 61 62  2  0
 61 63  1  0
  1 64  1  0
  2 65  1  6
  3 66  1  0
  3 67  1  0
  4 68  1  6
  5 69  1  0
  6 70  1  0
  7 71  1  0
 12 72  1  0
 13 73  1  0
 14 74  1  0
 15 75  1  0
 19 76  1  0
 20 77  1  0
 23 78  1  0
 24 79  1  0
 25 80  1  0
 26 81  1  0
 26 82  1  0
 27 83  1  0
 27 84  1  0
 28 85  1  0
 28 86  1  0
 33 87  1  0
 34 88  1  6
 35 89  1  0
 35 90  1  0
 36 91  1  6
 37 92  1  0
 38 93  1  0
 39 94  1  0
 44 95  1  0
 45 96  1  0
 46 97  1  0
 47 98  1  0
 51 99  1  0
 52100  1  0
 55101  1  0
 56102  1  0
 57103  1  0
 58104  1  0
 58105  1  0
 59106  1  0
 59107  1  0
 60108  1  0
 60109  1  0
M  CHG  3  31  -1  32   2  63  -1
M  END
> <Uni-Dock RESULT> 
ENERGY=   -5.730  LOWER_BOUND=    2.832  UPPER_BOUND=    4.747
INTER + INTRA:          -5.730
INTER:                  -5.730
INTRA:                   0.000
UNBOUND:                 0.000

$$$$

     RDKit          3D

109114  0  0  0  0  0  0  0  0999 V2000
   52.1201   12.8989   16.6831 O   0  0  0  0  0  0  0  0  0  0  0  0
   52.2164   12.0362   15.5362 C   0  0  2  0  0  0  0  0  0  0  0  0
   50.7948   11.7232   15.0474 C   0  0  0  0  0  0  0  0  0  0  0  0
   50.7058   10.6643   13.9454 C   0  0  2  0  0  0  0  0  0  0  0  0
   51.4846   11.0697   12.8239 O   0  0  0  0  0  0  0  0  0  0  0  0
   49.2728   10.4554   13.5239 C   0  0  0  0  0  0  0  0  0  0  0  0
   48.7654   10.5877   12.2859 C   0  0  0  0  0  0  0  0  0  0  0  0
   47.3263   10.3994   12.0243 C   0  0  0  0  0  0  0  0  0  0  0  0
   46.7737    9.1075   11.9479 C   0  0  0  0  0  0  0  0  0  0  0  0
   45.4470    8.9260   11.7107 N   0  0  0  0  0  0  0  0  0  0  0  0
   44.6407    9.9849   11.5698 C   0  0  0  0  0  0  0  0  0  0  0  0
   43.2901    9.7427   11.3538 C   0  0  0  0  0  0  0  0  0  0  0  0
   42.3648   10.7745   11.1985 C   0  0  0  0  0  0  0  0  0  0  0  0
   42.7983   12.0897   11.2561 C   0  0  0  0  0  0  0  0  0  0  0  0
   44.1500   12.3617   11.4669 C   0  0  0  0  0  0  0  0  0  0  0  0
   45.0972   11.3162   11.6250 C   0  0  0  0  0  0  0  0  0  0  0  0
   46.4855   11.5242   11.8437 C   0  0  0  0  0  0  0  0  0  0  0  0
   47.0522   12.8913   11.8674 C   0  0  0  0  0  0  0  0  0  0  0  0
   47.3143   13.5500   13.0825 C   0  0  0  0  0  0  0  0  0  0  0  0
   47.8485   14.8422   13.0931 C   0  0  0  0  0  0  0  0  0  0  0  0
   48.1173   15.4805   11.8883 C   0  0  0  0  0  0  0  0  0  0  0  0
   48.6106   16.7264   11.8976 F   0  0  0  0  0  0  0  0  0  0  0  0
   47.8721   14.8500   10.6750 C   0  0  0  0  0  0  0  0  0  0  0  0
   47.3455   13.5568   10.6651 C   0  0  0  0  0  0  0  0  0  0  0  0
   47.6290    7.8551   12.0839 C   0  0  0  0  0  0  0  0  0  0  0  0
   47.8893    7.2779   13.4583 C   0  0  0  0  0  0  0  0  0  0  0  0
   47.0092    6.5371   12.5003 C   0  0  0  0  0  0  0  0  0  0  0  0
   53.0905   10.8348   15.8798 C   0  0  0  0  0  0  0  0  0  0  0  0
   52.3941    9.8857   16.8485 C   0  0  0  0  0  0  0  0  0  0  0  0
   51.8108   10.4508   17.8201 O   0  0  0  0  0  0  0  0  0  0  0  0
   52.4678    8.6616   16.5395 O   0  0  0  0  0  0  0  0  0  0  0  0
   48.2062   11.0651   13.1026 Ca  0  0  0  0  0 15  0  0  0  0  0  0
   52.2219   12.2987   16.2538 O   0  0  0  0  0  0  0  0  0  0  0  0
   51.4608   11.1921   16.7579 C   0  0  2  0  0  0  0  0  0  0  0  0
   50.0558   11.2225   16.1343 C   0  0  0  0  0  0  0  0  0  0  0  0
   50.0958   11.4419   14.6162 C   0  0  2  0  0  0  0  0  0  0  0  0
   50.4289   12.7999   14.3379 O   0  0  0  0  0  0  0  0  0  0  0  0
   48.7522   11.2034   13.9902 C   0  0  0  0  0  0  0  0  0  0  0  0
   48.5883   10.6227   12.7897 C   0  0  0  0  0  0  0  0  0  0  0  0
   47.2548   10.4322   12.1972 C   0  0  0  0  0  0  0  0  0  0  0  0
   46.4585    9.3445   12.5953 C   0  0  0  0  0  0  0  0  0  0  0  0
   45.2047    9.1704   12.0971 N   0  0  0  0  0  0  0  0  0  0  0  0
   44.7073   10.0446   11.2129 C   0  0  0  0  0  0  0  0  0  0  0  0
   43.4145    9.8369   10.7467 C   0  0  0  0  0  0  0  0  0  0  0  0
   42.8068   10.6939    9.8284 C   0  0  0  0  0  0  0  0  0  0  0  0
   43.5034   11.7937    9.3573 C   0  0  0  0  0  0  0  0  0  0  0  0
   44.8018   12.0225    9.8074 C   0  0  0  0  0  0  0  0  0  0  0  0
   45.4311   11.1549   10.7388 C   0  0  0  0  0  0  0  0  0  0  0  0
   46.7512   11.3400   11.2350 C   0  0  0  0  0  0  0  0  0  0  0  0
   47.5961   12.4516   10.7418 C   0  0  0  0  0  0  0  0  0  0  0  0
   47.7596   13.6309   11.4910 C   0  0  0  0  0  0  0  0  0  0  0  0
   48.5668   14.6679   11.0156 C   0  0  0  0  0  0  0  0  0  0  0  0
   49.2094   14.5308    9.7907 C   0  0  0  0  0  0  0  0  0  0  0  0
   49.9770   15.5276    9.3295 F   0  0  0  0  0  0  0  0  0  0  0  0
   49.0638   13.3754    9.0299 C   0  0  0  0  0  0  0  0  0  0  0  0
   48.2611   12.3365    9.5055 C   0  0  0  0  0  0  0  0  0  0  0  0
   46.9494    8.3064   13.5935 C   0  0  0  0  0  0  0  0  0  0  0  0
   48.0220    7.3166   13.2002 C   0  0  0  0  0  0  0  0  0  0  0  0
   46.6126    6.8462   13.3866 C   0  0  0  0  0  0  0  0  0  0  0  0
   51.3871   11.2664   18.2800 C   0  0  0  0  0  0  0  0  0  0  0  0
   52.7585   10.9271   18.8559 C   0  0  0  0  0  0  0  0  0  0  0  0
   53.7351   11.4413   18.2345 O   0  0  0  0  0  0  0  0  0  0  0  0
   52.7475   10.1886   19.8750 O   0  0  0  0  0  0  0  0  0  0  0  0
   51.8900   12.2798   17.4235 H   0  0  0  0  0  0  0  0  0  0  0  0
   52.7318   12.6222   14.7642 H   0  0  0  0  0  0  0  0  0  0  0  0
   50.3574   12.6667   14.6910 H   0  0  0  0  0  0  0  0  0  0  0  0
   50.1686   11.4267   15.8983 H   0  0  0  0  0  0  0  0  0  0  0  0
   51.0925    9.7052   14.3091 H   0  0  0  0  0  0  0  0  0  0  0  0
   51.9961   10.2788   12.5620 H   0  0  0  0  0  0  0  0  0  0  0  0
   48.6063   10.1769   14.3416 H   0  0  0  0  0  0  0  0  0  0  0  0
   49.3803   10.8896   11.4415 H   0  0  0  0  0  0  0  0  0  0  0  0
   42.9497    8.7112   11.3145 H   0  0  0  0  0  0  0  0  0  0  0  0
   41.3144   10.5449   11.0357 H   0  0  0  0  0  0  0  0  0  0  0  0
   42.0899   12.9055   11.1479 H   0  0  0  0  0  0  0  0  0  0  0  0
   44.4608   13.4037   11.5187 H   0  0  0  0  0  0  0  0  0  0  0  0
   47.1197   13.0490   14.0297 H   0  0  0  0  0  0  0  0  0  0  0  0
   48.0581   15.3436   14.0309 H   0  0  0  0  0  0  0  0  0  0  0  0
   48.0963   15.3695    9.7466 H   0  0  0  0  0  0  0  0  0  0  0  0
   47.1642   13.0639    9.7119 H   0  0  0  0  0  0  0  0  0  0  0  0
   48.4395    7.7758   11.3573 H   0  0  0  0  0  0  0  0  0  0  0  0
   48.8788    6.8818   13.6563 H   0  0  0  0  0  0  0  0  0  0  0  0
   47.4203    7.7506   14.3147 H   0  0  0  0  0  0  0  0  0  0  0  0
   45.9460    6.5074   12.7227 H   0  0  0  0  0  0  0  0  0  0  0  0
   47.3980    5.6329   12.0480 H   0  0  0  0  0  0  0  0  0  0  0  0
   54.0154   11.1658   16.3646 H   0  0  0  0  0  0  0  0  0  0  0  0
   53.3739   10.3002   14.9679 H   0  0  0  0  0  0  0  0  0  0  0  0
   53.0602   12.2501   16.7909 H   0  0  0  0  0  0  0  0  0  0  0  0
   51.9696   10.2768   16.4345 H   0  0  0  0  0  0  0  0  0  0  0  0
   49.5423   10.2846   16.3811 H   0  0  0  0  0  0  0  0  0  0  0  0
   49.4813   12.0422   16.5903 H   0  0  0  0  0  0  0  0  0  0  0  0
   50.8538   10.7971   14.1512 H   0  0  0  0  0  0  0  0  0  0  0  0
   51.2424   12.9635   14.8674 H   0  0  0  0  0  0  0  0  0  0  0  0
   47.8872   11.5555   14.5491 H   0  0  0  0  0  0  0  0  0  0  0  0
   49.4436   10.3291   12.1850 H   0  0  0  0  0  0  0  0  0  0  0  0
   42.8602    8.9773   11.1151 H   0  0  0  0  0  0  0  0  0  0  0  0
   41.7897   10.5005    9.4960 H   0  0  0  0  0  0  0  0  0  0  0  0
   43.0436   12.4776    8.6510 H   0  0  0  0  0  0  0  0  0  0  0  0
   45.3263   12.8972    9.4301 H   0  0  0  0  0  0  0  0  0  0  0  0
   47.2723   13.7345   12.4591 H   0  0  0  0  0  0  0  0  0  0  0  0
   48.7071   15.5696   11.6015 H   0  0  0  0  0  0  0  0  0  0  0  0
   49.5787   13.2875    8.0793 H   0  0  0  0  0  0  0  0  0  0  0  0
   48.1608   11.4253    8.9183 H   0  0  0  0  0  0  0  0  0  0  0  0
   46.9559    8.6435   14.6265 H   0  0  0  0  0  0  0  0  0  0  0  0
   48.7585    7.0493   13.9518 H   0  0  0  0  0  0  0  0  0  0  0  0
   48.4142    7.3511   12.1902 H   0  0  0  0  0  0  0  0  0  0  0  0
   46.0456    6.5628   12.5031 H   0  0  0  0  0  0  0  0  0  0  0  0
   46.3838    6.2560   14.2672 H   0  0  0  0  0  0  0  0  0  0  0  0
   50.6374   10.5722   18.6722 H   0  0  0  0  0  0  0  0  0  0  0  0
   51.1341   12.2824   18.6033 H   0  0  0  0  0  0  0  0  0  0  0  0
  2  1  1  0
  2  3  1  0
  3  4  1  0
  4  5  1  0
  4  6  1  0
  6  7  2  0
  7  8  1  0
  8  9  2  0
  9 10  1  0
 10 11  2  0
 11 12  1  0
 12 13  2  0
 13 14  1  0
 14 15  2  0
 15 16  1  0
 11 16  1  0
 16 17  2  0
  8 17  1  0
 17 18  1  0
 18 19  2  0
 19 20  1  0
 20 21  2  0
 21 22  1  0
 21 23  1  0
 23 24  2  0
 18 24  1  0
  9 25  1  0
 25 26  1  0
 26 27  1  0
 25 27  1  0
  2 28  1  0
 28 29  1  0
 29 30  2  0
 29 31  1  0
 34 33  1  0
 34 35  1  0
 35 36  1  0
 36 37  1  0
 36 38  1  0
 38 39  2  0
 39 40  1  0
 40 41  2  0
 41 42  1  0
 42 43  2  0
 43 44  1  0
 44 45  2  0
 45 46  1  0
 46 47  2  0
 47 48  1  0
 43 48  1  0
 48 49  2  0
 40 49  1  0
 49 50  1  0
 50 51  2  0
 51 52  1  0
 52 53  2  0
 53 54  1  0
 53 55  1  0
 55 56  2  0
 50 56  1  0
 41 57  1  0
 57 58  1  0
 58 59  1  0
 57 59  1  0
 34 60  1  0
 60 61  1  0
 61 62  2  0
 61 63  1  0
  1 64  1  0
  2 65  1  6
  3 66  1  0
  3 67  1  0
  4 68  1  6
  5 69  1  0
  6 70  1  0
  7 71  1  0
 12 72  1  0
 13 73  1  0
 14 74  1  0
 15 75  1  0
 19 76  1  0
 20 77  1  0
 23 78  1  0
 24 79  1  0
 25 80  1  0
 26 81  1  0
 26 82  1  0
 27 83  1  0
 27 84  1  0
 28 85  1  0
 28 86  1  0
 33 87  1  0
 34 88  1  6
 35 89  1  0
 35 90  1  0
 36 91  1  6
 37 92  1  0
 38 93  1  0
 39 94  1  0
 44 95  1  0
 45 96  1  0
 46 97  1  0
 47 98  1  0
 51 99  1  0
 52100  1  0
 55101  1  0
 56102  1  0
 57103  1  0
 58104  1  0
 58105  1  0
 59106  1  0
 59107  1  0
 60108  1  0
 60109  1  0
M  CHG  3  31  -1  32   2  63  -1
M  END
> <Uni-Dock RESULT> 
ENERGY=   -5.710  LOWER_BOUND=    5.364  UPPER_BOUND=    8.943
INTER + INTRA:          -5.710
INTER:                  -5.710
INTRA:                   0.000
UNBOUND:                 0.000

$$$$
