
     RDKit          3D

109114  0  0  0  0  0  0  0  0999 V2000
   47.2127    6.9844   13.8581 O   0  0  0  0  0  0  0  0  0  0  0  0
   48.5703    7.3849   14.1441 C   0  0  2  0  0  0  0  0  0  0  0  0
   48.8386    7.0373   15.6153 C   0  0  0  0  0  0  0  0  0  0  0  0
   50.2605    7.2997   16.1248 C   0  0  2  0  0  0  0  0  0  0  0  0
   51.2096    6.6238   15.3123 O   0  0  0  0  0  0  0  0  0  0  0  0
   50.4305    6.7430   17.5089 C   0  0  0  0  0  0  0  0  0  0  0  0
   50.7768    7.4826   18.5745 C   0  0  0  0  0  0  0  0  0  0  0  0
   50.9373    6.9121   19.9250 C   0  0  0  0  0  0  0  0  0  0  0  0
   50.0097    7.2545   20.9270 C   0  0  0  0  0  0  0  0  0  0  0  0
   50.1163    6.7667   22.1908 N   0  0  0  0  0  0  0  0  0  0  0  0
   51.1146    5.9315   22.4963 C   0  0  0  0  0  0  0  0  0  0  0  0
   51.1696    5.4501   23.7963 C   0  0  0  0  0  0  0  0  0  0  0  0
   52.1644    4.5685   24.2232 C   0  0  0  0  0  0  0  0  0  0  0  0
   53.1494    4.1704   23.3327 C   0  0  0  0  0  0  0  0  0  0  0  0
   53.1214    4.6522   22.0235 C   0  0  0  0  0  0  0  0  0  0  0  0
   52.0992    5.5298   21.5736 C   0  0  0  0  0  0  0  0  0  0  0  0
   52.0057    6.0413   20.2499 C   0  0  0  0  0  0  0  0  0  0  0  0
   53.0193    5.6787   19.2392 C   0  0  0  0  0  0  0  0  0  0  0  0
   52.9488    4.4493   18.5597 C   0  0  0  0  0  0  0  0  0  0  0  0
   53.9070    4.1133   17.6018 C   0  0  0  0  0  0  0  0  0  0  0  0
   54.9378    5.0020   17.3200 C   0  0  0  0  0  0  0  0  0  0  0  0
   55.8652    4.6730   16.4094 F   0  0  0  0  0  0  0  0  0  0  0  0
   55.0253    6.2249   17.9732 C   0  0  0  0  0  0  0  0  0  0  0  0
   54.0694    6.5619   18.9335 C   0  0  0  0  0  0  0  0  0  0  0  0
   48.8522    8.2060   20.6625 C   0  0  0  0  0  0  0  0  0  0  0  0
   47.5168    7.9893   21.3450 C   0  0  0  0  0  0  0  0  0  0  0  0
   47.6486    7.7358   19.8768 C   0  0  0  0  0  0  0  0  0  0  0  0
   48.6857    8.8641   13.8083 C   0  0  0  0  0  0  0  0  0  0  0  0
   50.1092    9.3684   13.5927 C   0  0  0  0  0  0  0  0  0  0  0  0
   51.0147    8.4870   13.5341 O   0  0  0  0  0  0  0  0  0  0  0  0
   50.2187   10.6259   13.5252 O   0  0  0  0  0  0  0  0  0  0  0  0
   50.8191    6.6495   18.4900 Ca  0  0  0  0  0 15  0  0  0  0  0  0
   50.3642    9.8232   16.1470 O   0  0  0  0  0  0  0  0  0  0  0  0
   48.9376    9.9077   16.2498 C   0  0  2  0  0  0  0  0  0  0  0  0
   48.4095    9.1309   17.4700 C   0  0  0  0  0  0  0  0  0  0  0  0
   49.2441    9.2625   18.7536 C   0  0  2  0  0  0  0  0  0  0  0  0
   49.7919   10.5700   18.8838 O   0  0  0  0  0  0  0  0  0  0  0  0
   50.3824    8.2863   18.8221 C   0  0  0  0  0  0  0  0  0  0  0  0
   50.5282    7.3611   19.7817 C   0  0  0  0  0  0  0  0  0  0  0  0
   51.6491    6.4096   19.7397 C   0  0  0  0  0  0  0  0  0  0  0  0
   52.8837    6.7604   20.3140 C   0  0  0  0  0  0  0  0  0  0  0  0
   53.9552    5.9275   20.2486 N   0  0  0  0  0  0  0  0  0  0  0  0
   53.8473    4.7536   19.6122 C   0  0  0  0  0  0  0  0  0  0  0  0
   54.9774    3.9486   19.5472 C   0  0  0  0  0  0  0  0  0  0  0  0
   54.9689    2.7119   18.8998 C   0  0  0  0  0  0  0  0  0  0  0  0
   53.8007    2.2606   18.3022 C   0  0  0  0  0  0  0  0  0  0  0  0
   52.6538    3.0516   18.3527 C   0  0  0  0  0  0  0  0  0  0  0  0
   52.6520    4.3096   19.0085 C   0  0  0  0  0  0  0  0  0  0  0  0
   51.5169    5.1607   19.0900 C   0  0  0  0  0  0  0  0  0  0  0  0
   50.2096    4.7440   18.5317 C   0  0  0  0  0  0  0  0  0  0  0  0
   49.3405    3.9378   19.2906 C   0  0  0  0  0  0  0  0  0  0  0  0
   48.1030    3.5456   18.7766 C   0  0  0  0  0  0  0  0  0  0  0  0
   47.7205    3.9630   17.5069 C   0  0  0  0  0  0  0  0  0  0  0  0
   46.5292    3.5859   17.0249 F   0  0  0  0  0  0  0  0  0  0  0  0
   48.5602    4.7582   16.7377 C   0  0  0  0  0  0  0  0  0  0  0  0
   49.8018    5.1449   17.2482 C   0  0  0  0  0  0  0  0  0  0  0  0
   53.0994    8.0888   21.0264 C   0  0  0  0  0  0  0  0  0  0  0  0
   53.9496    8.1578   22.2776 C   0  0  0  0  0  0  0  0  0  0  0  0
   52.4635    8.3327   22.3769 C   0  0  0  0  0  0  0  0  0  0  0  0
   48.2764    9.5046   14.9351 C   0  0  0  0  0  0  0  0  0  0  0  0
   48.5302    8.0318   14.6294 C   0  0  0  0  0  0  0  0  0  0  0  0
   47.5122    7.3545   14.3106 O   0  0  0  0  0  0  0  0  0  0  0  0
   49.7386    7.6694   14.7611 O   0  0  0  0  0  0  0  0  0  0  0  0
   47.2141    6.0146   13.8583 H   0  0  0  0  0  0  0  0  0  0  0  0
   49.2054    6.7835   13.4865 H   0  0  0  0  0  0  0  0  0  0  0  0
   48.1106    7.5580   16.2531 H   0  0  0  0  0  0  0  0  0  0  0  0
   48.6089    5.9673   15.7351 H   0  0  0  0  0  0  0  0  0  0  0  0
   50.4915    8.3724   16.1344 H   0  0  0  0  0  0  0  0  0  0  0  0
   51.3496    7.2448   14.5446 H   0  0  0  0  0  0  0  0  0  0  0  0
   50.2731    5.6727   17.6087 H   0  0  0  0  0  0  0  0  0  0  0  0
   50.9411    8.5536   18.4803 H   0  0  0  0  0  0  0  0  0  0  0  0
   50.4033    5.7641   24.5026 H   0  0  0  0  0  0  0  0  0  0  0  0
   52.1700    4.2025   25.2472 H   0  0  0  0  0  0  0  0  0  0  0  0
   53.9363    3.4875   23.6455 H   0  0  0  0  0  0  0  0  0  0  0  0
   53.9053    4.3268   21.3417 H   0  0  0  0  0  0  0  0  0  0  0  0
   52.1334    3.7585   18.7615 H   0  0  0  0  0  0  0  0  0  0  0  0
   53.8481    3.1731   17.0642 H   0  0  0  0  0  0  0  0  0  0  0  0
   55.8219    6.9164   17.7205 H   0  0  0  0  0  0  0  0  0  0  0  0
   54.1371    7.5268   19.4337 H   0  0  0  0  0  0  0  0  0  0  0  0
   49.1452    9.2449   20.5283 H   0  0  0  0  0  0  0  0  0  0  0  0
   46.9644    8.8653   21.6640 H   0  0  0  0  0  0  0  0  0  0  0  0
   47.4071    7.1340   22.0012 H   0  0  0  0  0  0  0  0  0  0  0  0
   47.6214    6.7083   19.5329 H   0  0  0  0  0  0  0  0  0  0  0  0
   47.2022    8.4452   19.1912 H   0  0  0  0  0  0  0  0  0  0  0  0
   48.2005    9.4687   14.5861 H   0  0  0  0  0  0  0  0  0  0  0  0
   48.1338    9.0738   12.8804 H   0  0  0  0  0  0  0  0  0  0  0  0
   50.5207    8.9697   15.6559 H   0  0  0  0  0  0  0  0  0  0  0  0
   48.7196   10.9724   16.4130 H   0  0  0  0  0  0  0  0  0  0  0  0
   47.3999    9.5121   17.6737 H   0  0  0  0  0  0  0  0  0  0  0  0
   48.2830    8.0658   17.2425 H   0  0  0  0  0  0  0  0  0  0  0  0
   48.5794    9.1073   19.6117 H   0  0  0  0  0  0  0  0  0  0  0  0
   50.3713   10.6782   18.0996 H   0  0  0  0  0  0  0  0  0  0  0  0
   51.1146    8.3446   18.0175 H   0  0  0  0  0  0  0  0  0  0  0  0
   49.8210    7.2562   20.5982 H   0  0  0  0  0  0  0  0  0  0  0  0
   55.8895    4.3036   20.0190 H   0  0  0  0  0  0  0  0  0  0  0  0
   55.8731    2.1144   18.8702 H   0  0  0  0  0  0  0  0  0  0  0  0
   53.7850    1.3036   17.7870 H   0  0  0  0  0  0  0  0  0  0  0  0
   51.7552    2.6821   17.8612 H   0  0  0  0  0  0  0  0  0  0  0  0
   49.6268    3.6139   20.2882 H   0  0  0  0  0  0  0  0  0  0  0  0
   47.4216    2.9344   19.3639 H   0  0  0  0  0  0  0  0  0  0  0  0
   48.2449    5.0977   15.7527 H   0  0  0  0  0  0  0  0  0  0  0  0
   50.4340    5.7908   16.6384 H   0  0  0  0  0  0  0  0  0  0  0  0
   53.1693    8.9486   20.3628 H   0  0  0  0  0  0  0  0  0  0  0  0
   54.3783    7.2389   22.6606 H   0  0  0  0  0  0  0  0  0  0  0  0
   54.5786    9.0301   22.4051 H   0  0  0  0  0  0  0  0  0  0  0  0
   52.0753    9.3270   22.5712 H   0  0  0  0  0  0  0  0  0  0  0  0
   51.8871    7.5340   22.8299 H   0  0  0  0  0  0  0  0  0  0  0  0
   48.7034   10.0845   14.1072 H   0  0  0  0  0  0  0  0  0  0  0  0
   47.2003    9.7101   14.9743 H   0  0  0  0  0  0  0  0  0  0  0  0
  2  1  1  0
  2  3  1  0
  3  4  1  0
  4  5  1  0
  4  6  1  0
  6  7  2  0
  7  8  1  0
  8  9  2  0
  9 10  1  0
 10 11  2  0
 11 12  1  0
 12 13  2  0
 13 14  1  0
 14 15  2  0
 15 16  1  0
 11 16  1  0
 16 17  2  0
  8 17  1  0
 17 18  1  0
 18 19  2  0
 19 20  1  0
 20 21  2  0
 21 22  1  0
 21 23  1  0
 23 24  2  0
 18 24  1  0
  9 25  1  0
 25 26  1  0
 26 27  1  0
 25 27  1  0
  2 28  1  0
 28 29  1  0
 29 30  2  0
 29 31  1  0
 34 33  1  0
 34 35  1  0
 35 36  1  0
 36 37  1  0
 36 38  1  0
 38 39  2  0
 39 40  1  0
 40 41  2  0
 41 42  1  0
 42 43  2  0
 43 44  1  0
 44 45  2  0
 45 46  1  0
 46 47  2  0
 47 48  1  0
 43 48  1  0
 48 49  2  0
 40 49  1  0
 49 50  1  0
 50 51  2  0
 51 52  1  0
 52 53  2  0
 53 54  1  0
 53 55  1  0
 55 56  2  0
 50 56  1  0
 41 57  1  0
 57 58  1  0
 58 59  1  0
 57 59  1  0
 34 60  1  0
 60 61  1  0
 61 62  2  0
 61 63  1  0
  1 64  1  0
  2 65  1  1
  3 66  1  0
  3 67  1  0
  4 68  1  1
  5 69  1  0
  6 70  1  0
  7 71  1  0
 12 72  1  0
 13 73  1  0
 14 74  1  0
 15 75  1  0
 19 76  1  0
 20 77  1  0
 23 78  1  0
 24 79  1  0
 25 80  1  0
 26 81  1  0
 26 82  1  0
 27 83  1  0
 27 84  1  0
 28 85  1  0
 28 86  1  0
 33 87  1  0
 34 88  1  1
 35 89  1  0
 35 90  1  0
 36 91  1  6
 37 92  1  0
 38 93  1  0
 39 94  1  0
 44 95  1  0
 45 96  1  0
 46 97  1  0
 47 98  1  0
 51 99  1  0
 52100  1  0
 55101  1  0
 56102  1  0
 57103  1  0
 58104  1  0
 58105  1  0
 59106  1  0
 59107  1  0
 60108  1  0
 60109  1  0
M  CHG  3  31  -1  32   2  63  -1
M  END
> <Uni-Dock RESULT> 
ENERGY=   -5.357  LOWER_BOUND=    0.000  UPPER_BOUND=    0.000
INTER + INTRA:          -5.357
INTER:                  -5.357
INTRA:                   0.000
UNBOUND:                 0.000

$$$$

     RDKit          3D

109114  0  0  0  0  0  0  0  0999 V2000
   49.1595   10.0518   21.2622 O   0  0  0  0  0  0  0  0  0  0  0  0
   48.5702   10.6287   20.0767 C   0  0  2  0  0  0  0  0  0  0  0  0
   49.4283   10.1779   18.8861 C   0  0  0  0  0  0  0  0  0  0  0  0
   48.9389   10.6062   17.4978 C   0  0  2  0  0  0  0  0  0  0  0  0
   47.6015   10.1748   17.2900 O   0  0  0  0  0  0  0  0  0  0  0  0
   49.7577    9.9436   16.4278 C   0  0  0  0  0  0  0  0  0  0  0  0
   50.4606   10.6148   15.5014 C   0  0  0  0  0  0  0  0  0  0  0  0
   51.2582    9.9405   14.4600 C   0  0  0  0  0  0  0  0  0  0  0  0
   52.6622   10.0282   14.5097 C   0  0  0  0  0  0  0  0  0  0  0  0
   53.4450    9.4357   13.5701 N   0  0  0  0  0  0  0  0  0  0  0  0
   52.8782    8.7405   12.5787 C   0  0  0  0  0  0  0  0  0  0  0  0
   53.7223    8.1425   11.6542 C   0  0  0  0  0  0  0  0  0  0  0  0
   53.2397    7.3886   10.5828 C   0  0  0  0  0  0  0  0  0  0  0  0
   51.8715    7.2437   10.4136 C   0  0  0  0  0  0  0  0  0  0  0  0
   51.0033    7.8474   11.3240 C   0  0  0  0  0  0  0  0  0  0  0  0
   51.4857    8.5953   12.4310 C   0  0  0  0  0  0  0  0  0  0  0  0
   50.6543    9.2193   13.4015 C   0  0  0  0  0  0  0  0  0  0  0  0
   49.1847    9.1262   13.2922 C   0  0  0  0  0  0  0  0  0  0  0  0
   48.5028    7.9774   13.7321 C   0  0  0  0  0  0  0  0  0  0  0  0
   47.1129    7.8963   13.6308 C   0  0  0  0  0  0  0  0  0  0  0  0
   46.4002    8.9598   13.0898 C   0  0  0  0  0  0  0  0  0  0  0  0
   45.0666    8.8759   12.9807 F   0  0  0  0  0  0  0  0  0  0  0  0
   47.0504   10.1076   12.6542 C   0  0  0  0  0  0  0  0  0  0  0  0
   48.4408   10.1899   12.7523 C   0  0  0  0  0  0  0  0  0  0  0  0
   53.3829   10.8086   15.5991 C   0  0  0  0  0  0  0  0  0  0  0  0
   54.7111   10.3160   16.1372 C   0  0  0  0  0  0  0  0  0  0  0  0
   53.4889   10.2388   16.9960 C   0  0  0  0  0  0  0  0  0  0  0  0
   48.5136   12.1343   20.2866 C   0  0  0  0  0  0  0  0  0  0  0  0
   47.5278   12.8751   19.3886 C   0  0  0  0  0  0  0  0  0  0  0  0
   46.7418   12.1574   18.7049 O   0  0  0  0  0  0  0  0  0  0  0  0
   47.6343   14.1344   19.4145 O   0  0  0  0  0  0  0  0  0  0  0  0
   50.2200    9.8118   15.4837 Ca  0  0  0  0  0 15  0  0  0  0  0  0
   49.3446   13.0989   17.5325 O   0  0  0  0  0  0  0  0  0  0  0  0
   50.3550   12.9475   18.5370 C   0  0  2  0  0  0  0  0  0  0  0  0
   51.4618   11.9762   18.0870 C   0  0  0  0  0  0  0  0  0  0  0  0
   51.9024   12.1042   16.6203 C   0  0  2  0  0  0  0  0  0  0  0  0
   51.8827   13.4610   16.1900 O   0  0  0  0  0  0  0  0  0  0  0  0
   51.0438   11.3168   15.6736 C   0  0  0  0  0  0  0  0  0  0  0  0
   51.4962   10.3322   14.8837 C   0  0  0  0  0  0  0  0  0  0  0  0
   50.5712    9.5777   14.0243 C   0  0  0  0  0  0  0  0  0  0  0  0
   50.2665   10.0568   12.7378 C   0  0  0  0  0  0  0  0  0  0  0  0
   49.3774    9.4134   11.9368 N   0  0  0  0  0  0  0  0  0  0  0  0
   48.7616    8.3089   12.3791 C   0  0  0  0  0  0  0  0  0  0  0  0
   47.8400    7.7022   11.5353 C   0  0  0  0  0  0  0  0  0  0  0  0
   47.1408    6.5527   11.9073 C   0  0  0  0  0  0  0  0  0  0  0  0
   47.3672    5.9877   13.1543 C   0  0  0  0  0  0  0  0  0  0  0  0
   48.2862    6.5796   14.0196 C   0  0  0  0  0  0  0  0  0  0  0  0
   49.0022    7.7475   13.6508 C   0  0  0  0  0  0  0  0  0  0  0  0
   49.9476    8.3971   14.4898 C   0  0  0  0  0  0  0  0  0  0  0  0
   50.2991    7.8402   15.8166 C   0  0  0  0  0  0  0  0  0  0  0  0
   51.2772    6.8339   15.9253 C   0  0  0  0  0  0  0  0  0  0  0  0
   51.6212    6.3075   17.1720 C   0  0  0  0  0  0  0  0  0  0  0  0
   50.9990    6.7881   18.3185 C   0  0  0  0  0  0  0  0  0  0  0  0
   51.3397    6.2805   19.5102 F   0  0  0  0  0  0  0  0  0  0  0  0
   50.0302    7.7801   18.2381 C   0  0  0  0  0  0  0  0  0  0  0  0
   49.6800    8.3021   16.9904 C   0  0  0  0  0  0  0  0  0  0  0  0
   50.8973   11.3221   12.1724 C   0  0  0  0  0  0  0  0  0  0  0  0
   51.2925   11.3944   10.7124 C   0  0  0  0  0  0  0  0  0  0  0  0
   52.3548   11.3229   11.7684 C   0  0  0  0  0  0  0  0  0  0  0  0
   49.7306   12.5832   19.8807 C   0  0  0  0  0  0  0  0  0  0  0  0
   49.0737   11.2079   19.8185 C   0  0  0  0  0  0  0  0  0  0  0  0
   49.3699   10.4158   20.7574 O   0  0  0  0  0  0  0  0  0  0  0  0
   48.3280   11.0278   18.8084 O   0  0  0  0  0  0  0  0  0  0  0  0
   48.9834    9.0994   21.2122 H   0  0  0  0  0  0  0  0  0  0  0  0
   47.5637   10.2052   20.0054 H   0  0  0  0  0  0  0  0  0  0  0  0
   50.4654   10.5095   19.0358 H   0  0  0  0  0  0  0  0  0  0  0  0
   49.4720    9.0786   18.9250 H   0  0  0  0  0  0  0  0  0  0  0  0
   48.9912   11.6951   17.3725 H   0  0  0  0  0  0  0  0  0  0  0  0
   47.0529   10.8857   17.7238 H   0  0  0  0  0  0  0  0  0  0  0  0
   49.7399    8.8573   16.4259 H   0  0  0  0  0  0  0  0  0  0  0  0
   50.4783   11.7022   15.4946 H   0  0  0  0  0  0  0  0  0  0  0  0
   54.7975    8.2580   11.7770 H   0  0  0  0  0  0  0  0  0  0  0  0
   53.9312    6.9246    9.8834 H   0  0  0  0  0  0  0  0  0  0  0  0
   51.4739    6.6642    9.5833 H   0  0  0  0  0  0  0  0  0  0  0  0
   49.9329    7.7208   11.1713 H   0  0  0  0  0  0  0  0  0  0  0  0
   49.0530    7.1502   14.1747 H   0  0  0  0  0  0  0  0  0  0  0  0
   46.5812    7.0189   13.9829 H   0  0  0  0  0  0  0  0  0  0  0  0
   46.4746   10.9377   12.2595 H   0  0  0  0  0  0  0  0  0  0  0  0
   48.9434   11.0967   12.4196 H   0  0  0  0  0  0  0  0  0  0  0  0
   53.2822   11.8888   15.5207 H   0  0  0  0  0  0  0  0  0  0  0  0
   55.4623   11.0570   16.3840 H   0  0  0  0  0  0  0  0  0  0  0  0
   55.1150    9.3911   15.7426 H   0  0  0  0  0  0  0  0  0  0  0  0
   53.0651    9.2607   17.1919 H   0  0  0  0  0  0  0  0  0  0  0  0
   53.3948   10.9362   17.8191 H   0  0  0  0  0  0  0  0  0  0  0  0
   49.5135   12.5720   20.1664 H   0  0  0  0  0  0  0  0  0  0  0  0
   48.2170   12.3492   21.3237 H   0  0  0  0  0  0  0  0  0  0  0  0
   48.7245   12.3356   17.6969 H   0  0  0  0  0  0  0  0  0  0  0  0
   50.8092   13.9424   18.6460 H   0  0  0  0  0  0  0  0  0  0  0  0
   52.3323   12.1713   18.7275 H   0  0  0  0  0  0  0  0  0  0  0  0
   51.1817   10.9335   18.2785 H   0  0  0  0  0  0  0  0  0  0  0  0
   52.9403   11.7592   16.5433 H   0  0  0  0  0  0  0  0  0  0  0  0
   50.9462   13.7389   16.2797 H   0  0  0  0  0  0  0  0  0  0  0  0
   49.9848   11.5718   15.6600 H   0  0  0  0  0  0  0  0  0  0  0  0
   52.5397   10.0341   14.8684 H   0  0  0  0  0  0  0  0  0  0  0  0
   47.6676    8.1454   10.5585 H   0  0  0  0  0  0  0  0  0  0  0  0
   46.4285    6.1107   11.2197 H   0  0  0  0  0  0  0  0  0  0  0  0
   46.8214    5.0983   13.4584 H   0  0  0  0  0  0  0  0  0  0  0  0
   48.4327    6.1264   14.9987 H   0  0  0  0  0  0  0  0  0  0  0  0
   51.7759    6.4579   15.0354 H   0  0  0  0  0  0  0  0  0  0  0  0
   52.3861    5.5398   17.2633 H   0  0  0  0  0  0  0  0  0  0  0  0
   49.5623    8.1655   19.1422 H   0  0  0  0  0  0  0  0  0  0  0  0
   48.9363    9.0985   16.9525 H   0  0  0  0  0  0  0  0  0  0  0  0
   50.5143   12.2459   12.6019 H   0  0  0  0  0  0  0  0  0  0  0  0
   51.1350   10.5196   10.0920 H   0  0  0  0  0  0  0  0  0  0  0  0
   51.1398   12.3367   10.2010 H   0  0  0  0  0  0  0  0  0  0  0  0
   52.9289   12.2187   11.9807 H   0  0  0  0  0  0  0  0  0  0  0  0
   52.9185   10.4013   11.8604 H   0  0  0  0  0  0  0  0  0  0  0  0
   48.9449   13.3051   20.1372 H   0  0  0  0  0  0  0  0  0  0  0  0
   50.4898   12.6123   20.6709 H   0  0  0  0  0  0  0  0  0  0  0  0
  2  1  1  0
  2  3  1  0
  3  4  1  0
  4  5  1  0
  4  6  1  0
  6  7  2  0
  7  8  1  0
  8  9  2  0
  9 10  1  0
 10 11  2  0
 11 12  1  0
 12 13  2  0
 13 14  1  0
 14 15  2  0
 15 16  1  0
 11 16  1  0
 16 17  2  0
  8 17  1  0
 17 18  1  0
 18 19  2  0
 19 20  1  0
 20 21  2  0
 21 22  1  0
 21 23  1  0
 23 24  2  0
 18 24  1  0
  9 25  1  0
 25 26  1  0
 26 27  1  0
 25 27  1  0
  2 28  1  0
 28 29  1  0
 29 30  2  0
 29 31  1  0
 34 33  1  0
 34 35  1  0
 35 36  1  0
 36 37  1  0
 36 38  1  0
 38 39  2  0
 39 40  1  0
 40 41  2  0
 41 42  1  0
 42 43  2  0
 43 44  1  0
 44 45  2  0
 45 46  1  0
 46 47  2  0
 47 48  1  0
 43 48  1  0
 48 49  2  0
 40 49  1  0
 49 50  1  0
 50 51  2  0
 51 52  1  0
 52 53  2  0
 53 54  1  0
 53 55  1  0
 55 56  2  0
 50 56  1  0
 41 57  1  0
 57 58  1  0
 58 59  1  0
 57 59  1  0
 34 60  1  0
 60 61  1  0
 61 62  2  0
 61 63  1  0
  1 64  1  0
  2 65  1  1
  3 66  1  0
  3 67  1  0
  4 68  1  1
  5 69  1  0
  6 70  1  0
  7 71  1  0
 12 72  1  0
 13 73  1  0
 14 74  1  0
 15 75  1  0
 19 76  1  0
 20 77  1  0
 23 78  1  0
 24 79  1  0
 25 80  1  0
 26 81  1  0
 26 82  1  0
 27 83  1  0
 27 84  1  0
 28 85  1  0
 28 86  1  0
 33 87  1  0
 34 88  1  1
 35 89  1  0
 35 90  1  0
 36 91  1  6
 37 92  1  0
 38 93  1  0
 39 94  1  0
 44 95  1  0
 45 96  1  0
 46 97  1  0
 47 98  1  0
 51 99  1  0
 52100  1  0
 55101  1  0
 56102  1  0
 57103  1  0
 58104  1  0
 58105  1  0
 59106  1  0
 59107  1  0
 60108  1  0
 60109  1  0
M  CHG  3  31  -1  32   2  63  -1
M  END
> <Uni-Dock RESULT> 
ENERGY=   -4.900  LOWER_BOUND=    3.807  UPPER_BOUND=    7.943
INTER + INTRA:          -4.900
INTER:                  -4.900
INTRA:                   0.000
UNBOUND:                 0.000

$$$$

     RDKit          3D

109114  0  0  0  0  0  0  0  0999 V2000
   45.9934    9.7331   20.8227 O   0  0  0  0  0  0  0  0  0  0  0  0
   46.6666   10.5844   19.8701 C   0  0  2  0  0  0  0  0  0  0  0  0
   47.9345    9.8421   19.4247 C   0  0  0  0  0  0  0  0  0  0  0  0
   48.7741   10.5263   18.3397 C   0  0  2  0  0  0  0  0  0  0  0  0
   47.9766   10.8006   17.1967 O   0  0  0  0  0  0  0  0  0  0  0  0
   49.8678    9.6108   17.8705 C   0  0  0  0  0  0  0  0  0  0  0  0
   51.1745    9.9116   17.9382 C   0  0  0  0  0  0  0  0  0  0  0  0
   52.2307    8.9945   17.4706 C   0  0  0  0  0  0  0  0  0  0  0  0
   53.0846    8.3957   18.4160 C   0  0  0  0  0  0  0  0  0  0  0  0
   54.0810    7.5518   18.0398 N   0  0  0  0  0  0  0  0  0  0  0  0
   54.2544    7.2676   16.7449 C   0  0  0  0  0  0  0  0  0  0  0  0
   55.2760    6.3887   16.4151 C   0  0  0  0  0  0  0  0  0  0  0  0
   55.5426    6.0171   15.0960 C   0  0  0  0  0  0  0  0  0  0  0  0
   54.7815    6.5550   14.0699 C   0  0  0  0  0  0  0  0  0  0  0  0
   53.7570    7.4511   14.3772 C   0  0  0  0  0  0  0  0  0  0  0  0
   53.4626    7.8158   15.7180 C   0  0  0  0  0  0  0  0  0  0  0  0
   52.4227    8.7088   16.0970 C   0  0  0  0  0  0  0  0  0  0  0  0
   51.5705    9.3375   15.0680 C   0  0  0  0  0  0  0  0  0  0  0  0
   50.4931    8.6344   14.4996 C   0  0  0  0  0  0  0  0  0  0  0  0
   49.6876    9.2349   13.5304 C   0  0  0  0  0  0  0  0  0  0  0  0
   49.9553   10.5372   13.1253 C   0  0  0  0  0  0  0  0  0  0  0  0
   49.1894   11.1087   12.1849 F   0  0  0  0  0  0  0  0  0  0  0  0
   51.0098   11.2543   13.6763 C   0  0  0  0  0  0  0  0  0  0  0  0
   51.8182   10.6548   14.6441 C   0  0  0  0  0  0  0  0  0  0  0  0
   52.9592    8.6754   19.9064 C   0  0  0  0  0  0  0  0  0  0  0  0
   53.2395    7.5785   20.9135 C   0  0  0  0  0  0  0  0  0  0  0  0
   51.8358    8.0506   20.7031 C   0  0  0  0  0  0  0  0  0  0  0  0
   46.9179   11.9192   20.5551 C   0  0  0  0  0  0  0  0  0  0  0  0
   47.1844   13.0888   19.6127 C   0  0  0  0  0  0  0  0  0  0  0  0
   46.9910   12.8735   18.3812 O   0  0  0  0  0  0  0  0  0  0  0  0
   47.5989   14.1395   20.1801 O   0  0  0  0  0  0  0  0  0  0  0  0
   50.8047    9.3244   17.4675 Ca  0  0  0  0  0 15  0  0  0  0  0  0
   49.7268   12.5136   19.5735 O   0  0  0  0  0  0  0  0  0  0  0  0
   49.5697   11.8429   20.8299 C   0  0  2  0  0  0  0  0  0  0  0  0
   50.2968   10.4857   20.8435 C   0  0  0  0  0  0  0  0  0  0  0  0
   51.6787   10.4653   20.1716 C   0  0  2  0  0  0  0  0  0  0  0  0
   52.3779   11.6864   20.3875 O   0  0  0  0  0  0  0  0  0  0  0  0
   51.6127   10.2378   18.6893 C   0  0  0  0  0  0  0  0  0  0  0  0
   52.1816    9.2008   18.0576 C   0  0  0  0  0  0  0  0  0  0  0  0
   52.0205    9.0292   16.6056 C   0  0  0  0  0  0  0  0  0  0  0  0
   52.9142    9.6640   15.7249 C   0  0  0  0  0  0  0  0  0  0  0  0
   52.7649    9.5694   14.3777 N   0  0  0  0  0  0  0  0  0  0  0  0
   51.7394    8.8733   13.8693 C   0  0  0  0  0  0  0  0  0  0  0  0
   51.6120    8.8288   12.4869 C   0  0  0  0  0  0  0  0  0  0  0  0
   50.5735    8.1370   11.8612 C   0  0  0  0  0  0  0  0  0  0  0  0
   49.6353    7.4667   12.6334 C   0  0  0  0  0  0  0  0  0  0  0  0
   49.7410    7.4983   14.0231 C   0  0  0  0  0  0  0  0  0  0  0  0
   50.7930    8.1980   14.6684 C   0  0  0  0  0  0  0  0  0  0  0  0
   50.9510    8.2689   16.0789 C   0  0  0  0  0  0  0  0  0  0  0  0
   50.0339    7.5414   16.9866 C   0  0  0  0  0  0  0  0  0  0  0  0
   50.2626    6.1853   17.2860 C   0  0  0  0  0  0  0  0  0  0  0  0
   49.4085    5.4925   18.1462 C   0  0  0  0  0  0  0  0  0  0  0  0
   48.3268    6.1502   18.7205 C   0  0  0  0  0  0  0  0  0  0  0  0
   47.5163    5.4784   19.5485 F   0  0  0  0  0  0  0  0  0  0  0  0
   48.0788    7.4879   18.4406 C   0  0  0  0  0  0  0  0  0  0  0  0
   48.9286    8.1799   17.5742 C   0  0  0  0  0  0  0  0  0  0  0  0
   54.0860   10.5003   16.2207 C   0  0  0  0  0  0  0  0  0  0  0  0
   55.4189   10.4526   15.5035 C   0  0  0  0  0  0  0  0  0  0  0  0
   55.2795    9.8241   16.8579 C   0  0  0  0  0  0  0  0  0  0  0  0
   48.0955   11.7510   21.2126 C   0  0  0  0  0  0  0  0  0  0  0  0
   47.3347   10.8643   20.2318 C   0  0  0  0  0  0  0  0  0  0  0  0
   46.5986    9.9782   20.7510 O   0  0  0  0  0  0  0  0  0  0  0  0
   47.5620   11.1182   19.0100 O   0  0  0  0  0  0  0  0  0  0  0  0
   45.6433    8.9859   20.3132 H   0  0  0  0  0  0  0  0  0  0  0  0
   45.9752   10.6997   19.0297 H   0  0  0  0  0  0  0  0  0  0  0  0
   48.5604    9.6275   20.3023 H   0  0  0  0  0  0  0  0  0  0  0  0
   47.6117    8.8561   19.0567 H   0  0  0  0  0  0  0  0  0  0  0  0
   49.2161   11.4619   18.7051 H   0  0  0  0  0  0  0  0  0  0  0  0
   47.5290   11.6630   17.4211 H   0  0  0  0  0  0  0  0  0  0  0  0
   49.5408    8.6679   17.4412 H   0  0  0  0  0  0  0  0  0  0  0  0
   51.5081   10.8560   18.3618 H   0  0  0  0  0  0  0  0  0  0  0  0
   55.8820    5.9680   17.2153 H   0  0  0  0  0  0  0  0  0  0  0  0
   56.3446    5.3167   14.8752 H   0  0  0  0  0  0  0  0  0  0  0  0
   54.9749    6.2824   13.0346 H   0  0  0  0  0  0  0  0  0  0  0  0
   53.1726    7.8615   13.5554 H   0  0  0  0  0  0  0  0  0  0  0  0
   50.2664    7.6223   14.8270 H   0  0  0  0  0  0  0  0  0  0  0  0
   48.8462    8.7023   13.1004 H   0  0  0  0  0  0  0  0  0  0  0  0
   51.1865   12.2788   13.3666 H   0  0  0  0  0  0  0  0  0  0  0  0
   52.6361   11.2261   15.0803 H   0  0  0  0  0  0  0  0  0  0  0  0
   53.2701    9.6742   20.2046 H   0  0  0  0  0  0  0  0  0  0  0  0
   53.7379    7.8544   21.8354 H   0  0  0  0  0  0  0  0  0  0  0  0
   53.5067    6.5959   20.5431 H   0  0  0  0  0  0  0  0  0  0  0  0
   51.1458    7.3863   20.1959 H   0  0  0  0  0  0  0  0  0  0  0  0
   51.3794    8.6624   21.4712 H   0  0  0  0  0  0  0  0  0  0  0  0
   47.7495   11.8299   21.2666 H   0  0  0  0  0  0  0  0  0  0  0  0
   46.0392   12.1941   21.1567 H   0  0  0  0  0  0  0  0  0  0  0  0
   49.0016   12.1334   19.0045 H   0  0  0  0  0  0  0  0  0  0  0  0
   50.0602   12.4909   21.5697 H   0  0  0  0  0  0  0  0  0  0  0  0
   50.4211   10.2051   21.8980 H   0  0  0  0  0  0  0  0  0  0  0  0
   49.6796    9.6963   20.3983 H   0  0  0  0  0  0  0  0  0  0  0  0
   52.2735    9.6697   20.6359 H   0  0  0  0  0  0  0  0  0  0  0  0
   51.8167   12.3738   19.9695 H   0  0  0  0  0  0  0  0  0  0  0  0
   51.0450   10.9694   18.1156 H   0  0  0  0  0  0  0  0  0  0  0  0
   52.7483    8.4403   18.5854 H   0  0  0  0  0  0  0  0  0  0  0  0
   52.3501    9.3520   11.8853 H   0  0  0  0  0  0  0  0  0  0  0  0
   50.5089    8.1280   10.7790 H   0  0  0  0  0  0  0  0  0  0  0  0
   48.8168    6.9328   12.1573 H   0  0  0  0  0  0  0  0  0  0  0  0
   48.9824    6.9785   14.6060 H   0  0  0  0  0  0  0  0  0  0  0  0
   51.1112    5.6646   16.8489 H   0  0  0  0  0  0  0  0  0  0  0  0
   49.5884    4.4484   18.3920 H   0  0  0  0  0  0  0  0  0  0  0  0
   47.2416    8.0013   18.9103 H   0  0  0  0  0  0  0  0  0  0  0  0
   48.7310    9.2360   17.3890 H   0  0  0  0  0  0  0  0  0  0  0  0
   53.8058   11.4701   16.6275 H   0  0  0  0  0  0  0  0  0  0  0  0
   55.5203    9.7950   14.6479 H   0  0  0  0  0  0  0  0  0  0  0  0
   55.9744   11.3786   15.4222 H   0  0  0  0  0  0  0  0  0  0  0  0
   55.7393   10.3223   17.7049 H   0  0  0  0  0  0  0  0  0  0  0  0
   55.2900    8.7418   16.9193 H   0  0  0  0  0  0  0  0  0  0  0  0
   47.6348   12.7462   21.1726 H   0  0  0  0  0  0  0  0  0  0  0  0
   47.9933   11.3703   22.2354 H   0  0  0  0  0  0  0  0  0  0  0  0
  2  1  1  0
  2  3  1  0
  3  4  1  0
  4  5  1  0
  4  6  1  0
  6  7  2  0
  7  8  1  0
  8  9  2  0
  9 10  1  0
 10 11  2  0
 11 12  1  0
 12 13  2  0
 13 14  1  0
 14 15  2  0
 15 16  1  0
 11 16  1  0
 16 17  2  0
  8 17  1  0
 17 18  1  0
 18 19  2  0
 19 20  1  0
 20 21  2  0
 21 22  1  0
 21 23  1  0
 23 24  2  0
 18 24  1  0
  9 25  1  0
 25 26  1  0
 26 27  1  0
 25 27  1  0
  2 28  1  0
 28 29  1  0
 29 30  2  0
 29 31  1  0
 34 33  1  0
 34 35  1  0
 35 36  1  0
 36 37  1  0
 36 38  1  0
 38 39  2  0
 39 40  1  0
 40 41  2  0
 41 42  1  0
 42 43  2  0
 43 44  1  0
 44 45  2  0
 45 46  1  0
 46 47  2  0
 47 48  1  0
 43 48  1  0
 48 49  2  0
 40 49  1  0
 49 50  1  0
 50 51  2  0
 51 52  1  0
 52 53  2  0
 53 54  1  0
 53 55  1  0
 55 56  2  0
 50 56  1  0
 41 57  1  0
 57 58  1  0
 58 59  1  0
 57 59  1  0
 34 60  1  0
 60 61  1  0
 61 62  2  0
 61 63  1  0
  1 64  1  0
  2 65  1  1
  3 66  1  0
  3 67  1  0
  4 68  1  1
  5 69  1  0
  6 70  1  0
  7 71  1  0
 12 72  1  0
 13 73  1  0
 14 74  1  0
 15 75  1  0
 19 76  1  0
 20 77  1  0
 23 78  1  0
 24 79  1  0
 25 80  1  0
 26 81  1  0
 26 82  1  0
 27 83  1  0
 27 84  1  0
 28 85  1  0
 28 86  1  0
 33 87  1  0
 34 88  1  1
 35 89  1  0
 35 90  1  0
 36 91  1  6
 37 92  1  0
 38 93  1  0
 39 94  1  0
 44 95  1  0
 45 96  1  0
 46 97  1  0
 47 98  1  0
 51 99  1  0
 52100  1  0
 55101  1  0
 56102  1  0
 57103  1  0
 58104  1  0
 58105  1  0
 59106  1  0
 59107  1  0
 60108  1  0
 60109  1  0
M  CHG  3  31  -1  32   2  63  -1
M  END
> <Uni-Dock RESULT> 
ENERGY=   -4.564  LOWER_BOUND=    3.089  UPPER_BOUND=    6.156
INTER + INTRA:          -4.564
INTER:                  -4.564
INTRA:                   0.000
UNBOUND:                 0.000

$$$$

     RDKit          3D

109114  0  0  0  0  0  0  0  0999 V2000
   57.5022    4.0266   19.3527 O   0  0  0  0  0  0  0  0  0  0  0  0
   56.2669    3.2984   19.5234 C   0  0  2  0  0  0  0  0  0  0  0  0
   55.1848    4.3294   19.8743 C   0  0  0  0  0  0  0  0  0  0  0  0
   53.7573    3.7899   20.0207 C   0  0  2  0  0  0  0  0  0  0  0  0
   53.3674    3.0967   18.8436 O   0  0  0  0  0  0  0  0  0  0  0  0
   52.7839    4.9226   20.1747 C   0  0  0  0  0  0  0  0  0  0  0  0
   51.9744    5.0733   21.2351 C   0  0  0  0  0  0  0  0  0  0  0  0
   51.0263    6.1957   21.3635 C   0  0  0  0  0  0  0  0  0  0  0  0
   51.2586    7.1788   22.3439 C   0  0  0  0  0  0  0  0  0  0  0  0
   50.4118    8.2281   22.5129 N   0  0  0  0  0  0  0  0  0  0  0  0
   49.3370    8.3449   21.7263 C   0  0  0  0  0  0  0  0  0  0  0  0
   48.5129    9.4423   21.9298 C   0  0  0  0  0  0  0  0  0  0  0  0
   47.3681    9.6670   21.1629 C   0  0  0  0  0  0  0  0  0  0  0  0
   47.0204    8.7579   20.1758 C   0  0  0  0  0  0  0  0  0  0  0  0
   47.8276    7.6400   19.9623 C   0  0  0  0  0  0  0  0  0  0  0  0
   49.0075    7.4163   20.7208 C   0  0  0  0  0  0  0  0  0  0  0  0
   49.8795    6.3075   20.5402 C   0  0  0  0  0  0  0  0  0  0  0  0
   49.5795    5.2839   19.5191 C   0  0  0  0  0  0  0  0  0  0  0  0
   49.8965    5.5037   18.1666 C   0  0  0  0  0  0  0  0  0  0  0  0
   49.6149    4.5308   17.2058 C   0  0  0  0  0  0  0  0  0  0  0  0
   49.0159    3.3374   17.5916 C   0  0  0  0  0  0  0  0  0  0  0  0
   48.7338    2.4090   16.6664 F   0  0  0  0  0  0  0  0  0  0  0  0
   48.6991    3.0945   18.9221 C   0  0  0  0  0  0  0  0  0  0  0  0
   48.9776    4.0671   19.8843 C   0  0  0  0  0  0  0  0  0  0  0  0
   52.4527    7.1124   23.2846 C   0  0  0  0  0  0  0  0  0  0  0  0
   53.1435    8.3855   23.7296 C   0  0  0  0  0  0  0  0  0  0  0  0
   53.8355    7.4596   22.7803 C   0  0  0  0  0  0  0  0  0  0  0  0
   56.5089    2.2413   20.5902 C   0  0  0  0  0  0  0  0  0  0  0  0
   55.5120    1.0866   20.5932 C   0  0  0  0  0  0  0  0  0  0  0  0
   54.7135    1.0311   19.6137 O   0  0  0  0  0  0  0  0  0  0  0  0
   55.5858    0.3288   21.6022 O   0  0  0  0  0  0  0  0  0  0  0  0
   51.9040    5.4281   20.4787 Ca  0  0  0  0  0 15  0  0  0  0  0  0
   53.9120    2.4361   22.1473 O   0  0  0  0  0  0  0  0  0  0  0  0
   55.0337    3.2098   22.5900 C   0  0  2  0  0  0  0  0  0  0  0  0
   54.7035    4.7130   22.6362 C   0  0  0  0  0  0  0  0  0  0  0  0
   53.3098    5.0711   23.1757 C   0  0  2  0  0  0  0  0  0  0  0  0
   52.9177    4.1904   24.2231 O   0  0  0  0  0  0  0  0  0  0  0  0
   52.2393    5.0284   22.1242 C   0  0  0  0  0  0  0  0  0  0  0  0
   51.4876    6.0800   21.7676 C   0  0  0  0  0  0  0  0  0  0  0  0
   50.4960    5.9592   20.6880 C   0  0  0  0  0  0  0  0  0  0  0  0
   49.1946    5.5155   20.9827 C   0  0  0  0  0  0  0  0  0  0  0  0
   48.2686    5.3431   20.0035 N   0  0  0  0  0  0  0  0  0  0  0  0
   48.5975    5.5825   18.7271 C   0  0  0  0  0  0  0  0  0  0  0  0
   47.6259    5.3650   17.7586 C   0  0  0  0  0  0  0  0  0  0  0  0
   47.8733    5.5777   16.4013 C   0  0  0  0  0  0  0  0  0  0  0  0
   49.1232    6.0232   15.9953 C   0  0  0  0  0  0  0  0  0  0  0  0
   50.1154    6.2469   16.9488 C   0  0  0  0  0  0  0  0  0  0  0  0
   49.8739    6.0343   18.3305 C   0  0  0  0  0  0  0  0  0  0  0  0
   50.8449    6.2414   19.3471 C   0  0  0  0  0  0  0  0  0  0  0  0
   52.1903    6.7684   19.0207 C   0  0  0  0  0  0  0  0  0  0  0  0
   52.3965    8.1553   18.8974 C   0  0  0  0  0  0  0  0  0  0  0  0
   53.6622    8.6627   18.5973 C   0  0  0  0  0  0  0  0  0  0  0  0
   54.7318    7.7910   18.4280 C   0  0  0  0  0  0  0  0  0  0  0  0
   55.9431    8.2878   18.1456 F   0  0  0  0  0  0  0  0  0  0  0  0
   54.5544    6.4183   18.5436 C   0  0  0  0  0  0  0  0  0  0  0  0
   53.2868    5.9092   18.8365 C   0  0  0  0  0  0  0  0  0  0  0  0
   48.7498    5.1902   22.4022 C   0  0  0  0  0  0  0  0  0  0  0  0
   47.3553    5.5508   22.8695 C   0  0  0  0  0  0  0  0  0  0  0  0
   48.5369    6.3063   23.4005 C   0  0  0  0  0  0  0  0  0  0  0  0
   56.2754    2.8813   21.7664 C   0  0  0  0  0  0  0  0  0  0  0  0
   56.0916    3.3093   20.3138 C   0  0  0  0  0  0  0  0  0  0  0  0
   57.0389    3.9815   19.8161 O   0  0  0  0  0  0  0  0  0  0  0  0
   54.9894    2.9528   19.7972 O   0  0  0  0  0  0  0  0  0  0  0  0
   57.4040    4.5311   18.5303 H   0  0  0  0  0  0  0  0  0  0  0  0
   56.0552    2.8356   18.5546 H   0  0  0  0  0  0  0  0  0  0  0  0
   55.4758    4.8697   20.7860 H   0  0  0  0  0  0  0  0  0  0  0  0
   55.1990    5.0879   19.0765 H   0  0  0  0  0  0  0  0  0  0  0  0
   53.6695    3.1164   20.8826 H   0  0  0  0  0  0  0  0  0  0  0  0
   53.7462    2.1829   18.9700 H   0  0  0  0  0  0  0  0  0  0  0  0
   52.7500    5.6298   19.3507 H   0  0  0  0  0  0  0  0  0  0  0  0
   51.9996    4.3659   22.0608 H   0  0  0  0  0  0  0  0  0  0  0  0
   48.7762   10.1564   22.7078 H   0  0  0  0  0  0  0  0  0  0  0  0
   46.7512   10.5442   21.3428 H   0  0  0  0  0  0  0  0  0  0  0  0
   46.1303    8.9113   19.5696 H   0  0  0  0  0  0  0  0  0  0  0  0
   47.5350    6.9391   19.1823 H   0  0  0  0  0  0  0  0  0  0  0  0
   50.3834    6.4271   17.8616 H   0  0  0  0  0  0  0  0  0  0  0  0
   49.8715    4.6893   16.1640 H   0  0  0  0  0  0  0  0  0  0  0  0
   48.2564    2.1462   19.2075 H   0  0  0  0  0  0  0  0  0  0  0  0
   48.7373    3.8659   20.9272 H   0  0  0  0  0  0  0  0  0  0  0  0
   52.3915    6.3272   24.0349 H   0  0  0  0  0  0  0  0  0  0  0  0
   53.5051    8.4339   24.7500 H   0  0  0  0  0  0  0  0  0  0  0  0
   52.7791    9.3304   23.3442 H   0  0  0  0  0  0  0  0  0  0  0  0
   53.9484    7.7775   21.7503 H   0  0  0  0  0  0  0  0  0  0  0  0
   54.6583    6.8627   23.1533 H   0  0  0  0  0  0  0  0  0  0  0  0
   56.5304    2.7047   21.5855 H   0  0  0  0  0  0  0  0  0  0  0  0
   57.5046    1.7967   20.4470 H   0  0  0  0  0  0  0  0  0  0  0  0
   53.9743    2.4677   21.1527 H   0  0  0  0  0  0  0  0  0  0  0  0
   55.2273    2.8796   23.6202 H   0  0  0  0  0  0  0  0  0  0  0  0
   55.4558    5.1814   23.2849 H   0  0  0  0  0  0  0  0  0  0  0  0
   54.8288    5.1810   21.6526 H   0  0  0  0  0  0  0  0  0  0  0  0
   53.3576    6.0785   23.6059 H   0  0  0  0  0  0  0  0  0  0  0  0
   52.8937    3.3020   23.8078 H   0  0  0  0  0  0  0  0  0  0  0  0
   52.0965    4.0721   21.6224 H   0  0  0  0  0  0  0  0  0  0  0  0
   51.5986    7.0556   22.2301 H   0  0  0  0  0  0  0  0  0  0  0  0
   46.6475    5.0194   18.0803 H   0  0  0  0  0  0  0  0  0  0  0  0
   47.0879    5.3945   15.6767 H   0  0  0  0  0  0  0  0  0  0  0  0
   49.3301    6.1829   14.9402 H   0  0  0  0  0  0  0  0  0  0  0  0
   51.0924    6.5798   16.6023 H   0  0  0  0  0  0  0  0  0  0  0  0
   51.5682    8.8456   19.0371 H   0  0  0  0  0  0  0  0  0  0  0  0
   53.8302    9.7340   18.5147 H   0  0  0  0  0  0  0  0  0  0  0  0
   55.4010    5.7436   18.4297 H   0  0  0  0  0  0  0  0  0  0  0  0
   53.1752    4.8305   18.9488 H   0  0  0  0  0  0  0  0  0  0  0  0
   49.1515    4.2589   22.7968 H   0  0  0  0  0  0  0  0  0  0  0  0
   46.6962    6.0624   22.1776 H   0  0  0  0  0  0  0  0  0  0  0  0
   46.8545    4.8524   23.5284 H   0  0  0  0  0  0  0  0  0  0  0  0
   48.8457    6.1229   24.4243 H   0  0  0  0  0  0  0  0  0  0  0  0
   48.6755    7.3298   23.0708 H   0  0  0  0  0  0  0  0  0  0  0  0
   56.4483    1.7977   21.7643 H   0  0  0  0  0  0  0  0  0  0  0  0
   57.1572    3.3652   22.2021 H   0  0  0  0  0  0  0  0  0  0  0  0
  2  1  1  0
  2  3  1  0
  3  4  1  0
  4  5  1  0
  4  6  1  0
  6  7  2  0
  7  8  1  0
  8  9  2  0
  9 10  1  0
 10 11  2  0
 11 12  1  0
 12 13  2  0
 13 14  1  0
 14 15  2  0
 15 16  1  0
 11 16  1  0
 16 17  2  0
  8 17  1  0
 17 18  1  0
 18 19  2  0
 19 20  1  0
 20 21  2  0
 21 22  1  0
 21 23  1  0
 23 24  2  0
 18 24  1  0
  9 25  1  0
 25 26  1  0
 26 27  1  0
 25 27  1  0
  2 28  1  0
 28 29  1  0
 29 30  2  0
 29 31  1  0
 34 33  1  0
 34 35  1  0
 35 36  1  0
 36 37  1  0
 36 38  1  0
 38 39  2  0
 39 40  1  0
 40 41  2  0
 41 42  1  0
 42 43  2  0
 43 44  1  0
 44 45  2  0
 45 46  1  0
 46 47  2  0
 47 48  1  0
 43 48  1  0
 48 49  2  0
 40 49  1  0
 49 50  1  0
 50 51  2  0
 51 52  1  0
 52 53  2  0
 53 54  1  0
 53 55  1  0
 55 56  2  0
 50 56  1  0
 41 57  1  0
 57 58  1  0
 58 59  1  0
 57 59  1  0
 34 60  1  0
 60 61  1  0
 61 62  2  0
 61 63  1  0
  1 64  1  0
  2 65  1  1
  3 66  1  0
  3 67  1  0
  4 68  1  1
  5 69  1  0
  6 70  1  0
  7 71  1  0
 12 72  1  0
 13 73  1  0
 14 74  1  0
 15 75  1  0
 19 76  1  0
 20 77  1  0
 23 78  1  0
 24 79  1  0
 25 80  1  0
 26 81  1  0
 26 82  1  0
 27 83  1  0
 27 84  1  0
 28 85  1  0
 28 86  1  0
 33 87  1  0
 34 88  1  1
 35 89  1  0
 35 90  1  0
 36 91  1  6
 37 92  1  0
 38 93  1  0
 39 94  1  0
 44 95  1  0
 45 96  1  0
 46 97  1  0
 47 98  1  0
 51 99  1  0
 52100  1  0
 55101  1  0
 56102  1  0
 57103  1  0
 58104  1  0
 58105  1  0
 59106  1  0
 59107  1  0
 60108  1  0
 60109  1  0
M  CHG  3  31  -1  32   2  63  -1
M  END
> <Uni-Dock RESULT> 
ENERGY=   -4.551  LOWER_BOUND=    3.411  UPPER_BOUND=    7.165
INTER + INTRA:          -4.551
INTER:                  -4.551
INTRA:                   0.000
UNBOUND:                 0.000

$$$$

     RDKit          3D

109114  0  0  0  0  0  0  0  0999 V2000
   45.2613   12.0090   11.8381 O   0  0  0  0  0  0  0  0  0  0  0  0
   46.5906   12.4495   11.4853 C   0  0  2  0  0  0  0  0  0  0  0  0
   47.5757   11.5713   12.2697 C   0  0  0  0  0  0  0  0  0  0  0  0
   49.0644   11.8051   11.9876 C   0  0  2  0  0  0  0  0  0  0  0  0
   49.3320   11.6688   10.5992 O   0  0  0  0  0  0  0  0  0  0  0  0
   49.8965   10.7602   12.6733 C   0  0  0  0  0  0  0  0  0  0  0  0
   50.8499   11.0385   13.5767 C   0  0  0  0  0  0  0  0  0  0  0  0
   51.6542    9.9935   14.2372 C   0  0  0  0  0  0  0  0  0  0  0  0
   51.4696    9.7549   15.6122 C   0  0  0  0  0  0  0  0  0  0  0  0
   52.1913    8.8122   16.2732 N   0  0  0  0  0  0  0  0  0  0  0  0
   53.0911    8.0803   15.6081 C   0  0  0  0  0  0  0  0  0  0  0  0
   53.7904    7.1209   16.3260 C   0  0  0  0  0  0  0  0  0  0  0  0
   54.7482    6.2970   15.7321 C   0  0  0  0  0  0  0  0  0  0  0  0
   55.0349    6.4479   14.3842 C   0  0  0  0  0  0  0  0  0  0  0  0
   54.3530    7.4153   13.6454 C   0  0  0  0  0  0  0  0  0  0  0  0
   53.3594    8.2412   14.2355 C   0  0  0  0  0  0  0  0  0  0  0  0
   52.6186    9.2318   13.5337 C   0  0  0  0  0  0  0  0  0  0  0  0
   52.8676    9.4683   12.0976 C   0  0  0  0  0  0  0  0  0  0  0  0
   52.2977    8.6307   11.1220 C   0  0  0  0  0  0  0  0  0  0  0  0
   52.5324    8.8613    9.7654 C   0  0  0  0  0  0  0  0  0  0  0  0
   53.3367    9.9269    9.3789 C   0  0  0  0  0  0  0  0  0  0  0  0
   53.5724   10.1400    8.0763 F   0  0  0  0  0  0  0  0  0  0  0  0
   53.9057   10.7719   10.3233 C   0  0  0  0  0  0  0  0  0  0  0  0
   53.6741   10.5416   11.6808 C   0  0  0  0  0  0  0  0  0  0  0  0
   50.4732   10.5515   16.4416 C   0  0  0  0  0  0  0  0  0  0  0  0
   49.7117    9.8817   17.5675 C   0  0  0  0  0  0  0  0  0  0  0  0
   48.9914   10.2759   16.3172 C   0  0  0  0  0  0  0  0  0  0  0  0
   46.6728   13.9356   11.8000 C   0  0  0  0  0  0  0  0  0  0  0  0
   47.7951   14.6852   11.0888 C   0  0  0  0  0  0  0  0  0  0  0  0
   48.4140   14.0479   10.1883 O   0  0  0  0  0  0  0  0  0  0  0  0
   47.9933   15.8607   11.5094 O   0  0  0  0  0  0  0  0  0  0  0  0
   50.7434   10.3295   13.1419 Ca  0  0  0  0  0 15  0  0  0  0  0  0
   49.4518   14.0823   13.0092 O   0  0  0  0  0  0  0  0  0  0  0  0
   48.3330   13.9084   13.8872 C   0  0  2  0  0  0  0  0  0  0  0  0
   48.4708   12.6312   14.7361 C   0  0  0  0  0  0  0  0  0  0  0  0
   49.8788   12.3437   15.2804 C   0  0  2  0  0  0  0  0  0  0  0  0
   50.5545   13.5467   15.6307 O   0  0  0  0  0  0  0  0  0  0  0  0
   50.7495   11.6026   14.3076 C   0  0  0  0  0  0  0  0  0  0  0  0
   51.2877   10.3970   14.5413 C   0  0  0  0  0  0  0  0  0  0  0  0
   52.0865    9.7210   13.5076 C   0  0  0  0  0  0  0  0  0  0  0  0
   53.4651    9.9805   13.4107 C   0  0  0  0  0  0  0  0  0  0  0  0
   54.2237    9.4137   12.4364 N   0  0  0  0  0  0  0  0  0  0  0  0
   53.6526    8.6029   11.5357 C   0  0  0  0  0  0  0  0  0  0  0  0
   54.4632    8.0697   10.5418 C   0  0  0  0  0  0  0  0  0  0  0  0
   53.9614    7.2213    9.5534 C   0  0  0  0  0  0  0  0  0  0  0  0
   52.6137    6.8907    9.5553 C   0  0  0  0  0  0  0  0  0  0  0  0
   51.7796    7.4149   10.5417 C   0  0  0  0  0  0  0  0  0  0  0  0
   52.2799    8.2774   11.5508 C   0  0  0  0  0  0  0  0  0  0  0  0
   51.4794    8.8447   12.5788 C   0  0  0  0  0  0  0  0  0  0  0  0
   50.0417    8.5086   12.6988 C   0  0  0  0  0  0  0  0  0  0  0  0
   49.6414    7.3448   13.3817 C   0  0  0  0  0  0  0  0  0  0  0  0
   48.2885    7.0229   13.5069 C   0  0  0  0  0  0  0  0  0  0  0  0
   47.3264    7.8645   12.9604 C   0  0  0  0  0  0  0  0  0  0  0  0
   46.0311    7.5498   13.0904 F   0  0  0  0  0  0  0  0  0  0  0  0
   47.6954    9.0184   12.2812 C   0  0  0  0  0  0  0  0  0  0  0  0
   49.0491    9.3375   12.1489 C   0  0  0  0  0  0  0  0  0  0  0  0
   54.1849   10.9147   14.3739 C   0  0  0  0  0  0  0  0  0  0  0  0
   55.5811   10.5866   14.8598 C   0  0  0  0  0  0  0  0  0  0  0  0
   54.4213   10.4868   15.8052 C   0  0  0  0  0  0  0  0  0  0  0  0
   47.0208   13.9895   13.1127 C   0  0  0  0  0  0  0  0  0  0  0  0
   46.8961   12.8265   12.1335 C   0  0  0  0  0  0  0  0  0  0  0  0
   45.7993   12.1998   12.1633 O   0  0  0  0  0  0  0  0  0  0  0  0
   47.9298   12.6221   11.4274 O   0  0  0  0  0  0  0  0  0  0  0  0
   45.1515   11.1363   11.4297 H   0  0  0  0  0  0  0  0  0  0  0  0
   46.6904   12.2709   10.4103 H   0  0  0  0  0  0  0  0  0  0  0  0
   47.3787   11.6719   13.3463 H   0  0  0  0  0  0  0  0  0  0  0  0
   47.3277   10.5257   12.0309 H   0  0  0  0  0  0  0  0  0  0  0  0
   49.3843   12.8003   12.3215 H   0  0  0  0  0  0  0  0  0  0  0  0
   49.1008   12.5634   10.2241 H   0  0  0  0  0  0  0  0  0  0  0  0
   49.6975    9.7330   12.3808 H   0  0  0  0  0  0  0  0  0  0  0  0
   51.0577   12.0650   13.8698 H   0  0  0  0  0  0  0  0  0  0  0  0
   53.5753    7.0019   17.3862 H   0  0  0  0  0  0  0  0  0  0  0  0
   55.2693    5.5476   16.3233 H   0  0  0  0  0  0  0  0  0  0  0  0
   55.7806    5.8193   13.9024 H   0  0  0  0  0  0  0  0  0  0  0  0
   54.5948    7.5166   12.5887 H   0  0  0  0  0  0  0  0  0  0  0  0
   51.6514    7.8073   11.4175 H   0  0  0  0  0  0  0  0  0  0  0  0
   52.0826    8.2274    9.0089 H   0  0  0  0  0  0  0  0  0  0  0  0
   54.5086   11.6141   10.0010 H   0  0  0  0  0  0  0  0  0  0  0  0
   54.1137   11.2143   12.4156 H   0  0  0  0  0  0  0  0  0  0  0  0
   50.7624   11.5843   16.6229 H   0  0  0  0  0  0  0  0  0  0  0  0
   49.5274   10.4586   18.4661 H   0  0  0  0  0  0  0  0  0  0  0  0
   49.8803    8.8263   17.7462 H   0  0  0  0  0  0  0  0  0  0  0  0
   48.6635    9.4885   15.6485 H   0  0  0  0  0  0  0  0  0  0  0  0
   48.3282   11.1311   16.3547 H   0  0  0  0  0  0  0  0  0  0  0  0
   46.7633   14.0896   12.8834 H   0  0  0  0  0  0  0  0  0  0  0  0
   45.7326   14.4252   11.5069 H   0  0  0  0  0  0  0  0  0  0  0  0
   49.2162   13.5387   12.2073 H   0  0  0  0  0  0  0  0  0  0  0  0
   48.3630   14.7678   14.5715 H   0  0  0  0  0  0  0  0  0  0  0  0
   47.7872   12.7436   15.5883 H   0  0  0  0  0  0  0  0  0  0  0  0
   48.1196   11.7476   14.1900 H   0  0  0  0  0  0  0  0  0  0  0  0
   49.7770   11.7547   16.1996 H   0  0  0  0  0  0  0  0  0  0  0  0
   50.6205   14.0506   14.7917 H   0  0  0  0  0  0  0  0  0  0  0  0
   50.9254   12.0923   13.3505 H   0  0  0  0  0  0  0  0  0  0  0  0
   51.1337    9.8641   15.4742 H   0  0  0  0  0  0  0  0  0  0  0  0
   55.5185    8.3281   10.5453 H   0  0  0  0  0  0  0  0  0  0  0  0
   54.6276    6.8274    8.7941 H   0  0  0  0  0  0  0  0  0  0  0  0
   52.2100    6.2387    8.7848 H   0  0  0  0  0  0  0  0  0  0  0  0
   50.7230    7.1535   10.5105 H   0  0  0  0  0  0  0  0  0  0  0  0
   50.3860    6.6851   13.8204 H   0  0  0  0  0  0  0  0  0  0  0  0
   47.9729    6.1323   14.0454 H   0  0  0  0  0  0  0  0  0  0  0  0
   46.9353    9.6828   11.8738 H   0  0  0  0  0  0  0  0  0  0  0  0
   49.3156   10.2613   11.6350 H   0  0  0  0  0  0  0  0  0  0  0  0
   53.9797   11.9714   14.2129 H   0  0  0  0  0  0  0  0  0  0  0  0
   56.0406    9.6645   14.5226 H   0  0  0  0  0  0  0  0  0  0  0  0
   56.2729   11.4107   14.9815 H   0  0  0  0  0  0  0  0  0  0  0  0
   54.3189   11.2454   16.5740 H   0  0  0  0  0  0  0  0  0  0  0  0
   54.0981    9.4979   16.1103 H   0  0  0  0  0  0  0  0  0  0  0  0
   46.9904   14.9138   12.5220 H   0  0  0  0  0  0  0  0  0  0  0  0
   46.1722   14.0018   13.8066 H   0  0  0  0  0  0  0  0  0  0  0  0
  2  1  1  0
  2  3  1  0
  3  4  1  0
  4  5  1  0
  4  6  1  0
  6  7  2  0
  7  8  1  0
  8  9  2  0
  9 10  1  0
 10 11  2  0
 11 12  1  0
 12 13  2  0
 13 14  1  0
 14 15  2  0
 15 16  1  0
 11 16  1  0
 16 17  2  0
  8 17  1  0
 17 18  1  0
 18 19  2  0
 19 20  1  0
 20 21  2  0
 21 22  1  0
 21 23  1  0
 23 24  2  0
 18 24  1  0
  9 25  1  0
 25 26  1  0
 26 27  1  0
 25 27  1  0
  2 28  1  0
 28 29  1  0
 29 30  2  0
 29 31  1  0
 34 33  1  0
 34 35  1  0
 35 36  1  0
 36 37  1  0
 36 38  1  0
 38 39  2  0
 39 40  1  0
 40 41  2  0
 41 42  1  0
 42 43  2  0
 43 44  1  0
 44 45  2  0
 45 46  1  0
 46 47  2  0
 47 48  1  0
 43 48  1  0
 48 49  2  0
 40 49  1  0
 49 50  1  0
 50 51  2  0
 51 52  1  0
 52 53  2  0
 53 54  1  0
 53 55  1  0
 55 56  2  0
 50 56  1  0
 41 57  1  0
 57 58  1  0
 58 59  1  0
 57 59  1  0
 34 60  1  0
 60 61  1  0
 61 62  2  0
 61 63  1  0
  1 64  1  0
  2 65  1  1
  3 66  1  0
  3 67  1  0
  4 68  1  1
  5 69  1  0
  6 70  1  0
  7 71  1  0
 12 72  1  0
 13 73  1  0
 14 74  1  0
 15 75  1  0
 19 76  1  0
 20 77  1  0
 23 78  1  0
 24 79  1  0
 25 80  1  0
 26 81  1  0
 26 82  1  0
 27 83  1  0
 27 84  1  0
 28 85  1  0
 28 86  1  0
 33 87  1  0
 34 88  1  1
 35 89  1  0
 35 90  1  0
 36 91  1  6
 37 92  1  0
 38 93  1  0
 39 94  1  0
 44 95  1  0
 45 96  1  0
 46 97  1  0
 47 98  1  0
 51 99  1  0
 52100  1  0
 55101  1  0
 56102  1  0
 57103  1  0
 58104  1  0
 58105  1  0
 59106  1  0
 59107  1  0
 60108  1  0
 60109  1  0
M  CHG  3  31  -1  32   2  63  -1
M  END
> <Uni-Dock RESULT> 
ENERGY=   -4.468  LOWER_BOUND=    4.727  UPPER_BOUND=    7.193
INTER + INTRA:          -4.468
INTER:                  -4.468
INTRA:                   0.000
UNBOUND:                 0.000

$$$$

     RDKit          3D

109114  0  0  0  0  0  0  0  0999 V2000
   45.5355   15.6749   10.9023 O   0  0  0  0  0  0  0  0  0  0  0  0
   45.5967   14.2771   10.5447 C   0  0  2  0  0  0  0  0  0  0  0  0
   46.9589   13.7530   11.0209 C   0  0  0  0  0  0  0  0  0  0  0  0
   47.2158   12.2549   10.8209 C   0  0  2  0  0  0  0  0  0  0  0  0
   46.1886   11.4905   11.4360 O   0  0  0  0  0  0  0  0  0  0  0  0
   48.4937   11.8491   11.4967 C   0  0  0  0  0  0  0  0  0  0  0  0
   49.5338   11.2923   10.8557 C   0  0  0  0  0  0  0  0  0  0  0  0
   50.7796   10.9025   11.5423 C   0  0  0  0  0  0  0  0  0  0  0  0
   51.9609   11.6202   11.2759 C   0  0  0  0  0  0  0  0  0  0  0  0
   53.1385   11.2970   11.8719 N   0  0  0  0  0  0  0  0  0  0  0  0
   53.1838   10.2834   12.7426 C   0  0  0  0  0  0  0  0  0  0  0  0
   54.4070   10.0040   13.3347 C   0  0  0  0  0  0  0  0  0  0  0  0
   54.5680    8.9728   14.2619 C   0  0  0  0  0  0  0  0  0  0  0  0
   53.4806    8.1798   14.5941 C   0  0  0  0  0  0  0  0  0  0  0  0
   52.2435    8.4343   14.0011 C   0  0  0  0  0  0  0  0  0  0  0  0
   52.0647    9.4968   13.0755 C   0  0  0  0  0  0  0  0  0  0  0  0
   50.8279    9.8175   12.4510 C   0  0  0  0  0  0  0  0  0  0  0  0
   49.6204    9.0174   12.7377 C   0  0  0  0  0  0  0  0  0  0  0  0
   48.8671    9.2460   13.9032 C   0  0  0  0  0  0  0  0  0  0  0  0
   47.7237    8.4900   14.1674 C   0  0  0  0  0  0  0  0  0  0  0  0
   47.3297    7.5039   13.2706 C   0  0  0  0  0  0  0  0  0  0  0  0
   46.2389    6.7693   13.5315 F   0  0  0  0  0  0  0  0  0  0  0  0
   48.0537    7.2636   12.1096 C   0  0  0  0  0  0  0  0  0  0  0  0
   49.1989    8.0170   11.8446 C   0  0  0  0  0  0  0  0  0  0  0  0
   51.9948   12.7794   10.2909 C   0  0  0  0  0  0  0  0  0  0  0  0
   52.8930   13.9723   10.5490 C   0  0  0  0  0  0  0  0  0  0  0  0
   51.4100   14.1196   10.6769 C   0  0  0  0  0  0  0  0  0  0  0  0
   45.3682   14.1840    9.0437 C   0  0  0  0  0  0  0  0  0  0  0  0
   44.9345   12.8108    8.5403 C   0  0  0  0  0  0  0  0  0  0  0  0
   44.6367   11.9565    9.4245 O   0  0  0  0  0  0  0  0  0  0  0  0
   44.9515   12.6803    7.2831 O   0  0  0  0  0  0  0  0  0  0  0  0
   49.3747   11.2897   11.6790 Ca  0  0  0  0  0 15  0  0  0  0  0  0
   47.4258   12.0781    8.3101 O   0  0  0  0  0  0  0  0  0  0  0  0
   47.7980   13.4586    8.2172 C   0  0  2  0  0  0  0  0  0  0  0  0
   49.0268   13.7750    9.0894 C   0  0  0  0  0  0  0  0  0  0  0  0
   50.1398   12.7154    9.0791 C   0  0  2  0  0  0  0  0  0  0  0  0
   50.2732   12.1166    7.7945 O   0  0  0  0  0  0  0  0  0  0  0  0
   49.9155   11.6118   10.0716 C   0  0  0  0  0  0  0  0  0  0  0  0
   50.7520   11.3182   11.0776 C   0  0  0  0  0  0  0  0  0  0  0  0
   50.4247   10.2513   12.0357 C   0  0  0  0  0  0  0  0  0  0  0  0
   50.7870    8.9228   11.7509 C   0  0  0  0  0  0  0  0  0  0  0  0
   50.4557    7.9054   12.5883 N   0  0  0  0  0  0  0  0  0  0  0  0
   49.7560    8.1612   13.7017 C   0  0  0  0  0  0  0  0  0  0  0  0
   49.4165    7.0854   14.5120 C   0  0  0  0  0  0  0  0  0  0  0  0
   48.6825    7.2474   15.6883 C   0  0  0  0  0  0  0  0  0  0  0  0
   48.2769    8.5177   16.0720 C   0  0  0  0  0  0  0  0  0  0  0  0
   48.6040    9.6132   15.2741 C   0  0  0  0  0  0  0  0  0  0  0  0
   49.3500    9.4591   14.0773 C   0  0  0  0  0  0  0  0  0  0  0  0
   49.7103   10.5355   13.2224 C   0  0  0  0  0  0  0  0  0  0  0  0
   49.3719   11.9343   13.5734 C   0  0  0  0  0  0  0  0  0  0  0  0
   50.2098   12.6715   14.4310 C   0  0  0  0  0  0  0  0  0  0  0  0
   49.9038   13.9929   14.7622 C   0  0  0  0  0  0  0  0  0  0  0  0
   48.7657   14.5903   14.2325 C   0  0  0  0  0  0  0  0  0  0  0  0
   48.4837   15.8600   14.5519 F   0  0  0  0  0  0  0  0  0  0  0  0
   47.9222   13.8843   13.3845 C   0  0  0  0  0  0  0  0  0  0  0  0
   48.2236   12.5596   13.0585 C   0  0  0  0  0  0  0  0  0  0  0  0
   51.5538    8.5427   10.4915 C   0  0  0  0  0  0  0  0  0  0  0  0
   52.6270    7.4755   10.5409 C   0  0  0  0  0  0  0  0  0  0  0  0
   53.0142    8.9126   10.3569 C   0  0  0  0  0  0  0  0  0  0  0  0
   46.6001   14.3611    8.4975 C   0  0  0  0  0  0  0  0  0  0  0  0
   46.1326   14.2092    9.9415 C   0  0  0  0  0  0  0  0  0  0  0  0
   45.9535   15.2871   10.5762 O   0  0  0  0  0  0  0  0  0  0  0  0
   46.0076   13.0078   10.3288 O   0  0  0  0  0  0  0  0  0  0  0  0
   45.4556   15.7007   11.8684 H   0  0  0  0  0  0  0  0  0  0  0  0
   44.7856   13.7908   11.0952 H   0  0  0  0  0  0  0  0  0  0  0  0
   47.7614   14.3365   10.5480 H   0  0  0  0  0  0  0  0  0  0  0  0
   47.0309   13.9867   12.0943 H   0  0  0  0  0  0  0  0  0  0  0  0
   47.2706   11.9961    9.7559 H   0  0  0  0  0  0  0  0  0  0  0  0
   45.4620   11.4766   10.7531 H   0  0  0  0  0  0  0  0  0  0  0  0
   48.5326   12.0155   12.5695 H   0  0  0  0  0  0  0  0  0  0  0  0
   49.4991   11.1181    9.7828 H   0  0  0  0  0  0  0  0  0  0  0  0
   55.2665   10.6183   13.0731 H   0  0  0  0  0  0  0  0  0  0  0  0
   55.5395    8.7895   14.7147 H   0  0  0  0  0  0  0  0  0  0  0  0
   53.5848    7.3683   15.3111 H   0  0  0  0  0  0  0  0  0  0  0  0
   51.4037    7.7985   14.2764 H   0  0  0  0  0  0  0  0  0  0  0  0
   49.1590   10.0296   14.5987 H   0  0  0  0  0  0  0  0  0  0  0  0
   47.1308    8.6730   15.0571 H   0  0  0  0  0  0  0  0  0  0  0  0
   47.7154    6.5079   11.4088 H   0  0  0  0  0  0  0  0  0  0  0  0
   49.7556    7.8315   10.9273 H   0  0  0  0  0  0  0  0  0  0  0  0
   51.8945   12.4871    9.2480 H   0  0  0  0  0  0  0  0  0  0  0  0
   53.3798   14.4318    9.6969 H   0  0  0  0  0  0  0  0  0  0  0  0
   53.4855   13.9835   11.4562 H   0  0  0  0  0  0  0  0  0  0  0  0
   50.9938   14.2384   11.6706 H   0  0  0  0  0  0  0  0  0  0  0  0
   50.8797   14.6643    9.9057 H   0  0  0  0  0  0  0  0  0  0  0  0
   46.2695   14.5008    8.5023 H   0  0  0  0  0  0  0  0  0  0  0  0
   44.5791   14.8908    8.7481 H   0  0  0  0  0  0  0  0  0  0  0  0
   46.8457   12.0385    9.1201 H   0  0  0  0  0  0  0  0  0  0  0  0
   48.0859   13.6129    7.1678 H   0  0  0  0  0  0  0  0  0  0  0  0
   49.4450   14.7189    8.7147 H   0  0  0  0  0  0  0  0  0  0  0  0
   48.7400   13.9710   10.1294 H   0  0  0  0  0  0  0  0  0  0  0  0
   51.0906   13.2153    9.2992 H   0  0  0  0  0  0  0  0  0  0  0  0
   49.4069   11.6883    7.6264 H   0  0  0  0  0  0  0  0  0  0  0  0
   48.9967   11.0386    9.9533 H   0  0  0  0  0  0  0  0  0  0  0  0
   51.6741   11.8660   11.2436 H   0  0  0  0  0  0  0  0  0  0  0  0
   49.7386    6.0926   14.2102 H   0  0  0  0  0  0  0  0  0  0  0  0
   48.4367    6.3811   16.2921 H   0  0  0  0  0  0  0  0  0  0  0  0
   47.6965    8.6547   16.9809 H   0  0  0  0  0  0  0  0  0  0  0  0
   48.2590   10.5968   15.5888 H   0  0  0  0  0  0  0  0  0  0  0  0
   51.1069   12.2160   14.8431 H   0  0  0  0  0  0  0  0  0  0  0  0
   50.5549   14.5717   15.4132 H   0  0  0  0  0  0  0  0  0  0  0  0
   47.0441   14.3655   12.9576 H   0  0  0  0  0  0  0  0  0  0  0  0
   47.5624   12.0323   12.3704 H   0  0  0  0  0  0  0  0  0  0  0  0
   50.9618    8.5718    9.5788 H   0  0  0  0  0  0  0  0  0  0  0  0
   52.8470    7.0097   11.4946 H   0  0  0  0  0  0  0  0  0  0  0  0
   52.7070    6.8096    9.6907 H   0  0  0  0  0  0  0  0  0  0  0  0
   53.3582    9.2303    9.3783 H   0  0  0  0  0  0  0  0  0  0  0  0
   53.4991    9.4181   11.1844 H   0  0  0  0  0  0  0  0  0  0  0  0
   45.7579   14.0774    7.8538 H   0  0  0  0  0  0  0  0  0  0  0  0
   46.8550   15.4054    8.2827 H   0  0  0  0  0  0  0  0  0  0  0  0
  2  1  1  0
  2  3  1  0
  3  4  1  0
  4  5  1  0
  4  6  1  0
  6  7  2  0
  7  8  1  0
  8  9  2  0
  9 10  1  0
 10 11  2  0
 11 12  1  0
 12 13  2  0
 13 14  1  0
 14 15  2  0
 15 16  1  0
 11 16  1  0
 16 17  2  0
  8 17  1  0
 17 18  1  0
 18 19  2  0
 19 20  1  0
 20 21  2  0
 21 22  1  0
 21 23  1  0
 23 24  2  0
 18 24  1  0
  9 25  1  0
 25 26  1  0
 26 27  1  0
 25 27  1  0
  2 28  1  0
 28 29  1  0
 29 30  2  0
 29 31  1  0
 34 33  1  0
 34 35  1  0
 35 36  1  0
 36 37  1  0
 36 38  1  0
 38 39  2  0
 39 40  1  0
 40 41  2  0
 41 42  1  0
 42 43  2  0
 43 44  1  0
 44 45  2  0
 45 46  1  0
 46 47  2  0
 47 48  1  0
 43 48  1  0
 48 49  2  0
 40 49  1  0
 49 50  1  0
 50 51  2  0
 51 52  1  0
 52 53  2  0
 53 54  1  0
 53 55  1  0
 55 56  2  0
 50 56  1  0
 41 57  1  0
 57 58  1  0
 58 59  1  0
 57 59  1  0
 34 60  1  0
 60 61  1  0
 61 62  2  0
 61 63  1  0
  1 64  1  0
  2 65  1  1
  3 66  1  0
  3 67  1  0
  4 68  1  1
  5 69  1  0
  6 70  1  0
  7 71  1  0
 12 72  1  0
 13 73  1  0
 14 74  1  0
 15 75  1  0
 19 76  1  0
 20 77  1  0
 23 78  1  0
 24 79  1  0
 25 80  1  0
 26 81  1  0
 26 82  1  0
 27 83  1  0
 27 84  1  0
 28 85  1  0
 28 86  1  0
 33 87  1  0
 34 88  1  1
 35 89  1  0
 35 90  1  0
 36 91  1  6
 37 92  1  0
 38 93  1  0
 39 94  1  0
 44 95  1  0
 45 96  1  0
 46 97  1  0
 47 98  1  0
 51 99  1  0
 52100  1  0
 55101  1  0
 56102  1  0
 57103  1  0
 58104  1  0
 58105  1  0
 59106  1  0
 59107  1  0
 60108  1  0
 60109  1  0
M  CHG  3  31  -1  32   2  63  -1
M  END
> <Uni-Dock RESULT> 
ENERGY=   -4.379  LOWER_BOUND=    5.740  UPPER_BOUND=    9.500
INTER + INTRA:          -4.379
INTER:                  -4.379
INTRA:                   0.000
UNBOUND:                 0.000

$$$$

     RDKit          3D

109114  0  0  0  0  0  0  0  0999 V2000
   47.5520    4.2997   15.2877 O   0  0  0  0  0  0  0  0  0  0  0  0
   47.6699    4.8645   16.6115 C   0  0  2  0  0  0  0  0  0  0  0  0
   48.6543    6.0383   16.5109 C   0  0  0  0  0  0  0  0  0  0  0  0
   48.8733    6.8505   17.7926 C   0  0  2  0  0  0  0  0  0  0  0  0
   47.6332    7.3320   18.2909 O   0  0  0  0  0  0  0  0  0  0  0  0
   49.7034    8.0679   17.5042 C   0  0  0  0  0  0  0  0  0  0  0  0
   50.8793    8.3283   18.0977 C   0  0  0  0  0  0  0  0  0  0  0  0
   51.6769    9.5318   17.7969 C   0  0  0  0  0  0  0  0  0  0  0  0
   52.9016    9.3889   17.1177 C   0  0  0  0  0  0  0  0  0  0  0  0
   53.6814   10.4625   16.8250 N   0  0  0  0  0  0  0  0  0  0  0  0
   53.2788   11.6885   17.1749 C   0  0  0  0  0  0  0  0  0  0  0  0
   54.1043   12.7519   16.8393 C   0  0  0  0  0  0  0  0  0  0  0  0
   53.7801   14.0739   17.1499 C   0  0  0  0  0  0  0  0  0  0  0  0
   52.6065   14.3440   17.8364 C   0  0  0  0  0  0  0  0  0  0  0  0
   51.7673   13.2887   18.1955 C   0  0  0  0  0  0  0  0  0  0  0  0
   52.0768   11.9431   17.8620 C   0  0  0  0  0  0  0  0  0  0  0  0
   51.2559   10.8273   18.1840 C   0  0  0  0  0  0  0  0  0  0  0  0
   49.9935   11.0219   18.9248 C   0  0  0  0  0  0  0  0  0  0  0  0
   48.8269   11.4397   18.2594 C   0  0  0  0  0  0  0  0  0  0  0  0
   47.6348   11.6177   18.9635 C   0  0  0  0  0  0  0  0  0  0  0  0
   47.6037   11.3806   20.3327 C   0  0  0  0  0  0  0  0  0  0  0  0
   46.4617   11.5645   21.0106 F   0  0  0  0  0  0  0  0  0  0  0  0
   48.7410   10.9613   21.0112 C   0  0  0  0  0  0  0  0  0  0  0  0
   49.9350   10.7849   20.3093 C   0  0  0  0  0  0  0  0  0  0  0  0
   53.4343    8.0279   16.6947 C   0  0  0  0  0  0  0  0  0  0  0  0
   54.2088    7.8818   15.4004 C   0  0  0  0  0  0  0  0  0  0  0  0
   52.8296    7.3127   15.5073 C   0  0  0  0  0  0  0  0  0  0  0  0
   48.1075    3.7448   17.5436 C   0  0  0  0  0  0  0  0  0  0  0  0
   47.8450    3.9977   19.0249 C   0  0  0  0  0  0  0  0  0  0  0  0
   47.1385    5.0088   19.3057 O   0  0  0  0  0  0  0  0  0  0  0  0
   48.3955    3.1710   19.8068 O   0  0  0  0  0  0  0  0  0  0  0  0
   50.3799    8.8623   17.6873 Ca  0  0  0  0  0 15  0  0  0  0  0  0
   50.1365    5.2201   19.2504 O   0  0  0  0  0  0  0  0  0  0  0  0
   50.6023    4.5085   18.0973 C   0  0  2  0  0  0  0  0  0  0  0  0
   51.3507    5.4357   17.1222 C   0  0  0  0  0  0  0  0  0  0  0  0
   52.2863    6.4673   17.7718 C   0  0  2  0  0  0  0  0  0  0  0  0
   52.9225    5.9340   18.9282 O   0  0  0  0  0  0  0  0  0  0  0  0
   51.5827    7.7278   18.1834 C   0  0  0  0  0  0  0  0  0  0  0  0
   51.8804    8.9478   17.7133 C   0  0  0  0  0  0  0  0  0  0  0  0
   51.1015   10.1225   18.1340 C   0  0  0  0  0  0  0  0  0  0  0  0
   51.4631   10.8174   19.3017 C   0  0  0  0  0  0  0  0  0  0  0  0
   50.7361   11.8750   19.7479 N   0  0  0  0  0  0  0  0  0  0  0  0
   49.6421   12.2604   19.0776 C   0  0  0  0  0  0  0  0  0  0  0  0
   48.9156   13.3287   19.5878 C   0  0  0  0  0  0  0  0  0  0  0  0
   47.7574   13.7998   18.9671 C   0  0  0  0  0  0  0  0  0  0  0  0
   47.3102   13.1926   17.8022 C   0  0  0  0  0  0  0  0  0  0  0  0
   48.0216   12.1174   17.2717 C   0  0  0  0  0  0  0  0  0  0  0  0
   49.1999   11.6315   17.8946 C   0  0  0  0  0  0  0  0  0  0  0  0
   49.9645   10.5388   17.4038 C   0  0  0  0  0  0  0  0  0  0  0  0
   49.6003    9.8608   16.1382 C   0  0  0  0  0  0  0  0  0  0  0  0
   50.0313   10.3848   14.9050 C   0  0  0  0  0  0  0  0  0  0  0  0
   49.6998    9.7492   13.7068 C   0  0  0  0  0  0  0  0  0  0  0  0
   48.9449    8.5822   13.7316 C   0  0  0  0  0  0  0  0  0  0  0  0
   48.6366    7.9770   12.5772 F   0  0  0  0  0  0  0  0  0  0  0  0
   48.5068    8.0452   14.9352 C   0  0  0  0  0  0  0  0  0  0  0  0
   48.8317    8.6845   16.1342 C   0  0  0  0  0  0  0  0  0  0  0  0
   52.6724   10.4237   20.1391 C   0  0  0  0  0  0  0  0  0  0  0  0
   53.5459   11.4873   20.7706 C   0  0  0  0  0  0  0  0  0  0  0  0
   54.0682   10.6834   19.6175 C   0  0  0  0  0  0  0  0  0  0  0  0
   49.4632    3.7286   17.4473 C   0  0  0  0  0  0  0  0  0  0  0  0
   48.4082    4.6763   16.8856 C   0  0  0  0  0  0  0  0  0  0  0  0
   48.0435    4.4487   15.6973 O   0  0  0  0  0  0  0  0  0  0  0  0
   48.0492    5.5944   17.6839 O   0  0  0  0  0  0  0  0  0  0  0  0
   47.0640    4.9516   14.7611 H   0  0  0  0  0  0  0  0  0  0  0  0
   46.6704    5.2244   16.8742 H   0  0  0  0  0  0  0  0  0  0  0  0
   49.6188    5.6755   16.1286 H   0  0  0  0  0  0  0  0  0  0  0  0
   48.2701    6.7079   15.7260 H   0  0  0  0  0  0  0  0  0  0  0  0
   49.3662    6.2507   18.5681 H   0  0  0  0  0  0  0  0  0  0  0  0
   47.2743    6.5639   18.8161 H   0  0  0  0  0  0  0  0  0  0  0  0
   49.2852    8.7627   16.7813 H   0  0  0  0  0  0  0  0  0  0  0  0
   51.3008    7.6395   18.8262 H   0  0  0  0  0  0  0  0  0  0  0  0
   55.0307   12.5463   16.3063 H   0  0  0  0  0  0  0  0  0  0  0  0
   54.4458   14.8839   16.8613 H   0  0  0  0  0  0  0  0  0  0  0  0
   52.3367   15.3663   18.0922 H   0  0  0  0  0  0  0  0  0  0  0  0
   50.8513   13.5242   18.7347 H   0  0  0  0  0  0  0  0  0  0  0  0
   48.8402   11.6075   17.1849 H   0  0  0  0  0  0  0  0  0  0  0  0
   46.7289   11.9249   18.4522 H   0  0  0  0  0  0  0  0  0  0  0  0
   48.6903   10.7556   22.0750 H   0  0  0  0  0  0  0  0  0  0  0  0
   50.8201   10.4451   20.8449 H   0  0  0  0  0  0  0  0  0  0  0  0
   53.7760    7.4029   17.5167 H   0  0  0  0  0  0  0  0  0  0  0  0
   55.0454    7.1932   15.3872 H   0  0  0  0  0  0  0  0  0  0  0  0
   54.3499    8.7612   14.7832 H   0  0  0  0  0  0  0  0  0  0  0  0
   52.0334    7.8004   14.9569 H   0  0  0  0  0  0  0  0  0  0  0  0
   52.7223    6.2379   15.5841 H   0  0  0  0  0  0  0  0  0  0  0  0
   49.1730    3.5234   17.3966 H   0  0  0  0  0  0  0  0  0  0  0  0
   47.5723    2.8201   17.2828 H   0  0  0  0  0  0  0  0  0  0  0  0
   49.2619    5.6019   18.9616 H   0  0  0  0  0  0  0  0  0  0  0  0
   51.3251    3.7744   18.4799 H   0  0  0  0  0  0  0  0  0  0  0  0
   51.9509    4.7881   16.4690 H   0  0  0  0  0  0  0  0  0  0  0  0
   50.6558    5.9630   16.4579 H   0  0  0  0  0  0  0  0  0  0  0  0
   53.0788    6.7105   17.0542 H   0  0  0  0  0  0  0  0  0  0  0  0
   52.1880    5.7203   19.5423 H   0  0  0  0  0  0  0  0  0  0  0  0
   50.7700    7.6125   18.8996 H   0  0  0  0  0  0  0  0  0  0  0  0
   52.6738    9.1134   16.9914 H   0  0  0  0  0  0  0  0  0  0  0  0
   49.2704   13.8038   20.4982 H   0  0  0  0  0  0  0  0  0  0  0  0
   47.2182   14.6356   19.3987 H   0  0  0  0  0  0  0  0  0  0  0  0
   46.4043   13.5448   17.3156 H   0  0  0  0  0  0  0  0  0  0  0  0
   47.6399   11.6480   16.3665 H   0  0  0  0  0  0  0  0  0  0  0  0
   50.6298   11.2920   14.8758 H   0  0  0  0  0  0  0  0  0  0  0  0
   50.0418   10.1419   12.7520 H   0  0  0  0  0  0  0  0  0  0  0  0
   47.9334    7.1199   14.9476 H   0  0  0  0  0  0  0  0  0  0  0  0
   48.5001    8.2317   17.0689 H   0  0  0  0  0  0  0  0  0  0  0  0
   52.5367    9.5175   20.7263 H   0  0  0  0  0  0  0  0  0  0  0  0
   53.3005   12.5280   20.5928 H   0  0  0  0  0  0  0  0  0  0  0  0
   53.9418   11.2852   21.7582 H   0  0  0  0  0  0  0  0  0  0  0  0
   54.8217    9.9288   19.8171 H   0  0  0  0  0  0  0  0  0  0  0  0
   54.1794   11.1807   18.6605 H   0  0  0  0  0  0  0  0  0  0  0  0
   48.9657    3.0982   18.1951 H   0  0  0  0  0  0  0  0  0  0  0  0
   49.8539    3.0755   16.6583 H   0  0  0  0  0  0  0  0  0  0  0  0
  2  1  1  0
  2  3  1  0
  3  4  1  0
  4  5  1  0
  4  6  1  0
  6  7  2  0
  7  8  1  0
  8  9  2  0
  9 10  1  0
 10 11  2  0
 11 12  1  0
 12 13  2  0
 13 14  1  0
 14 15  2  0
 15 16  1  0
 11 16  1  0
 16 17  2  0
  8 17  1  0
 17 18  1  0
 18 19  2  0
 19 20  1  0
 20 21  2  0
 21 22  1  0
 21 23  1  0
 23 24  2  0
 18 24  1  0
  9 25  1  0
 25 26  1  0
 26 27  1  0
 25 27  1  0
  2 28  1  0
 28 29  1  0
 29 30  2  0
 29 31  1  0
 34 33  1  0
 34 35  1  0
 35 36  1  0
 36 37  1  0
 36 38  1  0
 38 39  2  0
 39 40  1  0
 40 41  2  0
 41 42  1  0
 42 43  2  0
 43 44  1  0
 44 45  2  0
 45 46  1  0
 46 47  2  0
 47 48  1  0
 43 48  1  0
 48 49  2  0
 40 49  1  0
 49 50  1  0
 50 51  2  0
 51 52  1  0
 52 53  2  0
 53 54  1  0
 53 55  1  0
 55 56  2  0
 50 56  1  0
 41 57  1  0
 57 58  1  0
 58 59  1  0
 57 59  1  0
 34 60  1  0
 60 61  1  0
 61 62  2  0
 61 63  1  0
  1 64  1  0
  2 65  1  1
  3 66  1  0
  3 67  1  0
  4 68  1  1
  5 69  1  0
  6 70  1  0
  7 71  1  0
 12 72  1  0
 13 73  1  0
 14 74  1  0
 15 75  1  0
 19 76  1  0
 20 77  1  0
 23 78  1  0
 24 79  1  0
 25 80  1  0
 26 81  1  0
 26 82  1  0
 27 83  1  0
 27 84  1  0
 28 85  1  0
 28 86  1  0
 33 87  1  0
 34 88  1  1
 35 89  1  0
 35 90  1  0
 36 91  1  6
 37 92  1  0
 38 93  1  0
 39 94  1  0
 44 95  1  0
 45 96  1  0
 46 97  1  0
 47 98  1  0
 51 99  1  0
 52100  1  0
 55101  1  0
 56102  1  0
 57103  1  0
 58104  1  0
 58105  1  0
 59106  1  0
 59107  1  0
 60108  1  0
 60109  1  0
M  CHG  3  31  -1  32   2  63  -1
M  END
> <Uni-Dock RESULT> 
ENERGY=   -4.284  LOWER_BOUND=    3.465  UPPER_BOUND=    7.059
INTER + INTRA:          -4.284
INTER:                  -4.284
INTRA:                   0.000
UNBOUND:                 0.000

$$$$

     RDKit          3D

109114  0  0  0  0  0  0  0  0999 V2000
   50.8321    3.0601   17.1627 O   0  0  0  0  0  0  0  0  0  0  0  0
   51.1704    3.9530   18.2462 C   0  0  2  0  0  0  0  0  0  0  0  0
   51.0513    5.3832   17.7008 C   0  0  0  0  0  0  0  0  0  0  0  0
   51.2859    6.5142   18.7089 C   0  0  2  0  0  0  0  0  0  0  0  0
   50.4151    6.3728   19.8223 O   0  0  0  0  0  0  0  0  0  0  0  0
   50.9542    7.8419   18.0911 C   0  0  0  0  0  0  0  0  0  0  0  0
   51.8314    8.8515   17.9739 C   0  0  0  0  0  0  0  0  0  0  0  0
   51.4814   10.1471   17.3623 C   0  0  0  0  0  0  0  0  0  0  0  0
   52.0539   10.4963   16.1246 C   0  0  0  0  0  0  0  0  0  0  0  0
   51.7749   11.6817   15.5217 N   0  0  0  0  0  0  0  0  0  0  0  0
   50.9285   12.5376   16.1036 C   0  0  0  0  0  0  0  0  0  0  0  0
   50.6657   13.7271   15.4395 C   0  0  0  0  0  0  0  0  0  0  0  0
   49.7940   14.6898   15.9519 C   0  0  0  0  0  0  0  0  0  0  0  0
   49.1808   14.4709   17.1757 C   0  0  0  0  0  0  0  0  0  0  0  0
   49.4405   13.2872   17.8674 C   0  0  0  0  0  0  0  0  0  0  0  0
   50.3065   12.2913   17.3423 C   0  0  0  0  0  0  0  0  0  0  0  0
   50.5978   11.0589   17.9894 C   0  0  0  0  0  0  0  0  0  0  0  0
   49.9976   10.7480   19.3022 C   0  0  0  0  0  0  0  0  0  0  0  0
   48.6817   10.2599   19.3932 C   0  0  0  0  0  0  0  0  0  0  0  0
   48.1204    9.9633   20.6365 C   0  0  0  0  0  0  0  0  0  0  0  0
   48.8697   10.1536   21.7915 C   0  0  0  0  0  0  0  0  0  0  0  0
   48.3255    9.8810   22.9861 F   0  0  0  0  0  0  0  0  0  0  0  0
   50.1735   10.6286   21.7271 C   0  0  0  0  0  0  0  0  0  0  0  0
   50.7360   10.9283   20.4848 C   0  0  0  0  0  0  0  0  0  0  0  0
   53.0335    9.5824   15.4033 C   0  0  0  0  0  0  0  0  0  0  0  0
   53.0342    9.5096   13.8897 C   0  0  0  0  0  0  0  0  0  0  0  0
   52.5324    8.3480   14.6874 C   0  0  0  0  0  0  0  0  0  0  0  0
   52.5607    3.5701   18.7303 C   0  0  0  0  0  0  0  0  0  0  0  0
   52.9132    4.0567   20.1325 C   0  0  0  0  0  0  0  0  0  0  0  0
   51.9683    4.5589   20.8070 O   0  0  0  0  0  0  0  0  0  0  0  0
   54.1303    3.9232   20.4466 O   0  0  0  0  0  0  0  0  0  0  0  0
   50.9950    8.8878   17.9278 Ca  0  0  0  0  0 15  0  0  0  0  0  0
   53.7631    6.3222   19.1623 O   0  0  0  0  0  0  0  0  0  0  0  0
   53.9712    5.6761   17.9005 C   0  0  2  0  0  0  0  0  0  0  0  0
   53.4490    6.5317   16.7317 C   0  0  0  0  0  0  0  0  0  0  0  0
   53.7273    8.0395   16.8357 C   0  0  2  0  0  0  0  0  0  0  0  0
   54.9930    8.2926   17.4360 O   0  0  0  0  0  0  0  0  0  0  0  0
   52.6924    8.7787   17.6333 C   0  0  0  0  0  0  0  0  0  0  0  0
   51.9302    9.7697   17.1487 C   0  0  0  0  0  0  0  0  0  0  0  0
   50.9027   10.4030   17.9893 C   0  0  0  0  0  0  0  0  0  0  0  0
   51.2491   11.4849   18.8180 C   0  0  0  0  0  0  0  0  0  0  0  0
   50.3381   12.0607   19.6455 N   0  0  0  0  0  0  0  0  0  0  0  0
   49.0867   11.5845   19.6914 C   0  0  0  0  0  0  0  0  0  0  0  0
   48.1989   12.1875   20.5732 C   0  0  0  0  0  0  0  0  0  0  0  0
   46.8764   11.7591   20.7004 C   0  0  0  0  0  0  0  0  0  0  0  0
   46.4224   10.7015   19.9252 C   0  0  0  0  0  0  0  0  0  0  0  0
   47.2954   10.0790   19.0341 C   0  0  0  0  0  0  0  0  0  0  0  0
   48.6409   10.5072   18.8971 C   0  0  0  0  0  0  0  0  0  0  0  0
   49.5773    9.9109   18.0099 C   0  0  0  0  0  0  0  0  0  0  0  0
   49.1742    8.8128   17.1011 C   0  0  0  0  0  0  0  0  0  0  0  0
   48.5727    9.1039   15.8623 C   0  0  0  0  0  0  0  0  0  0  0  0
   48.1958    8.0764   14.9953 C   0  0  0  0  0  0  0  0  0  0  0  0
   48.4254    6.7530   15.3539 C   0  0  0  0  0  0  0  0  0  0  0  0
   48.0652    5.7747   14.5130 F   0  0  0  0  0  0  0  0  0  0  0  0
   49.0167    6.4393   16.5709 C   0  0  0  0  0  0  0  0  0  0  0  0
   49.3873    7.4664   17.4423 C   0  0  0  0  0  0  0  0  0  0  0  0
   52.6567   12.0647   18.8501 C   0  0  0  0  0  0  0  0  0  0  0  0
   52.8669   13.5592   18.9741 C   0  0  0  0  0  0  0  0  0  0  0  0
   53.1678   12.8703   17.6765 C   0  0  0  0  0  0  0  0  0  0  0  0
   53.4077    4.2582   17.9201 C   0  0  0  0  0  0  0  0  0  0  0  0
   51.8897    4.2799   18.0692 C   0  0  0  0  0  0  0  0  0  0  0  0
   51.2481    3.5606   17.2521 O   0  0  0  0  0  0  0  0  0  0  0  0
   51.4636    5.0446   18.9871 O   0  0  0  0  0  0  0  0  0  0  0  0
   49.8784    3.1624   17.0196 H   0  0  0  0  0  0  0  0  0  0  0  0
   50.4222    3.7766   19.0251 H   0  0  0  0  0  0  0  0  0  0  0  0
   51.7238    5.5040   16.8400 H   0  0  0  0  0  0  0  0  0  0  0  0
   50.0364    5.4807   17.2857 H   0  0  0  0  0  0  0  0  0  0  0  0
   52.3248    6.5277   19.0619 H   0  0  0  0  0  0  0  0  0  0  0  0
   50.8883    5.7228   20.4124 H   0  0  0  0  0  0  0  0  0  0  0  0
   49.9302    7.9589   17.7478 H   0  0  0  0  0  0  0  0  0  0  0  0
   52.8565    8.7426   18.3205 H   0  0  0  0  0  0  0  0  0  0  0  0
   51.1492   13.9084   14.4815 H   0  0  0  0  0  0  0  0  0  0  0  0
   49.6029   15.6062   15.3984 H   0  0  0  0  0  0  0  0  0  0  0  0
   48.5014   15.2096   17.5953 H   0  0  0  0  0  0  0  0  0  0  0  0
   48.9484   13.1369   18.8268 H   0  0  0  0  0  0  0  0  0  0  0  0
   48.0974   10.0900   18.4917 H   0  0  0  0  0  0  0  0  0  0  0  0
   47.1115    9.5720   20.7106 H   0  0  0  0  0  0  0  0  0  0  0  0
   50.7515   10.7453   22.6376 H   0  0  0  0  0  0  0  0  0  0  0  0
   51.7623   11.2895   20.4403 H   0  0  0  0  0  0  0  0  0  0  0  0
   54.0107    9.5080   15.8752 H   0  0  0  0  0  0  0  0  0  0  0  0
   53.9902    9.4099   13.3892 H   0  0  0  0  0  0  0  0  0  0  0  0
   52.3099   10.1040   13.3456 H   0  0  0  0  0  0  0  0  0  0  0  0
   51.4673    8.1476   14.6804 H   0  0  0  0  0  0  0  0  0  0  0  0
   53.1505    7.4609   14.7473 H   0  0  0  0  0  0  0  0  0  0  0  0
   53.3205    3.9250   18.0214 H   0  0  0  0  0  0  0  0  0  0  0  0
   52.6554    2.4744   18.7446 H   0  0  0  0  0  0  0  0  0  0  0  0
   52.8308    6.0711   19.4112 H   0  0  0  0  0  0  0  0  0  0  0  0
   55.0617    5.5935   17.7915 H   0  0  0  0  0  0  0  0  0  0  0  0
   53.9340    6.1528   15.8221 H   0  0  0  0  0  0  0  0  0  0  0  0
   52.3736    6.3843   16.5767 H   0  0  0  0  0  0  0  0  0  0  0  0
   53.7668    8.4512   15.8203 H   0  0  0  0  0  0  0  0  0  0  0  0
   54.9260    7.9056   18.3349 H   0  0  0  0  0  0  0  0  0  0  0  0
   52.5614    8.4570   18.6658 H   0  0  0  0  0  0  0  0  0  0  0  0
   52.0155   10.1191   16.1247 H   0  0  0  0  0  0  0  0  0  0  0  0
   48.5568   13.0173   21.1762 H   0  0  0  0  0  0  0  0  0  0  0  0
   46.2155   12.2558   21.4018 H   0  0  0  0  0  0  0  0  0  0  0  0
   45.3974   10.3531   20.0228 H   0  0  0  0  0  0  0  0  0  0  0  0
   46.9189    9.2406   18.4502 H   0  0  0  0  0  0  0  0  0  0  0  0
   48.3973   10.1360   15.5690 H   0  0  0  0  0  0  0  0  0  0  0  0
   47.7434    8.2959   14.0310 H   0  0  0  0  0  0  0  0  0  0  0  0
   49.2117    5.4015   16.8355 H   0  0  0  0  0  0  0  0  0  0  0  0
   49.8738    7.1990   18.3807 H   0  0  0  0  0  0  0  0  0  0  0  0
   53.3872   11.4432   19.3645 H   0  0  0  0  0  0  0  0  0  0  0  0
   51.9941   14.2005   19.0168 H   0  0  0  0  0  0  0  0  0  0  0  0
   53.6981   13.8968   19.5807 H   0  0  0  0  0  0  0  0  0  0  0  0
   54.2071   12.7352   17.3959 H   0  0  0  0  0  0  0  0  0  0  0  0
   52.5009   13.0480   16.8404 H   0  0  0  0  0  0  0  0  0  0  0  0
   53.8088    3.7070   18.7800 H   0  0  0  0  0  0  0  0  0  0  0  0
   53.6978    3.7232   17.0084 H   0  0  0  0  0  0  0  0  0  0  0  0
  2  1  1  0
  2  3  1  0
  3  4  1  0
  4  5  1  0
  4  6  1  0
  6  7  2  0
  7  8  1  0
  8  9  2  0
  9 10  1  0
 10 11  2  0
 11 12  1  0
 12 13  2  0
 13 14  1  0
 14 15  2  0
 15 16  1  0
 11 16  1  0
 16 17  2  0
  8 17  1  0
 17 18  1  0
 18 19  2  0
 19 20  1  0
 20 21  2  0
 21 22  1  0
 21 23  1  0
 23 24  2  0
 18 24  1  0
  9 25  1  0
 25 26  1  0
 26 27  1  0
 25 27  1  0
  2 28  1  0
 28 29  1  0
 29 30  2  0
 29 31  1  0
 34 33  1  0
 34 35  1  0
 35 36  1  0
 36 37  1  0
 36 38  1  0
 38 39  2  0
 39 40  1  0
 40 41  2  0
 41 42  1  0
 42 43  2  0
 43 44  1  0
 44 45  2  0
 45 46  1  0
 46 47  2  0
 47 48  1  0
 43 48  1  0
 48 49  2  0
 40 49  1  0
 49 50  1  0
 50 51  2  0
 51 52  1  0
 52 53  2  0
 53 54  1  0
 53 55  1  0
 55 56  2  0
 50 56  1  0
 41 57  1  0
 57 58  1  0
 58 59  1  0
 57 59  1  0
 34 60  1  0
 60 61  1  0
 61 62  2  0
 61 63  1  0
  1 64  1  0
  2 65  1  1
  3 66  1  0
  3 67  1  0
  4 68  1  1
  5 69  1  0
  6 70  1  0
  7 71  1  0
 12 72  1  0
 13 73  1  0
 14 74  1  0
 15 75  1  0
 19 76  1  0
 20 77  1  0
 23 78  1  0
 24 79  1  0
 25 80  1  0
 26 81  1  0
 26 82  1  0
 27 83  1  0
 27 84  1  0
 28 85  1  0
 28 86  1  0
 33 87  1  0
 34 88  1  1
 35 89  1  0
 35 90  1  0
 36 91  1  6
 37 92  1  0
 38 93  1  0
 39 94  1  0
 44 95  1  0
 45 96  1  0
 46 97  1  0
 47 98  1  0
 51 99  1  0
 52100  1  0
 55101  1  0
 56102  1  0
 57103  1  0
 58104  1  0
 58105  1  0
 59106  1  0
 59107  1  0
 60108  1  0
 60109  1  0
M  CHG  3  31  -1  32   2  63  -1
M  END
> <Uni-Dock RESULT> 
ENERGY=   -4.279  LOWER_BOUND=    3.436  UPPER_BOUND=    7.242
INTER + INTRA:          -4.279
INTER:                  -4.279
INTRA:                   0.000
UNBOUND:                 0.000

$$$$

     RDKit          3D

109114  0  0  0  0  0  0  0  0999 V2000
   50.3944    7.6320   11.2926 O   0  0  0  0  0  0  0  0  0  0  0  0
   49.2862    8.4032   11.8049 C   0  0  2  0  0  0  0  0  0  0  0  0
   49.8109    9.1925   13.0127 C   0  0  0  0  0  0  0  0  0  0  0  0
   48.8194   10.1564   13.6745 C   0  0  2  0  0  0  0  0  0  0  0  0
   48.3039   11.0702   12.7170 O   0  0  0  0  0  0  0  0  0  0  0  0
   49.5151   10.9918   14.7102 C   0  0  0  0  0  0  0  0  0  0  0  0
   49.1663   11.0184   16.0064 C   0  0  0  0  0  0  0  0  0  0  0  0
   49.8661   11.8477   17.0053 C   0  0  0  0  0  0  0  0  0  0  0  0
   50.6395   11.2164   17.9977 C   0  0  0  0  0  0  0  0  0  0  0  0
   51.2961   11.9312   18.9488 N   0  0  0  0  0  0  0  0  0  0  0  0
   51.2221   13.2661   18.9427 C   0  0  0  0  0  0  0  0  0  0  0  0
   51.9231   13.9492   19.9261 C   0  0  0  0  0  0  0  0  0  0  0  0
   51.9216   15.3427   20.0107 C   0  0  0  0  0  0  0  0  0  0  0  0
   51.1803   16.0794   19.0999 C   0  0  0  0  0  0  0  0  0  0  0  0
   50.4571   15.4129   18.1102 C   0  0  0  0  0  0  0  0  0  0  0  0
   50.4726   13.9968   18.0012 C   0  0  0  0  0  0  0  0  0  0  0  0
   49.7719   13.2607   17.0065 C   0  0  0  0  0  0  0  0  0  0  0  0
   48.9478   13.9640   16.0032 C   0  0  0  0  0  0  0  0  0  0  0  0
   49.5403   14.5528   14.8717 C   0  0  0  0  0  0  0  0  0  0  0  0
   48.7561   15.2126   13.9238 C   0  0  0  0  0  0  0  0  0  0  0  0
   47.3799   15.2877   14.1028 C   0  0  0  0  0  0  0  0  0  0  0  0
   46.6289   15.9329   13.1988 F   0  0  0  0  0  0  0  0  0  0  0  0
   46.7707   14.7087   15.2089 C   0  0  0  0  0  0  0  0  0  0  0  0
   47.5533   14.0504   16.1594 C   0  0  0  0  0  0  0  0  0  0  0  0
   50.7660    9.7023   18.0791 C   0  0  0  0  0  0  0  0  0  0  0  0
   52.0692    9.0696   18.5234 C   0  0  0  0  0  0  0  0  0  0  0  0
   51.6417    8.9606   17.0942 C   0  0  0  0  0  0  0  0  0  0  0  0
   48.1638    7.4265   12.1218 C   0  0  0  0  0  0  0  0  0  0  0  0
   46.7754    8.0497   12.2261 C   0  0  0  0  0  0  0  0  0  0  0  0
   46.6731    9.2576   11.8645 O   0  0  0  0  0  0  0  0  0  0  0  0
   45.8866    7.2823   12.6940 O   0  0  0  0  0  0  0  0  0  0  0  0
   49.6311   11.5757   15.5865 Ca  0  0  0  0  0 15  0  0  0  0  0  0
   47.1703    8.5737   14.7491 O   0  0  0  0  0  0  0  0  0  0  0  0
   48.1534    7.5321   14.7867 C   0  0  2  0  0  0  0  0  0  0  0  0
   49.4221    7.9761   15.5378 C   0  0  0  0  0  0  0  0  0  0  0  0
   49.1855    8.8043   16.8105 C   0  0  2  0  0  0  0  0  0  0  0  0
   48.0241    8.3645   17.5064 O   0  0  0  0  0  0  0  0  0  0  0  0
   49.0221   10.2718   16.5397 C   0  0  0  0  0  0  0  0  0  0  0  0
   49.8232   11.2258   17.0356 C   0  0  0  0  0  0  0  0  0  0  0  0
   49.6194   12.6368   16.6737 C   0  0  0  0  0  0  0  0  0  0  0  0
   48.7256   13.4260   17.4192 C   0  0  0  0  0  0  0  0  0  0  0  0
   48.4742   14.7179   17.0822 N   0  0  0  0  0  0  0  0  0  0  0  0
   49.0726   15.2544   16.0103 C   0  0  0  0  0  0  0  0  0  0  0  0
   48.7625   16.5697   15.6890 C   0  0  0  0  0  0  0  0  0  0  0  0
   49.3269   17.2152   14.5874 C   0  0  0  0  0  0  0  0  0  0  0  0
   50.2292   16.5334   13.7833 C   0  0  0  0  0  0  0  0  0  0  0  0
   50.5549   15.2118   14.0846 C   0  0  0  0  0  0  0  0  0  0  0  0
   49.9873   14.5471   15.2020 C   0  0  0  0  0  0  0  0  0  0  0  0
   50.2774   13.2021   15.5571 C   0  0  0  0  0  0  0  0  0  0  0  0
   51.2690   12.4088   14.7942 C   0  0  0  0  0  0  0  0  0  0  0  0
   52.6404   12.5142   15.0928 C   0  0  0  0  0  0  0  0  0  0  0  0
   53.5825   11.7654   14.3847 C   0  0  0  0  0  0  0  0  0  0  0  0
   53.1619   10.8999   13.3815 C   0  0  0  0  0  0  0  0  0  0  0  0
   54.0727   10.1819   12.7116 F   0  0  0  0  0  0  0  0  0  0  0  0
   51.8145   10.7783   13.0671 C   0  0  0  0  0  0  0  0  0  0  0  0
   50.8718   11.5327   13.7700 C   0  0  0  0  0  0  0  0  0  0  0  0
   47.9802   12.8834   18.6310 C   0  0  0  0  0  0  0  0  0  0  0  0
   47.7610   13.7557   19.8492 C   0  0  0  0  0  0  0  0  0  0  0  0
   48.7280   12.6115   19.9173 C   0  0  0  0  0  0  0  0  0  0  0  0
   48.4283    6.9978   13.3842 C   0  0  0  0  0  0  0  0  0  0  0  0
   49.0716    8.0709   12.5114 C   0  0  0  0  0  0  0  0  0  0  0  0
   50.1041    7.7146   11.8760 O   0  0  0  0  0  0  0  0  0  0  0  0
   48.4950    9.1997   12.5573 O   0  0  0  0  0  0  0  0  0  0  0  0
   51.0022    8.2717   10.8901 H   0  0  0  0  0  0  0  0  0  0  0  0
   48.9965    9.0843   10.9988 H   0  0  0  0  0  0  0  0  0  0  0  0
   50.2099    8.4937   13.7614 H   0  0  0  0  0  0  0  0  0  0  0  0
   50.6841    9.7643   12.6625 H   0  0  0  0  0  0  0  0  0  0  0  0
   47.9872    9.6162   14.1434 H   0  0  0  0  0  0  0  0  0  0  0  0
   47.5576   10.5675   12.2871 H   0  0  0  0  0  0  0  0  0  0  0  0
   50.3310   11.6101   14.3463 H   0  0  0  0  0  0  0  0  0  0  0  0
   48.3471   10.4060   16.3761 H   0  0  0  0  0  0  0  0  0  0  0  0
   52.5016   13.3766   20.6486 H   0  0  0  0  0  0  0  0  0  0  0  0
   52.4919   15.8453   20.7883 H   0  0  0  0  0  0  0  0  0  0  0  0
   51.1617   17.1660   19.1503 H   0  0  0  0  0  0  0  0  0  0  0  0
   49.8817   16.0117   17.4062 H   0  0  0  0  0  0  0  0  0  0  0  0
   50.6142   14.4801   14.7160 H   0  0  0  0  0  0  0  0  0  0  0  0
   49.2067   15.6548   13.0418 H   0  0  0  0  0  0  0  0  0  0  0  0
   45.6924   14.7548   15.3175 H   0  0  0  0  0  0  0  0  0  0  0  0
   47.0685   13.5888   17.0183 H   0  0  0  0  0  0  0  0  0  0  0  0
   49.8631    9.1922   18.4073 H   0  0  0  0  0  0  0  0  0  0  0  0
   52.0145    8.1812   19.1416 H   0  0  0  0  0  0  0  0  0  0  0  0
   52.9038    9.7201   18.7567 H   0  0  0  0  0  0  0  0  0  0  0  0
   52.1901    9.5314   16.3537 H   0  0  0  0  0  0  0  0  0  0  0  0
   51.2792    8.0043   16.7381 H   0  0  0  0  0  0  0  0  0  0  0  0
   48.3867    6.8798   13.0477 H   0  0  0  0  0  0  0  0  0  0  0  0
   48.1074    6.6635   11.3316 H   0  0  0  0  0  0  0  0  0  0  0  0
   47.4308    9.1233   13.9590 H   0  0  0  0  0  0  0  0  0  0  0  0
   47.6932    6.7174   15.3631 H   0  0  0  0  0  0  0  0  0  0  0  0
   49.9602    7.0602   15.8168 H   0  0  0  0  0  0  0  0  0  0  0  0
   50.1030    8.5305   14.8811 H   0  0  0  0  0  0  0  0  0  0  0  0
   50.0383    8.6509   17.4824 H   0  0  0  0  0  0  0  0  0  0  0  0
   47.2856    8.5070   16.8766 H   0  0  0  0  0  0  0  0  0  0  0  0
   48.2008   10.5502   15.8804 H   0  0  0  0  0  0  0  0  0  0  0  0
   50.6604   10.9987   17.6880 H   0  0  0  0  0  0  0  0  0  0  0  0
   48.0581   17.1015   16.3226 H   0  0  0  0  0  0  0  0  0  0  0  0
   49.0571   18.2425   14.3700 H   0  0  0  0  0  0  0  0  0  0  0  0
   50.6675   17.0229   12.9173 H   0  0  0  0  0  0  0  0  0  0  0  0
   51.2523   14.6941   13.4279 H   0  0  0  0  0  0  0  0  0  0  0  0
   52.9784   13.1816   15.8818 H   0  0  0  0  0  0  0  0  0  0  0  0
   54.6421   11.8324   14.6205 H   0  0  0  0  0  0  0  0  0  0  0  0
   51.4913   10.0832   12.2941 H   0  0  0  0  0  0  0  0  0  0  0  0
   49.8174   11.4023   13.5251 H   0  0  0  0  0  0  0  0  0  0  0  0
   47.1682   12.1999   18.3903 H   0  0  0  0  0  0  0  0  0  0  0  0
   48.1656   14.7613   19.8425 H   0  0  0  0  0  0  0  0  0  0  0  0
   46.8148   13.6595   20.3672 H   0  0  0  0  0  0  0  0  0  0  0  0
   48.4418   11.7303   20.4818 H   0  0  0  0  0  0  0  0  0  0  0  0
   49.7863   12.8427   19.9601 H   0  0  0  0  0  0  0  0  0  0  0  0
   47.4859    6.7105   12.9009 H   0  0  0  0  0  0  0  0  0  0  0  0
   49.0679    6.1091   13.4366 H   0  0  0  0  0  0  0  0  0  0  0  0
  2  1  1  0
  2  3  1  0
  3  4  1  0
  4  5  1  0
  4  6  1  0
  6  7  2  0
  7  8  1  0
  8  9  2  0
  9 10  1  0
 10 11  2  0
 11 12  1  0
 12 13  2  0
 13 14  1  0
 14 15  2  0
 15 16  1  0
 11 16  1  0
 16 17  2  0
  8 17  1  0
 17 18  1  0
 18 19  2  0
 19 20  1  0
 20 21  2  0
 21 22  1  0
 21 23  1  0
 23 24  2  0
 18 24  1  0
  9 25  1  0
 25 26  1  0
 26 27  1  0
 25 27  1  0
  2 28  1  0
 28 29  1  0
 29 30  2  0
 29 31  1  0
 34 33  1  0
 34 35  1  0
 35 36  1  0
 36 37  1  0
 36 38  1  0
 38 39  2  0
 39 40  1  0
 40 41  2  0
 41 42  1  0
 42 43  2  0
 43 44  1  0
 44 45  2  0
 45 46  1  0
 46 47  2  0
 47 48  1  0
 43 48  1  0
 48 49  2  0
 40 49  1  0
 49 50  1  0
 50 51  2  0
 51 52  1  0
 52 53  2  0
 53 54  1  0
 53 55  1  0
 55 56  2  0
 50 56  1  0
 41 57  1  0
 57 58  1  0
 58 59  1  0
 57 59  1  0
 34 60  1  0
 60 61  1  0
 61 62  2  0
 61 63  1  0
  1 64  1  0
  2 65  1  1
  3 66  1  0
  3 67  1  0
  4 68  1  1
  5 69  1  0
  6 70  1  0
  7 71  1  0
 12 72  1  0
 13 73  1  0
 14 74  1  0
 15 75  1  0
 19 76  1  0
 20 77  1  0
 23 78  1  0
 24 79  1  0
 25 80  1  0
 26 81  1  0
 26 82  1  0
 27 83  1  0
 27 84  1  0
 28 85  1  0
 28 86  1  0
 33 87  1  0
 34 88  1  1
 35 89  1  0
 35 90  1  0
 36 91  1  6
 37 92  1  0
 38 93  1  0
 39 94  1  0
 44 95  1  0
 45 96  1  0
 46 97  1  0
 47 98  1  0
 51 99  1  0
 52100  1  0
 55101  1  0
 56102  1  0
 57103  1  0
 58104  1  0
 58105  1  0
 59106  1  0
 59107  1  0
 60108  1  0
 60109  1  0
M  CHG  3  31  -1  32   2  63  -1
M  END
> <Uni-Dock RESULT> 
ENERGY=   -4.158  LOWER_BOUND=    4.454  UPPER_BOUND=    8.509
INTER + INTRA:          -4.158
INTER:                  -4.158
INTRA:                   0.000
UNBOUND:                 0.000

$$$$
