
     RDKit          3D

109114  0  0  0  0  0  0  0  0999 V2000
   47.7497    7.2837   11.4592 O   0  0  0  0  0  0  0  0  0  0  0  0
   48.6868    7.9301   12.3329 C   0  0  2  0  0  0  0  0  0  0  0  0
   48.4032    7.4553   13.7649 C   0  0  0  0  0  0  0  0  0  0  0  0
   49.3751    8.0119   14.8067 C   0  0  2  0  0  0  0  0  0  0  0  0
   50.6916    7.5204   14.5510 O   0  0  0  0  0  0  0  0  0  0  0  0
   48.9319    7.6085   16.1898 C   0  0  0  0  0  0  0  0  0  0  0  0
   49.6956    7.0694   17.1541 C   0  0  0  0  0  0  0  0  0  0  0  0
   49.1442    6.6977   18.4688 C   0  0  0  0  0  0  0  0  0  0  0  0
   48.9101    5.3403   18.7485 C   0  0  0  0  0  0  0  0  0  0  0  0
   48.4044    4.9500   19.9481 N   0  0  0  0  0  0  0  0  0  0  0  0
   48.0902    5.8617   20.8782 C   0  0  0  0  0  0  0  0  0  0  0  0
   47.5467    5.4055   22.0729 C   0  0  0  0  0  0  0  0  0  0  0  0
   47.1717    6.2754   23.1005 C   0  0  0  0  0  0  0  0  0  0  0  0
   47.3607    7.6403   22.9425 C   0  0  0  0  0  0  0  0  0  0  0  0
   47.9172    8.1201   21.7549 C   0  0  0  0  0  0  0  0  0  0  0  0
   48.2828    7.2438   20.6972 C   0  0  0  0  0  0  0  0  0  0  0  0
   48.8333    7.6673   19.4552 C   0  0  0  0  0  0  0  0  0  0  0  0
   49.0947    9.0985   19.2069 C   0  0  0  0  0  0  0  0  0  0  0  0
   50.3583    9.6463   19.4865 C   0  0  0  0  0  0  0  0  0  0  0  0
   50.6117   10.9995   19.2529 C   0  0  0  0  0  0  0  0  0  0  0  0
   49.6077   11.8112   18.7415 C   0  0  0  0  0  0  0  0  0  0  0  0
   49.8504   13.1135   18.5360 F   0  0  0  0  0  0  0  0  0  0  0  0
   48.3560   11.2882   18.4438 C   0  0  0  0  0  0  0  0  0  0  0  0
   48.0942    9.9363   18.6809 C   0  0  0  0  0  0  0  0  0  0  0  0
   49.2150    4.2432   17.7340 C   0  0  0  0  0  0  0  0  0  0  0  0
   48.1974    3.9246   16.6617 C   0  0  0  0  0  0  0  0  0  0  0  0
   48.4655    2.9276   17.7498 C   0  0  0  0  0  0  0  0  0  0  0  0
   48.6301    9.4422   12.1090 C   0  0  0  0  0  0  0  0  0  0  0  0
   47.3046   10.0277   12.6004 C   0  0  0  0  0  0  0  0  0  0  0  0
   46.2729    9.3684   12.2635 O   0  0  0  0  0  0  0  0  0  0  0  0
   47.3998   11.0769   13.2955 O   0  0  0  0  0  0  0  0  0  0  0  0
   48.5710    7.6099   17.2926 Ca  0  0  0  0  0 15  0  0  0  0  0  0
   48.0011   10.3062   13.2826 O   0  0  0  0  0  0  0  0  0  0  0  0
   47.8236    8.9540   12.8384 C   0  0  2  0  0  0  0  0  0  0  0  0
   47.8547    7.9905   14.0458 C   0  0  0  0  0  0  0  0  0  0  0  0
   49.2273    7.6795   14.6651 C   0  0  2  0  0  0  0  0  0  0  0  0
   49.8068    6.5517   13.9992 O   0  0  0  0  0  0  0  0  0  0  0  0
   49.2327    7.2631   16.1183 C   0  0  0  0  0  0  0  0  0  0  0  0
   48.2043    7.1411   16.9711 C   0  0  0  0  0  0  0  0  0  0  0  0
   48.4097    6.7006   18.3619 C   0  0  0  0  0  0  0  0  0  0  0  0
   48.4874    5.3290   18.6541 C   0  0  0  0  0  0  0  0  0  0  0  0
   48.7165    4.8871   19.9197 N   0  0  0  0  0  0  0  0  0  0  0  0
   48.8821    5.7692   20.9124 C   0  0  0  0  0  0  0  0  0  0  0  0
   49.1354    5.2746   22.1856 C   0  0  0  0  0  0  0  0  0  0  0  0
   49.3233    6.1176   23.2814 C   0  0  0  0  0  0  0  0  0  0  0  0
   49.2613    7.4908   23.1113 C   0  0  0  0  0  0  0  0  0  0  0  0
   49.0133    8.0077   21.8450 C   0  0  0  0  0  0  0  0  0  0  0  0
   48.8125    7.1622   20.7222 C   0  0  0  0  0  0  0  0  0  0  0  0
   48.5583    7.6373   19.4083 C   0  0  0  0  0  0  0  0  0  0  0  0
   48.4506    9.0860   19.1428 C   0  0  0  0  0  0  0  0  0  0  0  0
   47.2286    9.7563   19.3371 C   0  0  0  0  0  0  0  0  0  0  0  0
   47.1193   11.1275   19.0977 C   0  0  0  0  0  0  0  0  0  0  0  0
   48.2366   11.8344   18.6661 C   0  0  0  0  0  0  0  0  0  0  0  0
   48.1356   13.1530   18.4407 F   0  0  0  0  0  0  0  0  0  0  0  0
   49.4537   11.1958   18.4655 C   0  0  0  0  0  0  0  0  0  0  0  0
   49.5628    9.8235   18.7036 C   0  0  0  0  0  0  0  0  0  0  0  0
   48.3348    4.2721   17.5744 C   0  0  0  0  0  0  0  0  0  0  0  0
   46.9689    3.9740   16.9909 C   0  0  0  0  0  0  0  0  0  0  0  0
   47.6325    2.9660   17.8803 C   0  0  0  0  0  0  0  0  0  0  0  0
   48.6872    8.6218   11.6282 C   0  0  0  0  0  0  0  0  0  0  0  0
   50.1525    8.8643   11.9222 C   0  0  0  0  0  0  0  0  0  0  0  0
   50.8737    7.8280   11.9186 O   0  0  0  0  0  0  0  0  0  0  0  0
   50.4408   10.0521   12.2401 O   0  0  0  0  0  0  0  0  0  0  0  0
   46.9186    7.8187   11.5624 H   0  0  0  0  0  0  0  0  0  0  0  0
   49.6772    7.5689   12.0268 H   0  0  0  0  0  0  0  0  0  0  0  0
   47.3640    7.6902   14.0395 H   0  0  0  0  0  0  0  0  0  0  0  0
   48.4493    6.3561   13.7695 H   0  0  0  0  0  0  0  0  0  0  0  0
   49.4053    9.1061   14.7664 H   0  0  0  0  0  0  0  0  0  0  0  0
   50.6092    6.5618   14.4431 H   0  0  0  0  0  0  0  0  0  0  0  0
   47.8787    7.8030   16.3954 H   0  0  0  0  0  0  0  0  0  0  0  0
   50.7541    6.8825   17.0035 H   0  0  0  0  0  0  0  0  0  0  0  0
   47.4069    4.3363   22.2029 H   0  0  0  0  0  0  0  0  0  0  0  0
   46.7438    5.8828   24.0174 H   0  0  0  0  0  0  0  0  0  0  0  0
   47.0710    8.3325   23.7305 H   0  0  0  0  0  0  0  0  0  0  0  0
   48.0587    9.1956   21.6542 H   0  0  0  0  0  0  0  0  0  0  0  0
   51.1541    9.0146   19.8788 H   0  0  0  0  0  0  0  0  0  0  0  0
   51.5861   11.4237   19.4641 H   0  0  0  0  0  0  0  0  0  0  0  0
   47.5890   11.9262   18.0172 H   0  0  0  0  0  0  0  0  0  0  0  0
   47.1113    9.5347   18.4363 H   0  0  0  0  0  0  0  0  0  0  0  0
   50.2605    4.1769   17.4414 H   0  0  0  0  0  0  0  0  0  0  0  0
   47.2472    4.4464   16.6789 H   0  0  0  0  0  0  0  0  0  0  0  0
   48.5605    3.7093   15.6640 H   0  0  0  0  0  0  0  0  0  0  0  0
   49.0070    2.0252   17.4882 H   0  0  0  0  0  0  0  0  0  0  0  0
   47.7057    2.7832   18.5104 H   0  0  0  0  0  0  0  0  0  0  0  0
   48.7048    9.6672   11.0375 H   0  0  0  0  0  0  0  0  0  0  0  0
   49.4750    9.9333   12.6064 H   0  0  0  0  0  0  0  0  0  0  0  0
   48.9470   10.5365   13.0863 H   0  0  0  0  0  0  0  0  0  0  0  0
   46.7855    8.9322   12.4806 H   0  0  0  0  0  0  0  0  0  0  0  0
   47.2110    8.4559   14.8038 H   0  0  0  0  0  0  0  0  0  0  0  0
   47.3820    7.0410   13.7450 H   0  0  0  0  0  0  0  0  0  0  0  0
   49.9036    8.5396   14.5760 H   0  0  0  0  0  0  0  0  0  0  0  0
   50.3068    6.9053   13.2168 H   0  0  0  0  0  0  0  0  0  0  0  0
   50.2306    7.0220   16.4768 H   0  0  0  0  0  0  0  0  0  0  0  0
   47.1815    7.3506   16.6881 H   0  0  0  0  0  0  0  0  0  0  0  0
   49.1840    4.1963   22.3211 H   0  0  0  0  0  0  0  0  0  0  0  0
   49.5249    5.6979   24.2610 H   0  0  0  0  0  0  0  0  0  0  0  0
   49.4205    8.1653   23.9509 H   0  0  0  0  0  0  0  0  0  0  0  0
   48.9823    9.0897   21.7374 H   0  0  0  0  0  0  0  0  0  0  0  0
   46.3502    9.2058   19.6742 H   0  0  0  0  0  0  0  0  0  0  0  0
   46.1770   11.6433   19.2290 H   0  0  0  0  0  0  0  0  0  0  0  0
   50.3133   11.7594   18.1088 H   0  0  0  0  0  0  0  0  0  0  0  0
   50.5138    9.3223   18.5263 H   0  0  0  0  0  0  0  0  0  0  0  0
   49.1743    4.1980   16.8845 H   0  0  0  0  0  0  0  0  0  0  0  0
   46.1134    4.5129   17.3807 H   0  0  0  0  0  0  0  0  0  0  0  0
   46.9227    3.7652   15.9273 H   0  0  0  0  0  0  0  0  0  0  0  0
   47.2202    2.8278   18.8717 H   0  0  0  0  0  0  0  0  0  0  0  0
   48.0318    2.0674   17.4265 H   0  0  0  0  0  0  0  0  0  0  0  0
   48.4177    9.2848   10.8001 H   0  0  0  0  0  0  0  0  0  0  0  0
   48.5109    7.5981   11.2967 H   0  0  0  0  0  0  0  0  0  0  0  0
  2  1  1  0
  2  3  1  0
  3  4  1  0
  4  5  1  0
  4  6  1  0
  6  7  2  0
  7  8  1  0
  8  9  2  0
  9 10  1  0
 10 11  2  0
 11 12  1  0
 12 13  2  0
 13 14  1  0
 14 15  2  0
 15 16  1  0
 11 16  1  0
 16 17  2  0
  8 17  1  0
 17 18  1  0
 18 19  2  0
 19 20  1  0
 20 21  2  0
 21 22  1  0
 21 23  1  0
 23 24  2  0
 18 24  1  0
  9 25  1  0
 25 26  1  0
 26 27  1  0
 25 27  1  0
  2 28  1  0
 28 29  1  0
 29 30  2  0
 29 31  1  0
 34 33  1  0
 34 35  1  0
 35 36  1  0
 36 37  1  0
 36 38  1  0
 38 39  2  0
 39 40  1  0
 40 41  2  0
 41 42  1  0
 42 43  2  0
 43 44  1  0
 44 45  2  0
 45 46  1  0
 46 47  2  0
 47 48  1  0
 43 48  1  0
 48 49  2  0
 40 49  1  0
 49 50  1  0
 50 51  2  0
 51 52  1  0
 52 53  2  0
 53 54  1  0
 53 55  1  0
 55 56  2  0
 50 56  1  0
 41 57  1  0
 57 58  1  0
 58 59  1  0
 57 59  1  0
 34 60  1  0
 60 61  1  0
 61 62  2  0
 61 63  1  0
  1 64  1  0
  2 65  1  1
  3 66  1  0
  3 67  1  0
  4 68  1  1
  5 69  1  0
  6 70  1  0
  7 71  1  0
 12 72  1  0
 13 73  1  0
 14 74  1  0
 15 75  1  0
 19 76  1  0
 20 77  1  0
 23 78  1  0
 24 79  1  0
 25 80  1  0
 26 81  1  0
 26 82  1  0
 27 83  1  0
 27 84  1  0
 28 85  1  0
 28 86  1  0
 33 87  1  0
 34 88  1  6
 35 89  1  0
 35 90  1  0
 36 91  1  1
 37 92  1  0
 38 93  1  0
 39 94  1  0
 44 95  1  0
 45 96  1  0
 46 97  1  0
 47 98  1  0
 51 99  1  0
 52100  1  0
 55101  1  0
 56102  1  0
 57103  1  0
 58104  1  0
 58105  1  0
 59106  1  0
 59107  1  0
 60108  1  0
 60109  1  0
M  CHG  3  31  -1  32   2  63  -1
M  END
> <Uni-Dock RESULT> 
ENERGY=   -7.391  LOWER_BOUND=    0.000  UPPER_BOUND=    0.000
INTER + INTRA:          -7.391
INTER:                  -7.391
INTRA:                   0.000
UNBOUND:                 0.000

$$$$

     RDKit          3D

109114  0  0  0  0  0  0  0  0999 V2000
   50.2110   11.2814   13.3776 O   0  0  0  0  0  0  0  0  0  0  0  0
   49.6046   10.0083   13.6437 C   0  0  2  0  0  0  0  0  0  0  0  0
   49.4792    9.8534   15.1659 C   0  0  0  0  0  0  0  0  0  0  0  0
   48.7823    8.5636   15.6026 C   0  0  2  0  0  0  0  0  0  0  0  0
   47.4246    8.5736   15.1592 O   0  0  0  0  0  0  0  0  0  0  0  0
   48.8355    8.4340   17.1035 C   0  0  0  0  0  0  0  0  0  0  0  0
   47.8117    8.1426   17.9226 C   0  0  0  0  0  0  0  0  0  0  0  0
   47.9817    8.0595   19.3837 C   0  0  0  0  0  0  0  0  0  0  0  0
   47.5167    9.1178   20.1832 C   0  0  0  0  0  0  0  0  0  0  0  0
   47.6499    9.0843   21.5354 N   0  0  0  0  0  0  0  0  0  0  0  0
   48.2582    8.0487   22.1293 C   0  0  0  0  0  0  0  0  0  0  0  0
   48.3939    8.0849   23.5117 C   0  0  0  0  0  0  0  0  0  0  0  0
   49.0254    7.0624   24.2250 C   0  0  0  0  0  0  0  0  0  0  0  0
   49.5209    5.9603   23.5439 C   0  0  0  0  0  0  0  0  0  0  0  0
   49.3841    5.8969   22.1556 C   0  0  0  0  0  0  0  0  0  0  0  0
   48.7609    6.9418   21.4207 C   0  0  0  0  0  0  0  0  0  0  0  0
   48.6086    6.9507   20.0059 C   0  0  0  0  0  0  0  0  0  0  0  0
   49.0813    5.8083   19.1999 C   0  0  0  0  0  0  0  0  0  0  0  0
   48.2046    4.7584   18.8774 C   0  0  0  0  0  0  0  0  0  0  0  0
   48.6459    3.6753   18.1145 C   0  0  0  0  0  0  0  0  0  0  0  0
   49.9613    3.6339   17.6713 C   0  0  0  0  0  0  0  0  0  0  0  0
   50.3851    2.5833   16.9545 F   0  0  0  0  0  0  0  0  0  0  0  0
   50.8412    4.6675   17.9654 C   0  0  0  0  0  0  0  0  0  0  0  0
   50.4075    5.7511   18.7334 C   0  0  0  0  0  0  0  0  0  0  0  0
   46.8379   10.3445   19.5832 C   0  0  0  0  0  0  0  0  0  0  0  0
   47.6902   11.4735   19.0485 C   0  0  0  0  0  0  0  0  0  0  0  0
   46.8712   11.6846   20.2872 C   0  0  0  0  0  0  0  0  0  0  0  0
   50.3913    8.9109   12.9251 C   0  0  0  0  0  0  0  0  0  0  0  0
   51.7767    8.7221   13.5466 C   0  0  0  0  0  0  0  0  0  0  0  0
   52.4038    9.7995   13.7889 O   0  0  0  0  0  0  0  0  0  0  0  0
   52.1160    7.5256   13.7617 O   0  0  0  0  0  0  0  0  0  0  0  0
   49.0369    8.0728   18.1876 Ca  0  0  0  0  0 15  0  0  0  0  0  0
   51.2272    7.9240   13.8454 O   0  0  0  0  0  0  0  0  0  0  0  0
   50.7907    9.2832   13.9847 C   0  0  2  0  0  0  0  0  0  0  0  0
   50.1826    9.5039   15.3877 C   0  0  0  0  0  0  0  0  0  0  0  0
   48.7696    8.9520   15.6391 C   0  0  2  0  0  0  0  0  0  0  0  0
   47.7995    9.9416   15.2772 O   0  0  0  0  0  0  0  0  0  0  0  0
   48.4165    8.6302   17.0734 C   0  0  0  0  0  0  0  0  0  0  0  0
   49.1702    8.7360   18.1781 C   0  0  0  0  0  0  0  0  0  0  0  0
   48.6372    8.3855   19.5062 C   0  0  0  0  0  0  0  0  0  0  0  0
   47.8913    9.3307   20.2293 C   0  0  0  0  0  0  0  0  0  0  0  0
   47.3499    9.0288   21.4398 N   0  0  0  0  0  0  0  0  0  0  0  0
   47.5177    7.8060   21.9570 C   0  0  0  0  0  0  0  0  0  0  0  0
   46.9296    7.5340   23.1858 C   0  0  0  0  0  0  0  0  0  0  0  0
   47.0486    6.2877   23.8017 C   0  0  0  0  0  0  0  0  0  0  0  0
   47.7689    5.2802   23.1817 C   0  0  0  0  0  0  0  0  0  0  0  0
   48.3622    5.5290   21.9496 C   0  0  0  0  0  0  0  0  0  0  0  0
   48.2561    6.7944   21.3144 C   0  0  0  0  0  0  0  0  0  0  0  0
   48.8401    7.1009   20.0567 C   0  0  0  0  0  0  0  0  0  0  0  0
   49.6459    6.0928   19.3389 C   0  0  0  0  0  0  0  0  0  0  0  0
   51.0117    5.9303   19.6363 C   0  0  0  0  0  0  0  0  0  0  0  0
   51.7797    4.9736   18.9695 C   0  0  0  0  0  0  0  0  0  0  0  0
   51.1804    4.1720   18.0038 C   0  0  0  0  0  0  0  0  0  0  0  0
   51.9147    3.2483   17.3658 F   0  0  0  0  0  0  0  0  0  0  0  0
   49.8345    4.3136   17.6911 C   0  0  0  0  0  0  0  0  0  0  0  0
   49.0663    5.2719   18.3571 C   0  0  0  0  0  0  0  0  0  0  0  0
   47.6386   10.7289   19.6931 C   0  0  0  0  0  0  0  0  0  0  0  0
   48.7545   11.7534   19.6878 C   0  0  0  0  0  0  0  0  0  0  0  0
   47.6050   11.9124   20.6369 C   0  0  0  0  0  0  0  0  0  0  0  0
   50.0042    9.7680   12.7734 C   0  0  0  0  0  0  0  0  0  0  0  0
   48.8053    8.8810   12.5123 C   0  0  0  0  0  0  0  0  0  0  0  0
   47.6853    9.4438   12.6628 O   0  0  0  0  0  0  0  0  0  0  0  0
   49.0805    7.6692   12.2864 O   0  0  0  0  0  0  0  0  0  0  0  0
   51.1803   11.1200   13.5261 H   0  0  0  0  0  0  0  0  0  0  0  0
   48.5990   10.0603   13.2064 H   0  0  0  0  0  0  0  0  0  0  0  0
   50.4711    9.9361   15.6347 H   0  0  0  0  0  0  0  0  0  0  0  0
   48.9195   10.7206   15.5467 H   0  0  0  0  0  0  0  0  0  0  0  0
   49.2766    7.6873   15.1693 H   0  0  0  0  0  0  0  0  0  0  0  0
   47.0555    9.4272   15.4286 H   0  0  0  0  0  0  0  0  0  0  0  0
   49.8277    8.5859   17.5296 H   0  0  0  0  0  0  0  0  0  0  0  0
   46.8128    7.9578   17.5408 H   0  0  0  0  0  0  0  0  0  0  0  0
   47.9979    8.9423   24.0482 H   0  0  0  0  0  0  0  0  0  0  0  0
   49.1190    7.1286   25.3042 H   0  0  0  0  0  0  0  0  0  0  0  0
   50.0189    5.1568   24.0826 H   0  0  0  0  0  0  0  0  0  0  0  0
   49.7785    5.0206   21.6423 H   0  0  0  0  0  0  0  0  0  0  0  0
   47.1688    4.7875   19.2130 H   0  0  0  0  0  0  0  0  0  0  0  0
   47.9712    2.8661   17.8613 H   0  0  0  0  0  0  0  0  0  0  0  0
   51.8583    4.6376   17.5887 H   0  0  0  0  0  0  0  0  0  0  0  0
   51.1039    6.5602   18.9514 H   0  0  0  0  0  0  0  0  0  0  0  0
   45.9219   10.1314   19.0367 H   0  0  0  0  0  0  0  0  0  0  0  0
   48.7665   11.4070   19.1608 H   0  0  0  0  0  0  0  0  0  0  0  0
   47.3749   11.9588   18.1328 H   0  0  0  0  0  0  0  0  0  0  0  0
   45.9986   12.3243   20.2149 H   0  0  0  0  0  0  0  0  0  0  0  0
   47.3888   11.7477   21.2384 H   0  0  0  0  0  0  0  0  0  0  0  0
   50.5441    9.1844   11.8734 H   0  0  0  0  0  0  0  0  0  0  0  0
   49.8316    7.9681   12.9404 H   0  0  0  0  0  0  0  0  0  0  0  0
   50.5285    7.4661   13.3084 H   0  0  0  0  0  0  0  0  0  0  0  0
   51.7265    9.8580   13.9838 H   0  0  0  0  0  0  0  0  0  0  0  0
   50.8866    9.0318   16.0856 H   0  0  0  0  0  0  0  0  0  0  0  0
   50.1796   10.5859   15.5989 H   0  0  0  0  0  0  0  0  0  0  0  0
   48.5929    8.0404   15.0536 H   0  0  0  0  0  0  0  0  0  0  0  0
   47.6104    9.8186   14.3096 H   0  0  0  0  0  0  0  0  0  0  0  0
   47.3918    8.2825   17.1801 H   0  0  0  0  0  0  0  0  0  0  0  0
   50.1940    9.0846   18.1569 H   0  0  0  0  0  0  0  0  0  0  0  0
   46.3639    8.3244   23.6745 H   0  0  0  0  0  0  0  0  0  0  0  0
   46.5718    6.1074   24.7591 H   0  0  0  0  0  0  0  0  0  0  0  0
   47.8602    4.2964   23.6389 H   0  0  0  0  0  0  0  0  0  0  0  0
   48.9113    4.7164   21.4791 H   0  0  0  0  0  0  0  0  0  0  0  0
   51.4856    6.5573   20.3917 H   0  0  0  0  0  0  0  0  0  0  0  0
   52.8343    4.8574   19.1828 H   0  0  0  0  0  0  0  0  0  0  0  0
   49.3853    3.6922   16.9193 H   0  0  0  0  0  0  0  0  0  0  0  0
   48.0158    5.3937   18.0953 H   0  0  0  0  0  0  0  0  0  0  0  0
   46.9408   10.7798   18.8585 H   0  0  0  0  0  0  0  0  0  0  0  0
   49.7171   11.4690   20.0962 H   0  0  0  0  0  0  0  0  0  0  0  0
   48.8074   12.4194   18.8331 H   0  0  0  0  0  0  0  0  0  0  0  0
   47.7971   11.7337   21.6872 H   0  0  0  0  0  0  0  0  0  0  0  0
   46.8786   12.6900   20.4351 H   0  0  0  0  0  0  0  0  0  0  0  0
   50.6397    9.7095   11.8841 H   0  0  0  0  0  0  0  0  0  0  0  0
   49.7100   10.8108   12.8956 H   0  0  0  0  0  0  0  0  0  0  0  0
  2  1  1  0
  2  3  1  0
  3  4  1  0
  4  5  1  0
  4  6  1  0
  6  7  2  0
  7  8  1  0
  8  9  2  0
  9 10  1  0
 10 11  2  0
 11 12  1  0
 12 13  2  0
 13 14  1  0
 14 15  2  0
 15 16  1  0
 11 16  1  0
 16 17  2  0
  8 17  1  0
 17 18  1  0
 18 19  2  0
 19 20  1  0
 20 21  2  0
 21 22  1  0
 21 23  1  0
 23 24  2  0
 18 24  1  0
  9 25  1  0
 25 26  1  0
 26 27  1  0
 25 27  1  0
  2 28  1  0
 28 29  1  0
 29 30  2  0
 29 31  1  0
 34 33  1  0
 34 35  1  0
 35 36  1  0
 36 37  1  0
 36 38  1  0
 38 39  2  0
 39 40  1  0
 40 41  2  0
 41 42  1  0
 42 43  2  0
 43 44  1  0
 44 45  2  0
 45 46  1  0
 46 47  2  0
 47 48  1  0
 43 48  1  0
 48 49  2  0
 40 49  1  0
 49 50  1  0
 50 51  2  0
 51 52  1  0
 52 53  2  0
 53 54  1  0
 53 55  1  0
 55 56  2  0
 50 56  1  0
 41 57  1  0
 57 58  1  0
 58 59  1  0
 57 59  1  0
 34 60  1  0
 60 61  1  0
 61 62  2  0
 61 63  1  0
  1 64  1  0
  2 65  1  1
  3 66  1  0
  3 67  1  0
  4 68  1  1
  5 69  1  0
  6 70  1  0
  7 71  1  0
 12 72  1  0
 13 73  1  0
 14 74  1  0
 15 75  1  0
 19 76  1  0
 20 77  1  0
 23 78  1  0
 24 79  1  0
 25 80  1  0
 26 81  1  0
 26 82  1  0
 27 83  1  0
 27 84  1  0
 28 85  1  0
 28 86  1  0
 33 87  1  0
 34 88  1  6
 35 89  1  0
 35 90  1  0
 36 91  1  1
 37 92  1  0
 38 93  1  0
 39 94  1  0
 44 95  1  0
 45 96  1  0
 46 97  1  0
 47 98  1  0
 51 99  1  0
 52100  1  0
 55101  1  0
 56102  1  0
 57103  1  0
 58104  1  0
 58105  1  0
 59106  1  0
 59107  1  0
 60108  1  0
 60109  1  0
M  CHG  3  31  -1  32   2  63  -1
M  END
> <Uni-Dock RESULT> 
ENERGY=   -6.862  LOWER_BOUND=    2.414  UPPER_BOUND=    4.918
INTER + INTRA:          -6.862
INTER:                  -6.862
INTRA:                   0.000
UNBOUND:                 0.000

$$$$

     RDKit          3D

109114  0  0  0  0  0  0  0  0999 V2000
   50.5459   15.5630   18.1726 O   0  0  0  0  0  0  0  0  0  0  0  0
   50.0446   14.7786   17.0805 C   0  0  2  0  0  0  0  0  0  0  0  0
   49.8362   13.3440   17.5854 C   0  0  0  0  0  0  0  0  0  0  0  0
   49.2356   12.4004   16.5420 C   0  0  2  0  0  0  0  0  0  0  0  0
   47.9142   12.8274   16.2077 O   0  0  0  0  0  0  0  0  0  0  0  0
   49.2037   10.9928   17.0803 C   0  0  0  0  0  0  0  0  0  0  0  0
   48.1608   10.1467   17.0591 C   0  0  0  0  0  0  0  0  0  0  0  0
   48.2433    8.7931   17.6348 C   0  0  0  0  0  0  0  0  0  0  0  0
   47.6315    8.5439   18.8754 C   0  0  0  0  0  0  0  0  0  0  0  0
   47.6798    7.3106   19.4444 N   0  0  0  0  0  0  0  0  0  0  0  0
   48.3421    6.3137   18.8422 C   0  0  0  0  0  0  0  0  0  0  0  0
   48.3845    5.0836   19.4870 C   0  0  0  0  0  0  0  0  0  0  0  0
   49.0610    3.9846   18.9506 C   0  0  0  0  0  0  0  0  0  0  0  0
   49.6996    4.1076   17.7254 C   0  0  0  0  0  0  0  0  0  0  0  0
   49.6591    5.3312   17.0536 C   0  0  0  0  0  0  0  0  0  0  0  0
   48.9901    6.4592   17.6016 C   0  0  0  0  0  0  0  0  0  0  0  0
   48.9291    7.7384   16.9813 C   0  0  0  0  0  0  0  0  0  0  0  0
   49.5568    7.9567   15.6636 C   0  0  0  0  0  0  0  0  0  0  0  0
   48.8041    7.8039   14.4868 C   0  0  0  0  0  0  0  0  0  0  0  0
   49.3924    8.0098   13.2372 C   0  0  0  0  0  0  0  0  0  0  0  0
   50.7318    8.3673   13.1556 C   0  0  0  0  0  0  0  0  0  0  0  0
   51.2966    8.5462   11.9531 F   0  0  0  0  0  0  0  0  0  0  0  0
   51.4910    8.5385   14.3059 C   0  0  0  0  0  0  0  0  0  0  0  0
   50.9100    8.3281   15.5590 C   0  0  0  0  0  0  0  0  0  0  0  0
   46.8816    9.6309   19.6382 C   0  0  0  0  0  0  0  0  0  0  0  0
   47.6581   10.5897   20.5127 C   0  0  0  0  0  0  0  0  0  0  0  0
   46.7449    9.5819   21.1454 C   0  0  0  0  0  0  0  0  0  0  0  0
   50.9745   14.9323   15.8758 C   0  0  0  0  0  0  0  0  0  0  0  0
   52.3285   14.2666   16.1301 C   0  0  0  0  0  0  0  0  0  0  0  0
   52.8359   14.5079   17.2690 O   0  0  0  0  0  0  0  0  0  0  0  0
   52.7630   13.5450   15.1902 O   0  0  0  0  0  0  0  0  0  0  0  0
   49.3676    9.8564   17.2479 Ca  0  0  0  0  0 15  0  0  0  0  0  0
   51.8375   13.6592   15.4836 O   0  0  0  0  0  0  0  0  0  0  0  0
   51.2684   14.1347   16.7113 C   0  0  2  0  0  0  0  0  0  0  0  0
   50.5534   12.9795   17.4471 C   0  0  0  0  0  0  0  0  0  0  0  0
   49.1845   12.5374   16.9039 C   0  0  2  0  0  0  0  0  0  0  0  0
   48.1519   13.3117   17.5248 O   0  0  0  0  0  0  0  0  0  0  0  0
   48.7712   11.1128   17.1961 C   0  0  0  0  0  0  0  0  0  0  0  0
   49.4390   10.1520   17.8522 C   0  0  0  0  0  0  0  0  0  0  0  0
   48.8564    8.8137   18.0527 C   0  0  0  0  0  0  0  0  0  0  0  0
   47.9809    8.5888   19.1276 C   0  0  0  0  0  0  0  0  0  0  0  0
   47.3930    7.3776   19.3200 N   0  0  0  0  0  0  0  0  0  0  0  0
   47.6400    6.3757   18.4678 C   0  0  0  0  0  0  0  0  0  0  0  0
   47.0018    5.1619   18.6896 C   0  0  0  0  0  0  0  0  0  0  0  0
   47.1962    4.0618   17.8536 C   0  0  0  0  0  0  0  0  0  0  0  0
   48.0454    4.1672   16.7645 C   0  0  0  0  0  0  0  0  0  0  0  0
   48.6911    5.3738   16.5213 C   0  0  0  0  0  0  0  0  0  0  0  0
   48.5091    6.4993   17.3674 C   0  0  0  0  0  0  0  0  0  0  0  0
   49.1419    7.7542   17.1636 C   0  0  0  0  0  0  0  0  0  0  0  0
   50.0824    7.9459   16.0414 C   0  0  0  0  0  0  0  0  0  0  0  0
   51.4354    7.5835   16.1769 C   0  0  0  0  0  0  0  0  0  0  0  0
   52.3303    7.7523   15.1185 C   0  0  0  0  0  0  0  0  0  0  0  0
   51.8716    8.2816   13.9170 C   0  0  0  0  0  0  0  0  0  0  0  0
   52.7282    8.4397   12.8968 F   0  0  0  0  0  0  0  0  0  0  0  0
   50.5413    8.6484   13.7583 C   0  0  0  0  0  0  0  0  0  0  0  0
   49.6461    8.4810   14.8178 C   0  0  0  0  0  0  0  0  0  0  0  0
   47.6344    9.6858   20.1191 C   0  0  0  0  0  0  0  0  0  0  0  0
   48.6483   10.1181   21.1583 C   0  0  0  0  0  0  0  0  0  0  0  0
   47.4303    9.3539   21.5822 C   0  0  0  0  0  0  0  0  0  0  0  0
   50.5201   15.4497   16.5341 C   0  0  0  0  0  0  0  0  0  0  0  0
   49.4281   15.3185   15.4936 C   0  0  0  0  0  0  0  0  0  0  0  0
   48.2532   15.4483   15.9371 O   0  0  0  0  0  0  0  0  0  0  0  0
   49.8286   14.9880   14.3423 O   0  0  0  0  0  0  0  0  0  0  0  0
   51.5144   15.3421   18.2006 H   0  0  0  0  0  0  0  0  0  0  0  0
   49.0688   15.2124   16.8257 H   0  0  0  0  0  0  0  0  0  0  0  0
   50.7839   12.9409   17.9727 H   0  0  0  0  0  0  0  0  0  0  0  0
   49.1750   13.3897   18.4635 H   0  0  0  0  0  0  0  0  0  0  0  0
   49.8360   12.3991   15.6258 H   0  0  0  0  0  0  0  0  0  0  0  0
   47.4508   12.9641   17.0467 H   0  0  0  0  0  0  0  0  0  0  0  0
   50.1481   10.6583   17.5112 H   0  0  0  0  0  0  0  0  0  0  0  0
   47.2100   10.4270   16.6172 H   0  0  0  0  0  0  0  0  0  0  0  0
   47.8768    4.9820   20.4418 H   0  0  0  0  0  0  0  0  0  0  0  0
   49.0783    3.0410   19.4865 H   0  0  0  0  0  0  0  0  0  0  0  0
   50.2344    3.2636   17.2946 H   0  0  0  0  0  0  0  0  0  0  0  0
   50.1654    5.4036   16.0917 H   0  0  0  0  0  0  0  0  0  0  0  0
   47.7506    7.5329   14.5421 H   0  0  0  0  0  0  0  0  0  0  0  0
   48.8135    7.8962   12.3283 H   0  0  0  0  0  0  0  0  0  0  0  0
   52.5287    8.8465   14.2301 H   0  0  0  0  0  0  0  0  0  0  0  0
   51.5126    8.4729   16.4551 H   0  0  0  0  0  0  0  0  0  0  0  0
   46.0266   10.0456   19.1090 H   0  0  0  0  0  0  0  0  0  0  0  0
   48.7263   10.4408   20.6220 H   0  0  0  0  0  0  0  0  0  0  0  0
   47.3587   11.6308   20.5163 H   0  0  0  0  0  0  0  0  0  0  0  0
   45.8230    9.9414   21.5891 H   0  0  0  0  0  0  0  0  0  0  0  0
   47.1920    8.7446   21.6705 H   0  0  0  0  0  0  0  0  0  0  0  0
   51.1686   15.9951   15.6833 H   0  0  0  0  0  0  0  0  0  0  0  0
   50.5050   14.5170   14.9761 H   0  0  0  0  0  0  0  0  0  0  0  0
   51.2203   13.9546   14.7638 H   0  0  0  0  0  0  0  0  0  0  0  0
   52.1449   14.3699   17.3299 H   0  0  0  0  0  0  0  0  0  0  0  0
   51.2518   12.1333   17.4047 H   0  0  0  0  0  0  0  0  0  0  0  0
   50.4362   13.2619   18.5063 H   0  0  0  0  0  0  0  0  0  0  0  0
   49.1314   12.6692   15.8154 H   0  0  0  0  0  0  0  0  0  0  0  0
   48.0379   14.1318   16.9756 H   0  0  0  0  0  0  0  0  0  0  0  0
   47.7784   10.8830   16.8166 H   0  0  0  0  0  0  0  0  0  0  0  0
   50.4252   10.3053   18.2694 H   0  0  0  0  0  0  0  0  0  0  0  0
   46.3348    5.0772   19.5448 H   0  0  0  0  0  0  0  0  0  0  0  0
   46.6774    3.1303   18.0526 H   0  0  0  0  0  0  0  0  0  0  0  0
   48.1981    3.3250   16.0918 H   0  0  0  0  0  0  0  0  0  0  0  0
   49.3426    5.4328   15.6521 H   0  0  0  0  0  0  0  0  0  0  0  0
   51.7993    7.1693   17.1173 H   0  0  0  0  0  0  0  0  0  0  0  0
   53.3753    7.4913   15.2245 H   0  0  0  0  0  0  0  0  0  0  0  0
   50.2025    9.0794   12.8186 H   0  0  0  0  0  0  0  0  0  0  0  0
   48.6079    8.7881   14.6964 H   0  0  0  0  0  0  0  0  0  0  0  0
   46.9902   10.4711   19.7262 H   0  0  0  0  0  0  0  0  0  0  0  0
   49.6048    9.6097   21.1877 H   0  0  0  0  0  0  0  0  0  0  0  0
   48.6941   11.1768   21.3910 H   0  0  0  0  0  0  0  0  0  0  0  0
   47.5701    8.3278   21.8975 H   0  0  0  0  0  0  0  0  0  0  0  0
   46.6493    9.8875   22.1098 H   0  0  0  0  0  0  0  0  0  0  0  0
   51.2141   16.2130   16.1685 H   0  0  0  0  0  0  0  0  0  0  0  0
   50.1229   15.8001   17.4872 H   0  0  0  0  0  0  0  0  0  0  0  0
  2  1  1  0
  2  3  1  0
  3  4  1  0
  4  5  1  0
  4  6  1  0
  6  7  2  0
  7  8  1  0
  8  9  2  0
  9 10  1  0
 10 11  2  0
 11 12  1  0
 12 13  2  0
 13 14  1  0
 14 15  2  0
 15 16  1  0
 11 16  1  0
 16 17  2  0
  8 17  1  0
 17 18  1  0
 18 19  2  0
 19 20  1  0
 20 21  2  0
 21 22  1  0
 21 23  1  0
 23 24  2  0
 18 24  1  0
  9 25  1  0
 25 26  1  0
 26 27  1  0
 25 27  1  0
  2 28  1  0
 28 29  1  0
 29 30  2  0
 29 31  1  0
 34 33  1  0
 34 35  1  0
 35 36  1  0
 36 37  1  0
 36 38  1  0
 38 39  2  0
 39 40  1  0
 40 41  2  0
 41 42  1  0
 42 43  2  0
 43 44  1  0
 44 45  2  0
 45 46  1  0
 46 47  2  0
 47 48  1  0
 43 48  1  0
 48 49  2  0
 40 49  1  0
 49 50  1  0
 50 51  2  0
 51 52  1  0
 52 53  2  0
 53 54  1  0
 53 55  1  0
 55 56  2  0
 50 56  1  0
 41 57  1  0
 57 58  1  0
 58 59  1  0
 57 59  1  0
 34 60  1  0
 60 61  1  0
 61 62  2  0
 61 63  1  0
  1 64  1  0
  2 65  1  1
  3 66  1  0
  3 67  1  0
  4 68  1  1
  5 69  1  0
  6 70  1  0
  7 71  1  0
 12 72  1  0
 13 73  1  0
 14 74  1  0
 15 75  1  0
 19 76  1  0
 20 77  1  0
 23 78  1  0
 24 79  1  0
 25 80  1  0
 26 81  1  0
 26 82  1  0
 27 83  1  0
 27 84  1  0
 28 85  1  0
 28 86  1  0
 33 87  1  0
 34 88  1  6
 35 89  1  0
 35 90  1  0
 36 91  1  1
 37 92  1  0
 38 93  1  0
 39 94  1  0
 44 95  1  0
 45 96  1  0
 46 97  1  0
 47 98  1  0
 51 99  1  0
 52100  1  0
 55101  1  0
 56102  1  0
 57103  1  0
 58104  1  0
 58105  1  0
 59106  1  0
 59107  1  0
 60108  1  0
 60109  1  0
M  CHG  3  31  -1  32   2  63  -1
M  END
> <Uni-Dock RESULT> 
ENERGY=   -6.859  LOWER_BOUND=    3.056  UPPER_BOUND=    5.961
INTER + INTRA:          -6.859
INTER:                  -6.859
INTRA:                   0.000
UNBOUND:                 0.000

$$$$

     RDKit          3D

109114  0  0  0  0  0  0  0  0999 V2000
   47.7900    3.8154   19.5745 O   0  0  0  0  0  0  0  0  0  0  0  0
   48.8077    4.2882   18.6800 C   0  0  2  0  0  0  0  0  0  0  0  0
   48.5369    5.7727   18.3981 C   0  0  0  0  0  0  0  0  0  0  0  0
   49.5878    6.4364   17.5065 C   0  0  2  0  0  0  0  0  0  0  0  0
   50.8494    6.4526   18.1761 O   0  0  0  0  0  0  0  0  0  0  0  0
   49.1623    7.8428   17.1706 C   0  0  0  0  0  0  0  0  0  0  0  0
   49.9127    8.9532   17.2588 C   0  0  0  0  0  0  0  0  0  0  0  0
   49.3795   10.2836   16.9175 C   0  0  0  0  0  0  0  0  0  0  0  0
   49.0442   11.1684   17.9568 C   0  0  0  0  0  0  0  0  0  0  0  0
   48.5510   12.4065   17.6901 N   0  0  0  0  0  0  0  0  0  0  0  0
   48.3463   12.7944   16.4241 C   0  0  0  0  0  0  0  0  0  0  0  0
   47.8098   14.0588   16.2142 C   0  0  0  0  0  0  0  0  0  0  0  0
   47.5446   14.5520   14.9337 C   0  0  0  0  0  0  0  0  0  0  0  0
   47.8399   13.7705   13.8265 C   0  0  0  0  0  0  0  0  0  0  0  0
   48.3916   12.5012   14.0136 C   0  0  0  0  0  0  0  0  0  0  0  0
   48.6458   11.9845   15.3131 C   0  0  0  0  0  0  0  0  0  0  0  0
   49.1849   10.6938   15.5746 C   0  0  0  0  0  0  0  0  0  0  0  0
   49.5546    9.8021   14.4582 C   0  0  0  0  0  0  0  0  0  0  0  0
   50.8682    9.7999   13.9589 C   0  0  0  0  0  0  0  0  0  0  0  0
   51.2239    8.9578   12.9033 C   0  0  0  0  0  0  0  0  0  0  0  0
   50.2729    8.1164   12.3413 C   0  0  0  0  0  0  0  0  0  0  0  0
   50.6148    7.3230   11.3162 F   0  0  0  0  0  0  0  0  0  0  0  0
   48.9725    8.0910   12.8284 C   0  0  0  0  0  0  0  0  0  0  0  0
   48.6086    8.9354   13.8804 C   0  0  0  0  0  0  0  0  0  0  0  0
   49.2213   10.7935   19.4244 C   0  0  0  0  0  0  0  0  0  0  0  0
   48.1434    9.9904   20.1173 C   0  0  0  0  0  0  0  0  0  0  0  0
   48.3669   11.4221   20.5049 C   0  0  0  0  0  0  0  0  0  0  0  0
   48.8681    3.3774   17.4526 C   0  0  0  0  0  0  0  0  0  0  0  0
   47.6138    3.5245   16.5888 C   0  0  0  0  0  0  0  0  0  0  0  0
   46.5198    3.5304   17.2337 O   0  0  0  0  0  0  0  0  0  0  0  0
   47.8199    3.6434   15.3493 O   0  0  0  0  0  0  0  0  0  0  0  0
   48.8421    8.8119   16.6184 Ca  0  0  0  0  0 15  0  0  0  0  0  0
   48.3546    4.0001   16.0858 O   0  0  0  0  0  0  0  0  0  0  0  0
   48.0505    4.2446   17.4661 C   0  0  2  0  0  0  0  0  0  0  0  0
   48.0448    5.7638   17.7470 C   0  0  0  0  0  0  0  0  0  0  0  0
   49.4082    6.4670   17.8517 C   0  0  2  0  0  0  0  0  0  0  0  0
   49.8686    6.4160   19.2069 O   0  0  0  0  0  0  0  0  0  0  0  0
   49.4309    7.9449   17.5343 C   0  0  0  0  0  0  0  0  0  0  0  0
   48.4268    8.7466   17.1484 C   0  0  0  0  0  0  0  0  0  0  0  0
   48.6444   10.1823   16.8995 C   0  0  0  0  0  0  0  0  0  0  0  0
   48.6189   11.0873   17.9733 C   0  0  0  0  0  0  0  0  0  0  0  0
   48.8556   12.4135   17.7866 N   0  0  0  0  0  0  0  0  0  0  0  0
   49.1287   12.8741   16.5602 C   0  0  0  0  0  0  0  0  0  0  0  0
   49.3853   14.2321   16.4184 C   0  0  0  0  0  0  0  0  0  0  0  0
   49.6810   14.8023   15.1797 C   0  0  0  0  0  0  0  0  0  0  0  0
   49.7265   14.0043   14.0486 C   0  0  0  0  0  0  0  0  0  0  0  0
   49.4771   12.6421   14.1680 C   0  0  0  0  0  0  0  0  0  0  0  0
   49.1675   12.0491   15.4203 C   0  0  0  0  0  0  0  0  0  0  0  0
   48.9069   10.6645   15.5983 C   0  0  0  0  0  0  0  0  0  0  0  0
   48.9098    9.7465   14.4416 C   0  0  0  0  0  0  0  0  0  0  0  0
   47.7550    9.5925   13.6524 C   0  0  0  0  0  0  0  0  0  0  0  0
   47.7508    8.7339   12.5512 C   0  0  0  0  0  0  0  0  0  0  0  0
   48.9066    8.0286   12.2336 C   0  0  0  0  0  0  0  0  0  0  0  0
   48.9068    7.2073   11.1729 F   0  0  0  0  0  0  0  0  0  0  0  0
   50.0589    8.1620   12.9975 C   0  0  0  0  0  0  0  0  0  0  0  0
   50.0627    9.0199   14.1002 C   0  0  0  0  0  0  0  0  0  0  0  0
   48.3414   10.6324   19.3954 C   0  0  0  0  0  0  0  0  0  0  0  0
   46.9357   10.2480   19.8091 C   0  0  0  0  0  0  0  0  0  0  0  0
   47.5450   11.5127   20.3353 C   0  0  0  0  0  0  0  0  0  0  0  0
   48.8402    3.3407   18.4041 C   0  0  0  0  0  0  0  0  0  0  0  0
   50.3300    3.4967   18.1842 C   0  0  0  0  0  0  0  0  0  0  0  0
   50.9626    3.9877   19.1602 O   0  0  0  0  0  0  0  0  0  0  0  0
   50.7265    3.2192   17.0176 O   0  0  0  0  0  0  0  0  0  0  0  0
   47.0101    3.6478   18.9818 H   0  0  0  0  0  0  0  0  0  0  0  0
   49.7534    4.1962   19.2298 H   0  0  0  0  0  0  0  0  0  0  0  0
   47.5311    5.8961   17.9696 H   0  0  0  0  0  0  0  0  0  0  0  0
   48.4923    6.2954   19.3651 H   0  0  0  0  0  0  0  0  0  0  0  0
   49.7068    5.8851   16.5674 H   0  0  0  0  0  0  0  0  0  0  0  0
   50.6843    6.8089   19.0611 H   0  0  0  0  0  0  0  0  0  0  0  0
   48.1367    7.9244   16.8089 H   0  0  0  0  0  0  0  0  0  0  0  0
   50.9460    8.9166   17.5885 H   0  0  0  0  0  0  0  0  0  0  0  0
   47.5870   14.6766   17.0793 H   0  0  0  0  0  0  0  0  0  0  0  0
   47.1186   15.5424   14.8089 H   0  0  0  0  0  0  0  0  0  0  0  0
   47.6365   14.1368   12.8223 H   0  0  0  0  0  0  0  0  0  0  0  0
   48.6177   11.9064   13.1293 H   0  0  0  0  0  0  0  0  0  0  0  0
   51.6226   10.4498   14.4002 H   0  0  0  0  0  0  0  0  0  0  0  0
   52.2369    8.9514   12.5187 H   0  0  0  0  0  0  0  0  0  0  0  0
   48.2461    7.4081   12.4002 H   0  0  0  0  0  0  0  0  0  0  0  0
   47.5878    8.9016   14.2600 H   0  0  0  0  0  0  0  0  0  0  0  0
   50.2467   10.5747   19.7138 H   0  0  0  0  0  0  0  0  0  0  0  0
   47.2408    9.7522   19.5660 H   0  0  0  0  0  0  0  0  0  0  0  0
   48.4519    9.2149   20.8079 H   0  0  0  0  0  0  0  0  0  0  0  0
   48.8224   11.6210   21.4687 H   0  0  0  0  0  0  0  0  0  0  0  0
   47.6252   12.1550   20.2060 H   0  0  0  0  0  0  0  0  0  0  0  0
   48.9230    2.3270   17.7656 H   0  0  0  0  0  0  0  0  0  0  0  0
   49.7678    3.5908   16.8632 H   0  0  0  0  0  0  0  0  0  0  0  0
   49.3087    3.7256   16.0606 H   0  0  0  0  0  0  0  0  0  0  0  0
   47.0021    3.9314   17.5605 H   0  0  0  0  0  0  0  0  0  0  0  0
   47.4690    6.2079   16.9242 H   0  0  0  0  0  0  0  0  0  0  0  0
   47.4850    5.9427   18.6797 H   0  0  0  0  0  0  0  0  0  0  0  0
   50.1496    5.9881   17.1990 H   0  0  0  0  0  0  0  0  0  0  0  0
   50.3680    5.5633   19.3091 H   0  0  0  0  0  0  0  0  0  0  0  0
   50.4175    8.3824   17.6668 H   0  0  0  0  0  0  0  0  0  0  0  0
   47.4153    8.3904   17.0060 H   0  0  0  0  0  0  0  0  0  0  0  0
   49.3495   14.8604   17.3058 H   0  0  0  0  0  0  0  0  0  0  0  0
   49.8819   15.8655   15.1056 H   0  0  0  0  0  0  0  0  0  0  0  0
   49.9705   14.4278   13.0759 H   0  0  0  0  0  0  0  0  0  0  0  0
   49.5318   12.0367   13.2659 H   0  0  0  0  0  0  0  0  0  0  0  0
   46.8466   10.1426   13.8985 H   0  0  0  0  0  0  0  0  0  0  0  0
   46.8595    8.5993   11.9522 H   0  0  0  0  0  0  0  0  0  0  0  0
   50.9488    7.5883   12.7475 H   0  0  0  0  0  0  0  0  0  0  0  0
   50.9622    9.1071   14.7088 H   0  0  0  0  0  0  0  0  0  0  0  0
   49.1469   10.0654   19.8599 H   0  0  0  0  0  0  0  0  0  0  0  0
   46.1420   10.3312   19.0761 H   0  0  0  0  0  0  0  0  0  0  0  0
   46.8347    9.4082   20.4885 H   0  0  0  0  0  0  0  0  0  0  0  0
   47.1582   12.4489   19.9535 H   0  0  0  0  0  0  0  0  0  0  0  0
   47.8524   11.5392   21.3734 H   0  0  0  0  0  0  0  0  0  0  0  0
   48.5970    2.2958   18.1873 H   0  0  0  0  0  0  0  0  0  0  0  0
   48.5683    3.5296   19.4430 H   0  0  0  0  0  0  0  0  0  0  0  0
  2  1  1  0
  2  3  1  0
  3  4  1  0
  4  5  1  0
  4  6  1  0
  6  7  2  0
  7  8  1  0
  8  9  2  0
  9 10  1  0
 10 11  2  0
 11 12  1  0
 12 13  2  0
 13 14  1  0
 14 15  2  0
 15 16  1  0
 11 16  1  0
 16 17  2  0
  8 17  1  0
 17 18  1  0
 18 19  2  0
 19 20  1  0
 20 21  2  0
 21 22  1  0
 21 23  1  0
 23 24  2  0
 18 24  1  0
  9 25  1  0
 25 26  1  0
 26 27  1  0
 25 27  1  0
  2 28  1  0
 28 29  1  0
 29 30  2  0
 29 31  1  0
 34 33  1  0
 34 35  1  0
 35 36  1  0
 36 37  1  0
 36 38  1  0
 38 39  2  0
 39 40  1  0
 40 41  2  0
 41 42  1  0
 42 43  2  0
 43 44  1  0
 44 45  2  0
 45 46  1  0
 46 47  2  0
 47 48  1  0
 43 48  1  0
 48 49  2  0
 40 49  1  0
 49 50  1  0
 50 51  2  0
 51 52  1  0
 52 53  2  0
 53 54  1  0
 53 55  1  0
 55 56  2  0
 50 56  1  0
 41 57  1  0
 57 58  1  0
 58 59  1  0
 57 59  1  0
 34 60  1  0
 60 61  1  0
 61 62  2  0
 61 63  1  0
  1 64  1  0
  2 65  1  1
  3 66  1  0
  3 67  1  0
  4 68  1  1
  5 69  1  0
  6 70  1  0
  7 71  1  0
 12 72  1  0
 13 73  1  0
 14 74  1  0
 15 75  1  0
 19 76  1  0
 20 77  1  0
 23 78  1  0
 24 79  1  0
 25 80  1  0
 26 81  1  0
 26 82  1  0
 27 83  1  0
 27 84  1  0
 28 85  1  0
 28 86  1  0
 33 87  1  0
 34 88  1  6
 35 89  1  0
 35 90  1  0
 36 91  1  1
 37 92  1  0
 38 93  1  0
 39 94  1  0
 44 95  1  0
 45 96  1  0
 46 97  1  0
 47 98  1  0
 51 99  1  0
 52100  1  0
 55101  1  0
 56102  1  0
 57103  1  0
 58104  1  0
 58105  1  0
 59106  1  0
 59107  1  0
 60108  1  0
 60109  1  0
M  CHG  3  31  -1  32   2  63  -1
M  END
> <Uni-Dock RESULT> 
ENERGY=   -6.715  LOWER_BOUND=    3.534  UPPER_BOUND=    7.169
INTER + INTRA:          -6.715
INTER:                  -6.715
INTRA:                   0.000
UNBOUND:                 0.000

$$$$

     RDKit          3D

109114  0  0  0  0  0  0  0  0999 V2000
   49.4363   17.3696   16.7425 O   0  0  0  0  0  0  0  0  0  0  0  0
   49.6057   17.0456   15.3549 C   0  0  2  0  0  0  0  0  0  0  0  0
   48.3651   16.2662   14.8965 C   0  0  0  0  0  0  0  0  0  0  0  0
   48.3717   15.9090   13.4091 C   0  0  2  0  0  0  0  0  0  0  0  0
   48.3199   17.1019   12.6252 O   0  0  0  0  0  0  0  0  0  0  0  0
   47.1924   15.0271   13.0875 C   0  0  0  0  0  0  0  0  0  0  0  0
   46.3250   15.1816   12.0738 C   0  0  0  0  0  0  0  0  0  0  0  0
   45.1937   14.2603   11.8685 C   0  0  0  0  0  0  0  0  0  0  0  0
   43.9013   14.6807   12.2269 C   0  0  0  0  0  0  0  0  0  0  0  0
   42.8272   13.8660   12.0541 N   0  0  0  0  0  0  0  0  0  0  0  0
   42.9886   12.6294   11.5643 C   0  0  0  0  0  0  0  0  0  0  0  0
   41.8583   11.8308   11.4402 C   0  0  0  0  0  0  0  0  0  0  0  0
   41.9211   10.5218   10.9545 C   0  0  0  0  0  0  0  0  0  0  0  0
   43.1437    9.9972   10.5623 C   0  0  0  0  0  0  0  0  0  0  0  0
   44.2910   10.7866   10.6664 C   0  0  0  0  0  0  0  0  0  0  0  0
   44.2386   12.1117   11.1779 C   0  0  0  0  0  0  0  0  0  0  0  0
   45.3704   12.9605   11.3308 C   0  0  0  0  0  0  0  0  0  0  0  0
   46.7088   12.4977   10.9154 C   0  0  0  0  0  0  0  0  0  0  0  0
   47.1856   12.7784    9.6236 C   0  0  0  0  0  0  0  0  0  0  0  0
   48.4514   12.3437    9.2252 C   0  0  0  0  0  0  0  0  0  0  0  0
   49.2455   11.6276   10.1112 C   0  0  0  0  0  0  0  0  0  0  0  0
   50.4526   11.1968    9.7179 F   0  0  0  0  0  0  0  0  0  0  0  0
   48.8008   11.3515   11.3976 C   0  0  0  0  0  0  0  0  0  0  0  0
   47.5329   11.7784   11.8005 C   0  0  0  0  0  0  0  0  0  0  0  0
   43.6364   16.0622   12.8159 C   0  0  0  0  0  0  0  0  0  0  0  0
   43.8328   16.2834   14.2990 C   0  0  0  0  0  0  0  0  0  0  0  0
   42.4492   16.3167   13.7205 C   0  0  0  0  0  0  0  0  0  0  0  0
   50.9472   16.3374   15.1588 C   0  0  0  0  0  0  0  0  0  0  0  0
   50.9399   14.9462   15.7957 C   0  0  0  0  0  0  0  0  0  0  0  0
   50.4408   14.8964   16.9624 O   0  0  0  0  0  0  0  0  0  0  0  0
   51.4082   14.0191   15.0787 O   0  0  0  0  0  0  0  0  0  0  0  0
   46.5122   14.1463   12.7588 Ca  0  0  0  0  0 15  0  0  0  0  0  0
   50.8837   14.7937   14.7949 O   0  0  0  0  0  0  0  0  0  0  0  0
   50.0153   15.6829   15.5107 C   0  0  2  0  0  0  0  0  0  0  0  0
   48.5550   15.4866   15.0459 C   0  0  0  0  0  0  0  0  0  0  0  0
   48.1608   16.0860   13.6859 C   0  0  2  0  0  0  0  0  0  0  0  0
   47.7150   17.4346   13.8699 O   0  0  0  0  0  0  0  0  0  0  0  0
   46.9995   15.4324   12.9720 C   0  0  0  0  0  0  0  0  0  0  0  0
   46.2598   14.3764   13.3427 C   0  0  0  0  0  0  0  0  0  0  0  0
   45.1449   13.8913   12.5107 C   0  0  0  0  0  0  0  0  0  0  0  0
   43.8814   14.4951   12.6179 C   0  0  0  0  0  0  0  0  0  0  0  0
   42.8400   14.1005   11.8372 N   0  0  0  0  0  0  0  0  0  0  0  0
   43.0150   13.1243   10.9388 C   0  0  0  0  0  0  0  0  0  0  0  0
   41.9304   12.7675   10.1475 C   0  0  0  0  0  0  0  0  0  0  0  0
   42.0186   11.7629    9.1832 C   0  0  0  0  0  0  0  0  0  0  0  0
   43.2164   11.0935    8.9951 C   0  0  0  0  0  0  0  0  0  0  0  0
   44.3159   11.4371    9.7730 C   0  0  0  0  0  0  0  0  0  0  0  0
   44.2391   12.4519   10.7631 C   0  0  0  0  0  0  0  0  0  0  0  0
   45.3309   12.8432   11.5826 C   0  0  0  0  0  0  0  0  0  0  0  0
   46.6371   12.1642   11.4656 C   0  0  0  0  0  0  0  0  0  0  0  0
   46.8827   10.9683   12.1654 C   0  0  0  0  0  0  0  0  0  0  0  0
   48.1111   10.3140   12.0539 C   0  0  0  0  0  0  0  0  0  0  0  0
   49.0982   10.8539   11.2363 C   0  0  0  0  0  0  0  0  0  0  0  0
   50.2774   10.2243   11.1232 F   0  0  0  0  0  0  0  0  0  0  0  0
   48.8811   12.0338   10.5362 C   0  0  0  0  0  0  0  0  0  0  0  0
   47.6525   12.6893   10.6489 C   0  0  0  0  0  0  0  0  0  0  0  0
   43.6164   15.6255   13.5969 C   0  0  0  0  0  0  0  0  0  0  0  0
   43.4987   15.3348   15.0789 C   0  0  0  0  0  0  0  0  0  0  0  0
   42.2793   15.7269   14.3000 C   0  0  0  0  0  0  0  0  0  0  0  0
   50.5654   17.1018   15.5801 C   0  0  0  0  0  0  0  0  0  0  0  0
   50.8178   17.6561   14.1939 C   0  0  0  0  0  0  0  0  0  0  0  0
   50.0915   18.6379   13.8740 O   0  0  0  0  0  0  0  0  0  0  0  0
   51.6420   16.9967   13.5003 O   0  0  0  0  0  0  0  0  0  0  0  0
   49.6838   16.5313   17.2155 H   0  0  0  0  0  0  0  0  0  0  0  0
   49.6382   18.0073   14.8265 H   0  0  0  0  0  0  0  0  0  0  0  0
   48.2409   15.3625   15.5117 H   0  0  0  0  0  0  0  0  0  0  0  0
   47.4805   16.8796   15.1233 H   0  0  0  0  0  0  0  0  0  0  0  0
   49.2843   15.3648   13.1428 H   0  0  0  0  0  0  0  0  0  0  0  0
   47.5933   17.6325   12.9828 H   0  0  0  0  0  0  0  0  0  0  0  0
   47.0725   14.1787   13.7621 H   0  0  0  0  0  0  0  0  0  0  0  0
   46.4206   15.9957   11.3625 H   0  0  0  0  0  0  0  0  0  0  0  0
   40.8983   12.2429   11.7374 H   0  0  0  0  0  0  0  0  0  0  0  0
   41.0176    9.9253   10.8780 H   0  0  0  0  0  0  0  0  0  0  0  0
   43.2119    8.9787   10.1855 H   0  0  0  0  0  0  0  0  0  0  0  0
   45.2397   10.3544   10.3500 H   0  0  0  0  0  0  0  0  0  0  0  0
   46.5731   13.3476    8.9257 H   0  0  0  0  0  0  0  0  0  0  0  0
   48.8231   12.5618    8.2310 H   0  0  0  0  0  0  0  0  0  0  0  0
   49.4423   10.8166   12.0902 H   0  0  0  0  0  0  0  0  0  0  0  0
   47.1973   11.5634   12.8145 H   0  0  0  0  0  0  0  0  0  0  0  0
   43.9083   16.8901   12.1649 H   0  0  0  0  0  0  0  0  0  0  0  0
   44.1003   15.4343   14.9176 H   0  0  0  0  0  0  0  0  0  0  0  0
   44.2806   17.2165   14.6190 H   0  0  0  0  0  0  0  0  0  0  0  0
   41.9504   17.2774   13.6547 H   0  0  0  0  0  0  0  0  0  0  0  0
   41.7847   15.4866   13.9348 H   0  0  0  0  0  0  0  0  0  0  0  0
   51.7491   16.9095   15.6426 H   0  0  0  0  0  0  0  0  0  0  0  0
   51.1907   16.2703   14.0917 H   0  0  0  0  0  0  0  0  0  0  0  0
   51.3256   15.3457   14.0975 H   0  0  0  0  0  0  0  0  0  0  0  0
   50.0428   15.3004   16.5398 H   0  0  0  0  0  0  0  0  0  0  0  0
   48.4028   14.3994   15.0218 H   0  0  0  0  0  0  0  0  0  0  0  0
   47.8858   15.8994   15.8187 H   0  0  0  0  0  0  0  0  0  0  0  0
   49.0101   16.0769   12.9904 H   0  0  0  0  0  0  0  0  0  0  0  0
   48.5215   18.0129   13.8235 H   0  0  0  0  0  0  0  0  0  0  0  0
   46.7528   15.9318   12.0381 H   0  0  0  0  0  0  0  0  0  0  0  0
   46.4342   13.8336   14.2620 H   0  0  0  0  0  0  0  0  0  0  0  0
   40.9886   13.2920   10.2942 H   0  0  0  0  0  0  0  0  0  0  0  0
   41.1535   11.5133    8.5785 H   0  0  0  0  0  0  0  0  0  0  0  0
   43.3094   10.3174    8.2373 H   0  0  0  0  0  0  0  0  0  0  0  0
   45.2475   10.9042    9.5958 H   0  0  0  0  0  0  0  0  0  0  0  0
   46.1122   10.5424   12.8082 H   0  0  0  0  0  0  0  0  0  0  0  0
   48.3103    9.4036   12.6042 H   0  0  0  0  0  0  0  0  0  0  0  0
   49.6704   12.4535    9.9163 H   0  0  0  0  0  0  0  0  0  0  0  0
   47.4926   13.6248   10.1139 H   0  0  0  0  0  0  0  0  0  0  0  0
   44.0762   16.5768   13.3328 H   0  0  0  0  0  0  0  0  0  0  0  0
   43.5828   14.3066   15.4106 H   0  0  0  0  0  0  0  0  0  0  0  0
   43.9268   16.0635   15.7592 H   0  0  0  0  0  0  0  0  0  0  0  0
   41.5416   14.9582   14.1080 H   0  0  0  0  0  0  0  0  0  0  0  0
   41.8710   16.7183   14.4534 H   0  0  0  0  0  0  0  0  0  0  0  0
   51.5309   17.0892   16.0954 H   0  0  0  0  0  0  0  0  0  0  0  0
   49.8989   17.7474   16.1526 H   0  0  0  0  0  0  0  0  0  0  0  0
  2  1  1  0
  2  3  1  0
  3  4  1  0
  4  5  1  0
  4  6  1  0
  6  7  2  0
  7  8  1  0
  8  9  2  0
  9 10  1  0
 10 11  2  0
 11 12  1  0
 12 13  2  0
 13 14  1  0
 14 15  2  0
 15 16  1  0
 11 16  1  0
 16 17  2  0
  8 17  1  0
 17 18  1  0
 18 19  2  0
 19 20  1  0
 20 21  2  0
 21 22  1  0
 21 23  1  0
 23 24  2  0
 18 24  1  0
  9 25  1  0
 25 26  1  0
 26 27  1  0
 25 27  1  0
  2 28  1  0
 28 29  1  0
 29 30  2  0
 29 31  1  0
 34 33  1  0
 34 35  1  0
 35 36  1  0
 36 37  1  0
 36 38  1  0
 38 39  2  0
 39 40  1  0
 40 41  2  0
 41 42  1  0
 42 43  2  0
 43 44  1  0
 44 45  2  0
 45 46  1  0
 46 47  2  0
 47 48  1  0
 43 48  1  0
 48 49  2  0
 40 49  1  0
 49 50  1  0
 50 51  2  0
 51 52  1  0
 52 53  2  0
 53 54  1  0
 53 55  1  0
 55 56  2  0
 50 56  1  0
 41 57  1  0
 57 58  1  0
 58 59  1  0
 57 59  1  0
 34 60  1  0
 60 61  1  0
 61 62  2  0
 61 63  1  0
  1 64  1  0
  2 65  1  1
  3 66  1  0
  3 67  1  0
  4 68  1  1
  5 69  1  0
  6 70  1  0
  7 71  1  0
 12 72  1  0
 13 73  1  0
 14 74  1  0
 15 75  1  0
 19 76  1  0
 20 77  1  0
 23 78  1  0
 24 79  1  0
 25 80  1  0
 26 81  1  0
 26 82  1  0
 27 83  1  0
 27 84  1  0
 28 85  1  0
 28 86  1  0
 33 87  1  0
 34 88  1  6
 35 89  1  0
 35 90  1  0
 36 91  1  1
 37 92  1  0
 38 93  1  0
 39 94  1  0
 44 95  1  0
 45 96  1  0
 46 97  1  0
 47 98  1  0
 51 99  1  0
 52100  1  0
 55101  1  0
 56102  1  0
 57103  1  0
 58104  1  0
 58105  1  0
 59106  1  0
 59107  1  0
 60108  1  0
 60109  1  0
M  CHG  3  31  -1  32   2  63  -1
M  END
> <Uni-Dock RESULT> 
ENERGY=   -6.569  LOWER_BOUND=    7.617  UPPER_BOUND=   10.724
INTER + INTRA:          -6.569
INTER:                  -6.569
INTRA:                   0.000
UNBOUND:                 0.000

$$$$

     RDKit          3D

109114  0  0  0  0  0  0  0  0999 V2000
   47.3753    4.9984   20.8440 O   0  0  0  0  0  0  0  0  0  0  0  0
   48.5321    5.4585   20.1303 C   0  0  2  0  0  0  0  0  0  0  0  0
   48.2239    6.8594   19.5834 C   0  0  0  0  0  0  0  0  0  0  0  0
   49.3982    7.5117   18.8517 C   0  0  2  0  0  0  0  0  0  0  0  0
   50.4696    7.7437   19.7674 O   0  0  0  0  0  0  0  0  0  0  0  0
   48.9576    8.8126   18.2307 C   0  0  0  0  0  0  0  0  0  0  0  0
   49.5843    9.9975   18.3155 C   0  0  0  0  0  0  0  0  0  0  0  0
   49.0462   11.2114   17.6771 C   0  0  0  0  0  0  0  0  0  0  0  0
   48.4189   12.1800   18.4795 C   0  0  0  0  0  0  0  0  0  0  0  0
   47.9093   13.3164   17.9353 N   0  0  0  0  0  0  0  0  0  0  0  0
   47.9700   13.5186   16.6122 C   0  0  0  0  0  0  0  0  0  0  0  0
   47.4036   14.6836   16.1097 C   0  0  0  0  0  0  0  0  0  0  0  0
   47.4010   14.9815   14.7442 C   0  0  0  0  0  0  0  0  0  0  0  0
   47.9972   14.1020   13.8526 C   0  0  0  0  0  0  0  0  0  0  0  0
   48.5840   12.9310   14.3371 C   0  0  0  0  0  0  0  0  0  0  0  0
   48.5733   12.6112   15.7219 C   0  0  0  0  0  0  0  0  0  0  0  0
   49.1325   11.4270   16.2786 C   0  0  0  0  0  0  0  0  0  0  0  0
   49.8111   10.4454   15.4102 C   0  0  0  0  0  0  0  0  0  0  0  0
   51.2003   10.5176   15.2111 C   0  0  0  0  0  0  0  0  0  0  0  0
   51.8480    9.5913   14.3911 C   0  0  0  0  0  0  0  0  0  0  0  0
   51.1145    8.5912   13.7665 C   0  0  0  0  0  0  0  0  0  0  0  0
   51.7382    7.7153   12.9659 F   0  0  0  0  0  0  0  0  0  0  0  0
   49.7429    8.4917   13.9607 C   0  0  0  0  0  0  0  0  0  0  0  0
   49.0879    9.4190   14.7751 C   0  0  0  0  0  0  0  0  0  0  0  0
   48.2846   12.0132   19.9895 C   0  0  0  0  0  0  0  0  0  0  0  0
   47.1396   11.1955   20.5437 C   0  0  0  0  0  0  0  0  0  0  0  0
   47.1628   12.6799   20.7573 C   0  0  0  0  0  0  0  0  0  0  0  0
   48.9372    4.4119   19.0910 C   0  0  0  0  0  0  0  0  0  0  0  0
   47.9049    4.3175   17.9655 C   0  0  0  0  0  0  0  0  0  0  0  0
   46.6956    4.2902   18.3520 O   0  0  0  0  0  0  0  0  0  0  0  0
   48.3783    4.3005   16.7956 O   0  0  0  0  0  0  0  0  0  0  0  0
   48.7009    9.6658   17.4874 Ca  0  0  0  0  0 15  0  0  0  0  0  0
   48.7036    4.8008   17.5699 O   0  0  0  0  0  0  0  0  0  0  0  0
   48.0763    5.1838   18.8016 C   0  0  2  0  0  0  0  0  0  0  0  0
   47.8948    6.7174   18.8500 C   0  0  0  0  0  0  0  0  0  0  0  0
   49.1430    7.5666   19.1419 C   0  0  2  0  0  0  0  0  0  0  0  0
   49.2855    7.7348   20.5571 O   0  0  0  0  0  0  0  0  0  0  0  0
   49.1282    8.9871   18.6249 C   0  0  0  0  0  0  0  0  0  0  0  0
   48.1819    9.6247   17.9193 C   0  0  0  0  0  0  0  0  0  0  0  0
   48.3440   11.0325   17.5164 C   0  0  0  0  0  0  0  0  0  0  0  0
   48.0082   12.0577   18.4157 C   0  0  0  0  0  0  0  0  0  0  0  0
   48.1827   13.3673   18.0930 N   0  0  0  0  0  0  0  0  0  0  0  0
   48.6928   13.6960   16.9003 C   0  0  0  0  0  0  0  0  0  0  0  0
   48.8741   15.0447   16.6206 C   0  0  0  0  0  0  0  0  0  0  0  0
   49.4009   15.4823   15.4050 C   0  0  0  0  0  0  0  0  0  0  0  0
   49.7613   14.5577   14.4389 C   0  0  0  0  0  0  0  0  0  0  0  0
   49.5925   13.2027   14.6992 C   0  0  0  0  0  0  0  0  0  0  0  0
   49.0507   12.7428   15.9283 C   0  0  0  0  0  0  0  0  0  0  0  0
   48.8593   11.3720   16.2460 C   0  0  0  0  0  0  0  0  0  0  0  0
   49.1929   10.3212   15.2636 C   0  0  0  0  0  0  0  0  0  0  0  0
   48.2625    9.9495   14.2755 C   0  0  0  0  0  0  0  0  0  0  0  0
   48.5723    8.9636   13.3365 C   0  0  0  0  0  0  0  0  0  0  0  0
   49.8188    8.3484   13.3813 C   0  0  0  0  0  0  0  0  0  0  0  0
   50.1209    7.4048   12.4769 F   0  0  0  0  0  0  0  0  0  0  0  0
   50.7541    8.6964   14.3474 C   0  0  0  0  0  0  0  0  0  0  0  0
   50.4436    9.6818   15.2880 C   0  0  0  0  0  0  0  0  0  0  0  0
   47.4488   11.7588   19.7956 C   0  0  0  0  0  0  0  0  0  0  0  0
   46.0181   11.2848   19.9487 C   0  0  0  0  0  0  0  0  0  0  0  0
   46.3967   12.6622   20.4034 C   0  0  0  0  0  0  0  0  0  0  0  0
   48.6963    4.4925   20.0091 C   0  0  0  0  0  0  0  0  0  0  0  0
   50.1815    4.7743   20.0945 C   0  0  0  0  0  0  0  0  0  0  0  0
   50.5374    5.4474   21.1016 O   0  0  0  0  0  0  0  0  0  0  0  0
   50.8523    4.3952   19.0938 O   0  0  0  0  0  0  0  0  0  0  0  0
   46.7652    4.6770   20.1284 H   0  0  0  0  0  0  0  0  0  0  0  0
   49.3321    5.5356   20.8781 H   0  0  0  0  0  0  0  0  0  0  0  0
   47.3356    6.8223   18.9352 H   0  0  0  0  0  0  0  0  0  0  0  0
   47.9220    7.4920   20.4313 H   0  0  0  0  0  0  0  0  0  0  0  0
   49.7680    6.8622   18.0509 H   0  0  0  0  0  0  0  0  0  0  0  0
   50.0817    8.1892   20.5345 H   0  0  0  0  0  0  0  0  0  0  0  0
   48.0381    8.7405   17.6489 H   0  0  0  0  0  0  0  0  0  0  0  0
   50.5154   10.1107   18.8615 H   0  0  0  0  0  0  0  0  0  0  0  0
   46.9448   15.3786   16.8071 H   0  0  0  0  0  0  0  0  0  0  0  0
   46.9427   15.8984   14.3876 H   0  0  0  0  0  0  0  0  0  0  0  0
   48.0012   14.3159   12.7857 H   0  0  0  0  0  0  0  0  0  0  0  0
   49.0486   12.2566   13.6186 H   0  0  0  0  0  0  0  0  0  0  0  0
   51.7846   11.2930   15.7047 H   0  0  0  0  0  0  0  0  0  0  0  0
   52.9196    9.6424   14.2387 H   0  0  0  0  0  0  0  0  0  0  0  0
   49.1853    7.6883   13.4905 H   0  0  0  0  0  0  0  0  0  0  0  0
   48.0130    9.3269   14.9270 H   0  0  0  0  0  0  0  0  0  0  0  0
   49.2306   11.9408   20.5214 H   0  0  0  0  0  0  0  0  0  0  0  0
   46.4062   10.7970   19.8519 H   0  0  0  0  0  0  0  0  0  0  0  0
   47.3392   10.5494   21.3901 H   0  0  0  0  0  0  0  0  0  0  0  0
   47.3712   13.0450   21.7570 H   0  0  0  0  0  0  0  0  0  0  0  0
   46.4566   13.2881   20.2023 H   0  0  0  0  0  0  0  0  0  0  0  0
   48.9967    3.4208   19.5582 H   0  0  0  0  0  0  0  0  0  0  0  0
   49.9291    4.6424   18.6843 H   0  0  0  0  0  0  0  0  0  0  0  0
   49.6560    4.6265   17.7908 H   0  0  0  0  0  0  0  0  0  0  0  0
   47.0599    4.7773   18.7128 H   0  0  0  0  0  0  0  0  0  0  0  0
   47.4901    6.9920   17.8669 H   0  0  0  0  0  0  0  0  0  0  0  0
   47.1258    6.9527   19.6042 H   0  0  0  0  0  0  0  0  0  0  0  0
   50.0466    7.0895   18.7410 H   0  0  0  0  0  0  0  0  0  0  0  0
   49.8100    6.9584   20.8876 H   0  0  0  0  0  0  0  0  0  0  0  0
   50.0238    9.5383   18.9013 H   0  0  0  0  0  0  0  0  0  0  0  0
   47.2585    9.1498   17.6160 H   0  0  0  0  0  0  0  0  0  0  0  0
   48.5912   15.7724   17.3782 H   0  0  0  0  0  0  0  0  0  0  0  0
   49.5345   16.5429   15.2216 H   0  0  0  0  0  0  0  0  0  0  0  0
   50.1884   14.8786   13.4903 H   0  0  0  0  0  0  0  0  0  0  0  0
   49.8954   12.4978   13.9281 H   0  0  0  0  0  0  0  0  0  0  0  0
   47.2840   10.4283   14.2375 H   0  0  0  0  0  0  0  0  0  0  0  0
   47.8531    8.6624   12.5859 H   0  0  0  0  0  0  0  0  0  0  0  0
   51.7173    8.1919   14.3811 H   0  0  0  0  0  0  0  0  0  0  0  0
   51.1721    9.9383   16.0564 H   0  0  0  0  0  0  0  0  0  0  0  0
   48.1670   11.3419   20.5002 H   0  0  0  0  0  0  0  0  0  0  0  0
   45.4080   11.1918   19.0580 H   0  0  0  0  0  0  0  0  0  0  0  0
   45.8274   10.5311   20.7055 H   0  0  0  0  0  0  0  0  0  0  0  0
   46.0389   13.4975   19.8150 H   0  0  0  0  0  0  0  0  0  0  0  0
   46.4571   12.8510   21.4682 H   0  0  0  0  0  0  0  0  0  0  0  0
   48.5866    3.4089   19.8998 H   0  0  0  0  0  0  0  0  0  0  0  0
   48.1821    4.7811   20.9262 H   0  0  0  0  0  0  0  0  0  0  0  0
  2  1  1  0
  2  3  1  0
  3  4  1  0
  4  5  1  0
  4  6  1  0
  6  7  2  0
  7  8  1  0
  8  9  2  0
  9 10  1  0
 10 11  2  0
 11 12  1  0
 12 13  2  0
 13 14  1  0
 14 15  2  0
 15 16  1  0
 11 16  1  0
 16 17  2  0
  8 17  1  0
 17 18  1  0
 18 19  2  0
 19 20  1  0
 20 21  2  0
 21 22  1  0
 21 23  1  0
 23 24  2  0
 18 24  1  0
  9 25  1  0
 25 26  1  0
 26 27  1  0
 25 27  1  0
  2 28  1  0
 28 29  1  0
 29 30  2  0
 29 31  1  0
 34 33  1  0
 34 35  1  0
 35 36  1  0
 36 37  1  0
 36 38  1  0
 38 39  2  0
 39 40  1  0
 40 41  2  0
 41 42  1  0
 42 43  2  0
 43 44  1  0
 44 45  2  0
 45 46  1  0
 46 47  2  0
 47 48  1  0
 43 48  1  0
 48 49  2  0
 40 49  1  0
 49 50  1  0
 50 51  2  0
 51 52  1  0
 52 53  2  0
 53 54  1  0
 53 55  1  0
 55 56  2  0
 50 56  1  0
 41 57  1  0
 57 58  1  0
 58 59  1  0
 57 59  1  0
 34 60  1  0
 60 61  1  0
 61 62  2  0
 61 63  1  0
  1 64  1  0
  2 65  1  1
  3 66  1  0
  3 67  1  0
  4 68  1  1
  5 69  1  0
  6 70  1  0
  7 71  1  0
 12 72  1  0
 13 73  1  0
 14 74  1  0
 15 75  1  0
 19 76  1  0
 20 77  1  0
 23 78  1  0
 24 79  1  0
 25 80  1  0
 26 81  1  0
 26 82  1  0
 27 83  1  0
 27 84  1  0
 28 85  1  0
 28 86  1  0
 33 87  1  0
 34 88  1  6
 35 89  1  0
 35 90  1  0
 36 91  1  1
 37 92  1  0
 38 93  1  0
 39 94  1  0
 44 95  1  0
 45 96  1  0
 46 97  1  0
 47 98  1  0
 51 99  1  0
 52100  1  0
 55101  1  0
 56102  1  0
 57103  1  0
 58104  1  0
 58105  1  0
 59106  1  0
 59107  1  0
 60108  1  0
 60109  1  0
M  CHG  3  31  -1  32   2  63  -1
M  END
> <Uni-Dock RESULT> 
ENERGY=   -6.505  LOWER_BOUND=    3.633  UPPER_BOUND=    7.477
INTER + INTRA:          -6.505
INTER:                  -6.505
INTRA:                   0.000
UNBOUND:                 0.000

$$$$

     RDKit          3D

109114  0  0  0  0  0  0  0  0999 V2000
   50.4807    9.6081   12.3833 O   0  0  0  0  0  0  0  0  0  0  0  0
   49.7846    9.1946   13.5680 C   0  0  2  0  0  0  0  0  0  0  0  0
   50.8104    8.5741   14.5268 C   0  0  0  0  0  0  0  0  0  0  0  0
   50.2219    8.1455   15.8721 C   0  0  2  0  0  0  0  0  0  0  0  0
   49.7572    9.2932   16.5841 O   0  0  0  0  0  0  0  0  0  0  0  0
   51.2666    7.4218   16.6826 C   0  0  0  0  0  0  0  0  0  0  0  0
   51.5845    7.6450   17.9683 C   0  0  0  0  0  0  0  0  0  0  0  0
   52.6418    6.8815   18.6537 C   0  0  0  0  0  0  0  0  0  0  0  0
   53.8859    7.4955   18.8793 C   0  0  0  0  0  0  0  0  0  0  0  0
   54.8903    6.8312   19.5092 N   0  0  0  0  0  0  0  0  0  0  0  0
   54.7196    5.5612   19.9006 C   0  0  0  0  0  0  0  0  0  0  0  0
   55.7926    4.9229   20.5105 C   0  0  0  0  0  0  0  0  0  0  0  0
   55.7222    3.5954   20.9415 C   0  0  0  0  0  0  0  0  0  0  0  0
   54.5415    2.8863   20.7779 C   0  0  0  0  0  0  0  0  0  0  0  0
   53.4461    3.5120   20.1789 C   0  0  0  0  0  0  0  0  0  0  0  0
   53.5158    4.8554   19.7199 C   0  0  0  0  0  0  0  0  0  0  0  0
   52.4463    5.5445   19.0826 C   0  0  0  0  0  0  0  0  0  0  0  0
   51.1432    4.8792   18.8893 C   0  0  0  0  0  0  0  0  0  0  0  0
   50.1246    5.0256   19.8463 C   0  0  0  0  0  0  0  0  0  0  0  0
   48.8894    4.3991   19.6684 C   0  0  0  0  0  0  0  0  0  0  0  0
   48.6651    3.6244   18.5380 C   0  0  0  0  0  0  0  0  0  0  0  0
   47.4839    3.0103   18.3807 F   0  0  0  0  0  0  0  0  0  0  0  0
   49.6521    3.4779   17.5719 C   0  0  0  0  0  0  0  0  0  0  0  0
   50.8922    4.0972   17.7468 C   0  0  0  0  0  0  0  0  0  0  0  0
   54.1700    8.9283   18.4407 C   0  0  0  0  0  0  0  0  0  0  0  0
   54.5957    9.1938   17.0141 C   0  0  0  0  0  0  0  0  0  0  0  0
   55.5779    9.3909   18.1305 C   0  0  0  0  0  0  0  0  0  0  0  0
   48.6086    8.2973   13.1790 C   0  0  0  0  0  0  0  0  0  0  0  0
   49.0924    6.9543   12.6281 C   0  0  0  0  0  0  0  0  0  0  0  0
   50.0434    7.0331   11.7901 O   0  0  0  0  0  0  0  0  0  0  0  0
   48.5051    5.9362   13.0880 O   0  0  0  0  0  0  0  0  0  0  0  0
   51.8628    6.6293   17.2848 Ca  0  0  0  0  0 15  0  0  0  0  0  0
   48.7375    6.7613   13.5580 O   0  0  0  0  0  0  0  0  0  0  0  0
   49.6868    7.7977   13.2718 C   0  0  2  0  0  0  0  0  0  0  0  0
   50.8199    7.7841   14.3220 C   0  0  0  0  0  0  0  0  0  0  0  0
   50.5021    8.3638   15.7102 C   0  0  2  0  0  0  0  0  0  0  0  0
   50.7794    9.7689   15.7155 O   0  0  0  0  0  0  0  0  0  0  0  0
   51.3295    7.8439   16.8637 C   0  0  0  0  0  0  0  0  0  0  0  0
   52.3035    6.9213   16.8628 C   0  0  0  0  0  0  0  0  0  0  0  0
   53.0142    6.5555   18.1004 C   0  0  0  0  0  0  0  0  0  0  0  0
   54.0981    7.3344   18.5376 C   0  0  0  0  0  0  0  0  0  0  0  0
   54.7517    7.0505   19.6960 N   0  0  0  0  0  0  0  0  0  0  0  0
   54.3558    6.0156   20.4465 C   0  0  0  0  0  0  0  0  0  0  0  0
   55.0379    5.7746   21.6324 C   0  0  0  0  0  0  0  0  0  0  0  0
   54.6956    4.7205   22.4801 C   0  0  0  0  0  0  0  0  0  0  0  0
   53.6455    3.8819   22.1451 C   0  0  0  0  0  0  0  0  0  0  0  0
   52.9463    4.1072   20.9651 C   0  0  0  0  0  0  0  0  0  0  0  0
   53.2880    5.1710   20.0890 C   0  0  0  0  0  0  0  0  0  0  0  0
   52.6064    5.4466   18.8740 C   0  0  0  0  0  0  0  0  0  0  0  0
   51.4914    4.5869   18.4284 C   0  0  0  0  0  0  0  0  0  0  0  0
   51.7477    3.4050   17.7089 C   0  0  0  0  0  0  0  0  0  0  0  0
   50.7007    2.5809   17.2914 C   0  0  0  0  0  0  0  0  0  0  0  0
   49.3913    2.9362   17.5971 C   0  0  0  0  0  0  0  0  0  0  0  0
   48.3839    2.1433   17.2019 F   0  0  0  0  0  0  0  0  0  0  0  0
   49.1119    4.0983   18.3048 C   0  0  0  0  0  0  0  0  0  0  0  0
   50.1593    4.9237   18.7214 C   0  0  0  0  0  0  0  0  0  0  0  0
   54.5858    8.5383   17.7508 C   0  0  0  0  0  0  0  0  0  0  0  0
   55.3669    8.3414   16.4678 C   0  0  0  0  0  0  0  0  0  0  0  0
   56.0640    8.8604   17.6893 C   0  0  0  0  0  0  0  0  0  0  0  0
   49.0164    9.1275   12.9514 C   0  0  0  0  0  0  0  0  0  0  0  0
   48.1173    9.5711   14.0860 C   0  0  0  0  0  0  0  0  0  0  0  0
   48.4838   10.6275   14.6723 O   0  0  0  0  0  0  0  0  0  0  0  0
   47.1831    8.7693   14.3678 O   0  0  0  0  0  0  0  0  0  0  0  0
   50.5856    8.7683   11.8624 H   0  0  0  0  0  0  0  0  0  0  0  0
   49.3880   10.1147   14.0167 H   0  0  0  0  0  0  0  0  0  0  0  0
   51.3173    7.7285   14.0383 H   0  0  0  0  0  0  0  0  0  0  0  0
   51.6060    9.3155   14.6931 H   0  0  0  0  0  0  0  0  0  0  0  0
   49.3743    7.4666   15.7284 H   0  0  0  0  0  0  0  0  0  0  0  0
   50.4799    9.9372   16.5657 H   0  0  0  0  0  0  0  0  0  0  0  0
   51.7869    6.6333   16.1378 H   0  0  0  0  0  0  0  0  0  0  0  0
   51.0753    8.4012   18.5571 H   0  0  0  0  0  0  0  0  0  0  0  0
   56.7152    5.4793   20.6486 H   0  0  0  0  0  0  0  0  0  0  0  0
   56.5835    3.1277   21.4078 H   0  0  0  0  0  0  0  0  0  0  0  0
   54.4699    1.8507   21.1041 H   0  0  0  0  0  0  0  0  0  0  0  0
   52.5284    2.9364   20.0633 H   0  0  0  0  0  0  0  0  0  0  0  0
   50.2889    5.6391   20.7311 H   0  0  0  0  0  0  0  0  0  0  0  0
   48.1010    4.5132   20.4029 H   0  0  0  0  0  0  0  0  0  0  0  0
   49.4546    2.8939   16.6789 H   0  0  0  0  0  0  0  0  0  0  0  0
   51.6565    3.9821   16.9788 H   0  0  0  0  0  0  0  0  0  0  0  0
   53.5272    9.6765   18.8992 H   0  0  0  0  0  0  0  0  0  0  0  0
   54.7466    8.3477   16.3533 H   0  0  0  0  0  0  0  0  0  0  0  0
   54.1953   10.0701   16.5188 H   0  0  0  0  0  0  0  0  0  0  0  0
   55.8531   10.4073   18.3899 H   0  0  0  0  0  0  0  0  0  0  0  0
   56.3846    8.6734   18.2352 H   0  0  0  0  0  0  0  0  0  0  0  0
   48.0155    8.7753   12.3891 H   0  0  0  0  0  0  0  0  0  0  0  0
   47.9455    8.1435   14.0387 H   0  0  0  0  0  0  0  0  0  0  0  0
   47.9640    7.2106   13.9894 H   0  0  0  0  0  0  0  0  0  0  0  0
   50.1583    7.4670   12.3366 H   0  0  0  0  0  0  0  0  0  0  0  0
   51.1057    6.7289   14.4255 H   0  0  0  0  0  0  0  0  0  0  0  0
   51.6860    8.3244   13.9058 H   0  0  0  0  0  0  0  0  0  0  0  0
   49.4488    8.2015   15.9732 H   0  0  0  0  0  0  0  0  0  0  0  0
   49.9549   10.2259   15.4021 H   0  0  0  0  0  0  0  0  0  0  0  0
   51.0769    8.3254   17.8054 H   0  0  0  0  0  0  0  0  0  0  0  0
   52.6207    6.4062   15.9660 H   0  0  0  0  0  0  0  0  0  0  0  0
   55.8634    6.4320   21.8969 H   0  0  0  0  0  0  0  0  0  0  0  0
   55.2458    4.5642   23.4016 H   0  0  0  0  0  0  0  0  0  0  0  0
   53.3533    3.0635   22.8009 H   0  0  0  0  0  0  0  0  0  0  0  0
   52.1181    3.4413   20.7326 H   0  0  0  0  0  0  0  0  0  0  0  0
   52.7724    3.1235   17.4662 H   0  0  0  0  0  0  0  0  0  0  0  0
   50.8924    1.6803   16.7227 H   0  0  0  0  0  0  0  0  0  0  0  0
   48.0810    4.3722   18.5189 H   0  0  0  0  0  0  0  0  0  0  0  0
   49.9353    5.8444   19.2590 H   0  0  0  0  0  0  0  0  0  0  0  0
   53.9226    9.4017   17.7773 H   0  0  0  0  0  0  0  0  0  0  0  0
   55.5852    7.3294   16.1477 H   0  0  0  0  0  0  0  0  0  0  0  0
   55.1681    9.0363   15.6587 H   0  0  0  0  0  0  0  0  0  0  0  0
   56.7534    8.1935   18.1912 H   0  0  0  0  0  0  0  0  0  0  0  0
   56.3475    9.9054   17.7114 H   0  0  0  0  0  0  0  0  0  0  0  0
   48.3771    9.0061   12.0713 H   0  0  0  0  0  0  0  0  0  0  0  0
   49.7603    9.8877   12.7113 H   0  0  0  0  0  0  0  0  0  0  0  0
  2  1  1  0
  2  3  1  0
  3  4  1  0
  4  5  1  0
  4  6  1  0
  6  7  2  0
  7  8  1  0
  8  9  2  0
  9 10  1  0
 10 11  2  0
 11 12  1  0
 12 13  2  0
 13 14  1  0
 14 15  2  0
 15 16  1  0
 11 16  1  0
 16 17  2  0
  8 17  1  0
 17 18  1  0
 18 19  2  0
 19 20  1  0
 20 21  2  0
 21 22  1  0
 21 23  1  0
 23 24  2  0
 18 24  1  0
  9 25  1  0
 25 26  1  0
 26 27  1  0
 25 27  1  0
  2 28  1  0
 28 29  1  0
 29 30  2  0
 29 31  1  0
 34 33  1  0
 34 35  1  0
 35 36  1  0
 36 37  1  0
 36 38  1  0
 38 39  2  0
 39 40  1  0
 40 41  2  0
 41 42  1  0
 42 43  2  0
 43 44  1  0
 44 45  2  0
 45 46  1  0
 46 47  2  0
 47 48  1  0
 43 48  1  0
 48 49  2  0
 40 49  1  0
 49 50  1  0
 50 51  2  0
 51 52  1  0
 52 53  2  0
 53 54  1  0
 53 55  1  0
 55 56  2  0
 50 56  1  0
 41 57  1  0
 57 58  1  0
 58 59  1  0
 57 59  1  0
 34 60  1  0
 60 61  1  0
 61 62  2  0
 61 63  1  0
  1 64  1  0
  2 65  1  1
  3 66  1  0
  3 67  1  0
  4 68  1  1
  5 69  1  0
  6 70  1  0
  7 71  1  0
 12 72  1  0
 13 73  1  0
 14 74  1  0
 15 75  1  0
 19 76  1  0
 20 77  1  0
 23 78  1  0
 24 79  1  0
 25 80  1  0
 26 81  1  0
 26 82  1  0
 27 83  1  0
 27 84  1  0
 28 85  1  0
 28 86  1  0
 33 87  1  0
 34 88  1  6
 35 89  1  0
 35 90  1  0
 36 91  1  1
 37 92  1  0
 38 93  1  0
 39 94  1  0
 44 95  1  0
 45 96  1  0
 46 97  1  0
 47 98  1  0
 51 99  1  0
 52100  1  0
 55101  1  0
 56102  1  0
 57103  1  0
 58104  1  0
 58105  1  0
 59106  1  0
 59107  1  0
 60108  1  0
 60109  1  0
M  CHG  3  31  -1  32   2  63  -1
M  END
> <Uni-Dock RESULT> 
ENERGY=   -5.943  LOWER_BOUND=    4.060  UPPER_BOUND=    6.056
INTER + INTRA:          -5.943
INTER:                  -5.943
INTRA:                   0.000
UNBOUND:                 0.000

$$$$

     RDKit          3D

109114  0  0  0  0  0  0  0  0999 V2000
   53.3696    7.6297   12.6482 O   0  0  0  0  0  0  0  0  0  0  0  0
   52.8040    8.8742   13.0847 C   0  0  2  0  0  0  0  0  0  0  0  0
   51.3473    8.9262   12.6030 C   0  0  0  0  0  0  0  0  0  0  0  0
   50.5885   10.1748   13.0558 C   0  0  2  0  0  0  0  0  0  0  0  0
   50.4654   10.1761   14.4788 O   0  0  0  0  0  0  0  0  0  0  0  0
   49.2229   10.2053   12.4184 C   0  0  0  0  0  0  0  0  0  0  0  0
   48.0515   10.4281   13.0363 C   0  0  0  0  0  0  0  0  0  0  0  0
   46.7711   10.4165   12.3075 C   0  0  0  0  0  0  0  0  0  0  0  0
   45.9253    9.3014   12.4373 C   0  0  0  0  0  0  0  0  0  0  0  0
   44.7339    9.2470   11.7857 N   0  0  0  0  0  0  0  0  0  0  0  0
   44.3579   10.2489   10.9795 C   0  0  0  0  0  0  0  0  0  0  0  0
   43.1443   10.1230   10.3146 C   0  0  0  0  0  0  0  0  0  0  0  0
   42.6688   11.1043    9.4406 C   0  0  0  0  0  0  0  0  0  0  0  0
   43.4147   12.2556    9.2358 C   0  0  0  0  0  0  0  0  0  0  0  0
   44.6316   12.4090    9.9035 C   0  0  0  0  0  0  0  0  0  0  0  0
   45.1317   11.4070   10.7787 C   0  0  0  0  0  0  0  0  0  0  0  0
   46.3715   11.4899   11.4721 C   0  0  0  0  0  0  0  0  0  0  0  0
   47.2207   12.6894   11.3366 C   0  0  0  0  0  0  0  0  0  0  0  0
   47.1044   13.7466   12.2551 C   0  0  0  0  0  0  0  0  0  0  0  0
   47.9057   14.8836   12.1324 C   0  0  0  0  0  0  0  0  0  0  0  0
   48.8241   14.9718   11.0945 C   0  0  0  0  0  0  0  0  0  0  0  0
   49.5782   16.0731   10.9704 F   0  0  0  0  0  0  0  0  0  0  0  0
   48.9666   13.9328   10.1839 C   0  0  0  0  0  0  0  0  0  0  0  0
   48.1637   12.7950   10.2976 C   0  0  0  0  0  0  0  0  0  0  0  0
   46.2919    8.1082   13.3135 C   0  0  0  0  0  0  0  0  0  0  0  0
   47.1908    7.0287   12.7536 C   0  0  0  0  0  0  0  0  0  0  0  0
   45.7474    6.7250   13.0259 C   0  0  0  0  0  0  0  0  0  0  0  0
   53.6986   10.0271   12.6266 C   0  0  0  0  0  0  0  0  0  0  0  0
   53.6572   10.1927   11.1061 C   0  0  0  0  0  0  0  0  0  0  0  0
   53.7513    9.1101   10.4490 O   0  0  0  0  0  0  0  0  0  0  0  0
   53.5132   11.3768   10.6933 O   0  0  0  0  0  0  0  0  0  0  0  0
   48.2825   10.4965   11.8042 Ca  0  0  0  0  0 15  0  0  0  0  0  0
   53.1153   10.9619   11.4840 O   0  0  0  0  0  0  0  0  0  0  0  0
   52.9067    9.5908   11.8500 C   0  0  2  0  0  0  0  0  0  0  0  0
   51.3955    9.2695   11.8640 C   0  0  0  0  0  0  0  0  0  0  0  0
   50.5758    9.7847   13.0586 C   0  0  2  0  0  0  0  0  0  0  0  0
   50.5942    8.8085   14.1065 O   0  0  0  0  0  0  0  0  0  0  0  0
   49.0998   10.0060   12.8184 C   0  0  0  0  0  0  0  0  0  0  0  0
   48.3872    9.8373   11.6943 C   0  0  0  0  0  0  0  0  0  0  0  0
   46.9365   10.0918   11.6608 C   0  0  0  0  0  0  0  0  0  0  0  0
   46.0436    9.0910   12.0776 C   0  0  0  0  0  0  0  0  0  0  0  0
   44.7006    9.3047   12.0983 N   0  0  0  0  0  0  0  0  0  0  0  0
   44.2105   10.4927   11.7250 C   0  0  0  0  0  0  0  0  0  0  0  0
   42.8345   10.6748   11.7821 C   0  0  0  0  0  0  0  0  0  0  0  0
   42.2331   11.8790   11.4146 C   0  0  0  0  0  0  0  0  0  0  0  0
   43.0172   12.9349   10.9804 C   0  0  0  0  0  0  0  0  0  0  0  0
   44.3968   12.7761   10.9195 C   0  0  0  0  0  0  0  0  0  0  0  0
   45.0221   11.5544   11.2828 C   0  0  0  0  0  0  0  0  0  0  0  0
   46.4254   11.3397   11.2413 C   0  0  0  0  0  0  0  0  0  0  0  0
   47.3326   12.4038   10.7665 C   0  0  0  0  0  0  0  0  0  0  0  0
   47.5829   12.5644    9.3911 C   0  0  0  0  0  0  0  0  0  0  0  0
   48.4319   13.5733    8.9319 C   0  0  0  0  0  0  0  0  0  0  0  0
   49.0310   14.4291    9.8500 C   0  0  0  0  0  0  0  0  0  0  0  0
   49.8428   15.4028    9.4109 F   0  0  0  0  0  0  0  0  0  0  0  0
   48.8013   14.2906   11.2128 C   0  0  0  0  0  0  0  0  0  0  0  0
   47.9530   13.2801   11.6725 C   0  0  0  0  0  0  0  0  0  0  0  0
   46.5296    7.7281   12.5389 C   0  0  0  0  0  0  0  0  0  0  0  0
   47.0386    6.7211   11.5280 C   0  0  0  0  0  0  0  0  0  0  0  0
   45.7284    6.4843   12.2170 C   0  0  0  0  0  0  0  0  0  0  0  0
   53.7433    9.1769   13.0539 C   0  0  0  0  0  0  0  0  0  0  0  0
   53.4556   10.0632   14.2472 C   0  0  0  0  0  0  0  0  0  0  0  0
   52.9167    9.4768   15.2269 O   0  0  0  0  0  0  0  0  0  0  0  0
   53.6902   11.2909   14.0657 O   0  0  0  0  0  0  0  0  0  0  0  0
   53.6016    7.7937   11.6959 H   0  0  0  0  0  0  0  0  0  0  0  0
   52.8157    8.8379   14.1819 H   0  0  0  0  0  0  0  0  0  0  0  0
   51.3102    8.8258   11.5080 H   0  0  0  0  0  0  0  0  0  0  0  0
   50.8363    8.0283   12.9811 H   0  0  0  0  0  0  0  0  0  0  0  0
   51.1216   11.0843   12.7584 H   0  0  0  0  0  0  0  0  0  0  0  0
   50.1303    9.3017   14.7249 H   0  0  0  0  0  0  0  0  0  0  0  0
   49.2297   10.0388   11.3407 H   0  0  0  0  0  0  0  0  0  0  0  0
   47.9991   10.6245   14.1024 H   0  0  0  0  0  0  0  0  0  0  0  0
   42.5537    9.2267   10.4810 H   0  0  0  0  0  0  0  0  0  0  0  0
   41.7189   10.9680    8.9334 H   0  0  0  0  0  0  0  0  0  0  0  0
   43.0617   13.0282    8.5558 H   0  0  0  0  0  0  0  0  0  0  0  0
   45.1990   13.3226    9.7293 H   0  0  0  0  0  0  0  0  0  0  0  0
   46.3934   13.6815   13.0776 H   0  0  0  0  0  0  0  0  0  0  0  0
   47.8207   15.6987   12.8412 H   0  0  0  0  0  0  0  0  0  0  0  0
   49.7081   14.0010    9.3947 H   0  0  0  0  0  0  0  0  0  0  0  0
   48.2893   11.9825    9.5826 H   0  0  0  0  0  0  0  0  0  0  0  0
   46.4215    8.3449   14.3672 H   0  0  0  0  0  0  0  0  0  0  0  0
   47.5041    7.1019   11.7183 H   0  0  0  0  0  0  0  0  0  0  0  0
   47.9403    6.6009   13.4085 H   0  0  0  0  0  0  0  0  0  0  0  0
   45.5149    6.0799   13.8660 H   0  0  0  0  0  0  0  0  0  0  0  0
   45.0807    6.6059   12.1786 H   0  0  0  0  0  0  0  0  0  0  0  0
   54.7419    9.8260   12.9010 H   0  0  0  0  0  0  0  0  0  0  0  0
   53.4034   10.9594   13.1229 H   0  0  0  0  0  0  0  0  0  0  0  0
   53.3047   11.4450   12.3308 H   0  0  0  0  0  0  0  0  0  0  0  0
   53.3114    9.0298   10.9969 H   0  0  0  0  0  0  0  0  0  0  0  0
   50.9988    9.7037   10.9368 H   0  0  0  0  0  0  0  0  0  0  0  0
   51.2721    8.1759   11.7991 H   0  0  0  0  0  0  0  0  0  0  0  0
   50.9839   10.7307   13.4376 H   0  0  0  0  0  0  0  0  0  0  0  0
   51.4004    8.9928   14.6571 H   0  0  0  0  0  0  0  0  0  0  0  0
   48.5781   10.3322   13.7150 H   0  0  0  0  0  0  0  0  0  0  0  0
   48.8301    9.5045   10.7652 H   0  0  0  0  0  0  0  0  0  0  0  0
   42.2170    9.8463   12.1225 H   0  0  0  0  0  0  0  0  0  0  0  0
   41.1559   11.9891   11.4768 H   0  0  0  0  0  0  0  0  0  0  0  0
   42.5681   13.8873   10.7041 H   0  0  0  0  0  0  0  0  0  0  0  0
   44.9896   13.6254   10.5870 H   0  0  0  0  0  0  0  0  0  0  0  0
   47.1162   11.8951    8.6682 H   0  0  0  0  0  0  0  0  0  0  0  0
   48.6408   13.6891    7.8763 H   0  0  0  0  0  0  0  0  0  0  0  0
   49.2931   14.9558   11.9194 H   0  0  0  0  0  0  0  0  0  0  0  0
   47.7907   13.1620   12.7433 H   0  0  0  0  0  0  0  0  0  0  0  0
   47.0264    7.7233   13.5080 H   0  0  0  0  0  0  0  0  0  0  0  0
   47.0211    6.9907   10.4786 H   0  0  0  0  0  0  0  0  0  0  0  0
   47.8880    6.1140   11.8226 H   0  0  0  0  0  0  0  0  0  0  0  0
   44.8275    6.5955   11.6272 H   0  0  0  0  0  0  0  0  0  0  0  0
   45.6811    5.7122   12.9751 H   0  0  0  0  0  0  0  0  0  0  0  0
   54.8042    9.3027   12.8160 H   0  0  0  0  0  0  0  0  0  0  0  0
   53.5851    8.1245   13.2913 H   0  0  0  0  0  0  0  0  0  0  0  0
  2  1  1  0
  2  3  1  0
  3  4  1  0
  4  5  1  0
  4  6  1  0
  6  7  2  0
  7  8  1  0
  8  9  2  0
  9 10  1  0
 10 11  2  0
 11 12  1  0
 12 13  2  0
 13 14  1  0
 14 15  2  0
 15 16  1  0
 11 16  1  0
 16 17  2  0
  8 17  1  0
 17 18  1  0
 18 19  2  0
 19 20  1  0
 20 21  2  0
 21 22  1  0
 21 23  1  0
 23 24  2  0
 18 24  1  0
  9 25  1  0
 25 26  1  0
 26 27  1  0
 25 27  1  0
  2 28  1  0
 28 29  1  0
 29 30  2  0
 29 31  1  0
 34 33  1  0
 34 35  1  0
 35 36  1  0
 36 37  1  0
 36 38  1  0
 38 39  2  0
 39 40  1  0
 40 41  2  0
 41 42  1  0
 42 43  2  0
 43 44  1  0
 44 45  2  0
 45 46  1  0
 46 47  2  0
 47 48  1  0
 43 48  1  0
 48 49  2  0
 40 49  1  0
 49 50  1  0
 50 51  2  0
 51 52  1  0
 52 53  2  0
 53 54  1  0
 53 55  1  0
 55 56  2  0
 50 56  1  0
 41 57  1  0
 57 58  1  0
 58 59  1  0
 57 59  1  0
 34 60  1  0
 60 61  1  0
 61 62  2  0
 61 63  1  0
  1 64  1  0
  2 65  1  1
  3 66  1  0
  3 67  1  0
  4 68  1  1
  5 69  1  0
  6 70  1  0
  7 71  1  0
 12 72  1  0
 13 73  1  0
 14 74  1  0
 15 75  1  0
 19 76  1  0
 20 77  1  0
 23 78  1  0
 24 79  1  0
 25 80  1  0
 26 81  1  0
 26 82  1  0
 27 83  1  0
 27 84  1  0
 28 85  1  0
 28 86  1  0
 33 87  1  0
 34 88  1  6
 35 89  1  0
 35 90  1  0
 36 91  1  1
 37 92  1  0
 38 93  1  0
 39 94  1  0
 44 95  1  0
 45 96  1  0
 46 97  1  0
 47 98  1  0
 51 99  1  0
 52100  1  0
 55101  1  0
 56102  1  0
 57103  1  0
 58104  1  0
 58105  1  0
 59106  1  0
 59107  1  0
 60108  1  0
 60109  1  0
M  CHG  3  31  -1  32   2  63  -1
M  END
> <Uni-Dock RESULT> 
ENERGY=   -5.939  LOWER_BOUND=    6.186  UPPER_BOUND=    8.572
INTER + INTRA:          -5.939
INTER:                  -5.939
INTRA:                   0.000
UNBOUND:                 0.000

$$$$

     RDKit          3D

109114  0  0  0  0  0  0  0  0999 V2000
   46.1833   11.8858    9.8267 O   0  0  0  0  0  0  0  0  0  0  0  0
   47.3823   11.9609   10.6115 C   0  0  2  0  0  0  0  0  0  0  0  0
   47.3106   10.8706   11.6898 C   0  0  0  0  0  0  0  0  0  0  0  0
   48.5603   10.7834   12.5676 C   0  0  2  0  0  0  0  0  0  0  0  0
   49.6814   10.3898   11.7749 O   0  0  0  0  0  0  0  0  0  0  0  0
   48.3387    9.7900   13.6795 C   0  0  0  0  0  0  0  0  0  0  0  0
   49.1667    8.7998   14.0505 C   0  0  0  0  0  0  0  0  0  0  0  0
   48.8332    7.8747   15.1476 C   0  0  0  0  0  0  0  0  0  0  0  0
   48.4097    6.5720   14.8330 C   0  0  0  0  0  0  0  0  0  0  0  0
   48.0933    5.6834   15.8115 N   0  0  0  0  0  0  0  0  0  0  0  0
   48.1511    6.0473   17.0997 C   0  0  0  0  0  0  0  0  0  0  0  0
   47.7850    5.1063   18.0543 C   0  0  0  0  0  0  0  0  0  0  0  0
   47.7962    5.3906   19.4226 C   0  0  0  0  0  0  0  0  0  0  0  0
   48.2024    6.6439   19.8562 C   0  0  0  0  0  0  0  0  0  0  0  0
   48.5869    7.6011   18.9147 C   0  0  0  0  0  0  0  0  0  0  0  0
   48.5593    7.3265   17.5204 C   0  0  0  0  0  0  0  0  0  0  0  0
   48.9164    8.2615   16.5089 C   0  0  0  0  0  0  0  0  0  0  0  0
   49.3863    9.6115   16.8764 C   0  0  0  0  0  0  0  0  0  0  0  0
   50.7603    9.8671   17.0239 C   0  0  0  0  0  0  0  0  0  0  0  0
   51.2108   11.1424   17.3707 C   0  0  0  0  0  0  0  0  0  0  0  0
   50.2950   12.1666   17.5725 C   0  0  0  0  0  0  0  0  0  0  0  0
   50.7314   13.3847   17.9230 F   0  0  0  0  0  0  0  0  0  0  0  0
   48.9334   11.9405   17.4176 C   0  0  0  0  0  0  0  0  0  0  0  0
   48.4757   10.6652   17.0767 C   0  0  0  0  0  0  0  0  0  0  0  0
   48.2910    6.0880   13.3916 C   0  0  0  0  0  0  0  0  0  0  0  0
   47.0360    6.4006   12.6081 C   0  0  0  0  0  0  0  0  0  0  0  0
   47.3267    4.9850   13.0096 C   0  0  0  0  0  0  0  0  0  0  0  0
   47.5667   13.3911   11.1215 C   0  0  0  0  0  0  0  0  0  0  0  0
   46.5024   13.7527   12.1596 C   0  0  0  0  0  0  0  0  0  0  0  0
   45.3187   13.4121   11.8507 O   0  0  0  0  0  0  0  0  0  0  0  0
   46.9319   14.3228   13.2006 O   0  0  0  0  0  0  0  0  0  0  0  0
   48.2155    9.2800   14.7144 Ca  0  0  0  0  0 15  0  0  0  0  0  0
   47.3623   13.6165   12.6794 O   0  0  0  0  0  0  0  0  0  0  0  0
   46.8476   12.6661   11.7364 C   0  0  2  0  0  0  0  0  0  0  0  0
   46.9410   11.2379   12.3181 C   0  0  0  0  0  0  0  0  0  0  0  0
   48.3271   10.5726   12.3361 C   0  0  2  0  0  0  0  0  0  0  0  0
   48.5372    9.8740   11.1036 O   0  0  0  0  0  0  0  0  0  0  0  0
   48.5484    9.5033   13.3816 C   0  0  0  0  0  0  0  0  0  0  0  0
   47.7098    9.0527   14.3268 C   0  0  0  0  0  0  0  0  0  0  0  0
   48.1062    7.9791   15.2547 C   0  0  0  0  0  0  0  0  0  0  0  0
   47.9822    6.6367   14.8609 C   0  0  0  0  0  0  0  0  0  0  0  0
   48.3757    5.6211   15.6753 N   0  0  0  0  0  0  0  0  0  0  0  0
   48.9017    5.8963   16.8747 C   0  0  0  0  0  0  0  0  0  0  0  0
   49.3100    4.8294   17.6653 C   0  0  0  0  0  0  0  0  0  0  0  0
   49.8711    5.0189   18.9287 C   0  0  0  0  0  0  0  0  0  0  0  0
   50.0351    6.3023   19.4229 C   0  0  0  0  0  0  0  0  0  0  0  0
   49.6374    7.3848   18.6469 C   0  0  0  0  0  0  0  0  0  0  0  0
   49.0581    7.2072   17.3629 C   0  0  0  0  0  0  0  0  0  0  0  0
   48.6370    8.2769   16.5291 C   0  0  0  0  0  0  0  0  0  0  0  0
   48.7520    9.6756   16.9887 C   0  0  0  0  0  0  0  0  0  0  0  0
   47.7429   10.2483   17.7849 C   0  0  0  0  0  0  0  0  0  0  0  0
   47.8471   11.5670   18.2320 C   0  0  0  0  0  0  0  0  0  0  0  0
   48.9663   12.3167   17.8862 C   0  0  0  0  0  0  0  0  0  0  0  0
   49.0714   13.5820   18.3191 F   0  0  0  0  0  0  0  0  0  0  0  0
   49.9754   11.7749   17.1003 C   0  0  0  0  0  0  0  0  0  0  0  0
   49.8705   10.4560   16.6516 C   0  0  0  0  0  0  0  0  0  0  0  0
   47.4182    6.2506   13.5047 C   0  0  0  0  0  0  0  0  0  0  0  0
   45.9313    6.3673   13.2393 C   0  0  0  0  0  0  0  0  0  0  0  0
   46.5597    5.0117   13.3611 C   0  0  0  0  0  0  0  0  0  0  0  0
   47.3701   12.9059   10.3257 C   0  0  0  0  0  0  0  0  0  0  0  0
   48.8834   12.8747   10.2930 C   0  0  0  0  0  0  0  0  0  0  0  0
   49.3810   11.9244    9.6273 O   0  0  0  0  0  0  0  0  0  0  0  0
   49.4481   13.7357   11.0244 O   0  0  0  0  0  0  0  0  0  0  0  0
   45.5060   12.3584   10.3795 H   0  0  0  0  0  0  0  0  0  0  0  0
   48.2043   11.7274    9.9223 H   0  0  0  0  0  0  0  0  0  0  0  0
   46.4117   11.0126   12.3081 H   0  0  0  0  0  0  0  0  0  0  0  0
   47.1492    9.9075   11.1833 H   0  0  0  0  0  0  0  0  0  0  0  0
   48.7869   11.7544   13.0211 H   0  0  0  0  0  0  0  0  0  0  0  0
   49.4001    9.6125   11.2708 H   0  0  0  0  0  0  0  0  0  0  0  0
   47.4047    9.9312   14.2244 H   0  0  0  0  0  0  0  0  0  0  0  0
   50.1183    8.6381   13.5543 H   0  0  0  0  0  0  0  0  0  0  0  0
   47.4760    4.1209   17.7177 H   0  0  0  0  0  0  0  0  0  0  0  0
   47.4969    4.6321   20.1389 H   0  0  0  0  0  0  0  0  0  0  0  0
   48.2136    6.8839   20.9174 H   0  0  0  0  0  0  0  0  0  0  0  0
   48.9046    8.5776   19.2786 H   0  0  0  0  0  0  0  0  0  0  0  0
   51.4859    9.0719   16.8581 H   0  0  0  0  0  0  0  0  0  0  0  0
   52.2698   11.3433   17.4815 H   0  0  0  0  0  0  0  0  0  0  0  0
   48.2297   12.7559   17.5495 H   0  0  0  0  0  0  0  0  0  0  0  0
   47.4061   10.5010   16.9500 H   0  0  0  0  0  0  0  0  0  0  0  0
   49.2241    6.1013   12.8328 H   0  0  0  0  0  0  0  0  0  0  0  0
   46.2244    6.9116   13.1135 H   0  0  0  0  0  0  0  0  0  0  0  0
   47.1425    6.6731   11.5650 H   0  0  0  0  0  0  0  0  0  0  0  0
   47.6245    4.2889   12.2332 H   0  0  0  0  0  0  0  0  0  0  0  0
   46.7234    4.5413   13.7943 H   0  0  0  0  0  0  0  0  0  0  0  0
   47.4637   14.1026   10.2925 H   0  0  0  0  0  0  0  0  0  0  0  0
   48.5718   13.5199   11.5407 H   0  0  0  0  0  0  0  0  0  0  0  0
   48.2749   13.8483   12.3635 H   0  0  0  0  0  0  0  0  0  0  0  0
   45.7734   12.8917   11.7003 H   0  0  0  0  0  0  0  0  0  0  0  0
   46.5633   11.3189   13.3459 H   0  0  0  0  0  0  0  0  0  0  0  0
   46.2473   10.5888   11.7587 H   0  0  0  0  0  0  0  0  0  0  0  0
   49.1207   11.3194   12.4690 H   0  0  0  0  0  0  0  0  0  0  0  0
   48.9258   10.5282   10.4648 H   0  0  0  0  0  0  0  0  0  0  0  0
   49.5348    9.0512   13.3099 H   0  0  0  0  0  0  0  0  0  0  0  0
   46.7089    9.4423   14.4550 H   0  0  0  0  0  0  0  0  0  0  0  0
   49.1815    3.8206   17.2788 H   0  0  0  0  0  0  0  0  0  0  0  0
   50.1844    4.1635   19.5174 H   0  0  0  0  0  0  0  0  0  0  0  0
   50.4849    6.4713   20.3998 H   0  0  0  0  0  0  0  0  0  0  0  0
   49.7892    8.3821   19.0540 H   0  0  0  0  0  0  0  0  0  0  0  0
   46.8635    9.6646   18.0573 H   0  0  0  0  0  0  0  0  0  0  0  0
   47.0650   12.0168   18.8298 H   0  0  0  0  0  0  0  0  0  0  0  0
   50.8351   12.3808   16.8221 H   0  0  0  0  0  0  0  0  0  0  0  0
   50.6543   10.0407   16.0191 H   0  0  0  0  0  0  0  0  0  0  0  0
   48.0714    6.4642   12.6598 H   0  0  0  0  0  0  0  0  0  0  0  0
   45.2893    6.7056   14.0441 H   0  0  0  0  0  0  0  0  0  0  0  0
   45.6322    6.7052   12.2527 H   0  0  0  0  0  0  0  0  0  0  0  0
   46.3383    4.4376   14.2518 H   0  0  0  0  0  0  0  0  0  0  0  0
   46.6827    4.4220   12.4610 H   0  0  0  0  0  0  0  0  0  0  0  0
   47.0679   13.9043    9.9942 H   0  0  0  0  0  0  0  0  0  0  0  0
   46.9411   12.1870    9.6271 H   0  0  0  0  0  0  0  0  0  0  0  0
  2  1  1  0
  2  3  1  0
  3  4  1  0
  4  5  1  0
  4  6  1  0
  6  7  2  0
  7  8  1  0
  8  9  2  0
  9 10  1  0
 10 11  2  0
 11 12  1  0
 12 13  2  0
 13 14  1  0
 14 15  2  0
 15 16  1  0
 11 16  1  0
 16 17  2  0
  8 17  1  0
 17 18  1  0
 18 19  2  0
 19 20  1  0
 20 21  2  0
 21 22  1  0
 21 23  1  0
 23 24  2  0
 18 24  1  0
  9 25  1  0
 25 26  1  0
 26 27  1  0
 25 27  1  0
  2 28  1  0
 28 29  1  0
 29 30  2  0
 29 31  1  0
 34 33  1  0
 34 35  1  0
 35 36  1  0
 36 37  1  0
 36 38  1  0
 38 39  2  0
 39 40  1  0
 40 41  2  0
 41 42  1  0
 42 43  2  0
 43 44  1  0
 44 45  2  0
 45 46  1  0
 46 47  2  0
 47 48  1  0
 43 48  1  0
 48 49  2  0
 40 49  1  0
 49 50  1  0
 50 51  2  0
 51 52  1  0
 52 53  2  0
 53 54  1  0
 53 55  1  0
 55 56  2  0
 50 56  1  0
 41 57  1  0
 57 58  1  0
 58 59  1  0
 57 59  1  0
 34 60  1  0
 60 61  1  0
 61 62  2  0
 61 63  1  0
  1 64  1  0
  2 65  1  1
  3 66  1  0
  3 67  1  0
  4 68  1  1
  5 69  1  0
  6 70  1  0
  7 71  1  0
 12 72  1  0
 13 73  1  0
 14 74  1  0
 15 75  1  0
 19 76  1  0
 20 77  1  0
 23 78  1  0
 24 79  1  0
 25 80  1  0
 26 81  1  0
 26 82  1  0
 27 83  1  0
 27 84  1  0
 28 85  1  0
 28 86  1  0
 33 87  1  0
 34 88  1  6
 35 89  1  0
 35 90  1  0
 36 91  1  1
 37 92  1  0
 38 93  1  0
 39 94  1  0
 44 95  1  0
 45 96  1  0
 46 97  1  0
 47 98  1  0
 51 99  1  0
 52100  1  0
 55101  1  0
 56102  1  0
 57103  1  0
 58104  1  0
 58105  1  0
 59106  1  0
 59107  1  0
 60108  1  0
 60109  1  0
M  CHG  3  31  -1  32   2  63  -1
M  END
> <Uni-Dock RESULT> 
ENERGY=   -5.861  LOWER_BOUND=    2.144  UPPER_BOUND=    3.656
INTER + INTRA:          -5.861
INTER:                  -5.861
INTRA:                   0.000
UNBOUND:                 0.000

$$$$
