
     RDKit          3D

109114  0  0  0  0  0  0  0  0999 V2000
   50.3200   10.7611   13.3004 O   0  0  0  0  0  0  0  0  0  0  0  0
   49.4056    9.6462   13.3340 C   0  0  2  0  0  0  0  0  0  0  0  0
   50.2588    8.3746   13.3098 C   0  0  0  0  0  0  0  0  0  0  0  0
   49.5831    7.0906   13.8055 C   0  0  2  0  0  0  0  0  0  0  0  0
   48.6015    6.6471   12.8805 O   0  0  0  0  0  0  0  0  0  0  0  0
   48.9997    7.1909   15.1912 C   0  0  0  0  0  0  0  0  0  0  0  0
   49.5444    6.6105   16.2758 C   0  0  0  0  0  0  0  0  0  0  0  0
   48.9734    6.7330   17.6343 C   0  0  0  0  0  0  0  0  0  0  0  0
   48.5325    5.5663   18.2867 C   0  0  0  0  0  0  0  0  0  0  0  0
   48.0584    5.5944   19.5610 N   0  0  0  0  0  0  0  0  0  0  0  0
   47.9881    6.7524   20.2235 C   0  0  0  0  0  0  0  0  0  0  0  0
   47.4978    6.7306   21.5242 C   0  0  0  0  0  0  0  0  0  0  0  0
   47.3948    7.8861   22.3029 C   0  0  0  0  0  0  0  0  0  0  0  0
   47.7955    9.1008   21.7724 C   0  0  0  0  0  0  0  0  0  0  0  0
   48.2861    9.1421   20.4694 C   0  0  0  0  0  0  0  0  0  0  0  0
   48.3913    7.9753   19.6670 C   0  0  0  0  0  0  0  0  0  0  0  0
   48.8989    7.9605   18.3357 C   0  0  0  0  0  0  0  0  0  0  0  0
   49.3889    9.2129   17.7292 C   0  0  0  0  0  0  0  0  0  0  0  0
   50.7645    9.5093   17.7335 C   0  0  0  0  0  0  0  0  0  0  0  0
   51.2375   10.7052   17.1913 C   0  0  0  0  0  0  0  0  0  0  0  0
   50.3362   11.6176   16.6469 C   0  0  0  0  0  0  0  0  0  0  0  0
   50.7982   12.7747   16.1420 F   0  0  0  0  0  0  0  0  0  0  0  0
   48.9717   11.3550   16.6388 C   0  0  0  0  0  0  0  0  0  0  0  0
   48.5004   10.1529   17.1804 C   0  0  0  0  0  0  0  0  0  0  0  0
   48.5951    4.1892   17.6389 C   0  0  0  0  0  0  0  0  0  0  0  0
   47.5062    3.1735   17.9134 C   0  0  0  0  0  0  0  0  0  0  0  0
   47.6074    3.8108   16.5576 C   0  0  0  0  0  0  0  0  0  0  0  0
   48.4440    9.7811   12.1628 C   0  0  0  0  0  0  0  0  0  0  0  0
   47.4189   10.8817   12.4669 C   0  0  0  0  0  0  0  0  0  0  0  0
   47.8482   11.8500   13.1602 O   0  0  0  0  0  0  0  0  0  0  0  0
   46.2713   10.7034   11.9665 O   0  0  0  0  0  0  0  0  0  0  0  0
   48.8117    8.0624   16.6148 Ca  0  0  0  0  0 15  0  0  0  0  0  0
   47.9170   10.7911   12.2463 O   0  0  0  0  0  0  0  0  0  0  0  0
   49.1035    9.9791   12.1307 C   0  0  2  0  0  0  0  0  0  0  0  0
   49.4074    9.4013   13.5194 C   0  0  0  0  0  0  0  0  0  0  0  0
   48.3107    8.4203   13.9700 C   0  0  2  0  0  0  0  0  0  0  0  0
   47.0774    9.1068   14.1806 O   0  0  0  0  0  0  0  0  0  0  0  0
   48.7236    7.7038   15.2357 C   0  0  0  0  0  0  0  0  0  0  0  0
   47.9930    7.6004   16.3557 C   0  0  0  0  0  0  0  0  0  0  0  0
   48.4770    6.9167   17.5784 C   0  0  0  0  0  0  0  0  0  0  0  0
   48.7630    5.5386   17.5830 C   0  0  0  0  0  0  0  0  0  0  0  0
   49.2609    4.9118   18.6867 N   0  0  0  0  0  0  0  0  0  0  0  0
   49.4760    5.6093   19.8057 C   0  0  0  0  0  0  0  0  0  0  0  0
   50.0124    4.9265   20.8914 C   0  0  0  0  0  0  0  0  0  0  0  0
   50.2863    5.5556   22.1092 C   0  0  0  0  0  0  0  0  0  0  0  0
   50.0014    6.9039   22.2553 C   0  0  0  0  0  0  0  0  0  0  0  0
   49.4698    7.6081   21.1717 C   0  0  0  0  0  0  0  0  0  0  0  0
   49.1986    6.9837   19.9205 C   0  0  0  0  0  0  0  0  0  0  0  0
   48.6720    7.6510   18.7739 C   0  0  0  0  0  0  0  0  0  0  0  0
   48.3285    9.0876   18.8347 C   0  0  0  0  0  0  0  0  0  0  0  0
   47.0999    9.4974   19.3794 C   0  0  0  0  0  0  0  0  0  0  0  0
   46.7640   10.8556   19.4520 C   0  0  0  0  0  0  0  0  0  0  0  0
   47.6524   11.8111   18.9670 C   0  0  0  0  0  0  0  0  0  0  0  0
   47.3375   13.1133   19.0491 F   0  0  0  0  0  0  0  0  0  0  0  0
   48.8674   11.4317   18.4036 C   0  0  0  0  0  0  0  0  0  0  0  0
   49.2014   10.0730   18.3391 C   0  0  0  0  0  0  0  0  0  0  0  0
   48.5379    4.6648   16.3551 C   0  0  0  0  0  0  0  0  0  0  0  0
   47.1360    4.3590   15.8755 C   0  0  0  0  0  0  0  0  0  0  0  0
   47.9537    3.2743   16.5115 C   0  0  0  0  0  0  0  0  0  0  0  0
   50.2367   10.8246   11.5723 C   0  0  0  0  0  0  0  0  0  0  0  0
   51.2928    9.9914   10.8385 C   0  0  0  0  0  0  0  0  0  0  0  0
   51.3363    8.7619   11.1209 O   0  0  0  0  0  0  0  0  0  0  0  0
   51.9932   10.6517   10.0189 O   0  0  0  0  0  0  0  0  0  0  0  0
   49.7104   11.5474   13.3092 H   0  0  0  0  0  0  0  0  0  0  0  0
   48.8681    9.7211   14.2804 H   0  0  0  0  0  0  0  0  0  0  0  0
   51.1448    8.5513   13.9325 H   0  0  0  0  0  0  0  0  0  0  0  0
   50.6393    8.2173   12.2921 H   0  0  0  0  0  0  0  0  0  0  0  0
   50.3492    6.3095   13.8008 H   0  0  0  0  0  0  0  0  0  0  0  0
   47.7351    6.5983   13.3310 H   0  0  0  0  0  0  0  0  0  0  0  0
   48.1049    7.7992   15.2994 H   0  0  0  0  0  0  0  0  0  0  0  0
   50.4403    5.9992   16.1816 H   0  0  0  0  0  0  0  0  0  0  0  0
   47.1973    5.7759   21.9473 H   0  0  0  0  0  0  0  0  0  0  0  0
   47.0001    7.8286   23.3153 H   0  0  0  0  0  0  0  0  0  0  0  0
   47.7104   10.0134   22.3562 H   0  0  0  0  0  0  0  0  0  0  0  0
   48.5998   10.1095   20.0784 H   0  0  0  0  0  0  0  0  0  0  0  0
   51.4780    8.8038   18.1633 H   0  0  0  0  0  0  0  0  0  0  0  0
   52.3023   10.9164   17.1549 H   0  0  0  0  0  0  0  0  0  0  0  0
   48.2917   12.0694   16.1776 H   0  0  0  0  0  0  0  0  0  0  0  0
   47.4299    9.9514   17.1537 H   0  0  0  0  0  0  0  0  0  0  0  0
   49.5989    3.7754   17.5579 H   0  0  0  0  0  0  0  0  0  0  0  0
   47.8043    2.1382   18.0270 H   0  0  0  0  0  0  0  0  0  0  0  0
   46.6853    3.4659   18.5584 H   0  0  0  0  0  0  0  0  0  0  0  0
   47.9621    3.1965   15.7386 H   0  0  0  0  0  0  0  0  0  0  0  0
   46.8577    4.5448   16.2753 H   0  0  0  0  0  0  0  0  0  0  0  0
   48.9737   10.0786   11.2564 H   0  0  0  0  0  0  0  0  0  0  0  0
   47.9114    8.8505   11.9641 H   0  0  0  0  0  0  0  0  0  0  0  0
   47.7969   11.2049   11.3720 H   0  0  0  0  0  0  0  0  0  0  0  0
   48.8508    9.1718   11.4376 H   0  0  0  0  0  0  0  0  0  0  0  0
   49.4699   10.2228   14.2420 H   0  0  0  0  0  0  0  0  0  0  0  0
   50.3767    8.8938   13.5120 H   0  0  0  0  0  0  0  0  0  0  0  0
   48.1415    7.6663   13.1940 H   0  0  0  0  0  0  0  0  0  0  0  0
   47.0632    9.8214   13.5071 H   0  0  0  0  0  0  0  0  0  0  0  0
   49.7016    7.2238   15.1808 H   0  0  0  0  0  0  0  0  0  0  0  0
   47.0204    8.0844   16.4249 H   0  0  0  0  0  0  0  0  0  0  0  0
   50.2415    3.8679   20.7820 H   0  0  0  0  0  0  0  0  0  0  0  0
   50.7217    4.9902   22.9327 H   0  0  0  0  0  0  0  0  0  0  0  0
   50.1994    7.4111   23.1983 H   0  0  0  0  0  0  0  0  0  0  0  0
   49.2729    8.6700   21.3045 H   0  0  0  0  0  0  0  0  0  0  0  0
   46.3939    8.7571   19.7495 H   0  0  0  0  0  0  0  0  0  0  0  0
   45.8185   11.1752   19.8894 H   0  0  0  0  0  0  0  0  0  0  0  0
   49.5425   12.1884   18.0086 H   0  0  0  0  0  0  0  0  0  0  0  0
   50.1475    9.7824   17.8890 H   0  0  0  0  0  0  0  0  0  0  0  0
   49.3035    4.7600   15.5871 H   0  0  0  0  0  0  0  0  0  0  0  0
   46.2999    4.7606   16.4360 H   0  0  0  0  0  0  0  0  0  0  0  0
   46.9802    4.3306   14.8042 H   0  0  0  0  0  0  0  0  0  0  0  0
   48.3528    2.4932   15.8721 H   0  0  0  0  0  0  0  0  0  0  0  0
   47.6663    2.9310   17.5020 H   0  0  0  0  0  0  0  0  0  0  0  0
   49.8469   11.5711   10.8683 H   0  0  0  0  0  0  0  0  0  0  0  0
   50.7368   11.3871   12.3716 H   0  0  0  0  0  0  0  0  0  0  0  0
  2  1  1  0
  2  3  1  0
  3  4  1  0
  4  5  1  0
  4  6  1  0
  6  7  2  0
  7  8  1  0
  8  9  2  0
  9 10  1  0
 10 11  2  0
 11 12  1  0
 12 13  2  0
 13 14  1  0
 14 15  2  0
 15 16  1  0
 11 16  1  0
 16 17  2  0
  8 17  1  0
 17 18  1  0
 18 19  2  0
 19 20  1  0
 20 21  2  0
 21 22  1  0
 21 23  1  0
 23 24  2  0
 18 24  1  0
  9 25  1  0
 25 26  1  0
 26 27  1  0
 25 27  1  0
  2 28  1  0
 28 29  1  0
 29 30  2  0
 29 31  1  0
 34 33  1  0
 34 35  1  0
 35 36  1  0
 36 37  1  0
 36 38  1  0
 38 39  2  0
 39 40  1  0
 40 41  2  0
 41 42  1  0
 42 43  2  0
 43 44  1  0
 44 45  2  0
 45 46  1  0
 46 47  2  0
 47 48  1  0
 43 48  1  0
 48 49  2  0
 40 49  1  0
 49 50  1  0
 50 51  2  0
 51 52  1  0
 52 53  2  0
 53 54  1  0
 53 55  1  0
 55 56  2  0
 50 56  1  0
 41 57  1  0
 57 58  1  0
 58 59  1  0
 57 59  1  0
 34 60  1  0
 60 61  1  0
 61 62  2  0
 61 63  1  0
  1 64  1  0
  2 65  1  6
  3 66  1  0
  3 67  1  0
  4 68  1  1
  5 69  1  0
  6 70  1  0
  7 71  1  0
 12 72  1  0
 13 73  1  0
 14 74  1  0
 15 75  1  0
 19 76  1  0
 20 77  1  0
 23 78  1  0
 24 79  1  0
 25 80  1  0
 26 81  1  0
 26 82  1  0
 27 83  1  0
 27 84  1  0
 28 85  1  0
 28 86  1  0
 33 87  1  0
 34 88  1  6
 35 89  1  0
 35 90  1  0
 36 91  1  6
 37 92  1  0
 38 93  1  0
 39 94  1  0
 44 95  1  0
 45 96  1  0
 46 97  1  0
 47 98  1  0
 51 99  1  0
 52100  1  0
 55101  1  0
 56102  1  0
 57103  1  0
 58104  1  0
 58105  1  0
 59106  1  0
 59107  1  0
 60108  1  0
 60109  1  0
M  CHG  3  31  -1  32   2  63  -1
M  END
> <Uni-Dock RESULT> 
ENERGY=   -7.025  LOWER_BOUND=    0.000  UPPER_BOUND=    0.000
INTER + INTRA:          -7.025
INTER:                  -7.025
INTRA:                   0.000
UNBOUND:                 0.000

$$$$

     RDKit          3D

109114  0  0  0  0  0  0  0  0999 V2000
   50.3210   10.7606   13.3003 O   0  0  0  0  0  0  0  0  0  0  0  0
   49.4064    9.6458   13.3339 C   0  0  2  0  0  0  0  0  0  0  0  0
   50.2595    8.3741   13.3098 C   0  0  0  0  0  0  0  0  0  0  0  0
   49.5836    7.0903   13.8054 C   0  0  2  0  0  0  0  0  0  0  0  0
   48.6020    6.6469   12.8804 O   0  0  0  0  0  0  0  0  0  0  0  0
   49.0000    7.1907   15.1911 C   0  0  0  0  0  0  0  0  0  0  0  0
   49.5445    6.6102   16.2758 C   0  0  0  0  0  0  0  0  0  0  0  0
   48.9735    6.7328   17.6343 C   0  0  0  0  0  0  0  0  0  0  0  0
   48.5324    5.5663   18.2866 C   0  0  0  0  0  0  0  0  0  0  0  0
   48.0582    5.5944   19.5609 N   0  0  0  0  0  0  0  0  0  0  0  0
   47.9880    6.7525   20.2234 C   0  0  0  0  0  0  0  0  0  0  0  0
   47.4976    6.7308   21.5241 C   0  0  0  0  0  0  0  0  0  0  0  0
   47.3947    7.8863   22.3026 C   0  0  0  0  0  0  0  0  0  0  0  0
   47.7957    9.1009   21.7722 C   0  0  0  0  0  0  0  0  0  0  0  0
   48.2863    9.1421   20.4692 C   0  0  0  0  0  0  0  0  0  0  0  0
   48.3914    7.9753   19.6669 C   0  0  0  0  0  0  0  0  0  0  0  0
   48.8991    7.9604   18.3356 C   0  0  0  0  0  0  0  0  0  0  0  0
   49.3893    9.2127   17.7291 C   0  0  0  0  0  0  0  0  0  0  0  0
   50.7650    9.5089   17.7335 C   0  0  0  0  0  0  0  0  0  0  0  0
   51.2382   10.7047   17.1913 C   0  0  0  0  0  0  0  0  0  0  0  0
   50.3371   11.6172   16.6469 C   0  0  0  0  0  0  0  0  0  0  0  0
   50.7993   12.7742   16.1419 F   0  0  0  0  0  0  0  0  0  0  0  0
   48.9726   11.3548   16.6387 C   0  0  0  0  0  0  0  0  0  0  0  0
   48.5010   10.1528   17.1802 C   0  0  0  0  0  0  0  0  0  0  0  0
   48.5948    4.1891   17.6388 C   0  0  0  0  0  0  0  0  0  0  0  0
   47.5058    3.1736   17.9133 C   0  0  0  0  0  0  0  0  0  0  0  0
   47.6071    3.8109   16.5575 C   0  0  0  0  0  0  0  0  0  0  0  0
   48.4449    9.7809   12.1626 C   0  0  0  0  0  0  0  0  0  0  0  0
   47.4200   10.8817   12.4666 C   0  0  0  0  0  0  0  0  0  0  0  0
   47.8495   11.8499   13.1600 O   0  0  0  0  0  0  0  0  0  0  0  0
   46.2724   10.7035   11.9661 O   0  0  0  0  0  0  0  0  0  0  0  0
   48.8121    8.0623   16.6147 Ca  0  0  0  0  0 15  0  0  0  0  0  0
   47.9181   10.7910   12.2461 O   0  0  0  0  0  0  0  0  0  0  0  0
   49.1045    9.9788   12.1306 C   0  0  2  0  0  0  0  0  0  0  0  0
   49.4082    9.4010   13.5193 C   0  0  0  0  0  0  0  0  0  0  0  0
   48.3113    8.4201   13.9698 C   0  0  2  0  0  0  0  0  0  0  0  0
   47.0781    9.1068   14.1804 O   0  0  0  0  0  0  0  0  0  0  0  0
   48.7241    7.7036   15.2356 C   0  0  0  0  0  0  0  0  0  0  0  0
   47.9934    7.6004   16.3556 C   0  0  0  0  0  0  0  0  0  0  0  0
   48.4771    6.9166   17.5783 C   0  0  0  0  0  0  0  0  0  0  0  0
   48.7630    5.5385   17.5830 C   0  0  0  0  0  0  0  0  0  0  0  0
   49.2606    4.9116   18.6867 N   0  0  0  0  0  0  0  0  0  0  0  0
   49.4758    5.6091   19.8057 C   0  0  0  0  0  0  0  0  0  0  0  0
   50.0120    4.9263   20.8914 C   0  0  0  0  0  0  0  0  0  0  0  0
   50.2859    5.5554   22.1093 C   0  0  0  0  0  0  0  0  0  0  0  0
   50.0011    6.9037   22.2553 C   0  0  0  0  0  0  0  0  0  0  0  0
   49.4698    7.6080   21.1716 C   0  0  0  0  0  0  0  0  0  0  0  0
   49.1985    6.9836   19.9205 C   0  0  0  0  0  0  0  0  0  0  0  0
   48.6721    7.6509   18.7738 C   0  0  0  0  0  0  0  0  0  0  0  0
   48.3289    9.0875   18.8345 C   0  0  0  0  0  0  0  0  0  0  0  0
   47.1003    9.4976   19.3791 C   0  0  0  0  0  0  0  0  0  0  0  0
   46.7646   10.8558   19.4517 C   0  0  0  0  0  0  0  0  0  0  0  0
   47.6531   11.8112   18.9667 C   0  0  0  0  0  0  0  0  0  0  0  0
   47.3385   13.1134   19.0487 F   0  0  0  0  0  0  0  0  0  0  0  0
   48.8682   11.4315   18.4034 C   0  0  0  0  0  0  0  0  0  0  0  0
   49.2020   10.0728   18.3389 C   0  0  0  0  0  0  0  0  0  0  0  0
   48.5378    4.6647   16.3551 C   0  0  0  0  0  0  0  0  0  0  0  0
   47.1359    4.3591   15.8753 C   0  0  0  0  0  0  0  0  0  0  0  0
   47.9533    3.2743   16.5115 C   0  0  0  0  0  0  0  0  0  0  0  0
   50.2378   10.8241   11.5722 C   0  0  0  0  0  0  0  0  0  0  0  0
   51.2939    9.9907   10.8385 C   0  0  0  0  0  0  0  0  0  0  0  0
   51.3372    8.7613   11.1210 O   0  0  0  0  0  0  0  0  0  0  0  0
   51.9944   10.6509   10.0189 O   0  0  0  0  0  0  0  0  0  0  0  0
   49.7115   11.5470   13.3090 H   0  0  0  0  0  0  0  0  0  0  0  0
   48.8689    9.7209   14.2803 H   0  0  0  0  0  0  0  0  0  0  0  0
   51.1454    8.5508   13.9325 H   0  0  0  0  0  0  0  0  0  0  0  0
   50.6401    8.2168   12.2922 H   0  0  0  0  0  0  0  0  0  0  0  0
   50.3495    6.3090   13.8008 H   0  0  0  0  0  0  0  0  0  0  0  0
   47.7355    6.5982   13.3309 H   0  0  0  0  0  0  0  0  0  0  0  0
   48.1054    7.7991   15.2992 H   0  0  0  0  0  0  0  0  0  0  0  0
   50.4403    5.9988   16.1817 H   0  0  0  0  0  0  0  0  0  0  0  0
   47.1969    5.7761   21.9471 H   0  0  0  0  0  0  0  0  0  0  0  0
   46.9999    7.8289   23.3151 H   0  0  0  0  0  0  0  0  0  0  0  0
   47.7107   10.0135   22.3559 H   0  0  0  0  0  0  0  0  0  0  0  0
   48.6002   10.1095   20.0782 H   0  0  0  0  0  0  0  0  0  0  0  0
   51.4783    8.8033   18.1633 H   0  0  0  0  0  0  0  0  0  0  0  0
   52.3031   10.9157   17.1549 H   0  0  0  0  0  0  0  0  0  0  0  0
   48.2928   12.0693   16.1774 H   0  0  0  0  0  0  0  0  0  0  0  0
   47.4305    9.9514   17.1535 H   0  0  0  0  0  0  0  0  0  0  0  0
   49.5985    3.7752   17.5580 H   0  0  0  0  0  0  0  0  0  0  0  0
   47.8037    2.1383   18.0270 H   0  0  0  0  0  0  0  0  0  0  0  0
   46.6848    3.4662   18.5582 H   0  0  0  0  0  0  0  0  0  0  0  0
   47.9618    3.1965   15.7386 H   0  0  0  0  0  0  0  0  0  0  0  0
   46.8576    4.5449   16.2751 H   0  0  0  0  0  0  0  0  0  0  0  0
   48.9748   10.0783   11.2562 H   0  0  0  0  0  0  0  0  0  0  0  0
   47.9123    8.8504   11.9639 H   0  0  0  0  0  0  0  0  0  0  0  0
   47.7981   11.2048   11.3717 H   0  0  0  0  0  0  0  0  0  0  0  0
   48.8517    9.1715   11.4375 H   0  0  0  0  0  0  0  0  0  0  0  0
   49.4708   10.2225   14.2419 H   0  0  0  0  0  0  0  0  0  0  0  0
   50.3774    8.8934   13.5120 H   0  0  0  0  0  0  0  0  0  0  0  0
   48.1421    7.6662   13.1938 H   0  0  0  0  0  0  0  0  0  0  0  0
   47.0640    9.8215   13.5068 H   0  0  0  0  0  0  0  0  0  0  0  0
   49.7020    7.2235   15.1808 H   0  0  0  0  0  0  0  0  0  0  0  0
   47.0208    8.0845   16.4247 H   0  0  0  0  0  0  0  0  0  0  0  0
   50.2410    3.8676   20.7821 H   0  0  0  0  0  0  0  0  0  0  0  0
   50.7211    4.9899   22.9328 H   0  0  0  0  0  0  0  0  0  0  0  0
   50.1992    7.4109   23.1983 H   0  0  0  0  0  0  0  0  0  0  0  0
   49.2730    8.6699   21.3044 H   0  0  0  0  0  0  0  0  0  0  0  0
   46.3942    8.7574   19.7492 H   0  0  0  0  0  0  0  0  0  0  0  0
   45.8191   11.1755   19.8889 H   0  0  0  0  0  0  0  0  0  0  0  0
   49.5434   12.1881   18.0084 H   0  0  0  0  0  0  0  0  0  0  0  0
   50.1481    9.7820   17.8889 H   0  0  0  0  0  0  0  0  0  0  0  0
   49.3034    4.7598   15.5872 H   0  0  0  0  0  0  0  0  0  0  0  0
   46.2998    4.7608   16.4357 H   0  0  0  0  0  0  0  0  0  0  0  0
   46.9801    4.3307   14.8041 H   0  0  0  0  0  0  0  0  0  0  0  0
   48.3524    2.4931   15.8721 H   0  0  0  0  0  0  0  0  0  0  0  0
   47.6658    2.9310   17.5019 H   0  0  0  0  0  0  0  0  0  0  0  0
   49.8482   11.5706   10.8682 H   0  0  0  0  0  0  0  0  0  0  0  0
   50.7380   11.3866   12.3716 H   0  0  0  0  0  0  0  0  0  0  0  0
  2  1  1  0
  2  3  1  0
  3  4  1  0
  4  5  1  0
  4  6  1  0
  6  7  2  0
  7  8  1  0
  8  9  2  0
  9 10  1  0
 10 11  2  0
 11 12  1  0
 12 13  2  0
 13 14  1  0
 14 15  2  0
 15 16  1  0
 11 16  1  0
 16 17  2  0
  8 17  1  0
 17 18  1  0
 18 19  2  0
 19 20  1  0
 20 21  2  0
 21 22  1  0
 21 23  1  0
 23 24  2  0
 18 24  1  0
  9 25  1  0
 25 26  1  0
 26 27  1  0
 25 27  1  0
  2 28  1  0
 28 29  1  0
 29 30  2  0
 29 31  1  0
 34 33  1  0
 34 35  1  0
 35 36  1  0
 36 37  1  0
 36 38  1  0
 38 39  2  0
 39 40  1  0
 40 41  2  0
 41 42  1  0
 42 43  2  0
 43 44  1  0
 44 45  2  0
 45 46  1  0
 46 47  2  0
 47 48  1  0
 43 48  1  0
 48 49  2  0
 40 49  1  0
 49 50  1  0
 50 51  2  0
 51 52  1  0
 52 53  2  0
 53 54  1  0
 53 55  1  0
 55 56  2  0
 50 56  1  0
 41 57  1  0
 57 58  1  0
 58 59  1  0
 57 59  1  0
 34 60  1  0
 60 61  1  0
 61 62  2  0
 61 63  1  0
  1 64  1  0
  2 65  1  6
  3 66  1  0
  3 67  1  0
  4 68  1  1
  5 69  1  0
  6 70  1  0
  7 71  1  0
 12 72  1  0
 13 73  1  0
 14 74  1  0
 15 75  1  0
 19 76  1  0
 20 77  1  0
 23 78  1  0
 24 79  1  0
 25 80  1  0
 26 81  1  0
 26 82  1  0
 27 83  1  0
 27 84  1  0
 28 85  1  0
 28 86  1  0
 33 87  1  0
 34 88  1  6
 35 89  1  0
 35 90  1  0
 36 91  1  6
 37 92  1  0
 38 93  1  0
 39 94  1  0
 44 95  1  0
 45 96  1  0
 46 97  1  0
 47 98  1  0
 51 99  1  0
 52100  1  0
 55101  1  0
 56102  1  0
 57103  1  0
 58104  1  0
 58105  1  0
 59106  1  0
 59107  1  0
 60108  1  0
 60109  1  0
M  CHG  3  31  -1  32   2  63  -1
M  END
> <Uni-Dock RESULT> 
ENERGY=   -7.019  LOWER_BOUND=    0.001  UPPER_BOUND=    0.001
INTER + INTRA:          -7.019
INTER:                  -7.019
INTRA:                   0.000
UNBOUND:                 0.000

$$$$

     RDKit          3D

109114  0  0  0  0  0  0  0  0999 V2000
   50.6548   12.6634   13.4879 O   0  0  0  0  0  0  0  0  0  0  0  0
   50.4369   12.8047   14.9067 C   0  0  2  0  0  0  0  0  0  0  0  0
   48.9219   12.7611   15.1271 C   0  0  0  0  0  0  0  0  0  0  0  0
   48.4487   12.4187   16.5447 C   0  0  2  0  0  0  0  0  0  0  0  0
   48.7137   13.4900   17.4380 O   0  0  0  0  0  0  0  0  0  0  0  0
   49.0000   11.1258   17.0882 C   0  0  0  0  0  0  0  0  0  0  0  0
   48.2748   10.0003   17.2196 C   0  0  0  0  0  0  0  0  0  0  0  0
   48.8324    8.7316   17.7355 C   0  0  0  0  0  0  0  0  0  0  0  0
   48.3001    8.1964   18.9235 C   0  0  0  0  0  0  0  0  0  0  0  0
   48.7177    7.0014   19.4203 N   0  0  0  0  0  0  0  0  0  0  0  0
   49.6676    6.3081   18.7863 C   0  0  0  0  0  0  0  0  0  0  0  0
   50.0606    5.0912   19.3318 C   0  0  0  0  0  0  0  0  0  0  0  0
   51.0378    4.2879   18.7386 C   0  0  0  0  0  0  0  0  0  0  0  0
   51.6403    4.7061   17.5642 C   0  0  0  0  0  0  0  0  0  0  0  0
   51.2615    5.9245   17.0052 C   0  0  0  0  0  0  0  0  0  0  0  0
   50.2729    6.7515   17.6010 C   0  0  0  0  0  0  0  0  0  0  0  0
   49.8392    7.9977   17.0633 C   0  0  0  0  0  0  0  0  0  0  0  0
   50.4055    8.4771   15.7882 C   0  0  0  0  0  0  0  0  0  0  0  0
   49.7104    8.2673   14.5828 C   0  0  0  0  0  0  0  0  0  0  0  0
   50.2500    8.6878   13.3664 C   0  0  0  0  0  0  0  0  0  0  0  0
   51.4937    9.3154   13.3460 C   0  0  0  0  0  0  0  0  0  0  0  0
   52.0142    9.7022   12.1684 F   0  0  0  0  0  0  0  0  0  0  0  0
   52.2064    9.5260   14.5200 C   0  0  0  0  0  0  0  0  0  0  0  0
   51.6610    9.1061   15.7394 C   0  0  0  0  0  0  0  0  0  0  0  0
   47.1934    8.8852   19.7114 C   0  0  0  0  0  0  0  0  0  0  0  0
   47.1807    8.8086   21.2235 C   0  0  0  0  0  0  0  0  0  0  0  0
   47.5009   10.1093   20.5450 C   0  0  0  0  0  0  0  0  0  0  0  0
   51.1029   14.0928   15.3667 C   0  0  0  0  0  0  0  0  0  0  0  0
   52.6229   13.8907   15.4233 C   0  0  0  0  0  0  0  0  0  0  0  0
   53.1010   13.1046   14.5539 O   0  0  0  0  0  0  0  0  0  0  0  0
   53.2225   14.5545   16.3173 O   0  0  0  0  0  0  0  0  0  0  0  0
   49.8635    9.7081   16.8320 Ca  0  0  0  0  0 15  0  0  0  0  0  0
   52.2099   14.0427   15.0897 O   0  0  0  0  0  0  0  0  0  0  0  0
   50.8089   14.0237   14.7470 C   0  0  2  0  0  0  0  0  0  0  0  0
   50.2654   12.6311   15.0933 C   0  0  0  0  0  0  0  0  0  0  0  0
   50.2949   12.3800   16.6113 C   0  0  2  0  0  0  0  0  0  0  0  0
   51.6398   12.3167   17.0845 O   0  0  0  0  0  0  0  0  0  0  0  0
   49.5678   11.0994   16.9540 C   0  0  0  0  0  0  0  0  0  0  0  0
   50.0486   10.0985   17.7062 C   0  0  0  0  0  0  0  0  0  0  0  0
   49.2960    8.8492   17.9693 C   0  0  0  0  0  0  0  0  0  0  0  0
   48.0813    8.8612   18.6802 C   0  0  0  0  0  0  0  0  0  0  0  0
   47.3541    7.7253   18.8794 N   0  0  0  0  0  0  0  0  0  0  0  0
   47.8006    6.5594   18.4038 C   0  0  0  0  0  0  0  0  0  0  0  0
   47.0049    5.4381   18.6098 C   0  0  0  0  0  0  0  0  0  0  0  0
   47.3678    4.1690   18.1499 C   0  0  0  0  0  0  0  0  0  0  0  0
   48.5692    4.0090   17.4779 C   0  0  0  0  0  0  0  0  0  0  0  0
   49.3776    5.1266   17.2544 C   0  0  0  0  0  0  0  0  0  0  0  0
   49.0144    6.4281   17.7048 C   0  0  0  0  0  0  0  0  0  0  0  0
   49.7881    7.6089   17.4940 C   0  0  0  0  0  0  0  0  0  0  0  0
   51.0886    7.5378   16.7947 C   0  0  0  0  0  0  0  0  0  0  0  0
   52.2460    7.1548   17.4933 C   0  0  0  0  0  0  0  0  0  0  0  0
   53.4839    7.0742   16.8425 C   0  0  0  0  0  0  0  0  0  0  0  0
   53.5720    7.3897   15.4896 C   0  0  0  0  0  0  0  0  0  0  0  0
   54.7550    7.2990   14.8620 F   0  0  0  0  0  0  0  0  0  0  0  0
   52.4451    7.7919   14.7782 C   0  0  0  0  0  0  0  0  0  0  0  0
   51.2086    7.8647   15.4319 C   0  0  0  0  0  0  0  0  0  0  0  0
   47.5034   10.1435   19.2664 C   0  0  0  0  0  0  0  0  0  0  0  0
   48.1788   10.8277   20.4345 C   0  0  0  0  0  0  0  0  0  0  0  0
   46.8686   10.1283   20.6433 C   0  0  0  0  0  0  0  0  0  0  0  0
   50.6475   14.3819   13.2785 C   0  0  0  0  0  0  0  0  0  0  0  0
   49.2782   14.9937   12.9639 C   0  0  0  0  0  0  0  0  0  0  0  0
   48.3532   14.7589   13.7901 O   0  0  0  0  0  0  0  0  0  0  0  0
   49.2507   15.6788   11.9018 O   0  0  0  0  0  0  0  0  0  0  0  0
   51.6458   12.7080   13.4109 H   0  0  0  0  0  0  0  0  0  0  0  0
   50.9106   11.9409   15.3754 H   0  0  0  0  0  0  0  0  0  0  0  0
   48.5031   12.0133   14.4420 H   0  0  0  0  0  0  0  0  0  0  0  0
   48.4869   13.7208   14.8189 H   0  0  0  0  0  0  0  0  0  0  0  0
   47.3577   12.3478   16.5042 H   0  0  0  0  0  0  0  0  0  0  0  0
   49.2829   13.1681   18.1649 H   0  0  0  0  0  0  0  0  0  0  0  0
   50.0547   11.1195   17.3521 H   0  0  0  0  0  0  0  0  0  0  0  0
   47.2179    9.9927   16.9587 H   0  0  0  0  0  0  0  0  0  0  0  0
   49.5778    4.7544   20.2451 H   0  0  0  0  0  0  0  0  0  0  0  0
   51.3222    3.3442   19.1999 H   0  0  0  0  0  0  0  0  0  0  0  0
   52.4125    4.1030   17.0944 H   0  0  0  0  0  0  0  0  0  0  0  0
   51.7469    6.2273   16.0779 H   0  0  0  0  0  0  0  0  0  0  0  0
   48.7381    7.7709   14.5877 H   0  0  0  0  0  0  0  0  0  0  0  0
   49.6958    8.5654   12.4403 H   0  0  0  0  0  0  0  0  0  0  0  0
   53.1609   10.0484   14.4806 H   0  0  0  0  0  0  0  0  0  0  0  0
   52.2221    9.2913   16.6548 H   0  0  0  0  0  0  0  0  0  0  0  0
   46.2124    8.8412   19.2413 H   0  0  0  0  0  0  0  0  0  0  0  0
   46.2199    8.6970   21.7112 H   0  0  0  0  0  0  0  0  0  0  0  0
   47.9857    8.2739   21.7150 H   0  0  0  0  0  0  0  0  0  0  0  0
   46.7560   10.8948   20.5871 H   0  0  0  0  0  0  0  0  0  0  0  0
   48.5277   10.4637   20.5672 H   0  0  0  0  0  0  0  0  0  0  0  0
   50.9137   14.9028   14.6603 H   0  0  0  0  0  0  0  0  0  0  0  0
   50.7529   14.4027   16.3519 H   0  0  0  0  0  0  0  0  0  0  0  0
   52.5418   14.9074   14.7861 H   0  0  0  0  0  0  0  0  0  0  0  0
   50.3329   14.7781   15.3796 H   0  0  0  0  0  0  0  0  0  0  0  0
   50.8805   11.8737   14.5944 H   0  0  0  0  0  0  0  0  0  0  0  0
   49.2423   12.5231   14.7207 H   0  0  0  0  0  0  0  0  0  0  0  0
   49.7976   13.2025   17.1361 H   0  0  0  0  0  0  0  0  0  0  0  0
   52.1377   12.9556   16.5290 H   0  0  0  0  0  0  0  0  0  0  0  0
   48.5564   11.0360   16.5505 H   0  0  0  0  0  0  0  0  0  0  0  0
   51.0604   10.1468   18.1050 H   0  0  0  0  0  0  0  0  0  0  0  0
   46.0584    5.5577   19.1342 H   0  0  0  0  0  0  0  0  0  0  0  0
   46.7100    3.3165   18.3170 H   0  0  0  0  0  0  0  0  0  0  0  0
   48.8744    3.0274   17.1187 H   0  0  0  0  0  0  0  0  0  0  0  0
   50.3066    4.9791   16.7074 H   0  0  0  0  0  0  0  0  0  0  0  0
   52.1892    6.9185   18.5537 H   0  0  0  0  0  0  0  0  0  0  0  0
   54.3788    6.7613   17.3797 H   0  0  0  0  0  0  0  0  0  0  0  0
   52.5331    8.0565   13.7263 H   0  0  0  0  0  0  0  0  0  0  0  0
   50.3340    8.1889   14.8732 H   0  0  0  0  0  0  0  0  0  0  0  0
   47.0156   10.7917   18.5405 H   0  0  0  0  0  0  0  0  0  0  0  0
   49.0697   10.3742   20.8531 H   0  0  0  0  0  0  0  0  0  0  0  0
   48.1933   11.9104   20.4263 H   0  0  0  0  0  0  0  0  0  0  0  0
   45.9814   10.7369   20.7879 H   0  0  0  0  0  0  0  0  0  0  0  0
   46.8677    9.2030   21.2139 H   0  0  0  0  0  0  0  0  0  0  0  0
   51.4172   15.1024   12.9730 H   0  0  0  0  0  0  0  0  0  0  0  0
   50.7836   13.4978   12.6421 H   0  0  0  0  0  0  0  0  0  0  0  0
  2  1  1  0
  2  3  1  0
  3  4  1  0
  4  5  1  0
  4  6  1  0
  6  7  2  0
  7  8  1  0
  8  9  2  0
  9 10  1  0
 10 11  2  0
 11 12  1  0
 12 13  2  0
 13 14  1  0
 14 15  2  0
 15 16  1  0
 11 16  1  0
 16 17  2  0
  8 17  1  0
 17 18  1  0
 18 19  2  0
 19 20  1  0
 20 21  2  0
 21 22  1  0
 21 23  1  0
 23 24  2  0
 18 24  1  0
  9 25  1  0
 25 26  1  0
 26 27  1  0
 25 27  1  0
  2 28  1  0
 28 29  1  0
 29 30  2  0
 29 31  1  0
 34 33  1  0
 34 35  1  0
 35 36  1  0
 36 37  1  0
 36 38  1  0
 38 39  2  0
 39 40  1  0
 40 41  2  0
 41 42  1  0
 42 43  2  0
 43 44  1  0
 44 45  2  0
 45 46  1  0
 46 47  2  0
 47 48  1  0
 43 48  1  0
 48 49  2  0
 40 49  1  0
 49 50  1  0
 50 51  2  0
 51 52  1  0
 52 53  2  0
 53 54  1  0
 53 55  1  0
 55 56  2  0
 50 56  1  0
 41 57  1  0
 57 58  1  0
 58 59  1  0
 57 59  1  0
 34 60  1  0
 60 61  1  0
 61 62  2  0
 61 63  1  0
  1 64  1  0
  2 65  1  6
  3 66  1  0
  3 67  1  0
  4 68  1  1
  5 69  1  0
  6 70  1  0
  7 71  1  0
 12 72  1  0
 13 73  1  0
 14 74  1  0
 15 75  1  0
 19 76  1  0
 20 77  1  0
 23 78  1  0
 24 79  1  0
 25 80  1  0
 26 81  1  0
 26 82  1  0
 27 83  1  0
 27 84  1  0
 28 85  1  0
 28 86  1  0
 33 87  1  0
 34 88  1  6
 35 89  1  0
 35 90  1  0
 36 91  1  6
 37 92  1  0
 38 93  1  0
 39 94  1  0
 44 95  1  0
 45 96  1  0
 46 97  1  0
 47 98  1  0
 51 99  1  0
 52100  1  0
 55101  1  0
 56102  1  0
 57103  1  0
 58104  1  0
 58105  1  0
 59106  1  0
 59107  1  0
 60108  1  0
 60109  1  0
M  CHG  3  31  -1  32   2  63  -1
M  END
> <Uni-Dock RESULT> 
ENERGY=   -5.562  LOWER_BOUND=    2.576  UPPER_BOUND=    5.262
INTER + INTRA:          -5.562
INTER:                  -5.562
INTRA:                   0.000
UNBOUND:                 0.000

$$$$

     RDKit          3D

109114  0  0  0  0  0  0  0  0999 V2000
   49.0976    9.5637   19.7662 O   0  0  0  0  0  0  0  0  0  0  0  0
   48.7424    8.9741   18.4987 C   0  0  2  0  0  0  0  0  0  0  0  0
   48.7336   10.1093   17.4708 C   0  0  0  0  0  0  0  0  0  0  0  0
   48.8535    9.6973   15.9988 C   0  0  2  0  0  0  0  0  0  0  0  0
   47.6637    9.0634   15.5534 O   0  0  0  0  0  0  0  0  0  0  0  0
   50.0570    8.8453   15.6885 C   0  0  0  0  0  0  0  0  0  0  0  0
   51.1410    9.2937   15.0297 C   0  0  0  0  0  0  0  0  0  0  0  0
   52.3247    8.4532   14.7487 C   0  0  0  0  0  0  0  0  0  0  0  0
   52.6690    8.2027   13.4072 C   0  0  0  0  0  0  0  0  0  0  0  0
   53.7811    7.4946   13.0738 N   0  0  0  0  0  0  0  0  0  0  0  0
   54.5734    7.0031   14.0306 C   0  0  0  0  0  0  0  0  0  0  0  0
   55.6995    6.2871   13.6407 C   0  0  0  0  0  0  0  0  0  0  0  0
   56.5949    5.7424   14.5647 C   0  0  0  0  0  0  0  0  0  0  0  0
   56.3651    5.9185   15.9187 C   0  0  0  0  0  0  0  0  0  0  0  0
   55.2397    6.6303   16.3278 C   0  0  0  0  0  0  0  0  0  0  0  0
   54.3205    7.1847   15.3984 C   0  0  0  0  0  0  0  0  0  0  0  0
   53.1637    7.9325   15.7632 C   0  0  0  0  0  0  0  0  0  0  0  0
   52.8881    8.1986   17.1878 C   0  0  0  0  0  0  0  0  0  0  0  0
   53.2677    9.4251   17.7641 C   0  0  0  0  0  0  0  0  0  0  0  0
   53.0411    9.6767   19.1180 C   0  0  0  0  0  0  0  0  0  0  0  0
   52.4393    8.6996   19.9079 C   0  0  0  0  0  0  0  0  0  0  0  0
   52.2400    8.9434   21.2149 F   0  0  0  0  0  0  0  0  0  0  0  0
   52.0638    7.4759   19.3673 C   0  0  0  0  0  0  0  0  0  0  0  0
   52.2892    7.2274   18.0079 C   0  0  0  0  0  0  0  0  0  0  0  0
   51.8561    8.7395   12.2363 C   0  0  0  0  0  0  0  0  0  0  0  0
   51.7048    7.9119   10.9774 C   0  0  0  0  0  0  0  0  0  0  0  0
   50.5247    8.1143   11.8835 C   0  0  0  0  0  0  0  0  0  0  0  0
   47.4083    8.2611   18.6603 C   0  0  0  0  0  0  0  0  0  0  0  0
   47.6185    6.9511   19.4312 C   0  0  0  0  0  0  0  0  0  0  0  0
   48.5321    6.9748   20.3072 O   0  0  0  0  0  0  0  0  0  0  0  0
   46.8357    6.0088   19.1174 O   0  0  0  0  0  0  0  0  0  0  0  0
   51.5078    8.1646   16.1917 Ca  0  0  0  0  0 15  0  0  0  0  0  0
   47.5132    7.4894   19.4959 O   0  0  0  0  0  0  0  0  0  0  0  0
   47.5659    8.8416   18.9968 C   0  0  2  0  0  0  0  0  0  0  0  0
   48.8839    9.0012   18.2274 C   0  0  0  0  0  0  0  0  0  0  0  0
   48.9048    8.1226   16.9642 C   0  0  2  0  0  0  0  0  0  0  0  0
   48.9131    6.7390   17.3140 O   0  0  0  0  0  0  0  0  0  0  0  0
   50.1103    8.4450   16.1105 C   0  0  0  0  0  0  0  0  0  0  0  0
   50.9930    7.5579   15.6280 C   0  0  0  0  0  0  0  0  0  0  0  0
   52.1792    7.9476   14.8296 C   0  0  0  0  0  0  0  0  0  0  0  0
   52.0456    8.5672   13.5729 C   0  0  0  0  0  0  0  0  0  0  0  0
   53.1295    8.9793   12.8560 N   0  0  0  0  0  0  0  0  0  0  0  0
   54.3591    8.7846   13.3410 C   0  0  0  0  0  0  0  0  0  0  0  0
   55.4267    9.2509   12.5825 C   0  0  0  0  0  0  0  0  0  0  0  0
   56.7549    9.1097   12.9947 C   0  0  0  0  0  0  0  0  0  0  0  0
   57.0289    8.4689   14.1925 C   0  0  0  0  0  0  0  0  0  0  0  0
   55.9677    8.0014   14.9721 C   0  0  0  0  0  0  0  0  0  0  0  0
   54.6088    8.1505   14.5718 C   0  0  0  0  0  0  0  0  0  0  0  0
   53.4828    7.7094   15.3300 C   0  0  0  0  0  0  0  0  0  0  0  0
   53.6742    7.0078   16.6170 C   0  0  0  0  0  0  0  0  0  0  0  0
   53.9624    5.6327   16.6355 C   0  0  0  0  0  0  0  0  0  0  0  0
   54.1552    4.9557   17.8468 C   0  0  0  0  0  0  0  0  0  0  0  0
   54.0474    5.6504   19.0482 C   0  0  0  0  0  0  0  0  0  0  0  0
   54.2459    5.0056   20.2085 F   0  0  0  0  0  0  0  0  0  0  0  0
   53.7425    7.0086   19.0596 C   0  0  0  0  0  0  0  0  0  0  0  0
   53.5569    7.6823   17.8457 C   0  0  0  0  0  0  0  0  0  0  0  0
   50.6827    8.8187   12.9395 C   0  0  0  0  0  0  0  0  0  0  0  0
   49.8395    7.6638   12.4453 C   0  0  0  0  0  0  0  0  0  0  0  0
   50.4833    8.5874   11.4542 C   0  0  0  0  0  0  0  0  0  0  0  0
   47.4300    9.8105   20.1603 C   0  0  0  0  0  0  0  0  0  0  0  0
   46.8554   11.1672   19.7388 C   0  0  0  0  0  0  0  0  0  0  0  0
   46.9520   11.4643   18.5159 O   0  0  0  0  0  0  0  0  0  0  0  0
   46.3371   11.8249   20.6859 O   0  0  0  0  0  0  0  0  0  0  0  0
   49.0775    8.7853   20.3856 H   0  0  0  0  0  0  0  0  0  0  0  0
   49.5319    8.2590   18.2631 H   0  0  0  0  0  0  0  0  0  0  0  0
   49.5704   10.7802   17.7024 H   0  0  0  0  0  0  0  0  0  0  0  0
   47.8257   10.7109   17.6086 H   0  0  0  0  0  0  0  0  0  0  0  0
   48.9160   10.6218   15.4170 H   0  0  0  0  0  0  0  0  0  0  0  0
   47.8800    8.1663   15.2301 H   0  0  0  0  0  0  0  0  0  0  0  0
   50.0368    7.8224   16.0566 H   0  0  0  0  0  0  0  0  0  0  0  0
   51.1744   10.3157   14.6561 H   0  0  0  0  0  0  0  0  0  0  0  0
   55.8895    6.1611   12.5783 H   0  0  0  0  0  0  0  0  0  0  0  0
   57.4622    5.1829   14.2196 H   0  0  0  0  0  0  0  0  0  0  0  0
   57.0414    5.4910   16.6539 H   0  0  0  0  0  0  0  0  0  0  0  0
   55.0856    6.7593   17.3987 H   0  0  0  0  0  0  0  0  0  0  0  0
   53.7455   10.1946   17.1549 H   0  0  0  0  0  0  0  0  0  0  0  0
   53.2941   10.6386   19.5546 H   0  0  0  0  0  0  0  0  0  0  0  0
   51.5652    6.7421   19.9984 H   0  0  0  0  0  0  0  0  0  0  0  0
   51.9758    6.2703   17.5921 H   0  0  0  0  0  0  0  0  0  0  0  0
   51.9578    9.8109   12.0717 H   0  0  0  0  0  0  0  0  0  0  0  0
   51.7300    8.4343   10.0287 H   0  0  0  0  0  0  0  0  0  0  0  0
   52.1697    6.9329   10.9504 H   0  0  0  0  0  0  0  0  0  0  0  0
   49.7325    8.7680   11.5387 H   0  0  0  0  0  0  0  0  0  0  0  0
   50.1838    7.2741   12.4821 H   0  0  0  0  0  0  0  0  0  0  0  0
   46.7112    8.8665   19.2419 H   0  0  0  0  0  0  0  0  0  0  0  0
   46.9498    8.0323   17.6977 H   0  0  0  0  0  0  0  0  0  0  0  0
   46.7080    7.4436   20.0433 H   0  0  0  0  0  0  0  0  0  0  0  0
   46.7192    8.9444   18.3123 H   0  0  0  0  0  0  0  0  0  0  0  0
   49.7152    8.7090   18.8789 H   0  0  0  0  0  0  0  0  0  0  0  0
   49.0338   10.0493   17.9511 H   0  0  0  0  0  0  0  0  0  0  0  0
   48.0067    8.3073   16.3653 H   0  0  0  0  0  0  0  0  0  0  0  0
   48.3711    6.6775   18.1307 H   0  0  0  0  0  0  0  0  0  0  0  0
   50.2209    9.5036   15.8719 H   0  0  0  0  0  0  0  0  0  0  0  0
   50.8980    6.5005   15.8687 H   0  0  0  0  0  0  0  0  0  0  0  0
   55.2180    9.7581   11.6421 H   0  0  0  0  0  0  0  0  0  0  0  0
   57.5644    9.5024   12.3800 H   0  0  0  0  0  0  0  0  0  0  0  0
   58.0570    8.3412   14.5278 H   0  0  0  0  0  0  0  0  0  0  0  0
   56.2071    7.5192   15.9177 H   0  0  0  0  0  0  0  0  0  0  0  0
   54.0363    5.0789   15.7021 H   0  0  0  0  0  0  0  0  0  0  0  0
   54.3951    3.8929   17.8613 H   0  0  0  0  0  0  0  0  0  0  0  0
   53.6398    7.5339   20.0071 H   0  0  0  0  0  0  0  0  0  0  0  0
   53.3093    8.7409   17.8616 H   0  0  0  0  0  0  0  0  0  0  0  0
   50.1448    9.6713   13.3500 H   0  0  0  0  0  0  0  0  0  0  0  0
   50.2361    6.6594   12.5365 H   0  0  0  0  0  0  0  0  0  0  0  0
   48.7705    7.7354   12.6026 H   0  0  0  0  0  0  0  0  0  0  0  0
   49.8488    9.2900   10.9230 H   0  0  0  0  0  0  0  0  0  0  0  0
   51.3124    8.2064   10.8634 H   0  0  0  0  0  0  0  0  0  0  0  0
   46.7733    9.3914   20.9334 H   0  0  0  0  0  0  0  0  0  0  0  0
   48.4013    9.9832   20.6422 H   0  0  0  0  0  0  0  0  0  0  0  0
  2  1  1  0
  2  3  1  0
  3  4  1  0
  4  5  1  0
  4  6  1  0
  6  7  2  0
  7  8  1  0
  8  9  2  0
  9 10  1  0
 10 11  2  0
 11 12  1  0
 12 13  2  0
 13 14  1  0
 14 15  2  0
 15 16  1  0
 11 16  1  0
 16 17  2  0
  8 17  1  0
 17 18  1  0
 18 19  2  0
 19 20  1  0
 20 21  2  0
 21 22  1  0
 21 23  1  0
 23 24  2  0
 18 24  1  0
  9 25  1  0
 25 26  1  0
 26 27  1  0
 25 27  1  0
  2 28  1  0
 28 29  1  0
 29 30  2  0
 29 31  1  0
 34 33  1  0
 34 35  1  0
 35 36  1  0
 36 37  1  0
 36 38  1  0
 38 39  2  0
 39 40  1  0
 40 41  2  0
 41 42  1  0
 42 43  2  0
 43 44  1  0
 44 45  2  0
 45 46  1  0
 46 47  2  0
 47 48  1  0
 43 48  1  0
 48 49  2  0
 40 49  1  0
 49 50  1  0
 50 51  2  0
 51 52  1  0
 52 53  2  0
 53 54  1  0
 53 55  1  0
 55 56  2  0
 50 56  1  0
 41 57  1  0
 57 58  1  0
 58 59  1  0
 57 59  1  0
 34 60  1  0
 60 61  1  0
 61 62  2  0
 61 63  1  0
  1 64  1  0
  2 65  1  6
  3 66  1  0
  3 67  1  0
  4 68  1  1
  5 69  1  0
  6 70  1  0
  7 71  1  0
 12 72  1  0
 13 73  1  0
 14 74  1  0
 15 75  1  0
 19 76  1  0
 20 77  1  0
 23 78  1  0
 24 79  1  0
 25 80  1  0
 26 81  1  0
 26 82  1  0
 27 83  1  0
 27 84  1  0
 28 85  1  0
 28 86  1  0
 33 87  1  0
 34 88  1  6
 35 89  1  0
 35 90  1  0
 36 91  1  6
 37 92  1  0
 38 93  1  0
 39 94  1  0
 44 95  1  0
 45 96  1  0
 46 97  1  0
 47 98  1  0
 51 99  1  0
 52100  1  0
 55101  1  0
 56102  1  0
 57103  1  0
 58104  1  0
 58105  1  0
 59106  1  0
 59107  1  0
 60108  1  0
 60109  1  0
M  CHG  3  31  -1  32   2  63  -1
M  END
> <Uni-Dock RESULT> 
ENERGY=   -5.555  LOWER_BOUND=    4.222  UPPER_BOUND=    7.398
INTER + INTRA:          -5.555
INTER:                  -5.555
INTRA:                   0.000
UNBOUND:                 0.000

$$$$

     RDKit          3D

109114  0  0  0  0  0  0  0  0999 V2000
   49.3029   13.8319   14.2509 O   0  0  0  0  0  0  0  0  0  0  0  0
   49.2926   13.7721   15.6920 C   0  0  2  0  0  0  0  0  0  0  0  0
   47.8359   13.5602   16.1146 C   0  0  0  0  0  0  0  0  0  0  0  0
   47.6095   12.9991   17.5234 C   0  0  2  0  0  0  0  0  0  0  0  0
   47.9271   13.9692   18.5103 O   0  0  0  0  0  0  0  0  0  0  0  0
   48.3303   11.7050   17.7999 C   0  0  0  0  0  0  0  0  0  0  0  0
   47.7182   10.5093   17.8747 C   0  0  0  0  0  0  0  0  0  0  0  0
   48.4394    9.2432   18.1265 C   0  0  0  0  0  0  0  0  0  0  0  0
   48.1341    8.5151   19.2918 C   0  0  0  0  0  0  0  0  0  0  0  0
   48.7089    7.3111   19.5548 N   0  0  0  0  0  0  0  0  0  0  0  0
   49.6002    6.7948   18.7039 C   0  0  0  0  0  0  0  0  0  0  0  0
   50.1597    5.5608   19.0151 C   0  0  0  0  0  0  0  0  0  0  0  0
   51.0922    4.9332   18.1852 C   0  0  0  0  0  0  0  0  0  0  0  0
   51.4774    5.5505   17.0072 C   0  0  0  0  0  0  0  0  0  0  0  0
   50.9296    6.7891   16.6809 C   0  0  0  0  0  0  0  0  0  0  0  0
   49.9846    7.4386   17.5184 C   0  0  0  0  0  0  0  0  0  0  0  0
   49.3840    8.6968   17.2246 C   0  0  0  0  0  0  0  0  0  0  0  0
   49.7137    9.3839   15.9614 C   0  0  0  0  0  0  0  0  0  0  0  0
   48.8613    9.2640   14.8482 C   0  0  0  0  0  0  0  0  0  0  0  0
   49.1780    9.8831   13.6381 C   0  0  0  0  0  0  0  0  0  0  0  0
   50.3547   10.6212   13.5305 C   0  0  0  0  0  0  0  0  0  0  0  0
   50.6609   11.2003   12.3565 F   0  0  0  0  0  0  0  0  0  0  0  0
   51.2196   10.7475   14.6106 C   0  0  0  0  0  0  0  0  0  0  0  0
   50.8976   10.1282   15.8244 C   0  0  0  0  0  0  0  0  0  0  0  0
   47.1119    8.9930   20.3149 C   0  0  0  0  0  0  0  0  0  0  0  0
   47.3341    8.7254   21.7885 C   0  0  0  0  0  0  0  0  0  0  0  0
   47.4512   10.1254   21.2585 C   0  0  0  0  0  0  0  0  0  0  0  0
   49.9240   15.0483   16.2279 C   0  0  0  0  0  0  0  0  0  0  0  0
   51.4458   14.9831   16.0420 C   0  0  0  0  0  0  0  0  0  0  0  0
   51.8432   14.3609   15.0137 O   0  0  0  0  0  0  0  0  0  0  0  0
   52.1235   15.5817   16.9262 O   0  0  0  0  0  0  0  0  0  0  0  0
   49.2470   10.4175   17.2313 Ca  0  0  0  0  0 15  0  0  0  0  0  0
   50.9770   15.1368   15.7939 O   0  0  0  0  0  0  0  0  0  0  0  0
   49.5455   15.0308   15.6520 C   0  0  2  0  0  0  0  0  0  0  0  0
   49.1647   13.5611   15.8750 C   0  0  0  0  0  0  0  0  0  0  0  0
   49.4422   13.1244   17.3242 C   0  0  2  0  0  0  0  0  0  0  0  0
   50.8442   13.1274   17.5907 O   0  0  0  0  0  0  0  0  0  0  0  0
   48.8716   11.7488   17.5849 C   0  0  0  0  0  0  0  0  0  0  0  0
   49.5332   10.7100   18.1163 C   0  0  0  0  0  0  0  0  0  0  0  0
   48.9231    9.3729   18.3069 C   0  0  0  0  0  0  0  0  0  0  0  0
   47.8325    9.1820   19.1760 C   0  0  0  0  0  0  0  0  0  0  0  0
   47.2295    7.9673   19.3162 N   0  0  0  0  0  0  0  0  0  0  0  0
   47.6833    6.9174   18.6258 C   0  0  0  0  0  0  0  0  0  0  0  0
   47.0128    5.7100   18.7842 C   0  0  0  0  0  0  0  0  0  0  0  0
   47.3942    4.5483   18.1066 C   0  0  0  0  0  0  0  0  0  0  0  0
   48.4884    4.5869   17.2571 C   0  0  0  0  0  0  0  0  0  0  0  0
   49.1691    5.7942   17.0792 C   0  0  0  0  0  0  0  0  0  0  0  0
   48.7836    6.9890   17.7520 C   0  0  0  0  0  0  0  0  0  0  0  0
   49.4275    8.2537   17.6002 C   0  0  0  0  0  0  0  0  0  0  0  0
   50.6087    8.3929   16.7223 C   0  0  0  0  0  0  0  0  0  0  0  0
   51.8835    8.0343   17.1917 C   0  0  0  0  0  0  0  0  0  0  0  0
   53.0111    8.1520   16.3687 C   0  0  0  0  0  0  0  0  0  0  0  0
   52.8698    8.6424   15.0737 C   0  0  0  0  0  0  0  0  0  0  0  0
   53.9474    8.7422   14.2798 F   0  0  0  0  0  0  0  0  0  0  0  0
   51.6216    9.0245   14.5901 C   0  0  0  0  0  0  0  0  0  0  0  0
   50.4964    8.8988   15.4146 C   0  0  0  0  0  0  0  0  0  0  0  0
   47.2574   10.3207   20.0094 C   0  0  0  0  0  0  0  0  0  0  0  0
   48.0498   10.9120   21.1545 C   0  0  0  0  0  0  0  0  0  0  0  0
   46.8414   10.0729   21.4463 C   0  0  0  0  0  0  0  0  0  0  0  0
   49.1376   15.5548   14.2846 C   0  0  0  0  0  0  0  0  0  0  0  0
   47.6951   16.0712   14.2531 C   0  0  0  0  0  0  0  0  0  0  0  0
   46.9258   15.6490   15.1603 O   0  0  0  0  0  0  0  0  0  0  0  0
   47.4567   16.8793   13.3104 O   0  0  0  0  0  0  0  0  0  0  0  0
   50.2648   13.9779   14.0425 H   0  0  0  0  0  0  0  0  0  0  0  0
   49.8942   12.9040   15.9654 H   0  0  0  0  0  0  0  0  0  0  0  0
   47.3743   12.8691   15.3982 H   0  0  0  0  0  0  0  0  0  0  0  0
   47.2898   14.5063   16.0064 H   0  0  0  0  0  0  0  0  0  0  0  0
   46.5331   12.8327   17.6270 H   0  0  0  0  0  0  0  0  0  0  0  0
   48.6220   13.6126   19.0986 H   0  0  0  0  0  0  0  0  0  0  0  0
   49.4104   11.7637   17.9097 H   0  0  0  0  0  0  0  0  0  0  0  0
   46.6374   10.4363   17.7662 H   0  0  0  0  0  0  0  0  0  0  0  0
   49.8469    5.0679   19.9316 H   0  0  0  0  0  0  0  0  0  0  0  0
   51.5119    3.9694   18.4668 H   0  0  0  0  0  0  0  0  0  0  0  0
   52.2117    5.0860   16.3547 H   0  0  0  0  0  0  0  0  0  0  0  0
   51.2454    7.2503   15.7457 H   0  0  0  0  0  0  0  0  0  0  0  0
   47.9402    8.6827   14.9207 H   0  0  0  0  0  0  0  0  0  0  0  0
   48.5004    9.8274   12.7911 H   0  0  0  0  0  0  0  0  0  0  0  0
   52.1160   11.3573   14.5103 H   0  0  0  0  0  0  0  0  0  0  0  0
   51.5758   10.2479   16.6688 H   0  0  0  0  0  0  0  0  0  0  0  0
   46.0768    8.9175   19.9857 H   0  0  0  0  0  0  0  0  0  0  0  0
   46.4690    8.4642   22.3860 H   0  0  0  0  0  0  0  0  0  0  0  0
   48.2414    8.2103   22.0834 H   0  0  0  0  0  0  0  0  0  0  0  0
   46.6655   10.8266   21.5131 H   0  0  0  0  0  0  0  0  0  0  0  0
   48.4406   10.5682   21.1852 H   0  0  0  0  0  0  0  0  0  0  0  0
   49.5709   15.9197   15.6740 H   0  0  0  0  0  0  0  0  0  0  0  0
   49.7055   15.1975   17.2857 H   0  0  0  0  0  0  0  0  0  0  0  0
   51.1946   16.0600   15.5695 H   0  0  0  0  0  0  0  0  0  0  0  0
   49.1166   15.6518   16.4434 H   0  0  0  0  0  0  0  0  0  0  0  0
   49.7512   12.9333   15.1947 H   0  0  0  0  0  0  0  0  0  0  0  0
   48.1077   13.4062   15.6383 H   0  0  0  0  0  0  0  0  0  0  0  0
   48.9710   13.8242   18.0224 H   0  0  0  0  0  0  0  0  0  0  0  0
   51.2038   13.8748   17.0647 H   0  0  0  0  0  0  0  0  0  0  0  0
   47.8182   11.6429   17.3225 H   0  0  0  0  0  0  0  0  0  0  0  0
   50.5874   10.8017   18.3720 H   0  0  0  0  0  0  0  0  0  0  0  0
   46.1504    5.6738   19.4476 H   0  0  0  0  0  0  0  0  0  0  0  0
   46.8338    3.6241   18.2447 H   0  0  0  0  0  0  0  0  0  0  0  0
   48.8070    3.6912   16.7262 H   0  0  0  0  0  0  0  0  0  0  0  0
   50.0129    5.8040   16.3922 H   0  0  0  0  0  0  0  0  0  0  0  0
   52.0056    7.6618   18.2065 H   0  0  0  0  0  0  0  0  0  0  0  0
   53.9976    7.8585   16.7265 H   0  0  0  0  0  0  0  0  0  0  0  0
   51.5295    9.4267   13.5831 H   0  0  0  0  0  0  0  0  0  0  0  0
   49.5258    9.2081   15.0345 H   0  0  0  0  0  0  0  0  0  0  0  0
   46.6189   11.0070   19.4559 H   0  0  0  0  0  0  0  0  0  0  0  0
   49.0247   10.4943   21.3771 H   0  0  0  0  0  0  0  0  0  0  0  0
   47.9832   11.9837   21.2943 H   0  0  0  0  0  0  0  0  0  0  0  0
   45.9440   10.5731   21.7968 H   0  0  0  0  0  0  0  0  0  0  0  0
   46.9950    9.0870   21.8776 H   0  0  0  0  0  0  0  0  0  0  0  0
   49.7970   16.3766   13.9767 H   0  0  0  0  0  0  0  0  0  0  0  0
   49.2404   14.7746   13.5191 H   0  0  0  0  0  0  0  0  0  0  0  0
  2  1  1  0
  2  3  1  0
  3  4  1  0
  4  5  1  0
  4  6  1  0
  6  7  2  0
  7  8  1  0
  8  9  2  0
  9 10  1  0
 10 11  2  0
 11 12  1  0
 12 13  2  0
 13 14  1  0
 14 15  2  0
 15 16  1  0
 11 16  1  0
 16 17  2  0
  8 17  1  0
 17 18  1  0
 18 19  2  0
 19 20  1  0
 20 21  2  0
 21 22  1  0
 21 23  1  0
 23 24  2  0
 18 24  1  0
  9 25  1  0
 25 26  1  0
 26 27  1  0
 25 27  1  0
  2 28  1  0
 28 29  1  0
 29 30  2  0
 29 31  1  0
 34 33  1  0
 34 35  1  0
 35 36  1  0
 36 37  1  0
 36 38  1  0
 38 39  2  0
 39 40  1  0
 40 41  2  0
 41 42  1  0
 42 43  2  0
 43 44  1  0
 44 45  2  0
 45 46  1  0
 46 47  2  0
 47 48  1  0
 43 48  1  0
 48 49  2  0
 40 49  1  0
 49 50  1  0
 50 51  2  0
 51 52  1  0
 52 53  2  0
 53 54  1  0
 53 55  1  0
 55 56  2  0
 50 56  1  0
 41 57  1  0
 57 58  1  0
 58 59  1  0
 57 59  1  0
 34 60  1  0
 60 61  1  0
 61 62  2  0
 61 63  1  0
  1 64  1  0
  2 65  1  6
  3 66  1  0
  3 67  1  0
  4 68  1  1
  5 69  1  0
  6 70  1  0
  7 71  1  0
 12 72  1  0
 13 73  1  0
 14 74  1  0
 15 75  1  0
 19 76  1  0
 20 77  1  0
 23 78  1  0
 24 79  1  0
 25 80  1  0
 26 81  1  0
 26 82  1  0
 27 83  1  0
 27 84  1  0
 28 85  1  0
 28 86  1  0
 33 87  1  0
 34 88  1  6
 35 89  1  0
 35 90  1  0
 36 91  1  6
 37 92  1  0
 38 93  1  0
 39 94  1  0
 44 95  1  0
 45 96  1  0
 46 97  1  0
 47 98  1  0
 51 99  1  0
 52100  1  0
 55101  1  0
 56102  1  0
 57103  1  0
 58104  1  0
 58105  1  0
 59106  1  0
 59107  1  0
 60108  1  0
 60109  1  0
M  CHG  3  31  -1  32   2  63  -1
M  END
> <Uni-Dock RESULT> 
ENERGY=   -5.541  LOWER_BOUND=    2.702  UPPER_BOUND=    5.519
INTER + INTRA:          -5.541
INTER:                  -5.541
INTRA:                   0.000
UNBOUND:                 0.000

$$$$

     RDKit          3D

109114  0  0  0  0  0  0  0  0999 V2000
   53.3741   10.3220   14.3972 O   0  0  0  0  0  0  0  0  0  0  0  0
   52.4360    9.3369   13.9177 C   0  0  2  0  0  0  0  0  0  0  0  0
   51.3064    9.2643   14.9492 C   0  0  0  0  0  0  0  0  0  0  0  0
   49.9803    8.6645   14.4670 C   0  0  2  0  0  0  0  0  0  0  0  0
   50.1043    7.2653   14.2607 O   0  0  0  0  0  0  0  0  0  0  0  0
   49.4047    9.3322   13.2448 C   0  0  0  0  0  0  0  0  0  0  0  0
   48.3356   10.1485   13.2722 C   0  0  0  0  0  0  0  0  0  0  0  0
   47.7921   10.8141   12.0688 C   0  0  0  0  0  0  0  0  0  0  0  0
   46.4783   10.5091   11.6666 C   0  0  0  0  0  0  0  0  0  0  0  0
   45.8904   11.1314   10.6099 N   0  0  0  0  0  0  0  0  0  0  0  0
   46.5662   12.0496    9.9134 C   0  0  0  0  0  0  0  0  0  0  0  0
   45.9227   12.6594    8.8425 C   0  0  0  0  0  0  0  0  0  0  0  0
   46.5400   13.6383    8.0597 C   0  0  0  0  0  0  0  0  0  0  0  0
   47.8366   14.0254    8.3535 C   0  0  0  0  0  0  0  0  0  0  0  0
   48.4981   13.4225    9.4209 C   0  0  0  0  0  0  0  0  0  0  0  0
   47.8828   12.4237   10.2207 C   0  0  0  0  0  0  0  0  0  0  0  0
   48.5089   11.7868   11.3310 C   0  0  0  0  0  0  0  0  0  0  0  0
   49.8718   12.1889   11.7276 C   0  0  0  0  0  0  0  0  0  0  0  0
   50.0603   13.1136   12.7715 C   0  0  0  0  0  0  0  0  0  0  0  0
   51.3430   13.5261   13.1351 C   0  0  0  0  0  0  0  0  0  0  0  0
   52.4473   13.0218   12.4515 C   0  0  0  0  0  0  0  0  0  0  0  0
   53.6785   13.4371   12.7967 F   0  0  0  0  0  0  0  0  0  0  0  0
   52.2895   12.1156   11.4101 C   0  0  0  0  0  0  0  0  0  0  0  0
   51.0016   11.7008   11.0497 C   0  0  0  0  0  0  0  0  0  0  0  0
   45.6059    9.5021   12.4047 C   0  0  0  0  0  0  0  0  0  0  0  0
   44.6421    8.6262   11.6325 C   0  0  0  0  0  0  0  0  0  0  0  0
   45.8645    8.0190   12.2583 C   0  0  0  0  0  0  0  0  0  0  0  0
   53.1825    8.0279   13.7088 C   0  0  0  0  0  0  0  0  0  0  0  0
   54.0330    8.1218   12.4350 C   0  0  0  0  0  0  0  0  0  0  0  0
   54.5051    9.2679   12.1781 O   0  0  0  0  0  0  0  0  0  0  0  0
   54.1830    7.0355   11.8051 O   0  0  0  0  0  0  0  0  0  0  0  0
   49.4588   10.5868   12.1294 Ca  0  0  0  0  0 15  0  0  0  0  0  0
   54.0406    8.2172   12.9789 O   0  0  0  0  0  0  0  0  0  0  0  0
   53.3383    8.4716   14.2128 C   0  0  2  0  0  0  0  0  0  0  0  0
   52.1315    9.3610   13.8850 C   0  0  0  0  0  0  0  0  0  0  0  0
   51.1104    8.6176   13.0059 C   0  0  2  0  0  0  0  0  0  0  0  0
   51.6590    8.3480   11.7163 O   0  0  0  0  0  0  0  0  0  0  0  0
   49.8397    9.4249   12.8662 C   0  0  0  0  0  0  0  0  0  0  0  0
   49.2272    9.7355   11.7142 C   0  0  0  0  0  0  0  0  0  0  0  0
   48.0029   10.5680   11.6464 C   0  0  0  0  0  0  0  0  0  0  0  0
   46.7938   10.1421   12.2276 C   0  0  0  0  0  0  0  0  0  0  0  0
   45.6774   10.9246   12.2187 N   0  0  0  0  0  0  0  0  0  0  0  0
   45.7134   12.1256   11.6346 C   0  0  0  0  0  0  0  0  0  0  0  0
   44.5556   12.8938   11.6806 C   0  0  0  0  0  0  0  0  0  0  0  0
   44.4803   14.1678   11.1104 C   0  0  0  0  0  0  0  0  0  0  0  0
   45.5884   14.6860   10.4592 C   0  0  0  0  0  0  0  0  0  0  0  0
   46.7634   13.9313   10.4106 C   0  0  0  0  0  0  0  0  0  0  0  0
   46.8593   12.6378   10.9991 C   0  0  0  0  0  0  0  0  0  0  0  0
   48.0335   11.8263   10.9967 C   0  0  0  0  0  0  0  0  0  0  0  0
   49.2634   12.2897   10.3198 C   0  0  0  0  0  0  0  0  0  0  0  0
   49.4057   12.1352    8.9306 C   0  0  0  0  0  0  0  0  0  0  0  0
   50.5614   12.5773    8.2736 C   0  0  0  0  0  0  0  0  0  0  0  0
   51.5877   13.1656    9.0072 C   0  0  0  0  0  0  0  0  0  0  0  0
   52.6891   13.6023    8.3767 F   0  0  0  0  0  0  0  0  0  0  0  0
   51.4816   13.3124   10.3874 C   0  0  0  0  0  0  0  0  0  0  0  0
   50.3215   12.8746   11.0388 C   0  0  0  0  0  0  0  0  0  0  0  0
   46.6600    8.7838   12.9051 C   0  0  0  0  0  0  0  0  0  0  0  0
   46.7015    7.5102   12.0895 C   0  0  0  0  0  0  0  0  0  0  0  0
   45.4064    7.9555   12.7010 C   0  0  0  0  0  0  0  0  0  0  0  0
   54.2941    9.1028   15.2122 C   0  0  0  0  0  0  0  0  0  0  0  0
   53.8877    8.8441   16.6669 C   0  0  0  0  0  0  0  0  0  0  0  0
   52.6806    8.5349   16.8680 O   0  0  0  0  0  0  0  0  0  0  0  0
   54.8342    8.9645   17.4964 O   0  0  0  0  0  0  0  0  0  0  0  0
   54.0797   10.3154   13.6958 H   0  0  0  0  0  0  0  0  0  0  0  0
   52.0551    9.7155   12.9681 H   0  0  0  0  0  0  0  0  0  0  0  0
   51.1066   10.2836   15.3027 H   0  0  0  0  0  0  0  0  0  0  0  0
   51.6590    8.7102   15.8289 H   0  0  0  0  0  0  0  0  0  0  0  0
   49.2696    8.7665   15.2926 H   0  0  0  0  0  0  0  0  0  0  0  0
   49.8791    7.0567   13.3324 H   0  0  0  0  0  0  0  0  0  0  0  0
   49.9202    9.1532   12.3044 H   0  0  0  0  0  0  0  0  0  0  0  0
   47.8103   10.3366   14.2070 H   0  0  0  0  0  0  0  0  0  0  0  0
   44.8998   12.3678    8.6202 H   0  0  0  0  0  0  0  0  0  0  0  0
   46.0047   14.0879    7.2257 H   0  0  0  0  0  0  0  0  0  0  0  0
   48.3399   14.7747    7.7484 H   0  0  0  0  0  0  0  0  0  0  0  0
   49.5153   13.7495    9.6341 H   0  0  0  0  0  0  0  0  0  0  0  0
   49.2011   13.5192   13.3090 H   0  0  0  0  0  0  0  0  0  0  0  0
   51.4929   14.2064   13.9685 H   0  0  0  0  0  0  0  0  0  0  0  0
   53.1704   11.7113   10.9141 H   0  0  0  0  0  0  0  0  0  0  0  0
   50.8918   10.9777   10.2421 H   0  0  0  0  0  0  0  0  0  0  0  0
   45.2398    9.8468   13.3705 H   0  0  0  0  0  0  0  0  0  0  0  0
   43.6749    8.4306   12.0796 H   0  0  0  0  0  0  0  0  0  0  0  0
   44.6132    8.7259   10.5533 H   0  0  0  0  0  0  0  0  0  0  0  0
   45.7237    7.3908   13.1297 H   0  0  0  0  0  0  0  0  0  0  0  0
   46.6765    7.7070   11.6074 H   0  0  0  0  0  0  0  0  0  0  0  0
   53.8663    7.8332   14.5366 H   0  0  0  0  0  0  0  0  0  0  0  0
   52.5015    7.1815   13.6146 H   0  0  0  0  0  0  0  0  0  0  0  0
   54.8402    7.7199   13.2307 H   0  0  0  0  0  0  0  0  0  0  0  0
   52.9969    7.4970   14.5727 H   0  0  0  0  0  0  0  0  0  0  0  0
   52.4798   10.2525   13.3511 H   0  0  0  0  0  0  0  0  0  0  0  0
   51.6495    9.6964   14.8081 H   0  0  0  0  0  0  0  0  0  0  0  0
   50.8525    7.6567   13.4634 H   0  0  0  0  0  0  0  0  0  0  0  0
   52.6139    8.1808   11.8734 H   0  0  0  0  0  0  0  0  0  0  0  0
   49.4046    9.7442   13.8141 H   0  0  0  0  0  0  0  0  0  0  0  0
   49.6583    9.4309   10.7622 H   0  0  0  0  0  0  0  0  0  0  0  0
   43.6826   12.4937   12.1935 H   0  0  0  0  0  0  0  0  0  0  0  0
   43.5596   14.7463   11.1806 H   0  0  0  0  0  0  0  0  0  0  0  0
   45.5481   15.6730   10.0011 H   0  0  0  0  0  0  0  0  0  0  0  0
   47.6259   14.3677    9.9109 H   0  0  0  0  0  0  0  0  0  0  0  0
   48.6143   11.6653    8.3507 H   0  0  0  0  0  0  0  0  0  0  0  0
   50.6655   12.4728    7.1940 H   0  0  0  0  0  0  0  0  0  0  0  0
   52.3011   13.7543   10.9509 H   0  0  0  0  0  0  0  0  0  0  0  0
   50.2488   12.9831   12.1182 H   0  0  0  0  0  0  0  0  0  0  0  0
   47.0884    8.7340   13.9046 H   0  0  0  0  0  0  0  0  0  0  0  0
   46.8100    7.5896   11.0141 H   0  0  0  0  0  0  0  0  0  0  0  0
   47.2182    6.6651   12.5270 H   0  0  0  0  0  0  0  0  0  0  0  0
   45.0296    7.4056   13.5577 H   0  0  0  0  0  0  0  0  0  0  0  0
   44.6294    8.3286   12.0387 H   0  0  0  0  0  0  0  0  0  0  0  0
   55.3098    8.7114   15.0709 H   0  0  0  0  0  0  0  0  0  0  0  0
   54.3588   10.1883   15.0611 H   0  0  0  0  0  0  0  0  0  0  0  0
  2  1  1  0
  2  3  1  0
  3  4  1  0
  4  5  1  0
  4  6  1  0
  6  7  2  0
  7  8  1  0
  8  9  2  0
  9 10  1  0
 10 11  2  0
 11 12  1  0
 12 13  2  0
 13 14  1  0
 14 15  2  0
 15 16  1  0
 11 16  1  0
 16 17  2  0
  8 17  1  0
 17 18  1  0
 18 19  2  0
 19 20  1  0
 20 21  2  0
 21 22  1  0
 21 23  1  0
 23 24  2  0
 18 24  1  0
  9 25  1  0
 25 26  1  0
 26 27  1  0
 25 27  1  0
  2 28  1  0
 28 29  1  0
 29 30  2  0
 29 31  1  0
 34 33  1  0
 34 35  1  0
 35 36  1  0
 36 37  1  0
 36 38  1  0
 38 39  2  0
 39 40  1  0
 40 41  2  0
 41 42  1  0
 42 43  2  0
 43 44  1  0
 44 45  2  0
 45 46  1  0
 46 47  2  0
 47 48  1  0
 43 48  1  0
 48 49  2  0
 40 49  1  0
 49 50  1  0
 50 51  2  0
 51 52  1  0
 52 53  2  0
 53 54  1  0
 53 55  1  0
 55 56  2  0
 50 56  1  0
 41 57  1  0
 57 58  1  0
 58 59  1  0
 57 59  1  0
 34 60  1  0
 60 61  1  0
 61 62  2  0
 61 63  1  0
  1 64  1  0
  2 65  1  6
  3 66  1  0
  3 67  1  0
  4 68  1  1
  5 69  1  0
  6 70  1  0
  7 71  1  0
 12 72  1  0
 13 73  1  0
 14 74  1  0
 15 75  1  0
 19 76  1  0
 20 77  1  0
 23 78  1  0
 24 79  1  0
 25 80  1  0
 26 81  1  0
 26 82  1  0
 27 83  1  0
 27 84  1  0
 28 85  1  0
 28 86  1  0
 33 87  1  0
 34 88  1  6
 35 89  1  0
 35 90  1  0
 36 91  1  6
 37 92  1  0
 38 93  1  0
 39 94  1  0
 44 95  1  0
 45 96  1  0
 46 97  1  0
 47 98  1  0
 51 99  1  0
 52100  1  0
 55101  1  0
 56102  1  0
 57103  1  0
 58104  1  0
 58105  1  0
 59106  1  0
 59107  1  0
 60108  1  0
 60109  1  0
M  CHG  3  31  -1  32   2  63  -1
M  END
> <Uni-Dock RESULT> 
ENERGY=   -5.266  LOWER_BOUND=    4.975  UPPER_BOUND=    8.465
INTER + INTRA:          -5.266
INTER:                  -5.266
INTRA:                   0.000
UNBOUND:                 0.000

$$$$

     RDKit          3D

109114  0  0  0  0  0  0  0  0999 V2000
   48.0541    8.6515   21.1479 O   0  0  0  0  0  0  0  0  0  0  0  0
   48.9769    8.4105   20.0658 C   0  0  2  0  0  0  0  0  0  0  0  0
   48.1590    7.8267   18.9101 C   0  0  0  0  0  0  0  0  0  0  0  0
   48.7864    7.9224   17.5143 C   0  0  2  0  0  0  0  0  0  0  0  0
   49.8916    7.0390   17.3959 O   0  0  0  0  0  0  0  0  0  0  0  0
   49.1764    9.3186   17.1032 C   0  0  0  0  0  0  0  0  0  0  0  0
   48.5022   10.0465   16.1945 C   0  0  0  0  0  0  0  0  0  0  0  0
   48.8831   11.4238   15.8140 C   0  0  0  0  0  0  0  0  0  0  0  0
   49.2546   11.6749   14.4799 C   0  0  0  0  0  0  0  0  0  0  0  0
   49.5526   12.9280   14.0436 N   0  0  0  0  0  0  0  0  0  0  0  0
   49.5112   13.9595   14.8917 C   0  0  0  0  0  0  0  0  0  0  0  0
   49.8227   15.2216   14.3989 C   0  0  0  0  0  0  0  0  0  0  0  0
   49.7981   16.3640   15.2029 C   0  0  0  0  0  0  0  0  0  0  0  0
   49.4491   16.2480   16.5378 C   0  0  0  0  0  0  0  0  0  0  0  0
   49.1373   14.9906   17.0497 C   0  0  0  0  0  0  0  0  0  0  0  0
   49.1631   13.8219   16.2436 C   0  0  0  0  0  0  0  0  0  0  0  0
   48.8393   12.5163   16.7134 C   0  0  0  0  0  0  0  0  0  0  0  0
   48.4114   12.3313   18.1130 C   0  0  0  0  0  0  0  0  0  0  0  0
   47.0422   12.2577   18.4297 C   0  0  0  0  0  0  0  0  0  0  0  0
   46.6236   12.1147   19.7534 C   0  0  0  0  0  0  0  0  0  0  0  0
   47.5723   12.0515   20.7718 C   0  0  0  0  0  0  0  0  0  0  0  0
   47.1603   11.9307   22.0457 F   0  0  0  0  0  0  0  0  0  0  0  0
   48.9302   12.1320   20.4885 C   0  0  0  0  0  0  0  0  0  0  0  0
   49.3474   12.2721   19.1593 C   0  0  0  0  0  0  0  0  0  0  0  0
   49.3058   10.5809   13.4214 C   0  0  0  0  0  0  0  0  0  0  0  0
   50.3672   10.6211   12.3423 C   0  0  0  0  0  0  0  0  0  0  0  0
   50.4369    9.5765   13.4187 C   0  0  0  0  0  0  0  0  0  0  0  0
   50.0843    7.5005   20.5757 C   0  0  0  0  0  0  0  0  0  0  0  0
   51.0380    8.3060   21.4680 C   0  0  0  0  0  0  0  0  0  0  0  0
   50.5010    9.2329   22.1425 O   0  0  0  0  0  0  0  0  0  0  0  0
   52.2456    7.9314   21.4432 O   0  0  0  0  0  0  0  0  0  0  0  0
   49.1548   10.9696   17.4118 Ca  0  0  0  0  0 15  0  0  0  0  0  0
   50.5759    8.0038   21.4756 O   0  0  0  0  0  0  0  0  0  0  0  0
   49.4314    7.4533   20.7918 C   0  0  2  0  0  0  0  0  0  0  0  0
   48.9548    8.4957   19.7715 C   0  0  0  0  0  0  0  0  0  0  0  0
   49.9996    8.7122   18.6626 C   0  0  2  0  0  0  0  0  0  0  0  0
   51.1801    9.3127   19.1941 O   0  0  0  0  0  0  0  0  0  0  0  0
   49.4341    9.5773   17.5591 C   0  0  0  0  0  0  0  0  0  0  0  0
   50.0095   10.6751   17.0465 C   0  0  0  0  0  0  0  0  0  0  0  0
   49.3789   11.5025   15.9909 C   0  0  0  0  0  0  0  0  0  0  0  0
   49.1212   10.9828   14.7085 C   0  0  0  0  0  0  0  0  0  0  0  0
   48.4917   11.7182   13.7484 N   0  0  0  0  0  0  0  0  0  0  0  0
   48.1149   12.9723   14.0135 C   0  0  0  0  0  0  0  0  0  0  0  0
   47.4507   13.6662   13.0085 C   0  0  0  0  0  0  0  0  0  0  0  0
   47.0038   14.9799   13.1766 C   0  0  0  0  0  0  0  0  0  0  0  0
   47.2408   15.6285   14.3781 C   0  0  0  0  0  0  0  0  0  0  0  0
   47.8995   14.9434   15.4025 C   0  0  0  0  0  0  0  0  0  0  0  0
   48.3482   13.6001   15.2507 C   0  0  0  0  0  0  0  0  0  0  0  0
   49.0112   12.8431   16.2629 C   0  0  0  0  0  0  0  0  0  0  0  0
   49.3159   13.4515   17.5752 C   0  0  0  0  0  0  0  0  0  0  0  0
   50.4521   14.2632   17.7305 C   0  0  0  0  0  0  0  0  0  0  0  0
   50.7492   14.8540   18.9656 C   0  0  0  0  0  0  0  0  0  0  0  0
   49.9160   14.6241   20.0566 C   0  0  0  0  0  0  0  0  0  0  0  0
   50.1921   15.2011   21.2366 F   0  0  0  0  0  0  0  0  0  0  0  0
   48.7951   13.8076   19.9360 C   0  0  0  0  0  0  0  0  0  0  0  0
   48.4988   13.2244   18.6975 C   0  0  0  0  0  0  0  0  0  0  0  0
   49.5258    9.5670   14.3165 C   0  0  0  0  0  0  0  0  0  0  0  0
   50.9850    9.2004   14.1576 C   0  0  0  0  0  0  0  0  0  0  0  0
   50.1102    9.2988   12.9432 C   0  0  0  0  0  0  0  0  0  0  0  0
   48.3675    7.0842   21.8130 C   0  0  0  0  0  0  0  0  0  0  0  0
   47.4356    5.9708   21.3231 C   0  0  0  0  0  0  0  0  0  0  0  0
   47.3781    5.7930   20.0748 O   0  0  0  0  0  0  0  0  0  0  0  0
   46.8392    5.3518   22.2502 O   0  0  0  0  0  0  0  0  0  0  0  0
   48.6419    9.0177   21.8623 H   0  0  0  0  0  0  0  0  0  0  0  0
   49.3808    9.3848   19.7869 H   0  0  0  0  0  0  0  0  0  0  0  0
   47.1942    8.3485   18.8826 H   0  0  0  0  0  0  0  0  0  0  0  0
   47.9217    6.7781   19.1324 H   0  0  0  0  0  0  0  0  0  0  0  0
   48.0429    7.5412   16.8079 H   0  0  0  0  0  0  0  0  0  0  0  0
   50.6904    7.5539   17.1659 H   0  0  0  0  0  0  0  0  0  0  0  0
   50.0368    9.7518   17.6076 H   0  0  0  0  0  0  0  0  0  0  0  0
   47.6389    9.6251   15.6824 H   0  0  0  0  0  0  0  0  0  0  0  0
   50.0818   15.3165   13.3479 H   0  0  0  0  0  0  0  0  0  0  0  0
   50.0543   17.3339   14.7810 H   0  0  0  0  0  0  0  0  0  0  0  0
   49.4376   17.1219   17.1836 H   0  0  0  0  0  0  0  0  0  0  0  0
   48.8605   14.9281   18.1016 H   0  0  0  0  0  0  0  0  0  0  0  0
   46.2911   12.3126   17.6396 H   0  0  0  0  0  0  0  0  0  0  0  0
   45.5695   12.0145   19.9954 H   0  0  0  0  0  0  0  0  0  0  0  0
   49.6522   12.0467   21.2990 H   0  0  0  0  0  0  0  0  0  0  0  0
   50.4154   12.3180   18.9483 H   0  0  0  0  0  0  0  0  0  0  0  0
   48.3301   10.2271   13.0926 H   0  0  0  0  0  0  0  0  0  0  0  0
   50.0764   10.3217   11.3426 H   0  0  0  0  0  0  0  0  0  0  0  0
   51.0883   11.4303   12.3644 H   0  0  0  0  0  0  0  0  0  0  0  0
   50.2072    8.5543   13.1427 H   0  0  0  0  0  0  0  0  0  0  0  0
   51.2035    9.6731   14.1824 H   0  0  0  0  0  0  0  0  0  0  0  0
   49.6755    6.6956   21.1888 H   0  0  0  0  0  0  0  0  0  0  0  0
   50.6563    7.0586   19.7593 H   0  0  0  0  0  0  0  0  0  0  0  0
   50.8044    7.3557   22.1669 H   0  0  0  0  0  0  0  0  0  0  0  0
   49.7902    6.5600   20.2730 H   0  0  0  0  0  0  0  0  0  0  0  0
   48.7802    9.4465   20.2877 H   0  0  0  0  0  0  0  0  0  0  0  0
   48.0051    8.1815   19.3282 H   0  0  0  0  0  0  0  0  0  0  0  0
   50.2858    7.7498   18.2253 H   0  0  0  0  0  0  0  0  0  0  0  0
   51.2710    8.9427   20.0994 H   0  0  0  0  0  0  0  0  0  0  0  0
   48.4817    9.2277   17.1584 H   0  0  0  0  0  0  0  0  0  0  0  0
   50.9547   11.0386   17.4460 H   0  0  0  0  0  0  0  0  0  0  0  0
   47.2586   13.1612   12.0634 H   0  0  0  0  0  0  0  0  0  0  0  0
   46.4727   15.4857   12.3707 H   0  0  0  0  0  0  0  0  0  0  0  0
   46.9083   16.6547   14.5266 H   0  0  0  0  0  0  0  0  0  0  0  0
   48.0565   15.4671   16.3433 H   0  0  0  0  0  0  0  0  0  0  0  0
   51.1160   14.4384   16.8867 H   0  0  0  0  0  0  0  0  0  0  0  0
   51.6212   15.4970   19.0826 H   0  0  0  0  0  0  0  0  0  0  0  0
   48.1649   13.6192   20.8030 H   0  0  0  0  0  0  0  0  0  0  0  0
   47.6274   12.5797   18.6121 H   0  0  0  0  0  0  0  0  0  0  0  0
   48.8686    8.7879   14.6986 H   0  0  0  0  0  0  0  0  0  0  0  0
   51.7304    9.9719   14.3112 H   0  0  0  0  0  0  0  0  0  0  0  0
   51.2838    8.2187   14.5034 H   0  0  0  0  0  0  0  0  0  0  0  0
   49.8155    8.3781   12.4494 H   0  0  0  0  0  0  0  0  0  0  0  0
   50.2685   10.1332   12.2648 H   0  0  0  0  0  0  0  0  0  0  0  0
   48.8340    6.7469   22.7476 H   0  0  0  0  0  0  0  0  0  0  0  0
   47.7540    7.9568   22.0728 H   0  0  0  0  0  0  0  0  0  0  0  0
  2  1  1  0
  2  3  1  0
  3  4  1  0
  4  5  1  0
  4  6  1  0
  6  7  2  0
  7  8  1  0
  8  9  2  0
  9 10  1  0
 10 11  2  0
 11 12  1  0
 12 13  2  0
 13 14  1  0
 14 15  2  0
 15 16  1  0
 11 16  1  0
 16 17  2  0
  8 17  1  0
 17 18  1  0
 18 19  2  0
 19 20  1  0
 20 21  2  0
 21 22  1  0
 21 23  1  0
 23 24  2  0
 18 24  1  0
  9 25  1  0
 25 26  1  0
 26 27  1  0
 25 27  1  0
  2 28  1  0
 28 29  1  0
 29 30  2  0
 29 31  1  0
 34 33  1  0
 34 35  1  0
 35 36  1  0
 36 37  1  0
 36 38  1  0
 38 39  2  0
 39 40  1  0
 40 41  2  0
 41 42  1  0
 42 43  2  0
 43 44  1  0
 44 45  2  0
 45 46  1  0
 46 47  2  0
 47 48  1  0
 43 48  1  0
 48 49  2  0
 40 49  1  0
 49 50  1  0
 50 51  2  0
 51 52  1  0
 52 53  2  0
 53 54  1  0
 53 55  1  0
 55 56  2  0
 50 56  1  0
 41 57  1  0
 57 58  1  0
 58 59  1  0
 57 59  1  0
 34 60  1  0
 60 61  1  0
 61 62  2  0
 61 63  1  0
  1 64  1  0
  2 65  1  6
  3 66  1  0
  3 67  1  0
  4 68  1  1
  5 69  1  0
  6 70  1  0
  7 71  1  0
 12 72  1  0
 13 73  1  0
 14 74  1  0
 15 75  1  0
 19 76  1  0
 20 77  1  0
 23 78  1  0
 24 79  1  0
 25 80  1  0
 26 81  1  0
 26 82  1  0
 27 83  1  0
 27 84  1  0
 28 85  1  0
 28 86  1  0
 33 87  1  0
 34 88  1  6
 35 89  1  0
 35 90  1  0
 36 91  1  6
 37 92  1  0
 38 93  1  0
 39 94  1  0
 44 95  1  0
 45 96  1  0
 46 97  1  0
 47 98  1  0
 51 99  1  0
 52100  1  0
 55101  1  0
 56102  1  0
 57103  1  0
 58104  1  0
 58105  1  0
 59106  1  0
 59107  1  0
 60108  1  0
 60109  1  0
M  CHG  3  31  -1  32   2  63  -1
M  END
> <Uni-Dock RESULT> 
ENERGY=   -4.916  LOWER_BOUND=    3.822  UPPER_BOUND=    7.692
INTER + INTRA:          -4.916
INTER:                  -4.916
INTRA:                   0.000
UNBOUND:                 0.000

$$$$

     RDKit          3D

109114  0  0  0  0  0  0  0  0999 V2000
   50.6937   14.2797   12.5821 O   0  0  0  0  0  0  0  0  0  0  0  0
   49.6789   13.3122   12.2438 C   0  0  2  0  0  0  0  0  0  0  0  0
   50.4032   12.1059   11.6389 C   0  0  0  0  0  0  0  0  0  0  0  0
   49.6329   10.7803   11.6339 C   0  0  2  0  0  0  0  0  0  0  0  0
   48.5675   10.8190   10.6962 O   0  0  0  0  0  0  0  0  0  0  0  0
   49.1329   10.3473   12.9879 C   0  0  0  0  0  0  0  0  0  0  0  0
   49.6734    9.3404   13.6978 C   0  0  0  0  0  0  0  0  0  0  0  0
   49.1865    8.9379   15.0348 C   0  0  0  0  0  0  0  0  0  0  0  0
   48.6688    7.6395   15.1997 C   0  0  0  0  0  0  0  0  0  0  0  0
   48.2649    7.1787   16.4137 N   0  0  0  0  0  0  0  0  0  0  0  0
   48.3403    7.9689   17.4884 C   0  0  0  0  0  0  0  0  0  0  0  0
   47.9168    7.4529   18.7079 C   0  0  0  0  0  0  0  0  0  0  0  0
   47.9654    8.1958   19.8902 C   0  0  0  0  0  0  0  0  0  0  0  0
   48.4539    9.4910   19.8593 C   0  0  0  0  0  0  0  0  0  0  0  0
   48.8794   10.0257   18.6454 C   0  0  0  0  0  0  0  0  0  0  0  0
   48.8308    9.2821   17.4368 C   0  0  0  0  0  0  0  0  0  0  0  0
   49.2664    9.7759   16.1731 C   0  0  0  0  0  0  0  0  0  0  0  0
   49.8435   11.1304   16.0803 C   0  0  0  0  0  0  0  0  0  0  0  0
   51.2397   11.3057   16.0855 C   0  0  0  0  0  0  0  0  0  0  0  0
   51.7977   12.5837   16.0301 C   0  0  0  0  0  0  0  0  0  0  0  0
   50.9621   13.6973   15.9765 C   0  0  0  0  0  0  0  0  0  0  0  0
   51.5074   14.9256   15.9405 F   0  0  0  0  0  0  0  0  0  0  0  0
   49.5801   13.5537   15.9804 C   0  0  0  0  0  0  0  0  0  0  0  0
   49.0231   12.2701   16.0326 C   0  0  0  0  0  0  0  0  0  0  0  0
   48.5654    6.6443   14.0513 C   0  0  0  0  0  0  0  0  0  0  0  0
   47.3990    5.6810   13.9874 C   0  0  0  0  0  0  0  0  0  0  0  0
   47.4922    6.8063   12.9977 C   0  0  0  0  0  0  0  0  0  0  0  0
   48.6766   13.9766   11.3119 C   0  0  0  0  0  0  0  0  0  0  0  0
   47.7793   14.9249   12.1182 C   0  0  0  0  0  0  0  0  0  0  0  0
   48.3346   15.4958   13.1021 O   0  0  0  0  0  0  0  0  0  0  0  0
   46.5959   15.0436   11.6883 O   0  0  0  0  0  0  0  0  0  0  0  0
   49.1023   10.5748   14.6518 Ca  0  0  0  0  0 15  0  0  0  0  0  0
   48.2544   14.8984   11.8381 O   0  0  0  0  0  0  0  0  0  0  0  0
   49.3497   14.1254   11.3057 C   0  0  2  0  0  0  0  0  0  0  0  0
   49.6665   13.0135   12.3146 C   0  0  0  0  0  0  0  0  0  0  0  0
   48.5046   12.0107   12.4259 C   0  0  2  0  0  0  0  0  0  0  0  0
   47.3555   12.6338   12.9987 O   0  0  0  0  0  0  0  0  0  0  0  0
   48.9102   10.8151   13.2577 C   0  0  0  0  0  0  0  0  0  0  0  0
   48.2308   10.3146   14.3003 C   0  0  0  0  0  0  0  0  0  0  0  0
   48.7079    9.1616   15.0999 C   0  0  0  0  0  0  0  0  0  0  0  0
   48.8596    7.8849   14.5271 C   0  0  0  0  0  0  0  0  0  0  0  0
   49.3500    6.8313   15.2398 N   0  0  0  0  0  0  0  0  0  0  0  0
   49.6879    6.9969   16.5217 C   0  0  0  0  0  0  0  0  0  0  0  0
   50.2103    5.8969   17.1924 C   0  0  0  0  0  0  0  0  0  0  0  0
   50.6051    5.9560   18.5320 C   0  0  0  0  0  0  0  0  0  0  0  0
   50.4593    7.1441   19.2302 C   0  0  0  0  0  0  0  0  0  0  0  0
   49.9438    8.2624   18.5697 C   0  0  0  0  0  0  0  0  0  0  0  0
   49.5505    8.2210   17.2013 C   0  0  0  0  0  0  0  0  0  0  0  0
   49.0332    9.3310   16.4681 C   0  0  0  0  0  0  0  0  0  0  0  0
   48.8334   10.6382   17.1289 C   0  0  0  0  0  0  0  0  0  0  0  0
   47.6793   10.8730   17.8951 C   0  0  0  0  0  0  0  0  0  0  0  0
   47.4801   12.1034   18.5346 C   0  0  0  0  0  0  0  0  0  0  0  0
   48.4307   13.1112   18.3995 C   0  0  0  0  0  0  0  0  0  0  0  0
   48.2474   14.2853   19.0235 F   0  0  0  0  0  0  0  0  0  0  0  0
   49.5733   12.9126   17.6297 C   0  0  0  0  0  0  0  0  0  0  0  0
   49.7710   11.6785   16.9975 C   0  0  0  0  0  0  0  0  0  0  0  0
   48.4893    7.6038   13.0760 C   0  0  0  0  0  0  0  0  0  0  0  0
   47.0419    7.6151   12.6356 C   0  0  0  0  0  0  0  0  0  0  0  0
   47.7824    6.3129   12.7110 C   0  0  0  0  0  0  0  0  0  0  0  0
   50.5293   15.0463   11.0385 C   0  0  0  0  0  0  0  0  0  0  0  0
   51.4616   14.5143    9.9448 C   0  0  0  0  0  0  0  0  0  0  0  0
   51.4006   13.2765    9.7057 O   0  0  0  0  0  0  0  0  0  0  0  0
   52.1799   15.4020    9.4023 O   0  0  0  0  0  0  0  0  0  0  0  0
   50.1640   15.0337   12.9575 H   0  0  0  0  0  0  0  0  0  0  0  0
   49.1999   13.0317   13.1830 H   0  0  0  0  0  0  0  0  0  0  0  0
   51.3326   11.9537   12.2020 H   0  0  0  0  0  0  0  0  0  0  0  0
   50.7147   12.3509   10.6152 H   0  0  0  0  0  0  0  0  0  0  0  0
   50.3188   10.0188   11.2509 H   0  0  0  0  0  0  0  0  0  0  0  0
   47.7243   10.6497   11.1617 H   0  0  0  0  0  0  0  0  0  0  0  0
   48.3076   10.9179   13.4069 H   0  0  0  0  0  0  0  0  0  0  0  0
   50.5002    8.7613   13.2903 H   0  0  0  0  0  0  0  0  0  0  0  0
   47.5475    6.4314   18.7366 H   0  0  0  0  0  0  0  0  0  0  0  0
   47.6188    7.7581   20.8244 H   0  0  0  0  0  0  0  0  0  0  0  0
   48.4870   10.0906   20.7649 H   0  0  0  0  0  0  0  0  0  0  0  0
   49.2648   11.0448   18.6499 H   0  0  0  0  0  0  0  0  0  0  0  0
   51.9027   10.4399   16.1336 H   0  0  0  0  0  0  0  0  0  0  0  0
   52.8747   12.7190   15.9906 H   0  0  0  0  0  0  0  0  0  0  0  0
   48.9497   14.4381   15.9043 H   0  0  0  0  0  0  0  0  0  0  0  0
   47.9382   12.1697   16.0189 H   0  0  0  0  0  0  0  0  0  0  0  0
   49.5192    6.2324   13.7257 H   0  0  0  0  0  0  0  0  0  0  0  0
   47.6012    4.6715   13.6504 H   0  0  0  0  0  0  0  0  0  0  0  0
   46.6439    5.7405   14.7631 H   0  0  0  0  0  0  0  0  0  0  0  0
   47.7440    6.5559   11.9741 H   0  0  0  0  0  0  0  0  0  0  0  0
   46.8035    7.6405   13.0986 H   0  0  0  0  0  0  0  0  0  0  0  0
   49.1859   14.5806   10.5591 H   0  0  0  0  0  0  0  0  0  0  0  0
   48.0475   13.2457   10.8029 H   0  0  0  0  0  0  0  0  0  0  0  0
   48.1306   15.6392   11.2168 H   0  0  0  0  0  0  0  0  0  0  0  0
   48.9855   13.6891   10.3713 H   0  0  0  0  0  0  0  0  0  0  0  0
   49.8445   13.4637   13.2977 H   0  0  0  0  0  0  0  0  0  0  0  0
   50.5807   12.4887   12.0215 H   0  0  0  0  0  0  0  0  0  0  0  0
   48.2244   11.6510   11.4302 H   0  0  0  0  0  0  0  0  0  0  0  0
   47.3761   13.5598   12.6721 H   0  0  0  0  0  0  0  0  0  0  0  0
   49.8333   10.3340   12.9316 H   0  0  0  0  0  0  0  0  0  0  0  0
   47.3141   10.7931   14.6405 H   0  0  0  0  0  0  0  0  0  0  0  0
   50.3305    4.9615   16.6486 H   0  0  0  0  0  0  0  0  0  0  0  0
   51.0251    5.0764   19.0192 H   0  0  0  0  0  0  0  0  0  0  0  0
   50.7528    7.2091   20.2768 H   0  0  0  0  0  0  0  0  0  0  0  0
   49.8572    9.1890   19.1335 H   0  0  0  0  0  0  0  0  0  0  0  0
   46.9249   10.0958   17.9961 H   0  0  0  0  0  0  0  0  0  0  0  0
   46.5932   12.2806   19.1425 H   0  0  0  0  0  0  0  0  0  0  0  0
   50.2973   13.7170   17.5152 H   0  0  0  0  0  0  0  0  0  0  0  0
   50.6607   11.5329   16.3895 H   0  0  0  0  0  0  0  0  0  0  0  0
   49.2205    7.9512   12.3483 H   0  0  0  0  0  0  0  0  0  0  0  0
   46.2780    7.8094   13.3793 H   0  0  0  0  0  0  0  0  0  0  0  0
   46.8299    8.0356   11.6605 H   0  0  0  0  0  0  0  0  0  0  0  0
   48.0714    5.8344   11.7804 H   0  0  0  0  0  0  0  0  0  0  0  0
   47.5138    5.6165   13.5012 H   0  0  0  0  0  0  0  0  0  0  0  0
   50.1782   16.0391   10.7290 H   0  0  0  0  0  0  0  0  0  0  0  0
   51.1213   15.1997   11.9504 H   0  0  0  0  0  0  0  0  0  0  0  0
  2  1  1  0
  2  3  1  0
  3  4  1  0
  4  5  1  0
  4  6  1  0
  6  7  2  0
  7  8  1  0
  8  9  2  0
  9 10  1  0
 10 11  2  0
 11 12  1  0
 12 13  2  0
 13 14  1  0
 14 15  2  0
 15 16  1  0
 11 16  1  0
 16 17  2  0
  8 17  1  0
 17 18  1  0
 18 19  2  0
 19 20  1  0
 20 21  2  0
 21 22  1  0
 21 23  1  0
 23 24  2  0
 18 24  1  0
  9 25  1  0
 25 26  1  0
 26 27  1  0
 25 27  1  0
  2 28  1  0
 28 29  1  0
 29 30  2  0
 29 31  1  0
 34 33  1  0
 34 35  1  0
 35 36  1  0
 36 37  1  0
 36 38  1  0
 38 39  2  0
 39 40  1  0
 40 41  2  0
 41 42  1  0
 42 43  2  0
 43 44  1  0
 44 45  2  0
 45 46  1  0
 46 47  2  0
 47 48  1  0
 43 48  1  0
 48 49  2  0
 40 49  1  0
 49 50  1  0
 50 51  2  0
 51 52  1  0
 52 53  2  0
 53 54  1  0
 53 55  1  0
 55 56  2  0
 50 56  1  0
 41 57  1  0
 57 58  1  0
 58 59  1  0
 57 59  1  0
 34 60  1  0
 60 61  1  0
 61 62  2  0
 61 63  1  0
  1 64  1  0
  2 65  1  6
  3 66  1  0
  3 67  1  0
  4 68  1  1
  5 69  1  0
  6 70  1  0
  7 71  1  0
 12 72  1  0
 13 73  1  0
 14 74  1  0
 15 75  1  0
 19 76  1  0
 20 77  1  0
 23 78  1  0
 24 79  1  0
 25 80  1  0
 26 81  1  0
 26 82  1  0
 27 83  1  0
 27 84  1  0
 28 85  1  0
 28 86  1  0
 33 87  1  0
 34 88  1  6
 35 89  1  0
 35 90  1  0
 36 91  1  6
 37 92  1  0
 38 93  1  0
 39 94  1  0
 44 95  1  0
 45 96  1  0
 46 97  1  0
 47 98  1  0
 51 99  1  0
 52100  1  0
 55101  1  0
 56102  1  0
 57103  1  0
 58104  1  0
 58105  1  0
 59106  1  0
 59107  1  0
 60108  1  0
 60109  1  0
M  CHG  3  31  -1  32   2  63  -1
M  END
> <Uni-Dock RESULT> 
ENERGY=   -4.677  LOWER_BOUND=    2.168  UPPER_BOUND=    3.507
INTER + INTRA:          -4.677
INTER:                  -4.677
INTRA:                   0.000
UNBOUND:                 0.000

$$$$

     RDKit          3D

109114  0  0  0  0  0  0  0  0999 V2000
   48.3169    9.9591   16.2501 O   0  0  0  0  0  0  0  0  0  0  0  0
   49.7214   10.1591   16.5104 C   0  0  2  0  0  0  0  0  0  0  0  0
   50.2739    8.8190   17.0048 C   0  0  0  0  0  0  0  0  0  0  0  0
   51.7915    8.6271   16.9008 C   0  0  2  0  0  0  0  0  0  0  0  0
   52.4694    9.4425   17.8451 O   0  0  0  0  0  0  0  0  0  0  0  0
   52.3510    8.8393   15.5179 C   0  0  0  0  0  0  0  0  0  0  0  0
   52.7731    7.8411   14.7206 C   0  0  0  0  0  0  0  0  0  0  0  0
   53.3016    8.0602   13.3571 C   0  0  0  0  0  0  0  0  0  0  0  0
   54.6330    7.6941   13.0846 C   0  0  0  0  0  0  0  0  0  0  0  0
   55.1652    7.8051   11.8380 N   0  0  0  0  0  0  0  0  0  0  0  0
   54.4251    8.2854   10.8348 C   0  0  0  0  0  0  0  0  0  0  0  0
   55.0124    8.3788    9.5781 C   0  0  0  0  0  0  0  0  0  0  0  0
   54.3191    8.8579    8.4637 C   0  0  0  0  0  0  0  0  0  0  0  0
   52.9993    9.2530    8.6027 C   0  0  0  0  0  0  0  0  0  0  0  0
   52.3956    9.1696    9.8553 C   0  0  0  0  0  0  0  0  0  0  0  0
   53.0912    8.6885   10.9959 C   0  0  0  0  0  0  0  0  0  0  0  0
   52.5169    8.5696   12.2945 C   0  0  0  0  0  0  0  0  0  0  0  0
   51.1003    8.9267   12.4997 C   0  0  0  0  0  0  0  0  0  0  0  0
   50.1119    7.9250   12.5007 C   0  0  0  0  0  0  0  0  0  0  0  0
   48.7650    8.2531   12.6622 C   0  0  0  0  0  0  0  0  0  0  0  0
   48.3959    9.5877   12.8165 C   0  0  0  0  0  0  0  0  0  0  0  0
   47.0948    9.8968   12.9545 F   0  0  0  0  0  0  0  0  0  0  0  0
   49.3500   10.5978   12.8090 C   0  0  0  0  0  0  0  0  0  0  0  0
   50.7009   10.2654   12.6503 C   0  0  0  0  0  0  0  0  0  0  0  0
   55.5571    7.1077   14.1439 C   0  0  0  0  0  0  0  0  0  0  0  0
   57.0329    7.4462   14.1321 C   0  0  0  0  0  0  0  0  0  0  0  0
   56.1496    7.9972   15.2142 C   0  0  0  0  0  0  0  0  0  0  0  0
   49.8655   11.3036   17.5023 C   0  0  0  0  0  0  0  0  0  0  0  0
   49.6094   12.6363   16.7861 C   0  0  0  0  0  0  0  0  0  0  0  0
   48.7566   12.5977   15.8514 O   0  0  0  0  0  0  0  0  0  0  0  0
   50.2631   13.6228   17.2321 O   0  0  0  0  0  0  0  0  0  0  0  0
   52.0827    9.0966   13.8798 Ca  0  0  0  0  0 15  0  0  0  0  0  0
   49.3593   12.2271   17.0599 O   0  0  0  0  0  0  0  0  0  0  0  0
   49.3387   10.8592   17.5170 C   0  0  2  0  0  0  0  0  0  0  0  0
   49.9607    9.9921   16.4143 C   0  0  0  0  0  0  0  0  0  0  0  0
   51.4536   10.3132   16.2246 C   0  0  2  0  0  0  0  0  0  0  0  0
   51.6229   11.6353   15.7148 O   0  0  0  0  0  0  0  0  0  0  0  0
   52.0991    9.3148   15.2906 C   0  0  0  0  0  0  0  0  0  0  0  0
   52.8413    9.6105   14.2132 C   0  0  0  0  0  0  0  0  0  0  0  0
   53.4116    8.5793   13.3145 C   0  0  0  0  0  0  0  0  0  0  0  0
   54.3661    7.6528   13.7746 C   0  0  0  0  0  0  0  0  0  0  0  0
   54.8554    6.6663   12.9709 N   0  0  0  0  0  0  0  0  0  0  0  0
   54.4364    6.5718   11.7058 C   0  0  0  0  0  0  0  0  0  0  0  0
   54.9456    5.5293   10.9399 C   0  0  0  0  0  0  0  0  0  0  0  0
   54.5724    5.3286    9.6078 C   0  0  0  0  0  0  0  0  0  0  0  0
   53.6763    6.2039    9.0151 C   0  0  0  0  0  0  0  0  0  0  0  0
   53.1478    7.2525    9.7726 C   0  0  0  0  0  0  0  0  0  0  0  0
   53.5079    7.4612   11.1347 C   0  0  0  0  0  0  0  0  0  0  0  0
   52.9917    8.5021   11.9639 C   0  0  0  0  0  0  0  0  0  0  0  0
   52.0367    9.4902   11.4191 C   0  0  0  0  0  0  0  0  0  0  0  0
   52.5037   10.5923   10.6833 C   0  0  0  0  0  0  0  0  0  0  0  0
   51.6105   11.5323   10.1530 C   0  0  0  0  0  0  0  0  0  0  0  0
   50.2436   11.3805   10.3682 C   0  0  0  0  0  0  0  0  0  0  0  0
   49.3862   12.2728    9.8486 F   0  0  0  0  0  0  0  0  0  0  0  0
   49.7552   10.3093   11.1109 C   0  0  0  0  0  0  0  0  0  0  0  0
   50.6518    9.3687   11.6335 C   0  0  0  0  0  0  0  0  0  0  0  0
   54.9072    7.6934   15.1984 C   0  0  0  0  0  0  0  0  0  0  0  0
   55.8071    8.8237   15.6473 C   0  0  0  0  0  0  0  0  0  0  0  0
   56.3819    7.4516   15.4557 C   0  0  0  0  0  0  0  0  0  0  0  0
   47.9098   10.4654   17.8548 C   0  0  0  0  0  0  0  0  0  0  0  0
   47.8338    9.3407   18.8928 C   0  0  0  0  0  0  0  0  0  0  0  0
   48.8656    8.6257   19.0251 O   0  0  0  0  0  0  0  0  0  0  0  0
   46.7296    9.2772   19.5051 O   0  0  0  0  0  0  0  0  0  0  0  0
   48.0185   10.8576   15.9442 H   0  0  0  0  0  0  0  0  0  0  0  0
   50.1742   10.4231   15.5536 H   0  0  0  0  0  0  0  0  0  0  0  0
   49.7927    8.0215   16.4249 H   0  0  0  0  0  0  0  0  0  0  0  0
   49.9564    8.6616   18.0439 H   0  0  0  0  0  0  0  0  0  0  0  0
   52.0013    7.5996   17.2126 H   0  0  0  0  0  0  0  0  0  0  0  0
   53.0862   10.0357   17.3722 H   0  0  0  0  0  0  0  0  0  0  0  0
   52.3748    9.8638   15.1546 H   0  0  0  0  0  0  0  0  0  0  0  0
   52.7544    6.8108   15.0717 H   0  0  0  0  0  0  0  0  0  0  0  0
   56.0433    8.0549    9.4641 H   0  0  0  0  0  0  0  0  0  0  0  0
   54.8161    8.9214    7.4976 H   0  0  0  0  0  0  0  0  0  0  0  0
   52.4466    9.6418    7.7517 H   0  0  0  0  0  0  0  0  0  0  0  0
   51.3547    9.4813    9.9360 H   0  0  0  0  0  0  0  0  0  0  0  0
   50.3904    6.8772   12.3742 H   0  0  0  0  0  0  0  0  0  0  0  0
   48.0054    7.4780   12.7064 H   0  0  0  0  0  0  0  0  0  0  0  0
   49.0388   11.6294   12.9648 H   0  0  0  0  0  0  0  0  0  0  0  0
   51.4412   11.0648   12.6622 H   0  0  0  0  0  0  0  0  0  0  0  0
   55.3237    6.0826   14.4268 H   0  0  0  0  0  0  0  0  0  0  0  0
   57.7301    6.6550   14.3799 H   0  0  0  0  0  0  0  0  0  0  0  0
   57.3953    8.1260   13.3692 H   0  0  0  0  0  0  0  0  0  0  0  0
   56.2604    7.5871   16.2109 H   0  0  0  0  0  0  0  0  0  0  0  0
   55.9023    9.0548   15.1897 H   0  0  0  0  0  0  0  0  0  0  0  0
   49.1263   11.2221   18.3009 H   0  0  0  0  0  0  0  0  0  0  0  0
   50.8592   11.3311   17.9505 H   0  0  0  0  0  0  0  0  0  0  0  0
   48.8886   12.7385   17.7433 H   0  0  0  0  0  0  0  0  0  0  0  0
   49.9656   10.8305   18.4127 H   0  0  0  0  0  0  0  0  0  0  0  0
   49.4329   10.1798   15.4724 H   0  0  0  0  0  0  0  0  0  0  0  0
   49.8384    8.9319   16.6555 H   0  0  0  0  0  0  0  0  0  0  0  0
   51.9727   10.2607   17.1875 H   0  0  0  0  0  0  0  0  0  0  0  0
   50.8988   12.1612   16.1196 H   0  0  0  0  0  0  0  0  0  0  0  0
   51.9391    8.2721   15.5683 H   0  0  0  0  0  0  0  0  0  0  0  0
   52.9985   10.6474   13.9212 H   0  0  0  0  0  0  0  0  0  0  0  0
   55.6474    4.8363   11.4005 H   0  0  0  0  0  0  0  0  0  0  0  0
   54.9814    4.4904    9.0442 H   0  0  0  0  0  0  0  0  0  0  0  0
   53.3790    6.0702    7.9762 H   0  0  0  0  0  0  0  0  0  0  0  0
   52.4312    7.9148    9.2910 H   0  0  0  0  0  0  0  0  0  0  0  0
   53.5710   10.7260   10.5206 H   0  0  0  0  0  0  0  0  0  0  0  0
   51.9707   12.3782    9.5683 H   0  0  0  0  0  0  0  0  0  0  0  0
   48.6858   10.2153   11.2895 H   0  0  0  0  0  0  0  0  0  0  0  0
   50.2649    8.5396   12.2210 H   0  0  0  0  0  0  0  0  0  0  0  0
   54.2344    7.2818   15.9487 H   0  0  0  0  0  0  0  0  0  0  0  0
   56.0703    9.5903   14.9279 H   0  0  0  0  0  0  0  0  0  0  0  0
   55.6662    9.1908   16.6563 H   0  0  0  0  0  0  0  0  0  0  0  0
   56.6444    6.8792   16.3399 H   0  0  0  0  0  0  0  0  0  0  0  0
   57.0453    7.2882   14.6102 H   0  0  0  0  0  0  0  0  0  0  0  0
   47.3580   11.3278   18.2506 H   0  0  0  0  0  0  0  0  0  0  0  0
   47.3697   10.1408   16.9557 H   0  0  0  0  0  0  0  0  0  0  0  0
  2  1  1  0
  2  3  1  0
  3  4  1  0
  4  5  1  0
  4  6  1  0
  6  7  2  0
  7  8  1  0
  8  9  2  0
  9 10  1  0
 10 11  2  0
 11 12  1  0
 12 13  2  0
 13 14  1  0
 14 15  2  0
 15 16  1  0
 11 16  1  0
 16 17  2  0
  8 17  1  0
 17 18  1  0
 18 19  2  0
 19 20  1  0
 20 21  2  0
 21 22  1  0
 21 23  1  0
 23 24  2  0
 18 24  1  0
  9 25  1  0
 25 26  1  0
 26 27  1  0
 25 27  1  0
  2 28  1  0
 28 29  1  0
 29 30  2  0
 29 31  1  0
 34 33  1  0
 34 35  1  0
 35 36  1  0
 36 37  1  0
 36 38  1  0
 38 39  2  0
 39 40  1  0
 40 41  2  0
 41 42  1  0
 42 43  2  0
 43 44  1  0
 44 45  2  0
 45 46  1  0
 46 47  2  0
 47 48  1  0
 43 48  1  0
 48 49  2  0
 40 49  1  0
 49 50  1  0
 50 51  2  0
 51 52  1  0
 52 53  2  0
 53 54  1  0
 53 55  1  0
 55 56  2  0
 50 56  1  0
 41 57  1  0
 57 58  1  0
 58 59  1  0
 57 59  1  0
 34 60  1  0
 60 61  1  0
 61 62  2  0
 61 63  1  0
  1 64  1  0
  2 65  1  6
  3 66  1  0
  3 67  1  0
  4 68  1  1
  5 69  1  0
  6 70  1  0
  7 71  1  0
 12 72  1  0
 13 73  1  0
 14 74  1  0
 15 75  1  0
 19 76  1  0
 20 77  1  0
 23 78  1  0
 24 79  1  0
 25 80  1  0
 26 81  1  0
 26 82  1  0
 27 83  1  0
 27 84  1  0
 28 85  1  0
 28 86  1  0
 33 87  1  0
 34 88  1  6
 35 89  1  0
 35 90  1  0
 36 91  1  6
 37 92  1  0
 38 93  1  0
 39 94  1  0
 44 95  1  0
 45 96  1  0
 46 97  1  0
 47 98  1  0
 51 99  1  0
 52100  1  0
 55101  1  0
 56102  1  0
 57103  1  0
 58104  1  0
 58105  1  0
 59106  1  0
 59107  1  0
 60108  1  0
 60109  1  0
M  CHG  3  31  -1  32   2  63  -1
M  END
> <Uni-Dock RESULT> 
ENERGY=   -4.562  LOWER_BOUND=    3.851  UPPER_BOUND=    8.290
INTER + INTRA:          -4.562
INTER:                  -4.562
INTRA:                   0.000
UNBOUND:                 0.000

$$$$
