
     RDKit          3D

109114  0  0  0  0  0  0  0  0999 V2000
   48.1761   11.8267    9.9466 O   0  0  0  0  0  0  0  0  0  0  0  0
   47.1872   11.8003   10.9824 C   0  0  2  0  0  0  0  0  0  0  0  0
   47.2065   10.4215   11.6625 C   0  0  0  0  0  0  0  0  0  0  0  0
   48.3179   10.2944   12.7166 C   0  0  2  0  0  0  0  0  0  0  0  0
   49.5975   10.1632   12.1122 O   0  0  0  0  0  0  0  0  0  0  0  0
   48.0595    9.1046   13.6102 C   0  0  0  0  0  0  0  0  0  0  0  0
   48.7212    7.9359   13.5707 C   0  0  0  0  0  0  0  0  0  0  0  0
   48.3882    6.8083   14.4590 C   0  0  0  0  0  0  0  0  0  0  0  0
   47.5018    5.8109   14.0119 C   0  0  0  0  0  0  0  0  0  0  0  0
   47.1827    4.7469   14.7969 N   0  0  0  0  0  0  0  0  0  0  0  0
   47.7027    4.6469   16.0257 C   0  0  0  0  0  0  0  0  0  0  0  0
   47.3377    3.5463   16.7875 C   0  0  0  0  0  0  0  0  0  0  0  0
   47.8294    3.3432   18.0781 C   0  0  0  0  0  0  0  0  0  0  0  0
   48.7114    4.2607   18.6274 C   0  0  0  0  0  0  0  0  0  0  0  0
   49.0888    5.3785   17.8830 C   0  0  0  0  0  0  0  0  0  0  0  0
   48.5942    5.5942   16.5693 C   0  0  0  0  0  0  0  0  0  0  0  0
   48.9495    6.7055   15.7551 C   0  0  0  0  0  0  0  0  0  0  0  0
   49.8975    7.7280   16.2486 C   0  0  0  0  0  0  0  0  0  0  0  0
   49.4398    8.8354   16.9838 C   0  0  0  0  0  0  0  0  0  0  0  0
   50.3390    9.7946   17.4579 C   0  0  0  0  0  0  0  0  0  0  0  0
   51.6954    9.6538   17.1936 C   0  0  0  0  0  0  0  0  0  0  0  0
   52.5561   10.5765   17.6429 F   0  0  0  0  0  0  0  0  0  0  0  0
   52.1723    8.5695   16.4665 C   0  0  0  0  0  0  0  0  0  0  0  0
   51.2753    7.6073   15.9947 C   0  0  0  0  0  0  0  0  0  0  0  0
   46.8633    5.8618   12.6301 C   0  0  0  0  0  0  0  0  0  0  0  0
   45.5208    5.2206   12.3643 C   0  0  0  0  0  0  0  0  0  0  0  0
   45.6336    6.7135   12.4104 C   0  0  0  0  0  0  0  0  0  0  0  0
   45.8220   12.0810   10.3595 C   0  0  0  0  0  0  0  0  0  0  0  0
   45.7294   13.5731   10.0498 C   0  0  0  0  0  0  0  0  0  0  0  0
   44.6717   14.1378   10.4455 O   0  0  0  0  0  0  0  0  0  0  0  0
   46.7319   14.0617    9.4453 O   0  0  0  0  0  0  0  0  0  0  0  0
   48.0929    8.2177   14.1183 Ca  0  0  0  0  0 15  0  0  0  0  0  0
   52.1637    5.9706   16.9827 O   0  0  0  0  0  0  0  0  0  0  0  0
   50.7528    5.7088   17.0694 C   0  0  2  0  0  0  0  0  0  0  0  0
   50.0504    6.6828   16.1101 C   0  0  0  0  0  0  0  0  0  0  0  0
   48.5774    6.3444   15.8700 C   0  0  2  0  0  0  0  0  0  0  0  0
   48.4784    5.1019   15.1802 O   0  0  0  0  0  0  0  0  0  0  0  0
   47.8870    7.4180   15.0694 C   0  0  0  0  0  0  0  0  0  0  0  0
   47.5522    7.3362   13.7715 C   0  0  0  0  0  0  0  0  0  0  0  0
   46.8471    8.4096   13.0442 C   0  0  0  0  0  0  0  0  0  0  0  0
   45.5426    8.1611   12.5810 C   0  0  0  0  0  0  0  0  0  0  0  0
   44.8402    9.1101   11.9074 N   0  0  0  0  0  0  0  0  0  0  0  0
   45.4016   10.2944   11.6393 C   0  0  0  0  0  0  0  0  0  0  0  0
   44.6450   11.2148   10.9292 C   0  0  0  0  0  0  0  0  0  0  0  0
   45.1362   12.4756   10.5893 C   0  0  0  0  0  0  0  0  0  0  0  0
   46.4236   12.8282   10.9626 C   0  0  0  0  0  0  0  0  0  0  0  0
   47.2013   11.9190   11.6777 C   0  0  0  0  0  0  0  0  0  0  0  0
   46.7065   10.6391   12.0416 C   0  0  0  0  0  0  0  0  0  0  0  0
   47.4440    9.6694   12.7818 C   0  0  0  0  0  0  0  0  0  0  0  0
   48.8159    9.9738   13.2502 C   0  0  0  0  0  0  0  0  0  0  0  0
   49.0247   10.8365   14.3432 C   0  0  0  0  0  0  0  0  0  0  0  0
   50.3175   11.1318   14.7811 C   0  0  0  0  0  0  0  0  0  0  0  0
   51.4077   10.5653   14.1318 C   0  0  0  0  0  0  0  0  0  0  0  0
   52.6486   10.8572   14.5451 F   0  0  0  0  0  0  0  0  0  0  0  0
   51.2307    9.7063   13.0556 C   0  0  0  0  0  0  0  0  0  0  0  0
   49.9377    9.4105   12.6147 C   0  0  0  0  0  0  0  0  0  0  0  0
   44.8319    6.8406   12.8360 C   0  0  0  0  0  0  0  0  0  0  0  0
   43.8310    6.3027   11.8372 C   0  0  0  0  0  0  0  0  0  0  0  0
   45.1624    5.6352   11.9843 C   0  0  0  0  0  0  0  0  0  0  0  0
   50.3157    5.8943   18.5227 C   0  0  0  0  0  0  0  0  0  0  0  0
   50.8480    4.7535   19.3897 C   0  0  0  0  0  0  0  0  0  0  0  0
   51.9951    4.3238   19.0676 O   0  0  0  0  0  0  0  0  0  0  0  0
   50.0807    4.3938   20.3253 O   0  0  0  0  0  0  0  0  0  0  0  0
   48.0308   12.7058    9.5126 H   0  0  0  0  0  0  0  0  0  0  0  0
   47.4433   12.5812   11.7117 H   0  0  0  0  0  0  0  0  0  0  0  0
   46.2420   10.2557   12.1578 H   0  0  0  0  0  0  0  0  0  0  0  0
   47.3348    9.6446   10.8954 H   0  0  0  0  0  0  0  0  0  0  0  0
   48.3452   11.1897   13.3475 H   0  0  0  0  0  0  0  0  0  0  0  0
   50.2462   10.1073   12.8377 H   0  0  0  0  0  0  0  0  0  0  0  0
   47.2472    9.2285   14.3257 H   0  0  0  0  0  0  0  0  0  0  0  0
   49.5068    7.7537   12.8425 H   0  0  0  0  0  0  0  0  0  0  0  0
   46.6455    2.8220   16.3584 H   0  0  0  0  0  0  0  0  0  0  0  0
   47.5239    2.4674   18.6437 H   0  0  0  0  0  0  0  0  0  0  0  0
   49.1038    4.1173   19.6294 H   0  0  0  0  0  0  0  0  0  0  0  0
   49.7827    6.0868   18.3330 H   0  0  0  0  0  0  0  0  0  0  0  0
   48.3761    8.9544   17.1874 H   0  0  0  0  0  0  0  0  0  0  0  0
   49.9878   10.6570   18.0174 H   0  0  0  0  0  0  0  0  0  0  0  0
   53.2361    8.4774   16.2701 H   0  0  0  0  0  0  0  0  0  0  0  0
   51.6498    6.7634   15.4184 H   0  0  0  0  0  0  0  0  0  0  0  0
   47.5672    5.8236   11.8048 H   0  0  0  0  0  0  0  0  0  0  0  0
   45.3600    4.7616   11.3979 H   0  0  0  0  0  0  0  0  0  0  0  0
   45.0190    4.7212   13.1843 H   0  0  0  0  0  0  0  0  0  0  0  0
   45.5734    7.2671   11.4790 H   0  0  0  0  0  0  0  0  0  0  0  0
   45.2022    7.2257   13.2609 H   0  0  0  0  0  0  0  0  0  0  0  0
   45.6818   11.5187    9.4312 H   0  0  0  0  0  0  0  0  0  0  0  0
   45.0130   11.8232   11.0524 H   0  0  0  0  0  0  0  0  0  0  0  0
   52.5460    5.3591   17.6690 H   0  0  0  0  0  0  0  0  0  0  0  0
   50.5970    4.6769   16.7319 H   0  0  0  0  0  0  0  0  0  0  0  0
   50.1487    7.7077   16.4968 H   0  0  0  0  0  0  0  0  0  0  0  0
   50.5898    6.6720   15.1520 H   0  0  0  0  0  0  0  0  0  0  0  0
   48.0485    6.2374   16.8220 H   0  0  0  0  0  0  0  0  0  0  0  0
   47.5980    4.7499   15.3824 H   0  0  0  0  0  0  0  0  0  0  0  0
   47.6720    8.3270   15.6234 H   0  0  0  0  0  0  0  0  0  0  0  0
   47.7689    6.4385   13.1957 H   0  0  0  0  0  0  0  0  0  0  0  0
   43.6331   10.9409   10.6369 H   0  0  0  0  0  0  0  0  0  0  0  0
   44.5084   13.1749   10.0416 H   0  0  0  0  0  0  0  0  0  0  0  0
   46.8212   13.8083   10.7103 H   0  0  0  0  0  0  0  0  0  0  0  0
   48.2112   12.2169   11.9514 H   0  0  0  0  0  0  0  0  0  0  0  0
   48.1740   11.2769   14.8635 H   0  0  0  0  0  0  0  0  0  0  0  0
   50.4830   11.7891   15.6285 H   0  0  0  0  0  0  0  0  0  0  0  0
   52.0951    9.2589   12.5740 H   0  0  0  0  0  0  0  0  0  0  0  0
   49.8040    8.7267   11.7781 H   0  0  0  0  0  0  0  0  0  0  0  0
   44.6004    6.6452   13.8817 H   0  0  0  0  0  0  0  0  0  0  0  0
   42.9574    5.7946   12.2242 H   0  0  0  0  0  0  0  0  0  0  0  0
   43.6449    6.8772   10.9357 H   0  0  0  0  0  0  0  0  0  0  0  0
   45.8769    5.7524   11.1780 H   0  0  0  0  0  0  0  0  0  0  0  0
   45.2001    4.6717   12.4751 H   0  0  0  0  0  0  0  0  0  0  0  0
   50.7166    6.8290   18.9315 H   0  0  0  0  0  0  0  0  0  0  0  0
   49.2252    5.9153   18.6125 H   0  0  0  0  0  0  0  0  0  0  0  0
  2  1  1  0
  2  3  1  0
  3  4  1  0
  4  5  1  0
  4  6  1  0
  6  7  2  0
  7  8  1  0
  8  9  2  0
  9 10  1  0
 10 11  2  0
 11 12  1  0
 12 13  2  0
 13 14  1  0
 14 15  2  0
 15 16  1  0
 11 16  1  0
 16 17  2  0
  8 17  1  0
 17 18  1  0
 18 19  2  0
 19 20  1  0
 20 21  2  0
 21 22  1  0
 21 23  1  0
 23 24  2  0
 18 24  1  0
  9 25  1  0
 25 26  1  0
 26 27  1  0
 25 27  1  0
  2 28  1  0
 28 29  1  0
 29 30  2  0
 29 31  1  0
 34 33  1  0
 34 35  1  0
 35 36  1  0
 36 37  1  0
 36 38  1  0
 38 39  2  0
 39 40  1  0
 40 41  2  0
 41 42  1  0
 42 43  2  0
 43 44  1  0
 44 45  2  0
 45 46  1  0
 46 47  2  0
 47 48  1  0
 43 48  1  0
 48 49  2  0
 40 49  1  0
 49 50  1  0
 50 51  2  0
 51 52  1  0
 52 53  2  0
 53 54  1  0
 53 55  1  0
 55 56  2  0
 50 56  1  0
 41 57  1  0
 57 58  1  0
 58 59  1  0
 57 59  1  0
 34 60  1  0
 60 61  1  0
 61 62  2  0
 61 63  1  0
  1 64  1  0
  2 65  1  1
  3 66  1  0
  3 67  1  0
  4 68  1  1
  5 69  1  0
  6 70  1  0
  7 71  1  0
 12 72  1  0
 13 73  1  0
 14 74  1  0
 15 75  1  0
 19 76  1  0
 20 77  1  0
 23 78  1  0
 24 79  1  0
 25 80  1  0
 26 81  1  0
 26 82  1  0
 27 83  1  0
 27 84  1  0
 28 85  1  0
 28 86  1  0
 33 87  1  0
 34 88  1  6
 35 89  1  0
 35 90  1  0
 36 91  1  1
 37 92  1  0
 38 93  1  0
 39 94  1  0
 44 95  1  0
 45 96  1  0
 46 97  1  0
 47 98  1  0
 51 99  1  0
 52100  1  0
 55101  1  0
 56102  1  0
 57103  1  0
 58104  1  0
 58105  1  0
 59106  1  0
 59107  1  0
 60108  1  0
 60109  1  0
M  CHG  3  31  -1  32   2  63  -1
M  END
> <Uni-Dock RESULT> 
ENERGY=   -7.424  LOWER_BOUND=    0.000  UPPER_BOUND=    0.000
INTER + INTRA:          -7.424
INTER:                  -7.424
INTRA:                   0.000
UNBOUND:                 0.000

$$$$

     RDKit          3D

109114  0  0  0  0  0  0  0  0999 V2000
   48.1788   11.8352    9.9446 O   0  0  0  0  0  0  0  0  0  0  0  0
   47.1897   11.8084   10.9802 C   0  0  2  0  0  0  0  0  0  0  0  0
   47.2085   10.4291   11.6594 C   0  0  0  0  0  0  0  0  0  0  0  0
   48.3197   10.3011   12.7136 C   0  0  2  0  0  0  0  0  0  0  0  0
   49.5994   10.1699   12.1094 O   0  0  0  0  0  0  0  0  0  0  0  0
   48.0609    9.1108   13.6065 C   0  0  0  0  0  0  0  0  0  0  0  0
   48.7222    7.9420   13.5663 C   0  0  0  0  0  0  0  0  0  0  0  0
   48.3889    6.8139   14.4539 C   0  0  0  0  0  0  0  0  0  0  0  0
   47.5022    5.8170   14.0060 C   0  0  0  0  0  0  0  0  0  0  0  0
   47.1827    4.7526   14.7903 N   0  0  0  0  0  0  0  0  0  0  0  0
   47.7024    4.6517   16.0191 C   0  0  0  0  0  0  0  0  0  0  0  0
   47.3370    3.5508   16.7802 C   0  0  0  0  0  0  0  0  0  0  0  0
   47.8285    3.3467   18.0708 C   0  0  0  0  0  0  0  0  0  0  0  0
   48.7107    4.2636   18.6208 C   0  0  0  0  0  0  0  0  0  0  0  0
   49.0885    5.3818   17.8771 C   0  0  0  0  0  0  0  0  0  0  0  0
   48.5941    5.5984   16.5635 C   0  0  0  0  0  0  0  0  0  0  0  0
   48.9499    6.7102   15.7500 C   0  0  0  0  0  0  0  0  0  0  0  0
   49.8981    7.7321   16.2443 C   0  0  0  0  0  0  0  0  0  0  0  0
   49.4405    8.8391   16.9802 C   0  0  0  0  0  0  0  0  0  0  0  0
   50.3400    9.7979   17.4549 C   0  0  0  0  0  0  0  0  0  0  0  0
   51.6963    9.6569   17.1908 C   0  0  0  0  0  0  0  0  0  0  0  0
   52.5572   10.5791   17.6409 F   0  0  0  0  0  0  0  0  0  0  0  0
   52.1730    8.5729   16.4632 C   0  0  0  0  0  0  0  0  0  0  0  0
   51.2759    7.6112   15.9906 C   0  0  0  0  0  0  0  0  0  0  0  0
   46.8640    5.8690   12.6241 C   0  0  0  0  0  0  0  0  0  0  0  0
   45.5214    5.2282   12.3577 C   0  0  0  0  0  0  0  0  0  0  0  0
   45.6345    6.7211   12.4047 C   0  0  0  0  0  0  0  0  0  0  0  0
   45.8247   12.0898   10.3572 C   0  0  0  0  0  0  0  0  0  0  0  0
   45.7325   13.5822   10.0484 C   0  0  0  0  0  0  0  0  0  0  0  0
   44.6749   14.1468   10.4443 O   0  0  0  0  0  0  0  0  0  0  0  0
   46.7352   14.0708    9.4444 O   0  0  0  0  0  0  0  0  0  0  0  0
   48.0940    8.2236   14.1140 Ca  0  0  0  0  0 15  0  0  0  0  0  0
   52.1636    5.9737   16.9777 O   0  0  0  0  0  0  0  0  0  0  0  0
   50.7527    5.7122   17.0640 C   0  0  2  0  0  0  0  0  0  0  0  0
   50.0507    6.6869   16.1052 C   0  0  0  0  0  0  0  0  0  0  0  0
   48.5777    6.3490   15.8646 C   0  0  2  0  0  0  0  0  0  0  0  0
   48.4785    5.1070   15.1741 O   0  0  0  0  0  0  0  0  0  0  0  0
   47.8877    7.4234   15.0646 C   0  0  0  0  0  0  0  0  0  0  0  0
   47.5531    7.3424   13.7665 C   0  0  0  0  0  0  0  0  0  0  0  0
   46.8484    8.4165   13.0399 C   0  0  0  0  0  0  0  0  0  0  0  0
   45.5439    8.1686   12.5763 C   0  0  0  0  0  0  0  0  0  0  0  0
   44.8418    9.1182   11.9031 N   0  0  0  0  0  0  0  0  0  0  0  0
   45.4036   10.3025   11.6358 C   0  0  0  0  0  0  0  0  0  0  0  0
   44.6474   11.2236   10.9262 C   0  0  0  0  0  0  0  0  0  0  0  0
   45.1389   12.4845   10.5871 C   0  0  0  0  0  0  0  0  0  0  0  0
   46.4264   12.8365   10.9609 C   0  0  0  0  0  0  0  0  0  0  0  0
   47.2037   11.9267   11.6756 C   0  0  0  0  0  0  0  0  0  0  0  0
   46.7086   10.6466   12.0386 C   0  0  0  0  0  0  0  0  0  0  0  0
   47.4457    9.6763   12.7783 C   0  0  0  0  0  0  0  0  0  0  0  0
   48.8176    9.9801   13.2471 C   0  0  0  0  0  0  0  0  0  0  0  0
   49.0264   10.8420   14.3407 C   0  0  0  0  0  0  0  0  0  0  0  0
   50.3192   11.1367   14.7790 C   0  0  0  0  0  0  0  0  0  0  0  0
   51.4094   10.5703   14.1296 C   0  0  0  0  0  0  0  0  0  0  0  0
   52.6503   10.8617   14.5432 F   0  0  0  0  0  0  0  0  0  0  0  0
   51.2324    9.7121   13.0527 C   0  0  0  0  0  0  0  0  0  0  0  0
   49.9393    9.4168   12.6115 C   0  0  0  0  0  0  0  0  0  0  0  0
   44.8328    6.8481   12.8303 C   0  0  0  0  0  0  0  0  0  0  0  0
   43.8320    6.3112   11.8310 C   0  0  0  0  0  0  0  0  0  0  0  0
   45.1632    5.6432   11.9779 C   0  0  0  0  0  0  0  0  0  0  0  0
   50.3154    5.8969   18.5174 C   0  0  0  0  0  0  0  0  0  0  0  0
   50.8473    4.7554   19.3837 C   0  0  0  0  0  0  0  0  0  0  0  0
   51.9943    4.3256   19.0615 O   0  0  0  0  0  0  0  0  0  0  0  0
   50.0797    4.3953   20.3189 O   0  0  0  0  0  0  0  0  0  0  0  0
   48.0338   12.7146    9.5111 H   0  0  0  0  0  0  0  0  0  0  0  0
   47.4459   12.5888   11.7100 H   0  0  0  0  0  0  0  0  0  0  0  0
   46.2439   10.2633   12.1545 H   0  0  0  0  0  0  0  0  0  0  0  0
   47.3367    9.6527   10.8919 H   0  0  0  0  0  0  0  0  0  0  0  0
   48.3471   11.1961   13.3451 H   0  0  0  0  0  0  0  0  0  0  0  0
   50.2479   10.1134   12.8350 H   0  0  0  0  0  0  0  0  0  0  0  0
   47.2485    9.2345   14.3219 H   0  0  0  0  0  0  0  0  0  0  0  0
   49.5079    7.7600   12.8382 H   0  0  0  0  0  0  0  0  0  0  0  0
   46.6448    2.8269   16.3506 H   0  0  0  0  0  0  0  0  0  0  0  0
   47.5227    2.4707   18.6357 H   0  0  0  0  0  0  0  0  0  0  0  0
   49.1029    4.1195   19.6227 H   0  0  0  0  0  0  0  0  0  0  0  0
   49.7825    6.0896   18.3277 H   0  0  0  0  0  0  0  0  0  0  0  0
   48.3769    8.9583   17.1836 H   0  0  0  0  0  0  0  0  0  0  0  0
   49.9888   10.6600   18.0149 H   0  0  0  0  0  0  0  0  0  0  0  0
   53.2369    8.4806   16.2669 H   0  0  0  0  0  0  0  0  0  0  0  0
   51.6503    6.7675   15.4138 H   0  0  0  0  0  0  0  0  0  0  0  0
   47.5680    5.8310   11.7989 H   0  0  0  0  0  0  0  0  0  0  0  0
   45.3606    4.7699   11.3910 H   0  0  0  0  0  0  0  0  0  0  0  0
   45.0193    4.7285   13.1774 H   0  0  0  0  0  0  0  0  0  0  0  0
   45.5746    7.2753   11.4737 H   0  0  0  0  0  0  0  0  0  0  0  0
   45.2031    7.2329   13.2555 H   0  0  0  0  0  0  0  0  0  0  0  0
   45.6845   11.5282    9.4286 H   0  0  0  0  0  0  0  0  0  0  0  0
   45.0155   11.8318   11.0498 H   0  0  0  0  0  0  0  0  0  0  0  0
   52.5457    5.3616   17.6637 H   0  0  0  0  0  0  0  0  0  0  0  0
   50.5967    4.6805   16.7258 H   0  0  0  0  0  0  0  0  0  0  0  0
   50.1493    7.7116   16.4925 H   0  0  0  0  0  0  0  0  0  0  0  0
   50.5903    6.6765   15.1472 H   0  0  0  0  0  0  0  0  0  0  0  0
   48.0486    6.2416   16.8165 H   0  0  0  0  0  0  0  0  0  0  0  0
   47.5979    4.7552   15.3759 H   0  0  0  0  0  0  0  0  0  0  0  0
   47.6728    8.3321   15.6191 H   0  0  0  0  0  0  0  0  0  0  0  0
   47.7696    6.4451   13.1903 H   0  0  0  0  0  0  0  0  0  0  0  0
   43.6354   10.9501   10.6336 H   0  0  0  0  0  0  0  0  0  0  0  0
   44.5114   13.1842   10.0398 H   0  0  0  0  0  0  0  0  0  0  0  0
   46.8243   13.8166   10.7093 H   0  0  0  0  0  0  0  0  0  0  0  0
   48.2137   12.2241   11.9496 H   0  0  0  0  0  0  0  0  0  0  0  0
   48.1758   11.2823   14.8611 H   0  0  0  0  0  0  0  0  0  0  0  0
   50.4847   11.7935   15.6268 H   0  0  0  0  0  0  0  0  0  0  0  0
   52.0967    9.2647   12.5710 H   0  0  0  0  0  0  0  0  0  0  0  0
   49.8056    8.7336   11.7744 H   0  0  0  0  0  0  0  0  0  0  0  0
   44.6010    6.6522   13.8758 H   0  0  0  0  0  0  0  0  0  0  0  0
   42.9581    5.8030   12.2176 H   0  0  0  0  0  0  0  0  0  0  0  0
   43.6461    6.8862   10.9299 H   0  0  0  0  0  0  0  0  0  0  0  0
   45.8778    5.7607   11.1718 H   0  0  0  0  0  0  0  0  0  0  0  0
   45.2005    4.6794   12.4681 H   0  0  0  0  0  0  0  0  0  0  0  0
   50.7165    6.8312   18.9268 H   0  0  0  0  0  0  0  0  0  0  0  0
   49.2249    5.9181   18.6070 H   0  0  0  0  0  0  0  0  0  0  0  0
  2  1  1  0
  2  3  1  0
  3  4  1  0
  4  5  1  0
  4  6  1  0
  6  7  2  0
  7  8  1  0
  8  9  2  0
  9 10  1  0
 10 11  2  0
 11 12  1  0
 12 13  2  0
 13 14  1  0
 14 15  2  0
 15 16  1  0
 11 16  1  0
 16 17  2  0
  8 17  1  0
 17 18  1  0
 18 19  2  0
 19 20  1  0
 20 21  2  0
 21 22  1  0
 21 23  1  0
 23 24  2  0
 18 24  1  0
  9 25  1  0
 25 26  1  0
 26 27  1  0
 25 27  1  0
  2 28  1  0
 28 29  1  0
 29 30  2  0
 29 31  1  0
 34 33  1  0
 34 35  1  0
 35 36  1  0
 36 37  1  0
 36 38  1  0
 38 39  2  0
 39 40  1  0
 40 41  2  0
 41 42  1  0
 42 43  2  0
 43 44  1  0
 44 45  2  0
 45 46  1  0
 46 47  2  0
 47 48  1  0
 43 48  1  0
 48 49  2  0
 40 49  1  0
 49 50  1  0
 50 51  2  0
 51 52  1  0
 52 53  2  0
 53 54  1  0
 53 55  1  0
 55 56  2  0
 50 56  1  0
 41 57  1  0
 57 58  1  0
 58 59  1  0
 57 59  1  0
 34 60  1  0
 60 61  1  0
 61 62  2  0
 61 63  1  0
  1 64  1  0
  2 65  1  1
  3 66  1  0
  3 67  1  0
  4 68  1  1
  5 69  1  0
  6 70  1  0
  7 71  1  0
 12 72  1  0
 13 73  1  0
 14 74  1  0
 15 75  1  0
 19 76  1  0
 20 77  1  0
 23 78  1  0
 24 79  1  0
 25 80  1  0
 26 81  1  0
 26 82  1  0
 27 83  1  0
 27 84  1  0
 28 85  1  0
 28 86  1  0
 33 87  1  0
 34 88  1  6
 35 89  1  0
 35 90  1  0
 36 91  1  1
 37 92  1  0
 38 93  1  0
 39 94  1  0
 44 95  1  0
 45 96  1  0
 46 97  1  0
 47 98  1  0
 51 99  1  0
 52100  1  0
 55101  1  0
 56102  1  0
 57103  1  0
 58104  1  0
 58105  1  0
 59106  1  0
 59107  1  0
 60108  1  0
 60109  1  0
M  CHG  3  31  -1  32   2  63  -1
M  END
> <Uni-Dock RESULT> 
ENERGY=   -7.423  LOWER_BOUND=    0.008  UPPER_BOUND=    0.008
INTER + INTRA:          -7.423
INTER:                  -7.423
INTRA:                   0.000
UNBOUND:                 0.000

$$$$

     RDKit          3D

109114  0  0  0  0  0  0  0  0999 V2000
   47.9092    5.8995   18.2283 O   0  0  0  0  0  0  0  0  0  0  0  0
   48.3764    5.4153   16.9639 C   0  0  2  0  0  0  0  0  0  0  0  0
   48.0981    6.4744   15.8846 C   0  0  0  0  0  0  0  0  0  0  0  0
   49.1598    7.5854   15.8546 C   0  0  2  0  0  0  0  0  0  0  0  0
   49.0160    8.4742   16.9542 O   0  0  0  0  0  0  0  0  0  0  0  0
   49.0679    8.3638   14.5636 C   0  0  0  0  0  0  0  0  0  0  0  0
   48.5624    9.6012   14.4283 C   0  0  0  0  0  0  0  0  0  0  0  0
   48.4799   10.2836   13.1249 C   0  0  0  0  0  0  0  0  0  0  0  0
   47.2944   10.1993   12.3712 C   0  0  0  0  0  0  0  0  0  0  0  0
   47.1748   10.8284   11.1712 N   0  0  0  0  0  0  0  0  0  0  0  0
   48.2044   11.5287   10.6815 C   0  0  0  0  0  0  0  0  0  0  0  0
   48.0321   12.1436    9.4498 C   0  0  0  0  0  0  0  0  0  0  0  0
   49.0401   12.9038    8.8543 C   0  0  0  0  0  0  0  0  0  0  0  0
   50.2552   13.0586    9.5031 C   0  0  0  0  0  0  0  0  0  0  0  0
   50.4544   12.4451   10.7400 C   0  0  0  0  0  0  0  0  0  0  0  0
   49.4354   11.6697   11.3541 C   0  0  0  0  0  0  0  0  0  0  0  0
   49.5714   11.0298   12.6175 C   0  0  0  0  0  0  0  0  0  0  0  0
   50.8252   11.1521   13.3926 C   0  0  0  0  0  0  0  0  0  0  0  0
   51.8834   10.2485   13.1925 C   0  0  0  0  0  0  0  0  0  0  0  0
   53.0711   10.3728   13.9188 C   0  0  0  0  0  0  0  0  0  0  0  0
   53.2022   11.3948   14.8503 C   0  0  0  0  0  0  0  0  0  0  0  0
   54.3383   11.5098   15.5503 F   0  0  0  0  0  0  0  0  0  0  0  0
   52.1694   12.2989   15.0683 C   0  0  0  0  0  0  0  0  0  0  0  0
   50.9824   12.1787   14.3405 C   0  0  0  0  0  0  0  0  0  0  0  0
   46.0846    9.4130   12.8589 C   0  0  0  0  0  0  0  0  0  0  0  0
   45.1038    8.8022   11.8847 C   0  0  0  0  0  0  0  0  0  0  0  0
   46.0376    7.9162   12.6507 C   0  0  0  0  0  0  0  0  0  0  0  0
   47.6526    4.1096   16.6448 C   0  0  0  0  0  0  0  0  0  0  0  0
   48.2544    3.0005   17.5044 C   0  0  0  0  0  0  0  0  0  0  0  0
   48.5590    1.9455   16.8814 O   0  0  0  0  0  0  0  0  0  0  0  0
   48.3852    3.2823   18.7343 O   0  0  0  0  0  0  0  0  0  0  0  0
   48.9487    9.0750   13.8385 Ca  0  0  0  0  0 15  0  0  0  0  0  0
   51.0519   14.1023   13.4809 O   0  0  0  0  0  0  0  0  0  0  0  0
   50.5367   13.2672   12.4304 C   0  0  2  0  0  0  0  0  0  0  0  0
   50.1616   11.9185   13.0650 C   0  0  0  0  0  0  0  0  0  0  0  0
   49.3359   11.0200   12.1416 C   0  0  2  0  0  0  0  0  0  0  0  0
   48.0645   11.6173   11.9047 O   0  0  0  0  0  0  0  0  0  0  0  0
   49.1422    9.6481   12.7337 C   0  0  0  0  0  0  0  0  0  0  0  0
   48.0113    9.1869   13.2921 C   0  0  0  0  0  0  0  0  0  0  0  0
   47.8686    7.8198   13.8296 C   0  0  0  0  0  0  0  0  0  0  0  0
   46.9775    6.9381   13.1920 C   0  0  0  0  0  0  0  0  0  0  0  0
   46.8039    5.6656   13.6374 N   0  0  0  0  0  0  0  0  0  0  0  0
   47.4578    5.2418   14.7248 C   0  0  0  0  0  0  0  0  0  0  0  0
   47.2237    3.9411   15.1456 C   0  0  0  0  0  0  0  0  0  0  0  0
   47.8463    3.4012   16.2713 C   0  0  0  0  0  0  0  0  0  0  0  0
   48.7245    4.1836   17.0047 C   0  0  0  0  0  0  0  0  0  0  0  0
   48.9754    5.4933   16.5993 C   0  0  0  0  0  0  0  0  0  0  0  0
   48.3587    6.0481   15.4471 C   0  0  0  0  0  0  0  0  0  0  0  0
   48.5813    7.3736   14.9720 C   0  0  0  0  0  0  0  0  0  0  0  0
   49.5292    8.2687   15.6751 C   0  0  0  0  0  0  0  0  0  0  0  0
   50.9190    8.0842   15.5452 C   0  0  0  0  0  0  0  0  0  0  0  0
   51.8145    8.9215   16.2141 C   0  0  0  0  0  0  0  0  0  0  0  0
   51.3270    9.9484   17.0134 C   0  0  0  0  0  0  0  0  0  0  0  0
   52.1861   10.7450   17.6639 F   0  0  0  0  0  0  0  0  0  0  0  0
   49.9617   10.1570   17.1543 C   0  0  0  0  0  0  0  0  0  0  0  0
   49.0636    9.3193   16.4869 C   0  0  0  0  0  0  0  0  0  0  0  0
   46.1893    7.3399   11.9545 C   0  0  0  0  0  0  0  0  0  0  0  0
   44.8179    6.7560   11.6954 C   0  0  0  0  0  0  0  0  0  0  0  0
   44.9476    8.1909   12.1008 C   0  0  0  0  0  0  0  0  0  0  0  0
   51.6103   13.1324   11.3502 C   0  0  0  0  0  0  0  0  0  0  0  0
   51.7672   14.4474   10.5869 C   0  0  0  0  0  0  0  0  0  0  0  0
   51.6236   15.4944   11.2849 O   0  0  0  0  0  0  0  0  0  0  0  0
   52.0330   14.3213    9.3593 O   0  0  0  0  0  0  0  0  0  0  0  0
   48.0460    5.1275   18.8347 H   0  0  0  0  0  0  0  0  0  0  0  0
   49.4583    5.2426   17.0489 H   0  0  0  0  0  0  0  0  0  0  0  0
   48.0833    5.9861   14.9025 H   0  0  0  0  0  0  0  0  0  0  0  0
   47.1070    6.9157   16.0619 H   0  0  0  0  0  0  0  0  0  0  0  0
   50.1639    7.1510   15.9151 H   0  0  0  0  0  0  0  0  0  0  0  0
   49.7297    9.1338   16.8772 H   0  0  0  0  0  0  0  0  0  0  0  0
   49.4338    7.8424   13.6796 H   0  0  0  0  0  0  0  0  0  0  0  0
   48.1451   10.1387   15.2754 H   0  0  0  0  0  0  0  0  0  0  0  0
   47.0775   12.0254    8.9374 H   0  0  0  0  0  0  0  0  0  0  0  0
   48.8677   13.3737    7.8901 H   0  0  0  0  0  0  0  0  0  0  0  0
   51.0494   13.6472    9.0542 H   0  0  0  0  0  0  0  0  0  0  0  0
   51.4161   12.5795   11.2327 H   0  0  0  0  0  0  0  0  0  0  0  0
   51.7827    9.4406   12.4685 H   0  0  0  0  0  0  0  0  0  0  0  0
   53.8868    9.6701   13.7743 H   0  0  0  0  0  0  0  0  0  0  0  0
   52.2912   13.0908   15.8010 H   0  0  0  0  0  0  0  0  0  0  0  0
   50.1717   12.8827   14.5188 H   0  0  0  0  0  0  0  0  0  0  0  0
   45.6524    9.7766   13.7858 H   0  0  0  0  0  0  0  0  0  0  0  0
   44.0581    8.7836   12.1617 H   0  0  0  0  0  0  0  0  0  0  0  0
   45.2821    8.9363   10.8246 H   0  0  0  0  0  0  0  0  0  0  0  0
   45.6356    7.3151   13.4598 H   0  0  0  0  0  0  0  0  0  0  0  0
   46.8463    7.4455   12.1064 H   0  0  0  0  0  0  0  0  0  0  0  0
   46.5823    4.1816   16.8607 H   0  0  0  0  0  0  0  0  0  0  0  0
   47.7812    3.8358   15.5915 H   0  0  0  0  0  0  0  0  0  0  0  0
   51.3331   14.9240   12.9942 H   0  0  0  0  0  0  0  0  0  0  0  0
   49.6364   13.7590   12.0424 H   0  0  0  0  0  0  0  0  0  0  0  0
   51.0776   11.3998   13.3837 H   0  0  0  0  0  0  0  0  0  0  0  0
   49.5948   12.1169   13.9861 H   0  0  0  0  0  0  0  0  0  0  0  0
   49.8331   10.9051   11.1735 H   0  0  0  0  0  0  0  0  0  0  0  0
   47.7457   11.2506   11.0658 H   0  0  0  0  0  0  0  0  0  0  0  0
   50.0223    9.0127   12.6992 H   0  0  0  0  0  0  0  0  0  0  0  0
   47.1219    9.8115   13.3466 H   0  0  0  0  0  0  0  0  0  0  0  0
   46.5362    3.3243   14.5700 H   0  0  0  0  0  0  0  0  0  0  0  0
   47.6462    2.3728   16.5634 H   0  0  0  0  0  0  0  0  0  0  0  0
   49.2223    3.7778   17.8821 H   0  0  0  0  0  0  0  0  0  0  0  0
   49.6621    6.0890   17.1968 H   0  0  0  0  0  0  0  0  0  0  0  0
   51.3088    7.2869   14.9123 H   0  0  0  0  0  0  0  0  0  0  0  0
   52.8865    8.7886   16.1101 H   0  0  0  0  0  0  0  0  0  0  0  0
   49.6012   10.9770   17.7683 H   0  0  0  0  0  0  0  0  0  0  0  0
   47.9941    9.4948   16.5910 H   0  0  0  0  0  0  0  0  0  0  0  0
   46.7965    7.5184   11.0687 H   0  0  0  0  0  0  0  0  0  0  0  0
   44.5505    6.5352   10.6703 H   0  0  0  0  0  0  0  0  0  0  0  0
   44.4121    6.0561   12.4185 H   0  0  0  0  0  0  0  0  0  0  0  0
   44.6229    8.4643   13.0978 H   0  0  0  0  0  0  0  0  0  0  0  0
   44.7721    8.9517   11.3518 H   0  0  0  0  0  0  0  0  0  0  0  0
   52.5828   12.8971   11.7978 H   0  0  0  0  0  0  0  0  0  0  0  0
   51.3586   12.3454   10.6325 H   0  0  0  0  0  0  0  0  0  0  0  0
  2  1  1  0
  2  3  1  0
  3  4  1  0
  4  5  1  0
  4  6  1  0
  6  7  2  0
  7  8  1  0
  8  9  2  0
  9 10  1  0
 10 11  2  0
 11 12  1  0
 12 13  2  0
 13 14  1  0
 14 15  2  0
 15 16  1  0
 11 16  1  0
 16 17  2  0
  8 17  1  0
 17 18  1  0
 18 19  2  0
 19 20  1  0
 20 21  2  0
 21 22  1  0
 21 23  1  0
 23 24  2  0
 18 24  1  0
  9 25  1  0
 25 26  1  0
 26 27  1  0
 25 27  1  0
  2 28  1  0
 28 29  1  0
 29 30  2  0
 29 31  1  0
 34 33  1  0
 34 35  1  0
 35 36  1  0
 36 37  1  0
 36 38  1  0
 38 39  2  0
 39 40  1  0
 40 41  2  0
 41 42  1  0
 42 43  2  0
 43 44  1  0
 44 45  2  0
 45 46  1  0
 46 47  2  0
 47 48  1  0
 43 48  1  0
 48 49  2  0
 40 49  1  0
 49 50  1  0
 50 51  2  0
 51 52  1  0
 52 53  2  0
 53 54  1  0
 53 55  1  0
 55 56  2  0
 50 56  1  0
 41 57  1  0
 57 58  1  0
 58 59  1  0
 57 59  1  0
 34 60  1  0
 60 61  1  0
 61 62  2  0
 61 63  1  0
  1 64  1  0
  2 65  1  1
  3 66  1  0
  3 67  1  0
  4 68  1  1
  5 69  1  0
  6 70  1  0
  7 71  1  0
 12 72  1  0
 13 73  1  0
 14 74  1  0
 15 75  1  0
 19 76  1  0
 20 77  1  0
 23 78  1  0
 24 79  1  0
 25 80  1  0
 26 81  1  0
 26 82  1  0
 27 83  1  0
 27 84  1  0
 28 85  1  0
 28 86  1  0
 33 87  1  0
 34 88  1  6
 35 89  1  0
 35 90  1  0
 36 91  1  1
 37 92  1  0
 38 93  1  0
 39 94  1  0
 44 95  1  0
 45 96  1  0
 46 97  1  0
 47 98  1  0
 51 99  1  0
 52100  1  0
 55101  1  0
 56102  1  0
 57103  1  0
 58104  1  0
 58105  1  0
 59106  1  0
 59107  1  0
 60108  1  0
 60109  1  0
M  CHG  3  31  -1  32   2  63  -1
M  END
> <Uni-Dock RESULT> 
ENERGY=   -6.322  LOWER_BOUND=    2.084  UPPER_BOUND=    7.468
INTER + INTRA:          -6.322
INTER:                  -6.322
INTRA:                   0.000
UNBOUND:                 0.000

$$$$

     RDKit          3D

109114  0  0  0  0  0  0  0  0999 V2000
   50.3266   15.4440   14.3937 O   0  0  0  0  0  0  0  0  0  0  0  0
   49.0612   14.8163   14.1564 C   0  0  2  0  0  0  0  0  0  0  0  0
   49.1602   13.3271   14.5257 C   0  0  0  0  0  0  0  0  0  0  0  0
   49.0042   13.0774   16.0343 C   0  0  2  0  0  0  0  0  0  0  0  0
   50.1669   13.4704   16.7510 O   0  0  0  0  0  0  0  0  0  0  0  0
   48.7208   11.6175   16.2976 C   0  0  0  0  0  0  0  0  0  0  0  0
   49.5934   10.7272   16.7987 C   0  0  0  0  0  0  0  0  0  0  0  0
   49.2487    9.3086   16.9987 C   0  0  0  0  0  0  0  0  0  0  0  0
   49.5541    8.3719   15.9938 C   0  0  0  0  0  0  0  0  0  0  0  0
   49.2659    7.0516   16.1485 N   0  0  0  0  0  0  0  0  0  0  0  0
   48.6646    6.6284   17.2664 C   0  0  0  0  0  0  0  0  0  0  0  0
   48.3857    5.2732   17.3693 C   0  0  0  0  0  0  0  0  0  0  0  0
   47.7684    4.7279   18.4964 C   0  0  0  0  0  0  0  0  0  0  0  0
   47.4193    5.5539   19.5534 C   0  0  0  0  0  0  0  0  0  0  0  0
   47.6844    6.9211   19.4708 C   0  0  0  0  0  0  0  0  0  0  0  0
   48.3118    7.4855   18.3286 C   0  0  0  0  0  0  0  0  0  0  0  0
   48.6199    8.8675   18.1884 C   0  0  0  0  0  0  0  0  0  0  0  0
   48.3010    9.8237   19.2709 C   0  0  0  0  0  0  0  0  0  0  0  0
   47.0434   10.4496   19.3277 C   0  0  0  0  0  0  0  0  0  0  0  0
   46.7411   11.3449   20.3576 C   0  0  0  0  0  0  0  0  0  0  0  0
   47.6950   11.6218   21.3284 C   0  0  0  0  0  0  0  0  0  0  0  0
   47.4068   12.4844   22.3118 F   0  0  0  0  0  0  0  0  0  0  0  0
   48.9463   11.0181   21.2925 C   0  0  0  0  0  0  0  0  0  0  0  0
   49.2495   10.1198   20.2658 C   0  0  0  0  0  0  0  0  0  0  0  0
   50.2291    8.7801   14.6909 C   0  0  0  0  0  0  0  0  0  0  0  0
   50.0122    7.9951   13.4178 C   0  0  0  0  0  0  0  0  0  0  0  0
   49.3932    9.3509   13.5677 C   0  0  0  0  0  0  0  0  0  0  0  0
   48.7006   14.9890   12.6831 C   0  0  0  0  0  0  0  0  0  0  0  0
   48.2403   16.4281   12.4633 C   0  0  0  0  0  0  0  0  0  0  0  0
   47.1599   16.5530   11.8220 O   0  0  0  0  0  0  0  0  0  0  0  0
   48.9938   17.3176   12.9635 O   0  0  0  0  0  0  0  0  0  0  0  0
   48.7429   10.6384   16.5922 Ca  0  0  0  0  0 15  0  0  0  0  0  0
   49.6779    8.4817   21.5216 O   0  0  0  0  0  0  0  0  0  0  0  0
   49.0011    7.8943   20.3977 C   0  0  2  0  0  0  0  0  0  0  0  0
   48.9323    8.9660   19.2981 C   0  0  0  0  0  0  0  0  0  0  0  0
   48.4989    8.4152   17.9377 C   0  0  2  0  0  0  0  0  0  0  0  0
   49.4947    7.5247   17.4430 O   0  0  0  0  0  0  0  0  0  0  0  0
   48.2757    9.5213   16.9392 C   0  0  0  0  0  0  0  0  0  0  0  0
   49.1017    9.8478   15.9319 C   0  0  0  0  0  0  0  0  0  0  0  0
   48.8166   10.9236   14.9625 C   0  0  0  0  0  0  0  0  0  0  0  0
   48.5966   10.5739   13.6181 C   0  0  0  0  0  0  0  0  0  0  0  0
   48.3267   11.5182   12.6784 N   0  0  0  0  0  0  0  0  0  0  0  0
   48.3043   12.8123   13.0168 C   0  0  0  0  0  0  0  0  0  0  0  0
   48.0459   13.7320   12.0112 C   0  0  0  0  0  0  0  0  0  0  0  0
   48.0077   15.1055   12.2527 C   0  0  0  0  0  0  0  0  0  0  0  0
   48.2408   15.5782   13.5347 C   0  0  0  0  0  0  0  0  0  0  0  0
   48.5015   14.6716   14.5608 C   0  0  0  0  0  0  0  0  0  0  0  0
   48.5282   13.2712   14.3293 C   0  0  0  0  0  0  0  0  0  0  0  0
   48.7757   12.2917   15.3350 C   0  0  0  0  0  0  0  0  0  0  0  0
   49.0024   12.7051   16.7392 C   0  0  0  0  0  0  0  0  0  0  0  0
   47.9274   13.1299   17.5433 C   0  0  0  0  0  0  0  0  0  0  0  0
   48.1401   13.5284   18.8648 C   0  0  0  0  0  0  0  0  0  0  0  0
   49.4261   13.5022   19.3906 C   0  0  0  0  0  0  0  0  0  0  0  0
   49.6317   13.8950   20.6552 F   0  0  0  0  0  0  0  0  0  0  0  0
   50.5034   13.0818   18.6224 C   0  0  0  0  0  0  0  0  0  0  0  0
   50.2931   12.6839   17.2990 C   0  0  0  0  0  0  0  0  0  0  0  0
   48.6107    9.1279   13.1461 C   0  0  0  0  0  0  0  0  0  0  0  0
   49.0687    8.7823   11.7463 C   0  0  0  0  0  0  0  0  0  0  0  0
   49.9314    8.4275   12.9166 C   0  0  0  0  0  0  0  0  0  0  0  0
   47.6184    7.4296   20.8556 C   0  0  0  0  0  0  0  0  0  0  0  0
   47.7400    6.2027   21.7592 C   0  0  0  0  0  0  0  0  0  0  0  0
   48.7536    6.1929   22.5185 O   0  0  0  0  0  0  0  0  0  0  0  0
   46.8064    5.3612   21.6421 O   0  0  0  0  0  0  0  0  0  0  0  0
   50.1953   16.3635   14.0480 H   0  0  0  0  0  0  0  0  0  0  0  0
   48.3155   15.3114   14.7937 H   0  0  0  0  0  0  0  0  0  0  0  0
   48.3683   12.7774   14.0024 H   0  0  0  0  0  0  0  0  0  0  0  0
   50.1297   12.9365   14.1852 H   0  0  0  0  0  0  0  0  0  0  0  0
   48.1647   13.6600   16.4295 H   0  0  0  0  0  0  0  0  0  0  0  0
   49.9862   13.3006   17.6938 H   0  0  0  0  0  0  0  0  0  0  0  0
   47.7190   11.2830   16.0298 H   0  0  0  0  0  0  0  0  0  0  0  0
   50.6159   11.0078   17.0362 H   0  0  0  0  0  0  0  0  0  0  0  0
   48.6600    4.6203   16.5410 H   0  0  0  0  0  0  0  0  0  0  0  0
   47.5689    3.6610   18.5431 H   0  0  0  0  0  0  0  0  0  0  0  0
   46.9395    5.1458   20.4376 H   0  0  0  0  0  0  0  0  0  0  0  0
   47.4022    7.5522   20.3121 H   0  0  0  0  0  0  0  0  0  0  0  0
   46.2944   10.2416   18.5644 H   0  0  0  0  0  0  0  0  0  0  0  0
   45.7741   11.8383   20.3988 H   0  0  0  0  0  0  0  0  0  0  0  0
   49.6786   11.2479   22.0606 H   0  0  0  0  0  0  0  0  0  0  0  0
   50.2330    9.6545   20.2348 H   0  0  0  0  0  0  0  0  0  0  0  0
   51.2197    9.2077   14.8092 H   0  0  0  0  0  0  0  0  0  0  0  0
   50.8441    7.8990   12.7328 H   0  0  0  0  0  0  0  0  0  0  0  0
   49.3609    7.1301   13.4527 H   0  0  0  0  0  0  0  0  0  0  0  0
   49.8149   10.1784   13.0066 H   0  0  0  0  0  0  0  0  0  0  0  0
   48.3200    9.4034   13.6988 H   0  0  0  0  0  0  0  0  0  0  0  0
   49.5592   14.7904   12.0344 H   0  0  0  0  0  0  0  0  0  0  0  0
   47.8817   14.3191   12.3974 H   0  0  0  0  0  0  0  0  0  0  0  0
   49.6287    7.7647   22.2106 H   0  0  0  0  0  0  0  0  0  0  0  0
   49.6157    7.0517   20.0580 H   0  0  0  0  0  0  0  0  0  0  0  0
   48.2547    9.7712   19.6176 H   0  0  0  0  0  0  0  0  0  0  0  0
   49.9250    9.4297   19.2063 H   0  0  0  0  0  0  0  0  0  0  0  0
   47.5668    7.8497   18.0323 H   0  0  0  0  0  0  0  0  0  0  0  0
   49.0437    6.9336   16.8208 H   0  0  0  0  0  0  0  0  0  0  0  0
   47.3628   10.0897   17.0910 H   0  0  0  0  0  0  0  0  0  0  0  0
   50.0267    9.2981   15.7695 H   0  0  0  0  0  0  0  0  0  0  0  0
   47.8605   13.3630   11.0043 H   0  0  0  0  0  0  0  0  0  0  0  0
   47.7902   15.7953   11.4404 H   0  0  0  0  0  0  0  0  0  0  0  0
   48.2104   16.6451   13.7422 H   0  0  0  0  0  0  0  0  0  0  0  0
   48.6894   15.0686   15.5561 H   0  0  0  0  0  0  0  0  0  0  0  0
   46.9145   13.1439   17.1406 H   0  0  0  0  0  0  0  0  0  0  0  0
   47.3135   13.8482   19.4909 H   0  0  0  0  0  0  0  0  0  0  0  0
   51.4977   13.0504   19.0579 H   0  0  0  0  0  0  0  0  0  0  0  0
   51.1394   12.3435   16.7047 H   0  0  0  0  0  0  0  0  0  0  0  0
   47.8000    8.5156   13.5374 H   0  0  0  0  0  0  0  0  0  0  0  0
   48.5512    7.9841   11.2302 H   0  0  0  0  0  0  0  0  0  0  0  0
   49.3944    9.5892   11.0980 H   0  0  0  0  0  0  0  0  0  0  0  0
   50.8464    8.9907   13.0574 H   0  0  0  0  0  0  0  0  0  0  0  0
   50.0015    7.3866   13.2033 H   0  0  0  0  0  0  0  0  0  0  0  0
   47.1187    8.2138   21.4361 H   0  0  0  0  0  0  0  0  0  0  0  0
   46.9821    7.1687   20.0042 H   0  0  0  0  0  0  0  0  0  0  0  0
  2  1  1  0
  2  3  1  0
  3  4  1  0
  4  5  1  0
  4  6  1  0
  6  7  2  0
  7  8  1  0
  8  9  2  0
  9 10  1  0
 10 11  2  0
 11 12  1  0
 12 13  2  0
 13 14  1  0
 14 15  2  0
 15 16  1  0
 11 16  1  0
 16 17  2  0
  8 17  1  0
 17 18  1  0
 18 19  2  0
 19 20  1  0
 20 21  2  0
 21 22  1  0
 21 23  1  0
 23 24  2  0
 18 24  1  0
  9 25  1  0
 25 26  1  0
 26 27  1  0
 25 27  1  0
  2 28  1  0
 28 29  1  0
 29 30  2  0
 29 31  1  0
 34 33  1  0
 34 35  1  0
 35 36  1  0
 36 37  1  0
 36 38  1  0
 38 39  2  0
 39 40  1  0
 40 41  2  0
 41 42  1  0
 42 43  2  0
 43 44  1  0
 44 45  2  0
 45 46  1  0
 46 47  2  0
 47 48  1  0
 43 48  1  0
 48 49  2  0
 40 49  1  0
 49 50  1  0
 50 51  2  0
 51 52  1  0
 52 53  2  0
 53 54  1  0
 53 55  1  0
 55 56  2  0
 50 56  1  0
 41 57  1  0
 57 58  1  0
 58 59  1  0
 57 59  1  0
 34 60  1  0
 60 61  1  0
 61 62  2  0
 61 63  1  0
  1 64  1  0
  2 65  1  1
  3 66  1  0
  3 67  1  0
  4 68  1  1
  5 69  1  0
  6 70  1  0
  7 71  1  0
 12 72  1  0
 13 73  1  0
 14 74  1  0
 15 75  1  0
 19 76  1  0
 20 77  1  0
 23 78  1  0
 24 79  1  0
 25 80  1  0
 26 81  1  0
 26 82  1  0
 27 83  1  0
 27 84  1  0
 28 85  1  0
 28 86  1  0
 33 87  1  0
 34 88  1  6
 35 89  1  0
 35 90  1  0
 36 91  1  1
 37 92  1  0
 38 93  1  0
 39 94  1  0
 44 95  1  0
 45 96  1  0
 46 97  1  0
 47 98  1  0
 51 99  1  0
 52100  1  0
 55101  1  0
 56102  1  0
 57103  1  0
 58104  1  0
 58105  1  0
 59106  1  0
 59107  1  0
 60108  1  0
 60109  1  0
M  CHG  3  31  -1  32   2  63  -1
M  END
> <Uni-Dock RESULT> 
ENERGY=   -5.805  LOWER_BOUND=    3.266  UPPER_BOUND=    4.543
INTER + INTRA:          -5.805
INTER:                  -5.805
INTRA:                   0.000
UNBOUND:                 0.000

$$$$

     RDKit          3D

109114  0  0  0  0  0  0  0  0999 V2000
   50.7921   11.5105    8.8327 O   0  0  0  0  0  0  0  0  0  0  0  0
   50.0591   12.4762    8.0700 C   0  0  2  0  0  0  0  0  0  0  0  0
   48.6072   12.5197    8.5740 C   0  0  0  0  0  0  0  0  0  0  0  0
   48.4413   13.3846    9.8338 C   0  0  2  0  0  0  0  0  0  0  0  0
   48.9630   12.7348   10.9851 O   0  0  0  0  0  0  0  0  0  0  0  0
   46.9837   13.7107   10.0578 C   0  0  0  0  0  0  0  0  0  0  0  0
   46.1934   13.1647   10.9970 C   0  0  0  0  0  0  0  0  0  0  0  0
   44.7683   13.5146   11.1325 C   0  0  0  0  0  0  0  0  0  0  0  0
   43.7959   12.7252   10.4907 C   0  0  0  0  0  0  0  0  0  0  0  0
   42.4702   13.0071   10.6052 N   0  0  0  0  0  0  0  0  0  0  0  0
   42.0743   14.0633   11.3249 C   0  0  0  0  0  0  0  0  0  0  0  0
   40.7113   14.3106   11.4021 C   0  0  0  0  0  0  0  0  0  0  0  0
   40.1932   15.3811   12.1332 C   0  0  0  0  0  0  0  0  0  0  0  0
   41.0556   16.2302   12.8090 C   0  0  0  0  0  0  0  0  0  0  0  0
   42.4307   16.0053   12.7418 C   0  0  0  0  0  0  0  0  0  0  0  0
   42.9676   14.9193   12.0008 C   0  0  0  0  0  0  0  0  0  0  0  0
   44.3571   14.6292   11.9031 C   0  0  0  0  0  0  0  0  0  0  0  0
   45.3528   15.4690   12.6039 C   0  0  0  0  0  0  0  0  0  0  0  0
   45.8864   16.6143   11.9876 C   0  0  0  0  0  0  0  0  0  0  0  0
   46.8194   17.4118   12.6562 C   0  0  0  0  0  0  0  0  0  0  0  0
   47.2261   17.0642   13.9381 C   0  0  0  0  0  0  0  0  0  0  0  0
   48.1247   17.8255   14.5761 F   0  0  0  0  0  0  0  0  0  0  0  0
   46.7154   15.9353   14.5676 C   0  0  0  0  0  0  0  0  0  0  0  0
   45.7797   15.1385   13.9023 C   0  0  0  0  0  0  0  0  0  0  0  0
   44.1708   11.5139    9.6471 C   0  0  0  0  0  0  0  0  0  0  0  0
   43.2940   11.0538    8.5052 C   0  0  0  0  0  0  0  0  0  0  0  0
   44.6071   11.7129    8.2132 C   0  0  0  0  0  0  0  0  0  0  0  0
   50.1125   12.0762    6.5977 C   0  0  0  0  0  0  0  0  0  0  0  0
   51.4971   12.4191    6.0533 C   0  0  0  0  0  0  0  0  0  0  0  0
   51.5016   13.0517    4.9606 O   0  0  0  0  0  0  0  0  0  0  0  0
   52.4693   12.0370    6.7730 O   0  0  0  0  0  0  0  0  0  0  0  0
   46.0293   13.8021   10.4133 Ca  0  0  0  0  0 15  0  0  0  0  0  0
   44.2592   15.3231   15.3508 O   0  0  0  0  0  0  0  0  0  0  0  0
   43.5544   15.3437   14.0981 C   0  0  2  0  0  0  0  0  0  0  0  0
   44.5474   14.9027   13.0110 C   0  0  0  0  0  0  0  0  0  0  0  0
   43.8824   14.5967   11.6671 C   0  0  2  0  0  0  0  0  0  0  0  0
   43.0387   13.4565   11.7997 O   0  0  0  0  0  0  0  0  0  0  0  0
   44.9045   14.3409   10.5901 C   0  0  0  0  0  0  0  0  0  0  0  0
   45.2277   13.1396   10.0842 C   0  0  0  0  0  0  0  0  0  0  0  0
   46.2168   12.9509    9.0052 C   0  0  0  0  0  0  0  0  0  0  0  0
   45.7687   12.4736    7.7605 C   0  0  0  0  0  0  0  0  0  0  0  0
   46.6300   12.2817    6.7266 N   0  0  0  0  0  0  0  0  0  0  0  0
   47.9375   12.5107    6.8931 C   0  0  0  0  0  0  0  0  0  0  0  0
   48.7711   12.2758    5.8097 C   0  0  0  0  0  0  0  0  0  0  0  0
   50.1504   12.4739    5.8770 C   0  0  0  0  0  0  0  0  0  0  0  0
   50.7181   12.9135    7.0627 C   0  0  0  0  0  0  0  0  0  0  0  0
   49.8990   13.1569    8.1638 C   0  0  0  0  0  0  0  0  0  0  0  0
   48.4927   12.9727    8.1021 C   0  0  0  0  0  0  0  0  0  0  0  0
   47.5987   13.2152    9.1858 C   0  0  0  0  0  0  0  0  0  0  0  0
   48.1146   13.7181   10.4801 C   0  0  0  0  0  0  0  0  0  0  0  0
   48.5081   15.0627   10.6205 C   0  0  0  0  0  0  0  0  0  0  0  0
   49.0029   15.5368   11.8374 C   0  0  0  0  0  0  0  0  0  0  0  0
   49.1047   14.6720   12.9202 C   0  0  0  0  0  0  0  0  0  0  0  0
   49.5897   15.1242   14.0847 F   0  0  0  0  0  0  0  0  0  0  0  0
   48.7179   13.3430   12.8116 C   0  0  0  0  0  0  0  0  0  0  0  0
   48.2237   12.8659   11.5942 C   0  0  0  0  0  0  0  0  0  0  0  0
   44.3011   12.1813    7.4874 C   0  0  0  0  0  0  0  0  0  0  0  0
   43.9036   11.0861    6.5224 C   0  0  0  0  0  0  0  0  0  0  0  0
   43.6872   10.8941    7.9908 C   0  0  0  0  0  0  0  0  0  0  0  0
   43.0183   16.7571   13.8689 C   0  0  0  0  0  0  0  0  0  0  0  0
   41.8626   17.0509   14.8250 C   0  0  0  0  0  0  0  0  0  0  0  0
   41.9750   16.5382   15.9776 O   0  0  0  0  0  0  0  0  0  0  0  0
   40.9488   17.7789   14.3470 O   0  0  0  0  0  0  0  0  0  0  0  0
   51.6761   11.4873    8.3850 H   0  0  0  0  0  0  0  0  0  0  0  0
   50.5366   13.4547    8.2186 H   0  0  0  0  0  0  0  0  0  0  0  0
   47.9690   12.9355    7.7848 H   0  0  0  0  0  0  0  0  0  0  0  0
   48.2689   11.4949    8.7828 H   0  0  0  0  0  0  0  0  0  0  0  0
   48.9838   14.3294    9.7183 H   0  0  0  0  0  0  0  0  0  0  0  0
   48.8396   13.3474   11.7333 H   0  0  0  0  0  0  0  0  0  0  0  0
   46.5601   14.4417    9.3697 H   0  0  0  0  0  0  0  0  0  0  0  0
   46.5629   12.3989   11.6736 H   0  0  0  0  0  0  0  0  0  0  0  0
   40.0300   13.6443   10.8732 H   0  0  0  0  0  0  0  0  0  0  0  0
   39.1195   15.5415   12.1737 H   0  0  0  0  0  0  0  0  0  0  0  0
   40.6691   17.0668   13.3829 H   0  0  0  0  0  0  0  0  0  0  0  0
   43.0905   16.6840   13.2801 H   0  0  0  0  0  0  0  0  0  0  0  0
   45.5764   16.8870   10.9794 H   0  0  0  0  0  0  0  0  0  0  0  0
   47.2416   18.2916   12.1791 H   0  0  0  0  0  0  0  0  0  0  0  0
   47.0461   15.6802   15.5698 H   0  0  0  0  0  0  0  0  0  0  0  0
   45.3872   14.2502   14.3938 H   0  0  0  0  0  0  0  0  0  0  0  0
   44.6770   10.7227   10.1912 H   0  0  0  0  0  0  0  0  0  0  0  0
   43.2171    9.9906    8.3208 H   0  0  0  0  0  0  0  0  0  0  0  0
   42.3872   11.6092    8.2984 H   0  0  0  0  0  0  0  0  0  0  0  0
   45.4269   11.0992    7.8542 H   0  0  0  0  0  0  0  0  0  0  0  0
   44.5882   12.7143    7.8026 H   0  0  0  0  0  0  0  0  0  0  0  0
   49.9378   11.0039    6.4671 H   0  0  0  0  0  0  0  0  0  0  0  0
   49.3674   12.6276    6.0130 H   0  0  0  0  0  0  0  0  0  0  0  0
   43.5850   15.6784   15.9913 H   0  0  0  0  0  0  0  0  0  0  0  0
   42.7400   14.6132   14.1765 H   0  0  0  0  0  0  0  0  0  0  0  0
   45.3188   15.6769   12.8880 H   0  0  0  0  0  0  0  0  0  0  0  0
   45.0766   14.0083   13.3701 H   0  0  0  0  0  0  0  0  0  0  0  0
   43.2566   15.4363   11.3491 H   0  0  0  0  0  0  0  0  0  0  0  0
   42.3783   13.5254   11.0932 H   0  0  0  0  0  0  0  0  0  0  0  0
   45.4123   15.2302   10.2286 H   0  0  0  0  0  0  0  0  0  0  0  0
   44.7387   12.2351   10.4407 H   0  0  0  0  0  0  0  0  0  0  0  0
   48.3273   11.9326    4.8771 H   0  0  0  0  0  0  0  0  0  0  0  0
   50.7702   12.2899    5.0024 H   0  0  0  0  0  0  0  0  0  0  0  0
   51.7907   13.0777    7.1320 H   0  0  0  0  0  0  0  0  0  0  0  0
   50.3701   13.4932    9.0850 H   0  0  0  0  0  0  0  0  0  0  0  0
   48.4221   15.7493    9.7783 H   0  0  0  0  0  0  0  0  0  0  0  0
   49.2992   16.5744   11.9528 H   0  0  0  0  0  0  0  0  0  0  0  0
   48.7872   12.6881   13.6751 H   0  0  0  0  0  0  0  0  0  0  0  0
   47.9104   11.8260   11.5179 H   0  0  0  0  0  0  0  0  0  0  0  0
   43.6562   13.0585    7.4906 H   0  0  0  0  0  0  0  0  0  0  0  0
   43.0387   11.2577    5.8950 H   0  0  0  0  0  0  0  0  0  0  0  0
   44.6903   10.5127    6.0432 H   0  0  0  0  0  0  0  0  0  0  0  0
   44.3241   10.1845    8.5056 H   0  0  0  0  0  0  0  0  0  0  0  0
   42.6742   10.9377    8.3685 H   0  0  0  0  0  0  0  0  0  0  0  0
   43.7982   17.5031   14.0609 H   0  0  0  0  0  0  0  0  0  0  0  0
   42.6586   16.8867   12.8434 H   0  0  0  0  0  0  0  0  0  0  0  0
  2  1  1  0
  2  3  1  0
  3  4  1  0
  4  5  1  0
  4  6  1  0
  6  7  2  0
  7  8  1  0
  8  9  2  0
  9 10  1  0
 10 11  2  0
 11 12  1  0
 12 13  2  0
 13 14  1  0
 14 15  2  0
 15 16  1  0
 11 16  1  0
 16 17  2  0
  8 17  1  0
 17 18  1  0
 18 19  2  0
 19 20  1  0
 20 21  2  0
 21 22  1  0
 21 23  1  0
 23 24  2  0
 18 24  1  0
  9 25  1  0
 25 26  1  0
 26 27  1  0
 25 27  1  0
  2 28  1  0
 28 29  1  0
 29 30  2  0
 29 31  1  0
 34 33  1  0
 34 35  1  0
 35 36  1  0
 36 37  1  0
 36 38  1  0
 38 39  2  0
 39 40  1  0
 40 41  2  0
 41 42  1  0
 42 43  2  0
 43 44  1  0
 44 45  2  0
 45 46  1  0
 46 47  2  0
 47 48  1  0
 43 48  1  0
 48 49  2  0
 40 49  1  0
 49 50  1  0
 50 51  2  0
 51 52  1  0
 52 53  2  0
 53 54  1  0
 53 55  1  0
 55 56  2  0
 50 56  1  0
 41 57  1  0
 57 58  1  0
 58 59  1  0
 57 59  1  0
 34 60  1  0
 60 61  1  0
 61 62  2  0
 61 63  1  0
  1 64  1  0
  2 65  1  1
  3 66  1  0
  3 67  1  0
  4 68  1  1
  5 69  1  0
  6 70  1  0
  7 71  1  0
 12 72  1  0
 13 73  1  0
 14 74  1  0
 15 75  1  0
 19 76  1  0
 20 77  1  0
 23 78  1  0
 24 79  1  0
 25 80  1  0
 26 81  1  0
 26 82  1  0
 27 83  1  0
 27 84  1  0
 28 85  1  0
 28 86  1  0
 33 87  1  0
 34 88  1  6
 35 89  1  0
 35 90  1  0
 36 91  1  1
 37 92  1  0
 38 93  1  0
 39 94  1  0
 44 95  1  0
 45 96  1  0
 46 97  1  0
 47 98  1  0
 51 99  1  0
 52100  1  0
 55101  1  0
 56102  1  0
 57103  1  0
 58104  1  0
 58105  1  0
 59106  1  0
 59107  1  0
 60108  1  0
 60109  1  0
M  CHG  3  31  -1  32   2  63  -1
M  END
> <Uni-Dock RESULT> 
ENERGY=   -5.712  LOWER_BOUND=    6.564  UPPER_BOUND=    8.991
INTER + INTRA:          -5.712
INTER:                  -5.712
INTRA:                   0.000
UNBOUND:                 0.000

$$$$

     RDKit          3D

109114  0  0  0  0  0  0  0  0999 V2000
   47.6403    8.6072   14.8052 O   0  0  0  0  0  0  0  0  0  0  0  0
   47.3190    8.2044   13.4688 C   0  0  2  0  0  0  0  0  0  0  0  0
   46.5515    9.3394   12.7711 C   0  0  0  0  0  0  0  0  0  0  0  0
   47.4799   10.4340   12.2210 C   0  0  2  0  0  0  0  0  0  0  0  0
   48.0026   11.2469   13.2630 O   0  0  0  0  0  0  0  0  0  0  0  0
   46.7393   11.3008   11.2305 C   0  0  0  0  0  0  0  0  0  0  0  0
   46.3044   12.5520   11.4550 C   0  0  0  0  0  0  0  0  0  0  0  0
   45.5600   13.3237   10.4442 C   0  0  0  0  0  0  0  0  0  0  0  0
   44.1528   13.3092   10.4577 C   0  0  0  0  0  0  0  0  0  0  0  0
   43.4310   14.0213    9.5510 N   0  0  0  0  0  0  0  0  0  0  0  0
   44.0617   14.7382    8.6138 C   0  0  0  0  0  0  0  0  0  0  0  0
   43.2779   15.4391    7.7087 C   0  0  0  0  0  0  0  0  0  0  0  0
   43.8360   16.2234    6.6977 C   0  0  0  0  0  0  0  0  0  0  0  0
   45.2144   16.3151    6.5839 C   0  0  0  0  0  0  0  0  0  0  0  0
   46.0237   15.6149    7.4787 C   0  0  0  0  0  0  0  0  0  0  0  0
   45.4657   14.8143    8.5105 C   0  0  0  0  0  0  0  0  0  0  0  0
   46.2352   14.0868    9.4607 C   0  0  0  0  0  0  0  0  0  0  0  0
   47.7132   14.1368    9.4297 C   0  0  0  0  0  0  0  0  0  0  0  0
   48.4451   13.2334    8.6393 C   0  0  0  0  0  0  0  0  0  0  0  0
   49.8412   13.2897    8.6038 C   0  0  0  0  0  0  0  0  0  0  0  0
   50.5093   14.2429    9.3617 C   0  0  0  0  0  0  0  0  0  0  0  0
   51.8475   14.2926    9.3319 F   0  0  0  0  0  0  0  0  0  0  0  0
   49.8083   15.1452   10.1531 C   0  0  0  0  0  0  0  0  0  0  0  0
   48.4123   15.0931   10.1873 C   0  0  0  0  0  0  0  0  0  0  0  0
   43.3658   12.5092   11.4874 C   0  0  0  0  0  0  0  0  0  0  0  0
   41.9836   11.9817   11.1785 C   0  0  0  0  0  0  0  0  0  0  0  0
   43.1382   11.0312   11.2648 C   0  0  0  0  0  0  0  0  0  0  0  0
   46.4738    6.9348   13.5327 C   0  0  0  0  0  0  0  0  0  0  0  0
   47.3901    5.7603   13.8675 C   0  0  0  0  0  0  0  0  0  0  0  0
   47.2531    4.7462   13.1278 O   0  0  0  0  0  0  0  0  0  0  0  0
   48.1831    5.9546   14.8383 O   0  0  0  0  0  0  0  0  0  0  0  0
   46.2805   12.0620   10.7247 Ca  0  0  0  0  0 15  0  0  0  0  0  0
   48.0989   17.0701    9.5260 O   0  0  0  0  0  0  0  0  0  0  0  0
   47.0538   16.3171    8.8878 C   0  0  2  0  0  0  0  0  0  0  0  0
   47.0176   14.9337    9.5565 C   0  0  0  0  0  0  0  0  0  0  0  0
   45.7785   14.1134    9.1910 C   0  0  2  0  0  0  0  0  0  0  0  0
   44.6148   14.7444    9.7173 O   0  0  0  0  0  0  0  0  0  0  0  0
   45.8699   12.7069    9.7237 C   0  0  0  0  0  0  0  0  0  0  0  0
   45.2037   12.2252   10.7856 C   0  0  0  0  0  0  0  0  0  0  0  0
   45.3082   10.8265   11.2452 C   0  0  0  0  0  0  0  0  0  0  0  0
   44.1708   10.0043   11.1552 C   0  0  0  0  0  0  0  0  0  0  0  0
   44.2041    8.7068   11.5593 N   0  0  0  0  0  0  0  0  0  0  0  0
   45.3223    8.1994   12.0900 C   0  0  0  0  0  0  0  0  0  0  0  0
   45.2902    6.8764   12.5052 C   0  0  0  0  0  0  0  0  0  0  0  0
   46.3972    6.2510   13.0794 C   0  0  0  0  0  0  0  0  0  0  0  0
   47.5710    6.9678   13.2516 C   0  0  0  0  0  0  0  0  0  0  0  0
   47.6260    8.2984   12.8405 C   0  0  0  0  0  0  0  0  0  0  0  0
   46.5103    8.9405   12.2418 C   0  0  0  0  0  0  0  0  0  0  0  0
   46.5045   10.2921   11.7886 C   0  0  0  0  0  0  0  0  0  0  0  0
   47.7258   11.1224   11.9030 C   0  0  0  0  0  0  0  0  0  0  0  0
   48.8097   10.9267   11.0259 C   0  0  0  0  0  0  0  0  0  0  0  0
   49.9656   11.7025   11.1374 C   0  0  0  0  0  0  0  0  0  0  0  0
   50.0439   12.6789   12.1230 C   0  0  0  0  0  0  0  0  0  0  0  0
   51.1573   13.4159   12.2370 F   0  0  0  0  0  0  0  0  0  0  0  0
   48.9877   12.8976   12.9971 C   0  0  0  0  0  0  0  0  0  0  0  0
   47.8304   12.1214   12.8883 C   0  0  0  0  0  0  0  0  0  0  0  0
   42.8573   10.5021   10.5712 C   0  0  0  0  0  0  0  0  0  0  0  0
   41.5387    9.9579   11.0750 C   0  0  0  0  0  0  0  0  0  0  0  0
   41.9398   11.3593   11.4142 C   0  0  0  0  0  0  0  0  0  0  0  0
   47.3582   16.2412    7.3914 C   0  0  0  0  0  0  0  0  0  0  0  0
   47.1399   17.6032    6.7328 C   0  0  0  0  0  0  0  0  0  0  0  0
   47.4521   18.6016    7.4468 O   0  0  0  0  0  0  0  0  0  0  0  0
   46.6880   17.5581    5.5550 O   0  0  0  0  0  0  0  0  0  0  0  0
   48.0461    7.7934   15.1992 H   0  0  0  0  0  0  0  0  0  0  0  0
   48.2626    8.0102   12.9402 H   0  0  0  0  0  0  0  0  0  0  0  0
   45.9801    8.9202   11.9339 H   0  0  0  0  0  0  0  0  0  0  0  0
   45.8402    9.7821   13.4827 H   0  0  0  0  0  0  0  0  0  0  0  0
   48.3319    9.9815   11.7015 H   0  0  0  0  0  0  0  0  0  0  0  0
   48.5913   11.8995   12.8414 H   0  0  0  0  0  0  0  0  0  0  0  0
   46.5384   10.8362   10.2656 H   0  0  0  0  0  0  0  0  0  0  0  0
   46.4430   13.0360   12.4179 H   0  0  0  0  0  0  0  0  0  0  0  0
   42.1937   15.3707    7.7959 H   0  0  0  0  0  0  0  0  0  0  0  0
   43.1903   16.7612    6.0091 H   0  0  0  0  0  0  0  0  0  0  0  0
   45.6646   16.9214    5.8039 H   0  0  0  0  0  0  0  0  0  0  0  0
   47.1039   15.7007    7.3719 H   0  0  0  0  0  0  0  0  0  0  0  0
   47.9263   12.4789    8.0490 H   0  0  0  0  0  0  0  0  0  0  0  0
   50.4105   12.5866    8.0024 H   0  0  0  0  0  0  0  0  0  0  0  0
   50.3488   15.8828   10.7385 H   0  0  0  0  0  0  0  0  0  0  0  0
   47.8656   15.7951   10.8142 H   0  0  0  0  0  0  0  0  0  0  0  0
   43.5266   12.8145   12.5165 H   0  0  0  0  0  0  0  0  0  0  0  0
   41.2578   11.9596   11.9805 H   0  0  0  0  0  0  0  0  0  0  0  0
   41.5627   12.1859   10.2015 H   0  0  0  0  0  0  0  0  0  0  0  0
   43.2117   10.3819   12.1310 H   0  0  0  0  0  0  0  0  0  0  0  0
   43.4955   10.5872   10.3444 H   0  0  0  0  0  0  0  0  0  0  0  0
   45.6986    7.0076   14.3016 H   0  0  0  0  0  0  0  0  0  0  0  0
   45.9945    6.7323   12.5682 H   0  0  0  0  0  0  0  0  0  0  0  0
   48.1106   17.9192    9.0063 H   0  0  0  0  0  0  0  0  0  0  0  0
   46.1134   16.8479    9.0798 H   0  0  0  0  0  0  0  0  0  0  0  0
   47.9321   14.3807    9.2967 H   0  0  0  0  0  0  0  0  0  0  0  0
   47.0542   15.0765   10.6460 H   0  0  0  0  0  0  0  0  0  0  0  0
   45.6622   14.0581    8.1042 H   0  0  0  0  0  0  0  0  0  0  0  0
   43.8729   14.4412    9.1718 H   0  0  0  0  0  0  0  0  0  0  0  0
   46.5562   12.0623    9.1826 H   0  0  0  0  0  0  0  0  0  0  0  0
   44.5198   12.8577   11.3482 H   0  0  0  0  0  0  0  0  0  0  0  0
   44.3703    6.3111   12.3690 H   0  0  0  0  0  0  0  0  0  0  0  0
   46.3371    5.2080   13.3820 H   0  0  0  0  0  0  0  0  0  0  0  0
   48.4451    6.4952   13.6930 H   0  0  0  0  0  0  0  0  0  0  0  0
   48.5561    8.8413   12.9944 H   0  0  0  0  0  0  0  0  0  0  0  0
   48.7517   10.1692   10.2442 H   0  0  0  0  0  0  0  0  0  0  0  0
   50.8000   11.5611   10.4581 H   0  0  0  0  0  0  0  0  0  0  0  0
   49.0611   13.6786   13.7481 H   0  0  0  0  0  0  0  0  0  0  0  0
   47.0003   12.3052   13.5684 H   0  0  0  0  0  0  0  0  0  0  0  0
   42.8926   10.7322    9.5077 H   0  0  0  0  0  0  0  0  0  0  0  0
   40.7457    9.8123   10.3530 H   0  0  0  0  0  0  0  0  0  0  0  0
   41.5574    9.2159   11.8664 H   0  0  0  0  0  0  0  0  0  0  0  0
   42.2243   11.5682   12.4387 H   0  0  0  0  0  0  0  0  0  0  0  0
   41.4233   12.1726   10.9217 H   0  0  0  0  0  0  0  0  0  0  0  0
   48.4044   15.9612    7.2226 H   0  0  0  0  0  0  0  0  0  0  0  0
   46.7174   15.5094    6.8899 H   0  0  0  0  0  0  0  0  0  0  0  0
  2  1  1  0
  2  3  1  0
  3  4  1  0
  4  5  1  0
  4  6  1  0
  6  7  2  0
  7  8  1  0
  8  9  2  0
  9 10  1  0
 10 11  2  0
 11 12  1  0
 12 13  2  0
 13 14  1  0
 14 15  2  0
 15 16  1  0
 11 16  1  0
 16 17  2  0
  8 17  1  0
 17 18  1  0
 18 19  2  0
 19 20  1  0
 20 21  2  0
 21 22  1  0
 21 23  1  0
 23 24  2  0
 18 24  1  0
  9 25  1  0
 25 26  1  0
 26 27  1  0
 25 27  1  0
  2 28  1  0
 28 29  1  0
 29 30  2  0
 29 31  1  0
 34 33  1  0
 34 35  1  0
 35 36  1  0
 36 37  1  0
 36 38  1  0
 38 39  2  0
 39 40  1  0
 40 41  2  0
 41 42  1  0
 42 43  2  0
 43 44  1  0
 44 45  2  0
 45 46  1  0
 46 47  2  0
 47 48  1  0
 43 48  1  0
 48 49  2  0
 40 49  1  0
 49 50  1  0
 50 51  2  0
 51 52  1  0
 52 53  2  0
 53 54  1  0
 53 55  1  0
 55 56  2  0
 50 56  1  0
 41 57  1  0
 57 58  1  0
 58 59  1  0
 57 59  1  0
 34 60  1  0
 60 61  1  0
 61 62  2  0
 61 63  1  0
  1 64  1  0
  2 65  1  1
  3 66  1  0
  3 67  1  0
  4 68  1  1
  5 69  1  0
  6 70  1  0
  7 71  1  0
 12 72  1  0
 13 73  1  0
 14 74  1  0
 15 75  1  0
 19 76  1  0
 20 77  1  0
 23 78  1  0
 24 79  1  0
 25 80  1  0
 26 81  1  0
 26 82  1  0
 27 83  1  0
 27 84  1  0
 28 85  1  0
 28 86  1  0
 33 87  1  0
 34 88  1  6
 35 89  1  0
 35 90  1  0
 36 91  1  1
 37 92  1  0
 38 93  1  0
 39 94  1  0
 44 95  1  0
 45 96  1  0
 46 97  1  0
 47 98  1  0
 51 99  1  0
 52100  1  0
 55101  1  0
 56102  1  0
 57103  1  0
 58104  1  0
 58105  1  0
 59106  1  0
 59107  1  0
 60108  1  0
 60109  1  0
M  CHG  3  31  -1  32   2  63  -1
M  END
> <Uni-Dock RESULT> 
ENERGY=   -5.705  LOWER_BOUND=    3.255  UPPER_BOUND=    9.361
INTER + INTRA:          -5.705
INTER:                  -5.705
INTRA:                   0.000
UNBOUND:                 0.000

$$$$

     RDKit          3D

109114  0  0  0  0  0  0  0  0999 V2000
   47.6402    8.6072   14.8052 O   0  0  0  0  0  0  0  0  0  0  0  0
   47.3189    8.2044   13.4688 C   0  0  2  0  0  0  0  0  0  0  0  0
   46.5515    9.3394   12.7711 C   0  0  0  0  0  0  0  0  0  0  0  0
   47.4799   10.4339   12.2210 C   0  0  2  0  0  0  0  0  0  0  0  0
   48.0025   11.2469   13.2630 O   0  0  0  0  0  0  0  0  0  0  0  0
   46.7392   11.3007   11.2304 C   0  0  0  0  0  0  0  0  0  0  0  0
   46.3043   12.5519   11.4550 C   0  0  0  0  0  0  0  0  0  0  0  0
   45.5599   13.3237   10.4442 C   0  0  0  0  0  0  0  0  0  0  0  0
   44.1528   13.3091   10.4576 C   0  0  0  0  0  0  0  0  0  0  0  0
   43.4310   14.0212    9.5510 N   0  0  0  0  0  0  0  0  0  0  0  0
   44.0617   14.7382    8.6137 C   0  0  0  0  0  0  0  0  0  0  0  0
   43.2778   15.4390    7.7086 C   0  0  0  0  0  0  0  0  0  0  0  0
   43.8359   16.2234    6.6977 C   0  0  0  0  0  0  0  0  0  0  0  0
   45.2143   16.3151    6.5838 C   0  0  0  0  0  0  0  0  0  0  0  0
   46.0236   15.6148    7.4787 C   0  0  0  0  0  0  0  0  0  0  0  0
   45.4656   14.8142    8.5104 C   0  0  0  0  0  0  0  0  0  0  0  0
   46.2351   14.0867    9.4607 C   0  0  0  0  0  0  0  0  0  0  0  0
   47.7131   14.1367    9.4296 C   0  0  0  0  0  0  0  0  0  0  0  0
   48.4450   13.2334    8.6393 C   0  0  0  0  0  0  0  0  0  0  0  0
   49.8412   13.2896    8.6038 C   0  0  0  0  0  0  0  0  0  0  0  0
   50.5092   14.2429    9.3617 C   0  0  0  0  0  0  0  0  0  0  0  0
   51.8474   14.2925    9.3319 F   0  0  0  0  0  0  0  0  0  0  0  0
   49.8083   15.1452   10.1531 C   0  0  0  0  0  0  0  0  0  0  0  0
   48.4122   15.0931   10.1872 C   0  0  0  0  0  0  0  0  0  0  0  0
   43.3657   12.5092   11.4874 C   0  0  0  0  0  0  0  0  0  0  0  0
   41.9835   11.9816   11.1785 C   0  0  0  0  0  0  0  0  0  0  0  0
   43.1381   11.0312   11.2647 C   0  0  0  0  0  0  0  0  0  0  0  0
   46.4738    6.9348   13.5327 C   0  0  0  0  0  0  0  0  0  0  0  0
   47.3900    5.7602   13.8675 C   0  0  0  0  0  0  0  0  0  0  0  0
   47.2531    4.7462   13.1278 O   0  0  0  0  0  0  0  0  0  0  0  0
   48.1830    5.9545   14.8382 O   0  0  0  0  0  0  0  0  0  0  0  0
   46.2804   12.0619   10.7247 Ca  0  0  0  0  0 15  0  0  0  0  0  0
   48.0988   17.0701    9.5260 O   0  0  0  0  0  0  0  0  0  0  0  0
   47.0538   16.3171    8.8878 C   0  0  2  0  0  0  0  0  0  0  0  0
   47.0175   14.9336    9.5564 C   0  0  0  0  0  0  0  0  0  0  0  0
   45.7784   14.1133    9.1909 C   0  0  2  0  0  0  0  0  0  0  0  0
   44.6148   14.7443    9.7172 O   0  0  0  0  0  0  0  0  0  0  0  0
   45.8698   12.7069    9.7237 C   0  0  0  0  0  0  0  0  0  0  0  0
   45.2036   12.2251   10.7856 C   0  0  0  0  0  0  0  0  0  0  0  0
   45.3081   10.8265   11.2451 C   0  0  0  0  0  0  0  0  0  0  0  0
   44.1707   10.0042   11.1552 C   0  0  0  0  0  0  0  0  0  0  0  0
   44.2040    8.7067   11.5592 N   0  0  0  0  0  0  0  0  0  0  0  0
   45.3223    8.1994   12.0900 C   0  0  0  0  0  0  0  0  0  0  0  0
   45.2901    6.8764   12.5052 C   0  0  0  0  0  0  0  0  0  0  0  0
   46.3971    6.2509   13.0794 C   0  0  0  0  0  0  0  0  0  0  0  0
   47.5709    6.9677   13.2516 C   0  0  0  0  0  0  0  0  0  0  0  0
   47.6259    8.2984   12.8405 C   0  0  0  0  0  0  0  0  0  0  0  0
   46.5103    8.9404   12.2417 C   0  0  0  0  0  0  0  0  0  0  0  0
   46.5044   10.2920   11.7886 C   0  0  0  0  0  0  0  0  0  0  0  0
   47.7257   11.1224   11.9030 C   0  0  0  0  0  0  0  0  0  0  0  0
   48.8097   10.9266   11.0259 C   0  0  0  0  0  0  0  0  0  0  0  0
   49.9655   11.7024   11.1374 C   0  0  0  0  0  0  0  0  0  0  0  0
   50.0438   12.6789   12.1230 C   0  0  0  0  0  0  0  0  0  0  0  0
   51.1572   13.4159   12.2370 F   0  0  0  0  0  0  0  0  0  0  0  0
   48.9876   12.8976   12.9971 C   0  0  0  0  0  0  0  0  0  0  0  0
   47.8303   12.1213   12.8883 C   0  0  0  0  0  0  0  0  0  0  0  0
   42.8572   10.5020   10.5712 C   0  0  0  0  0  0  0  0  0  0  0  0
   41.5386    9.9579   11.0749 C   0  0  0  0  0  0  0  0  0  0  0  0
   41.9397   11.3593   11.4141 C   0  0  0  0  0  0  0  0  0  0  0  0
   47.3581   16.2411    7.3914 C   0  0  0  0  0  0  0  0  0  0  0  0
   47.1399   17.6031    6.7328 C   0  0  0  0  0  0  0  0  0  0  0  0
   47.4521   18.6016    7.4468 O   0  0  0  0  0  0  0  0  0  0  0  0
   46.6880   17.5581    5.5550 O   0  0  0  0  0  0  0  0  0  0  0  0
   48.0460    7.7933   15.1991 H   0  0  0  0  0  0  0  0  0  0  0  0
   48.2625    8.0102   12.9402 H   0  0  0  0  0  0  0  0  0  0  0  0
   45.9801    8.9202   11.9338 H   0  0  0  0  0  0  0  0  0  0  0  0
   45.8401    9.7821   13.4827 H   0  0  0  0  0  0  0  0  0  0  0  0
   48.3318    9.9815   11.7015 H   0  0  0  0  0  0  0  0  0  0  0  0
   48.5912   11.8995   12.8414 H   0  0  0  0  0  0  0  0  0  0  0  0
   46.5383   10.8361   10.2656 H   0  0  0  0  0  0  0  0  0  0  0  0
   46.4429   13.0359   12.4179 H   0  0  0  0  0  0  0  0  0  0  0  0
   42.1936   15.3706    7.7959 H   0  0  0  0  0  0  0  0  0  0  0  0
   43.1902   16.7611    6.0091 H   0  0  0  0  0  0  0  0  0  0  0  0
   45.6645   16.9213    5.8039 H   0  0  0  0  0  0  0  0  0  0  0  0
   47.1038   15.7006    7.3718 H   0  0  0  0  0  0  0  0  0  0  0  0
   47.9262   12.4789    8.0490 H   0  0  0  0  0  0  0  0  0  0  0  0
   50.4104   12.5865    8.0024 H   0  0  0  0  0  0  0  0  0  0  0  0
   50.3487   15.8827   10.7385 H   0  0  0  0  0  0  0  0  0  0  0  0
   47.8655   15.7951   10.8142 H   0  0  0  0  0  0  0  0  0  0  0  0
   43.5265   12.8144   12.5165 H   0  0  0  0  0  0  0  0  0  0  0  0
   41.2577   11.9596   11.9805 H   0  0  0  0  0  0  0  0  0  0  0  0
   41.5626   12.1858   10.2014 H   0  0  0  0  0  0  0  0  0  0  0  0
   43.2117   10.3818   12.1310 H   0  0  0  0  0  0  0  0  0  0  0  0
   43.4954   10.5872   10.3444 H   0  0  0  0  0  0  0  0  0  0  0  0
   45.6985    7.0076   14.3016 H   0  0  0  0  0  0  0  0  0  0  0  0
   45.9944    6.7323   12.5682 H   0  0  0  0  0  0  0  0  0  0  0  0
   48.1105   17.9191    9.0063 H   0  0  0  0  0  0  0  0  0  0  0  0
   46.1133   16.8478    9.0798 H   0  0  0  0  0  0  0  0  0  0  0  0
   47.9320   14.3806    9.2967 H   0  0  0  0  0  0  0  0  0  0  0  0
   47.0541   15.0765   10.6460 H   0  0  0  0  0  0  0  0  0  0  0  0
   45.6621   14.0581    8.1042 H   0  0  0  0  0  0  0  0  0  0  0  0
   43.8728   14.4411    9.1718 H   0  0  0  0  0  0  0  0  0  0  0  0
   46.5561   12.0623    9.1825 H   0  0  0  0  0  0  0  0  0  0  0  0
   44.5197   12.8577   11.3481 H   0  0  0  0  0  0  0  0  0  0  0  0
   44.3702    6.3110   12.3690 H   0  0  0  0  0  0  0  0  0  0  0  0
   46.3370    5.2079   13.3819 H   0  0  0  0  0  0  0  0  0  0  0  0
   48.4450    6.4951   13.6930 H   0  0  0  0  0  0  0  0  0  0  0  0
   48.5561    8.8413   12.9944 H   0  0  0  0  0  0  0  0  0  0  0  0
   48.7516   10.1691   10.2441 H   0  0  0  0  0  0  0  0  0  0  0  0
   50.7999   11.5611   10.4581 H   0  0  0  0  0  0  0  0  0  0  0  0
   49.0611   13.6786   13.7481 H   0  0  0  0  0  0  0  0  0  0  0  0
   47.0002   12.3051   13.5684 H   0  0  0  0  0  0  0  0  0  0  0  0
   42.8926   10.7322    9.5077 H   0  0  0  0  0  0  0  0  0  0  0  0
   40.7456    9.8122   10.3529 H   0  0  0  0  0  0  0  0  0  0  0  0
   41.5573    9.2158   11.8663 H   0  0  0  0  0  0  0  0  0  0  0  0
   42.2242   11.5682   12.4387 H   0  0  0  0  0  0  0  0  0  0  0  0
   41.4233   12.1725   10.9216 H   0  0  0  0  0  0  0  0  0  0  0  0
   48.4043   15.9611    7.2226 H   0  0  0  0  0  0  0  0  0  0  0  0
   46.7173   15.5093    6.8899 H   0  0  0  0  0  0  0  0  0  0  0  0
  2  1  1  0
  2  3  1  0
  3  4  1  0
  4  5  1  0
  4  6  1  0
  6  7  2  0
  7  8  1  0
  8  9  2  0
  9 10  1  0
 10 11  2  0
 11 12  1  0
 12 13  2  0
 13 14  1  0
 14 15  2  0
 15 16  1  0
 11 16  1  0
 16 17  2  0
  8 17  1  0
 17 18  1  0
 18 19  2  0
 19 20  1  0
 20 21  2  0
 21 22  1  0
 21 23  1  0
 23 24  2  0
 18 24  1  0
  9 25  1  0
 25 26  1  0
 26 27  1  0
 25 27  1  0
  2 28  1  0
 28 29  1  0
 29 30  2  0
 29 31  1  0
 34 33  1  0
 34 35  1  0
 35 36  1  0
 36 37  1  0
 36 38  1  0
 38 39  2  0
 39 40  1  0
 40 41  2  0
 41 42  1  0
 42 43  2  0
 43 44  1  0
 44 45  2  0
 45 46  1  0
 46 47  2  0
 47 48  1  0
 43 48  1  0
 48 49  2  0
 40 49  1  0
 49 50  1  0
 50 51  2  0
 51 52  1  0
 52 53  2  0
 53 54  1  0
 53 55  1  0
 55 56  2  0
 50 56  1  0
 41 57  1  0
 57 58  1  0
 58 59  1  0
 57 59  1  0
 34 60  1  0
 60 61  1  0
 61 62  2  0
 61 63  1  0
  1 64  1  0
  2 65  1  1
  3 66  1  0
  3 67  1  0
  4 68  1  1
  5 69  1  0
  6 70  1  0
  7 71  1  0
 12 72  1  0
 13 73  1  0
 14 74  1  0
 15 75  1  0
 19 76  1  0
 20 77  1  0
 23 78  1  0
 24 79  1  0
 25 80  1  0
 26 81  1  0
 26 82  1  0
 27 83  1  0
 27 84  1  0
 28 85  1  0
 28 86  1  0
 33 87  1  0
 34 88  1  6
 35 89  1  0
 35 90  1  0
 36 91  1  1
 37 92  1  0
 38 93  1  0
 39 94  1  0
 44 95  1  0
 45 96  1  0
 46 97  1  0
 47 98  1  0
 51 99  1  0
 52100  1  0
 55101  1  0
 56102  1  0
 57103  1  0
 58104  1  0
 58105  1  0
 59106  1  0
 59107  1  0
 60108  1  0
 60109  1  0
M  CHG  3  31  -1  32   2  63  -1
M  END
> <Uni-Dock RESULT> 
ENERGY=   -5.705  LOWER_BOUND=    3.255  UPPER_BOUND=    9.361
INTER + INTRA:          -5.705
INTER:                  -5.705
INTRA:                   0.000
UNBOUND:                 0.000

$$$$

     RDKit          3D

109114  0  0  0  0  0  0  0  0999 V2000
   48.4546    6.5920   14.9564 O   0  0  0  0  0  0  0  0  0  0  0  0
   48.0015    6.6216   13.5980 C   0  0  2  0  0  0  0  0  0  0  0  0
   48.1384    8.0524   13.0521 C   0  0  0  0  0  0  0  0  0  0  0  0
   49.5668    8.3762   12.5856 C   0  0  2  0  0  0  0  0  0  0  0  0
   50.4441    8.5689   13.6870 O   0  0  0  0  0  0  0  0  0  0  0  0
   49.5678    9.6136   11.7196 C   0  0  0  0  0  0  0  0  0  0  0  0
   50.0027   10.8296   12.0901 C   0  0  0  0  0  0  0  0  0  0  0  0
   49.9421   11.9979   11.1940 C   0  0  0  0  0  0  0  0  0  0  0  0
   48.8355   12.8650   11.2582 C   0  0  0  0  0  0  0  0  0  0  0  0
   48.7513   13.9621   10.4586 N   0  0  0  0  0  0  0  0  0  0  0  0
   49.7257   14.2206    9.5788 C   0  0  0  0  0  0  0  0  0  0  0  0
   49.5861   15.3477    8.7819 C   0  0  0  0  0  0  0  0  0  0  0  0
   50.5488   15.7115    7.8388 C   0  0  0  0  0  0  0  0  0  0  0  0
   51.6849   14.9326    7.6840 C   0  0  0  0  0  0  0  0  0  0  0  0
   51.8451   13.7912    8.4699 C   0  0  0  0  0  0  0  0  0  0  0  0
   50.8716   13.4125    9.4320 C   0  0  0  0  0  0  0  0  0  0  0  0
   50.9817   12.2691   10.2715 C   0  0  0  0  0  0  0  0  0  0  0  0
   52.1663   11.3870   10.1911 C   0  0  0  0  0  0  0  0  0  0  0  0
   52.2013   10.3137    9.2838 C   0  0  0  0  0  0  0  0  0  0  0  0
   53.3261    9.4881    9.2025 C   0  0  0  0  0  0  0  0  0  0  0  0
   54.4150    9.7282   10.0308 C   0  0  0  0  0  0  0  0  0  0  0  0
   55.4904    8.9331    9.9567 F   0  0  0  0  0  0  0  0  0  0  0  0
   54.4036   10.7812   10.9379 C   0  0  0  0  0  0  0  0  0  0  0  0
   53.2813   11.6101   11.0182 C   0  0  0  0  0  0  0  0  0  0  0  0
   47.6839   12.6303   12.2269 C   0  0  0  0  0  0  0  0  0  0  0  0
   46.2879   13.1188   11.9160 C   0  0  0  0  0  0  0  0  0  0  0  0
   46.5905   11.6529   11.8592 C   0  0  0  0  0  0  0  0  0  0  0  0
   46.5465    6.1613   13.5598 C   0  0  0  0  0  0  0  0  0  0  0  0
   46.5141    4.6450   13.7354 C   0  0  0  0  0  0  0  0  0  0  0  0
   45.8006    4.0240   12.8991 O   0  0  0  0  0  0  0  0  0  0  0  0
   47.2181    4.1977   14.6910 O   0  0  0  0  0  0  0  0  0  0  0  0
   49.7046   10.5422   11.3138 Ca  0  0  0  0  0 15  0  0  0  0  0  0
   54.2974   13.4044   10.5800 O   0  0  0  0  0  0  0  0  0  0  0  0
   53.0354   13.5424    9.9056 C   0  0  2  0  0  0  0  0  0  0  0  0
   52.1176   12.4249   10.4264 C   0  0  0  0  0  0  0  0  0  0  0  0
   50.6522   12.6035   10.0232 C   0  0  2  0  0  0  0  0  0  0  0  0
   50.1202   13.7638   10.6556 O   0  0  0  0  0  0  0  0  0  0  0  0
   49.8245   11.4028   10.4019 C   0  0  0  0  0  0  0  0  0  0  0  0
   48.9649   11.3352   11.4314 C   0  0  0  0  0  0  0  0  0  0  0  0
   48.1550   10.1400   11.7376 C   0  0  0  0  0  0  0  0  0  0  0  0
   46.7575   10.2246   11.6043 C   0  0  0  0  0  0  0  0  0  0  0  0
   45.9575    9.1579   11.8686 N   0  0  0  0  0  0  0  0  0  0  0  0
   46.4925    8.0107   12.3014 C   0  0  0  0  0  0  0  0  0  0  0  0
   45.6250    6.9640   12.5765 C   0  0  0  0  0  0  0  0  0  0  0  0
   46.0759    5.7279   13.0405 C   0  0  0  0  0  0  0  0  0  0  0  0
   47.4328    5.5304   13.2431 C   0  0  0  0  0  0  0  0  0  0  0  0
   48.3227    6.5683   12.9721 C   0  0  0  0  0  0  0  0  0  0  0  0
   47.8764    7.8252   12.4857 C   0  0  0  0  0  0  0  0  0  0  0  0
   48.7335    8.9217   12.1773 C   0  0  0  0  0  0  0  0  0  0  0  0
   50.2006    8.7883   12.3327 C   0  0  0  0  0  0  0  0  0  0  0  0
   50.9555    8.0513   11.4002 C   0  0  0  0  0  0  0  0  0  0  0  0
   52.3376    7.9170   11.5494 C   0  0  0  0  0  0  0  0  0  0  0  0
   52.9728    8.5198   12.6283 C   0  0  0  0  0  0  0  0  0  0  0  0
   54.2974    8.3818   12.7775 F   0  0  0  0  0  0  0  0  0  0  0  0
   52.2539    9.2576   13.5592 C   0  0  0  0  0  0  0  0  0  0  0  0
   50.8703    9.3922   13.4126 C   0  0  0  0  0  0  0  0  0  0  0  0
   46.0663   11.4920   11.1249 C   0  0  0  0  0  0  0  0  0  0  0  0
   44.6796   11.8427   11.6174 C   0  0  0  0  0  0  0  0  0  0  0  0
   45.8559   12.6402   12.0866 C   0  0  0  0  0  0  0  0  0  0  0  0
   53.2803   13.4504    8.3992 C   0  0  0  0  0  0  0  0  0  0  0  0
   53.9859   14.7093    7.8956 C   0  0  0  0  0  0  0  0  0  0  0  0
   54.8272   15.2114    8.6982 O   0  0  0  0  0  0  0  0  0  0  0  0
   53.6488   15.0806    6.7371 O   0  0  0  0  0  0  0  0  0  0  0  0
   48.2476    5.6675   15.2475 H   0  0  0  0  0  0  0  0  0  0  0  0
   48.6351    5.9370   13.0173 H   0  0  0  0  0  0  0  0  0  0  0  0
   47.4617    8.1733   12.1973 H   0  0  0  0  0  0  0  0  0  0  0  0
   47.8345    8.7648   13.8321 H   0  0  0  0  0  0  0  0  0  0  0  0
   49.9672    7.5482   11.9903 H   0  0  0  0  0  0  0  0  0  0  0  0
   51.3266    8.7498   13.3146 H   0  0  0  0  0  0  0  0  0  0  0  0
   49.1562    9.4811   10.7195 H   0  0  0  0  0  0  0  0  0  0  0  0
   50.3779   11.0162   13.0926 H   0  0  0  0  0  0  0  0  0  0  0  0
   48.6949   15.9634    8.9018 H   0  0  0  0  0  0  0  0  0  0  0  0
   50.4070   16.6033    7.2348 H   0  0  0  0  0  0  0  0  0  0  0  0
   52.4436   15.2019    6.9557 H   0  0  0  0  0  0  0  0  0  0  0  0
   52.7448   13.1934    8.3326 H   0  0  0  0  0  0  0  0  0  0  0  0
   51.3468   10.1165    8.6373 H   0  0  0  0  0  0  0  0  0  0  0  0
   53.3525    8.6516    8.5100 H   0  0  0  0  0  0  0  0  0  0  0  0
   55.2645   10.9523   11.5769 H   0  0  0  0  0  0  0  0  0  0  0  0
   53.2710   12.4290   11.7352 H   0  0  0  0  0  0  0  0  0  0  0  0
   47.9622   12.6578   13.2757 H   0  0  0  0  0  0  0  0  0  0  0  0
   45.6787   13.4714   12.7376 H   0  0  0  0  0  0  0  0  0  0  0  0
   46.1233   13.6424   10.9820 H   0  0  0  0  0  0  0  0  0  0  0  0
   46.2100   11.0138   12.6493 H   0  0  0  0  0  0  0  0  0  0  0  0
   46.6254   11.1827   10.8847 H   0  0  0  0  0  0  0  0  0  0  0  0
   45.9593    6.6216   14.3603 H   0  0  0  0  0  0  0  0  0  0  0  0
   46.0817    6.4057   12.5978 H   0  0  0  0  0  0  0  0  0  0  0  0
   54.8565   14.1083   10.1520 H   0  0  0  0  0  0  0  0  0  0  0  0
   52.6270   14.5207   10.1870 H   0  0  0  0  0  0  0  0  0  0  0  0
   52.4944   11.4528   10.0763 H   0  0  0  0  0  0  0  0  0  0  0  0
   52.1954   12.3982   11.5229 H   0  0  0  0  0  0  0  0  0  0  0  0
   50.5670   12.7475    8.9418 H   0  0  0  0  0  0  0  0  0  0  0  0
   49.3722   14.0504   10.1094 H   0  0  0  0  0  0  0  0  0  0  0  0
   49.9765   10.5319    9.7710 H   0  0  0  0  0  0  0  0  0  0  0  0
   48.8065   12.1930   12.0822 H   0  0  0  0  0  0  0  0  0  0  0  0
   44.5594    7.1162   12.4161 H   0  0  0  0  0  0  0  0  0  0  0  0
   45.3658    4.9272   13.2341 H   0  0  0  0  0  0  0  0  0  0  0  0
   47.8025    4.5721   13.5999 H   0  0  0  0  0  0  0  0  0  0  0  0
   49.3816    6.3905   13.1474 H   0  0  0  0  0  0  0  0  0  0  0  0
   50.4654    7.5838   10.5461 H   0  0  0  0  0  0  0  0  0  0  0  0
   52.9247    7.3573   10.8286 H   0  0  0  0  0  0  0  0  0  0  0  0
   52.7718    9.7369   14.3846 H   0  0  0  0  0  0  0  0  0  0  0  0
   50.3131    9.9819   14.1386 H   0  0  0  0  0  0  0  0  0  0  0  0
   46.2769   11.7595   10.0908 H   0  0  0  0  0  0  0  0  0  0  0  0
   43.9968   12.3016   10.9141 H   0  0  0  0  0  0  0  0  0  0  0  0
   44.2011   11.1741   12.3255 H   0  0  0  0  0  0  0  0  0  0  0  0
   46.1706   12.5163   13.1161 H   0  0  0  0  0  0  0  0  0  0  0  0
   45.9799   13.6437   11.7015 H   0  0  0  0  0  0  0  0  0  0  0  0
   53.9271   12.5975    8.1633 H   0  0  0  0  0  0  0  0  0  0  0  0
   52.3416   13.3377    7.8479 H   0  0  0  0  0  0  0  0  0  0  0  0
  2  1  1  0
  2  3  1  0
  3  4  1  0
  4  5  1  0
  4  6  1  0
  6  7  2  0
  7  8  1  0
  8  9  2  0
  9 10  1  0
 10 11  2  0
 11 12  1  0
 12 13  2  0
 13 14  1  0
 14 15  2  0
 15 16  1  0
 11 16  1  0
 16 17  2  0
  8 17  1  0
 17 18  1  0
 18 19  2  0
 19 20  1  0
 20 21  2  0
 21 22  1  0
 21 23  1  0
 23 24  2  0
 18 24  1  0
  9 25  1  0
 25 26  1  0
 26 27  1  0
 25 27  1  0
  2 28  1  0
 28 29  1  0
 29 30  2  0
 29 31  1  0
 34 33  1  0
 34 35  1  0
 35 36  1  0
 36 37  1  0
 36 38  1  0
 38 39  2  0
 39 40  1  0
 40 41  2  0
 41 42  1  0
 42 43  2  0
 43 44  1  0
 44 45  2  0
 45 46  1  0
 46 47  2  0
 47 48  1  0
 43 48  1  0
 48 49  2  0
 40 49  1  0
 49 50  1  0
 50 51  2  0
 51 52  1  0
 52 53  2  0
 53 54  1  0
 53 55  1  0
 55 56  2  0
 50 56  1  0
 41 57  1  0
 57 58  1  0
 58 59  1  0
 57 59  1  0
 34 60  1  0
 60 61  1  0
 61 62  2  0
 61 63  1  0
  1 64  1  0
  2 65  1  1
  3 66  1  0
  3 67  1  0
  4 68  1  1
  5 69  1  0
  6 70  1  0
  7 71  1  0
 12 72  1  0
 13 73  1  0
 14 74  1  0
 15 75  1  0
 19 76  1  0
 20 77  1  0
 23 78  1  0
 24 79  1  0
 25 80  1  0
 26 81  1  0
 26 82  1  0
 27 83  1  0
 27 84  1  0
 28 85  1  0
 28 86  1  0
 33 87  1  0
 34 88  1  6
 35 89  1  0
 35 90  1  0
 36 91  1  1
 37 92  1  0
 38 93  1  0
 39 94  1  0
 44 95  1  0
 45 96  1  0
 46 97  1  0
 47 98  1  0
 51 99  1  0
 52100  1  0
 55101  1  0
 56102  1  0
 57103  1  0
 58104  1  0
 58105  1  0
 59106  1  0
 59107  1  0
 60108  1  0
 60109  1  0
M  CHG  3  31  -1  32   2  63  -1
M  END
> <Uni-Dock RESULT> 
ENERGY=   -5.626  LOWER_BOUND=    3.483  UPPER_BOUND=    8.297
INTER + INTRA:          -5.626
INTER:                  -5.626
INTRA:                   0.000
UNBOUND:                 0.000

$$$$

     RDKit          3D

109114  0  0  0  0  0  0  0  0999 V2000
   48.4543    6.5920   14.9564 O   0  0  0  0  0  0  0  0  0  0  0  0
   48.0013    6.6216   13.5980 C   0  0  2  0  0  0  0  0  0  0  0  0
   48.1383    8.0524   13.0521 C   0  0  0  0  0  0  0  0  0  0  0  0
   49.5666    8.3763   12.5857 C   0  0  2  0  0  0  0  0  0  0  0  0
   50.4439    8.5689   13.6872 O   0  0  0  0  0  0  0  0  0  0  0  0
   49.5677    9.6136   11.7197 C   0  0  0  0  0  0  0  0  0  0  0  0
   50.0025   10.8296   12.0903 C   0  0  0  0  0  0  0  0  0  0  0  0
   49.9420   11.9980   11.1942 C   0  0  0  0  0  0  0  0  0  0  0  0
   48.8353   12.8650   11.2583 C   0  0  0  0  0  0  0  0  0  0  0  0
   48.7512   13.9622   10.4588 N   0  0  0  0  0  0  0  0  0  0  0  0
   49.7257   14.2207    9.5791 C   0  0  0  0  0  0  0  0  0  0  0  0
   49.5861   15.3478    8.7822 C   0  0  0  0  0  0  0  0  0  0  0  0
   50.5488   15.7116    7.8391 C   0  0  0  0  0  0  0  0  0  0  0  0
   51.6850   14.9328    7.6844 C   0  0  0  0  0  0  0  0  0  0  0  0
   51.8452   13.7913    8.4702 C   0  0  0  0  0  0  0  0  0  0  0  0
   50.8716   13.4127    9.4323 C   0  0  0  0  0  0  0  0  0  0  0  0
   50.9817   12.2692   10.2718 C   0  0  0  0  0  0  0  0  0  0  0  0
   52.1663   11.3872   10.1914 C   0  0  0  0  0  0  0  0  0  0  0  0
   52.2013   10.3139    9.2841 C   0  0  0  0  0  0  0  0  0  0  0  0
   53.3262    9.4883    9.2029 C   0  0  0  0  0  0  0  0  0  0  0  0
   54.4150    9.7284   10.0312 C   0  0  0  0  0  0  0  0  0  0  0  0
   55.4904    8.9333    9.9572 F   0  0  0  0  0  0  0  0  0  0  0  0
   54.4035   10.7813   10.9383 C   0  0  0  0  0  0  0  0  0  0  0  0
   53.2813   11.6102   11.0186 C   0  0  0  0  0  0  0  0  0  0  0  0
   47.6837   12.6303   12.2270 C   0  0  0  0  0  0  0  0  0  0  0  0
   46.2877   13.1188   11.9160 C   0  0  0  0  0  0  0  0  0  0  0  0
   46.5904   11.6529   11.8592 C   0  0  0  0  0  0  0  0  0  0  0  0
   46.5463    6.1613   13.5597 C   0  0  0  0  0  0  0  0  0  0  0  0
   46.5140    4.6450   13.7352 C   0  0  0  0  0  0  0  0  0  0  0  0
   45.8005    4.0240   12.8989 O   0  0  0  0  0  0  0  0  0  0  0  0
   47.2179    4.1976   14.6909 O   0  0  0  0  0  0  0  0  0  0  0  0
   49.7045   10.5423   11.3140 Ca  0  0  0  0  0 15  0  0  0  0  0  0
   54.2973   13.4046   10.5805 O   0  0  0  0  0  0  0  0  0  0  0  0
   53.0354   13.5425    9.9060 C   0  0  2  0  0  0  0  0  0  0  0  0
   52.1176   12.4251   10.4268 C   0  0  0  0  0  0  0  0  0  0  0  0
   50.6522   12.6036   10.0235 C   0  0  2  0  0  0  0  0  0  0  0  0
   50.1201   13.7639   10.6559 O   0  0  0  0  0  0  0  0  0  0  0  0
   49.8245   11.4028   10.4020 C   0  0  0  0  0  0  0  0  0  0  0  0
   48.9648   11.3353   11.4316 C   0  0  0  0  0  0  0  0  0  0  0  0
   48.1549   10.1400   11.7377 C   0  0  0  0  0  0  0  0  0  0  0  0
   46.7574   10.2246   11.6043 C   0  0  0  0  0  0  0  0  0  0  0  0
   45.9574    9.1579   11.8685 N   0  0  0  0  0  0  0  0  0  0  0  0
   46.4924    8.0107   12.3013 C   0  0  0  0  0  0  0  0  0  0  0  0
   45.6249    6.9640   12.5764 C   0  0  0  0  0  0  0  0  0  0  0  0
   46.0757    5.7279   13.0404 C   0  0  0  0  0  0  0  0  0  0  0  0
   47.4327    5.5304   13.2431 C   0  0  0  0  0  0  0  0  0  0  0  0
   48.3226    6.5683   12.9721 C   0  0  0  0  0  0  0  0  0  0  0  0
   47.8763    7.8252   12.4857 C   0  0  0  0  0  0  0  0  0  0  0  0
   48.7334    8.9217   12.1774 C   0  0  0  0  0  0  0  0  0  0  0  0
   50.2005    8.7884   12.3328 C   0  0  0  0  0  0  0  0  0  0  0  0
   50.9554    8.0514   11.4004 C   0  0  0  0  0  0  0  0  0  0  0  0
   52.3375    7.9171   11.5497 C   0  0  0  0  0  0  0  0  0  0  0  0
   52.9726    8.5199   12.6287 C   0  0  0  0  0  0  0  0  0  0  0  0
   54.2972    8.3819   12.7779 F   0  0  0  0  0  0  0  0  0  0  0  0
   52.2537    9.2576   13.5595 C   0  0  0  0  0  0  0  0  0  0  0  0
   50.8701    9.3922   13.4128 C   0  0  0  0  0  0  0  0  0  0  0  0
   46.0662   11.4920   11.1249 C   0  0  0  0  0  0  0  0  0  0  0  0
   44.6794   11.8427   11.6173 C   0  0  0  0  0  0  0  0  0  0  0  0
   45.8557   12.6402   12.0865 C   0  0  0  0  0  0  0  0  0  0  0  0
   53.2803   13.4506    8.3997 C   0  0  0  0  0  0  0  0  0  0  0  0
   53.9860   14.7095    7.8961 C   0  0  0  0  0  0  0  0  0  0  0  0
   54.8272   15.2116    8.6987 O   0  0  0  0  0  0  0  0  0  0  0  0
   53.6489   15.0808    6.7376 O   0  0  0  0  0  0  0  0  0  0  0  0
   48.2474    5.6675   15.2475 H   0  0  0  0  0  0  0  0  0  0  0  0
   48.6350    5.9370   13.0173 H   0  0  0  0  0  0  0  0  0  0  0  0
   47.4616    8.1733   12.1973 H   0  0  0  0  0  0  0  0  0  0  0  0
   47.8342    8.7648   13.8321 H   0  0  0  0  0  0  0  0  0  0  0  0
   49.9672    7.5483   11.9904 H   0  0  0  0  0  0  0  0  0  0  0  0
   51.3264    8.7498   13.3148 H   0  0  0  0  0  0  0  0  0  0  0  0
   49.1561    9.4812   10.7196 H   0  0  0  0  0  0  0  0  0  0  0  0
   50.3777   11.0163   13.0928 H   0  0  0  0  0  0  0  0  0  0  0  0
   48.6949   15.9636    8.9020 H   0  0  0  0  0  0  0  0  0  0  0  0
   50.4071   16.6035    7.2351 H   0  0  0  0  0  0  0  0  0  0  0  0
   52.4437   15.2021    6.9562 H   0  0  0  0  0  0  0  0  0  0  0  0
   52.7449   13.1936    8.3330 H   0  0  0  0  0  0  0  0  0  0  0  0
   51.3469   10.1167    8.6375 H   0  0  0  0  0  0  0  0  0  0  0  0
   53.3526    8.6518    8.5104 H   0  0  0  0  0  0  0  0  0  0  0  0
   55.2644   10.9525   11.5774 H   0  0  0  0  0  0  0  0  0  0  0  0
   53.2709   12.4291   11.7356 H   0  0  0  0  0  0  0  0  0  0  0  0
   47.9619   12.6578   13.2758 H   0  0  0  0  0  0  0  0  0  0  0  0
   45.6785   13.4713   12.7376 H   0  0  0  0  0  0  0  0  0  0  0  0
   46.1232   13.6425   10.9820 H   0  0  0  0  0  0  0  0  0  0  0  0
   46.2099   11.0138   12.6492 H   0  0  0  0  0  0  0  0  0  0  0  0
   46.6253   11.1827   10.8847 H   0  0  0  0  0  0  0  0  0  0  0  0
   45.9591    6.6216   14.3602 H   0  0  0  0  0  0  0  0  0  0  0  0
   46.0816    6.4056   12.5977 H   0  0  0  0  0  0  0  0  0  0  0  0
   54.8564   14.1085   10.1525 H   0  0  0  0  0  0  0  0  0  0  0  0
   52.6269   14.5208   10.1874 H   0  0  0  0  0  0  0  0  0  0  0  0
   52.4944   11.4529   10.0767 H   0  0  0  0  0  0  0  0  0  0  0  0
   52.1952   12.3983   11.5232 H   0  0  0  0  0  0  0  0  0  0  0  0
   50.5670   12.7477    8.9420 H   0  0  0  0  0  0  0  0  0  0  0  0
   49.3722   14.0505   10.1096 H   0  0  0  0  0  0  0  0  0  0  0  0
   49.9765   10.5320    9.7712 H   0  0  0  0  0  0  0  0  0  0  0  0
   48.8064   12.1930   12.0823 H   0  0  0  0  0  0  0  0  0  0  0  0
   44.5593    7.1161   12.4159 H   0  0  0  0  0  0  0  0  0  0  0  0
   45.3657    4.9271   13.2339 H   0  0  0  0  0  0  0  0  0  0  0  0
   47.8024    4.5721   13.5998 H   0  0  0  0  0  0  0  0  0  0  0  0
   49.3814    6.3905   13.1474 H   0  0  0  0  0  0  0  0  0  0  0  0
   50.4654    7.5839   10.5462 H   0  0  0  0  0  0  0  0  0  0  0  0
   52.9246    7.3575   10.8288 H   0  0  0  0  0  0  0  0  0  0  0  0
   52.7716    9.7369   14.3850 H   0  0  0  0  0  0  0  0  0  0  0  0
   50.3129    9.9819   14.1388 H   0  0  0  0  0  0  0  0  0  0  0  0
   46.2768   11.7595   10.0908 H   0  0  0  0  0  0  0  0  0  0  0  0
   43.9967   12.3016   10.9140 H   0  0  0  0  0  0  0  0  0  0  0  0
   44.2009   11.1740   12.3253 H   0  0  0  0  0  0  0  0  0  0  0  0
   46.1704   12.5163   13.1161 H   0  0  0  0  0  0  0  0  0  0  0  0
   45.9797   13.6437   11.7015 H   0  0  0  0  0  0  0  0  0  0  0  0
   53.9271   12.5977    8.1637 H   0  0  0  0  0  0  0  0  0  0  0  0
   52.3417   13.3379    7.8483 H   0  0  0  0  0  0  0  0  0  0  0  0
  2  1  1  0
  2  3  1  0
  3  4  1  0
  4  5  1  0
  4  6  1  0
  6  7  2  0
  7  8  1  0
  8  9  2  0
  9 10  1  0
 10 11  2  0
 11 12  1  0
 12 13  2  0
 13 14  1  0
 14 15  2  0
 15 16  1  0
 11 16  1  0
 16 17  2  0
  8 17  1  0
 17 18  1  0
 18 19  2  0
 19 20  1  0
 20 21  2  0
 21 22  1  0
 21 23  1  0
 23 24  2  0
 18 24  1  0
  9 25  1  0
 25 26  1  0
 26 27  1  0
 25 27  1  0
  2 28  1  0
 28 29  1  0
 29 30  2  0
 29 31  1  0
 34 33  1  0
 34 35  1  0
 35 36  1  0
 36 37  1  0
 36 38  1  0
 38 39  2  0
 39 40  1  0
 40 41  2  0
 41 42  1  0
 42 43  2  0
 43 44  1  0
 44 45  2  0
 45 46  1  0
 46 47  2  0
 47 48  1  0
 43 48  1  0
 48 49  2  0
 40 49  1  0
 49 50  1  0
 50 51  2  0
 51 52  1  0
 52 53  2  0
 53 54  1  0
 53 55  1  0
 55 56  2  0
 50 56  1  0
 41 57  1  0
 57 58  1  0
 58 59  1  0
 57 59  1  0
 34 60  1  0
 60 61  1  0
 61 62  2  0
 61 63  1  0
  1 64  1  0
  2 65  1  1
  3 66  1  0
  3 67  1  0
  4 68  1  1
  5 69  1  0
  6 70  1  0
  7 71  1  0
 12 72  1  0
 13 73  1  0
 14 74  1  0
 15 75  1  0
 19 76  1  0
 20 77  1  0
 23 78  1  0
 24 79  1  0
 25 80  1  0
 26 81  1  0
 26 82  1  0
 27 83  1  0
 27 84  1  0
 28 85  1  0
 28 86  1  0
 33 87  1  0
 34 88  1  6
 35 89  1  0
 35 90  1  0
 36 91  1  1
 37 92  1  0
 38 93  1  0
 39 94  1  0
 44 95  1  0
 45 96  1  0
 46 97  1  0
 47 98  1  0
 51 99  1  0
 52100  1  0
 55101  1  0
 56102  1  0
 57103  1  0
 58104  1  0
 58105  1  0
 59106  1  0
 59107  1  0
 60108  1  0
 60109  1  0
M  CHG  3  31  -1  32   2  63  -1
M  END
> <Uni-Dock RESULT> 
ENERGY=   -5.625  LOWER_BOUND=    3.483  UPPER_BOUND=    8.297
INTER + INTRA:          -5.625
INTER:                  -5.625
INTRA:                   0.000
UNBOUND:                 0.000

$$$$
