
     RDKit          3D

109114  0  0  0  0  0  0  0  0999 V2000
   56.0183   10.1454   17.2078 O   0  0  0  0  0  0  0  0  0  0  0  0
   55.1707   10.9106   16.3427 C   0  0  2  0  0  0  0  0  0  0  0  0
   54.1503    9.9633   15.6963 C   0  0  0  0  0  0  0  0  0  0  0  0
   53.3802    9.1451   16.7424 C   0  0  2  0  0  0  0  0  0  0  0  0
   54.2400    8.1909   17.3563 O   0  0  0  0  0  0  0  0  0  0  0  0
   52.2716    8.3595   16.1052 C   0  0  0  0  0  0  0  0  0  0  0  0
   50.9684    8.5389   16.3693 C   0  0  0  0  0  0  0  0  0  0  0  0
   49.9251    7.7499   15.6910 C   0  0  0  0  0  0  0  0  0  0  0  0
   49.3004    8.2743   14.5454 C   0  0  0  0  0  0  0  0  0  0  0  0
   48.3572    7.5654   13.8706 N   0  0  0  0  0  0  0  0  0  0  0  0
   47.9970    6.3495   14.2994 C   0  0  0  0  0  0  0  0  0  0  0  0
   47.0291    5.6716   13.5703 C   0  0  0  0  0  0  0  0  0  0  0  0
   46.5818    4.4007   13.9340 C   0  0  0  0  0  0  0  0  0  0  0  0
   47.1107    3.7862   15.0588 C   0  0  0  0  0  0  0  0  0  0  0  0
   48.0859    4.4481   15.8036 C   0  0  0  0  0  0  0  0  0  0  0  0
   48.5490    5.7411   15.4419 C   0  0  0  0  0  0  0  0  0  0  0  0
   49.5409    6.4699   16.1594 C   0  0  0  0  0  0  0  0  0  0  0  0
   50.1382    5.9020   17.3868 C   0  0  0  0  0  0  0  0  0  0  0  0
   49.5078    6.0748   18.6324 C   0  0  0  0  0  0  0  0  0  0  0  0
   50.0589    5.5221   19.7893 C   0  0  0  0  0  0  0  0  0  0  0  0
   51.2391    4.7929   19.7017 C   0  0  0  0  0  0  0  0  0  0  0  0
   51.7600    4.2504   20.8104 F   0  0  0  0  0  0  0  0  0  0  0  0
   51.8833    4.6107   18.4851 C   0  0  0  0  0  0  0  0  0  0  0  0
   51.3314    5.1618   17.3279 C   0  0  0  0  0  0  0  0  0  0  0  0
   49.6493    9.6472   13.9932 C   0  0  0  0  0  0  0  0  0  0  0  0
   48.5919   10.5023   13.3303 C   0  0  0  0  0  0  0  0  0  0  0  0
   49.1222   10.8891   14.6773 C   0  0  0  0  0  0  0  0  0  0  0  0
   56.0086   11.6203   15.2869 C   0  0  0  0  0  0  0  0  0  0  0  0
   56.9531   12.6485   15.9103 C   0  0  0  0  0  0  0  0  0  0  0  0
   57.3771   13.5341   15.1182 O   0  0  0  0  0  0  0  0  0  0  0  0
   57.2136   12.4709   17.1384 O   0  0  0  0  0  0  0  0  0  0  0  0
   51.2852    8.0461   15.9944 Ca  0  0  0  0  0 15  0  0  0  0  0  0
   53.1372   10.5323   16.6581 O   0  0  0  0  0  0  0  0  0  0  0  0
   53.7675   11.0506   15.4893 C   0  0  2  0  0  0  0  0  0  0  0  0
   54.4616    9.9122   14.7237 C   0  0  0  0  0  0  0  0  0  0  0  0
   53.5390    8.9239   13.9823 C   0  0  2  0  0  0  0  0  0  0  0  0
   52.5528    9.5663   13.1792 O   0  0  0  0  0  0  0  0  0  0  0  0
   52.8832    7.8683   14.8330 C   0  0  0  0  0  0  0  0  0  0  0  0
   51.7152    8.0101   15.4816 C   0  0  0  0  0  0  0  0  0  0  0  0
   51.0596    6.9437   16.2684 C   0  0  0  0  0  0  0  0  0  0  0  0
   51.7161    6.2751   17.3206 C   0  0  0  0  0  0  0  0  0  0  0  0
   51.1069    5.2714   18.0148 N   0  0  0  0  0  0  0  0  0  0  0  0
   49.8404    4.9373   17.7442 C   0  0  0  0  0  0  0  0  0  0  0  0
   49.2653    3.9174   18.4935 C   0  0  0  0  0  0  0  0  0  0  0  0
   47.9485    3.4974   18.2919 C   0  0  0  0  0  0  0  0  0  0  0  0
   47.1816    4.1112   17.3151 C   0  0  0  0  0  0  0  0  0  0  0  0
   47.7398    5.1350   16.5487 C   0  0  0  0  0  0  0  0  0  0  0  0
   49.0791    5.5690   16.7437 C   0  0  0  0  0  0  0  0  0  0  0  0
   49.7096    6.6003   15.9892 C   0  0  0  0  0  0  0  0  0  0  0  0
   48.9529    7.3087   14.9298 C   0  0  0  0  0  0  0  0  0  0  0  0
   48.9773    6.8530   13.5997 C   0  0  0  0  0  0  0  0  0  0  0  0
   48.2526    7.5181   12.6089 C   0  0  0  0  0  0  0  0  0  0  0  0
   47.5034    8.6395   12.9447 C   0  0  0  0  0  0  0  0  0  0  0  0
   46.7976    9.2671   11.9944 F   0  0  0  0  0  0  0  0  0  0  0  0
   47.4662    9.1145   14.2503 C   0  0  0  0  0  0  0  0  0  0  0  0
   48.1892    8.4495   15.2423 C   0  0  0  0  0  0  0  0  0  0  0  0
   53.1319    6.6154   17.7672 C   0  0  0  0  0  0  0  0  0  0  0  0
   53.4640    6.6495   19.2444 C   0  0  0  0  0  0  0  0  0  0  0  0
   53.4139    7.9255   18.4687 C   0  0  0  0  0  0  0  0  0  0  0  0
   54.7834   12.1048   15.9234 C   0  0  0  0  0  0  0  0  0  0  0  0
   54.0774   13.3608   16.4303 C   0  0  0  0  0  0  0  0  0  0  0  0
   52.9633   13.1638   17.0009 O   0  0  0  0  0  0  0  0  0  0  0  0
   54.7005   14.4399   16.2252 O   0  0  0  0  0  0  0  0  0  0  0  0
   56.6783   10.8242   17.5204 H   0  0  0  0  0  0  0  0  0  0  0  0
   54.6369   11.6379   16.9674 H   0  0  0  0  0  0  0  0  0  0  0  0
   54.6843    9.2714   15.0312 H   0  0  0  0  0  0  0  0  0  0  0  0
   53.4540   10.5493   15.0830 H   0  0  0  0  0  0  0  0  0  0  0  0
   52.9856    9.8042   17.5236 H   0  0  0  0  0  0  0  0  0  0  0  0
   55.0625    8.6955   17.5643 H   0  0  0  0  0  0  0  0  0  0  0  0
   52.5873    7.5985   15.3967 H   0  0  0  0  0  0  0  0  0  0  0  0
   50.6259    9.2854   17.0777 H   0  0  0  0  0  0  0  0  0  0  0  0
   46.6068    6.1549   12.6924 H   0  0  0  0  0  0  0  0  0  0  0  0
   45.8197    3.9037   13.3424 H   0  0  0  0  0  0  0  0  0  0  0  0
   46.7737    2.7967   15.3562 H   0  0  0  0  0  0  0  0  0  0  0  0
   48.4913    3.9393   16.6765 H   0  0  0  0  0  0  0  0  0  0  0  0
   48.5864    6.6500   18.7016 H   0  0  0  0  0  0  0  0  0  0  0  0
   49.5779    5.6532   20.7534 H   0  0  0  0  0  0  0  0  0  0  0  0
   52.8145    4.0541   18.4413 H   0  0  0  0  0  0  0  0  0  0  0  0
   51.8409    5.0246   16.3763 H   0  0  0  0  0  0  0  0  0  0  0  0
   50.6462    9.7205   13.5622 H   0  0  0  0  0  0  0  0  0  0  0  0
   48.8892   11.1021   12.4767 H   0  0  0  0  0  0  0  0  0  0  0  0
   47.5791   10.1165   13.2732 H   0  0  0  0  0  0  0  0  0  0  0  0
   48.4659   10.7723   15.5335 H   0  0  0  0  0  0  0  0  0  0  0  0
   49.7931   11.7395   14.7410 H   0  0  0  0  0  0  0  0  0  0  0  0
   56.6270   10.8974   14.7411 H   0  0  0  0  0  0  0  0  0  0  0  0
   55.3566   12.1328   14.5709 H   0  0  0  0  0  0  0  0  0  0  0  0
   52.7671   11.3452   17.0933 H   0  0  0  0  0  0  0  0  0  0  0  0
   52.9947   11.5102   14.8602 H   0  0  0  0  0  0  0  0  0  0  0  0
   55.1219    9.3509   15.3986 H   0  0  0  0  0  0  0  0  0  0  0  0
   55.1058   10.3720   13.9628 H   0  0  0  0  0  0  0  0  0  0  0  0
   54.1743    8.3787   13.2710 H   0  0  0  0  0  0  0  0  0  0  0  0
   52.8607   10.4631   12.9731 H   0  0  0  0  0  0  0  0  0  0  0  0
   53.4219    6.9263   14.8888 H   0  0  0  0  0  0  0  0  0  0  0  0
   51.1869    8.9611   15.4257 H   0  0  0  0  0  0  0  0  0  0  0  0
   49.8663    3.4366   19.2621 H   0  0  0  0  0  0  0  0  0  0  0  0
   47.5370    2.6944   18.8980 H   0  0  0  0  0  0  0  0  0  0  0  0
   46.1553    3.7955   17.1451 H   0  0  0  0  0  0  0  0  0  0  0  0
   47.1115    5.5988   15.7890 H   0  0  0  0  0  0  0  0  0  0  0  0
   49.5766    5.9841   13.3345 H   0  0  0  0  0  0  0  0  0  0  0  0
   48.2736    7.1728   11.5808 H   0  0  0  0  0  0  0  0  0  0  0  0
   46.8860   10.0014   14.4868 H   0  0  0  0  0  0  0  0  0  0  0  0
   48.1716    8.8306   16.2623 H   0  0  0  0  0  0  0  0  0  0  0  0
   53.9206    6.2265   17.1287 H   0  0  0  0  0  0  0  0  0  0  0  0
   54.4400    6.2962   19.5607 H   0  0  0  0  0  0  0  0  0  0  0  0
   52.6705    6.4648   19.9586 H   0  0  0  0  0  0  0  0  0  0  0  0
   52.5887    8.6068   18.6422 H   0  0  0  0  0  0  0  0  0  0  0  0
   54.3462    8.4350   18.2449 H   0  0  0  0  0  0  0  0  0  0  0  0
   55.4152   11.7244   16.7354 H   0  0  0  0  0  0  0  0  0  0  0  0
   55.4316   12.3810   15.0853 H   0  0  0  0  0  0  0  0  0  0  0  0
  2  1  1  0
  2  3  1  0
  3  4  1  0
  4  5  1  0
  4  6  1  0
  6  7  2  0
  7  8  1  0
  8  9  2  0
  9 10  1  0
 10 11  2  0
 11 12  1  0
 12 13  2  0
 13 14  1  0
 14 15  2  0
 15 16  1  0
 11 16  1  0
 16 17  2  0
  8 17  1  0
 17 18  1  0
 18 19  2  0
 19 20  1  0
 20 21  2  0
 21 22  1  0
 21 23  1  0
 23 24  2  0
 18 24  1  0
  9 25  1  0
 25 26  1  0
 26 27  1  0
 25 27  1  0
  2 28  1  0
 28 29  1  0
 29 30  2  0
 29 31  1  0
 34 33  1  0
 34 35  1  0
 35 36  1  0
 36 37  1  0
 36 38  1  0
 38 39  2  0
 39 40  1  0
 40 41  2  0
 41 42  1  0
 42 43  2  0
 43 44  1  0
 44 45  2  0
 45 46  1  0
 46 47  2  0
 47 48  1  0
 43 48  1  0
 48 49  2  0
 40 49  1  0
 49 50  1  0
 50 51  2  0
 51 52  1  0
 52 53  2  0
 53 54  1  0
 53 55  1  0
 55 56  2  0
 50 56  1  0
 41 57  1  0
 57 58  1  0
 58 59  1  0
 57 59  1  0
 34 60  1  0
 60 61  1  0
 61 62  2  0
 61 63  1  0
  1 64  1  0
  2 65  1  6
  3 66  1  0
  3 67  1  0
  4 68  1  6
  5 69  1  0
  6 70  1  0
  7 71  1  0
 12 72  1  0
 13 73  1  0
 14 74  1  0
 15 75  1  0
 19 76  1  0
 20 77  1  0
 23 78  1  0
 24 79  1  0
 25 80  1  0
 26 81  1  0
 26 82  1  0
 27 83  1  0
 27 84  1  0
 28 85  1  0
 28 86  1  0
 33 87  1  0
 34 88  1  6
 35 89  1  0
 35 90  1  0
 36 91  1  1
 37 92  1  0
 38 93  1  0
 39 94  1  0
 44 95  1  0
 45 96  1  0
 46 97  1  0
 47 98  1  0
 51 99  1  0
 52100  1  0
 55101  1  0
 56102  1  0
 57103  1  0
 58104  1  0
 58105  1  0
 59106  1  0
 59107  1  0
 60108  1  0
 60109  1  0
M  CHG  3  31  -1  32   2  63  -1
M  END
> <Uni-Dock RESULT> 
ENERGY=   -5.725  LOWER_BOUND=    0.000  UPPER_BOUND=    0.000
INTER + INTRA:          -5.725
INTER:                  -5.725
INTRA:                   0.000
UNBOUND:                 0.000

$$$$

     RDKit          3D

109114  0  0  0  0  0  0  0  0999 V2000
   54.9150    4.0007   16.7768 O   0  0  0  0  0  0  0  0  0  0  0  0
   54.0785    3.3763   17.7579 C   0  0  2  0  0  0  0  0  0  0  0  0
   53.3926    4.4733   18.5840 C   0  0  0  0  0  0  0  0  0  0  0  0
   52.6494    5.4826   17.6975 C   0  0  2  0  0  0  0  0  0  0  0  0
   53.5769    6.2763   16.9652 O   0  0  0  0  0  0  0  0  0  0  0  0
   51.8436    6.4396   18.5262 C   0  0  0  0  0  0  0  0  0  0  0  0
   50.5062    6.5384   18.4819 C   0  0  0  0  0  0  0  0  0  0  0  0
   49.7707    7.4836   19.3403 C   0  0  0  0  0  0  0  0  0  0  0  0
   49.2442    7.0356   20.5649 C   0  0  0  0  0  0  0  0  0  0  0  0
   48.5883    7.8825   21.4016 N   0  0  0  0  0  0  0  0  0  0  0  0
   48.4219    9.1666   21.0617 C   0  0  0  0  0  0  0  0  0  0  0  0
   47.7444    9.9853   21.9555 C   0  0  0  0  0  0  0  0  0  0  0  0
   47.5158   11.3372   21.6955 C   0  0  0  0  0  0  0  0  0  0  0  0
   47.9718   11.8914   20.5091 C   0  0  0  0  0  0  0  0  0  0  0  0
   48.6570   11.0877   19.5990 C   0  0  0  0  0  0  0  0  0  0  0  0
   48.8961    9.7112   19.8540 C   0  0  0  0  0  0  0  0  0  0  0  0
   49.5880    8.8372   18.9666 C   0  0  0  0  0  0  0  0  0  0  0  0
   50.0840    9.3376   17.6668 C   0  0  0  0  0  0  0  0  0  0  0  0
   49.2395    9.3596   16.5421 C   0  0  0  0  0  0  0  0  0  0  0  0
   49.6991    9.8506   15.3193 C   0  0  0  0  0  0  0  0  0  0  0  0
   51.0025   10.3235   15.2204 C   0  0  0  0  0  0  0  0  0  0  0  0
   51.4385   10.8081   14.0499 F   0  0  0  0  0  0  0  0  0  0  0  0
   51.8575   10.3094   16.3144 C   0  0  0  0  0  0  0  0  0  0  0  0
   51.3976    9.8202   17.5377 C   0  0  0  0  0  0  0  0  0  0  0  0
   49.3871    5.5937   21.0254 C   0  0  0  0  0  0  0  0  0  0  0  0
   48.2971    4.9338   21.8410 C   0  0  0  0  0  0  0  0  0  0  0  0
   48.5126    4.5197   20.4172 C   0  0  0  0  0  0  0  0  0  0  0  0
   54.9111    2.4592   18.6447 C   0  0  0  0  0  0  0  0  0  0  0  0
   55.5109    1.2968   17.8526 C   0  0  0  0  0  0  0  0  0  0  0  0
   55.8653    0.3042   18.5458 O   0  0  0  0  0  0  0  0  0  0  0  0
   55.6012    1.4827   16.6016 O   0  0  0  0  0  0  0  0  0  0  0  0
   50.9738    6.9377   18.8071 Ca  0  0  0  0  0 15  0  0  0  0  0  0
   52.1428    4.1695   17.7961 O   0  0  0  0  0  0  0  0  0  0  0  0
   52.8326    3.4752   18.8326 C   0  0  2  0  0  0  0  0  0  0  0  0
   53.8602    4.4103   19.4912 C   0  0  0  0  0  0  0  0  0  0  0  0
   53.2924    5.5230   20.3951 C   0  0  2  0  0  0  0  0  0  0  0  0
   52.3374    5.0497   21.3408 O   0  0  0  0  0  0  0  0  0  0  0  0
   52.7398    6.7314   19.6862 C   0  0  0  0  0  0  0  0  0  0  0  0
   51.4787    6.8601   19.2409 C   0  0  0  0  0  0  0  0  0  0  0  0
   50.9389    8.0757   18.5951 C   0  0  0  0  0  0  0  0  0  0  0  0
   51.5409    8.6535   17.4599 C   0  0  0  0  0  0  0  0  0  0  0  0
   51.0478    9.7937   16.8965 N   0  0  0  0  0  0  0  0  0  0  0  0
   49.9376   10.3597   17.3823 C   0  0  0  0  0  0  0  0  0  0  0  0
   49.4718   11.5117   16.7592 C   0  0  0  0  0  0  0  0  0  0  0  0
   48.3197   12.1754   17.1870 C   0  0  0  0  0  0  0  0  0  0  0  0
   47.6103   11.6772   18.2675 C   0  0  0  0  0  0  0  0  0  0  0  0
   48.0617   10.5238   18.9103 C   0  0  0  0  0  0  0  0  0  0  0  0
   49.2337    9.8416   18.4849 C   0  0  0  0  0  0  0  0  0  0  0  0
   49.7514    8.6670   19.1037 C   0  0  0  0  0  0  0  0  0  0  0  0
   49.0456    8.0699   20.2622 C   0  0  0  0  0  0  0  0  0  0  0  0
   49.3770    8.4414   21.5772 C   0  0  0  0  0  0  0  0  0  0  0  0
   48.7001    7.8838   22.6635 C   0  0  0  0  0  0  0  0  0  0  0  0
   47.6919    6.9540   22.4382 C   0  0  0  0  0  0  0  0  0  0  0  0
   47.0345    6.4314   23.4820 F   0  0  0  0  0  0  0  0  0  0  0  0
   47.3482    6.5649   21.1489 C   0  0  0  0  0  0  0  0  0  0  0  0
   48.0233    7.1228   20.0618 C   0  0  0  0  0  0  0  0  0  0  0  0
   52.7655    8.0608   16.7754 C   0  0  0  0  0  0  0  0  0  0  0  0
   52.8414    8.0383   15.2629 C   0  0  0  0  0  0  0  0  0  0  0  0
   52.6553    6.7593   16.0126 C   0  0  0  0  0  0  0  0  0  0  0  0
   53.5263    2.2634   18.2146 C   0  0  0  0  0  0  0  0  0  0  0  0
   52.5047    1.2022   17.8108 C   0  0  0  0  0  0  0  0  0  0  0  0
   51.3781    1.6475   17.4394 O   0  0  0  0  0  0  0  0  0  0  0  0
   52.9170    0.0110   17.8885 O   0  0  0  0  0  0  0  0  0  0  0  0
   55.3621    3.2208   16.3452 H   0  0  0  0  0  0  0  0  0  0  0  0
   53.3131    2.8041   17.2188 H   0  0  0  0  0  0  0  0  0  0  0  0
   54.1576    5.0088   19.1623 H   0  0  0  0  0  0  0  0  0  0  0  0
   52.6986    4.0072   19.2948 H   0  0  0  0  0  0  0  0  0  0  0  0
   52.0071    4.9574   16.9818 H   0  0  0  0  0  0  0  0  0  0  0  0
   54.2336    5.6290   16.6126 H   0  0  0  0  0  0  0  0  0  0  0  0
   52.4190    7.0840   19.1853 H   0  0  0  0  0  0  0  0  0  0  0  0
   49.9079    5.9135   17.8277 H   0  0  0  0  0  0  0  0  0  0  0  0
   47.3786    9.5509   22.8830 H   0  0  0  0  0  0  0  0  0  0  0  0
   46.9777   11.9449   22.4158 H   0  0  0  0  0  0  0  0  0  0  0  0
   47.8025   12.9425   20.2908 H   0  0  0  0  0  0  0  0  0  0  0  0
   49.0126   11.5501   18.6797 H   0  0  0  0  0  0  0  0  0  0  0  0
   48.2205    8.9847   16.6184 H   0  0  0  0  0  0  0  0  0  0  0  0
   49.0526    9.8689   14.4476 H   0  0  0  0  0  0  0  0  0  0  0  0
   52.8781   10.6655   16.2111 H   0  0  0  0  0  0  0  0  0  0  0  0
   52.0708    9.8028   18.3924 H   0  0  0  0  0  0  0  0  0  0  0  0
   50.4037    5.3001   21.2811 H   0  0  0  0  0  0  0  0  0  0  0  0
   48.5979    4.2429   22.6213 H   0  0  0  0  0  0  0  0  0  0  0  0
   47.4081    5.5108   22.0746 H   0  0  0  0  0  0  0  0  0  0  0  0
   47.7654    4.8100   19.6858 H   0  0  0  0  0  0  0  0  0  0  0  0
   48.9749    3.5568   20.2260 H   0  0  0  0  0  0  0  0  0  0  0  0
   55.7447    3.0142   19.0917 H   0  0  0  0  0  0  0  0  0  0  0  0
   54.2916    2.0507   19.4507 H   0  0  0  0  0  0  0  0  0  0  0  0
   51.5482    3.4708   17.4145 H   0  0  0  0  0  0  0  0  0  0  0  0
   52.0933    3.1472   19.5742 H   0  0  0  0  0  0  0  0  0  0  0  0
   54.5045    4.8627   18.7252 H   0  0  0  0  0  0  0  0  0  0  0  0
   54.5098    3.7918   20.1243 H   0  0  0  0  0  0  0  0  0  0  0  0
   54.1323    5.8922   20.9992 H   0  0  0  0  0  0  0  0  0  0  0  0
   52.4832    4.0999   21.4757 H   0  0  0  0  0  0  0  0  0  0  0  0
   53.4448    7.5482   19.5578 H   0  0  0  0  0  0  0  0  0  0  0  0
   50.7821    6.0323   19.3674 H   0  0  0  0  0  0  0  0  0  0  0  0
   50.0273   11.9021   15.9094 H   0  0  0  0  0  0  0  0  0  0  0  0
   47.9903   13.0750   16.6735 H   0  0  0  0  0  0  0  0  0  0  0  0
   46.7120   12.1824   18.6134 H   0  0  0  0  0  0  0  0  0  0  0  0
   47.4820   10.1560   19.7562 H   0  0  0  0  0  0  0  0  0  0  0  0
   50.1771    9.1578   21.7537 H   0  0  0  0  0  0  0  0  0  0  0  0
   48.9569    8.1637   23.6796 H   0  0  0  0  0  0  0  0  0  0  0  0
   46.5675    5.8254   20.9972 H   0  0  0  0  0  0  0  0  0  0  0  0
   47.7637    6.8067   19.0525 H   0  0  0  0  0  0  0  0  0  0  0  0
   53.7097    8.2502   17.2791 H   0  0  0  0  0  0  0  0  0  0  0  0
   53.8054    8.2053   14.7935 H   0  0  0  0  0  0  0  0  0  0  0  0
   51.9986    8.4149   14.6959 H   0  0  0  0  0  0  0  0  0  0  0  0
   51.6905    6.2667   15.9680 H   0  0  0  0  0  0  0  0  0  0  0  0
   53.4863    6.0626   16.0671 H   0  0  0  0  0  0  0  0  0  0  0  0
   54.0838    2.5517   17.3149 H   0  0  0  0  0  0  0  0  0  0  0  0
   54.2301    1.8197   18.9265 H   0  0  0  0  0  0  0  0  0  0  0  0
  2  1  1  0
  2  3  1  0
  3  4  1  0
  4  5  1  0
  4  6  1  0
  6  7  2  0
  7  8  1  0
  8  9  2  0
  9 10  1  0
 10 11  2  0
 11 12  1  0
 12 13  2  0
 13 14  1  0
 14 15  2  0
 15 16  1  0
 11 16  1  0
 16 17  2  0
  8 17  1  0
 17 18  1  0
 18 19  2  0
 19 20  1  0
 20 21  2  0
 21 22  1  0
 21 23  1  0
 23 24  2  0
 18 24  1  0
  9 25  1  0
 25 26  1  0
 26 27  1  0
 25 27  1  0
  2 28  1  0
 28 29  1  0
 29 30  2  0
 29 31  1  0
 34 33  1  0
 34 35  1  0
 35 36  1  0
 36 37  1  0
 36 38  1  0
 38 39  2  0
 39 40  1  0
 40 41  2  0
 41 42  1  0
 42 43  2  0
 43 44  1  0
 44 45  2  0
 45 46  1  0
 46 47  2  0
 47 48  1  0
 43 48  1  0
 48 49  2  0
 40 49  1  0
 49 50  1  0
 50 51  2  0
 51 52  1  0
 52 53  2  0
 53 54  1  0
 53 55  1  0
 55 56  2  0
 50 56  1  0
 41 57  1  0
 57 58  1  0
 58 59  1  0
 57 59  1  0
 34 60  1  0
 60 61  1  0
 61 62  2  0
 61 63  1  0
  1 64  1  0
  2 65  1  6
  3 66  1  0
  3 67  1  0
  4 68  1  6
  5 69  1  0
  6 70  1  0
  7 71  1  0
 12 72  1  0
 13 73  1  0
 14 74  1  0
 15 75  1  0
 19 76  1  0
 20 77  1  0
 23 78  1  0
 24 79  1  0
 25 80  1  0
 26 81  1  0
 26 82  1  0
 27 83  1  0
 27 84  1  0
 28 85  1  0
 28 86  1  0
 33 87  1  0
 34 88  1  6
 35 89  1  0
 35 90  1  0
 36 91  1  1
 37 92  1  0
 38 93  1  0
 39 94  1  0
 44 95  1  0
 45 96  1  0
 46 97  1  0
 47 98  1  0
 51 99  1  0
 52100  1  0
 55101  1  0
 56102  1  0
 57103  1  0
 58104  1  0
 58105  1  0
 59106  1  0
 59107  1  0
 60108  1  0
 60109  1  0
M  CHG  3  31  -1  32   2  63  -1
M  END
> <Uni-Dock RESULT> 
ENERGY=   -5.499  LOWER_BOUND=    3.700  UPPER_BOUND=    7.580
INTER + INTRA:          -5.499
INTER:                  -5.499
INTRA:                   0.000
UNBOUND:                 0.000

$$$$

     RDKit          3D

109114  0  0  0  0  0  0  0  0999 V2000
   49.8644   14.4224    9.8507 O   0  0  0  0  0  0  0  0  0  0  0  0
   50.0732   15.3283   10.9407 C   0  0  2  0  0  0  0  0  0  0  0  0
   49.3535   14.7761   12.1791 C   0  0  0  0  0  0  0  0  0  0  0  0
   49.7717   13.3326   12.4928 C   0  0  2  0  0  0  0  0  0  0  0  0
   49.2652   12.4436   11.5029 O   0  0  0  0  0  0  0  0  0  0  0  0
   49.1946   12.8746   13.8002 C   0  0  0  0  0  0  0  0  0  0  0  0
   49.9260   12.5346   14.8725 C   0  0  0  0  0  0  0  0  0  0  0  0
   49.2973   12.1150   16.1373 C   0  0  0  0  0  0  0  0  0  0  0  0
   49.0839   13.0675   17.1497 C   0  0  0  0  0  0  0  0  0  0  0  0
   48.4771   12.7296   18.3180 N   0  0  0  0  0  0  0  0  0  0  0  0
   48.0808   11.4683   18.5283 C   0  0  0  0  0  0  0  0  0  0  0  0
   47.4663   11.1814   19.7400 C   0  0  0  0  0  0  0  0  0  0  0  0
   47.0191    9.8985   20.0588 C   0  0  0  0  0  0  0  0  0  0  0  0
   47.1909    8.8686   19.1465 C   0  0  0  0  0  0  0  0  0  0  0  0
   47.8029    9.1357   17.9226 C   0  0  0  0  0  0  0  0  0  0  0  0
   48.2608   10.4376   17.5874 C   0  0  0  0  0  0  0  0  0  0  0  0
   48.8932   10.7756   16.3563 C   0  0  0  0  0  0  0  0  0  0  0  0
   49.1419    9.7334   15.3375 C   0  0  0  0  0  0  0  0  0  0  0  0
   50.3030    8.9415   15.3962 C   0  0  0  0  0  0  0  0  0  0  0  0
   50.5297    7.9434   14.4476 C   0  0  0  0  0  0  0  0  0  0  0  0
   49.5941    7.7333   13.4413 C   0  0  0  0  0  0  0  0  0  0  0  0
   49.8054    6.7654   12.5394 F   0  0  0  0  0  0  0  0  0  0  0  0
   48.4416    8.5035   13.3586 C   0  0  0  0  0  0  0  0  0  0  0  0
   48.2138    9.5005   14.3081 C   0  0  0  0  0  0  0  0  0  0  0  0
   49.5051   14.5199   16.9927 C   0  0  0  0  0  0  0  0  0  0  0  0
   49.9792   15.3179   18.1873 C   0  0  0  0  0  0  0  0  0  0  0  0
   50.9620   14.9002   17.1363 C   0  0  0  0  0  0  0  0  0  0  0  0
   49.5540   16.7127   10.5742 C   0  0  0  0  0  0  0  0  0  0  0  0
   50.3372   17.3217    9.4107 C   0  0  0  0  0  0  0  0  0  0  0  0
   50.2498   18.5758    9.3058 O   0  0  0  0  0  0  0  0  0  0  0  0
   50.9571   16.4908    8.6805 O   0  0  0  0  0  0  0  0  0  0  0  0
   49.2424   12.4734   14.7595 Ca  0  0  0  0  0 15  0  0  0  0  0  0
   50.7141   14.3650   12.6840 O   0  0  0  0  0  0  0  0  0  0  0  0
   50.0618   15.6266   12.5618 C   0  0  2  0  0  0  0  0  0  0  0  0
   48.5628   15.4140   12.2942 C   0  0  0  0  0  0  0  0  0  0  0  0
   47.7195   14.9131   13.4841 C   0  0  2  0  0  0  0  0  0  0  0  0
   47.9349   15.6558   14.6809 O   0  0  0  0  0  0  0  0  0  0  0  0
   47.8113   13.4403   13.7843 C   0  0  0  0  0  0  0  0  0  0  0  0
   48.7308   12.8664   14.5783 C   0  0  0  0  0  0  0  0  0  0  0  0
   48.7724   11.4249   14.9049 C   0  0  0  0  0  0  0  0  0  0  0  0
   48.8170   10.4300   13.9083 C   0  0  0  0  0  0  0  0  0  0  0  0
   48.8225    9.1039   14.2275 N   0  0  0  0  0  0  0  0  0  0  0  0
   48.8429    8.7192   15.5083 C   0  0  0  0  0  0  0  0  0  0  0  0
   48.8633    7.3551   15.7748 C   0  0  0  0  0  0  0  0  0  0  0  0
   48.8901    6.8514   17.0773 C   0  0  0  0  0  0  0  0  0  0  0  0
   48.8968    7.7323   18.1463 C   0  0  0  0  0  0  0  0  0  0  0  0
   48.8732    9.1061   17.9022 C   0  0  0  0  0  0  0  0  0  0  0  0
   48.8437    9.6296   16.5811 C   0  0  0  0  0  0  0  0  0  0  0  0
   48.8089   11.0188   16.2658 C   0  0  0  0  0  0  0  0  0  0  0  0
   48.8192   12.0241   17.3549 C   0  0  0  0  0  0  0  0  0  0  0  0
   47.6168   12.5120   17.8964 C   0  0  0  0  0  0  0  0  0  0  0  0
   47.6338   13.4501   18.9302 C   0  0  0  0  0  0  0  0  0  0  0  0
   48.8515   13.9028   19.4241 C   0  0  0  0  0  0  0  0  0  0  0  0
   48.8646   14.7923   20.4260 F   0  0  0  0  0  0  0  0  0  0  0  0
   50.0546   13.4414   18.9033 C   0  0  0  0  0  0  0  0  0  0  0  0
   50.0390   12.5023   17.8705 C   0  0  0  0  0  0  0  0  0  0  0  0
   48.8689   10.7459   12.4193 C   0  0  0  0  0  0  0  0  0  0  0  0
   49.7721    9.9364   11.5123 C   0  0  0  0  0  0  0  0  0  0  0  0
   50.1123   11.3595   11.8148 C   0  0  0  0  0  0  0  0  0  0  0  0
   50.7113   16.3891   11.4092 C   0  0  0  0  0  0  0  0  0  0  0  0
   52.1184   16.8470   11.7876 C   0  0  0  0  0  0  0  0  0  0  0  0
   52.7434   16.0807   12.5799 O   0  0  0  0  0  0  0  0  0  0  0  0
   52.4865   17.9302   11.2527 O   0  0  0  0  0  0  0  0  0  0  0  0
   50.3029   14.8944    9.0897 H   0  0  0  0  0  0  0  0  0  0  0  0
   51.1521   15.3586   11.1387 H   0  0  0  0  0  0  0  0  0  0  0  0
   48.2708   14.7972   11.9957 H   0  0  0  0  0  0  0  0  0  0  0  0
   49.5622   15.4281   13.0368 H   0  0  0  0  0  0  0  0  0  0  0  0
   50.8640   13.2483   12.5032 H   0  0  0  0  0  0  0  0  0  0  0  0
   49.4638   12.8887   10.6445 H   0  0  0  0  0  0  0  0  0  0  0  0
   48.1100   12.8189   13.8368 H   0  0  0  0  0  0  0  0  0  0  0  0
   51.0099   12.5731   14.8610 H   0  0  0  0  0  0  0  0  0  0  0  0
   47.3379   11.9858   20.4606 H   0  0  0  0  0  0  0  0  0  0  0  0
   46.5478    9.7109   21.0182 H   0  0  0  0  0  0  0  0  0  0  0  0
   46.8484    7.8637   19.3786 H   0  0  0  0  0  0  0  0  0  0  0  0
   47.9167    8.3113   17.2206 H   0  0  0  0  0  0  0  0  0  0  0  0
   51.0378    9.1094   16.1814 H   0  0  0  0  0  0  0  0  0  0  0  0
   51.4243    7.3301   14.4869 H   0  0  0  0  0  0  0  0  0  0  0  0
   47.7328    8.3362   12.5533 H   0  0  0  0  0  0  0  0  0  0  0  0
   47.3140   10.1083   14.2381 H   0  0  0  0  0  0  0  0  0  0  0  0
   48.9312   15.0793   16.2560 H   0  0  0  0  0  0  0  0  0  0  0  0
   49.7037   16.3660   18.2364 H   0  0  0  0  0  0  0  0  0  0  0  0
   50.0240   14.8230   19.1521 H   0  0  0  0  0  0  0  0  0  0  0  0
   51.6788   14.1264   17.3910 H   0  0  0  0  0  0  0  0  0  0  0  0
   51.3433   15.6573   16.4589 H   0  0  0  0  0  0  0  0  0  0  0  0
   48.5028   16.6570   10.2667 H   0  0  0  0  0  0  0  0  0  0  0  0
   49.6303   17.3839   11.4368 H   0  0  0  0  0  0  0  0  0  0  0  0
   51.6678   14.6157   12.8060 H   0  0  0  0  0  0  0  0  0  0  0  0
   50.2018   16.1756   13.5016 H   0  0  0  0  0  0  0  0  0  0  0  0
   48.4238   14.7338   11.4431 H   0  0  0  0  0  0  0  0  0  0  0  0
   48.1410   16.3827   11.9957 H   0  0  0  0  0  0  0  0  0  0  0  0
   46.6690   15.0968   13.2203 H   0  0  0  0  0  0  0  0  0  0  0  0
   48.2871   16.5278   14.4423 H   0  0  0  0  0  0  0  0  0  0  0  0
   47.0454   12.8293   13.3143 H   0  0  0  0  0  0  0  0  0  0  0  0
   49.4990   13.4867   15.0383 H   0  0  0  0  0  0  0  0  0  0  0  0
   48.8603    6.6629   14.9357 H   0  0  0  0  0  0  0  0  0  0  0  0
   48.9033    5.7772   17.2428 H   0  0  0  0  0  0  0  0  0  0  0  0
   48.9168    7.3565   19.1663 H   0  0  0  0  0  0  0  0  0  0  0  0
   48.8800    9.7734   18.7632 H   0  0  0  0  0  0  0  0  0  0  0  0
   46.6636   12.1689   17.4987 H   0  0  0  0  0  0  0  0  0  0  0  0
   46.7082   13.8330   19.3466 H   0  0  0  0  0  0  0  0  0  0  0  0
   50.9941   13.8204   19.2945 H   0  0  0  0  0  0  0  0  0  0  0  0
   50.9817   12.1520   17.4527 H   0  0  0  0  0  0  0  0  0  0  0  0
   47.9195   11.0382   11.9787 H   0  0  0  0  0  0  0  0  0  0  0  0
   49.4245    9.7091   10.5099 H   0  0  0  0  0  0  0  0  0  0  0  0
   50.3945    9.1669   11.9532 H   0  0  0  0  0  0  0  0  0  0  0  0
   50.9553   11.5652   12.4647 H   0  0  0  0  0  0  0  0  0  0  0  0
   49.9877   12.1017   11.0322 H   0  0  0  0  0  0  0  0  0  0  0  0
   50.7935   15.7526   10.5196 H   0  0  0  0  0  0  0  0  0  0  0  0
   50.1148   17.2692   11.1470 H   0  0  0  0  0  0  0  0  0  0  0  0
  2  1  1  0
  2  3  1  0
  3  4  1  0
  4  5  1  0
  4  6  1  0
  6  7  2  0
  7  8  1  0
  8  9  2  0
  9 10  1  0
 10 11  2  0
 11 12  1  0
 12 13  2  0
 13 14  1  0
 14 15  2  0
 15 16  1  0
 11 16  1  0
 16 17  2  0
  8 17  1  0
 17 18  1  0
 18 19  2  0
 19 20  1  0
 20 21  2  0
 21 22  1  0
 21 23  1  0
 23 24  2  0
 18 24  1  0
  9 25  1  0
 25 26  1  0
 26 27  1  0
 25 27  1  0
  2 28  1  0
 28 29  1  0
 29 30  2  0
 29 31  1  0
 34 33  1  0
 34 35  1  0
 35 36  1  0
 36 37  1  0
 36 38  1  0
 38 39  2  0
 39 40  1  0
 40 41  2  0
 41 42  1  0
 42 43  2  0
 43 44  1  0
 44 45  2  0
 45 46  1  0
 46 47  2  0
 47 48  1  0
 43 48  1  0
 48 49  2  0
 40 49  1  0
 49 50  1  0
 50 51  2  0
 51 52  1  0
 52 53  2  0
 53 54  1  0
 53 55  1  0
 55 56  2  0
 50 56  1  0
 41 57  1  0
 57 58  1  0
 58 59  1  0
 57 59  1  0
 34 60  1  0
 60 61  1  0
 61 62  2  0
 61 63  1  0
  1 64  1  0
  2 65  1  6
  3 66  1  0
  3 67  1  0
  4 68  1  6
  5 69  1  0
  6 70  1  0
  7 71  1  0
 12 72  1  0
 13 73  1  0
 14 74  1  0
 15 75  1  0
 19 76  1  0
 20 77  1  0
 23 78  1  0
 24 79  1  0
 25 80  1  0
 26 81  1  0
 26 82  1  0
 27 83  1  0
 27 84  1  0
 28 85  1  0
 28 86  1  0
 33 87  1  0
 34 88  1  6
 35 89  1  0
 35 90  1  0
 36 91  1  1
 37 92  1  0
 38 93  1  0
 39 94  1  0
 44 95  1  0
 45 96  1  0
 46 97  1  0
 47 98  1  0
 51 99  1  0
 52100  1  0
 55101  1  0
 56102  1  0
 57103  1  0
 58104  1  0
 58105  1  0
 59106  1  0
 59107  1  0
 60108  1  0
 60109  1  0
M  CHG  3  31  -1  32   2  63  -1
M  END
> <Uni-Dock RESULT> 
ENERGY=   -5.056  LOWER_BOUND=    4.391  UPPER_BOUND=    6.967
INTER + INTRA:          -5.056
INTER:                  -5.056
INTRA:                   0.000
UNBOUND:                 0.000

$$$$

     RDKit          3D

109114  0  0  0  0  0  0  0  0999 V2000
   55.5992   11.3408   14.6189 O   0  0  0  0  0  0  0  0  0  0  0  0
   54.5364   11.7935   13.7716 C   0  0  2  0  0  0  0  0  0  0  0  0
   53.5585   10.6308   13.5518 C   0  0  0  0  0  0  0  0  0  0  0  0
   53.0717   10.0288   14.8775 C   0  0  2  0  0  0  0  0  0  0  0  0
   54.1318    9.3333   15.5250 O   0  0  0  0  0  0  0  0  0  0  0  0
   51.9881    9.0167   14.6461 C   0  0  0  0  0  0  0  0  0  0  0  0
   50.7294    9.1398   15.0944 C   0  0  0  0  0  0  0  0  0  0  0  0
   49.7039    8.1201   14.8126 C   0  0  0  0  0  0  0  0  0  0  0  0
   48.8469    8.2912   13.7108 C   0  0  0  0  0  0  0  0  0  0  0  0
   47.9095    7.3586   13.3960 N   0  0  0  0  0  0  0  0  0  0  0  0
   47.7796    6.2576   14.1465 C   0  0  0  0  0  0  0  0  0  0  0  0
   46.8056    5.3395   13.7772 C   0  0  0  0  0  0  0  0  0  0  0  0
   46.5874    4.1619   14.4936 C   0  0  0  0  0  0  0  0  0  0  0  0
   47.3589    3.8903   15.6132 C   0  0  0  0  0  0  0  0  0  0  0  0
   48.3445    4.7975   15.9997 C   0  0  0  0  0  0  0  0  0  0  0  0
   48.5757    5.9983   15.2774 C   0  0  0  0  0  0  0  0  0  0  0  0
   49.5648    6.9649   15.6198 C   0  0  0  0  0  0  0  0  0  0  0  0
   50.4132    6.7694   16.8147 C   0  0  0  0  0  0  0  0  0  0  0  0
   49.9668    7.1855   18.0820 C   0  0  0  0  0  0  0  0  0  0  0  0
   50.7570    6.9834   19.2143 C   0  0  0  0  0  0  0  0  0  0  0  0
   51.9932    6.3618   19.0814 C   0  0  0  0  0  0  0  0  0  0  0  0
   52.7451    6.1550   20.1708 F   0  0  0  0  0  0  0  0  0  0  0  0
   52.4590    5.9449   17.8414 C   0  0  0  0  0  0  0  0  0  0  0  0
   51.6681    6.1453   16.7093 C   0  0  0  0  0  0  0  0  0  0  0  0
   48.9263    9.5125   12.8088 C   0  0  0  0  0  0  0  0  0  0  0  0
   47.6779   10.0830   12.1727 C   0  0  0  0  0  0  0  0  0  0  0  0
   48.3565   10.8327   13.2784 C   0  0  0  0  0  0  0  0  0  0  0  0
   55.1021   12.2942   12.4488 C   0  0  0  0  0  0  0  0  0  0  0  0
   55.9917   13.5228   12.6419 C   0  0  0  0  0  0  0  0  0  0  0  0
   56.1703   14.2215   11.6069 O   0  0  0  0  0  0  0  0  0  0  0  0
   56.4602   13.6747   13.8104 O   0  0  0  0  0  0  0  0  0  0  0  0
   51.0450    8.6001   14.7895 Ca  0  0  0  0  0 15  0  0  0  0  0  0
   52.6422   11.3263   14.5274 O   0  0  0  0  0  0  0  0  0  0  0  0
   53.0117   11.5963   13.1773 C   0  0  2  0  0  0  0  0  0  0  0  0
   53.7192   10.3709   12.5760 C   0  0  0  0  0  0  0  0  0  0  0  0
   52.8277    9.1540   12.2570 C   0  0  2  0  0  0  0  0  0  0  0  0
   51.6545    9.4910   11.5218 O   0  0  0  0  0  0  0  0  0  0  0  0
   52.4530    8.2851   13.4285 C   0  0  0  0  0  0  0  0  0  0  0  0
   51.3913    8.4778   14.2289 C   0  0  0  0  0  0  0  0  0  0  0  0
   51.0083    7.5828   15.3418 C   0  0  0  0  0  0  0  0  0  0  0  0
   51.9005    7.2525   16.3810 C   0  0  0  0  0  0  0  0  0  0  0  0
   51.5406    6.3994   17.3827 N   0  0  0  0  0  0  0  0  0  0  0  0
   50.3011    5.8991   17.4286 C   0  0  0  0  0  0  0  0  0  0  0  0
   49.9851    5.0469   18.4805 C   0  0  0  0  0  0  0  0  0  0  0  0
   48.7181    4.4761   18.6211 C   0  0  0  0  0  0  0  0  0  0  0  0
   47.7365    4.7623   17.6865 C   0  0  0  0  0  0  0  0  0  0  0  0
   48.0327    5.6126   16.6204 C   0  0  0  0  0  0  0  0  0  0  0  0
   49.3190    6.1973   16.4663 C   0  0  0  0  0  0  0  0  0  0  0  0
   49.6869    7.0641   15.3968 C   0  0  0  0  0  0  0  0  0  0  0  0
   48.6903    7.4222   14.3599 C   0  0  0  0  0  0  0  0  0  0  0  0
   48.5665    6.6590   13.1854 C   0  0  0  0  0  0  0  0  0  0  0  0
   47.6175    6.9950   12.2180 C   0  0  0  0  0  0  0  0  0  0  0  0
   46.7915    8.0940   12.4218 C   0  0  0  0  0  0  0  0  0  0  0  0
   45.8721    8.4054   11.4983 F   0  0  0  0  0  0  0  0  0  0  0  0
   46.8965    8.8688   13.5709 C   0  0  0  0  0  0  0  0  0  0  0  0
   47.8439    8.5330   14.5396 C   0  0  0  0  0  0  0  0  0  0  0  0
   53.3128    7.8150   16.4750 C   0  0  0  0  0  0  0  0  0  0  0  0
   53.8628    8.2385   17.8210 C   0  0  0  0  0  0  0  0  0  0  0  0
   53.5294    9.2765   16.7993 C   0  0  0  0  0  0  0  0  0  0  0  0
   53.9384   12.8099   13.1706 C   0  0  0  0  0  0  0  0  0  0  0  0
   53.1640   14.0845   13.4999 C   0  0  0  0  0  0  0  0  0  0  0  0
   52.1866   13.9358   14.2924 O   0  0  0  0  0  0  0  0  0  0  0  0
   53.6037   15.1312   12.9468 O   0  0  0  0  0  0  0  0  0  0  0  0
   56.2069   12.1310   14.6451 H   0  0  0  0  0  0  0  0  0  0  0  0
   54.0169   12.6016   14.3019 H   0  0  0  0  0  0  0  0  0  0  0  0
   54.0675    9.8470   12.9748 H   0  0  0  0  0  0  0  0  0  0  0  0
   52.7060   10.9853   12.9586 H   0  0  0  0  0  0  0  0  0  0  0  0
   52.7216   10.8216   15.5478 H   0  0  0  0  0  0  0  0  0  0  0  0
   54.9049    9.9439   15.4610 H   0  0  0  0  0  0  0  0  0  0  0  0
   52.2853    8.1364   14.0827 H   0  0  0  0  0  0  0  0  0  0  0  0
   50.4078   10.0038   15.6658 H   0  0  0  0  0  0  0  0  0  0  0  0
   46.1937    5.5542   12.9042 H   0  0  0  0  0  0  0  0  0  0  0  0
   45.8131    3.4702   14.1777 H   0  0  0  0  0  0  0  0  0  0  0  0
   47.2023    2.9778   16.1825 H   0  0  0  0  0  0  0  0  0  0  0  0
   48.9424    4.5554   16.8767 H   0  0  0  0  0  0  0  0  0  0  0  0
   49.0010    7.6767   18.1852 H   0  0  0  0  0  0  0  0  0  0  0  0
   50.4186    7.3035   20.1946 H   0  0  0  0  0  0  0  0  0  0  0  0
   53.4359    5.4787   17.7565 H   0  0  0  0  0  0  0  0  0  0  0  0
   52.0372    5.8249   15.7371 H   0  0  0  0  0  0  0  0  0  0  0  0
   49.8266    9.5657   12.1991 H   0  0  0  0  0  0  0  0  0  0  0  0
   47.7595   10.4795   11.1663 H   0  0  0  0  0  0  0  0  0  0  0  0
   46.7266    9.6073   12.3888 H   0  0  0  0  0  0  0  0  0  0  0  0
   47.8614   10.8715   14.2433 H   0  0  0  0  0  0  0  0  0  0  0  0
   48.9141   11.7285   13.0257 H   0  0  0  0  0  0  0  0  0  0  0  0
   55.7162   11.5172   11.9777 H   0  0  0  0  0  0  0  0  0  0  0  0
   54.2866   12.5565   11.7658 H   0  0  0  0  0  0  0  0  0  0  0  0
   52.2427   12.1852   14.8273 H   0  0  0  0  0  0  0  0  0  0  0  0
   52.0980   11.8182   12.6114 H   0  0  0  0  0  0  0  0  0  0  0  0
   54.5428   10.0522   13.2292 H   0  0  0  0  0  0  0  0  0  0  0  0
   54.1731   10.6855   11.6271 H   0  0  0  0  0  0  0  0  0  0  0  0
   53.4098    8.5095   11.5843 H   0  0  0  0  0  0  0  0  0  0  0  0
   51.8088   10.3336   11.0662 H   0  0  0  0  0  0  0  0  0  0  0  0
   53.1105    7.4365   13.5972 H   0  0  0  0  0  0  0  0  0  0  0  0
   50.7429    9.3359   14.0563 H   0  0  0  0  0  0  0  0  0  0  0  0
   50.7549    4.8236   19.2159 H   0  0  0  0  0  0  0  0  0  0  0  0
   48.5123    3.8128   19.4573 H   0  0  0  0  0  0  0  0  0  0  0  0
   46.7454    4.3255   17.7811 H   0  0  0  0  0  0  0  0  0  0  0  0
   47.2399    5.8192   15.9023 H   0  0  0  0  0  0  0  0  0  0  0  0
   49.2241    5.8079   13.0192 H   0  0  0  0  0  0  0  0  0  0  0  0
   47.5230    6.4119   11.3082 H   0  0  0  0  0  0  0  0  0  0  0  0
   46.2508    9.7320   13.7020 H   0  0  0  0  0  0  0  0  0  0  0  0
   47.9359    9.1490   15.4329 H   0  0  0  0  0  0  0  0  0  0  0  0
   54.0363    7.3527   15.8089 H   0  0  0  0  0  0  0  0  0  0  0  0
   54.9133    8.0607   18.0267 H   0  0  0  0  0  0  0  0  0  0  0  0
   53.2201    8.1650   18.6901 H   0  0  0  0  0  0  0  0  0  0  0  0
   52.6603    9.9041   16.9610 H   0  0  0  0  0  0  0  0  0  0  0  0
   54.3423    9.7958   16.3010 H   0  0  0  0  0  0  0  0  0  0  0  0
   54.7322   12.6969   13.9193 H   0  0  0  0  0  0  0  0  0  0  0  0
   54.4079   12.9287   12.1885 H   0  0  0  0  0  0  0  0  0  0  0  0
  2  1  1  0
  2  3  1  0
  3  4  1  0
  4  5  1  0
  4  6  1  0
  6  7  2  0
  7  8  1  0
  8  9  2  0
  9 10  1  0
 10 11  2  0
 11 12  1  0
 12 13  2  0
 13 14  1  0
 14 15  2  0
 15 16  1  0
 11 16  1  0
 16 17  2  0
  8 17  1  0
 17 18  1  0
 18 19  2  0
 19 20  1  0
 20 21  2  0
 21 22  1  0
 21 23  1  0
 23 24  2  0
 18 24  1  0
  9 25  1  0
 25 26  1  0
 26 27  1  0
 25 27  1  0
  2 28  1  0
 28 29  1  0
 29 30  2  0
 29 31  1  0
 34 33  1  0
 34 35  1  0
 35 36  1  0
 36 37  1  0
 36 38  1  0
 38 39  2  0
 39 40  1  0
 40 41  2  0
 41 42  1  0
 42 43  2  0
 43 44  1  0
 44 45  2  0
 45 46  1  0
 46 47  2  0
 47 48  1  0
 43 48  1  0
 48 49  2  0
 40 49  1  0
 49 50  1  0
 50 51  2  0
 51 52  1  0
 52 53  2  0
 53 54  1  0
 53 55  1  0
 55 56  2  0
 50 56  1  0
 41 57  1  0
 57 58  1  0
 58 59  1  0
 57 59  1  0
 34 60  1  0
 60 61  1  0
 61 62  2  0
 61 63  1  0
  1 64  1  0
  2 65  1  6
  3 66  1  0
  3 67  1  0
  4 68  1  6
  5 69  1  0
  6 70  1  0
  7 71  1  0
 12 72  1  0
 13 73  1  0
 14 74  1  0
 15 75  1  0
 19 76  1  0
 20 77  1  0
 23 78  1  0
 24 79  1  0
 25 80  1  0
 26 81  1  0
 26 82  1  0
 27 83  1  0
 27 84  1  0
 28 85  1  0
 28 86  1  0
 33 87  1  0
 34 88  1  6
 35 89  1  0
 35 90  1  0
 36 91  1  1
 37 92  1  0
 38 93  1  0
 39 94  1  0
 44 95  1  0
 45 96  1  0
 46 97  1  0
 47 98  1  0
 51 99  1  0
 52100  1  0
 55101  1  0
 56102  1  0
 57103  1  0
 58104  1  0
 58105  1  0
 59106  1  0
 59107  1  0
 60108  1  0
 60109  1  0
M  CHG  3  31  -1  32   2  63  -1
M  END
> <Uni-Dock RESULT> 
ENERGY=   -5.022  LOWER_BOUND=    1.615  UPPER_BOUND=    1.843
INTER + INTRA:          -5.022
INTER:                  -5.022
INTRA:                   0.000
UNBOUND:                 0.000

$$$$

     RDKit          3D

109114  0  0  0  0  0  0  0  0999 V2000
   49.6553   15.0407   14.4685 O   0  0  0  0  0  0  0  0  0  0  0  0
   49.8902   15.3188   15.8540 C   0  0  2  0  0  0  0  0  0  0  0  0
   49.2169   14.2236   16.6928 C   0  0  0  0  0  0  0  0  0  0  0  0
   49.6598   12.8169   16.2661 C   0  0  2  0  0  0  0  0  0  0  0  0
   49.1305   12.4983   14.9835 O   0  0  0  0  0  0  0  0  0  0  0  0
   49.1304   11.7747   17.2072 C   0  0  0  0  0  0  0  0  0  0  0  0
   49.8998   10.9809   17.9676 C   0  0  0  0  0  0  0  0  0  0  0  0
   49.3169    9.9916   18.8909 C   0  0  0  0  0  0  0  0  0  0  0  0
   49.1269   10.3374   20.2408 C   0  0  0  0  0  0  0  0  0  0  0  0
   48.5620    9.4665   21.1181 N   0  0  0  0  0  0  0  0  0  0  0  0
   48.1857    8.2492   20.7074 C   0  0  0  0  0  0  0  0  0  0  0  0
   47.6139    7.4021   21.6474 C   0  0  0  0  0  0  0  0  0  0  0  0
   47.1905    6.1126   21.3227 C   0  0  0  0  0  0  0  0  0  0  0  0
   47.3430    5.6499   20.0245 C   0  0  0  0  0  0  0  0  0  0  0  0
   47.9120    6.4854   19.0643 C   0  0  0  0  0  0  0  0  0  0  0  0
   48.3454    7.7997   19.3836 C   0  0  0  0  0  0  0  0  0  0  0  0
   48.9339    8.7013   18.4506 C   0  0  0  0  0  0  0  0  0  0  0  0
   49.1599    8.2807   17.0513 C   0  0  0  0  0  0  0  0  0  0  0  0
   50.3303    7.5862   16.6957 C   0  0  0  0  0  0  0  0  0  0  0  0
   50.5362    7.1701   15.3796 C   0  0  0  0  0  0  0  0  0  0  0  0
   49.5705    7.4447   14.4182 C   0  0  0  0  0  0  0  0  0  0  0  0
   49.7622    7.0323   13.1580 F   0  0  0  0  0  0  0  0  0  0  0  0
   48.4081    8.1318   14.7422 C   0  0  0  0  0  0  0  0  0  0  0  0
   48.2012    8.5465   16.0585 C   0  0  0  0  0  0  0  0  0  0  0  0
   49.5278   11.6975   20.7893 C   0  0  0  0  0  0  0  0  0  0  0  0
   50.0324   11.8374   22.2087 C   0  0  0  0  0  0  0  0  0  0  0  0
   50.9848   11.9983   21.0631 C   0  0  0  0  0  0  0  0  0  0  0  0
   49.3452   16.6965   16.2084 C   0  0  0  0  0  0  0  0  0  0  0  0
   50.0838   17.8074   15.4611 C   0  0  0  0  0  0  0  0  0  0  0  0
   49.9802   18.9560   15.9723 O   0  0  0  0  0  0  0  0  0  0  0  0
   50.6880   17.4431   14.4075 O   0  0  0  0  0  0  0  0  0  0  0  0
   49.2135   10.9644   17.8553 Ca  0  0  0  0  0 15  0  0  0  0  0  0
   50.5974   13.6544   16.9064 O   0  0  0  0  0  0  0  0  0  0  0  0
   49.9286   14.8041   17.4194 C   0  0  2  0  0  0  0  0  0  0  0  0
   48.4239   14.7088   17.1183 C   0  0  0  0  0  0  0  0  0  0  0  0
   47.6250   13.6788   17.9420 C   0  0  2  0  0  0  0  0  0  0  0  0
   47.8717   13.7626   19.3429 O   0  0  0  0  0  0  0  0  0  0  0  0
   47.7415   12.2447   17.4972 C   0  0  0  0  0  0  0  0  0  0  0  0
   48.6922   11.3835   17.8968 C   0  0  0  0  0  0  0  0  0  0  0  0
   48.7593    9.9632   17.4914 C   0  0  0  0  0  0  0  0  0  0  0  0
   48.7815    9.5684   16.1391 C   0  0  0  0  0  0  0  0  0  0  0  0
   48.8110    8.2520   15.7833 N   0  0  0  0  0  0  0  0  0  0  0  0
   48.8770    7.3016   16.7221 C   0  0  0  0  0  0  0  0  0  0  0  0
   48.9201    5.9774   16.3014 C   0  0  0  0  0  0  0  0  0  0  0  0
   48.9945    4.9123   17.2020 C   0  0  0  0  0  0  0  0  0  0  0  0
   49.0269    5.1737   18.5620 C   0  0  0  0  0  0  0  0  0  0  0  0
   48.9813    6.4955   19.0069 C   0  0  0  0  0  0  0  0  0  0  0  0
   48.9034    7.5868   18.0996 C   0  0  0  0  0  0  0  0  0  0  0  0
   48.8442    8.9560   18.4898 C   0  0  0  0  0  0  0  0  0  0  0  0
   48.8797    9.3170   19.9268 C   0  0  0  0  0  0  0  0  0  0  0  0
   47.6906    9.4563   20.6643 C   0  0  0  0  0  0  0  0  0  0  0  0
   47.7317    9.7849   22.0206 C   0  0  0  0  0  0  0  0  0  0  0  0
   48.9602    9.9756   22.6421 C   0  0  0  0  0  0  0  0  0  0  0  0
   48.9968   10.2768   23.9470 F   0  0  0  0  0  0  0  0  0  0  0  0
   50.1504    9.8496   21.9354 C   0  0  0  0  0  0  0  0  0  0  0  0
   50.1107    9.5196   20.5796 C   0  0  0  0  0  0  0  0  0  0  0  0
   48.7816   10.5599   14.9830 C   0  0  0  0  0  0  0  0  0  0  0  0
   49.6630   10.3061   13.7779 C   0  0  0  0  0  0  0  0  0  0  0  0
   49.9984   11.4184   14.7174 C   0  0  0  0  0  0  0  0  0  0  0  0
   50.5323   16.0411   16.7584 C   0  0  0  0  0  0  0  0  0  0  0  0
   51.9463   16.2964   17.2765 C   0  0  0  0  0  0  0  0  0  0  0  0
   52.6045   15.2599   17.5894 O   0  0  0  0  0  0  0  0  0  0  0  0
   52.2856   17.5121   17.3178 O   0  0  0  0  0  0  0  0  0  0  0  0
   50.0639   15.8301   14.0167 H   0  0  0  0  0  0  0  0  0  0  0  0
   50.9746   15.2772   16.0167 H   0  0  0  0  0  0  0  0  0  0  0  0
   48.1287   14.3033   16.5677 H   0  0  0  0  0  0  0  0  0  0  0  0
   49.4468   14.3902   17.7528 H   0  0  0  0  0  0  0  0  0  0  0  0
   50.7528   12.7648   16.2089 H   0  0  0  0  0  0  0  0  0  0  0  0
   49.2965   13.3048   14.4391 H   0  0  0  0  0  0  0  0  0  0  0  0
   48.0482   11.6817   17.2383 H   0  0  0  0  0  0  0  0  0  0  0  0
   50.9822   11.0469   17.9503 H   0  0  0  0  0  0  0  0  0  0  0  0
   47.5008    7.7597   22.6682 H   0  0  0  0  0  0  0  0  0  0  0  0
   46.7526    5.4770   22.0856 H   0  0  0  0  0  0  0  0  0  0  0  0
   47.0185    4.6485   19.7545 H   0  0  0  0  0  0  0  0  0  0  0  0
   48.0114    6.1009   18.0506 H   0  0  0  0  0  0  0  0  0  0  0  0
   51.0886    7.3757   17.4475 H   0  0  0  0  0  0  0  0  0  0  0  0
   51.4379    6.6351   15.0989 H   0  0  0  0  0  0  0  0  0  0  0  0
   47.6752    8.3532   13.9723 H   0  0  0  0  0  0  0  0  0  0  0  0
   47.2934    9.0913   16.3098 H   0  0  0  0  0  0  0  0  0  0  0  0
   48.9246   12.5270   20.4248 H   0  0  0  0  0  0  0  0  0  0  0  0
   49.7480   12.7268   22.7607 H   0  0  0  0  0  0  0  0  0  0  0  0
   50.1138   10.9422   22.8167 H   0  0  0  0  0  0  0  0  0  0  0  0
   51.7173   11.2148   20.8986 H   0  0  0  0  0  0  0  0  0  0  0  0
   51.3360   12.9964   20.8227 H   0  0  0  0  0  0  0  0  0  0  0  0
   48.2852   16.7690   15.9368 H   0  0  0  0  0  0  0  0  0  0  0  0
   49.4427   16.8743   17.2851 H   0  0  0  0  0  0  0  0  0  0  0  0
   51.5519   13.8396   17.1110 H   0  0  0  0  0  0  0  0  0  0  0  0
   50.0935   14.8392   18.5038 H   0  0  0  0  0  0  0  0  0  0  0  0
   48.2642   14.5160   16.0488 H   0  0  0  0  0  0  0  0  0  0  0  0
   47.9827   15.6914   17.3308 H   0  0  0  0  0  0  0  0  0  0  0  0
   46.5647   13.9405   17.8236 H   0  0  0  0  0  0  0  0  0  0  0  0
   48.2070   14.6508   19.5433 H   0  0  0  0  0  0  0  0  0  0  0  0
   46.9671   11.9148   16.8101 H   0  0  0  0  0  0  0  0  0  0  0  0
   49.4686   11.7264   18.5796 H   0  0  0  0  0  0  0  0  0  0  0  0
   48.8968    5.7717   15.2335 H   0  0  0  0  0  0  0  0  0  0  0  0
   49.0239    3.8907   16.8319 H   0  0  0  0  0  0  0  0  0  0  0  0
   49.0839    4.3560   19.2761 H   0  0  0  0  0  0  0  0  0  0  0  0
   49.0093    6.6690   20.0820 H   0  0  0  0  0  0  0  0  0  0  0  0
   46.7286    9.3222   20.1735 H   0  0  0  0  0  0  0  0  0  0  0  0
   46.8163    9.8988   22.5913 H   0  0  0  0  0  0  0  0  0  0  0  0
   51.0982   10.0180   22.4381 H   0  0  0  0  0  0  0  0  0  0  0  0
   51.0428    9.4356   20.0228 H   0  0  0  0  0  0  0  0  0  0  0  0
   47.8154   11.0041   14.7591 H   0  0  0  0  0  0  0  0  0  0  0  0
   49.2853   10.5781   12.7977 H   0  0  0  0  0  0  0  0  0  0  0  0
   50.3073    9.4350   13.7811 H   0  0  0  0  0  0  0  0  0  0  0  0
   50.8600   11.3085   15.3662 H   0  0  0  0  0  0  0  0  0  0  0  0
   49.8407   12.4414   14.3896 H   0  0  0  0  0  0  0  0  0  0  0  0
   50.5921   15.9105   15.6709 H   0  0  0  0  0  0  0  0  0  0  0  0
   49.9186   16.9243   16.9644 H   0  0  0  0  0  0  0  0  0  0  0  0
  2  1  1  0
  2  3  1  0
  3  4  1  0
  4  5  1  0
  4  6  1  0
  6  7  2  0
  7  8  1  0
  8  9  2  0
  9 10  1  0
 10 11  2  0
 11 12  1  0
 12 13  2  0
 13 14  1  0
 14 15  2  0
 15 16  1  0
 11 16  1  0
 16 17  2  0
  8 17  1  0
 17 18  1  0
 18 19  2  0
 19 20  1  0
 20 21  2  0
 21 22  1  0
 21 23  1  0
 23 24  2  0
 18 24  1  0
  9 25  1  0
 25 26  1  0
 26 27  1  0
 25 27  1  0
  2 28  1  0
 28 29  1  0
 29 30  2  0
 29 31  1  0
 34 33  1  0
 34 35  1  0
 35 36  1  0
 36 37  1  0
 36 38  1  0
 38 39  2  0
 39 40  1  0
 40 41  2  0
 41 42  1  0
 42 43  2  0
 43 44  1  0
 44 45  2  0
 45 46  1  0
 46 47  2  0
 47 48  1  0
 43 48  1  0
 48 49  2  0
 40 49  1  0
 49 50  1  0
 50 51  2  0
 51 52  1  0
 52 53  2  0
 53 54  1  0
 53 55  1  0
 55 56  2  0
 50 56  1  0
 41 57  1  0
 57 58  1  0
 58 59  1  0
 57 59  1  0
 34 60  1  0
 60 61  1  0
 61 62  2  0
 61 63  1  0
  1 64  1  0
  2 65  1  6
  3 66  1  0
  3 67  1  0
  4 68  1  6
  5 69  1  0
  6 70  1  0
  7 71  1  0
 12 72  1  0
 13 73  1  0
 14 74  1  0
 15 75  1  0
 19 76  1  0
 20 77  1  0
 23 78  1  0
 24 79  1  0
 25 80  1  0
 26 81  1  0
 26 82  1  0
 27 83  1  0
 27 84  1  0
 28 85  1  0
 28 86  1  0
 33 87  1  0
 34 88  1  6
 35 89  1  0
 35 90  1  0
 36 91  1  1
 37 92  1  0
 38 93  1  0
 39 94  1  0
 44 95  1  0
 45 96  1  0
 46 97  1  0
 47 98  1  0
 51 99  1  0
 52100  1  0
 55101  1  0
 56102  1  0
 57103  1  0
 58104  1  0
 58105  1  0
 59106  1  0
 59107  1  0
 60108  1  0
 60109  1  0
M  CHG  3  31  -1  32   2  63  -1
M  END
> <Uni-Dock RESULT> 
ENERGY=   -4.753  LOWER_BOUND=    3.769  UPPER_BOUND=    6.326
INTER + INTRA:          -4.753
INTER:                  -4.753
INTRA:                   0.000
UNBOUND:                 0.000

$$$$

     RDKit          3D

109114  0  0  0  0  0  0  0  0999 V2000
   42.3262   10.9759   11.8394 O   0  0  0  0  0  0  0  0  0  0  0  0
   42.7341   11.9560   10.8775 C   0  0  2  0  0  0  0  0  0  0  0  0
   44.1810   12.3675   11.1833 C   0  0  0  0  0  0  0  0  0  0  0  0
   45.1207   11.1558   11.2602 C   0  0  2  0  0  0  0  0  0  0  0  0
   44.8389   10.3830   12.4222 O   0  0  0  0  0  0  0  0  0  0  0  0
   46.5522   11.5888   11.3836 C   0  0  0  0  0  0  0  0  0  0  0  0
   47.5017   11.3321   10.4710 C   0  0  0  0  0  0  0  0  0  0  0  0
   48.8865   11.8064   10.6398 C   0  0  0  0  0  0  0  0  0  0  0  0
   49.2775   13.0178   10.0421 C   0  0  0  0  0  0  0  0  0  0  0  0
   50.5353   13.5078   10.2007 N   0  0  0  0  0  0  0  0  0  0  0  0
   51.4332   12.8298   10.9262 C   0  0  0  0  0  0  0  0  0  0  0  0
   52.7023   13.3786   11.0541 C   0  0  0  0  0  0  0  0  0  0  0  0
   53.7110   12.7508   11.7862 C   0  0  0  0  0  0  0  0  0  0  0  0
   53.4511   11.5387   12.4073 C   0  0  0  0  0  0  0  0  0  0  0  0
   52.1825   10.9716   12.2940 C   0  0  0  0  0  0  0  0  0  0  0  0
   51.1484   11.6024   11.5525 C   0  0  0  0  0  0  0  0  0  0  0  0
   49.8335   11.0760   11.3981 C   0  0  0  0  0  0  0  0  0  0  0  0
   49.4778    9.7749   12.0034 C   0  0  0  0  0  0  0  0  0  0  0  0
   49.7388    8.5744   11.3181 C   0  0  0  0  0  0  0  0  0  0  0  0
   49.4227    7.3443   11.8963 C   0  0  0  0  0  0  0  0  0  0  0  0
   48.8485    7.3126   13.1618 C   0  0  0  0  0  0  0  0  0  0  0  0
   48.5586    6.1307   13.7223 F   0  0  0  0  0  0  0  0  0  0  0  0
   48.5771    8.4831   13.8579 C   0  0  0  0  0  0  0  0  0  0  0  0
   48.8948    9.7132   13.2807 C   0  0  0  0  0  0  0  0  0  0  0  0
   48.3209   13.8483    9.2013 C   0  0  0  0  0  0  0  0  0  0  0  0
   48.8270   14.6433    8.0179 C   0  0  0  0  0  0  0  0  0  0  0  0
   47.9948   13.4187    7.7881 C   0  0  0  0  0  0  0  0  0  0  0  0
   41.7981   13.1568   10.9284 C   0  0  0  0  0  0  0  0  0  0  0  0
   40.3735   12.7825   10.5179 C   0  0  0  0  0  0  0  0  0  0  0  0
   39.6505   13.7500   10.1539 O   0  0  0  0  0  0  0  0  0  0  0  0
   40.0865   11.5514   10.6171 O   0  0  0  0  0  0  0  0  0  0  0  0
   47.5558   11.6067   11.1078 Ca  0  0  0  0  0 15  0  0  0  0  0  0
   44.5844   11.5154   10.0058 O   0  0  0  0  0  0  0  0  0  0  0  0
   43.9396   12.7821   10.1150 C   0  0  2  0  0  0  0  0  0  0  0  0
   44.0821   13.3171   11.5493 C   0  0  0  0  0  0  0  0  0  0  0  0
   45.4829   13.8156   11.9578 C   0  0  2  0  0  0  0  0  0  0  0  0
   46.0638   14.7063   11.0094 O   0  0  0  0  0  0  0  0  0  0  0  0
   46.4823   12.7497   12.3224 C   0  0  0  0  0  0  0  0  0  0  0  0
   47.2877   12.1127   11.4560 C   0  0  0  0  0  0  0  0  0  0  0  0
   48.3016   11.1070   11.8395 C   0  0  0  0  0  0  0  0  0  0  0  0
   47.9747    9.9584   12.5871 C   0  0  0  0  0  0  0  0  0  0  0  0
   48.9287    9.0575   12.9596 N   0  0  0  0  0  0  0  0  0  0  0  0
   50.1978    9.2199   12.5697 C   0  0  0  0  0  0  0  0  0  0  0  0
   51.1247    8.2627   12.9657 C   0  0  0  0  0  0  0  0  0  0  0  0
   52.4726    8.3386   12.6072 C   0  0  0  0  0  0  0  0  0  0  0  0
   52.9104    9.3993   11.8312 C   0  0  0  0  0  0  0  0  0  0  0  0
   51.9977   10.3737   11.4251 C   0  0  0  0  0  0  0  0  0  0  0  0
   50.6245   10.3076   11.7858 C   0  0  0  0  0  0  0  0  0  0  0  0
   49.6461   11.2738   11.4119 C   0  0  0  0  0  0  0  0  0  0  0  0
   50.0356   12.4349   10.5772 C   0  0  0  0  0  0  0  0  0  0  0  0
   50.4420   13.6438   11.1693 C   0  0  0  0  0  0  0  0  0  0  0  0
   50.8190   14.7299   10.3771 C   0  0  0  0  0  0  0  0  0  0  0  0
   50.7898   14.6105    8.9927 C   0  0  0  0  0  0  0  0  0  0  0  0
   51.1658   15.6497    8.2353 F   0  0  0  0  0  0  0  0  0  0  0  0
   50.3867   13.4290    8.3816 C   0  0  0  0  0  0  0  0  0  0  0  0
   50.0111   12.3419    9.1726 C   0  0  0  0  0  0  0  0  0  0  0  0
   46.5546    9.6290   13.0278 C   0  0  0  0  0  0  0  0  0  0  0  0
   46.0598    8.1995   12.9554 C   0  0  0  0  0  0  0  0  0  0  0  0
   45.5172    9.2181   12.0064 C   0  0  0  0  0  0  0  0  0  0  0  0
   42.4674   12.6001    9.7524 C   0  0  0  0  0  0  0  0  0  0  0  0
   42.3063   12.3420    8.2556 C   0  0  0  0  0  0  0  0  0  0  0  0
   43.2605   11.7134    7.7079 O   0  0  0  0  0  0  0  0  0  0  0  0
   41.2337   12.7801    7.7533 O   0  0  0  0  0  0  0  0  0  0  0  0
   41.3688   10.8265   11.6040 H   0  0  0  0  0  0  0  0  0  0  0  0
   42.6996   11.4792    9.8898 H   0  0  0  0  0  0  0  0  0  0  0  0
   44.2017   12.8911   12.1486 H   0  0  0  0  0  0  0  0  0  0  0  0
   44.5259   13.0686   10.4128 H   0  0  0  0  0  0  0  0  0  0  0  0
   44.9862   10.5156   10.3813 H   0  0  0  0  0  0  0  0  0  0  0  0
   43.8549   10.3048   12.4357 H   0  0  0  0  0  0  0  0  0  0  0  0
   46.7973   12.1350   12.2905 H   0  0  0  0  0  0  0  0  0  0  0  0
   47.2867   10.7824    9.5611 H   0  0  0  0  0  0  0  0  0  0  0  0
   52.9110   14.3252   10.5610 H   0  0  0  0  0  0  0  0  0  0  0  0
   54.6927   13.2076   11.8597 H   0  0  0  0  0  0  0  0  0  0  0  0
   54.2252   11.0364   12.9814 H   0  0  0  0  0  0  0  0  0  0  0  0
   52.0023   10.0243   12.7994 H   0  0  0  0  0  0  0  0  0  0  0  0
   50.1838    8.5996   10.3252 H   0  0  0  0  0  0  0  0  0  0  0  0
   49.6205    6.4148   11.3719 H   0  0  0  0  0  0  0  0  0  0  0  0
   48.1104    8.4371   14.8372 H   0  0  0  0  0  0  0  0  0  0  0  0
   48.6749   10.6300   13.8240 H   0  0  0  0  0  0  0  0  0  0  0  0
   47.5119   14.3117    9.7631 H   0  0  0  0  0  0  0  0  0  0  0  0
   48.3719   15.6092    7.8263 H   0  0  0  0  0  0  0  0  0  0  0  0
   49.8842   14.5930    7.7781 H   0  0  0  0  0  0  0  0  0  0  0  0
   48.4867   12.5393    7.3853 H   0  0  0  0  0  0  0  0  0  0  0  0
   46.9695   13.5483    7.4574 H   0  0  0  0  0  0  0  0  0  0  0  0
   41.7492   13.5597   11.9473 H   0  0  0  0  0  0  0  0  0  0  0  0
   42.1598   13.9447   10.2585 H   0  0  0  0  0  0  0  0  0  0  0  0
   44.3934   11.2459    9.0687 H   0  0  0  0  0  0  0  0  0  0  0  0
   44.4184   13.4708    9.4075 H   0  0  0  0  0  0  0  0  0  0  0  0
   43.7454   12.5596   12.2701 H   0  0  0  0  0  0  0  0  0  0  0  0
   43.4020   14.1729   11.6506 H   0  0  0  0  0  0  0  0  0  0  0  0
   45.3464   14.4171   12.8668 H   0  0  0  0  0  0  0  0  0  0  0  0
   45.3516   15.0996   10.4807 H   0  0  0  0  0  0  0  0  0  0  0  0
   46.5364   12.5170   13.3824 H   0  0  0  0  0  0  0  0  0  0  0  0
   47.2202   12.3476   10.3945 H   0  0  0  0  0  0  0  0  0  0  0  0
   50.7810    7.4285   13.5733 H   0  0  0  0  0  0  0  0  0  0  0  0
   53.1659    7.5703   12.9395 H   0  0  0  0  0  0  0  0  0  0  0  0
   53.9563    9.4735   11.5441 H   0  0  0  0  0  0  0  0  0  0  0  0
   52.3720   11.1950   10.8149 H   0  0  0  0  0  0  0  0  0  0  0  0
   50.4498   13.7418   12.2532 H   0  0  0  0  0  0  0  0  0  0  0  0
   51.1277   15.6658   10.8303 H   0  0  0  0  0  0  0  0  0  0  0  0
   50.3573   13.3634    7.2980 H   0  0  0  0  0  0  0  0  0  0  0  0
   49.6813   11.4213    8.6933 H   0  0  0  0  0  0  0  0  0  0  0  0
   46.1963   10.1955   13.8832 H   0  0  0  0  0  0  0  0  0  0  0  0
   45.3972    7.8440   13.7377 H   0  0  0  0  0  0  0  0  0  0  0  0
   46.7216    7.4416   12.5537 H   0  0  0  0  0  0  0  0  0  0  0  0
   45.8109    9.1655   10.9642 H   0  0  0  0  0  0  0  0  0  0  0  0
   44.4981    9.5664   12.1440 H   0  0  0  0  0  0  0  0  0  0  0  0
   42.0381   11.7448   10.2883 H   0  0  0  0  0  0  0  0  0  0  0  0
   41.8936   13.4941   10.0178 H   0  0  0  0  0  0  0  0  0  0  0  0
  2  1  1  0
  2  3  1  0
  3  4  1  0
  4  5  1  0
  4  6  1  0
  6  7  2  0
  7  8  1  0
  8  9  2  0
  9 10  1  0
 10 11  2  0
 11 12  1  0
 12 13  2  0
 13 14  1  0
 14 15  2  0
 15 16  1  0
 11 16  1  0
 16 17  2  0
  8 17  1  0
 17 18  1  0
 18 19  2  0
 19 20  1  0
 20 21  2  0
 21 22  1  0
 21 23  1  0
 23 24  2  0
 18 24  1  0
  9 25  1  0
 25 26  1  0
 26 27  1  0
 25 27  1  0
  2 28  1  0
 28 29  1  0
 29 30  2  0
 29 31  1  0
 34 33  1  0
 34 35  1  0
 35 36  1  0
 36 37  1  0
 36 38  1  0
 38 39  2  0
 39 40  1  0
 40 41  2  0
 41 42  1  0
 42 43  2  0
 43 44  1  0
 44 45  2  0
 45 46  1  0
 46 47  2  0
 47 48  1  0
 43 48  1  0
 48 49  2  0
 40 49  1  0
 49 50  1  0
 50 51  2  0
 51 52  1  0
 52 53  2  0
 53 54  1  0
 53 55  1  0
 55 56  2  0
 50 56  1  0
 41 57  1  0
 57 58  1  0
 58 59  1  0
 57 59  1  0
 34 60  1  0
 60 61  1  0
 61 62  2  0
 61 63  1  0
  1 64  1  0
  2 65  1  6
  3 66  1  0
  3 67  1  0
  4 68  1  6
  5 69  1  0
  6 70  1  0
  7 71  1  0
 12 72  1  0
 13 73  1  0
 14 74  1  0
 15 75  1  0
 19 76  1  0
 20 77  1  0
 23 78  1  0
 24 79  1  0
 25 80  1  0
 26 81  1  0
 26 82  1  0
 27 83  1  0
 27 84  1  0
 28 85  1  0
 28 86  1  0
 33 87  1  0
 34 88  1  6
 35 89  1  0
 35 90  1  0
 36 91  1  1
 37 92  1  0
 38 93  1  0
 39 94  1  0
 44 95  1  0
 45 96  1  0
 46 97  1  0
 47 98  1  0
 51 99  1  0
 52100  1  0
 55101  1  0
 56102  1  0
 57103  1  0
 58104  1  0
 58105  1  0
 59106  1  0
 59107  1  0
 60108  1  0
 60109  1  0
M  CHG  3  31  -1  32   2  63  -1
M  END
> <Uni-Dock RESULT> 
ENERGY=   -4.662  LOWER_BOUND=    5.749  UPPER_BOUND=    9.852
INTER + INTRA:          -4.662
INTER:                  -4.662
INTRA:                   0.000
UNBOUND:                 0.000

$$$$

     RDKit          3D

109114  0  0  0  0  0  0  0  0999 V2000
   47.4204    6.0442   18.2587 O   0  0  0  0  0  0  0  0  0  0  0  0
   48.5540    5.7636   17.4289 C   0  0  2  0  0  0  0  0  0  0  0  0
   48.8160    6.9818   16.5323 C   0  0  0  0  0  0  0  0  0  0  0  0
   48.9568    8.2763   17.3455 C   0  0  2  0  0  0  0  0  0  0  0  0
   47.7011    8.6515   17.9014 O   0  0  0  0  0  0  0  0  0  0  0  0
   49.3855    9.4192   16.4726 C   0  0  0  0  0  0  0  0  0  0  0  0
   50.5438   10.0826   16.6091 C   0  0  0  0  0  0  0  0  0  0  0  0
   50.9176   11.1826   15.7028 C   0  0  0  0  0  0  0  0  0  0  0  0
   51.7284   10.9100   14.5865 C   0  0  0  0  0  0  0  0  0  0  0  0
   52.0688   11.8891   13.7074 N   0  0  0  0  0  0  0  0  0  0  0  0
   51.6423   13.1432   13.9012 C   0  0  0  0  0  0  0  0  0  0  0  0
   52.0210   14.1017   12.9706 C   0  0  0  0  0  0  0  0  0  0  0  0
   51.6321   15.4373   13.0821 C   0  0  0  0  0  0  0  0  0  0  0  0
   50.8454   15.8328   14.1532 C   0  0  0  0  0  0  0  0  0  0  0  0
   50.4516   14.8857   15.0975 C   0  0  0  0  0  0  0  0  0  0  0  0
   50.8406   13.5238   14.9932 C   0  0  0  0  0  0  0  0  0  0  0  0
   50.4728   12.5088   15.9229 C   0  0  0  0  0  0  0  0  0  0  0  0
   49.6587   12.8474   17.1097 C   0  0  0  0  0  0  0  0  0  0  0  0
   50.2728   13.3139   18.2862 C   0  0  0  0  0  0  0  0  0  0  0  0
   49.5048   13.6536   19.4007 C   0  0  0  0  0  0  0  0  0  0  0  0
   48.1215   13.5308   19.3392 C   0  0  0  0  0  0  0  0  0  0  0  0
   47.3838   13.8709   20.4046 F   0  0  0  0  0  0  0  0  0  0  0  0
   47.4908   13.0694   18.1914 C   0  0  0  0  0  0  0  0  0  0  0  0
   48.2585   12.7313   17.0762 C   0  0  0  0  0  0  0  0  0  0  0  0
   52.2564    9.5145   14.2943 C   0  0  0  0  0  0  0  0  0  0  0  0
   53.6129    9.3229   13.6525 C   0  0  0  0  0  0  0  0  0  0  0  0
   53.4171    8.9667   15.0948 C   0  0  0  0  0  0  0  0  0  0  0  0
   48.2942    4.5140   16.5973 C   0  0  0  0  0  0  0  0  0  0  0  0
   48.1412    3.2712   17.4749 C   0  0  0  0  0  0  0  0  0  0  0  0
   48.3201    2.1725   16.8815 O   0  0  0  0  0  0  0  0  0  0  0  0
   47.8294    3.4959   18.6833 O   0  0  0  0  0  0  0  0  0  0  0  0
   49.9960   10.2178   16.2024 Ca  0  0  0  0  0 15  0  0  0  0  0  0
   49.9721    7.3019   17.4466 O   0  0  0  0  0  0  0  0  0  0  0  0
   49.7665    6.3025   16.4511 C   0  0  2  0  0  0  0  0  0  0  0  0
   48.5319    6.6559   15.6057 C   0  0  0  0  0  0  0  0  0  0  0  0
   48.6906    7.8318   14.6209 C   0  0  2  0  0  0  0  0  0  0  0  0
   49.8636    7.7406   13.8171 O   0  0  0  0  0  0  0  0  0  0  0  0
   48.5984    9.2107   15.2192 C   0  0  0  0  0  0  0  0  0  0  0  0
   49.6265    9.8992   15.7430 C   0  0  0  0  0  0  0  0  0  0  0  0
   49.5276   11.2744   16.2771 C   0  0  0  0  0  0  0  0  0  0  0  0
   48.6058   11.6249   17.2833 C   0  0  0  0  0  0  0  0  0  0  0  0
   48.5063   12.9058   17.7413 N   0  0  0  0  0  0  0  0  0  0  0  0
   49.3301   13.8526   17.2789 C   0  0  0  0  0  0  0  0  0  0  0  0
   49.1937   15.1371   17.7924 C   0  0  0  0  0  0  0  0  0  0  0  0
   50.0076   16.1943   17.3789 C   0  0  0  0  0  0  0  0  0  0  0  0
   50.9862   15.9656   16.4256 C   0  0  0  0  0  0  0  0  0  0  0  0
   51.1386   14.6844   15.8939 C   0  0  0  0  0  0  0  0  0  0  0  0
   50.3148   13.6019   16.3057 C   0  0  0  0  0  0  0  0  0  0  0  0
   50.4133   12.2752   15.7952 C   0  0  0  0  0  0  0  0  0  0  0  0
   51.4394   11.9499   14.7764 C   0  0  0  0  0  0  0  0  0  0  0  0
   51.1469   12.0425   13.4041 C   0  0  0  0  0  0  0  0  0  0  0  0
   52.1218   11.7460   12.4497 C   0  0  0  0  0  0  0  0  0  0  0  0
   53.3897   11.3558   12.8643 C   0  0  0  0  0  0  0  0  0  0  0  0
   54.3273   11.0858   11.9461 F   0  0  0  0  0  0  0  0  0  0  0  0
   53.7038   11.2506   14.2141 C   0  0  0  0  0  0  0  0  0  0  0  0
   52.7304   11.5483   15.1694 C   0  0  0  0  0  0  0  0  0  0  0  0
   47.6657   10.6204   17.9366 C   0  0  0  0  0  0  0  0  0  0  0  0
   47.4218   10.6834   19.4300 C   0  0  0  0  0  0  0  0  0  0  0  0
   48.2138    9.5531   18.8577 C   0  0  0  0  0  0  0  0  0  0  0  0
   49.5708    4.9617   17.1551 C   0  0  0  0  0  0  0  0  0  0  0  0
   50.8837    4.4726   17.7632 C   0  0  0  0  0  0  0  0  0  0  0  0
   51.6678    5.3832   18.1650 O   0  0  0  0  0  0  0  0  0  0  0  0
   51.0178    3.2173   17.7983 O   0  0  0  0  0  0  0  0  0  0  0  0
   47.2896    5.1837   18.7452 H   0  0  0  0  0  0  0  0  0  0  0  0
   49.4160    5.6161   18.0917 H   0  0  0  0  0  0  0  0  0  0  0  0
   47.9745    7.0934   15.8353 H   0  0  0  0  0  0  0  0  0  0  0  0
   49.7223    6.8037   15.9397 H   0  0  0  0  0  0  0  0  0  0  0  0
   49.6667    8.1320   18.1676 H   0  0  0  0  0  0  0  0  0  0  0  0
   47.3360    7.8149   18.2773 H   0  0  0  0  0  0  0  0  0  0  0  0
   48.6793    9.7037   15.6972 H   0  0  0  0  0  0  0  0  0  0  0  0
   51.2630    9.8251   17.3790 H   0  0  0  0  0  0  0  0  0  0  0  0
   52.6448   13.7955   12.1341 H   0  0  0  0  0  0  0  0  0  0  0  0
   51.9518   16.1595   12.3378 H   0  0  0  0  0  0  0  0  0  0  0  0
   50.5335   16.8689   14.2552 H   0  0  0  0  0  0  0  0  0  0  0  0
   49.8262   15.2209   15.9233 H   0  0  0  0  0  0  0  0  0  0  0  0
   51.3563   13.4052   18.3358 H   0  0  0  0  0  0  0  0  0  0  0  0
   49.9730   14.0128   20.3117 H   0  0  0  0  0  0  0  0  0  0  0  0
   46.4105   12.9624   18.1706 H   0  0  0  0  0  0  0  0  0  0  0  0
   47.7638   12.3628   16.1798 H   0  0  0  0  0  0  0  0  0  0  0  0
   51.4941    8.7964   13.9973 H   0  0  0  0  0  0  0  0  0  0  0  0
   53.7250    8.5122   12.9405 H   0  0  0  0  0  0  0  0  0  0  0  0
   54.2020   10.2045   13.4211 H   0  0  0  0  0  0  0  0  0  0  0  0
   53.8800    9.6033   15.8418 H   0  0  0  0  0  0  0  0  0  0  0  0
   53.3783    7.9164   15.3644 H   0  0  0  0  0  0  0  0  0  0  0  0
   47.3668    4.6240   16.0224 H   0  0  0  0  0  0  0  0  0  0  0  0
   49.1211    4.3488   15.8977 H   0  0  0  0  0  0  0  0  0  0  0  0
   50.7521    6.9554   17.9554 H   0  0  0  0  0  0  0  0  0  0  0  0
   50.6599    6.2659   15.8148 H   0  0  0  0  0  0  0  0  0  0  0  0
   47.6695    6.8471   16.2584 H   0  0  0  0  0  0  0  0  0  0  0  0
   48.2817    5.7729   15.0031 H   0  0  0  0  0  0  0  0  0  0  0  0
   47.8539    7.7596   13.9126 H   0  0  0  0  0  0  0  0  0  0  0  0
   50.1444    6.8123   13.7873 H   0  0  0  0  0  0  0  0  0  0  0  0
   47.6075    9.6556   15.1921 H   0  0  0  0  0  0  0  0  0  0  0  0
   50.6143    9.4411   15.7726 H   0  0  0  0  0  0  0  0  0  0  0  0
   48.4268   15.3168   18.5426 H   0  0  0  0  0  0  0  0  0  0  0  0
   49.8669   17.1849   17.8039 H   0  0  0  0  0  0  0  0  0  0  0  0
   51.6275   16.7779   16.0924 H   0  0  0  0  0  0  0  0  0  0  0  0
   51.9174   14.5358   15.1467 H   0  0  0  0  0  0  0  0  0  0  0  0
   50.1494   12.3329   13.0800 H   0  0  0  0  0  0  0  0  0  0  0  0
   51.8981   11.8108   11.3903 H   0  0  0  0  0  0  0  0  0  0  0  0
   54.6966   10.9293   14.5149 H   0  0  0  0  0  0  0  0  0  0  0  0
   52.9725   11.4515   16.2268 H   0  0  0  0  0  0  0  0  0  0  0  0
   46.7978   10.3494   17.3413 H   0  0  0  0  0  0  0  0  0  0  0  0
   46.4264   10.4582   19.7987 H   0  0  0  0  0  0  0  0  0  0  0  0
   47.9549   11.4260   20.0114 H   0  0  0  0  0  0  0  0  0  0  0  0
   49.2826    9.5245   19.0370 H   0  0  0  0  0  0  0  0  0  0  0  0
   47.7620    8.5664   18.8230 H   0  0  0  0  0  0  0  0  0  0  0  0
   48.8384    5.0523   17.9667 H   0  0  0  0  0  0  0  0  0  0  0  0
   49.2086    4.2070   16.4492 H   0  0  0  0  0  0  0  0  0  0  0  0
  2  1  1  0
  2  3  1  0
  3  4  1  0
  4  5  1  0
  4  6  1  0
  6  7  2  0
  7  8  1  0
  8  9  2  0
  9 10  1  0
 10 11  2  0
 11 12  1  0
 12 13  2  0
 13 14  1  0
 14 15  2  0
 15 16  1  0
 11 16  1  0
 16 17  2  0
  8 17  1  0
 17 18  1  0
 18 19  2  0
 19 20  1  0
 20 21  2  0
 21 22  1  0
 21 23  1  0
 23 24  2  0
 18 24  1  0
  9 25  1  0
 25 26  1  0
 26 27  1  0
 25 27  1  0
  2 28  1  0
 28 29  1  0
 29 30  2  0
 29 31  1  0
 34 33  1  0
 34 35  1  0
 35 36  1  0
 36 37  1  0
 36 38  1  0
 38 39  2  0
 39 40  1  0
 40 41  2  0
 41 42  1  0
 42 43  2  0
 43 44  1  0
 44 45  2  0
 45 46  1  0
 46 47  2  0
 47 48  1  0
 43 48  1  0
 48 49  2  0
 40 49  1  0
 49 50  1  0
 50 51  2  0
 51 52  1  0
 52 53  2  0
 53 54  1  0
 53 55  1  0
 55 56  2  0
 50 56  1  0
 41 57  1  0
 57 58  1  0
 58 59  1  0
 57 59  1  0
 34 60  1  0
 60 61  1  0
 61 62  2  0
 61 63  1  0
  1 64  1  0
  2 65  1  6
  3 66  1  0
  3 67  1  0
  4 68  1  6
  5 69  1  0
  6 70  1  0
  7 71  1  0
 12 72  1  0
 13 73  1  0
 14 74  1  0
 15 75  1  0
 19 76  1  0
 20 77  1  0
 23 78  1  0
 24 79  1  0
 25 80  1  0
 26 81  1  0
 26 82  1  0
 27 83  1  0
 27 84  1  0
 28 85  1  0
 28 86  1  0
 33 87  1  0
 34 88  1  6
 35 89  1  0
 35 90  1  0
 36 91  1  1
 37 92  1  0
 38 93  1  0
 39 94  1  0
 44 95  1  0
 45 96  1  0
 46 97  1  0
 47 98  1  0
 51 99  1  0
 52100  1  0
 55101  1  0
 56102  1  0
 57103  1  0
 58104  1  0
 58105  1  0
 59106  1  0
 59107  1  0
 60108  1  0
 60109  1  0
M  CHG  3  31  -1  32   2  63  -1
M  END
> <Uni-Dock RESULT> 
ENERGY=   -4.620  LOWER_BOUND=    3.983  UPPER_BOUND=    8.036
INTER + INTRA:          -4.620
INTER:                  -4.620
INTRA:                   0.000
UNBOUND:                 0.000

$$$$

     RDKit          3D

109114  0  0  0  0  0  0  0  0999 V2000
   53.6045    7.8981   12.8965 O   0  0  0  0  0  0  0  0  0  0  0  0
   52.5962    8.8867   13.1380 C   0  0  2  0  0  0  0  0  0  0  0  0
   51.6473    8.3609   14.2240 C   0  0  0  0  0  0  0  0  0  0  0  0
   52.4018    7.9326   15.4905 C   0  0  2  0  0  0  0  0  0  0  0  0
   53.1599    6.7537   15.2411 O   0  0  0  0  0  0  0  0  0  0  0  0
   51.4487    7.5899   16.5978 C   0  0  0  0  0  0  0  0  0  0  0  0
   51.3718    8.2523   17.7621 C   0  0  0  0  0  0  0  0  0  0  0  0
   50.3960    7.8803   18.8016 C   0  0  0  0  0  0  0  0  0  0  0  0
   49.1612    8.5509   18.8588 C   0  0  0  0  0  0  0  0  0  0  0  0
   48.2200    8.2162   19.7805 N   0  0  0  0  0  0  0  0  0  0  0  0
   48.4632    7.2408   20.6645 C   0  0  0  0  0  0  0  0  0  0  0  0
   47.4650    6.9418   21.5823 C   0  0  0  0  0  0  0  0  0  0  0  0
   47.6193    5.9450   22.5468 C   0  0  0  0  0  0  0  0  0  0  0  0
   48.8034    5.2256   22.6026 C   0  0  0  0  0  0  0  0  0  0  0  0
   49.8175    5.5079   21.6884 C   0  0  0  0  0  0  0  0  0  0  0  0
   49.6707    6.5192   20.7022 C   0  0  0  0  0  0  0  0  0  0  0  0
   50.6671    6.8561   19.7412 C   0  0  0  0  0  0  0  0  0  0  0  0
   51.9708    6.1588   19.7463 C   0  0  0  0  0  0  0  0  0  0  0  0
   53.0153    6.6059   20.5755 C   0  0  0  0  0  0  0  0  0  0  0  0
   54.2399    5.9369   20.5973 C   0  0  0  0  0  0  0  0  0  0  0  0
   54.4204    4.8180   19.7925 C   0  0  0  0  0  0  0  0  0  0  0  0
   55.5913    4.1677   19.8246 F   0  0  0  0  0  0  0  0  0  0  0  0
   53.4068    4.3582   18.9622 C   0  0  0  0  0  0  0  0  0  0  0  0
   52.1816    5.0259   18.9416 C   0  0  0  0  0  0  0  0  0  0  0  0
   48.8058    9.6710   17.8941 C   0  0  0  0  0  0  0  0  0  0  0  0
   47.9427   10.8295   18.3430 C   0  0  0  0  0  0  0  0  0  0  0  0
   49.4029   11.0473   18.0869 C   0  0  0  0  0  0  0  0  0  0  0  0
   51.8434    9.1886   11.8485 C   0  0  0  0  0  0  0  0  0  0  0  0
   52.7552    9.8168   10.7940 C   0  0  0  0  0  0  0  0  0  0  0  0
   52.1585   10.4470    9.8784 O   0  0  0  0  0  0  0  0  0  0  0  0
   53.9953    9.6068   10.9550 O   0  0  0  0  0  0  0  0  0  0  0  0
   51.0635    7.6616   17.5622 Ca  0  0  0  0  0 15  0  0  0  0  0  0
   52.3425    9.3058   15.1721 O   0  0  0  0  0  0  0  0  0  0  0  0
   51.4146    9.5028   14.1080 C   0  0  2  0  0  0  0  0  0  0  0  0
   50.7893    8.1568   13.7065 C   0  0  0  0  0  0  0  0  0  0  0  0
   49.7721    7.5525   14.6953 C   0  0  2  0  0  0  0  0  0  0  0  0
   48.7795    8.4814   15.1221 O   0  0  0  0  0  0  0  0  0  0  0  0
   50.3539    6.8535   15.8956 C   0  0  0  0  0  0  0  0  0  0  0  0
   50.6804    7.4468   17.0560 C   0  0  0  0  0  0  0  0  0  0  0  0
   51.2001    6.7349   18.2432 C   0  0  0  0  0  0  0  0  0  0  0  0
   52.3444    5.9149   18.1860 C   0  0  0  0  0  0  0  0  0  0  0  0
   52.7909    5.2400   19.2840 N   0  0  0  0  0  0  0  0  0  0  0  0
   52.1771    5.3900   20.4629 C   0  0  0  0  0  0  0  0  0  0  0  0
   52.6845    4.6898   21.5512 C   0  0  0  0  0  0  0  0  0  0  0  0
   52.1188    4.7819   22.8249 C   0  0  0  0  0  0  0  0  0  0  0  0
   51.0147    5.5953   23.0207 C   0  0  0  0  0  0  0  0  0  0  0  0
   50.4865    6.3048   21.9414 C   0  0  0  0  0  0  0  0  0  0  0  0
   51.0528    6.2171   20.6407 C   0  0  0  0  0  0  0  0  0  0  0  0
   50.5555    6.9071   19.4975 C   0  0  0  0  0  0  0  0  0  0  0  0
   49.3804    7.8010   19.6273 C   0  0  0  0  0  0  0  0  0  0  0  0
   48.0779    7.3136   19.4194 C   0  0  0  0  0  0  0  0  0  0  0  0
   46.9746    8.1582   19.5549 C   0  0  0  0  0  0  0  0  0  0  0  0
   47.1705    9.4910   19.8973 C   0  0  0  0  0  0  0  0  0  0  0  0
   46.1088   10.2956   20.0406 F   0  0  0  0  0  0  0  0  0  0  0  0
   48.4473   10.0000   20.1028 C   0  0  0  0  0  0  0  0  0  0  0  0
   49.5512    9.1561   19.9692 C   0  0  0  0  0  0  0  0  0  0  0  0
   53.1672    5.7224   16.9189 C   0  0  0  0  0  0  0  0  0  0  0  0
   54.6790    5.6924   17.0043 C   0  0  0  0  0  0  0  0  0  0  0  0
   53.9977    6.8617   16.3709 C   0  0  0  0  0  0  0  0  0  0  0  0
   52.1645   10.1205   12.9300 C   0  0  0  0  0  0  0  0  0  0  0  0
   52.5448   11.5691   13.2298 C   0  0  0  0  0  0  0  0  0  0  0  0
   52.7896   11.8249   14.4464 O   0  0  0  0  0  0  0  0  0  0  0  0
   52.5776   12.3292   12.2218 O   0  0  0  0  0  0  0  0  0  0  0  0
   54.1208    8.2951   12.1414 H   0  0  0  0  0  0  0  0  0  0  0  0
   53.1025    9.7859   13.5110 H   0  0  0  0  0  0  0  0  0  0  0  0
   51.1043    7.4926   13.8269 H   0  0  0  0  0  0  0  0  0  0  0  0
   50.9101    9.1376   14.4640 H   0  0  0  0  0  0  0  0  0  0  0  0
   53.0912    8.7234   15.8066 H   0  0  0  0  0  0  0  0  0  0  0  0
   53.6073    6.9243   14.3778 H   0  0  0  0  0  0  0  0  0  0  0  0
   50.8023    6.7370   16.4089 H   0  0  0  0  0  0  0  0  0  0  0  0
   52.0101    9.1016   17.9801 H   0  0  0  0  0  0  0  0  0  0  0  0
   46.5386    7.5102   21.5458 H   0  0  0  0  0  0  0  0  0  0  0  0
   46.8189    5.7429   23.2512 H   0  0  0  0  0  0  0  0  0  0  0  0
   48.9401    4.4460   23.3473 H   0  0  0  0  0  0  0  0  0  0  0  0
   50.7331    4.9218   21.7480 H   0  0  0  0  0  0  0  0  0  0  0  0
   52.8755    7.4850   21.2018 H   0  0  0  0  0  0  0  0  0  0  0  0
   55.0500    6.2779   21.2340 H   0  0  0  0  0  0  0  0  0  0  0  0
   53.5748    3.4938   18.3270 H   0  0  0  0  0  0  0  0  0  0  0  0
   51.3906    4.6692   18.2851 H   0  0  0  0  0  0  0  0  0  0  0  0
   48.6572    9.3499   16.8646 H   0  0  0  0  0  0  0  0  0  0  0  0
   47.2359   11.2392   17.6294 H   0  0  0  0  0  0  0  0  0  0  0  0
   47.5980   10.8462   19.3719 H   0  0  0  0  0  0  0  0  0  0  0  0
   50.0478   11.2192   18.9426 H   0  0  0  0  0  0  0  0  0  0  0  0
   49.6929   11.5890   17.1925 H   0  0  0  0  0  0  0  0  0  0  0  0
   51.4356    8.2654   11.4195 H   0  0  0  0  0  0  0  0  0  0  0  0
   51.0144    9.8763   12.0489 H   0  0  0  0  0  0  0  0  0  0  0  0
   52.7147   10.2156   15.3173 H   0  0  0  0  0  0  0  0  0  0  0  0
   50.6343   10.1901   14.4587 H   0  0  0  0  0  0  0  0  0  0  0  0
   51.5779    7.4190   13.5058 H   0  0  0  0  0  0  0  0  0  0  0  0
   50.2542    8.3115   12.7604 H   0  0  0  0  0  0  0  0  0  0  0  0
   49.2204    6.7807   14.1415 H   0  0  0  0  0  0  0  0  0  0  0  0
   48.7173    9.1898   14.4618 H   0  0  0  0  0  0  0  0  0  0  0  0
   50.4909    5.7819   15.7788 H   0  0  0  0  0  0  0  0  0  0  0  0
   50.5467    8.5228   17.1602 H   0  0  0  0  0  0  0  0  0  0  0  0
   53.5528    4.0526   21.3985 H   0  0  0  0  0  0  0  0  0  0  0  0
   52.5448    4.2159   23.6494 H   0  0  0  0  0  0  0  0  0  0  0  0
   50.5620    5.6774   24.0057 H   0  0  0  0  0  0  0  0  0  0  0  0
   49.6187    6.9367   22.1270 H   0  0  0  0  0  0  0  0  0  0  0  0
   47.9262    6.2738   19.1361 H   0  0  0  0  0  0  0  0  0  0  0  0
   45.9688    7.7871   19.3898 H   0  0  0  0  0  0  0  0  0  0  0  0
   48.5775   11.0483   20.3549 H   0  0  0  0  0  0  0  0  0  0  0  0
   50.5523    9.5589   20.1158 H   0  0  0  0  0  0  0  0  0  0  0  0
   52.7355    5.0415   16.1902 H   0  0  0  0  0  0  0  0  0  0  0  0
   55.2180    5.0149   16.3501 H   0  0  0  0  0  0  0  0  0  0  0  0
   55.1469    5.8464   17.9692 H   0  0  0  0  0  0  0  0  0  0  0  0
   53.9902    7.8078   16.9002 H   0  0  0  0  0  0  0  0  0  0  0  0
   54.0584    6.9778   15.2931 H   0  0  0  0  0  0  0  0  0  0  0  0
   53.0888    9.5668   12.7244 H   0  0  0  0  0  0  0  0  0  0  0  0
   51.5448   10.1002   12.0275 H   0  0  0  0  0  0  0  0  0  0  0  0
  2  1  1  0
  2  3  1  0
  3  4  1  0
  4  5  1  0
  4  6  1  0
  6  7  2  0
  7  8  1  0
  8  9  2  0
  9 10  1  0
 10 11  2  0
 11 12  1  0
 12 13  2  0
 13 14  1  0
 14 15  2  0
 15 16  1  0
 11 16  1  0
 16 17  2  0
  8 17  1  0
 17 18  1  0
 18 19  2  0
 19 20  1  0
 20 21  2  0
 21 22  1  0
 21 23  1  0
 23 24  2  0
 18 24  1  0
  9 25  1  0
 25 26  1  0
 26 27  1  0
 25 27  1  0
  2 28  1  0
 28 29  1  0
 29 30  2  0
 29 31  1  0
 34 33  1  0
 34 35  1  0
 35 36  1  0
 36 37  1  0
 36 38  1  0
 38 39  2  0
 39 40  1  0
 40 41  2  0
 41 42  1  0
 42 43  2  0
 43 44  1  0
 44 45  2  0
 45 46  1  0
 46 47  2  0
 47 48  1  0
 43 48  1  0
 48 49  2  0
 40 49  1  0
 49 50  1  0
 50 51  2  0
 51 52  1  0
 52 53  2  0
 53 54  1  0
 53 55  1  0
 55 56  2  0
 50 56  1  0
 41 57  1  0
 57 58  1  0
 58 59  1  0
 57 59  1  0
 34 60  1  0
 60 61  1  0
 61 62  2  0
 61 63  1  0
  1 64  1  0
  2 65  1  6
  3 66  1  0
  3 67  1  0
  4 68  1  6
  5 69  1  0
  6 70  1  0
  7 71  1  0
 12 72  1  0
 13 73  1  0
 14 74  1  0
 15 75  1  0
 19 76  1  0
 20 77  1  0
 23 78  1  0
 24 79  1  0
 25 80  1  0
 26 81  1  0
 26 82  1  0
 27 83  1  0
 27 84  1  0
 28 85  1  0
 28 86  1  0
 33 87  1  0
 34 88  1  6
 35 89  1  0
 35 90  1  0
 36 91  1  1
 37 92  1  0
 38 93  1  0
 39 94  1  0
 44 95  1  0
 45 96  1  0
 46 97  1  0
 47 98  1  0
 51 99  1  0
 52100  1  0
 55101  1  0
 56102  1  0
 57103  1  0
 58104  1  0
 58105  1  0
 59106  1  0
 59107  1  0
 60108  1  0
 60109  1  0
M  CHG  3  31  -1  32   2  63  -1
M  END
> <Uni-Dock RESULT> 
ENERGY=   -4.582  LOWER_BOUND=    2.986  UPPER_BOUND=    4.816
INTER + INTRA:          -4.582
INTER:                  -4.582
INTRA:                   0.000
UNBOUND:                 0.000

$$$$

     RDKit          3D

109114  0  0  0  0  0  0  0  0999 V2000
   49.9976   11.6378   10.5721 O   0  0  0  0  0  0  0  0  0  0  0  0
   48.9697   11.5371   11.5648 C   0  0  2  0  0  0  0  0  0  0  0  0
   49.2048   10.2599   12.3831 C   0  0  0  0  0  0  0  0  0  0  0  0
   50.6251   10.2002   12.9630 C   0  0  2  0  0  0  0  0  0  0  0  0
   51.5768    9.9994   11.9235 O   0  0  0  0  0  0  0  0  0  0  0  0
   50.7782    9.0380   13.8998 C   0  0  0  0  0  0  0  0  0  0  0  0
   51.0460    9.1520   15.2096 C   0  0  0  0  0  0  0  0  0  0  0  0
   51.1609    7.9704   16.0823 C   0  0  0  0  0  0  0  0  0  0  0  0
   50.0378    7.5409   16.8117 C   0  0  0  0  0  0  0  0  0  0  0  0
   50.0916    6.4366   17.6022 N   0  0  0  0  0  0  0  0  0  0  0  0
   51.2309    5.7417   17.7080 C   0  0  0  0  0  0  0  0  0  0  0  0
   51.2268    4.6222   18.5296 C   0  0  0  0  0  0  0  0  0  0  0  0
   52.3624    3.8315   18.7105 C   0  0  0  0  0  0  0  0  0  0  0  0
   53.5389    4.1656   18.0573 C   0  0  0  0  0  0  0  0  0  0  0  0
   53.5639    5.2841   17.2253 C   0  0  0  0  0  0  0  0  0  0  0  0
   52.4139    6.0951   17.0331 C   0  0  0  0  0  0  0  0  0  0  0  0
   52.3739    7.2490   16.1984 C   0  0  0  0  0  0  0  0  0  0  0  0
   53.5908    7.6940   15.4862 C   0  0  0  0  0  0  0  0  0  0  0  0
   54.5250    8.5299   16.1244 C   0  0  0  0  0  0  0  0  0  0  0  0
   55.6843    8.9344   15.4613 C   0  0  0  0  0  0  0  0  0  0  0  0
   55.9129    8.5008   14.1605 C   0  0  0  0  0  0  0  0  0  0  0  0
   57.0330    8.8777   13.5296 F   0  0  0  0  0  0  0  0  0  0  0  0
   55.0049    7.6784   13.5066 C   0  0  0  0  0  0  0  0  0  0  0  0
   53.8464    7.2723   14.1701 C   0  0  0  0  0  0  0  0  0  0  0  0
   48.7070    8.2736   16.7497 C   0  0  0  0  0  0  0  0  0  0  0  0
   47.8067    8.3395   17.9636 C   0  0  0  0  0  0  0  0  0  0  0  0
   48.5269    9.5711   17.5059 C   0  0  0  0  0  0  0  0  0  0  0  0
   47.6006   11.5186   10.8970 C   0  0  0  0  0  0  0  0  0  0  0  0
   47.3074   12.8311   10.1694 C   0  0  0  0  0  0  0  0  0  0  0  0
   46.0871   13.0536    9.9393 O   0  0  0  0  0  0  0  0  0  0  0  0
   48.3263   13.5216    9.8650 O   0  0  0  0  0  0  0  0  0  0  0  0
   51.0234    8.5866   14.8051 Ca  0  0  0  0  0 15  0  0  0  0  0  0
   49.7253   11.1568   13.4785 O   0  0  0  0  0  0  0  0  0  0  0  0
   48.4175   10.8913   12.9772 C   0  0  2  0  0  0  0  0  0  0  0  0
   48.4475    9.6440   12.0787 C   0  0  0  0  0  0  0  0  0  0  0  0
   48.6222    8.2893   12.7941 C   0  0  2  0  0  0  0  0  0  0  0  0
   47.7375    8.1154   13.8975 O   0  0  0  0  0  0  0  0  0  0  0  0
   50.0253    7.9422   13.2168 C   0  0  0  0  0  0  0  0  0  0  0  0
   50.5936    8.2939   14.3824 C   0  0  0  0  0  0  0  0  0  0  0  0
   51.9545    7.8979   14.8035 C   0  0  0  0  0  0  0  0  0  0  0  0
   53.0917    8.1633   14.0151 C   0  0  0  0  0  0  0  0  0  0  0  0
   54.3359    7.7621   14.4043 N   0  0  0  0  0  0  0  0  0  0  0  0
   54.5094    7.1518   15.5818 C   0  0  0  0  0  0  0  0  0  0  0  0
   55.8014    6.7786   15.9337 C   0  0  0  0  0  0  0  0  0  0  0  0
   56.0886    6.1405   17.1426 C   0  0  0  0  0  0  0  0  0  0  0  0
   55.0587    5.8659   18.0272 C   0  0  0  0  0  0  0  0  0  0  0  0
   53.7533    6.2287   17.6929 C   0  0  0  0  0  0  0  0  0  0  0  0
   53.4493    6.8764   16.4648 C   0  0  0  0  0  0  0  0  0  0  0  0
   52.1386    7.2630   16.0610 C   0  0  0  0  0  0  0  0  0  0  0  0
   50.9846    7.0082   16.9555 C   0  0  0  0  0  0  0  0  0  0  0  0
   50.2450    5.8165   16.8557 C   0  0  0  0  0  0  0  0  0  0  0  0
   49.1664    5.5777   17.7094 C   0  0  0  0  0  0  0  0  0  0  0  0
   48.8244    6.5289   18.6633 C   0  0  0  0  0  0  0  0  0  0  0  0
   47.7978    6.2905   19.4905 F   0  0  0  0  0  0  0  0  0  0  0  0
   49.5350    7.7177   18.7797 C   0  0  0  0  0  0  0  0  0  0  0  0
   50.6146    7.9570   17.9277 C   0  0  0  0  0  0  0  0  0  0  0  0
   53.0291    8.9127   12.6907 C   0  0  0  0  0  0  0  0  0  0  0  0
   54.0971    9.9328   12.3555 C   0  0  0  0  0  0  0  0  0  0  0  0
   52.7096   10.3910   12.6675 C   0  0  0  0  0  0  0  0  0  0  0  0
   47.9529   12.1126   12.1870 C   0  0  0  0  0  0  0  0  0  0  0  0
   47.6522   13.2812   13.1234 C   0  0  0  0  0  0  0  0  0  0  0  0
   48.3653   13.3353   14.1694 O   0  0  0  0  0  0  0  0  0  0  0  0
   46.7346   14.0545   12.7301 O   0  0  0  0  0  0  0  0  0  0  0  0
   49.7230   12.4463   10.0571 H   0  0  0  0  0  0  0  0  0  0  0  0
   49.0669   12.4076   12.2258 H   0  0  0  0  0  0  0  0  0  0  0  0
   49.0544    9.3902   11.7294 H   0  0  0  0  0  0  0  0  0  0  0  0
   48.4618   10.2074   13.1890 H   0  0  0  0  0  0  0  0  0  0  0  0
   50.8663   11.1400   13.4722 H   0  0  0  0  0  0  0  0  0  0  0  0
   51.3088   10.6333   11.2157 H   0  0  0  0  0  0  0  0  0  0  0  0
   50.6674    8.0565   13.4467 H   0  0  0  0  0  0  0  0  0  0  0  0
   51.1695   10.1185   15.6860 H   0  0  0  0  0  0  0  0  0  0  0  0
   50.3075    4.3629   19.0495 H   0  0  0  0  0  0  0  0  0  0  0  0
   52.3227    2.9666   19.3649 H   0  0  0  0  0  0  0  0  0  0  0  0
   54.4324    3.5607   18.1869 H   0  0  0  0  0  0  0  0  0  0  0  0
   54.4976    5.5186   16.7168 H   0  0  0  0  0  0  0  0  0  0  0  0
   54.3434    8.8733   17.1411 H   0  0  0  0  0  0  0  0  0  0  0  0
   56.4081    9.5803   15.9480 H   0  0  0  0  0  0  0  0  0  0  0  0
   55.1930    7.3666   12.4837 H   0  0  0  0  0  0  0  0  0  0  0  0
   53.1321    6.6339   13.6542 H   0  0  0  0  0  0  0  0  0  0  0  0
   48.1946    8.1985   15.7922 H   0  0  0  0  0  0  0  0  0  0  0  0
   46.7353    8.2886   17.8014 H   0  0  0  0  0  0  0  0  0  0  0  0
   48.1421    7.8642   18.8797 H   0  0  0  0  0  0  0  0  0  0  0  0
   49.3469    9.9355   18.1162 H   0  0  0  0  0  0  0  0  0  0  0  0
   47.9523   10.3512   17.0173 H   0  0  0  0  0  0  0  0  0  0  0  0
   47.5497   10.7143   10.1531 H   0  0  0  0  0  0  0  0  0  0  0  0
   46.8187   11.3513   11.6460 H   0  0  0  0  0  0  0  0  0  0  0  0
   49.6011   11.9945   13.9982 H   0  0  0  0  0  0  0  0  0  0  0  0
   47.7518   10.7222   13.8331 H   0  0  0  0  0  0  0  0  0  0  0  0
   49.2273    9.7493   11.3123 H   0  0  0  0  0  0  0  0  0  0  0  0
   47.4877    9.5975   11.5477 H   0  0  0  0  0  0  0  0  0  0  0  0
   48.3307    7.5154   12.0709 H   0  0  0  0  0  0  0  0  0  0  0  0
   46.9761    8.7047   13.7768 H   0  0  0  0  0  0  0  0  0  0  0  0
   50.5844    7.3463   12.5006 H   0  0  0  0  0  0  0  0  0  0  0  0
   50.0274    8.8981   15.0902 H   0  0  0  0  0  0  0  0  0  0  0  0
   56.6108    6.9960   15.2403 H   0  0  0  0  0  0  0  0  0  0  0  0
   57.1127    5.8631   17.3790 H   0  0  0  0  0  0  0  0  0  0  0  0
   55.2653    5.3691   18.9719 H   0  0  0  0  0  0  0  0  0  0  0  0
   52.9651    6.0001   18.4094 H   0  0  0  0  0  0  0  0  0  0  0  0
   50.5035    5.0790   16.0983 H   0  0  0  0  0  0  0  0  0  0  0  0
   48.5901    4.6620   17.6315 H   0  0  0  0  0  0  0  0  0  0  0  0
   49.2404    8.4533   19.5224 H   0  0  0  0  0  0  0  0  0  0  0  0
   51.1618    8.8950   18.0095 H   0  0  0  0  0  0  0  0  0  0  0  0
   52.6748    8.3258   11.8475 H   0  0  0  0  0  0  0  0  0  0  0  0
   54.4283   10.0115   11.3252 H   0  0  0  0  0  0  0  0  0  0  0  0
   54.8691   10.1350   13.0883 H   0  0  0  0  0  0  0  0  0  0  0  0
   52.5287   10.8954   13.6100 H   0  0  0  0  0  0  0  0  0  0  0  0
   52.0920   10.7680   11.8580 H   0  0  0  0  0  0  0  0  0  0  0  0
   48.7287   12.4380   11.4830 H   0  0  0  0  0  0  0  0  0  0  0  0
   47.0482   11.8788   11.6162 H   0  0  0  0  0  0  0  0  0  0  0  0
  2  1  1  0
  2  3  1  0
  3  4  1  0
  4  5  1  0
  4  6  1  0
  6  7  2  0
  7  8  1  0
  8  9  2  0
  9 10  1  0
 10 11  2  0
 11 12  1  0
 12 13  2  0
 13 14  1  0
 14 15  2  0
 15 16  1  0
 11 16  1  0
 16 17  2  0
  8 17  1  0
 17 18  1  0
 18 19  2  0
 19 20  1  0
 20 21  2  0
 21 22  1  0
 21 23  1  0
 23 24  2  0
 18 24  1  0
  9 25  1  0
 25 26  1  0
 26 27  1  0
 25 27  1  0
  2 28  1  0
 28 29  1  0
 29 30  2  0
 29 31  1  0
 34 33  1  0
 34 35  1  0
 35 36  1  0
 36 37  1  0
 36 38  1  0
 38 39  2  0
 39 40  1  0
 40 41  2  0
 41 42  1  0
 42 43  2  0
 43 44  1  0
 44 45  2  0
 45 46  1  0
 46 47  2  0
 47 48  1  0
 43 48  1  0
 48 49  2  0
 40 49  1  0
 49 50  1  0
 50 51  2  0
 51 52  1  0
 52 53  2  0
 53 54  1  0
 53 55  1  0
 55 56  2  0
 50 56  1  0
 41 57  1  0
 57 58  1  0
 58 59  1  0
 57 59  1  0
 34 60  1  0
 60 61  1  0
 61 62  2  0
 61 63  1  0
  1 64  1  0
  2 65  1  6
  3 66  1  0
  3 67  1  0
  4 68  1  6
  5 69  1  0
  6 70  1  0
  7 71  1  0
 12 72  1  0
 13 73  1  0
 14 74  1  0
 15 75  1  0
 19 76  1  0
 20 77  1  0
 23 78  1  0
 24 79  1  0
 25 80  1  0
 26 81  1  0
 26 82  1  0
 27 83  1  0
 27 84  1  0
 28 85  1  0
 28 86  1  0
 33 87  1  0
 34 88  1  6
 35 89  1  0
 35 90  1  0
 36 91  1  1
 37 92  1  0
 38 93  1  0
 39 94  1  0
 44 95  1  0
 45 96  1  0
 46 97  1  0
 47 98  1  0
 51 99  1  0
 52100  1  0
 55101  1  0
 56102  1  0
 57103  1  0
 58104  1  0
 58105  1  0
 59106  1  0
 59107  1  0
 60108  1  0
 60109  1  0
M  CHG  3  31  -1  32   2  63  -1
M  END
> <Uni-Dock RESULT> 
ENERGY=   -4.536  LOWER_BOUND=    3.137  UPPER_BOUND=    6.260
INTER + INTRA:          -4.536
INTER:                  -4.536
INTRA:                   0.000
UNBOUND:                 0.000

$$$$
