
     RDKit          3D

109114  0  0  0  0  0  0  0  0999 V2000
   46.8833    7.8210   11.9185 O   0  0  0  0  0  0  0  0  0  0  0  0
   48.0804    8.3006   12.5520 C   0  0  2  0  0  0  0  0  0  0  0  0
   47.9055    8.1654   14.0718 C   0  0  0  0  0  0  0  0  0  0  0  0
   49.1509    8.5510   14.8786 C   0  0  2  0  0  0  0  0  0  0  0  0
   50.2296    7.6663   14.5683 O   0  0  0  0  0  0  0  0  0  0  0  0
   48.8644    8.4971   16.3578 C   0  0  0  0  0  0  0  0  0  0  0  0
   49.6046    7.8705   17.2871 C   0  0  0  0  0  0  0  0  0  0  0  0
   49.2385    7.8537   18.7152 C   0  0  0  0  0  0  0  0  0  0  0  0
   49.3211    9.0184   19.4992 C   0  0  0  0  0  0  0  0  0  0  0  0
   48.9730    9.0063   20.8134 N   0  0  0  0  0  0  0  0  0  0  0  0
   48.5490    7.8741   21.3858 C   0  0  0  0  0  0  0  0  0  0  0  0
   48.1928    7.9237   22.7265 C   0  0  0  0  0  0  0  0  0  0  0  0
   47.7370    6.7981   23.4138 C   0  0  0  0  0  0  0  0  0  0  0  0
   47.6338    5.5870   22.7480 C   0  0  0  0  0  0  0  0  0  0  0  0
   47.9901    5.5131   21.4025 C   0  0  0  0  0  0  0  0  0  0  0  0
   48.4517    6.6518   20.6941 C   0  0  0  0  0  0  0  0  0  0  0  0
   48.8173    6.6442   19.3203 C   0  0  0  0  0  0  0  0  0  0  0  0
   48.7715    5.3907   18.5336 C   0  0  0  0  0  0  0  0  0  0  0  0
   49.8385    4.4743   18.5863 C   0  0  0  0  0  0  0  0  0  0  0  0
   49.7988    3.2924   17.8440 C   0  0  0  0  0  0  0  0  0  0  0  0
   48.6952    3.0255   17.0422 C   0  0  0  0  0  0  0  0  0  0  0  0
   48.6609    1.8901   16.3324 F   0  0  0  0  0  0  0  0  0  0  0  0
   47.6292    3.9139   16.9708 C   0  0  0  0  0  0  0  0  0  0  0  0
   47.6674    5.0951   17.7147 C   0  0  0  0  0  0  0  0  0  0  0  0
   49.7938   10.3504   18.9396 C   0  0  0  0  0  0  0  0  0  0  0  0
   50.6974   11.2428   19.7602 C   0  0  0  0  0  0  0  0  0  0  0  0
   51.2465   10.5402   18.5569 C   0  0  0  0  0  0  0  0  0  0  0  0
   48.4111    9.7028   12.0468 C   0  0  0  0  0  0  0  0  0  0  0  0
   47.3833   10.7073   12.5526 C   0  0  0  0  0  0  0  0  0  0  0  0
   46.1786   10.3809   12.3376 O   0  0  0  0  0  0  0  0  0  0  0  0
   47.8550   11.7131   13.1471 O   0  0  0  0  0  0  0  0  0  0  0  0
   48.7453    7.6494   17.4070 Ca  0  0  0  0  0 15  0  0  0  0  0  0
   50.4019    8.1277   12.4726 O   0  0  0  0  0  0  0  0  0  0  0  0
   50.4799    9.3525   13.2144 C   0  0  2  0  0  0  0  0  0  0  0  0
   49.8773    9.1357   14.6107 C   0  0  0  0  0  0  0  0  0  0  0  0
   50.6925    8.1158   15.4257 C   0  0  2  0  0  0  0  0  0  0  0  0
   50.6768    6.8186   14.8412 O   0  0  0  0  0  0  0  0  0  0  0  0
   50.2183    7.9714   16.8448 C   0  0  0  0  0  0  0  0  0  0  0  0
   48.9378    7.8028   17.2161 C   0  0  0  0  0  0  0  0  0  0  0  0
   48.5384    7.7195   18.6300 C   0  0  0  0  0  0  0  0  0  0  0  0
   48.3812    8.8952   19.3832 C   0  0  0  0  0  0  0  0  0  0  0  0
   48.0536    8.8501   20.7016 N   0  0  0  0  0  0  0  0  0  0  0  0
   47.8519    7.6690   21.2997 C   0  0  0  0  0  0  0  0  0  0  0  0
   47.5103    7.6765   22.6459 C   0  0  0  0  0  0  0  0  0  0  0  0
   47.2697    6.4999   23.3570 C   0  0  0  0  0  0  0  0  0  0  0  0
   47.3755    5.2780   22.7107 C   0  0  0  0  0  0  0  0  0  0  0  0
   47.7160    5.2458   21.3586 C   0  0  0  0  0  0  0  0  0  0  0  0
   47.9611    6.4367   20.6270 C   0  0  0  0  0  0  0  0  0  0  0  0
   48.3110    6.4697   19.2494 C   0  0  0  0  0  0  0  0  0  0  0  0
   48.4315    5.2182   18.4744 C   0  0  0  0  0  0  0  0  0  0  0  0
   47.3104    4.6600   17.8353 C   0  0  0  0  0  0  0  0  0  0  0  0
   47.4251    3.4738   17.1086 C   0  0  0  0  0  0  0  0  0  0  0  0
   48.6582    2.8415   17.0188 C   0  0  0  0  0  0  0  0  0  0  0  0
   48.7625    1.6947   16.3336 F   0  0  0  0  0  0  0  0  0  0  0  0
   49.7802    3.3732   17.6403 C   0  0  0  0  0  0  0  0  0  0  0  0
   49.6690    4.5614   18.3650 C   0  0  0  0  0  0  0  0  0  0  0  0
   48.5777   10.2738   18.7745 C   0  0  0  0  0  0  0  0  0  0  0  0
   47.5375   10.8316   17.8297 C   0  0  0  0  0  0  0  0  0  0  0  0
   47.6981   11.4303   19.1915 C   0  0  0  0  0  0  0  0  0  0  0  0
   49.8389   10.5010   12.4412 C   0  0  0  0  0  0  0  0  0  0  0  0
   48.3423   10.2842   12.2411 C   0  0  0  0  0  0  0  0  0  0  0  0
   47.6139   11.2847   12.4733 O   0  0  0  0  0  0  0  0  0  0  0  0
   48.0296    9.1128   11.8770 O   0  0  0  0  0  0  0  0  0  0  0  0
   46.2654    8.5962   11.9610 H   0  0  0  0  0  0  0  0  0  0  0  0
   48.8805    7.6232   12.2291 H   0  0  0  0  0  0  0  0  0  0  0  0
   47.0383    8.7520   14.4030 H   0  0  0  0  0  0  0  0  0  0  0  0
   47.6361    7.1198   14.2844 H   0  0  0  0  0  0  0  0  0  0  0  0
   49.4727    9.5694   14.6364 H   0  0  0  0  0  0  0  0  0  0  0  0
   49.8553    6.7691   14.5658 H   0  0  0  0  0  0  0  0  0  0  0  0
   47.9734    9.0476   16.6596 H   0  0  0  0  0  0  0  0  0  0  0  0
   50.5049    7.3249   17.0180 H   0  0  0  0  0  0  0  0  0  0  0  0
   48.2681    8.8751   23.2481 H   0  0  0  0  0  0  0  0  0  0  0  0
   47.4611    6.8782   24.4615 H   0  0  0  0  0  0  0  0  0  0  0  0
   47.2742    4.7035   23.2682 H   0  0  0  0  0  0  0  0  0  0  0  0
   47.8922    4.5520   20.9016 H   0  0  0  0  0  0  0  0  0  0  0  0
   50.7077    4.6901   19.2046 H   0  0  0  0  0  0  0  0  0  0  0  0
   50.6237    2.5886   17.8808 H   0  0  0  0  0  0  0  0  0  0  0  0
   46.7815    3.6892   16.3306 H   0  0  0  0  0  0  0  0  0  0  0  0
   46.8358    5.7946   17.6454 H   0  0  0  0  0  0  0  0  0  0  0  0
   49.0607   10.8685   18.3228 H   0  0  0  0  0  0  0  0  0  0  0  0
   51.0132   10.9017   20.7385 H   0  0  0  0  0  0  0  0  0  0  0  0
   50.5354   12.3116   19.6959 H   0  0  0  0  0  0  0  0  0  0  0  0
   51.9403    9.7222   18.7173 H   0  0  0  0  0  0  0  0  0  0  0  0
   51.4506   11.1244   17.6652 H   0  0  0  0  0  0  0  0  0  0  0  0
   49.4206    9.9984   12.3558 H   0  0  0  0  0  0  0  0  0  0  0  0
   48.3773    9.7272   10.9516 H   0  0  0  0  0  0  0  0  0  0  0  0
   49.4802    8.1369   12.0935 H   0  0  0  0  0  0  0  0  0  0  0  0
   51.5478    9.5783   13.3218 H   0  0  0  0  0  0  0  0  0  0  0  0
   49.8412   10.0935   15.1443 H   0  0  0  0  0  0  0  0  0  0  0  0
   48.8511    8.7662   14.4991 H   0  0  0  0  0  0  0  0  0  0  0  0
   51.7377    8.4466   15.4502 H   0  0  0  0  0  0  0  0  0  0  0  0
   50.5910    6.9655   13.8723 H   0  0  0  0  0  0  0  0  0  0  0  0
   50.9950    8.0347   17.6021 H   0  0  0  0  0  0  0  0  0  0  0  0
   48.1421    7.7112   16.4807 H   0  0  0  0  0  0  0  0  0  0  0  0
   47.4324    8.6343   23.1548 H   0  0  0  0  0  0  0  0  0  0  0  0
   46.9996    6.5469   24.4077 H   0  0  0  0  0  0  0  0  0  0  0  0
   47.1888    4.3542   23.2495 H   0  0  0  0  0  0  0  0  0  0  0  0
   47.7986    4.2728   20.8755 H   0  0  0  0  0  0  0  0  0  0  0  0
   46.3466    5.1610   17.8936 H   0  0  0  0  0  0  0  0  0  0  0  0
   46.5627    3.0477   16.6072 H   0  0  0  0  0  0  0  0  0  0  0  0
   50.7373    2.8724   17.5426 H   0  0  0  0  0  0  0  0  0  0  0  0
   50.5536    4.9838   18.8346 H   0  0  0  0  0  0  0  0  0  0  0  0
   49.6110   10.5292   18.5547 H   0  0  0  0  0  0  0  0  0  0  0  0
   47.8858   11.3951   16.9716 H   0  0  0  0  0  0  0  0  0  0  0  0
   46.6434   10.2525   17.6319 H   0  0  0  0  0  0  0  0  0  0  0  0
   48.1544   12.4089   19.2679 H   0  0  0  0  0  0  0  0  0  0  0  0
   46.9185   11.2486   19.9214 H   0  0  0  0  0  0  0  0  0  0  0  0
   50.2847   10.5747   11.4422 H   0  0  0  0  0  0  0  0  0  0  0  0
   50.0160   11.4479   12.9635 H   0  0  0  0  0  0  0  0  0  0  0  0
  2  1  1  0
  2  3  1  0
  3  4  1  0
  4  5  1  0
  4  6  1  0
  6  7  2  0
  7  8  1  0
  8  9  2  0
  9 10  1  0
 10 11  2  0
 11 12  1  0
 12 13  2  0
 13 14  1  0
 14 15  2  0
 15 16  1  0
 11 16  1  0
 16 17  2  0
  8 17  1  0
 17 18  1  0
 18 19  2  0
 19 20  1  0
 20 21  2  0
 21 22  1  0
 21 23  1  0
 23 24  2  0
 18 24  1  0
  9 25  1  0
 25 26  1  0
 26 27  1  0
 25 27  1  0
  2 28  1  0
 28 29  1  0
 29 30  2  0
 29 31  1  0
 34 33  1  0
 34 35  1  0
 35 36  1  0
 36 37  1  0
 36 38  1  0
 38 39  2  0
 39 40  1  0
 40 41  2  0
 41 42  1  0
 42 43  2  0
 43 44  1  0
 44 45  2  0
 45 46  1  0
 46 47  2  0
 47 48  1  0
 43 48  1  0
 48 49  2  0
 40 49  1  0
 49 50  1  0
 50 51  2  0
 51 52  1  0
 52 53  2  0
 53 54  1  0
 53 55  1  0
 55 56  2  0
 50 56  1  0
 41 57  1  0
 57 58  1  0
 58 59  1  0
 57 59  1  0
 34 60  1  0
 60 61  1  0
 61 62  2  0
 61 63  1  0
  1 64  1  0
  2 65  1  6
  3 66  1  0
  3 67  1  0
  4 68  1  6
  5 69  1  0
  6 70  1  0
  7 71  1  0
 12 72  1  0
 13 73  1  0
 14 74  1  0
 15 75  1  0
 19 76  1  0
 20 77  1  0
 23 78  1  0
 24 79  1  0
 25 80  1  0
 26 81  1  0
 26 82  1  0
 27 83  1  0
 27 84  1  0
 28 85  1  0
 28 86  1  0
 33 87  1  0
 34 88  1  6
 35 89  1  0
 35 90  1  0
 36 91  1  6
 37 92  1  0
 38 93  1  0
 39 94  1  0
 44 95  1  0
 45 96  1  0
 46 97  1  0
 47 98  1  0
 51 99  1  0
 52100  1  0
 55101  1  0
 56102  1  0
 57103  1  0
 58104  1  0
 58105  1  0
 59106  1  0
 59107  1  0
 60108  1  0
 60109  1  0
M  CHG  3  31  -1  32   2  63  -1
M  END
> <Uni-Dock RESULT> 
ENERGY=   -9.609  LOWER_BOUND=    0.000  UPPER_BOUND=    0.000
INTER + INTRA:          -9.609
INTER:                  -9.609
INTRA:                   0.000
UNBOUND:                 0.000

$$$$

     RDKit          3D

109114  0  0  0  0  0  0  0  0999 V2000
   46.2252   16.0492   14.3198 O   0  0  0  0  0  0  0  0  0  0  0  0
   47.1572   15.3161   13.5083 C   0  0  2  0  0  0  0  0  0  0  0  0
   46.7017   13.8501   13.4611 C   0  0  0  0  0  0  0  0  0  0  0  0
   47.5528   12.9630   12.5450 C   0  0  2  0  0  0  0  0  0  0  0  0
   47.4446   13.4091   11.1915 O   0  0  0  0  0  0  0  0  0  0  0  0
   47.1121   11.5242   12.6382 C   0  0  0  0  0  0  0  0  0  0  0  0
   46.8337   10.7111   11.6060 C   0  0  0  0  0  0  0  0  0  0  0  0
   46.3896    9.3173   11.7904 C   0  0  0  0  0  0  0  0  0  0  0  0
   47.2713    8.3323   12.2705 C   0  0  0  0  0  0  0  0  0  0  0  0
   46.8596    7.0493   12.4513 N   0  0  0  0  0  0  0  0  0  0  0  0
   45.5997    6.7015   12.1664 C   0  0  0  0  0  0  0  0  0  0  0  0
   45.2305    5.3813   12.3845 C   0  0  0  0  0  0  0  0  0  0  0  0
   43.9403    4.9199   12.1208 C   0  0  0  0  0  0  0  0  0  0  0  0
   42.9896    5.7976   11.6240 C   0  0  0  0  0  0  0  0  0  0  0  0
   43.3396    7.1270   11.3934 C   0  0  0  0  0  0  0  0  0  0  0  0
   44.6472    7.6065   11.6610 C   0  0  0  0  0  0  0  0  0  0  0  0
   45.0617    8.9514   11.4598 C   0  0  0  0  0  0  0  0  0  0  0  0
   44.1264    9.9546   10.9020 C   0  0  0  0  0  0  0  0  0  0  0  0
   43.9260   10.0498    9.5121 C   0  0  0  0  0  0  0  0  0  0  0  0
   43.0460   10.9961    8.9832 C   0  0  0  0  0  0  0  0  0  0  0  0
   42.3681   11.8541    9.8415 C   0  0  0  0  0  0  0  0  0  0  0  0
   41.5243   12.7597    9.3299 F   0  0  0  0  0  0  0  0  0  0  0  0
   42.5490   11.7822   11.2173 C   0  0  0  0  0  0  0  0  0  0  0  0
   43.4273   10.8345   11.7469 C   0  0  0  0  0  0  0  0  0  0  0  0
   48.7208    8.6302   12.6184 C   0  0  0  0  0  0  0  0  0  0  0  0
   49.8082    7.6433   12.2574 C   0  0  0  0  0  0  0  0  0  0  0  0
   49.7156    8.9441   11.5208 C   0  0  0  0  0  0  0  0  0  0  0  0
   48.5803   15.5503   14.0089 C   0  0  0  0  0  0  0  0  0  0  0  0
   48.7829   14.8892   15.3665 C   0  0  0  0  0  0  0  0  0  0  0  0
   47.9052   15.1830   16.2311 O   0  0  0  0  0  0  0  0  0  0  0  0
   49.7713   14.1121   15.4492 O   0  0  0  0  0  0  0  0  0  0  0  0
   46.1724   10.6500   12.2066 Ca  0  0  0  0  0 15  0  0  0  0  0  0
   48.2641   15.3816   11.4599 O   0  0  0  0  0  0  0  0  0  0  0  0
   49.2002   14.4273   11.9791 C   0  0  2  0  0  0  0  0  0  0  0  0
   48.4694   13.1057   12.2606 C   0  0  0  0  0  0  0  0  0  0  0  0
   47.9233   12.4754   10.9670 C   0  0  2  0  0  0  0  0  0  0  0  0
   46.9346   13.2871   10.3442 O   0  0  0  0  0  0  0  0  0  0  0  0
   47.3173   11.1158   11.1762 C   0  0  0  0  0  0  0  0  0  0  0  0
   46.4337   10.8059   12.1401 C   0  0  0  0  0  0  0  0  0  0  0  0
   45.9191    9.4389   12.3188 C   0  0  0  0  0  0  0  0  0  0  0  0
   46.6872    8.4867   13.0100 C   0  0  0  0  0  0  0  0  0  0  0  0
   46.2583    7.2052   13.1558 N   0  0  0  0  0  0  0  0  0  0  0  0
   45.0721    6.8368   12.6551 C   0  0  0  0  0  0  0  0  0  0  0  0
   44.6747    5.5187   12.8381 C   0  0  0  0  0  0  0  0  0  0  0  0
   43.4530    5.0391   12.3634 C   0  0  0  0  0  0  0  0  0  0  0  0
   42.6016    5.8956   11.6826 C   0  0  0  0  0  0  0  0  0  0  0  0
   42.9788    7.2241   11.4879 C   0  0  0  0  0  0  0  0  0  0  0  0
   44.2182    7.7211   11.9680 C   0  0  0  0  0  0  0  0  0  0  0  0
   44.6587    9.0626   11.8018 C   0  0  0  0  0  0  0  0  0  0  0  0
   43.8118   10.0507   11.1034 C   0  0  0  0  0  0  0  0  0  0  0  0
   42.8561   10.8022   11.8096 C   0  0  0  0  0  0  0  0  0  0  0  0
   42.0523   11.7310   11.1467 C   0  0  0  0  0  0  0  0  0  0  0  0
   42.1996   11.9113    9.7777 C   0  0  0  0  0  0  0  0  0  0  0  0
   41.4161   12.7923    9.1409 F   0  0  0  0  0  0  0  0  0  0  0  0
   43.1366   11.1819    9.0581 C   0  0  0  0  0  0  0  0  0  0  0  0
   43.9443   10.2547    9.7194 C   0  0  0  0  0  0  0  0  0  0  0  0
   48.0362    8.8295   13.6201 C   0  0  0  0  0  0  0  0  0  0  0  0
   48.1001    9.6762   14.8711 C   0  0  0  0  0  0  0  0  0  0  0  0
   48.4586    8.2252   14.9397 C   0  0  0  0  0  0  0  0  0  0  0  0
   49.9389   14.9897   13.1897 C   0  0  0  0  0  0  0  0  0  0  0  0
   48.9942   15.2544   14.3577 C   0  0  0  0  0  0  0  0  0  0  0  0
   49.3981   14.8573   15.4823 O   0  0  0  0  0  0  0  0  0  0  0  0
   47.9152   15.8322   14.0345 O   0  0  0  0  0  0  0  0  0  0  0  0
   46.5323   15.8776   15.2476 H   0  0  0  0  0  0  0  0  0  0  0  0
   47.0745   15.7421   12.5008 H   0  0  0  0  0  0  0  0  0  0  0  0
   46.6718   13.4339   14.4767 H   0  0  0  0  0  0  0  0  0  0  0  0
   45.6553   13.8372   13.1204 H   0  0  0  0  0  0  0  0  0  0  0  0
   48.6094   13.0090   12.8294 H   0  0  0  0  0  0  0  0  0  0  0  0
   46.5008   13.5825   11.0354 H   0  0  0  0  0  0  0  0  0  0  0  0
   47.0443   11.1439   13.6574 H   0  0  0  0  0  0  0  0  0  0  0  0
   46.9050   11.0582   10.5788 H   0  0  0  0  0  0  0  0  0  0  0  0
   45.9744    4.6933   12.7798 H   0  0  0  0  0  0  0  0  0  0  0  0
   43.6872    3.8807   12.3108 H   0  0  0  0  0  0  0  0  0  0  0  0
   41.9791    5.4545   11.4200 H   0  0  0  0  0  0  0  0  0  0  0  0
   42.5721    7.7967   11.0105 H   0  0  0  0  0  0  0  0  0  0  0  0
   44.4666    9.3861    8.8402 H   0  0  0  0  0  0  0  0  0  0  0  0
   42.8955   11.0728    7.9116 H   0  0  0  0  0  0  0  0  0  0  0  0
   42.0159   12.4687   11.8681 H   0  0  0  0  0  0  0  0  0  0  0  0
   43.5760   10.7907   12.8247 H   0  0  0  0  0  0  0  0  0  0  0  0
   48.8615    9.1558   13.5618 H   0  0  0  0  0  0  0  0  0  0  0  0
   49.5324    6.7380   11.7307 H   0  0  0  0  0  0  0  0  0  0  0  0
   50.6194    7.5144   12.9631 H   0  0  0  0  0  0  0  0  0  0  0  0
   49.3801    8.9226   10.4897 H   0  0  0  0  0  0  0  0  0  0  0  0
   50.4560    9.7100   11.7288 H   0  0  0  0  0  0  0  0  0  0  0  0
   49.3129   15.1734   13.2856 H   0  0  0  0  0  0  0  0  0  0  0  0
   48.7627   16.6231   14.1397 H   0  0  0  0  0  0  0  0  0  0  0  0
   47.8428   15.7701   12.2754 H   0  0  0  0  0  0  0  0  0  0  0  0
   49.9391   14.2601   11.1860 H   0  0  0  0  0  0  0  0  0  0  0  0
   49.1572   12.4070   12.7524 H   0  0  0  0  0  0  0  0  0  0  0  0
   47.6340   13.3024   12.9430 H   0  0  0  0  0  0  0  0  0  0  0  0
   48.7510   12.3710   10.2552 H   0  0  0  0  0  0  0  0  0  0  0  0
   47.1701   14.2144   10.5732 H   0  0  0  0  0  0  0  0  0  0  0  0
   47.6592   10.3450   10.4908 H   0  0  0  0  0  0  0  0  0  0  0  0
   46.0545   11.5606   12.8250 H   0  0  0  0  0  0  0  0  0  0  0  0
   45.3445    4.8450   13.3674 H   0  0  0  0  0  0  0  0  0  0  0  0
   43.1751    4.0028   12.5309 H   0  0  0  0  0  0  0  0  0  0  0  0
   41.6467    5.5383   11.3096 H   0  0  0  0  0  0  0  0  0  0  0  0
   42.2947    7.8752   10.9446 H   0  0  0  0  0  0  0  0  0  0  0  0
   42.7485   10.6717   12.8843 H   0  0  0  0  0  0  0  0  0  0  0  0
   41.3214   12.3181   11.6925 H   0  0  0  0  0  0  0  0  0  0  0  0
   43.2472   11.3513    7.9925 H   0  0  0  0  0  0  0  0  0  0  0  0
   44.6892    9.6991    9.1555 H   0  0  0  0  0  0  0  0  0  0  0  0
   48.8351    8.9794   12.8986 H   0  0  0  0  0  0  0  0  0  0  0  0
   48.8946   10.4102   14.9435 H   0  0  0  0  0  0  0  0  0  0  0  0
   47.1754    9.9934   15.3383 H   0  0  0  0  0  0  0  0  0  0  0  0
   49.5014    7.9627   15.0634 H   0  0  0  0  0  0  0  0  0  0  0  0
   47.7722    7.5557   15.4439 H   0  0  0  0  0  0  0  0  0  0  0  0
   50.4020   15.9498   12.9330 H   0  0  0  0  0  0  0  0  0  0  0  0
   50.7333   14.2999   13.4965 H   0  0  0  0  0  0  0  0  0  0  0  0
  2  1  1  0
  2  3  1  0
  3  4  1  0
  4  5  1  0
  4  6  1  0
  6  7  2  0
  7  8  1  0
  8  9  2  0
  9 10  1  0
 10 11  2  0
 11 12  1  0
 12 13  2  0
 13 14  1  0
 14 15  2  0
 15 16  1  0
 11 16  1  0
 16 17  2  0
  8 17  1  0
 17 18  1  0
 18 19  2  0
 19 20  1  0
 20 21  2  0
 21 22  1  0
 21 23  1  0
 23 24  2  0
 18 24  1  0
  9 25  1  0
 25 26  1  0
 26 27  1  0
 25 27  1  0
  2 28  1  0
 28 29  1  0
 29 30  2  0
 29 31  1  0
 34 33  1  0
 34 35  1  0
 35 36  1  0
 36 37  1  0
 36 38  1  0
 38 39  2  0
 39 40  1  0
 40 41  2  0
 41 42  1  0
 42 43  2  0
 43 44  1  0
 44 45  2  0
 45 46  1  0
 46 47  2  0
 47 48  1  0
 43 48  1  0
 48 49  2  0
 40 49  1  0
 49 50  1  0
 50 51  2  0
 51 52  1  0
 52 53  2  0
 53 54  1  0
 53 55  1  0
 55 56  2  0
 50 56  1  0
 41 57  1  0
 57 58  1  0
 58 59  1  0
 57 59  1  0
 34 60  1  0
 60 61  1  0
 61 62  2  0
 61 63  1  0
  1 64  1  0
  2 65  1  6
  3 66  1  0
  3 67  1  0
  4 68  1  6
  5 69  1  0
  6 70  1  0
  7 71  1  0
 12 72  1  0
 13 73  1  0
 14 74  1  0
 15 75  1  0
 19 76  1  0
 20 77  1  0
 23 78  1  0
 24 79  1  0
 25 80  1  0
 26 81  1  0
 26 82  1  0
 27 83  1  0
 27 84  1  0
 28 85  1  0
 28 86  1  0
 33 87  1  0
 34 88  1  6
 35 89  1  0
 35 90  1  0
 36 91  1  6
 37 92  1  0
 38 93  1  0
 39 94  1  0
 44 95  1  0
 45 96  1  0
 46 97  1  0
 47 98  1  0
 51 99  1  0
 52100  1  0
 55101  1  0
 56102  1  0
 57103  1  0
 58104  1  0
 58105  1  0
 59106  1  0
 59107  1  0
 60108  1  0
 60109  1  0
M  CHG  3  31  -1  32   2  63  -1
M  END
> <Uni-Dock RESULT> 
ENERGY=   -7.291  LOWER_BOUND=    5.772  UPPER_BOUND=    9.055
INTER + INTRA:          -7.291
INTER:                  -7.291
INTRA:                   0.000
UNBOUND:                 0.000

$$$$

     RDKit          3D

109114  0  0  0  0  0  0  0  0999 V2000
   51.8621    4.5477   19.7206 O   0  0  0  0  0  0  0  0  0  0  0  0
   50.5550    5.0600   20.0261 C   0  0  2  0  0  0  0  0  0  0  0  0
   50.4283    6.4556   19.3978 C   0  0  0  0  0  0  0  0  0  0  0  0
   49.0412    7.0881   19.5607 C   0  0  2  0  0  0  0  0  0  0  0  0
   48.0612    6.3040   18.8770 O   0  0  0  0  0  0  0  0  0  0  0  0
   49.0304    8.4943   19.0169 C   0  0  0  0  0  0  0  0  0  0  0  0
   48.1325    9.0066   18.1594 C   0  0  0  0  0  0  0  0  0  0  0  0
   48.2092   10.3929   17.6634 C   0  0  0  0  0  0  0  0  0  0  0  0
   47.9523   11.4832   18.5140 C   0  0  0  0  0  0  0  0  0  0  0  0
   48.0338   12.7622   18.0602 N   0  0  0  0  0  0  0  0  0  0  0  0
   48.3564   13.0033   16.7846 C   0  0  0  0  0  0  0  0  0  0  0  0
   48.4395   14.3285   16.3801 C   0  0  0  0  0  0  0  0  0  0  0  0
   48.7706   14.6843   15.0721 C   0  0  0  0  0  0  0  0  0  0  0  0
   49.0251   13.6922   14.1384 C   0  0  0  0  0  0  0  0  0  0  0  0
   48.9433   12.3545   14.5215 C   0  0  0  0  0  0  0  0  0  0  0  0
   48.6106   11.9825   15.8491 C   0  0  0  0  0  0  0  0  0  0  0  0
   48.5241   10.6385   16.3043 C   0  0  0  0  0  0  0  0  0  0  0  0
   48.7470    9.5096   15.3726 C   0  0  0  0  0  0  0  0  0  0  0  0
   47.7073    9.0533   14.5409 C   0  0  0  0  0  0  0  0  0  0  0  0
   47.9141    7.9878   13.6626 C   0  0  0  0  0  0  0  0  0  0  0  0
   49.1591    7.3712   13.6171 C   0  0  0  0  0  0  0  0  0  0  0  0
   49.3535    6.3500   12.7725 F   0  0  0  0  0  0  0  0  0  0  0  0
   50.2021    7.8011   14.4284 C   0  0  0  0  0  0  0  0  0  0  0  0
   49.9964    8.8681   15.3054 C   0  0  0  0  0  0  0  0  0  0  0  0
   47.5758   11.3098   19.9765 C   0  0  0  0  0  0  0  0  0  0  0  0
   46.5119   12.1867   20.5974 C   0  0  0  0  0  0  0  0  0  0  0  0
   46.2243   10.7379   20.3496 C   0  0  0  0  0  0  0  0  0  0  0  0
   50.3056    4.9873   21.5305 C   0  0  0  0  0  0  0  0  0  0  0  0
   51.1950    5.9817   22.2665 C   0  0  0  0  0  0  0  0  0  0  0  0
   52.4240    5.9082   21.9698 O   0  0  0  0  0  0  0  0  0  0  0  0
   50.5970    6.7697   23.0470 O   0  0  0  0  0  0  0  0  0  0  0  0
   48.9549    9.2108   17.8704 Ca  0  0  0  0  0 15  0  0  0  0  0  0
   48.2985    4.4827   20.0000 O   0  0  0  0  0  0  0  0  0  0  0  0
   48.0535    5.5544   20.9209 C   0  0  2  0  0  0  0  0  0  0  0  0
   48.3718    6.8915   20.2348 C   0  0  0  0  0  0  0  0  0  0  0  0
   47.4300    7.1550   19.0463 C   0  0  2  0  0  0  0  0  0  0  0  0
   47.5842    6.1933   18.0092 O   0  0  0  0  0  0  0  0  0  0  0  0
   47.6167    8.5122   18.4275 C   0  0  0  0  0  0  0  0  0  0  0  0
   48.8012    9.0473   18.0863 C   0  0  0  0  0  0  0  0  0  0  0  0
   48.9146   10.4051   17.5305 C   0  0  0  0  0  0  0  0  0  0  0  0
   48.8987   11.5167   18.3900 C   0  0  0  0  0  0  0  0  0  0  0  0
   48.9598   12.7848   17.9046 N   0  0  0  0  0  0  0  0  0  0  0  0
   49.0604   12.9909   16.5852 C   0  0  0  0  0  0  0  0  0  0  0  0
   49.1289   14.3047   16.1399 C   0  0  0  0  0  0  0  0  0  0  0  0
   49.2451   14.6242   14.7862 C   0  0  0  0  0  0  0  0  0  0  0  0
   49.2911   13.6064   13.8461 C   0  0  0  0  0  0  0  0  0  0  0  0
   49.2254   12.2794   14.2699 C   0  0  0  0  0  0  0  0  0  0  0  0
   49.1085   11.9446   15.6439 C   0  0  0  0  0  0  0  0  0  0  0  0
   49.0374   10.6134   16.1381 C   0  0  0  0  0  0  0  0  0  0  0  0
   49.0950    9.4640   15.2124 C   0  0  0  0  0  0  0  0  0  0  0  0
   50.3301    8.9062   14.8381 C   0  0  0  0  0  0  0  0  0  0  0  0
   50.3828    7.8240   13.9582 C   0  0  0  0  0  0  0  0  0  0  0  0
   49.2032    7.2966   13.4491 C   0  0  0  0  0  0  0  0  0  0  0  0
   49.2571    6.2677   12.5924 F   0  0  0  0  0  0  0  0  0  0  0  0
   47.9712    7.8293   13.8040 C   0  0  0  0  0  0  0  0  0  0  0  0
   47.9156    8.9096   14.6867 C   0  0  0  0  0  0  0  0  0  0  0  0
   48.8017   11.3664   19.8991 C   0  0  0  0  0  0  0  0  0  0  0  0
   49.9980   10.8749   20.6822 C   0  0  0  0  0  0  0  0  0  0  0  0
   49.5606   12.2996   20.8146 C   0  0  0  0  0  0  0  0  0  0  0  0
   48.8140    5.3380   22.2257 C   0  0  0  0  0  0  0  0  0  0  0  0
   50.3242    5.3704   22.0137 C   0  0  0  0  0  0  0  0  0  0  0  0
   50.9742    6.0527   22.8488 O   0  0  0  0  0  0  0  0  0  0  0  0
   50.7237    4.7108   21.0098 O   0  0  0  0  0  0  0  0  0  0  0  0
   52.4454    4.9595   20.4097 H   0  0  0  0  0  0  0  0  0  0  0  0
   49.8469    4.3856   19.5291 H   0  0  0  0  0  0  0  0  0  0  0  0
   51.2022    7.1208   19.8031 H   0  0  0  0  0  0  0  0  0  0  0  0
   50.6690    6.3624   18.3280 H   0  0  0  0  0  0  0  0  0  0  0  0
   48.7555    7.1350   20.6169 H   0  0  0  0  0  0  0  0  0  0  0  0
   48.4447    6.0805   18.0121 H   0  0  0  0  0  0  0  0  0  0  0  0
   49.8341    9.1252   19.3964 H   0  0  0  0  0  0  0  0  0  0  0  0
   47.3131    8.4058   17.7743 H   0  0  0  0  0  0  0  0  0  0  0  0
   48.2455   15.1077   17.1138 H   0  0  0  0  0  0  0  0  0  0  0  0
   48.8324   15.7329   14.7951 H   0  0  0  0  0  0  0  0  0  0  0  0
   49.2906   13.9539   13.1179 H   0  0  0  0  0  0  0  0  0  0  0  0
   49.1556   11.5958   13.7709 H   0  0  0  0  0  0  0  0  0  0  0  0
   46.7292    9.5284   14.5863 H   0  0  0  0  0  0  0  0  0  0  0  0
   47.1110    7.6328   13.0254 H   0  0  0  0  0  0  0  0  0  0  0  0
   51.1635    7.2986   14.3827 H   0  0  0  0  0  0  0  0  0  0  0  0
   50.8126    9.1929   15.9489 H   0  0  0  0  0  0  0  0  0  0  0  0
   48.4070   11.0497   20.6306 H   0  0  0  0  0  0  0  0  0  0  0  0
   46.0150   12.9195   19.9734 H   0  0  0  0  0  0  0  0  0  0  0  0
   46.6642   12.5079   21.6202 H   0  0  0  0  0  0  0  0  0  0  0  0
   45.5273   10.4852   19.5580 H   0  0  0  0  0  0  0  0  0  0  0  0
   46.1901   10.0646   21.2002 H   0  0  0  0  0  0  0  0  0  0  0  0
   49.2498    5.1753   21.7583 H   0  0  0  0  0  0  0  0  0  0  0  0
   50.5549    3.9885   21.9067 H   0  0  0  0  0  0  0  0  0  0  0  0
   49.2767    4.3126   20.0872 H   0  0  0  0  0  0  0  0  0  0  0  0
   46.9815    5.5219   21.1507 H   0  0  0  0  0  0  0  0  0  0  0  0
   48.2845    7.7053   20.9652 H   0  0  0  0  0  0  0  0  0  0  0  0
   49.4063    6.8651   19.8725 H   0  0  0  0  0  0  0  0  0  0  0  0
   46.3948    7.0845   19.4012 H   0  0  0  0  0  0  0  0  0  0  0  0
   47.8572    5.3613   18.4576 H   0  0  0  0  0  0  0  0  0  0  0  0
   46.7046    9.0839   18.2793 H   0  0  0  0  0  0  0  0  0  0  0  0
   49.7282    8.4903   18.1998 H   0  0  0  0  0  0  0  0  0  0  0  0
   49.0874   15.1036   16.8763 H   0  0  0  0  0  0  0  0  0  0  0  0
   49.3012   15.6638   14.4773 H   0  0  0  0  0  0  0  0  0  0  0  0
   49.3842   13.8388   12.7897 H   0  0  0  0  0  0  0  0  0  0  0  0
   49.2575   11.4983   13.5110 H   0  0  0  0  0  0  0  0  0  0  0  0
   51.2543    9.3096   15.2463 H   0  0  0  0  0  0  0  0  0  0  0  0
   51.3348    7.3869   13.6765 H   0  0  0  0  0  0  0  0  0  0  0  0
   47.0614    7.3907   13.4085 H   0  0  0  0  0  0  0  0  0  0  0  0
   46.9481    9.3118   14.9763 H   0  0  0  0  0  0  0  0  0  0  0  0
   47.8278   11.0474   20.2613 H   0  0  0  0  0  0  0  0  0  0  0  0
   49.8163   10.1981   21.5093 H   0  0  0  0  0  0  0  0  0  0  0  0
   50.9239   10.6749   20.1561 H   0  0  0  0  0  0  0  0  0  0  0  0
   49.0808   12.6024   21.7364 H   0  0  0  0  0  0  0  0  0  0  0  0
   50.1836   13.0658   20.3691 H   0  0  0  0  0  0  0  0  0  0  0  0
   48.5733    4.3520   22.6402 H   0  0  0  0  0  0  0  0  0  0  0  0
   48.5202    6.0968   22.9597 H   0  0  0  0  0  0  0  0  0  0  0  0
  2  1  1  0
  2  3  1  0
  3  4  1  0
  4  5  1  0
  4  6  1  0
  6  7  2  0
  7  8  1  0
  8  9  2  0
  9 10  1  0
 10 11  2  0
 11 12  1  0
 12 13  2  0
 13 14  1  0
 14 15  2  0
 15 16  1  0
 11 16  1  0
 16 17  2  0
  8 17  1  0
 17 18  1  0
 18 19  2  0
 19 20  1  0
 20 21  2  0
 21 22  1  0
 21 23  1  0
 23 24  2  0
 18 24  1  0
  9 25  1  0
 25 26  1  0
 26 27  1  0
 25 27  1  0
  2 28  1  0
 28 29  1  0
 29 30  2  0
 29 31  1  0
 34 33  1  0
 34 35  1  0
 35 36  1  0
 36 37  1  0
 36 38  1  0
 38 39  2  0
 39 40  1  0
 40 41  2  0
 41 42  1  0
 42 43  2  0
 43 44  1  0
 44 45  2  0
 45 46  1  0
 46 47  2  0
 47 48  1  0
 43 48  1  0
 48 49  2  0
 40 49  1  0
 49 50  1  0
 50 51  2  0
 51 52  1  0
 52 53  2  0
 53 54  1  0
 53 55  1  0
 55 56  2  0
 50 56  1  0
 41 57  1  0
 57 58  1  0
 58 59  1  0
 57 59  1  0
 34 60  1  0
 60 61  1  0
 61 62  2  0
 61 63  1  0
  1 64  1  0
  2 65  1  6
  3 66  1  0
  3 67  1  0
  4 68  1  6
  5 69  1  0
  6 70  1  0
  7 71  1  0
 12 72  1  0
 13 73  1  0
 14 74  1  0
 15 75  1  0
 19 76  1  0
 20 77  1  0
 23 78  1  0
 24 79  1  0
 25 80  1  0
 26 81  1  0
 26 82  1  0
 27 83  1  0
 27 84  1  0
 28 85  1  0
 28 86  1  0
 33 87  1  0
 34 88  1  6
 35 89  1  0
 35 90  1  0
 36 91  1  6
 37 92  1  0
 38 93  1  0
 39 94  1  0
 44 95  1  0
 45 96  1  0
 46 97  1  0
 47 98  1  0
 51 99  1  0
 52100  1  0
 55101  1  0
 56102  1  0
 57103  1  0
 58104  1  0
 58105  1  0
 59106  1  0
 59107  1  0
 60108  1  0
 60109  1  0
M  CHG  3  31  -1  32   2  63  -1
M  END
> <Uni-Dock RESULT> 
ENERGY=   -7.260  LOWER_BOUND=    3.296  UPPER_BOUND=    7.326
INTER + INTRA:          -7.260
INTER:                  -7.260
INTRA:                   0.000
UNBOUND:                 0.000

$$$$

     RDKit          3D

109114  0  0  0  0  0  0  0  0999 V2000
   46.5302    4.6437   18.5606 O   0  0  0  0  0  0  0  0  0  0  0  0
   47.2506    5.8525   18.8509 C   0  0  2  0  0  0  0  0  0  0  0  0
   48.2498    6.1004   17.7113 C   0  0  0  0  0  0  0  0  0  0  0  0
   49.0254    7.4168   17.8386 C   0  0  2  0  0  0  0  0  0  0  0  0
   48.1259    8.5250   17.7654 O   0  0  0  0  0  0  0  0  0  0  0  0
   50.0587    7.5333   16.7469 C   0  0  0  0  0  0  0  0  0  0  0  0
   50.2424    8.5896   15.9378 C   0  0  0  0  0  0  0  0  0  0  0  0
   51.2695    8.6107   14.8802 C   0  0  0  0  0  0  0  0  0  0  0  0
   52.6380    8.6734   15.1989 C   0  0  0  0  0  0  0  0  0  0  0  0
   53.5862    8.6816   14.2246 N   0  0  0  0  0  0  0  0  0  0  0  0
   53.2268    8.6359   12.9369 C   0  0  0  0  0  0  0  0  0  0  0  0
   54.2374    8.6316   11.9854 C   0  0  0  0  0  0  0  0  0  0  0  0
   53.9665    8.5839   10.6175 C   0  0  0  0  0  0  0  0  0  0  0  0
   52.6511    8.5405   10.1832 C   0  0  0  0  0  0  0  0  0  0  0  0
   51.6200    8.5481   11.1211 C   0  0  0  0  0  0  0  0  0  0  0  0
   51.8849    8.5934   12.5136 C   0  0  0  0  0  0  0  0  0  0  0  0
   50.8794    8.5903   13.5187 C   0  0  0  0  0  0  0  0  0  0  0  0
   49.4449    8.5783   13.1519 C   0  0  0  0  0  0  0  0  0  0  0  0
   48.7830    9.7742   12.8163 C   0  0  0  0  0  0  0  0  0  0  0  0
   47.4299    9.7661   12.4718 C   0  0  0  0  0  0  0  0  0  0  0  0
   46.7328    8.5634   12.4674 C   0  0  0  0  0  0  0  0  0  0  0  0
   45.4352    8.5601   12.1355 F   0  0  0  0  0  0  0  0  0  0  0  0
   47.3620    7.3689   12.7961 C   0  0  0  0  0  0  0  0  0  0  0  0
   48.7157    7.3762   13.1386 C   0  0  0  0  0  0  0  0  0  0  0  0
   53.1433    8.7315   16.6314 C   0  0  0  0  0  0  0  0  0  0  0  0
   54.3019    9.6331   16.9936 C   0  0  0  0  0  0  0  0  0  0  0  0
   52.9222    9.9766   17.4643 C   0  0  0  0  0  0  0  0  0  0  0  0
   47.8517    5.7767   20.2522 C   0  0  0  0  0  0  0  0  0  0  0  0
   48.9714    4.7445   20.2963 C   0  0  0  0  0  0  0  0  0  0  0  0
   48.6570    3.6072   19.8364 O   0  0  0  0  0  0  0  0  0  0  0  0
   50.0720    5.1575   20.7500 O   0  0  0  0  0  0  0  0  0  0  0  0
   50.2212    7.8460   15.4395 Ca  0  0  0  0  0 15  0  0  0  0  0  0
   46.9441    8.0668   19.5055 O   0  0  0  0  0  0  0  0  0  0  0  0
   48.3246    8.1031   19.8919 C   0  0  2  0  0  0  0  0  0  0  0  0
   49.2025    7.9289   18.6434 C   0  0  0  0  0  0  0  0  0  0  0  0
   49.0257    9.1001   17.6605 C   0  0  2  0  0  0  0  0  0  0  0  0
   47.7034    9.1765   17.1408 O   0  0  0  0  0  0  0  0  0  0  0  0
   49.9634    9.0400   16.4870 C   0  0  0  0  0  0  0  0  0  0  0  0
   50.1815    7.9514   15.7298 C   0  0  0  0  0  0  0  0  0  0  0  0
   51.1539    7.9495   14.6253 C   0  0  0  0  0  0  0  0  0  0  0  0
   52.5214    7.7748   14.8971 C   0  0  0  0  0  0  0  0  0  0  0  0
   53.4484    7.8097   13.9037 N   0  0  0  0  0  0  0  0  0  0  0  0
   53.0609    7.9905   12.6346 C   0  0  0  0  0  0  0  0  0  0  0  0
   54.0452    8.0094   11.6549 C   0  0  0  0  0  0  0  0  0  0  0  0
   53.7435    8.1814   10.3031 C   0  0  0  0  0  0  0  0  0  0  0  0
   52.4229    8.3433    9.9136 C   0  0  0  0  0  0  0  0  0  0  0  0
   51.4172    8.3265   10.8797 C   0  0  0  0  0  0  0  0  0  0  0  0
   51.7139    8.1508   12.2562 C   0  0  0  0  0  0  0  0  0  0  0  0
   50.7350    8.1243   13.2869 C   0  0  0  0  0  0  0  0  0  0  0  0
   49.3011    8.2727   12.9655 C   0  0  0  0  0  0  0  0  0  0  0  0
   48.5176    7.1492   12.6482 C   0  0  0  0  0  0  0  0  0  0  0  0
   47.1641    7.2922   12.3387 C   0  0  0  0  0  0  0  0  0  0  0  0
   46.5897    8.5566   12.3441 C   0  0  0  0  0  0  0  0  0  0  0  0
   45.2939    8.6931   12.0314 F   0  0  0  0  0  0  0  0  0  0  0  0
   47.3421    9.6813   12.6548 C   0  0  0  0  0  0  0  0  0  0  0  0
   48.6954    9.5406   12.9682 C   0  0  0  0  0  0  0  0  0  0  0  0
   53.0396    7.5497   16.3079 C   0  0  0  0  0  0  0  0  0  0  0  0
   52.8133    6.2176   16.9863 C   0  0  0  0  0  0  0  0  0  0  0  0
   54.1940    6.6072   16.5611 C   0  0  0  0  0  0  0  0  0  0  0  0
   48.6113    7.0841   20.9905 C   0  0  0  0  0  0  0  0  0  0  0  0
   48.4003    5.6533   20.5057 C   0  0  0  0  0  0  0  0  0  0  0  0
   49.3055    4.8359   20.8187 O   0  0  0  0  0  0  0  0  0  0  0  0
   47.3395    5.4809   19.8368 O   0  0  0  0  0  0  0  0  0  0  0  0
   47.1365    3.9245   18.8762 H   0  0  0  0  0  0  0  0  0  0  0  0
   46.5024    6.6547   18.8426 H   0  0  0  0  0  0  0  0  0  0  0  0
   48.9440    5.2535   17.6306 H   0  0  0  0  0  0  0  0  0  0  0  0
   47.6858    6.0933   16.7663 H   0  0  0  0  0  0  0  0  0  0  0  0
   49.5464    7.4710   18.8004 H   0  0  0  0  0  0  0  0  0  0  0  0
   47.5180    8.3358   17.0308 H   0  0  0  0  0  0  0  0  0  0  0  0
   50.7080    6.6630   16.6530 H   0  0  0  0  0  0  0  0  0  0  0  0
   49.6192    9.4762   16.0166 H   0  0  0  0  0  0  0  0  0  0  0  0
   55.2701    8.6599   12.3257 H   0  0  0  0  0  0  0  0  0  0  0  0
   54.7850    8.5753    9.9032 H   0  0  0  0  0  0  0  0  0  0  0  0
   52.4247    8.4963    9.1214 H   0  0  0  0  0  0  0  0  0  0  0  0
   50.5967    8.5054   10.7535 H   0  0  0  0  0  0  0  0  0  0  0  0
   49.3264   10.7169   12.8323 H   0  0  0  0  0  0  0  0  0  0  0  0
   46.9185   10.6887   12.2183 H   0  0  0  0  0  0  0  0  0  0  0  0
   46.7954    6.4427   12.7949 H   0  0  0  0  0  0  0  0  0  0  0  0
   49.2013    6.4396   13.4084 H   0  0  0  0  0  0  0  0  0  0  0  0
   53.1061    7.7820   17.1638 H   0  0  0  0  0  0  0  0  0  0  0  0
   54.7437   10.2462   16.2177 H   0  0  0  0  0  0  0  0  0  0  0  0
   55.0118    9.2645   17.7235 H   0  0  0  0  0  0  0  0  0  0  0  0
   52.4265   10.8277   17.0103 H   0  0  0  0  0  0  0  0  0  0  0  0
   52.6831    9.8338   18.5133 H   0  0  0  0  0  0  0  0  0  0  0  0
   48.2225    6.7587   20.5688 H   0  0  0  0  0  0  0  0  0  0  0  0
   47.0895    5.4600   20.9733 H   0  0  0  0  0  0  0  0  0  0  0  0
   46.7314    7.0936   19.4725 H   0  0  0  0  0  0  0  0  0  0  0  0
   48.4997    9.1019   20.3100 H   0  0  0  0  0  0  0  0  0  0  0  0
   50.2543    7.8533   18.9456 H   0  0  0  0  0  0  0  0  0  0  0  0
   48.9217    6.9953   18.1416 H   0  0  0  0  0  0  0  0  0  0  0  0
   49.2163   10.0366   18.1982 H   0  0  0  0  0  0  0  0  0  0  0  0
   47.1197    8.8200   17.8480 H   0  0  0  0  0  0  0  0  0  0  0  0
   50.5045    9.9588   16.2781 H   0  0  0  0  0  0  0  0  0  0  0  0
   49.6373    7.0253   15.8989 H   0  0  0  0  0  0  0  0  0  0  0  0
   55.0817    7.8879   11.9603 H   0  0  0  0  0  0  0  0  0  0  0  0
   54.5408    8.1852    9.5658 H   0  0  0  0  0  0  0  0  0  0  0  0
   52.1720    8.4754    8.8657 H   0  0  0  0  0  0  0  0  0  0  0  0
   50.3881    8.4618   10.5485 H   0  0  0  0  0  0  0  0  0  0  0  0
   48.9628    6.1566   12.6565 H   0  0  0  0  0  0  0  0  0  0  0  0
   46.5566    6.4249   12.1032 H   0  0  0  0  0  0  0  0  0  0  0  0
   46.8692   10.6573   12.6704 H   0  0  0  0  0  0  0  0  0  0  0  0
   49.2763   10.4216   13.2288 H   0  0  0  0  0  0  0  0  0  0  0  0
   53.0039    8.4264   16.9493 H   0  0  0  0  0  0  0  0  0  0  0  0
   52.5757    6.2239   18.0439 H   0  0  0  0  0  0  0  0  0  0  0  0
   52.3173    5.4262   16.4371 H   0  0  0  0  0  0  0  0  0  0  0  0
   54.9069    6.8780   17.3293 H   0  0  0  0  0  0  0  0  0  0  0  0
   54.6310    6.0879   15.7167 H   0  0  0  0  0  0  0  0  0  0  0  0
   47.9256    7.2378   21.8320 H   0  0  0  0  0  0  0  0  0  0  0  0
   49.6357    7.2099   21.3589 H   0  0  0  0  0  0  0  0  0  0  0  0
  2  1  1  0
  2  3  1  0
  3  4  1  0
  4  5  1  0
  4  6  1  0
  6  7  2  0
  7  8  1  0
  8  9  2  0
  9 10  1  0
 10 11  2  0
 11 12  1  0
 12 13  2  0
 13 14  1  0
 14 15  2  0
 15 16  1  0
 11 16  1  0
 16 17  2  0
  8 17  1  0
 17 18  1  0
 18 19  2  0
 19 20  1  0
 20 21  2  0
 21 22  1  0
 21 23  1  0
 23 24  2  0
 18 24  1  0
  9 25  1  0
 25 26  1  0
 26 27  1  0
 25 27  1  0
  2 28  1  0
 28 29  1  0
 29 30  2  0
 29 31  1  0
 34 33  1  0
 34 35  1  0
 35 36  1  0
 36 37  1  0
 36 38  1  0
 38 39  2  0
 39 40  1  0
 40 41  2  0
 41 42  1  0
 42 43  2  0
 43 44  1  0
 44 45  2  0
 45 46  1  0
 46 47  2  0
 47 48  1  0
 43 48  1  0
 48 49  2  0
 40 49  1  0
 49 50  1  0
 50 51  2  0
 51 52  1  0
 52 53  2  0
 53 54  1  0
 53 55  1  0
 55 56  2  0
 50 56  1  0
 41 57  1  0
 57 58  1  0
 58 59  1  0
 57 59  1  0
 34 60  1  0
 60 61  1  0
 61 62  2  0
 61 63  1  0
  1 64  1  0
  2 65  1  6
  3 66  1  0
  3 67  1  0
  4 68  1  6
  5 69  1  0
  6 70  1  0
  7 71  1  0
 12 72  1  0
 13 73  1  0
 14 74  1  0
 15 75  1  0
 19 76  1  0
 20 77  1  0
 23 78  1  0
 24 79  1  0
 25 80  1  0
 26 81  1  0
 26 82  1  0
 27 83  1  0
 27 84  1  0
 28 85  1  0
 28 86  1  0
 33 87  1  0
 34 88  1  6
 35 89  1  0
 35 90  1  0
 36 91  1  6
 37 92  1  0
 38 93  1  0
 39 94  1  0
 44 95  1  0
 45 96  1  0
 46 97  1  0
 47 98  1  0
 51 99  1  0
 52100  1  0
 55101  1  0
 56102  1  0
 57103  1  0
 58104  1  0
 58105  1  0
 59106  1  0
 59107  1  0
 60108  1  0
 60109  1  0
M  CHG  3  31  -1  32   2  63  -1
M  END
> <Uni-Dock RESULT> 
ENERGY=   -7.219  LOWER_BOUND=    3.538  UPPER_BOUND=    8.081
INTER + INTRA:          -7.219
INTER:                  -7.219
INTRA:                   0.000
UNBOUND:                 0.000

$$$$

     RDKit          3D

109114  0  0  0  0  0  0  0  0999 V2000
   48.1442   12.6074   22.7472 O   0  0  0  0  0  0  0  0  0  0  0  0
   47.8578   12.2373   21.3888 C   0  0  2  0  0  0  0  0  0  0  0  0
   48.8619   11.1552   20.9650 C   0  0  0  0  0  0  0  0  0  0  0  0
   48.6136   10.5910   19.5612 C   0  0  2  0  0  0  0  0  0  0  0  0
   47.3459    9.9328   19.5143 O   0  0  0  0  0  0  0  0  0  0  0  0
   49.7007    9.6189   19.1785 C   0  0  0  0  0  0  0  0  0  0  0  0
   49.5219    8.3809   18.6891 C   0  0  0  0  0  0  0  0  0  0  0  0
   50.6472    7.4878   18.3578 C   0  0  0  0  0  0  0  0  0  0  0  0
   51.4848    7.7527   17.2594 C   0  0  0  0  0  0  0  0  0  0  0  0
   52.5294    6.9357   16.9599 N   0  0  0  0  0  0  0  0  0  0  0  0
   52.7735    5.8549   17.7093 C   0  0  0  0  0  0  0  0  0  0  0  0
   53.8621    5.0650   17.3661 C   0  0  0  0  0  0  0  0  0  0  0  0
   54.2013    3.9185   18.0855 C   0  0  0  0  0  0  0  0  0  0  0  0
   53.4339    3.5460   19.1778 C   0  0  0  0  0  0  0  0  0  0  0  0
   52.3336    4.3221   19.5379 C   0  0  0  0  0  0  0  0  0  0  0  0
   51.9822    5.4907   18.8152 C   0  0  0  0  0  0  0  0  0  0  0  0
   50.8817    6.3301   19.1397 C   0  0  0  0  0  0  0  0  0  0  0  0
   49.9846    5.9965   20.2695 C   0  0  0  0  0  0  0  0  0  0  0  0
   48.9358    5.0733   20.1008 C   0  0  0  0  0  0  0  0  0  0  0  0
   48.0872    4.7582   21.1639 C   0  0  0  0  0  0  0  0  0  0  0  0
   48.2808    5.3693   22.3973 C   0  0  0  0  0  0  0  0  0  0  0  0
   47.4650    5.0634   23.4146 F   0  0  0  0  0  0  0  0  0  0  0  0
   49.3077    6.2853   22.5903 C   0  0  0  0  0  0  0  0  0  0  0  0
   50.1579    6.5992   21.5280 C   0  0  0  0  0  0  0  0  0  0  0  0
   51.2856    8.9532   16.3485 C   0  0  0  0  0  0  0  0  0  0  0  0
   51.4684    8.8131   14.8541 C   0  0  0  0  0  0  0  0  0  0  0  0
   50.0939    9.0089   15.4159 C   0  0  0  0  0  0  0  0  0  0  0  0
   47.8173   13.4830   20.5071 C   0  0  0  0  0  0  0  0  0  0  0  0
   49.2115   14.0809   20.3655 C   0  0  0  0  0  0  0  0  0  0  0  0
   49.8138   14.2768   21.4623 O   0  0  0  0  0  0  0  0  0  0  0  0
   49.6016   14.2730   19.1829 O   0  0  0  0  0  0  0  0  0  0  0  0
   50.1227    8.3440   19.3519 Ca  0  0  0  0  0 15  0  0  0  0  0  0
   46.1085   11.6332   19.9745 O   0  0  0  0  0  0  0  0  0  0  0  0
   46.9450   11.9698   18.8594 C   0  0  2  0  0  0  0  0  0  0  0  0
   48.1462   11.0130   18.8232 C   0  0  0  0  0  0  0  0  0  0  0  0
   47.7039    9.5600   18.5739 C   0  0  2  0  0  0  0  0  0  0  0  0
   46.8937    9.0520   19.6274 O   0  0  0  0  0  0  0  0  0  0  0  0
   48.8544    8.6087   18.3976 C   0  0  0  0  0  0  0  0  0  0  0  0
   49.9250    8.5358   19.2065 C   0  0  0  0  0  0  0  0  0  0  0  0
   51.0414    7.6135   18.9445 C   0  0  0  0  0  0  0  0  0  0  0  0
   52.0334    7.9624   18.0125 C   0  0  0  0  0  0  0  0  0  0  0  0
   53.0543    7.1148   17.7179 N   0  0  0  0  0  0  0  0  0  0  0  0
   53.1397    5.9310   18.3382 C   0  0  0  0  0  0  0  0  0  0  0  0
   54.2063    5.1046   18.0091 C   0  0  0  0  0  0  0  0  0  0  0  0
   54.3898    3.8564   18.6063 C   0  0  0  0  0  0  0  0  0  0  0  0
   53.4829    3.4148   19.5573 C   0  0  0  0  0  0  0  0  0  0  0  0
   52.4046    4.2282   19.9049 C   0  0  0  0  0  0  0  0  0  0  0  0
   52.2106    5.4991   19.3043 C   0  0  0  0  0  0  0  0  0  0  0  0
   51.1333    6.3732   19.6157 C   0  0  0  0  0  0  0  0  0  0  0  0
   50.1268    5.9945   20.6281 C   0  0  0  0  0  0  0  0  0  0  0  0
   50.3280    6.2959   21.9866 C   0  0  0  0  0  0  0  0  0  0  0  0
   49.3785    5.9316   22.9427 C   0  0  0  0  0  0  0  0  0  0  0  0
   48.2268    5.2650   22.5455 C   0  0  0  0  0  0  0  0  0  0  0  0
   47.3241    4.9025   23.4670 F   0  0  0  0  0  0  0  0  0  0  0  0
   48.0047    4.9568   21.2100 C   0  0  0  0  0  0  0  0  0  0  0  0
   48.9513    5.3232   20.2513 C   0  0  0  0  0  0  0  0  0  0  0  0
   52.0158    9.2926   17.2778 C   0  0  0  0  0  0  0  0  0  0  0  0
   52.3723   10.5624   18.0170 C   0  0  0  0  0  0  0  0  0  0  0  0
   53.3054   10.0226   16.9794 C   0  0  0  0  0  0  0  0  0  0  0  0
   47.3359   13.4441   18.8953 C   0  0  0  0  0  0  0  0  0  0  0  0
   48.1926   13.7740   20.1135 C   0  0  0  0  0  0  0  0  0  0  0  0
   49.2068   14.4850   19.8863 O   0  0  0  0  0  0  0  0  0  0  0  0
   47.7718   13.2736   21.1974 O   0  0  0  0  0  0  0  0  0  0  0  0
   48.8838   13.2636   22.6635 H   0  0  0  0  0  0  0  0  0  0  0  0
   46.8532   11.7971   21.4052 H   0  0  0  0  0  0  0  0  0  0  0  0
   49.8864   11.5418   21.0464 H   0  0  0  0  0  0  0  0  0  0  0  0
   48.8079   10.3425   21.7052 H   0  0  0  0  0  0  0  0  0  0  0  0
   48.6028   11.3925   18.8150 H   0  0  0  0  0  0  0  0  0  0  0  0
   47.2876    9.3937   20.3212 H   0  0  0  0  0  0  0  0  0  0  0  0
   50.7111   10.0057   19.3102 H   0  0  0  0  0  0  0  0  0  0  0  0
   48.5265    7.9733   18.5347 H   0  0  0  0  0  0  0  0  0  0  0  0
   54.4682    5.3600   16.5125 H   0  0  0  0  0  0  0  0  0  0  0  0
   55.0651    3.3295   17.7902 H   0  0  0  0  0  0  0  0  0  0  0  0
   53.6896    2.6595   19.7517 H   0  0  0  0  0  0  0  0  0  0  0  0
   51.7527    4.0116   20.4041 H   0  0  0  0  0  0  0  0  0  0  0  0
   48.7772    4.6049   19.1313 H   0  0  0  0  0  0  0  0  0  0  0  0
   47.2756    4.0505   21.0322 H   0  0  0  0  0  0  0  0  0  0  0  0
   49.4344    6.7573   23.5598 H   0  0  0  0  0  0  0  0  0  0  0  0
   50.9530    7.3275   21.6801 H   0  0  0  0  0  0  0  0  0  0  0  0
   51.6115    9.9023   16.7720 H   0  0  0  0  0  0  0  0  0  0  0  0
   51.7213    7.8398   14.4519 H   0  0  0  0  0  0  0  0  0  0  0  0
   51.9259    9.6414   14.3275 H   0  0  0  0  0  0  0  0  0  0  0  0
   49.4095    8.1679   15.3919 H   0  0  0  0  0  0  0  0  0  0  0  0
   49.6139    9.9733   15.2841 H   0  0  0  0  0  0  0  0  0  0  0  0
   47.3992   13.2472   19.5214 H   0  0  0  0  0  0  0  0  0  0  0  0
   47.1805   14.2488   20.9646 H   0  0  0  0  0  0  0  0  0  0  0  0
   46.5308   12.1093   20.7415 H   0  0  0  0  0  0  0  0  0  0  0  0
   46.3375   11.8080   17.9607 H   0  0  0  0  0  0  0  0  0  0  0  0
   48.8405   11.3301   18.0353 H   0  0  0  0  0  0  0  0  0  0  0  0
   48.6703   11.0675   19.7847 H   0  0  0  0  0  0  0  0  0  0  0  0
   47.0993    9.5330   17.6595 H   0  0  0  0  0  0  0  0  0  0  0  0
   46.4146    9.8300   19.9921 H   0  0  0  0  0  0  0  0  0  0  0  0
   48.7915    7.9610   17.5274 H   0  0  0  0  0  0  0  0  0  0  0  0
   50.0046    9.1533   20.0980 H   0  0  0  0  0  0  0  0  0  0  0  0
   54.9150    5.4480   17.2593 H   0  0  0  0  0  0  0  0  0  0  0  0
   55.2395    3.2410   18.3262 H   0  0  0  0  0  0  0  0  0  0  0  0
   53.6135    2.4476   20.0327 H   0  0  0  0  0  0  0  0  0  0  0  0
   51.7029    3.8556   20.6504 H   0  0  0  0  0  0  0  0  0  0  0  0
   51.2233    6.8297   22.2978 H   0  0  0  0  0  0  0  0  0  0  0  0
   49.5284    6.1723   23.9897 H   0  0  0  0  0  0  0  0  0  0  0  0
   47.0901    4.4514   20.9195 H   0  0  0  0  0  0  0  0  0  0  0  0
   48.7649    5.0962   19.2047 H   0  0  0  0  0  0  0  0  0  0  0  0
   51.2433    9.3809   16.5184 H   0  0  0  0  0  0  0  0  0  0  0  0
   51.8036   11.4563   17.7877 H   0  0  0  0  0  0  0  0  0  0  0  0
   52.6755   10.4980   19.0553 H   0  0  0  0  0  0  0  0  0  0  0  0
   53.3801   10.5497   16.0369 H   0  0  0  0  0  0  0  0  0  0  0  0
   54.2370    9.5822   17.3138 H   0  0  0  0  0  0  0  0  0  0  0  0
   46.4370   14.0683   18.9618 H   0  0  0  0  0  0  0  0  0  0  0  0
   47.8689   13.7119   17.9760 H   0  0  0  0  0  0  0  0  0  0  0  0
  2  1  1  0
  2  3  1  0
  3  4  1  0
  4  5  1  0
  4  6  1  0
  6  7  2  0
  7  8  1  0
  8  9  2  0
  9 10  1  0
 10 11  2  0
 11 12  1  0
 12 13  2  0
 13 14  1  0
 14 15  2  0
 15 16  1  0
 11 16  1  0
 16 17  2  0
  8 17  1  0
 17 18  1  0
 18 19  2  0
 19 20  1  0
 20 21  2  0
 21 22  1  0
 21 23  1  0
 23 24  2  0
 18 24  1  0
  9 25  1  0
 25 26  1  0
 26 27  1  0
 25 27  1  0
  2 28  1  0
 28 29  1  0
 29 30  2  0
 29 31  1  0
 34 33  1  0
 34 35  1  0
 35 36  1  0
 36 37  1  0
 36 38  1  0
 38 39  2  0
 39 40  1  0
 40 41  2  0
 41 42  1  0
 42 43  2  0
 43 44  1  0
 44 45  2  0
 45 46  1  0
 46 47  2  0
 47 48  1  0
 43 48  1  0
 48 49  2  0
 40 49  1  0
 49 50  1  0
 50 51  2  0
 51 52  1  0
 52 53  2  0
 53 54  1  0
 53 55  1  0
 55 56  2  0
 50 56  1  0
 41 57  1  0
 57 58  1  0
 58 59  1  0
 57 59  1  0
 34 60  1  0
 60 61  1  0
 61 62  2  0
 61 63  1  0
  1 64  1  0
  2 65  1  6
  3 66  1  0
  3 67  1  0
  4 68  1  6
  5 69  1  0
  6 70  1  0
  7 71  1  0
 12 72  1  0
 13 73  1  0
 14 74  1  0
 15 75  1  0
 19 76  1  0
 20 77  1  0
 23 78  1  0
 24 79  1  0
 25 80  1  0
 26 81  1  0
 26 82  1  0
 27 83  1  0
 27 84  1  0
 28 85  1  0
 28 86  1  0
 33 87  1  0
 34 88  1  6
 35 89  1  0
 35 90  1  0
 36 91  1  6
 37 92  1  0
 38 93  1  0
 39 94  1  0
 44 95  1  0
 45 96  1  0
 46 97  1  0
 47 98  1  0
 51 99  1  0
 52100  1  0
 55101  1  0
 56102  1  0
 57103  1  0
 58104  1  0
 58105  1  0
 59106  1  0
 59107  1  0
 60108  1  0
 60109  1  0
M  CHG  3  31  -1  32   2  63  -1
M  END
> <Uni-Dock RESULT> 
ENERGY=   -6.900  LOWER_BOUND=    3.840  UPPER_BOUND=    6.216
INTER + INTRA:          -6.900
INTER:                  -6.900
INTRA:                   0.000
UNBOUND:                 0.000

$$$$

     RDKit          3D

109114  0  0  0  0  0  0  0  0999 V2000
   52.9075   11.3547   23.1175 O   0  0  0  0  0  0  0  0  0  0  0  0
   53.6002   10.9019   21.9429 C   0  0  2  0  0  0  0  0  0  0  0  0
   52.8480    9.6861   21.3818 C   0  0  0  0  0  0  0  0  0  0  0  0
   53.4216    9.1531   20.0637 C   0  0  2  0  0  0  0  0  0  0  0  0
   53.3023   10.1439   19.0406 O   0  0  0  0  0  0  0  0  0  0  0  0
   52.7005    7.8994   19.6379 C   0  0  0  0  0  0  0  0  0  0  0  0
   52.1790    7.6575   18.4239 C   0  0  0  0  0  0  0  0  0  0  0  0
   51.4711    6.4057   18.0988 C   0  0  0  0  0  0  0  0  0  0  0  0
   52.1641    5.1861   17.9950 C   0  0  0  0  0  0  0  0  0  0  0  0
   51.5104    4.0295   17.7062 N   0  0  0  0  0  0  0  0  0  0  0  0
   50.1873    4.0367   17.5090 C   0  0  0  0  0  0  0  0  0  0  0  0
   49.5703    2.8245   17.2321 C   0  0  0  0  0  0  0  0  0  0  0  0
   48.1958    2.7262   17.0129 C   0  0  0  0  0  0  0  0  0  0  0  0
   47.4121    3.8679   17.0695 C   0  0  0  0  0  0  0  0  0  0  0  0
   48.0112    5.0965   17.3418 C   0  0  0  0  0  0  0  0  0  0  0  0
   49.4068    5.2067   17.5690 C   0  0  0  0  0  0  0  0  0  0  0  0
   50.0744    6.4267   17.8638 C   0  0  0  0  0  0  0  0  0  0  0  0
   49.3269    7.7039   17.9135 C   0  0  0  0  0  0  0  0  0  0  0  0
   49.0420    8.4117   16.7308 C   0  0  0  0  0  0  0  0  0  0  0  0
   48.3388    9.6172   16.7748 C   0  0  0  0  0  0  0  0  0  0  0  0
   47.9235   10.1220   18.0016 C   0  0  0  0  0  0  0  0  0  0  0  0
   47.2486   11.2783   18.0391 F   0  0  0  0  0  0  0  0  0  0  0  0
   48.1931    9.4439   19.1841 C   0  0  0  0  0  0  0  0  0  0  0  0
   48.8944    8.2372   19.1405 C   0  0  0  0  0  0  0  0  0  0  0  0
   53.6665    5.0781   18.1989 C   0  0  0  0  0  0  0  0  0  0  0  0
   54.4935    4.1831   17.3035 C   0  0  0  0  0  0  0  0  0  0  0  0
   54.6154    5.6706   17.1783 C   0  0  0  0  0  0  0  0  0  0  0  0
   55.0757   10.6762   22.2630 C   0  0  0  0  0  0  0  0  0  0  0  0
   55.2427    9.4774   23.1882 C   0  0  0  0  0  0  0  0  0  0  0  0
   54.5160    9.5076   24.2250 O   0  0  0  0  0  0  0  0  0  0  0  0
   56.0516    8.5958   22.7930 O   0  0  0  0  0  0  0  0  0  0  0  0
   51.5688    7.4501   19.0454 Ca  0  0  0  0  0 15  0  0  0  0  0  0
   54.5321   11.6603   19.9475 O   0  0  0  0  0  0  0  0  0  0  0  0
   55.2875   10.4431   19.8825 C   0  0  2  0  0  0  0  0  0  0  0  0
   54.3226    9.2589   19.7196 C   0  0  0  0  0  0  0  0  0  0  0  0
   53.5576    9.3328   18.3861 C   0  0  2  0  0  0  0  0  0  0  0  0
   52.7131   10.4752   18.3085 O   0  0  0  0  0  0  0  0  0  0  0  0
   52.7008    8.1260   18.1229 C   0  0  0  0  0  0  0  0  0  0  0  0
   51.8507    7.5768   19.0069 C   0  0  0  0  0  0  0  0  0  0  0  0
   51.0791    6.3622   18.6987 C   0  0  0  0  0  0  0  0  0  0  0  0
   51.6847    5.0997   18.8164 C   0  0  0  0  0  0  0  0  0  0  0  0
   51.0118    3.9621   18.4994 N   0  0  0  0  0  0  0  0  0  0  0  0
   49.7394    4.0313   18.0876 C   0  0  0  0  0  0  0  0  0  0  0  0
   49.0926    2.8402   17.7844 C   0  0  0  0  0  0  0  0  0  0  0  0
   47.7645    2.8049   17.3569 C   0  0  0  0  0  0  0  0  0  0  0  0
   47.0587    3.9906   17.2232 C   0  0  0  0  0  0  0  0  0  0  0  0
   47.6870    5.1990   17.5233 C   0  0  0  0  0  0  0  0  0  0  0  0
   49.0364    5.2448   17.9599 C   0  0  0  0  0  0  0  0  0  0  0  0
   49.7314    6.4429   18.2808 C   0  0  0  0  0  0  0  0  0  0  0  0
   49.0559    7.7527   18.1837 C   0  0  0  0  0  0  0  0  0  0  0  0
   48.3356    8.2705   19.2745 C   0  0  0  0  0  0  0  0  0  0  0  0
   47.6926    9.5056   19.1786 C   0  0  0  0  0  0  0  0  0  0  0  0
   47.7661   10.2264   17.9938 C   0  0  0  0  0  0  0  0  0  0  0  0
   47.1350   11.4046   17.8990 F   0  0  0  0  0  0  0  0  0  0  0  0
   48.4717    9.7369   16.9029 C   0  0  0  0  0  0  0  0  0  0  0  0
   49.1187    8.5032   16.9973 C   0  0  0  0  0  0  0  0  0  0  0  0
   53.1192    4.9358   19.2906 C   0  0  0  0  0  0  0  0  0  0  0  0
   53.4556    5.1479   20.7493 C   0  0  0  0  0  0  0  0  0  0  0  0
   53.5092    3.7695   20.1697 C   0  0  0  0  0  0  0  0  0  0  0  0
   56.2197   10.3141   21.0834 C   0  0  0  0  0  0  0  0  0  0  0  0
   55.4453   10.1996   22.3926 C   0  0  0  0  0  0  0  0  0  0  0  0
   55.8451    9.3040   23.1822 O   0  0  0  0  0  0  0  0  0  0  0  0
   54.4878   11.0200   22.5050 O   0  0  0  0  0  0  0  0  0  0  0  0
   53.2442   10.7590   23.8360 H   0  0  0  0  0  0  0  0  0  0  0  0
   53.5288   11.7234   21.2195 H   0  0  0  0  0  0  0  0  0  0  0  0
   52.8122    8.8874   22.1344 H   0  0  0  0  0  0  0  0  0  0  0  0
   51.7982    9.9824   21.2354 H   0  0  0  0  0  0  0  0  0  0  0  0
   54.4838    8.9087   20.1711 H   0  0  0  0  0  0  0  0  0  0  0  0
   52.4059   10.5117   19.1193 H   0  0  0  0  0  0  0  0  0  0  0  0
   52.6356    7.1371   20.4141 H   0  0  0  0  0  0  0  0  0  0  0  0
   52.2399    8.3931   17.6265 H   0  0  0  0  0  0  0  0  0  0  0  0
   50.1839    1.9273   17.1933 H   0  0  0  0  0  0  0  0  0  0  0  0
   47.7482    1.7583   16.8056 H   0  0  0  0  0  0  0  0  0  0  0  0
   46.3394    3.8060   16.9075 H   0  0  0  0  0  0  0  0  0  0  0  0
   47.3719    5.9759   17.3882 H   0  0  0  0  0  0  0  0  0  0  0  0
   49.3785    8.0221   15.7720 H   0  0  0  0  0  0  0  0  0  0  0  0
   48.1239   10.1653   15.8635 H   0  0  0  0  0  0  0  0  0  0  0  0
   47.8671    9.8617   20.1318 H   0  0  0  0  0  0  0  0  0  0  0  0
   49.1150    7.7161   20.0708 H   0  0  0  0  0  0  0  0  0  0  0  0
   53.9871    5.1231   19.2388 H   0  0  0  0  0  0  0  0  0  0  0  0
   53.9952    3.6433   16.5076 H   0  0  0  0  0  0  0  0  0  0  0  0
   55.3131    3.6416   17.7591 H   0  0  0  0  0  0  0  0  0  0  0  0
   54.2028    6.1427   16.2934 H   0  0  0  0  0  0  0  0  0  0  0  0
   55.5127    6.1496   17.5571 H   0  0  0  0  0  0  0  0  0  0  0  0
   55.6549   10.5343   21.3430 H   0  0  0  0  0  0  0  0  0  0  0  0
   55.4866   11.5484   22.7843 H   0  0  0  0  0  0  0  0  0  0  0  0
   54.2661   11.7249   20.9058 H   0  0  0  0  0  0  0  0  0  0  0  0
   55.9109   10.5169   18.9832 H   0  0  0  0  0  0  0  0  0  0  0  0
   54.8868    8.3197   19.7724 H   0  0  0  0  0  0  0  0  0  0  0  0
   53.6026    9.2736   20.5463 H   0  0  0  0  0  0  0  0  0  0  0  0
   54.2870    9.4141   17.5713 H   0  0  0  0  0  0  0  0  0  0  0  0
   53.1533   11.1676   18.8512 H   0  0  0  0  0  0  0  0  0  0  0  0
   52.8203    7.6777   17.1403 H   0  0  0  0  0  0  0  0  0  0  0  0
   51.6915    8.0169   19.9885 H   0  0  0  0  0  0  0  0  0  0  0  0
   49.6474    1.9102   17.8839 H   0  0  0  0  0  0  0  0  0  0  0  0
   47.2916    1.8530   17.1344 H   0  0  0  0  0  0  0  0  0  0  0  0
   46.0241    3.9793   16.8944 H   0  0  0  0  0  0  0  0  0  0  0  0
   47.1125    6.1170   17.4043 H   0  0  0  0  0  0  0  0  0  0  0  0
   48.2881    7.7133   20.2077 H   0  0  0  0  0  0  0  0  0  0  0  0
   47.1448    9.9102   20.0230 H   0  0  0  0  0  0  0  0  0  0  0  0
   48.5310   10.3244   15.9930 H   0  0  0  0  0  0  0  0  0  0  0  0
   49.6853    8.1323   16.1471 H   0  0  0  0  0  0  0  0  0  0  0  0
   53.8725    5.2523   18.5740 H   0  0  0  0  0  0  0  0  0  0  0  0
   54.3884    5.6477   20.9845 H   0  0  0  0  0  0  0  0  0  0  0  0
   52.6566    5.3754   21.4448 H   0  0  0  0  0  0  0  0  0  0  0  0
   54.4812    3.3207   20.0101 H   0  0  0  0  0  0  0  0  0  0  0  0
   52.7406    3.0648   20.4632 H   0  0  0  0  0  0  0  0  0  0  0  0
   56.8504   11.2071   21.1654 H   0  0  0  0  0  0  0  0  0  0  0  0
   56.8751    9.4451   20.9560 H   0  0  0  0  0  0  0  0  0  0  0  0
  2  1  1  0
  2  3  1  0
  3  4  1  0
  4  5  1  0
  4  6  1  0
  6  7  2  0
  7  8  1  0
  8  9  2  0
  9 10  1  0
 10 11  2  0
 11 12  1  0
 12 13  2  0
 13 14  1  0
 14 15  2  0
 15 16  1  0
 11 16  1  0
 16 17  2  0
  8 17  1  0
 17 18  1  0
 18 19  2  0
 19 20  1  0
 20 21  2  0
 21 22  1  0
 21 23  1  0
 23 24  2  0
 18 24  1  0
  9 25  1  0
 25 26  1  0
 26 27  1  0
 25 27  1  0
  2 28  1  0
 28 29  1  0
 29 30  2  0
 29 31  1  0
 34 33  1  0
 34 35  1  0
 35 36  1  0
 36 37  1  0
 36 38  1  0
 38 39  2  0
 39 40  1  0
 40 41  2  0
 41 42  1  0
 42 43  2  0
 43 44  1  0
 44 45  2  0
 45 46  1  0
 46 47  2  0
 47 48  1  0
 43 48  1  0
 48 49  2  0
 40 49  1  0
 49 50  1  0
 50 51  2  0
 51 52  1  0
 52 53  2  0
 53 54  1  0
 53 55  1  0
 55 56  2  0
 50 56  1  0
 41 57  1  0
 57 58  1  0
 58 59  1  0
 57 59  1  0
 34 60  1  0
 60 61  1  0
 61 62  2  0
 61 63  1  0
  1 64  1  0
  2 65  1  6
  3 66  1  0
  3 67  1  0
  4 68  1  6
  5 69  1  0
  6 70  1  0
  7 71  1  0
 12 72  1  0
 13 73  1  0
 14 74  1  0
 15 75  1  0
 19 76  1  0
 20 77  1  0
 23 78  1  0
 24 79  1  0
 25 80  1  0
 26 81  1  0
 26 82  1  0
 27 83  1  0
 27 84  1  0
 28 85  1  0
 28 86  1  0
 33 87  1  0
 34 88  1  6
 35 89  1  0
 35 90  1  0
 36 91  1  6
 37 92  1  0
 38 93  1  0
 39 94  1  0
 44 95  1  0
 45 96  1  0
 46 97  1  0
 47 98  1  0
 51 99  1  0
 52100  1  0
 55101  1  0
 56102  1  0
 57103  1  0
 58104  1  0
 58105  1  0
 59106  1  0
 59107  1  0
 60108  1  0
 60109  1  0
M  CHG  3  31  -1  32   2  63  -1
M  END
> <Uni-Dock RESULT> 
ENERGY=   -6.847  LOWER_BOUND=    4.483  UPPER_BOUND=    7.511
INTER + INTRA:          -6.847
INTER:                  -6.847
INTRA:                   0.000
UNBOUND:                 0.000

$$$$

     RDKit          3D

109114  0  0  0  0  0  0  0  0999 V2000
   51.6420   13.9437   15.7776 O   0  0  0  0  0  0  0  0  0  0  0  0
   52.5383   12.8733   15.4377 C   0  0  2  0  0  0  0  0  0  0  0  0
   51.9113   11.5542   15.9127 C   0  0  0  0  0  0  0  0  0  0  0  0
   52.7171   10.3079   15.5279 C   0  0  2  0  0  0  0  0  0  0  0  0
   52.7724   10.1794   14.1055 O   0  0  0  0  0  0  0  0  0  0  0  0
   52.0969    9.0688   16.1221 C   0  0  0  0  0  0  0  0  0  0  0  0
   51.8036    7.9348   15.4648 C   0  0  0  0  0  0  0  0  0  0  0  0
   51.1784    6.7737   16.1240 C   0  0  0  0  0  0  0  0  0  0  0  0
   51.8914    5.9969   17.0548 C   0  0  0  0  0  0  0  0  0  0  0  0
   51.3121    4.9328   17.6716 N   0  0  0  0  0  0  0  0  0  0  0  0
   50.0457    4.6031   17.3942 C   0  0  0  0  0  0  0  0  0  0  0  0
   49.5009    3.5166   18.0647 C   0  0  0  0  0  0  0  0  0  0  0  0
   48.1888    3.0943   17.8473 C   0  0  0  0  0  0  0  0  0  0  0  0
   47.3957    3.7720   16.9349 C   0  0  0  0  0  0  0  0  0  0  0  0
   47.9236    4.8635   16.2472 C   0  0  0  0  0  0  0  0  0  0  0  0
   49.2548    5.3025   16.4630 C   0  0  0  0  0  0  0  0  0  0  0  0
   49.8461    6.4146   15.8038 C   0  0  0  0  0  0  0  0  0  0  0  0
   49.0885    7.1811   14.7885 C   0  0  0  0  0  0  0  0  0  0  0  0
   49.0123    6.7254   13.4591 C   0  0  0  0  0  0  0  0  0  0  0  0
   48.3001    7.4472   12.4991 C   0  0  0  0  0  0  0  0  0  0  0  0
   47.6667    8.6296   12.8637 C   0  0  0  0  0  0  0  0  0  0  0  0
   46.9839    9.3183   11.9399 F   0  0  0  0  0  0  0  0  0  0  0  0
   47.7275    9.1025   14.1689 C   0  0  0  0  0  0  0  0  0  0  0  0
   48.4378    8.3799   15.1298 C   0  0  0  0  0  0  0  0  0  0  0  0
   53.3343    6.2910   17.4323 C   0  0  0  0  0  0  0  0  0  0  0  0
   54.3173    5.1578   17.6217 C   0  0  0  0  0  0  0  0  0  0  0  0
   54.4442    6.0556   16.4296 C   0  0  0  0  0  0  0  0  0  0  0  0
   53.9350   13.1729   15.9762 C   0  0  0  0  0  0  0  0  0  0  0  0
   53.9463   13.0993   17.4980 C   0  0  0  0  0  0  0  0  0  0  0  0
   53.0456   13.7859   18.0646 O   0  0  0  0  0  0  0  0  0  0  0  0
   54.8221   12.3437   17.9978 O   0  0  0  0  0  0  0  0  0  0  0  0
   51.0942    8.1741   15.9559 Ca  0  0  0  0  0 15  0  0  0  0  0  0
   53.8041   12.0200   13.6786 O   0  0  0  0  0  0  0  0  0  0  0  0
   54.5716   11.2825   14.6396 C   0  0  2  0  0  0  0  0  0  0  0  0
   53.6639   10.2495   15.3243 C   0  0  0  0  0  0  0  0  0  0  0  0
   53.1491    9.1988   14.3243 C   0  0  2  0  0  0  0  0  0  0  0  0
   52.3202    9.7689   13.3182 O   0  0  0  0  0  0  0  0  0  0  0  0
   52.3659    8.0920   14.9733 C   0  0  0  0  0  0  0  0  0  0  0  0
   51.3771    8.2684   15.8661 C   0  0  0  0  0  0  0  0  0  0  0  0
   50.6859    7.1351   16.5012 C   0  0  0  0  0  0  0  0  0  0  0  0
   51.2738    6.4824   17.5978 C   0  0  0  0  0  0  0  0  0  0  0  0
   50.6804    5.4069   18.1799 N   0  0  0  0  0  0  0  0  0  0  0  0
   49.5015    4.9657   17.7227 C   0  0  0  0  0  0  0  0  0  0  0  0
   48.9319    3.8692   18.3570 C   0  0  0  0  0  0  0  0  0  0  0  0
   47.7021    3.3400   17.9627 C   0  0  0  0  0  0  0  0  0  0  0  0
   47.0193    3.9164   16.9028 C   0  0  0  0  0  0  0  0  0  0  0  0
   47.5711    5.0192   16.2514 C   0  0  0  0  0  0  0  0  0  0  0  0
   48.8201    5.5651   16.6460 C   0  0  0  0  0  0  0  0  0  0  0  0
   49.4339    6.6862   16.0232 C   0  0  0  0  0  0  0  0  0  0  0  0
   48.7730    7.3752   14.8964 C   0  0  0  0  0  0  0  0  0  0  0  0
   47.8638    8.4219   15.1301 C   0  0  0  0  0  0  0  0  0  0  0  0
   47.2355    9.0677   14.0640 C   0  0  0  0  0  0  0  0  0  0  0  0
   47.5122    8.6698   12.7626 C   0  0  0  0  0  0  0  0  0  0  0  0
   46.8960    9.2808   11.7416 F   0  0  0  0  0  0  0  0  0  0  0  0
   48.4067    7.6395   12.5058 C   0  0  0  0  0  0  0  0  0  0  0  0
   49.0392    6.9942   13.5702 C   0  0  0  0  0  0  0  0  0  0  0  0
   52.6019    6.9310   18.1846 C   0  0  0  0  0  0  0  0  0  0  0  0
   52.6698    8.2010   19.0023 C   0  0  0  0  0  0  0  0  0  0  0  0
   52.8406    6.8761   19.6763 C   0  0  0  0  0  0  0  0  0  0  0  0
   55.2753   12.2223   15.6139 C   0  0  0  0  0  0  0  0  0  0  0  0
   54.2804   13.0098   16.4606 C   0  0  0  0  0  0  0  0  0  0  0  0
   54.5418   13.0669   17.6910 O   0  0  0  0  0  0  0  0  0  0  0  0
   53.3097   13.4942   15.8082 O   0  0  0  0  0  0  0  0  0  0  0  0
   51.8509   14.1352   16.7285 H   0  0  0  0  0  0  0  0  0  0  0  0
   52.5889   12.8636   14.3420 H   0  0  0  0  0  0  0  0  0  0  0  0
   51.7499   11.5854   16.9983 H   0  0  0  0  0  0  0  0  0  0  0  0
   50.9017   11.4903   15.4795 H   0  0  0  0  0  0  0  0  0  0  0  0
   53.7454   10.3786   15.8981 H   0  0  0  0  0  0  0  0  0  0  0  0
   51.8725   10.3513   13.7803 H   0  0  0  0  0  0  0  0  0  0  0  0
   51.9021    9.1372   17.1923 H   0  0  0  0  0  0  0  0  0  0  0  0
   51.9984    7.8327   14.4006 H   0  0  0  0  0  0  0  0  0  0  0  0
   50.1208    2.9878   18.7850 H   0  0  0  0  0  0  0  0  0  0  0  0
   47.7957    2.2433   18.3965 H   0  0  0  0  0  0  0  0  0  0  0  0
   46.3701    3.4589   16.7600 H   0  0  0  0  0  0  0  0  0  0  0  0
   47.2771    5.3825   15.5424 H   0  0  0  0  0  0  0  0  0  0  0  0
   49.5190    5.8062   13.1717 H   0  0  0  0  0  0  0  0  0  0  0  0
   48.2459    7.0985   11.4732 H   0  0  0  0  0  0  0  0  0  0  0  0
   47.2329   10.0334   14.4290 H   0  0  0  0  0  0  0  0  0  0  0  0
   48.4939    8.7612   16.1482 H   0  0  0  0  0  0  0  0  0  0  0  0
   53.4631    7.1383   18.1044 H   0  0  0  0  0  0  0  0  0  0  0  0
   53.9752    4.1427   17.4618 H   0  0  0  0  0  0  0  0  0  0  0  0
   55.0479    5.2582   18.4146 H   0  0  0  0  0  0  0  0  0  0  0  0
   54.1916    5.6486   15.4565 H   0  0  0  0  0  0  0  0  0  0  0  0
   55.2541    6.7778   16.4098 H   0  0  0  0  0  0  0  0  0  0  0  0
   54.6709   12.4791   15.5531 H   0  0  0  0  0  0  0  0  0  0  0  0
   54.2369   14.1892   15.6981 H   0  0  0  0  0  0  0  0  0  0  0  0
   53.3703   12.7362   14.2191 H   0  0  0  0  0  0  0  0  0  0  0  0
   55.3451   10.7514   14.0716 H   0  0  0  0  0  0  0  0  0  0  0  0
   54.2194    9.7542   16.1302 H   0  0  0  0  0  0  0  0  0  0  0  0
   52.8075   10.7709   15.7680 H   0  0  0  0  0  0  0  0  0  0  0  0
   54.0116    8.7505   13.8168 H   0  0  0  0  0  0  0  0  0  0  0  0
   52.6490   10.6876   13.1930 H   0  0  0  0  0  0  0  0  0  0  0  0
   52.6639    7.0858   14.6912 H   0  0  0  0  0  0  0  0  0  0  0  0
   51.0403    9.2628   16.1493 H   0  0  0  0  0  0  0  0  0  0  0  0
   49.4696    3.4133   19.1849 H   0  0  0  0  0  0  0  0  0  0  0  0
   47.2867    2.4847   18.4871 H   0  0  0  0  0  0  0  0  0  0  0  0
   46.0604    3.5179   16.5860 H   0  0  0  0  0  0  0  0  0  0  0  0
   47.0176    5.4501   15.4177 H   0  0  0  0  0  0  0  0  0  0  0  0
   47.6560    8.7437   16.1483 H   0  0  0  0  0  0  0  0  0  0  0  0
   46.5413    9.8818   14.2431 H   0  0  0  0  0  0  0  0  0  0  0  0
   48.6216    7.3566   11.4810 H   0  0  0  0  0  0  0  0  0  0  0  0
   49.7526    6.2004   13.3640 H   0  0  0  0  0  0  0  0  0  0  0  0
   53.4680    6.7129   17.5652 H   0  0  0  0  0  0  0  0  0  0  0  0
   53.5401    8.8352   18.8780 H   0  0  0  0  0  0  0  0  0  0  0  0
   51.7568    8.7529   19.1917 H   0  0  0  0  0  0  0  0  0  0  0  0
   53.8301    6.6019   20.0189 H   0  0  0  0  0  0  0  0  0  0  0  0
   52.0393    6.5238   20.3145 H   0  0  0  0  0  0  0  0  0  0  0  0
   55.8718   12.9572   15.0605 H   0  0  0  0  0  0  0  0  0  0  0  0
   55.9520   11.6522   16.2603 H   0  0  0  0  0  0  0  0  0  0  0  0
  2  1  1  0
  2  3  1  0
  3  4  1  0
  4  5  1  0
  4  6  1  0
  6  7  2  0
  7  8  1  0
  8  9  2  0
  9 10  1  0
 10 11  2  0
 11 12  1  0
 12 13  2  0
 13 14  1  0
 14 15  2  0
 15 16  1  0
 11 16  1  0
 16 17  2  0
  8 17  1  0
 17 18  1  0
 18 19  2  0
 19 20  1  0
 20 21  2  0
 21 22  1  0
 21 23  1  0
 23 24  2  0
 18 24  1  0
  9 25  1  0
 25 26  1  0
 26 27  1  0
 25 27  1  0
  2 28  1  0
 28 29  1  0
 29 30  2  0
 29 31  1  0
 34 33  1  0
 34 35  1  0
 35 36  1  0
 36 37  1  0
 36 38  1  0
 38 39  2  0
 39 40  1  0
 40 41  2  0
 41 42  1  0
 42 43  2  0
 43 44  1  0
 44 45  2  0
 45 46  1  0
 46 47  2  0
 47 48  1  0
 43 48  1  0
 48 49  2  0
 40 49  1  0
 49 50  1  0
 50 51  2  0
 51 52  1  0
 52 53  2  0
 53 54  1  0
 53 55  1  0
 55 56  2  0
 50 56  1  0
 41 57  1  0
 57 58  1  0
 58 59  1  0
 57 59  1  0
 34 60  1  0
 60 61  1  0
 61 62  2  0
 61 63  1  0
  1 64  1  0
  2 65  1  6
  3 66  1  0
  3 67  1  0
  4 68  1  6
  5 69  1  0
  6 70  1  0
  7 71  1  0
 12 72  1  0
 13 73  1  0
 14 74  1  0
 15 75  1  0
 19 76  1  0
 20 77  1  0
 23 78  1  0
 24 79  1  0
 25 80  1  0
 26 81  1  0
 26 82  1  0
 27 83  1  0
 27 84  1  0
 28 85  1  0
 28 86  1  0
 33 87  1  0
 34 88  1  6
 35 89  1  0
 35 90  1  0
 36 91  1  6
 37 92  1  0
 38 93  1  0
 39 94  1  0
 44 95  1  0
 45 96  1  0
 46 97  1  0
 47 98  1  0
 51 99  1  0
 52100  1  0
 55101  1  0
 56102  1  0
 57103  1  0
 58104  1  0
 58105  1  0
 59106  1  0
 59107  1  0
 60108  1  0
 60109  1  0
M  CHG  3  31  -1  32   2  63  -1
M  END
> <Uni-Dock RESULT> 
ENERGY=   -6.777  LOWER_BOUND=    3.709  UPPER_BOUND=    5.875
INTER + INTRA:          -6.777
INTER:                  -6.777
INTRA:                   0.000
UNBOUND:                 0.000

$$$$

     RDKit          3D

109114  0  0  0  0  0  0  0  0999 V2000
   53.8989    5.0522    9.8999 O   0  0  0  0  0  0  0  0  0  0  0  0
   54.2085    6.2785   10.5817 C   0  0  2  0  0  0  0  0  0  0  0  0
   52.9847    7.2017   10.4868 C   0  0  0  0  0  0  0  0  0  0  0  0
   53.1362    8.5175   11.2589 C   0  0  2  0  0  0  0  0  0  0  0  0
   53.2702    8.2532   12.6571 O   0  0  0  0  0  0  0  0  0  0  0  0
   51.9440    9.4109   11.0270 C   0  0  0  0  0  0  0  0  0  0  0  0
   51.2167   10.0254   11.9743 C   0  0  0  0  0  0  0  0  0  0  0  0
   50.0505   10.8699   11.6571 C   0  0  0  0  0  0  0  0  0  0  0  0
   50.2083   12.1194   11.0309 C   0  0  0  0  0  0  0  0  0  0  0  0
   49.1326   12.8937   10.7279 N   0  0  0  0  0  0  0  0  0  0  0  0
   47.8980   12.4766   11.0297 C   0  0  0  0  0  0  0  0  0  0  0  0
   46.8364   13.3012   10.6837 C   0  0  0  0  0  0  0  0  0  0  0  0
   45.5117   12.9556   10.9534 C   0  0  0  0  0  0  0  0  0  0  0  0
   45.2350   11.7546   11.5874 C   0  0  0  0  0  0  0  0  0  0  0  0
   46.2859   10.9128   11.9477 C   0  0  0  0  0  0  0  0  0  0  0  0
   47.6355   11.2535   11.6755 C   0  0  0  0  0  0  0  0  0  0  0  0
   48.7488   10.4333   12.0054 C   0  0  0  0  0  0  0  0  0  0  0  0
   48.5559    9.1471   12.7132 C   0  0  0  0  0  0  0  0  0  0  0  0
   48.4100    9.1164   14.1127 C   0  0  0  0  0  0  0  0  0  0  0  0
   48.2298    7.9048   14.7830 C   0  0  0  0  0  0  0  0  0  0  0  0
   48.2007    6.7197   14.0571 C   0  0  0  0  0  0  0  0  0  0  0  0
   48.0268    5.5599   14.7040 F   0  0  0  0  0  0  0  0  0  0  0  0
   48.3438    6.7220   12.6749 C   0  0  0  0  0  0  0  0  0  0  0  0
   48.5219    7.9336   12.0039 C   0  0  0  0  0  0  0  0  0  0  0  0
   51.5698   12.6794   10.6522 C   0  0  0  0  0  0  0  0  0  0  0  0
   51.8706   14.1478   10.8514 C   0  0  0  0  0  0  0  0  0  0  0  0
   52.5312   13.1316   11.7312 C   0  0  0  0  0  0  0  0  0  0  0  0
   55.5157    6.8568   10.0455 C   0  0  0  0  0  0  0  0  0  0  0  0
   55.3335    7.3487    8.6151 C   0  0  0  0  0  0  0  0  0  0  0  0
   54.8143    6.5018    7.8296 O   0  0  0  0  0  0  0  0  0  0  0  0
   55.6880    8.5389    8.4017 O   0  0  0  0  0  0  0  0  0  0  0  0
   50.6599    9.6210   11.4016 Ca  0  0  0  0  0 15  0  0  0  0  0  0
   55.0906    7.1070   12.5718 O   0  0  0  0  0  0  0  0  0  0  0  0
   55.3115    8.3587   11.9078 C   0  0  2  0  0  0  0  0  0  0  0  0
   53.9567    8.9673   11.5152 C   0  0  0  0  0  0  0  0  0  0  0  0
   53.1108    9.3098   12.7546 C   0  0  2  0  0  0  0  0  0  0  0  0
   52.7613    8.1546   13.5081 O   0  0  0  0  0  0  0  0  0  0  0  0
   51.8334   10.0299   12.4238 C   0  0  0  0  0  0  0  0  0  0  0  0
   50.9611    9.6546   11.4729 C   0  0  0  0  0  0  0  0  0  0  0  0
   49.7530   10.4372   11.1674 C   0  0  0  0  0  0  0  0  0  0  0  0
   49.8432   11.5697   10.3405 C   0  0  0  0  0  0  0  0  0  0  0  0
   48.7536   12.3370   10.0733 N   0  0  0  0  0  0  0  0  0  0  0  0
   47.5610   12.0044   10.5838 C   0  0  0  0  0  0  0  0  0  0  0  0
   46.4767   12.8152   10.2740 C   0  0  0  0  0  0  0  0  0  0  0  0
   45.1913   12.5485   10.7480 C   0  0  0  0  0  0  0  0  0  0  0  0
   44.9780   11.4437   11.5579 C   0  0  0  0  0  0  0  0  0  0  0  0
   46.0516   10.6142   11.8812 C   0  0  0  0  0  0  0  0  0  0  0  0
   47.3616   10.8764   11.4030 C   0  0  0  0  0  0  0  0  0  0  0  0
   48.4950   10.0699   11.6966 C   0  0  0  0  0  0  0  0  0  0  0  0
   48.3613    8.8636   12.5382 C   0  0  0  0  0  0  0  0  0  0  0  0
   48.0403    7.6209   11.9642 C   0  0  0  0  0  0  0  0  0  0  0  0
   47.9082    6.4833   12.7621 C   0  0  0  0  0  0  0  0  0  0  0  0
   48.0952    6.5833   14.1345 C   0  0  0  0  0  0  0  0  0  0  0  0
   47.9525    5.4930   14.9002 F   0  0  0  0  0  0  0  0  0  0  0  0
   48.4136    7.7988   14.7251 C   0  0  0  0  0  0  0  0  0  0  0  0
   48.5497    8.9376   13.9288 C   0  0  0  0  0  0  0  0  0  0  0  0
   51.1564   12.0046    9.7111 C   0  0  0  0  0  0  0  0  0  0  0  0
   51.7348   11.2130    8.5601 C   0  0  0  0  0  0  0  0  0  0  0  0
   51.1849   12.5827    8.3147 C   0  0  0  0  0  0  0  0  0  0  0  0
   56.2724    8.1924   10.7345 C   0  0  0  0  0  0  0  0  0  0  0  0
   55.6900    7.2947    9.6475 C   0  0  0  0  0  0  0  0  0  0  0  0
   55.8185    7.7178    8.4686 O   0  0  0  0  0  0  0  0  0  0  0  0
   55.1394    6.2407   10.0818 O   0  0  0  0  0  0  0  0  0  0  0  0
   54.0743    5.2604    8.9457 H   0  0  0  0  0  0  0  0  0  0  0  0
   54.3611    6.0048   11.6328 H   0  0  0  0  0  0  0  0  0  0  0  0
   52.7464    7.4012    9.4337 H   0  0  0  0  0  0  0  0  0  0  0  0
   52.1168    6.6449   10.8714 H   0  0  0  0  0  0  0  0  0  0  0  0
   54.0300    9.0602   10.9334 H   0  0  0  0  0  0  0  0  0  0  0  0
   52.5992    7.5841   12.8744 H   0  0  0  0  0  0  0  0  0  0  0  0
   51.6959    9.5591    9.9761 H   0  0  0  0  0  0  0  0  0  0  0  0
   51.4482    9.9069   13.0293 H   0  0  0  0  0  0  0  0  0  0  0  0
   47.0524   14.2412   10.1810 H   0  0  0  0  0  0  0  0  0  0  0  0
   44.7071   13.6244   10.6610 H   0  0  0  0  0  0  0  0  0  0  0  0
   44.2081   11.4689   11.7980 H   0  0  0  0  0  0  0  0  0  0  0  0
   46.0406    9.9724   12.4372 H   0  0  0  0  0  0  0  0  0  0  0  0
   48.4455   10.0435   14.6815 H   0  0  0  0  0  0  0  0  0  0  0  0
   48.1226    7.8809   15.8623 H   0  0  0  0  0  0  0  0  0  0  0  0
   48.3272    5.7834   12.1294 H   0  0  0  0  0  0  0  0  0  0  0  0
   48.6469    7.9293   10.9222 H   0  0  0  0  0  0  0  0  0  0  0  0
   52.0156   12.2271    9.7674 H   0  0  0  0  0  0  0  0  0  0  0  0
   51.1057   14.7793   11.2865 H   0  0  0  0  0  0  0  0  0  0  0  0
   52.4748   14.6399   10.0994 H   0  0  0  0  0  0  0  0  0  0  0  0
   52.2175   13.0747   12.7678 H   0  0  0  0  0  0  0  0  0  0  0  0
   53.5842   12.9193   11.5757 H   0  0  0  0  0  0  0  0  0  0  0  0
   55.8726    7.6700   10.6883 H   0  0  0  0  0  0  0  0  0  0  0  0
   56.2912    6.0825   10.0263 H   0  0  0  0  0  0  0  0  0  0  0  0
   54.9961    6.4543   11.8246 H   0  0  0  0  0  0  0  0  0  0  0  0
   55.7935    9.0147   12.6428 H   0  0  0  0  0  0  0  0  0  0  0  0
   54.1235    9.8722   10.9180 H   0  0  0  0  0  0  0  0  0  0  0  0
   53.4104    8.2445   10.8978 H   0  0  0  0  0  0  0  0  0  0  0  0
   53.7037    9.9571   13.4118 H   0  0  0  0  0  0  0  0  0  0  0  0
   53.4981    7.5170   13.3728 H   0  0  0  0  0  0  0  0  0  0  0  0
   51.6447   10.9296   13.0032 H   0  0  0  0  0  0  0  0  0  0  0  0
   51.1102    8.7462   10.8940 H   0  0  0  0  0  0  0  0  0  0  0  0
   46.6444   13.6850    9.6433 H   0  0  0  0  0  0  0  0  0  0  0  0
   44.3677   13.2032   10.4795 H   0  0  0  0  0  0  0  0  0  0  0  0
   43.9835   11.2214   11.9321 H   0  0  0  0  0  0  0  0  0  0  0  0
   45.8587    9.7560   12.5240 H   0  0  0  0  0  0  0  0  0  0  0  0
   47.9065    7.5383   10.8877 H   0  0  0  0  0  0  0  0  0  0  0  0
   47.6700    5.5223   12.3188 H   0  0  0  0  0  0  0  0  0  0  0  0
   48.5727    7.8509   15.7967 H   0  0  0  0  0  0  0  0  0  0  0  0
   48.8171    9.8834   14.3930 H   0  0  0  0  0  0  0  0  0  0  0  0
   51.8734   12.4315   10.4075 H   0  0  0  0  0  0  0  0  0  0  0  0
   52.8095   11.0737    8.5333 H   0  0  0  0  0  0  0  0  0  0  0  0
   51.1799   10.3664    8.1738 H   0  0  0  0  0  0  0  0  0  0  0  0
   51.8838   13.3848    8.1151 H   0  0  0  0  0  0  0  0  0  0  0  0
   50.2513   12.6654    7.7713 H   0  0  0  0  0  0  0  0  0  0  0  0
   57.2000    7.7171   11.0747 H   0  0  0  0  0  0  0  0  0  0  0  0
   56.5259    9.1735   10.3172 H   0  0  0  0  0  0  0  0  0  0  0  0
  2  1  1  0
  2  3  1  0
  3  4  1  0
  4  5  1  0
  4  6  1  0
  6  7  2  0
  7  8  1  0
  8  9  2  0
  9 10  1  0
 10 11  2  0
 11 12  1  0
 12 13  2  0
 13 14  1  0
 14 15  2  0
 15 16  1  0
 11 16  1  0
 16 17  2  0
  8 17  1  0
 17 18  1  0
 18 19  2  0
 19 20  1  0
 20 21  2  0
 21 22  1  0
 21 23  1  0
 23 24  2  0
 18 24  1  0
  9 25  1  0
 25 26  1  0
 26 27  1  0
 25 27  1  0
  2 28  1  0
 28 29  1  0
 29 30  2  0
 29 31  1  0
 34 33  1  0
 34 35  1  0
 35 36  1  0
 36 37  1  0
 36 38  1  0
 38 39  2  0
 39 40  1  0
 40 41  2  0
 41 42  1  0
 42 43  2  0
 43 44  1  0
 44 45  2  0
 45 46  1  0
 46 47  2  0
 47 48  1  0
 43 48  1  0
 48 49  2  0
 40 49  1  0
 49 50  1  0
 50 51  2  0
 51 52  1  0
 52 53  2  0
 53 54  1  0
 53 55  1  0
 55 56  2  0
 50 56  1  0
 41 57  1  0
 57 58  1  0
 58 59  1  0
 57 59  1  0
 34 60  1  0
 60 61  1  0
 61 62  2  0
 61 63  1  0
  1 64  1  0
  2 65  1  6
  3 66  1  0
  3 67  1  0
  4 68  1  6
  5 69  1  0
  6 70  1  0
  7 71  1  0
 12 72  1  0
 13 73  1  0
 14 74  1  0
 15 75  1  0
 19 76  1  0
 20 77  1  0
 23 78  1  0
 24 79  1  0
 25 80  1  0
 26 81  1  0
 26 82  1  0
 27 83  1  0
 27 84  1  0
 28 85  1  0
 28 86  1  0
 33 87  1  0
 34 88  1  6
 35 89  1  0
 35 90  1  0
 36 91  1  6
 37 92  1  0
 38 93  1  0
 39 94  1  0
 44 95  1  0
 45 96  1  0
 46 97  1  0
 47 98  1  0
 51 99  1  0
 52100  1  0
 55101  1  0
 56102  1  0
 57103  1  0
 58104  1  0
 58105  1  0
 59106  1  0
 59107  1  0
 60108  1  0
 60109  1  0
M  CHG  3  31  -1  32   2  63  -1
M  END
> <Uni-Dock RESULT> 
ENERGY=   -6.654  LOWER_BOUND=    5.324  UPPER_BOUND=    8.543
INTER + INTRA:          -6.654
INTER:                  -6.654
INTRA:                   0.000
UNBOUND:                 0.000

$$$$
