
     RDKit          3D

109114  0  0  0  0  0  0  0  0999 V2000
   48.3885    9.1684   13.2596 O   0  0  0  0  0  0  0  0  0  0  0  0
   49.7285    9.4525   13.6630 C   0  0  2  0  0  0  0  0  0  0  0  0
   49.8602    9.4439   15.1957 C   0  0  0  0  0  0  0  0  0  0  0  0
   48.7040   10.0384   16.0082 C   0  0  2  0  0  0  0  0  0  0  0  0
   48.7564   11.4554   16.0396 O   0  0  0  0  0  0  0  0  0  0  0  0
   48.8395    9.6192   17.4464 C   0  0  0  0  0  0  0  0  0  0  0  0
   47.8946    8.9580   18.1321 C   0  0  0  0  0  0  0  0  0  0  0  0
   48.0514    8.5812   19.5488 C   0  0  0  0  0  0  0  0  0  0  0  0
   48.0374    9.5578   20.5603 C   0  0  0  0  0  0  0  0  0  0  0  0
   48.1690    9.2158   21.8701 N   0  0  0  0  0  0  0  0  0  0  0  0
   48.3207    7.9340   22.2219 C   0  0  0  0  0  0  0  0  0  0  0  0
   48.4604    7.6513   23.5741 C   0  0  0  0  0  0  0  0  0  0  0  0
   48.6189    6.3476   24.0441 C   0  0  0  0  0  0  0  0  0  0  0  0
   48.6453    5.2961   23.1410 C   0  0  0  0  0  0  0  0  0  0  0  0
   48.5166    5.5578   21.7768 C   0  0  0  0  0  0  0  0  0  0  0  0
   48.3456    6.8812   21.2903 C   0  0  0  0  0  0  0  0  0  0  0  0
   48.1975    7.2211   19.9156 C   0  0  0  0  0  0  0  0  0  0  0  0
   48.2139    6.1651   18.8844 C   0  0  0  0  0  0  0  0  0  0  0  0
   47.0511    5.4318   18.5965 C   0  0  0  0  0  0  0  0  0  0  0  0
   47.0712    4.4251   17.6306 C   0  0  0  0  0  0  0  0  0  0  0  0
   48.2473    4.1591   16.9394 C   0  0  0  0  0  0  0  0  0  0  0  0
   48.2621    3.1919   16.0133 F   0  0  0  0  0  0  0  0  0  0  0  0
   49.4078    4.8722   17.2056 C   0  0  0  0  0  0  0  0  0  0  0  0
   49.3937    5.8740   18.1768 C   0  0  0  0  0  0  0  0  0  0  0  0
   47.8929   11.0441   20.2661 C   0  0  0  0  0  0  0  0  0  0  0  0
   46.5584   11.6011   19.8223 C   0  0  0  0  0  0  0  0  0  0  0  0
   47.0843   11.9383   21.1828 C   0  0  0  0  0  0  0  0  0  0  0  0
   50.2884   10.6688   12.9330 C   0  0  0  0  0  0  0  0  0  0  0  0
   49.4812   11.9558   13.0107 C   0  0  0  0  0  0  0  0  0  0  0  0
   50.0422   12.9823   12.5495 O   0  0  0  0  0  0  0  0  0  0  0  0
   48.3321   11.8273   13.5359 O   0  0  0  0  0  0  0  0  0  0  0  0
   48.5003    8.5243   18.1671 Ca  0  0  0  0  0 15  0  0  0  0  0  0
   49.4469   12.0181   13.8657 O   0  0  0  0  0  0  0  0  0  0  0  0
   49.0816   10.6278   13.8907 C   0  0  2  0  0  0  0  0  0  0  0  0
   48.8750   10.2479   15.3619 C   0  0  0  0  0  0  0  0  0  0  0  0
   48.4105    8.8028   15.5981 C   0  0  2  0  0  0  0  0  0  0  0  0
   47.2463    8.5225   14.8218 O   0  0  0  0  0  0  0  0  0  0  0  0
   48.0267    8.5030   17.0245 C   0  0  0  0  0  0  0  0  0  0  0  0
   48.6316    8.9823   18.1232 C   0  0  0  0  0  0  0  0  0  0  0  0
   48.1995    8.7174   19.5124 C   0  0  0  0  0  0  0  0  0  0  0  0
   47.9246    9.8269   20.3368 C   0  0  0  0  0  0  0  0  0  0  0  0
   47.5288    9.6754   21.6266 N   0  0  0  0  0  0  0  0  0  0  0  0
   47.4235    8.4507   22.1487 C   0  0  0  0  0  0  0  0  0  0  0  0
   47.0242    8.3550   23.4745 C   0  0  0  0  0  0  0  0  0  0  0  0
   46.8960    7.1263   24.1229 C   0  0  0  0  0  0  0  0  0  0  0  0
   47.1767    5.9604   23.4329 C   0  0  0  0  0  0  0  0  0  0  0  0
   47.5798    6.0356   22.0988 C   0  0  0  0  0  0  0  0  0  0  0  0
   47.7050    7.2775   21.4233 C   0  0  0  0  0  0  0  0  0  0  0  0
   48.0979    7.4169   20.0615 C   0  0  0  0  0  0  0  0  0  0  0  0
   48.3932    6.2146   19.2480 C   0  0  0  0  0  0  0  0  0  0  0  0
   47.3488    5.3829   18.7977 C   0  0  0  0  0  0  0  0  0  0  0  0
   47.6200    4.2430   18.0378 C   0  0  0  0  0  0  0  0  0  0  0  0
   48.9339    3.9354   17.7129 C   0  0  0  0  0  0  0  0  0  0  0  0
   49.1959    2.8441   16.9787 F   0  0  0  0  0  0  0  0  0  0  0  0
   49.9817    4.7425   18.1356 C   0  0  0  0  0  0  0  0  0  0  0  0
   49.7125    5.8773   18.9049 C   0  0  0  0  0  0  0  0  0  0  0  0
   48.0410   11.2580   19.8240 C   0  0  0  0  0  0  0  0  0  0  0  0
   49.3842   11.9588   19.8830 C   0  0  0  0  0  0  0  0  0  0  0  0
   48.2692   12.4115   20.7731 C   0  0  0  0  0  0  0  0  0  0  0  0
   50.1838    9.8192   13.2154 C   0  0  0  0  0  0  0  0  0  0  0  0
   50.0205   10.0457   11.7154 C   0  0  0  0  0  0  0  0  0  0  0  0
   50.0385   11.2605   11.3582 O   0  0  0  0  0  0  0  0  0  0  0  0
   49.8640    8.9920   11.0343 O   0  0  0  0  0  0  0  0  0  0  0  0
   47.9426   10.0548   13.2756 H   0  0  0  0  0  0  0  0  0  0  0  0
   50.3291    8.6065   13.3110 H   0  0  0  0  0  0  0  0  0  0  0  0
   49.9432    8.3837   15.4833 H   0  0  0  0  0  0  0  0  0  0  0  0
   50.8062    9.9237   15.4757 H   0  0  0  0  0  0  0  0  0  0  0  0
   47.7282    9.7349   15.6174 H   0  0  0  0  0  0  0  0  0  0  0  0
   48.4795   11.7504   15.1325 H   0  0  0  0  0  0  0  0  0  0  0  0
   49.7663    9.9122   17.9315 H   0  0  0  0  0  0  0  0  0  0  0  0
   46.9641    8.6724   17.6533 H   0  0  0  0  0  0  0  0  0  0  0  0
   48.4441    8.4762   24.2829 H   0  0  0  0  0  0  0  0  0  0  0  0
   48.7337    6.1644   25.1100 H   0  0  0  0  0  0  0  0  0  0  0  0
   48.7756    4.2751   23.4897 H   0  0  0  0  0  0  0  0  0  0  0  0
   48.5494    4.7148   21.0881 H   0  0  0  0  0  0  0  0  0  0  0  0
   46.1270    5.6450   19.1287 H   0  0  0  0  0  0  0  0  0  0  0  0
   46.1765    3.8546   17.4074 H   0  0  0  0  0  0  0  0  0  0  0  0
   50.3157    4.6477   16.6571 H   0  0  0  0  0  0  0  0  0  0  0  0
   50.3023    6.4387   18.3751 H   0  0  0  0  0  0  0  0  0  0  0  0
   48.7772   11.5111   19.8354 H   0  0  0  0  0  0  0  0  0  0  0  0
   45.7117   10.9270   19.7522 H   0  0  0  0  0  0  0  0  0  0  0  0
   46.5820   12.3605   19.0468 H   0  0  0  0  0  0  0  0  0  0  0  0
   47.4423   12.9493   21.3476 H   0  0  0  0  0  0  0  0  0  0  0  0
   46.5927   11.4997   22.0440 H   0  0  0  0  0  0  0  0  0  0  0  0
   51.3120   10.8706   13.2815 H   0  0  0  0  0  0  0  0  0  0  0  0
   50.3545   10.4236   11.8642 H   0  0  0  0  0  0  0  0  0  0  0  0
   49.6912   12.1791   12.9193 H   0  0  0  0  0  0  0  0  0  0  0  0
   48.1338   10.5421   13.3482 H   0  0  0  0  0  0  0  0  0  0  0  0
   48.1304   10.9417   15.7809 H   0  0  0  0  0  0  0  0  0  0  0  0
   49.8016   10.4511   15.9156 H   0  0  0  0  0  0  0  0  0  0  0  0
   49.1873    8.0884   15.3109 H   0  0  0  0  0  0  0  0  0  0  0  0
   47.5366    8.4450   13.8935 H   0  0  0  0  0  0  0  0  0  0  0  0
   47.1737    7.8357   17.1350 H   0  0  0  0  0  0  0  0  0  0  0  0
   49.4764    9.6553   18.0286 H   0  0  0  0  0  0  0  0  0  0  0  0
   46.7998    9.2699   24.0188 H   0  0  0  0  0  0  0  0  0  0  0  0
   46.5717    7.0885   25.1608 H   0  0  0  0  0  0  0  0  0  0  0  0
   47.0971    4.9946   23.9229 H   0  0  0  0  0  0  0  0  0  0  0  0
   47.8079    5.1029   21.5882 H   0  0  0  0  0  0  0  0  0  0  0  0
   46.3133    5.6246   19.0329 H   0  0  0  0  0  0  0  0  0  0  0  0
   46.8175    3.6074   17.6775 H   0  0  0  0  0  0  0  0  0  0  0  0
   50.9991    4.4954   17.8498 H   0  0  0  0  0  0  0  0  0  0  0  0
   50.5366    6.5052   19.2306 H   0  0  0  0  0  0  0  0  0  0  0  0
   47.4171   11.4821   18.9606 H   0  0  0  0  0  0  0  0  0  0  0  0
   50.2108   11.4363   20.3473 H   0  0  0  0  0  0  0  0  0  0  0  0
   49.6626   12.5861   19.0411 H   0  0  0  0  0  0  0  0  0  0  0  0
   48.3378   12.1975   21.8341 H   0  0  0  0  0  0  0  0  0  0  0  0
   47.7722   13.3451   20.5446 H   0  0  0  0  0  0  0  0  0  0  0  0
   51.1781   10.1597   13.5226 H   0  0  0  0  0  0  0  0  0  0  0  0
   50.1029    8.7474   13.4183 H   0  0  0  0  0  0  0  0  0  0  0  0
  2  1  1  0
  2  3  1  0
  3  4  1  0
  4  5  1  0
  4  6  1  0
  6  7  2  0
  7  8  1  0
  8  9  2  0
  9 10  1  0
 10 11  2  0
 11 12  1  0
 12 13  2  0
 13 14  1  0
 14 15  2  0
 15 16  1  0
 11 16  1  0
 16 17  2  0
  8 17  1  0
 17 18  1  0
 18 19  2  0
 19 20  1  0
 20 21  2  0
 21 22  1  0
 21 23  1  0
 23 24  2  0
 18 24  1  0
  9 25  1  0
 25 26  1  0
 26 27  1  0
 25 27  1  0
  2 28  1  0
 28 29  1  0
 29 30  2  0
 29 31  1  0
 34 33  1  0
 34 35  1  0
 35 36  1  0
 36 37  1  0
 36 38  1  0
 38 39  2  0
 39 40  1  0
 40 41  2  0
 41 42  1  0
 42 43  2  0
 43 44  1  0
 44 45  2  0
 45 46  1  0
 46 47  2  0
 47 48  1  0
 43 48  1  0
 48 49  2  0
 40 49  1  0
 49 50  1  0
 50 51  2  0
 51 52  1  0
 52 53  2  0
 53 54  1  0
 53 55  1  0
 55 56  2  0
 50 56  1  0
 41 57  1  0
 57 58  1  0
 58 59  1  0
 57 59  1  0
 34 60  1  0
 60 61  1  0
 61 62  2  0
 61 63  1  0
  1 64  1  0
  2 65  1  1
  3 66  1  0
  3 67  1  0
  4 68  1  6
  5 69  1  0
  6 70  1  0
  7 71  1  0
 12 72  1  0
 13 73  1  0
 14 74  1  0
 15 75  1  0
 19 76  1  0
 20 77  1  0
 23 78  1  0
 24 79  1  0
 25 80  1  0
 26 81  1  0
 26 82  1  0
 27 83  1  0
 27 84  1  0
 28 85  1  0
 28 86  1  0
 33 87  1  0
 34 88  1  6
 35 89  1  0
 35 90  1  0
 36 91  1  1
 37 92  1  0
 38 93  1  0
 39 94  1  0
 44 95  1  0
 45 96  1  0
 46 97  1  0
 47 98  1  0
 51 99  1  0
 52100  1  0
 55101  1  0
 56102  1  0
 57103  1  0
 58104  1  0
 58105  1  0
 59106  1  0
 59107  1  0
 60108  1  0
 60109  1  0
M  CHG  3  31  -1  32   2  63  -1
M  END
> <Uni-Dock RESULT> 
ENERGY=   -8.743  LOWER_BOUND=    0.000  UPPER_BOUND=    0.000
INTER + INTRA:          -8.743
INTER:                  -8.743
INTRA:                   0.000
UNBOUND:                 0.000

$$$$

     RDKit          3D

109114  0  0  0  0  0  0  0  0999 V2000
   49.5305   10.6805   14.1303 O   0  0  0  0  0  0  0  0  0  0  0  0
   48.1968   10.2044   13.9471 C   0  0  2  0  0  0  0  0  0  0  0  0
   47.7620    9.3073   15.1187 C   0  0  0  0  0  0  0  0  0  0  0  0
   48.8100    8.3558   15.7077 C   0  0  2  0  0  0  0  0  0  0  0  0
   48.9706    7.1921   14.9128 O   0  0  0  0  0  0  0  0  0  0  0  0
   48.3273    7.8461   17.0380 C   0  0  0  0  0  0  0  0  0  0  0  0
   49.0033    7.9824   18.1889 C   0  0  0  0  0  0  0  0  0  0  0  0
   48.5108    7.4510   19.4729 C   0  0  0  0  0  0  0  0  0  0  0  0
   48.4724    6.0661   19.7127 C   0  0  0  0  0  0  0  0  0  0  0  0
   48.0309    5.5697   20.8995 N   0  0  0  0  0  0  0  0  0  0  0  0
   47.6171    6.3970   21.8660 C   0  0  0  0  0  0  0  0  0  0  0  0
   47.1685    5.8276   23.0503 C   0  0  0  0  0  0  0  0  0  0  0  0
   46.7210    6.6029   24.1201 C   0  0  0  0  0  0  0  0  0  0  0  0
   46.7144    7.9844   24.0047 C   0  0  0  0  0  0  0  0  0  0  0  0
   47.1515    8.5777   22.8202 C   0  0  0  0  0  0  0  0  0  0  0  0
   47.6173    7.7963   21.7294 C   0  0  0  0  0  0  0  0  0  0  0  0
   48.0874    8.3328   20.4971 C   0  0  0  0  0  0  0  0  0  0  0  0
   48.1152    9.7935   20.2865 C   0  0  0  0  0  0  0  0  0  0  0  0
   49.1854   10.5632   20.7711 C   0  0  0  0  0  0  0  0  0  0  0  0
   49.2043   11.9456   20.5826 C   0  0  0  0  0  0  0  0  0  0  0  0
   48.1632   12.5600   19.8967 C   0  0  0  0  0  0  0  0  0  0  0  0
   48.1853   13.8871   19.7182 F   0  0  0  0  0  0  0  0  0  0  0  0
   47.0965   11.8194   19.4072 C   0  0  0  0  0  0  0  0  0  0  0  0
   47.0700   10.4379   19.6011 C   0  0  0  0  0  0  0  0  0  0  0  0
   48.8992    5.0396   18.6731 C   0  0  0  0  0  0  0  0  0  0  0  0
   50.3648    4.8599   18.3447 C   0  0  0  0  0  0  0  0  0  0  0  0
   49.6359    3.7823   19.0856 C   0  0  0  0  0  0  0  0  0  0  0  0
   47.9875    9.6482   12.5426 C   0  0  0  0  0  0  0  0  0  0  0  0
   48.9508    8.5679   12.0744 C   0  0  0  0  0  0  0  0  0  0  0  0
   48.6576    8.0067   10.9880 O   0  0  0  0  0  0  0  0  0  0  0  0
   49.9383    8.3699   12.8480 O   0  0  0  0  0  0  0  0  0  0  0  0
   48.3435    8.3082   18.3106 Ca  0  0  0  0  0 15  0  0  0  0  0  0
   48.8228    8.0140   12.7169 O   0  0  0  0  0  0  0  0  0  0  0  0
   48.9578    9.1249   13.6195 C   0  0  2  0  0  0  0  0  0  0  0  0
   48.8057    8.5663   15.0395 C   0  0  0  0  0  0  0  0  0  0  0  0
   48.9862    9.5976   16.1635 C   0  0  2  0  0  0  0  0  0  0  0  0
   50.2248   10.2893   16.0084 O   0  0  0  0  0  0  0  0  0  0  0  0
   49.0267    9.0019   17.5474 C   0  0  0  0  0  0  0  0  0  0  0  0
   48.2955    7.9632   17.9826 C   0  0  0  0  0  0  0  0  0  0  0  0
   48.3956    7.3615   19.3296 C   0  0  0  0  0  0  0  0  0  0  0  0
   48.6675    5.9812   19.4130 C   0  0  0  0  0  0  0  0  0  0  0  0
   48.7697    5.3461   20.6086 N   0  0  0  0  0  0  0  0  0  0  0  0
   48.5793    6.0286   21.7407 C   0  0  0  0  0  0  0  0  0  0  0  0
   48.6864    5.3273   22.9335 C   0  0  0  0  0  0  0  0  0  0  0  0
   48.4922    5.9387   24.1726 C   0  0  0  0  0  0  0  0  0  0  0  0
   48.1793    7.2855   24.2250 C   0  0  0  0  0  0  0  0  0  0  0  0
   48.0671    8.0082   23.0363 C   0  0  0  0  0  0  0  0  0  0  0  0
   48.2716    7.4020   21.7693 C   0  0  0  0  0  0  0  0  0  0  0  0
   48.1847    8.0892   20.5250 C   0  0  0  0  0  0  0  0  0  0  0  0
   47.8767    9.5381   20.4978 C   0  0  0  0  0  0  0  0  0  0  0  0
   48.8496   10.4823   20.8815 C   0  0  0  0  0  0  0  0  0  0  0  0
   48.5639   11.8492   20.8668 C   0  0  0  0  0  0  0  0  0  0  0  0
   47.3100   12.2804   20.4566 C   0  0  0  0  0  0  0  0  0  0  0  0
   47.0354   13.5930   20.4368 F   0  0  0  0  0  0  0  0  0  0  0  0
   46.3355   11.3723   20.0645 C   0  0  0  0  0  0  0  0  0  0  0  0
   46.6167   10.0040   20.0889 C   0  0  0  0  0  0  0  0  0  0  0  0
   48.8770    5.1263   18.1680 C   0  0  0  0  0  0  0  0  0  0  0  0
   47.6728    4.5165   17.4773 C   0  0  0  0  0  0  0  0  0  0  0  0
   48.6437    3.6336   18.1972 C   0  0  0  0  0  0  0  0  0  0  0  0
   47.9019   10.1689   13.2734 C   0  0  0  0  0  0  0  0  0  0  0  0
   48.3942   10.8708   12.0113 C   0  0  0  0  0  0  0  0  0  0  0  0
   48.6347   10.0998   11.0359 O   0  0  0  0  0  0  0  0  0  0  0  0
   48.5199   12.1245   12.1170 O   0  0  0  0  0  0  0  0  0  0  0  0
   50.0950    9.9578   13.7507 H   0  0  0  0  0  0  0  0  0  0  0  0
   47.5560   11.0913   14.0016 H   0  0  0  0  0  0  0  0  0  0  0  0
   47.4615    9.9938   15.9261 H   0  0  0  0  0  0  0  0  0  0  0  0
   46.8643    8.7484   14.8267 H   0  0  0  0  0  0  0  0  0  0  0  0
   49.7858    8.8378   15.8201 H   0  0  0  0  0  0  0  0  0  0  0  0
   49.4650    7.4902   14.1046 H   0  0  0  0  0  0  0  0  0  0  0  0
   47.3785    7.3175   17.0177 H   0  0  0  0  0  0  0  0  0  0  0  0
   49.9556    8.5016   18.2109 H   0  0  0  0  0  0  0  0  0  0  0  0
   47.1694    4.7436   23.1400 H   0  0  0  0  0  0  0  0  0  0  0  0
   46.3689    6.1220   25.0298 H   0  0  0  0  0  0  0  0  0  0  0  0
   46.3619    8.6030   24.8257 H   0  0  0  0  0  0  0  0  0  0  0  0
   47.1278    9.6644   22.7524 H   0  0  0  0  0  0  0  0  0  0  0  0
   50.0061   10.0835   21.2992 H   0  0  0  0  0  0  0  0  0  0  0  0
   50.0271   12.5439   20.9578 H   0  0  0  0  0  0  0  0  0  0  0  0
   46.2930   12.3179   18.8769 H   0  0  0  0  0  0  0  0  0  0  0  0
   46.2378    9.8587   19.2062 H   0  0  0  0  0  0  0  0  0  0  0  0
   48.2010    4.9102   17.8476 H   0  0  0  0  0  0  0  0  0  0  0  0
   51.0946    5.4515   18.8867 H   0  0  0  0  0  0  0  0  0  0  0  0
   50.6134    4.7032   17.2997 H   0  0  0  0  0  0  0  0  0  0  0  0
   49.4119    2.8661   18.5492 H   0  0  0  0  0  0  0  0  0  0  0  0
   49.8724    3.6325   20.1331 H   0  0  0  0  0  0  0  0  0  0  0  0
   46.9583    9.2730   12.4428 H   0  0  0  0  0  0  0  0  0  0  0  0
   48.0993   10.4757   11.8286 H   0  0  0  0  0  0  0  0  0  0  0  0
   48.8001    8.4400   11.8229 H   0  0  0  0  0  0  0  0  0  0  0  0
   49.9702    9.5201   13.4823 H   0  0  0  0  0  0  0  0  0  0  0  0
   49.5491    7.7637   15.1602 H   0  0  0  0  0  0  0  0  0  0  0  0
   47.8296    8.0697   15.1240 H   0  0  0  0  0  0  0  0  0  0  0  0
   48.1821   10.3389   16.1495 H   0  0  0  0  0  0  0  0  0  0  0  0
   50.1173   10.8970   15.2527 H   0  0  0  0  0  0  0  0  0  0  0  0
   49.7277    9.4815   18.2284 H   0  0  0  0  0  0  0  0  0  0  0  0
   47.6003    7.4697   17.3128 H   0  0  0  0  0  0  0  0  0  0  0  0
   48.9353    4.2688   22.8957 H   0  0  0  0  0  0  0  0  0  0  0  0
   48.5930    5.3598   25.0882 H   0  0  0  0  0  0  0  0  0  0  0  0
   48.0102    7.7774   25.1782 H   0  0  0  0  0  0  0  0  0  0  0  0
   47.8052    9.0611   23.1098 H   0  0  0  0  0  0  0  0  0  0  0  0
   49.8419   10.1552   21.1889 H   0  0  0  0  0  0  0  0  0  0  0  0
   49.3148   12.5802   21.1485 H   0  0  0  0  0  0  0  0  0  0  0  0
   45.3700   11.7336   19.7252 H   0  0  0  0  0  0  0  0  0  0  0  0
   45.8505    9.2993   19.7791 H   0  0  0  0  0  0  0  0  0  0  0  0
   49.6875    5.4582   17.5216 H   0  0  0  0  0  0  0  0  0  0  0  0
   46.7000    4.6596   17.9299 H   0  0  0  0  0  0  0  0  0  0  0  0
   47.6679    4.5040   16.3911 H   0  0  0  0  0  0  0  0  0  0  0  0
   48.3327    3.1809   19.1324 H   0  0  0  0  0  0  0  0  0  0  0  0
   49.3136    3.0173   17.6124 H   0  0  0  0  0  0  0  0  0  0  0  0
   46.9306    9.7061   13.0698 H   0  0  0  0  0  0  0  0  0  0  0  0
   47.7751   10.9157   14.0623 H   0  0  0  0  0  0  0  0  0  0  0  0
  2  1  1  0
  2  3  1  0
  3  4  1  0
  4  5  1  0
  4  6  1  0
  6  7  2  0
  7  8  1  0
  8  9  2  0
  9 10  1  0
 10 11  2  0
 11 12  1  0
 12 13  2  0
 13 14  1  0
 14 15  2  0
 15 16  1  0
 11 16  1  0
 16 17  2  0
  8 17  1  0
 17 18  1  0
 18 19  2  0
 19 20  1  0
 20 21  2  0
 21 22  1  0
 21 23  1  0
 23 24  2  0
 18 24  1  0
  9 25  1  0
 25 26  1  0
 26 27  1  0
 25 27  1  0
  2 28  1  0
 28 29  1  0
 29 30  2  0
 29 31  1  0
 34 33  1  0
 34 35  1  0
 35 36  1  0
 36 37  1  0
 36 38  1  0
 38 39  2  0
 39 40  1  0
 40 41  2  0
 41 42  1  0
 42 43  2  0
 43 44  1  0
 44 45  2  0
 45 46  1  0
 46 47  2  0
 47 48  1  0
 43 48  1  0
 48 49  2  0
 40 49  1  0
 49 50  1  0
 50 51  2  0
 51 52  1  0
 52 53  2  0
 53 54  1  0
 53 55  1  0
 55 56  2  0
 50 56  1  0
 41 57  1  0
 57 58  1  0
 58 59  1  0
 57 59  1  0
 34 60  1  0
 60 61  1  0
 61 62  2  0
 61 63  1  0
  1 64  1  0
  2 65  1  1
  3 66  1  0
  3 67  1  0
  4 68  1  6
  5 69  1  0
  6 70  1  0
  7 71  1  0
 12 72  1  0
 13 73  1  0
 14 74  1  0
 15 75  1  0
 19 76  1  0
 20 77  1  0
 23 78  1  0
 24 79  1  0
 25 80  1  0
 26 81  1  0
 26 82  1  0
 27 83  1  0
 27 84  1  0
 28 85  1  0
 28 86  1  0
 33 87  1  0
 34 88  1  6
 35 89  1  0
 35 90  1  0
 36 91  1  1
 37 92  1  0
 38 93  1  0
 39 94  1  0
 44 95  1  0
 45 96  1  0
 46 97  1  0
 47 98  1  0
 51 99  1  0
 52100  1  0
 55101  1  0
 56102  1  0
 57103  1  0
 58104  1  0
 58105  1  0
 59106  1  0
 59107  1  0
 60108  1  0
 60109  1  0
M  CHG  3  31  -1  32   2  63  -1
M  END
> <Uni-Dock RESULT> 
ENERGY=   -7.876  LOWER_BOUND=    2.383  UPPER_BOUND=    4.887
INTER + INTRA:          -7.876
INTER:                  -7.876
INTRA:                   0.000
UNBOUND:                 0.000

$$$$

     RDKit          3D

109114  0  0  0  0  0  0  0  0999 V2000
   52.4686    9.7484   17.4975 O   0  0  0  0  0  0  0  0  0  0  0  0
   53.2403    8.7246   16.8688 C   0  0  2  0  0  0  0  0  0  0  0  0
   52.3329    7.6721   16.2089 C   0  0  0  0  0  0  0  0  0  0  0  0
   51.0510    7.2777   16.9517 C   0  0  2  0  0  0  0  0  0  0  0  0
   51.3110    6.3567   17.9985 O   0  0  0  0  0  0  0  0  0  0  0  0
   50.1382    6.5396   16.0112 C   0  0  0  0  0  0  0  0  0  0  0  0
   48.8805    6.9138   15.7310 C   0  0  0  0  0  0  0  0  0  0  0  0
   48.0047    6.1541   14.8203 C   0  0  0  0  0  0  0  0  0  0  0  0
   47.4993    4.8951   15.1896 C   0  0  0  0  0  0  0  0  0  0  0  0
   46.6808    4.1945   14.3594 N   0  0  0  0  0  0  0  0  0  0  0  0
   46.3435    4.6927   13.1645 C   0  0  0  0  0  0  0  0  0  0  0  0
   45.5134    3.9243   12.3594 C   0  0  0  0  0  0  0  0  0  0  0  0
   45.1001    4.3559   11.0990 C   0  0  0  0  0  0  0  0  0  0  0  0
   45.5309    5.5851   10.6245 C   0  0  0  0  0  0  0  0  0  0  0  0
   46.3735    6.3696   11.4124 C   0  0  0  0  0  0  0  0  0  0  0  0
   46.7917    5.9420   12.7006 C   0  0  0  0  0  0  0  0  0  0  0  0
   47.6402    6.6934   13.5626 C   0  0  0  0  0  0  0  0  0  0  0  0
   48.1467    8.0134   13.1386 C   0  0  0  0  0  0  0  0  0  0  0  0
   47.3534    9.1628   13.2875 C   0  0  0  0  0  0  0  0  0  0  0  0
   47.8283   10.4081   12.8746 C   0  0  0  0  0  0  0  0  0  0  0  0
   49.1016   10.5109   12.3269 C   0  0  0  0  0  0  0  0  0  0  0  0
   49.5534   11.7080   11.9317 F   0  0  0  0  0  0  0  0  0  0  0  0
   49.9040    9.3893   12.1720 C   0  0  0  0  0  0  0  0  0  0  0  0
   49.4292    8.1410   12.5761 C   0  0  0  0  0  0  0  0  0  0  0  0
   47.8391    4.2295   16.5156 C   0  0  0  0  0  0  0  0  0  0  0  0
   47.2415    4.7563   17.8015 C   0  0  0  0  0  0  0  0  0  0  0  0
   46.7962    3.4299   17.2686 C   0  0  0  0  0  0  0  0  0  0  0  0
   54.3380    8.2034   17.7902 C   0  0  0  0  0  0  0  0  0  0  0  0
   53.9122    7.7076   19.1639 C   0  0  0  0  0  0  0  0  0  0  0  0
   54.8025    7.1281   19.8367 O   0  0  0  0  0  0  0  0  0  0  0  0
   52.7001    7.9457   19.4587 O   0  0  0  0  0  0  0  0  0  0  0  0
   49.2298    6.8953   15.0723 Ca  0  0  0  0  0 15  0  0  0  0  0  0
   53.3382    7.1259   18.9029 O   0  0  0  0  0  0  0  0  0  0  0  0
   52.8154    8.1301   18.0167 C   0  0  2  0  0  0  0  0  0  0  0  0
   51.6356    7.4953   17.2706 C   0  0  0  0  0  0  0  0  0  0  0  0
   50.8922    8.4388   16.3132 C   0  0  2  0  0  0  0  0  0  0  0  0
   50.4946    9.6271   16.9963 O   0  0  0  0  0  0  0  0  0  0  0  0
   49.6249    7.8609   15.7370 C   0  0  0  0  0  0  0  0  0  0  0  0
   49.4335    6.5830   15.3722 C   0  0  0  0  0  0  0  0  0  0  0  0
   48.1610    6.0289   14.8620 C   0  0  0  0  0  0  0  0  0  0  0  0
   47.6084    4.9235   15.5395 C   0  0  0  0  0  0  0  0  0  0  0  0
   46.4469    4.3481   15.1354 N   0  0  0  0  0  0  0  0  0  0  0  0
   45.8187    4.8118   14.0520 C   0  0  0  0  0  0  0  0  0  0  0  0
   44.6407    4.1799   13.6788 C   0  0  0  0  0  0  0  0  0  0  0  0
   43.9122    4.5737   12.5559 C   0  0  0  0  0  0  0  0  0  0  0  0
   44.3715    5.6238   11.7809 C   0  0  0  0  0  0  0  0  0  0  0  0
   45.5542    6.2722   12.1396 C   0  0  0  0  0  0  0  0  0  0  0  0
   46.3004    5.8892   13.2846 C   0  0  0  0  0  0  0  0  0  0  0  0
   47.5047    6.5203   13.7084 C   0  0  0  0  0  0  0  0  0  0  0  0
   48.0494    7.6673   12.9451 C   0  0  0  0  0  0  0  0  0  0  0  0
   47.4327    8.9319   13.0194 C   0  0  0  0  0  0  0  0  0  0  0  0
   47.9351   10.0157   12.2960 C   0  0  0  0  0  0  0  0  0  0  0  0
   49.0631    9.8451   11.5054 C   0  0  0  0  0  0  0  0  0  0  0  0
   49.5502   10.8860   10.8141 F   0  0  0  0  0  0  0  0  0  0  0  0
   49.6962    8.6122   11.4210 C   0  0  0  0  0  0  0  0  0  0  0  0
   49.1882    7.5246   12.1359 C   0  0  0  0  0  0  0  0  0  0  0  0
   48.2739    4.3209   16.7718 C   0  0  0  0  0  0  0  0  0  0  0  0
   49.3445    3.2624   16.5921 C   0  0  0  0  0  0  0  0  0  0  0  0
   48.0180    2.8874   17.1754 C   0  0  0  0  0  0  0  0  0  0  0  0
   53.9311    8.5910   17.0855 C   0  0  0  0  0  0  0  0  0  0  0  0
   54.8310    9.5009   17.9162 C   0  0  0  0  0  0  0  0  0  0  0  0
   55.2854    8.9738   18.9742 O   0  0  0  0  0  0  0  0  0  0  0  0
   54.9815   10.6665   17.4497 O   0  0  0  0  0  0  0  0  0  0  0  0
   52.2809    9.3834   18.4011 H   0  0  0  0  0  0  0  0  0  0  0  0
   53.7686    9.2164   16.0446 H   0  0  0  0  0  0  0  0  0  0  0  0
   52.0249    8.1048   15.2438 H   0  0  0  0  0  0  0  0  0  0  0  0
   52.9286    6.7794   15.9808 H   0  0  0  0  0  0  0  0  0  0  0  0
   50.5360    8.1466   17.3726 H   0  0  0  0  0  0  0  0  0  0  0  0
   51.7509    6.8869   18.7139 H   0  0  0  0  0  0  0  0  0  0  0  0
   50.5536    5.6372   15.5716 H   0  0  0  0  0  0  0  0  0  0  0  0
   48.4596    7.8092   16.1758 H   0  0  0  0  0  0  0  0  0  0  0  0
   45.1784    2.9578   12.7292 H   0  0  0  0  0  0  0  0  0  0  0  0
   44.4559    3.7236   10.4923 H   0  0  0  0  0  0  0  0  0  0  0  0
   45.2245    5.9332    9.6416 H   0  0  0  0  0  0  0  0  0  0  0  0
   46.7044    7.3270   11.0124 H   0  0  0  0  0  0  0  0  0  0  0  0
   46.3607    9.0865   13.7251 H   0  0  0  0  0  0  0  0  0  0  0  0
   47.2178   11.2974   12.9849 H   0  0  0  0  0  0  0  0  0  0  0  0
   50.8934    9.4903   11.7403 H   0  0  0  0  0  0  0  0  0  0  0  0
   50.0652    7.2654   12.4636 H   0  0  0  0  0  0  0  0  0  0  0  0
   48.8521    3.8355   16.5809 H   0  0  0  0  0  0  0  0  0  0  0  0
   46.5485    5.5889   17.7492 H   0  0  0  0  0  0  0  0  0  0  0  0
   47.8958    4.7818   18.6673 H   0  0  0  0  0  0  0  0  0  0  0  0
   47.1247    2.5400   17.7954 H   0  0  0  0  0  0  0  0  0  0  0  0
   45.7957    3.3540   16.8576 H   0  0  0  0  0  0  0  0  0  0  0  0
   54.8985    7.4044   17.2829 H   0  0  0  0  0  0  0  0  0  0  0  0
   55.0443    9.0241   17.9763 H   0  0  0  0  0  0  0  0  0  0  0  0
   54.1648    7.5374   19.2614 H   0  0  0  0  0  0  0  0  0  0  0  0
   52.4575    8.9507   18.6479 H   0  0  0  0  0  0  0  0  0  0  0  0
   50.9314    7.1168   18.0271 H   0  0  0  0  0  0  0  0  0  0  0  0
   51.9907    6.6038   16.7361 H   0  0  0  0  0  0  0  0  0  0  0  0
   51.5304    8.7300   15.4740 H   0  0  0  0  0  0  0  0  0  0  0  0
   51.3027   10.1543   17.1414 H   0  0  0  0  0  0  0  0  0  0  0  0
   48.8103    8.5742   15.6242 H   0  0  0  0  0  0  0  0  0  0  0  0
   50.2326    5.8594   15.4875 H   0  0  0  0  0  0  0  0  0  0  0  0
   44.2754    3.3558   14.2879 H   0  0  0  0  0  0  0  0  0  0  0  0
   42.9877    4.0611   12.2982 H   0  0  0  0  0  0  0  0  0  0  0  0
   43.8273    5.9369   10.8948 H   0  0  0  0  0  0  0  0  0  0  0  0
   45.8971    7.0837   11.5021 H   0  0  0  0  0  0  0  0  0  0  0  0
   46.5571    9.0803   13.6498 H   0  0  0  0  0  0  0  0  0  0  0  0
   47.4711   10.9945   12.3611 H   0  0  0  0  0  0  0  0  0  0  0  0
   50.5905    8.5080   10.8150 H   0  0  0  0  0  0  0  0  0  0  0  0
   49.6894    6.5635   12.0669 H   0  0  0  0  0  0  0  0  0  0  0  0
   48.4176    5.0178   17.5956 H   0  0  0  0  0  0  0  0  0  0  0  0
   49.5605    2.9225   15.5874 H   0  0  0  0  0  0  0  0  0  0  0  0
   50.2076    3.3019   17.2505 H   0  0  0  0  0  0  0  0  0  0  0  0
   47.3377    2.2975   16.5708 H   0  0  0  0  0  0  0  0  0  0  0  0
   47.9607    2.6751   18.2347 H   0  0  0  0  0  0  0  0  0  0  0  0
   54.5207    7.7457   16.7153 H   0  0  0  0  0  0  0  0  0  0  0  0
   53.5558    9.1577   16.2285 H   0  0  0  0  0  0  0  0  0  0  0  0
  2  1  1  0
  2  3  1  0
  3  4  1  0
  4  5  1  0
  4  6  1  0
  6  7  2  0
  7  8  1  0
  8  9  2  0
  9 10  1  0
 10 11  2  0
 11 12  1  0
 12 13  2  0
 13 14  1  0
 14 15  2  0
 15 16  1  0
 11 16  1  0
 16 17  2  0
  8 17  1  0
 17 18  1  0
 18 19  2  0
 19 20  1  0
 20 21  2  0
 21 22  1  0
 21 23  1  0
 23 24  2  0
 18 24  1  0
  9 25  1  0
 25 26  1  0
 26 27  1  0
 25 27  1  0
  2 28  1  0
 28 29  1  0
 29 30  2  0
 29 31  1  0
 34 33  1  0
 34 35  1  0
 35 36  1  0
 36 37  1  0
 36 38  1  0
 38 39  2  0
 39 40  1  0
 40 41  2  0
 41 42  1  0
 42 43  2  0
 43 44  1  0
 44 45  2  0
 45 46  1  0
 46 47  2  0
 47 48  1  0
 43 48  1  0
 48 49  2  0
 40 49  1  0
 49 50  1  0
 50 51  2  0
 51 52  1  0
 52 53  2  0
 53 54  1  0
 53 55  1  0
 55 56  2  0
 50 56  1  0
 41 57  1  0
 57 58  1  0
 58 59  1  0
 57 59  1  0
 34 60  1  0
 60 61  1  0
 61 62  2  0
 61 63  1  0
  1 64  1  0
  2 65  1  1
  3 66  1  0
  3 67  1  0
  4 68  1  6
  5 69  1  0
  6 70  1  0
  7 71  1  0
 12 72  1  0
 13 73  1  0
 14 74  1  0
 15 75  1  0
 19 76  1  0
 20 77  1  0
 23 78  1  0
 24 79  1  0
 25 80  1  0
 26 81  1  0
 26 82  1  0
 27 83  1  0
 27 84  1  0
 28 85  1  0
 28 86  1  0
 33 87  1  0
 34 88  1  6
 35 89  1  0
 35 90  1  0
 36 91  1  1
 37 92  1  0
 38 93  1  0
 39 94  1  0
 44 95  1  0
 45 96  1  0
 46 97  1  0
 47 98  1  0
 51 99  1  0
 52100  1  0
 55101  1  0
 56102  1  0
 57103  1  0
 58104  1  0
 58105  1  0
 59106  1  0
 59107  1  0
 60108  1  0
 60109  1  0
M  CHG  3  31  -1  32   2  63  -1
M  END
> <Uni-Dock RESULT> 
ENERGY=   -7.732  LOWER_BOUND=    4.604  UPPER_BOUND=    7.946
INTER + INTRA:          -7.732
INTER:                  -7.732
INTRA:                   0.000
UNBOUND:                 0.000

$$$$

     RDKit          3D

109114  0  0  0  0  0  0  0  0999 V2000
   47.3191    6.2891   20.0027 O   0  0  0  0  0  0  0  0  0  0  0  0
   48.7373    6.1771   19.8783 C   0  0  2  0  0  0  0  0  0  0  0  0
   49.2890    7.2046   18.8751 C   0  0  0  0  0  0  0  0  0  0  0  0
   48.4583    7.4809   17.6165 C   0  0  2  0  0  0  0  0  0  0  0  0
   48.6349    6.4708   16.6366 O   0  0  0  0  0  0  0  0  0  0  0  0
   48.9533    8.7405   16.9603 C   0  0  0  0  0  0  0  0  0  0  0  0
   48.1850    9.8102   16.7039 C   0  0  0  0  0  0  0  0  0  0  0  0
   48.6979   11.0218   16.0387 C   0  0  0  0  0  0  0  0  0  0  0  0
   49.0472   11.0034   14.6769 C   0  0  0  0  0  0  0  0  0  0  0  0
   49.5092   12.1207   14.0540 N   0  0  0  0  0  0  0  0  0  0  0  0
   49.6457   13.2653   14.7330 C   0  0  0  0  0  0  0  0  0  0  0  0
   50.1322   14.3674   14.0426 C   0  0  0  0  0  0  0  0  0  0  0  0
   50.3063   15.6071   14.6580 C   0  0  0  0  0  0  0  0  0  0  0  0
   49.9929   15.7515   16.0006 C   0  0  0  0  0  0  0  0  0  0  0  0
   49.5119   14.6549   16.7164 C   0  0  0  0  0  0  0  0  0  0  0  0
   49.3228   13.3915   16.0955 C   0  0  0  0  0  0  0  0  0  0  0  0
   48.8268   12.2339   16.7598 C   0  0  0  0  0  0  0  0  0  0  0  0
   48.4678   12.2961   18.1902 C   0  0  0  0  0  0  0  0  0  0  0  0
   47.2140   12.7871   18.5897 C   0  0  0  0  0  0  0  0  0  0  0  0
   46.8807   12.8574   19.9428 C   0  0  0  0  0  0  0  0  0  0  0  0
   47.7918   12.4232   20.8985 C   0  0  0  0  0  0  0  0  0  0  0  0
   47.4678   12.4926   22.1960 F   0  0  0  0  0  0  0  0  0  0  0  0
   49.0356   11.9323   20.5270 C   0  0  0  0  0  0  0  0  0  0  0  0
   49.3756   11.8683   19.1752 C   0  0  0  0  0  0  0  0  0  0  0  0
   48.9505    9.7489   13.8203 C   0  0  0  0  0  0  0  0  0  0  0  0
   47.5964    9.2248   13.3965 C   0  0  0  0  0  0  0  0  0  0  0  0
   48.5063    9.8326   12.3747 C   0  0  0  0  0  0  0  0  0  0  0  0
   49.1710    4.7279   19.6848 C   0  0  0  0  0  0  0  0  0  0  0  0
   48.5271    3.9587   18.5412 C   0  0  0  0  0  0  0  0  0  0  0  0
   49.0209    2.8287   18.2954 O   0  0  0  0  0  0  0  0  0  0  0  0
   47.5630    4.5619   17.9761 O   0  0  0  0  0  0  0  0  0  0  0  0
   48.7383   10.0660   17.1336 Ca  0  0  0  0  0 15  0  0  0  0  0  0
   48.7374    4.4977   17.9078 O   0  0  0  0  0  0  0  0  0  0  0  0
   48.2793    5.5688   18.7505 C   0  0  2  0  0  0  0  0  0  0  0  0
   48.4595    6.8684   17.9567 C   0  0  0  0  0  0  0  0  0  0  0  0
   47.9606    8.1354   18.6677 C   0  0  2  0  0  0  0  0  0  0  0  0
   46.6072    7.9683   19.0885 O   0  0  0  0  0  0  0  0  0  0  0  0
   47.9654    9.3706   17.8038 C   0  0  0  0  0  0  0  0  0  0  0  0
   48.8898    9.6876   16.8831 C   0  0  0  0  0  0  0  0  0  0  0  0
   48.8409   10.8787   16.0083 C   0  0  0  0  0  0  0  0  0  0  0  0
   48.8994   10.6725   14.6153 C   0  0  0  0  0  0  0  0  0  0  0  0
   48.8670   11.7094   13.7396 N   0  0  0  0  0  0  0  0  0  0  0  0
   48.8098   12.9628   14.1973 C   0  0  0  0  0  0  0  0  0  0  0  0
   48.7886   13.9842   13.2579 C   0  0  0  0  0  0  0  0  0  0  0  0
   48.7443   15.3291   13.6265 C   0  0  0  0  0  0  0  0  0  0  0  0
   48.7240   15.6665   14.9682 C   0  0  0  0  0  0  0  0  0  0  0  0
   48.7447   14.6536   15.9283 C   0  0  0  0  0  0  0  0  0  0  0  0
   48.7798   13.2812   15.5682 C   0  0  0  0  0  0  0  0  0  0  0  0
   48.7883   12.2047   16.5005 C   0  0  0  0  0  0  0  0  0  0  0  0
   48.7446   12.4826   17.9549 C   0  0  0  0  0  0  0  0  0  0  0  0
   47.5508   12.9189   18.5630 C   0  0  0  0  0  0  0  0  0  0  0  0
   47.5041   13.1913   19.9319 C   0  0  0  0  0  0  0  0  0  0  0  0
   48.6454   13.0169   20.7023 C   0  0  0  0  0  0  0  0  0  0  0  0
   48.6011   13.2730   22.0180 F   0  0  0  0  0  0  0  0  0  0  0  0
   49.8327   12.5793   20.1308 C   0  0  0  0  0  0  0  0  0  0  0  0
   49.8835   12.3167   18.7595 C   0  0  0  0  0  0  0  0  0  0  0  0
   48.9870    9.2748   14.0125 C   0  0  0  0  0  0  0  0  0  0  0  0
   50.3471    8.6278   13.8375 C   0  0  0  0  0  0  0  0  0  0  0  0
   49.5654    9.0536   12.6341 C   0  0  0  0  0  0  0  0  0  0  0  0
   49.0788    5.5475   20.0486 C   0  0  0  0  0  0  0  0  0  0  0  0
   48.5240    4.3889   20.8719 C   0  0  0  0  0  0  0  0  0  0  0  0
   48.5428    3.2663   20.2863 O   0  0  0  0  0  0  0  0  0  0  0  0
   48.0971    4.7099   22.0179 O   0  0  0  0  0  0  0  0  0  0  0  0
   46.9706    5.7190   19.2689 H   0  0  0  0  0  0  0  0  0  0  0  0
   49.1436    6.4693   20.8528 H   0  0  0  0  0  0  0  0  0  0  0  0
   49.3604    8.1546   19.4280 H   0  0  0  0  0  0  0  0  0  0  0  0
   50.3121    6.9204   18.5990 H   0  0  0  0  0  0  0  0  0  0  0  0
   47.3905    7.5664   17.8395 H   0  0  0  0  0  0  0  0  0  0  0  0
   48.1420    5.6800   16.9803 H   0  0  0  0  0  0  0  0  0  0  0  0
   49.9995    8.7330   16.6679 H   0  0  0  0  0  0  0  0  0  0  0  0
   47.1376    9.8171   16.9862 H   0  0  0  0  0  0  0  0  0  0  0  0
   50.3824   14.2538   12.9903 H   0  0  0  0  0  0  0  0  0  0  0  0
   50.6976   16.4466   14.0878 H   0  0  0  0  0  0  0  0  0  0  0  0
   50.1297   16.7083   16.4973 H   0  0  0  0  0  0  0  0  0  0  0  0
   49.2816   14.7930   17.7718 H   0  0  0  0  0  0  0  0  0  0  0  0
   46.4956   13.1180   17.8433 H   0  0  0  0  0  0  0  0  0  0  0  0
   45.9151   13.2388   20.2556 H   0  0  0  0  0  0  0  0  0  0  0  0
   49.7330   11.6008   21.2879 H   0  0  0  0  0  0  0  0  0  0  0  0
   50.3472   11.4725   18.8868 H   0  0  0  0  0  0  0  0  0  0  0  0
   49.7158    9.0007   14.0206 H   0  0  0  0  0  0  0  0  0  0  0  0
   46.7107    9.7783   13.6887 H   0  0  0  0  0  0  0  0  0  0  0  0
   47.4663    8.1471   13.4094 H   0  0  0  0  0  0  0  0  0  0  0  0
   48.9787    9.1654   11.6613 H   0  0  0  0  0  0  0  0  0  0  0  0
   48.2391   10.7994   11.9631 H   0  0  0  0  0  0  0  0  0  0  0  0
   50.2642    4.6807   19.5728 H   0  0  0  0  0  0  0  0  0  0  0  0
   48.9164    4.1717   20.5974 H   0  0  0  0  0  0  0  0  0  0  0  0
   48.7212    3.7071   18.5043 H   0  0  0  0  0  0  0  0  0  0  0  0
   47.2143    5.3904   18.9344 H   0  0  0  0  0  0  0  0  0  0  0  0
   47.9212    6.7509   17.0039 H   0  0  0  0  0  0  0  0  0  0  0  0
   49.5171    6.9723   17.6791 H   0  0  0  0  0  0  0  0  0  0  0  0
   48.5646    8.3528   19.5532 H   0  0  0  0  0  0  0  0  0  0  0  0
   46.6203    7.3561   19.8481 H   0  0  0  0  0  0  0  0  0  0  0  0
   47.1245   10.0425   17.9668 H   0  0  0  0  0  0  0  0  0  0  0  0
   49.7277    9.0235   16.7033 H   0  0  0  0  0  0  0  0  0  0  0  0
   48.8015   13.7220   12.2021 H   0  0  0  0  0  0  0  0  0  0  0  0
   48.7197   16.1035   12.8626 H   0  0  0  0  0  0  0  0  0  0  0  0
   48.7040   16.7074   15.2767 H   0  0  0  0  0  0  0  0  0  0  0  0
   48.7434   14.9511   16.9743 H   0  0  0  0  0  0  0  0  0  0  0  0
   46.6455   13.0428   17.9705 H   0  0  0  0  0  0  0  0  0  0  0  0
   46.5832   13.5144   20.4064 H   0  0  0  0  0  0  0  0  0  0  0  0
   50.7062   12.4275   20.7567 H   0  0  0  0  0  0  0  0  0  0  0  0
   50.8150   11.9728   18.3193 H   0  0  0  0  0  0  0  0  0  0  0  0
   48.1684    8.6113   14.2857 H   0  0  0  0  0  0  0  0  0  0  0  0
   51.2237    9.2091   14.0928 H   0  0  0  0  0  0  0  0  0  0  0  0
   50.4312    7.5662   14.0517 H   0  0  0  0  0  0  0  0  0  0  0  0
   49.9085    9.9183   12.0765 H   0  0  0  0  0  0  0  0  0  0  0  0
   49.1039    8.2908   12.0212 H   0  0  0  0  0  0  0  0  0  0  0  0
   50.1441    5.3760   19.8619 H   0  0  0  0  0  0  0  0  0  0  0  0
   48.9688    6.4706   20.6249 H   0  0  0  0  0  0  0  0  0  0  0  0
  2  1  1  0
  2  3  1  0
  3  4  1  0
  4  5  1  0
  4  6  1  0
  6  7  2  0
  7  8  1  0
  8  9  2  0
  9 10  1  0
 10 11  2  0
 11 12  1  0
 12 13  2  0
 13 14  1  0
 14 15  2  0
 15 16  1  0
 11 16  1  0
 16 17  2  0
  8 17  1  0
 17 18  1  0
 18 19  2  0
 19 20  1  0
 20 21  2  0
 21 22  1  0
 21 23  1  0
 23 24  2  0
 18 24  1  0
  9 25  1  0
 25 26  1  0
 26 27  1  0
 25 27  1  0
  2 28  1  0
 28 29  1  0
 29 30  2  0
 29 31  1  0
 34 33  1  0
 34 35  1  0
 35 36  1  0
 36 37  1  0
 36 38  1  0
 38 39  2  0
 39 40  1  0
 40 41  2  0
 41 42  1  0
 42 43  2  0
 43 44  1  0
 44 45  2  0
 45 46  1  0
 46 47  2  0
 47 48  1  0
 43 48  1  0
 48 49  2  0
 40 49  1  0
 49 50  1  0
 50 51  2  0
 51 52  1  0
 52 53  2  0
 53 54  1  0
 53 55  1  0
 55 56  2  0
 50 56  1  0
 41 57  1  0
 57 58  1  0
 58 59  1  0
 57 59  1  0
 34 60  1  0
 60 61  1  0
 61 62  2  0
 61 63  1  0
  1 64  1  0
  2 65  1  1
  3 66  1  0
  3 67  1  0
  4 68  1  6
  5 69  1  0
  6 70  1  0
  7 71  1  0
 12 72  1  0
 13 73  1  0
 14 74  1  0
 15 75  1  0
 19 76  1  0
 20 77  1  0
 23 78  1  0
 24 79  1  0
 25 80  1  0
 26 81  1  0
 26 82  1  0
 27 83  1  0
 27 84  1  0
 28 85  1  0
 28 86  1  0
 33 87  1  0
 34 88  1  6
 35 89  1  0
 35 90  1  0
 36 91  1  1
 37 92  1  0
 38 93  1  0
 39 94  1  0
 44 95  1  0
 45 96  1  0
 46 97  1  0
 47 98  1  0
 51 99  1  0
 52100  1  0
 55101  1  0
 56102  1  0
 57103  1  0
 58104  1  0
 58105  1  0
 59106  1  0
 59107  1  0
 60108  1  0
 60109  1  0
M  CHG  3  31  -1  32   2  63  -1
M  END
> <Uni-Dock RESULT> 
ENERGY=   -6.859  LOWER_BOUND=    3.762  UPPER_BOUND=    8.314
INTER + INTRA:          -6.859
INTER:                  -6.859
INTRA:                   0.000
UNBOUND:                 0.000

$$$$

     RDKit          3D

109114  0  0  0  0  0  0  0  0999 V2000
   44.8100    6.8361   13.0282 O   0  0  0  0  0  0  0  0  0  0  0  0
   45.4901    5.5885   12.8870 C   0  0  2  0  0  0  0  0  0  0  0  0
   47.0133    5.7709   13.0009 C   0  0  0  0  0  0  0  0  0  0  0  0
   47.6259    7.0211   12.3588 C   0  0  2  0  0  0  0  0  0  0  0  0
   47.7766    6.8728   10.9564 O   0  0  0  0  0  0  0  0  0  0  0  0
   49.0258    7.2105   12.8756 C   0  0  0  0  0  0  0  0  0  0  0  0
   49.4588    8.3204   13.4928 C   0  0  0  0  0  0  0  0  0  0  0  0
   50.8451    8.4816   13.9678 C   0  0  0  0  0  0  0  0  0  0  0  0
   51.9065    8.6288   13.0575 C   0  0  0  0  0  0  0  0  0  0  0  0
   53.1861    8.7904   13.4892 N   0  0  0  0  0  0  0  0  0  0  0  0
   53.4605    8.8071   14.7984 C   0  0  0  0  0  0  0  0  0  0  0  0
   54.7878    8.9651   15.1745 C   0  0  0  0  0  0  0  0  0  0  0  0
   55.1774    9.0006   16.5134 C   0  0  0  0  0  0  0  0  0  0  0  0
   54.2186    8.8688   17.5059 C   0  0  0  0  0  0  0  0  0  0  0  0
   52.8802    8.6991   17.1510 C   0  0  0  0  0  0  0  0  0  0  0  0
   52.4735    8.6710   15.7904 C   0  0  0  0  0  0  0  0  0  0  0  0
   51.1270    8.5125   15.3553 C   0  0  0  0  0  0  0  0  0  0  0  0
   50.0407    8.3647   16.3437 C   0  0  0  0  0  0  0  0  0  0  0  0
   49.4736    9.4955   16.9540 C   0  0  0  0  0  0  0  0  0  0  0  0
   48.4555    9.3539   17.8976 C   0  0  0  0  0  0  0  0  0  0  0  0
   47.9909    8.0847   18.2220 C   0  0  0  0  0  0  0  0  0  0  0  0
   47.0138    7.9533   19.1284 F   0  0  0  0  0  0  0  0  0  0  0  0
   48.5348    6.9533   17.6303 C   0  0  0  0  0  0  0  0  0  0  0  0
   49.5588    7.0905   16.6925 C   0  0  0  0  0  0  0  0  0  0  0  0
   51.7055    8.6019   11.5490 C   0  0  0  0  0  0  0  0  0  0  0  0
   51.0522    9.7746   10.8519 C   0  0  0  0  0  0  0  0  0  0  0  0
   52.5116    9.5118   10.6456 C   0  0  0  0  0  0  0  0  0  0  0  0
   44.9810    4.8051   11.6817 C   0  0  0  0  0  0  0  0  0  0  0  0
   44.9976    5.5152   10.3364 C   0  0  0  0  0  0  0  0  0  0  0  0
   44.7367    4.7990    9.3363 O   0  0  0  0  0  0  0  0  0  0  0  0
   45.2748    6.7531   10.3964 O   0  0  0  0  0  0  0  0  0  0  0  0
   49.5786    7.7676   13.9788 Ca  0  0  0  0  0 15  0  0  0  0  0  0
   45.8314    5.7172   10.3238 O   0  0  0  0  0  0  0  0  0  0  0  0
   45.6762    6.1805   11.6760 C   0  0  2  0  0  0  0  0  0  0  0  0
   47.0441    6.7079   12.1259 C   0  0  0  0  0  0  0  0  0  0  0  0
   47.0716    7.3148   13.5368 C   0  0  2  0  0  0  0  0  0  0  0  0
   46.0620    8.3150   13.6667 O   0  0  0  0  0  0  0  0  0  0  0  0
   48.3670    8.0003   13.8889 C   0  0  0  0  0  0  0  0  0  0  0  0
   49.5970    7.5970   13.5322 C   0  0  0  0  0  0  0  0  0  0  0  0
   50.8491    8.3196   13.8431 C   0  0  0  0  0  0  0  0  0  0  0  0
   51.6867    8.6741   12.7664 C   0  0  0  0  0  0  0  0  0  0  0  0
   52.8577    9.3328   12.9616 N   0  0  0  0  0  0  0  0  0  0  0  0
   53.2524    9.6308   14.2022 C   0  0  0  0  0  0  0  0  0  0  0  0
   54.4621   10.2962   14.3437 C   0  0  0  0  0  0  0  0  0  0  0  0
   54.9756   10.6423   15.5940 C   0  0  0  0  0  0  0  0  0  0  0  0
   54.2661   10.3135   16.7355 C   0  0  0  0  0  0  0  0  0  0  0  0
   53.0474    9.6443   16.6141 C   0  0  0  0  0  0  0  0  0  0  0  0
   52.5080    9.2946   15.3487 C   0  0  0  0  0  0  0  0  0  0  0  0
   51.2652    8.6251   15.1609 C   0  0  0  0  0  0  0  0  0  0  0  0
   50.4351    8.2597   16.3323 C   0  0  0  0  0  0  0  0  0  0  0  0
   49.7250    9.2491   17.0409 C   0  0  0  0  0  0  0  0  0  0  0  0
   48.9474    8.9136   18.1513 C   0  0  0  0  0  0  0  0  0  0  0  0
   48.8648    7.5872   18.5516 C   0  0  0  0  0  0  0  0  0  0  0  0
   48.1143    7.2623   19.6146 F   0  0  0  0  0  0  0  0  0  0  0  0
   49.5467    6.5906   17.8661 C   0  0  0  0  0  0  0  0  0  0  0  0
   50.3334    6.9264   16.7615 C   0  0  0  0  0  0  0  0  0  0  0  0
   51.3192    8.3521   11.3222 C   0  0  0  0  0  0  0  0  0  0  0  0
   51.6956    7.0011   10.7458 C   0  0  0  0  0  0  0  0  0  0  0  0
   52.3810    8.2372   10.2531 C   0  0  0  0  0  0  0  0  0  0  0  0
   45.1706    5.0265   12.5346 C   0  0  0  0  0  0  0  0  0  0  0  0
   43.6900    4.8657   12.2033 C   0  0  0  0  0  0  0  0  0  0  0  0
   43.4384    4.6871   10.9751 O   0  0  0  0  0  0  0  0  0  0  0  0
   42.9119    4.9575   13.1957 O   0  0  0  0  0  0  0  0  0  0  0  0
   44.8065    7.2101   12.1090 H   0  0  0  0  0  0  0  0  0  0  0  0
   45.1987    4.9925   13.7589 H   0  0  0  0  0  0  0  0  0  0  0  0
   47.2287    5.8254   14.0798 H   0  0  0  0  0  0  0  0  0  0  0  0
   47.5103    4.8686   12.6233 H   0  0  0  0  0  0  0  0  0  0  0  0
   47.0283    7.9170   12.5518 H   0  0  0  0  0  0  0  0  0  0  0  0
   46.8584    6.9380   10.5835 H   0  0  0  0  0  0  0  0  0  0  0  0
   49.7050    6.3822   12.6946 H   0  0  0  0  0  0  0  0  0  0  0  0
   48.7854    9.1530   13.6665 H   0  0  0  0  0  0  0  0  0  0  0  0
   55.5412    9.0643   14.3963 H   0  0  0  0  0  0  0  0  0  0  0  0
   56.2276    9.1177   16.7708 H   0  0  0  0  0  0  0  0  0  0  0  0
   54.5059    8.8867   18.5538 H   0  0  0  0  0  0  0  0  0  0  0  0
   52.1483    8.5892   17.9498 H   0  0  0  0  0  0  0  0  0  0  0  0
   49.8284   10.4901   16.6942 H   0  0  0  0  0  0  0  0  0  0  0  0
   48.0172   10.2240   18.3733 H   0  0  0  0  0  0  0  0  0  0  0  0
   48.1601    5.9721   17.8989 H   0  0  0  0  0  0  0  0  0  0  0  0
   49.9752    6.2022   16.2221 H   0  0  0  0  0  0  0  0  0  0  0  0
   51.4949    7.6170   11.1352 H   0  0  0  0  0  0  0  0  0  0  0  0
   50.7649   10.6364   11.4442 H   0  0  0  0  0  0  0  0  0  0  0  0
   50.3578    9.5391   10.0514 H   0  0  0  0  0  0  0  0  0  0  0  0
   52.8214    9.1218    9.6816 H   0  0  0  0  0  0  0  0  0  0  0  0
   53.2225   10.1983   11.0918 H   0  0  0  0  0  0  0  0  0  0  0  0
   45.5387    3.8613   11.5913 H   0  0  0  0  0  0  0  0  0  0  0  0
   43.9304    4.5420   11.8657 H   0  0  0  0  0  0  0  0  0  0  0  0
   44.9669    5.2753   10.1271 H   0  0  0  0  0  0  0  0  0  0  0  0
   44.9528    7.0025   11.6456 H   0  0  0  0  0  0  0  0  0  0  0  0
   47.3607    7.4692   11.3968 H   0  0  0  0  0  0  0  0  0  0  0  0
   47.7834    5.9003   12.0384 H   0  0  0  0  0  0  0  0  0  0  0  0
   46.8885    6.5502   14.2971 H   0  0  0  0  0  0  0  0  0  0  0  0
   45.2059    7.8492   13.7122 H   0  0  0  0  0  0  0  0  0  0  0  0
   48.2554    8.9044   14.4849 H   0  0  0  0  0  0  0  0  0  0  0  0
   49.7229    6.7038   12.9307 H   0  0  0  0  0  0  0  0  0  0  0  0
   55.0209   10.5587   13.4478 H   0  0  0  0  0  0  0  0  0  0  0  0
   55.9232   11.1719   15.6669 H   0  0  0  0  0  0  0  0  0  0  0  0
   54.6547   10.5610   17.7188 H   0  0  0  0  0  0  0  0  0  0  0  0
   52.5211    9.3863   17.5301 H   0  0  0  0  0  0  0  0  0  0  0  0
   49.7698   10.2903   16.7248 H   0  0  0  0  0  0  0  0  0  0  0  0
   48.3882    9.6707   18.6914 H   0  0  0  0  0  0  0  0  0  0  0  0
   49.4485    5.5572   18.1828 H   0  0  0  0  0  0  0  0  0  0  0  0
   50.8626    6.1418   16.2288 H   0  0  0  0  0  0  0  0  0  0  0  0
   50.3699    8.7702   10.9921 H   0  0  0  0  0  0  0  0  0  0  0  0
   52.2716    6.3261   11.3657 H   0  0  0  0  0  0  0  0  0  0  0  0
   50.9760    6.5131   10.0947 H   0  0  0  0  0  0  0  0  0  0  0  0
   53.4149    8.4007   10.5369 H   0  0  0  0  0  0  0  0  0  0  0  0
   52.1322    8.6081    9.2677 H   0  0  0  0  0  0  0  0  0  0  0  0
   45.6930    4.0928   12.3013 H   0  0  0  0  0  0  0  0  0  0  0  0
   45.2700    5.2248   13.6056 H   0  0  0  0  0  0  0  0  0  0  0  0
  2  1  1  0
  2  3  1  0
  3  4  1  0
  4  5  1  0
  4  6  1  0
  6  7  2  0
  7  8  1  0
  8  9  2  0
  9 10  1  0
 10 11  2  0
 11 12  1  0
 12 13  2  0
 13 14  1  0
 14 15  2  0
 15 16  1  0
 11 16  1  0
 16 17  2  0
  8 17  1  0
 17 18  1  0
 18 19  2  0
 19 20  1  0
 20 21  2  0
 21 22  1  0
 21 23  1  0
 23 24  2  0
 18 24  1  0
  9 25  1  0
 25 26  1  0
 26 27  1  0
 25 27  1  0
  2 28  1  0
 28 29  1  0
 29 30  2  0
 29 31  1  0
 34 33  1  0
 34 35  1  0
 35 36  1  0
 36 37  1  0
 36 38  1  0
 38 39  2  0
 39 40  1  0
 40 41  2  0
 41 42  1  0
 42 43  2  0
 43 44  1  0
 44 45  2  0
 45 46  1  0
 46 47  2  0
 47 48  1  0
 43 48  1  0
 48 49  2  0
 40 49  1  0
 49 50  1  0
 50 51  2  0
 51 52  1  0
 52 53  2  0
 53 54  1  0
 53 55  1  0
 55 56  2  0
 50 56  1  0
 41 57  1  0
 57 58  1  0
 58 59  1  0
 57 59  1  0
 34 60  1  0
 60 61  1  0
 61 62  2  0
 61 63  1  0
  1 64  1  0
  2 65  1  1
  3 66  1  0
  3 67  1  0
  4 68  1  6
  5 69  1  0
  6 70  1  0
  7 71  1  0
 12 72  1  0
 13 73  1  0
 14 74  1  0
 15 75  1  0
 19 76  1  0
 20 77  1  0
 23 78  1  0
 24 79  1  0
 25 80  1  0
 26 81  1  0
 26 82  1  0
 27 83  1  0
 27 84  1  0
 28 85  1  0
 28 86  1  0
 33 87  1  0
 34 88  1  6
 35 89  1  0
 35 90  1  0
 36 91  1  1
 37 92  1  0
 38 93  1  0
 39 94  1  0
 44 95  1  0
 45 96  1  0
 46 97  1  0
 47 98  1  0
 51 99  1  0
 52100  1  0
 55101  1  0
 56102  1  0
 57103  1  0
 58104  1  0
 58105  1  0
 59106  1  0
 59107  1  0
 60108  1  0
 60109  1  0
M  CHG  3  31  -1  32   2  63  -1
M  END
> <Uni-Dock RESULT> 
ENERGY=   -6.715  LOWER_BOUND=    4.094  UPPER_BOUND=    7.449
INTER + INTRA:          -6.715
INTER:                  -6.715
INTRA:                   0.000
UNBOUND:                 0.000

$$$$

     RDKit          3D

109114  0  0  0  0  0  0  0  0999 V2000
   41.1230   13.0104   11.8893 O   0  0  0  0  0  0  0  0  0  0  0  0
   41.2550   11.6031   11.6859 C   0  0  2  0  0  0  0  0  0  0  0  0
   42.3376   11.2931   10.6378 C   0  0  0  0  0  0  0  0  0  0  0  0
   42.4351   12.2255    9.4247 C   0  0  2  0  0  0  0  0  0  0  0  0
   41.4471   11.9285    8.4514 O   0  0  0  0  0  0  0  0  0  0  0  0
   43.7450   11.9931    8.7228 C   0  0  0  0  0  0  0  0  0  0  0  0
   44.6590   12.9485    8.4948 C   0  0  0  0  0  0  0  0  0  0  0  0
   45.9244   12.6907    7.7836 C   0  0  0  0  0  0  0  0  0  0  0  0
   45.9334   12.4170    6.4045 C   0  0  0  0  0  0  0  0  0  0  0  0
   47.0982   12.1905    5.7398 N   0  0  0  0  0  0  0  0  0  0  0  0
   48.2654   12.2192    6.3929 C   0  0  0  0  0  0  0  0  0  0  0  0
   49.4179   11.9697    5.6597 C   0  0  0  0  0  0  0  0  0  0  0  0
   50.6837   11.9813    6.2458 C   0  0  0  0  0  0  0  0  0  0  0  0
   50.8045   12.2427    7.6018 C   0  0  0  0  0  0  0  0  0  0  0  0
   49.6591   12.4865    8.3599 C   0  0  0  0  0  0  0  0  0  0  0  0
   48.3672   12.4857    7.7696 C   0  0  0  0  0  0  0  0  0  0  0  0
   47.1578   12.7364    8.4781 C   0  0  0  0  0  0  0  0  0  0  0  0
   47.1920   13.0236    9.9256 C   0  0  0  0  0  0  0  0  0  0  0  0
   47.4684   14.3205   10.3886 C   0  0  0  0  0  0  0  0  0  0  0  0
   47.5130   14.5880   11.7573 C   0  0  0  0  0  0  0  0  0  0  0  0
   47.2664   13.5654   12.6658 C   0  0  0  0  0  0  0  0  0  0  0  0
   47.3105   13.8266   13.9785 F   0  0  0  0  0  0  0  0  0  0  0  0
   46.9892   12.2769   12.2313 C   0  0  0  0  0  0  0  0  0  0  0  0
   46.9519   12.0037   10.8635 C   0  0  0  0  0  0  0  0  0  0  0  0
   44.6606   12.3395    5.5734 C   0  0  0  0  0  0  0  0  0  0  0  0
   43.8999   13.6025    5.2354 C   0  0  0  0  0  0  0  0  0  0  0  0
   44.6307   12.8683    4.1545 C   0  0  0  0  0  0  0  0  0  0  0  0
   39.8984   10.9347   11.4895 C   0  0  0  0  0  0  0  0  0  0  0  0
   39.0016   11.4952   10.3960 C   0  0  0  0  0  0  0  0  0  0  0  0
   37.9684   10.8261   10.1392 O   0  0  0  0  0  0  0  0  0  0  0  0
   39.4150   12.5784    9.8778 O   0  0  0  0  0  0  0  0  0  0  0  0
   45.0172   12.4260    8.8884 Ca  0  0  0  0  0 15  0  0  0  0  0  0
   39.5533   11.4161    9.7437 O   0  0  0  0  0  0  0  0  0  0  0  0
   40.5492   12.0079   10.5952 C   0  0  2  0  0  0  0  0  0  0  0  0
   41.8406   12.0995    9.7733 C   0  0  0  0  0  0  0  0  0  0  0  0
   43.0192   12.7725   10.4927 C   0  0  2  0  0  0  0  0  0  0  0  0
   42.6309   14.0516   10.9924 O   0  0  0  0  0  0  0  0  0  0  0  0
   44.2151   13.0290    9.6118 C   0  0  0  0  0  0  0  0  0  0  0  0
   44.6646   12.2246    8.6353 C   0  0  0  0  0  0  0  0  0  0  0  0
   45.8076   12.5269    7.7472 C   0  0  0  0  0  0  0  0  0  0  0  0
   45.5806   12.5080    6.3563 C   0  0  0  0  0  0  0  0  0  0  0  0
   46.5745   12.7672    5.4686 N   0  0  0  0  0  0  0  0  0  0  0  0
   47.8098   13.0172    5.9103 C   0  0  0  0  0  0  0  0  0  0  0  0
   48.7889   13.2661    4.9586 C   0  0  0  0  0  0  0  0  0  0  0  0
   50.1146   13.5240    5.3092 C   0  0  0  0  0  0  0  0  0  0  0  0
   50.4760   13.5308    6.6447 C   0  0  0  0  0  0  0  0  0  0  0  0
   49.5058   13.2828    7.6170 C   0  0  0  0  0  0  0  0  0  0  0  0
   48.1518   13.0287    7.2758 C   0  0  0  0  0  0  0  0  0  0  0  0
   47.1161   12.7830    8.2219 C   0  0  0  0  0  0  0  0  0  0  0  0
   47.4177   12.7965    9.6722 C   0  0  0  0  0  0  0  0  0  0  0  0
   47.6557   14.0137   10.3408 C   0  0  0  0  0  0  0  0  0  0  0  0
   47.9494   14.0338   11.7060 C   0  0  0  0  0  0  0  0  0  0  0  0
   47.9939   12.8399   12.4126 C   0  0  0  0  0  0  0  0  0  0  0  0
   48.2705   12.8576   13.7247 F   0  0  0  0  0  0  0  0  0  0  0  0
   47.7544   11.6269   11.7808 C   0  0  0  0  0  0  0  0  0  0  0  0
   47.4710   11.6046   10.4129 C   0  0  0  0  0  0  0  0  0  0  0  0
   44.2048   12.2108    5.7702 C   0  0  0  0  0  0  0  0  0  0  0  0
   43.7987   10.7703    5.5276 C   0  0  0  0  0  0  0  0  0  0  0  0
   44.0533   11.6774    4.3646 C   0  0  0  0  0  0  0  0  0  0  0  0
   40.6983   11.1486   11.8458 C   0  0  0  0  0  0  0  0  0  0  0  0
   39.4817   11.4484   12.7164 C   0  0  0  0  0  0  0  0  0  0  0  0
   38.3653   11.2658   12.1474 O   0  0  0  0  0  0  0  0  0  0  0  0
   39.7520   11.8626   13.8800 O   0  0  0  0  0  0  0  0  0  0  0  0
   40.4835   13.2931   11.1850 H   0  0  0  0  0  0  0  0  0  0  0  0
   41.6369   11.2022   12.6313 H   0  0  0  0  0  0  0  0  0  0  0  0
   43.2989   11.3587   11.1717 H   0  0  0  0  0  0  0  0  0  0  0  0
   42.2280   10.2525   10.3081 H   0  0  0  0  0  0  0  0  0  0  0  0
   42.3401   13.2784    9.7069 H   0  0  0  0  0  0  0  0  0  0  0  0
   40.5917   12.2570    8.8342 H   0  0  0  0  0  0  0  0  0  0  0  0
   43.9114   10.9788    8.3714 H   0  0  0  0  0  0  0  0  0  0  0  0
   44.4916   13.9645    8.8361 H   0  0  0  0  0  0  0  0  0  0  0  0
   49.3236   11.7602    4.5966 H   0  0  0  0  0  0  0  0  0  0  0  0
   51.5640   11.7732    5.6419 H   0  0  0  0  0  0  0  0  0  0  0  0
   51.7824   12.2482    8.0757 H   0  0  0  0  0  0  0  0  0  0  0  0
   49.7810   12.6805    9.4246 H   0  0  0  0  0  0  0  0  0  0  0  0
   47.6516   15.1244    9.6796 H   0  0  0  0  0  0  0  0  0  0  0  0
   47.7291   15.5871   12.1189 H   0  0  0  0  0  0  0  0  0  0  0  0
   46.8020   11.4927   12.9561 H   0  0  0  0  0  0  0  0  0  0  0  0
   46.7232   10.9950   10.5261 H   0  0  0  0  0  0  0  0  0  0  0  0
   44.0611   11.4461    5.7409 H   0  0  0  0  0  0  0  0  0  0  0  0
   44.2989   14.5541    5.5692 H   0  0  0  0  0  0  0  0  0  0  0  0
   42.8166   13.5421    5.2715 H   0  0  0  0  0  0  0  0  0  0  0  0
   44.0380   12.3259    3.4252 H   0  0  0  0  0  0  0  0  0  0  0  0
   45.5264   13.3214    3.7444 H   0  0  0  0  0  0  0  0  0  0  0  0
   40.0382    9.8576   11.3161 H   0  0  0  0  0  0  0  0  0  0  0  0
   39.3291   11.0394   12.4233 H   0  0  0  0  0  0  0  0  0  0  0  0
   38.7866   11.2626   10.3518 H   0  0  0  0  0  0  0  0  0  0  0  0
   40.1938   13.0142   10.8421 H   0  0  0  0  0  0  0  0  0  0  0  0
   41.6084   12.6593    8.8545 H   0  0  0  0  0  0  0  0  0  0  0  0
   42.1191   11.0925    9.4344 H   0  0  0  0  0  0  0  0  0  0  0  0
   43.3594   12.1690   11.3391 H   0  0  0  0  0  0  0  0  0  0  0  0
   42.0489   13.8915   11.7590 H   0  0  0  0  0  0  0  0  0  0  0  0
   44.7352   13.9641    9.8125 H   0  0  0  0  0  0  0  0  0  0  0  0
   44.1512   11.2947    8.4179 H   0  0  0  0  0  0  0  0  0  0  0  0
   48.5072   13.2643    3.9077 H   0  0  0  0  0  0  0  0  0  0  0  0
   50.8540   13.7239    4.5366 H   0  0  0  0  0  0  0  0  0  0  0  0
   51.5050   13.7152    6.9384 H   0  0  0  0  0  0  0  0  0  0  0  0
   49.8241   13.2799    8.6568 H   0  0  0  0  0  0  0  0  0  0  0  0
   47.6066   14.9571    9.7990 H   0  0  0  0  0  0  0  0  0  0  0  0
   48.1198   14.9701   12.2273 H   0  0  0  0  0  0  0  0  0  0  0  0
   47.7714   10.7080   12.3582 H   0  0  0  0  0  0  0  0  0  0  0  0
   47.2828   10.6525    9.9255 H   0  0  0  0  0  0  0  0  0  0  0  0
   43.4166   12.8856    6.0994 H   0  0  0  0  0  0  0  0  0  0  0  0
   44.5289    9.9958    5.7240 H   0  0  0  0  0  0  0  0  0  0  0  0
   42.7732   10.4912    5.7524 H   0  0  0  0  0  0  0  0  0  0  0  0
   44.9504   11.5204    3.7756 H   0  0  0  0  0  0  0  0  0  0  0  0
   43.2073   12.0313    3.7903 H   0  0  0  0  0  0  0  0  0  0  0  0
   40.7091   10.0812   11.6012 H   0  0  0  0  0  0  0  0  0  0  0  0
   41.6023   11.3865   12.4137 H   0  0  0  0  0  0  0  0  0  0  0  0
  2  1  1  0
  2  3  1  0
  3  4  1  0
  4  5  1  0
  4  6  1  0
  6  7  2  0
  7  8  1  0
  8  9  2  0
  9 10  1  0
 10 11  2  0
 11 12  1  0
 12 13  2  0
 13 14  1  0
 14 15  2  0
 15 16  1  0
 11 16  1  0
 16 17  2  0
  8 17  1  0
 17 18  1  0
 18 19  2  0
 19 20  1  0
 20 21  2  0
 21 22  1  0
 21 23  1  0
 23 24  2  0
 18 24  1  0
  9 25  1  0
 25 26  1  0
 26 27  1  0
 25 27  1  0
  2 28  1  0
 28 29  1  0
 29 30  2  0
 29 31  1  0
 34 33  1  0
 34 35  1  0
 35 36  1  0
 36 37  1  0
 36 38  1  0
 38 39  2  0
 39 40  1  0
 40 41  2  0
 41 42  1  0
 42 43  2  0
 43 44  1  0
 44 45  2  0
 45 46  1  0
 46 47  2  0
 47 48  1  0
 43 48  1  0
 48 49  2  0
 40 49  1  0
 49 50  1  0
 50 51  2  0
 51 52  1  0
 52 53  2  0
 53 54  1  0
 53 55  1  0
 55 56  2  0
 50 56  1  0
 41 57  1  0
 57 58  1  0
 58 59  1  0
 57 59  1  0
 34 60  1  0
 60 61  1  0
 61 62  2  0
 61 63  1  0
  1 64  1  0
  2 65  1  1
  3 66  1  0
  3 67  1  0
  4 68  1  6
  5 69  1  0
  6 70  1  0
  7 71  1  0
 12 72  1  0
 13 73  1  0
 14 74  1  0
 15 75  1  0
 19 76  1  0
 20 77  1  0
 23 78  1  0
 24 79  1  0
 25 80  1  0
 26 81  1  0
 26 82  1  0
 27 83  1  0
 27 84  1  0
 28 85  1  0
 28 86  1  0
 33 87  1  0
 34 88  1  6
 35 89  1  0
 35 90  1  0
 36 91  1  1
 37 92  1  0
 38 93  1  0
 39 94  1  0
 44 95  1  0
 45 96  1  0
 46 97  1  0
 47 98  1  0
 51 99  1  0
 52100  1  0
 55101  1  0
 56102  1  0
 57103  1  0
 58104  1  0
 58105  1  0
 59106  1  0
 59107  1  0
 60108  1  0
 60109  1  0
M  CHG  3  31  -1  32   2  63  -1
M  END
> <Uni-Dock RESULT> 
ENERGY=   -6.557  LOWER_BOUND=    9.108  UPPER_BOUND=   13.039
INTER + INTRA:          -6.557
INTER:                  -6.557
INTRA:                   0.000
UNBOUND:                 0.000

$$$$

     RDKit          3D

109114  0  0  0  0  0  0  0  0999 V2000
   49.2651   14.6383   14.2797 O   0  0  0  0  0  0  0  0  0  0  0  0
   50.5010   14.5310   14.9869 C   0  0  2  0  0  0  0  0  0  0  0  0
   50.4998   13.3110   15.9241 C   0  0  0  0  0  0  0  0  0  0  0  0
   49.1964   12.9891   16.6644 C   0  0  2  0  0  0  0  0  0  0  0  0
   49.0139   13.8239   17.7965 O   0  0  0  0  0  0  0  0  0  0  0  0
   49.2742   11.5958   17.2257 C   0  0  0  0  0  0  0  0  0  0  0  0
   48.3944   10.6209   16.9503 C   0  0  0  0  0  0  0  0  0  0  0  0
   48.4879    9.2710   17.5356 C   0  0  0  0  0  0  0  0  0  0  0  0
   48.2276    9.0576   18.9007 C   0  0  0  0  0  0  0  0  0  0  0  0
   48.3000    7.8130   19.4444 N   0  0  0  0  0  0  0  0  0  0  0  0
   48.6280    6.7618   18.6847 C   0  0  0  0  0  0  0  0  0  0  0  0
   48.6950    5.5196   19.3015 C   0  0  0  0  0  0  0  0  0  0  0  0
   49.0231    4.3613   18.5969 C   0  0  0  0  0  0  0  0  0  0  0  0
   49.2985    4.4436   17.2408 C   0  0  0  0  0  0  0  0  0  0  0  0
   49.2468    5.6829   16.6024 C   0  0  0  0  0  0  0  0  0  0  0  0
   48.9046    6.8658   17.3102 C   0  0  0  0  0  0  0  0  0  0  0  0
   48.8220    8.1603   16.7229 C   0  0  0  0  0  0  0  0  0  0  0  0
   49.0993    8.3414   15.2844 C   0  0  0  0  0  0  0  0  0  0  0  0
   48.1010    8.0904   14.3289 C   0  0  0  0  0  0  0  0  0  0  0  0
   48.3683    8.2496   12.9687 C   0  0  0  0  0  0  0  0  0  0  0  0
   49.6272    8.6745   12.5607 C   0  0  0  0  0  0  0  0  0  0  0  0
   49.8794    8.8257   11.2543 F   0  0  0  0  0  0  0  0  0  0  0  0
   50.6284    8.9304   13.4871 C   0  0  0  0  0  0  0  0  0  0  0  0
   50.3674    8.7643   14.8477 C   0  0  0  0  0  0  0  0  0  0  0  0
   47.8683   10.1871   19.8555 C   0  0  0  0  0  0  0  0  0  0  0  0
   46.5040   10.8361   19.7802 C   0  0  0  0  0  0  0  0  0  0  0  0
   46.8487    9.9746   20.9551 C   0  0  0  0  0  0  0  0  0  0  0  0
   50.9156   15.8652   15.5981 C   0  0  0  0  0  0  0  0  0  0  0  0
   49.9054   16.5579   16.5003 C   0  0  0  0  0  0  0  0  0  0  0  0
   50.3289   17.5636   17.1251 O   0  0  0  0  0  0  0  0  0  0  0  0
   48.7518   16.0269   16.5063 O   0  0  0  0  0  0  0  0  0  0  0  0
   49.0574   10.3492   16.7437 Ca  0  0  0  0  0 15  0  0  0  0  0  0
   49.7879   15.9147   17.0558 O   0  0  0  0  0  0  0  0  0  0  0  0
   49.6537   15.0416   15.9213 C   0  0  2  0  0  0  0  0  0  0  0  0
   49.3860   13.6352   16.4708 C   0  0  0  0  0  0  0  0  0  0  0  0
   49.1450   12.5581   15.4025 C   0  0  2  0  0  0  0  0  0  0  0  0
   48.1134   12.9697   14.5063 O   0  0  0  0  0  0  0  0  0  0  0  0
   48.6939   11.2303   15.9552 C   0  0  0  0  0  0  0  0  0  0  0  0
   49.1155   10.6655   17.0980 C   0  0  0  0  0  0  0  0  0  0  0  0
   48.6144    9.3870   17.6467 C   0  0  0  0  0  0  0  0  0  0  0  0
   48.0921    9.3948   18.9556 C   0  0  0  0  0  0  0  0  0  0  0  0
   47.6167    8.2651   19.5397 N   0  0  0  0  0  0  0  0  0  0  0  0
   47.6682    7.1051   18.8800 C   0  0  0  0  0  0  0  0  0  0  0  0
   47.1771    5.9806   19.5285 C   0  0  0  0  0  0  0  0  0  0  0  0
   47.1959    4.7169   18.9373 C   0  0  0  0  0  0  0  0  0  0  0  0
   47.7216    4.5683   17.6660 C   0  0  0  0  0  0  0  0  0  0  0  0
   48.2204    5.6872   16.9973 C   0  0  0  0  0  0  0  0  0  0  0  0
   48.1988    6.9803   17.5821 C   0  0  0  0  0  0  0  0  0  0  0  0
   48.6795    8.1597   16.9448 C   0  0  0  0  0  0  0  0  0  0  0  0
   49.2361    8.0878   15.5738 C   0  0  0  0  0  0  0  0  0  0  0  0
   48.3843    7.9100   14.4657 C   0  0  0  0  0  0  0  0  0  0  0  0
   48.9023    7.8325   13.1711 C   0  0  0  0  0  0  0  0  0  0  0  0
   50.2719    7.9452   12.9757 C   0  0  0  0  0  0  0  0  0  0  0  0
   50.7708    7.8762   11.7327 F   0  0  0  0  0  0  0  0  0  0  0  0
   51.1335    8.1301   14.0487 C   0  0  0  0  0  0  0  0  0  0  0  0
   50.6174    8.1971   15.3453 C   0  0  0  0  0  0  0  0  0  0  0  0
   48.0170   10.6727   19.7838 C   0  0  0  0  0  0  0  0  0  0  0  0
   49.2177   11.0916   20.6095 C   0  0  0  0  0  0  0  0  0  0  0  0
   47.9713   10.6236   21.2934 C   0  0  0  0  0  0  0  0  0  0  0  0
   50.9271   15.1230   15.0868 C   0  0  0  0  0  0  0  0  0  0  0  0
   50.8589   16.4480   14.3333 C   0  0  0  0  0  0  0  0  0  0  0  0
   50.7090   17.4682   15.0684 O   0  0  0  0  0  0  0  0  0  0  0  0
   50.9357   16.3467   13.0753 O   0  0  0  0  0  0  0  0  0  0  0  0
   48.6808   15.1486   14.8986 H   0  0  0  0  0  0  0  0  0  0  0  0
   51.2597   14.3172   14.2260 H   0  0  0  0  0  0  0  0  0  0  0  0
   50.7297   12.4429   15.2860 H   0  0  0  0  0  0  0  0  0  0  0  0
   51.3271   13.4081   16.6380 H   0  0  0  0  0  0  0  0  0  0  0  0
   48.3206   13.0860   16.0158 H   0  0  0  0  0  0  0  0  0  0  0  0
   48.7717   14.7152   17.4314 H   0  0  0  0  0  0  0  0  0  0  0  0
   50.0954   11.4161   17.9137 H   0  0  0  0  0  0  0  0  0  0  0  0
   47.5677   10.8000   16.2710 H   0  0  0  0  0  0  0  0  0  0  0  0
   48.4832    5.4549   20.3664 H   0  0  0  0  0  0  0  0  0  0  0  0
   49.0741    3.4063   19.1149 H   0  0  0  0  0  0  0  0  0  0  0  0
   49.5632    3.5521   16.6784 H   0  0  0  0  0  0  0  0  0  0  0  0
   49.4760    5.7211   15.5385 H   0  0  0  0  0  0  0  0  0  0  0  0
   47.1122    7.7677   14.6462 H   0  0  0  0  0  0  0  0  0  0  0  0
   47.6013    8.0539   12.2276 H   0  0  0  0  0  0  0  0  0  0  0  0
   51.6045    9.2587   13.1483 H   0  0  0  0  0  0  0  0  0  0  0  0
   51.1511    8.9766   15.5720 H   0  0  0  0  0  0  0  0  0  0  0  0
   48.6983   10.8396   20.1218 H   0  0  0  0  0  0  0  0  0  0  0  0
   45.7880   10.4575   19.0590 H   0  0  0  0  0  0  0  0  0  0  0  0
   46.4700   11.9133   19.9106 H   0  0  0  0  0  0  0  0  0  0  0  0
   47.0212   10.4668   21.9066 H   0  0  0  0  0  0  0  0  0  0  0  0
   46.3630    9.0090   21.0408 H   0  0  0  0  0  0  0  0  0  0  0  0
   51.8586   15.7420   16.1508 H   0  0  0  0  0  0  0  0  0  0  0  0
   51.1127   16.5688   14.7777 H   0  0  0  0  0  0  0  0  0  0  0  0
   50.0832   16.7722   16.6576 H   0  0  0  0  0  0  0  0  0  0  0  0
   48.7830   15.3918   15.3565 H   0  0  0  0  0  0  0  0  0  0  0  0
   48.5048   13.6992   17.1272 H   0  0  0  0  0  0  0  0  0  0  0  0
   50.2158   13.3466   17.1300 H   0  0  0  0  0  0  0  0  0  0  0  0
   50.0498   12.3778   14.8150 H   0  0  0  0  0  0  0  0  0  0  0  0
   48.4914   13.6699   13.9417 H   0  0  0  0  0  0  0  0  0  0  0  0
   47.9550   10.7120   15.3465 H   0  0  0  0  0  0  0  0  0  0  0  0
   49.8440   11.1744   17.7191 H   0  0  0  0  0  0  0  0  0  0  0  0
   46.7604    6.0947   20.5269 H   0  0  0  0  0  0  0  0  0  0  0  0
   46.7939    3.8587   19.4717 H   0  0  0  0  0  0  0  0  0  0  0  0
   47.7588    3.5914   17.1935 H   0  0  0  0  0  0  0  0  0  0  0  0
   48.6408    5.5355   16.0059 H   0  0  0  0  0  0  0  0  0  0  0  0
   47.3068    7.8373   14.6067 H   0  0  0  0  0  0  0  0  0  0  0  0
   48.2484    7.7093   12.3139 H   0  0  0  0  0  0  0  0  0  0  0  0
   52.1983    8.2391   13.8699 H   0  0  0  0  0  0  0  0  0  0  0  0
   51.2968    8.3438   16.1799 H   0  0  0  0  0  0  0  0  0  0  0  0
   47.4417   11.4758   19.3266 H   0  0  0  0  0  0  0  0  0  0  0  0
   50.0753   10.4316   20.6315 H   0  0  0  0  0  0  0  0  0  0  0  0
   49.4614   12.1497   20.6435 H   0  0  0  0  0  0  0  0  0  0  0  0
   47.9822    9.6523   21.7759 H   0  0  0  0  0  0  0  0  0  0  0  0
   47.3501   11.3551   21.7930 H   0  0  0  0  0  0  0  0  0  0  0  0
   51.8223   15.1156   15.7174 H   0  0  0  0  0  0  0  0  0  0  0  0
   51.0051   14.3102   14.3591 H   0  0  0  0  0  0  0  0  0  0  0  0
  2  1  1  0
  2  3  1  0
  3  4  1  0
  4  5  1  0
  4  6  1  0
  6  7  2  0
  7  8  1  0
  8  9  2  0
  9 10  1  0
 10 11  2  0
 11 12  1  0
 12 13  2  0
 13 14  1  0
 14 15  2  0
 15 16  1  0
 11 16  1  0
 16 17  2  0
  8 17  1  0
 17 18  1  0
 18 19  2  0
 19 20  1  0
 20 21  2  0
 21 22  1  0
 21 23  1  0
 23 24  2  0
 18 24  1  0
  9 25  1  0
 25 26  1  0
 26 27  1  0
 25 27  1  0
  2 28  1  0
 28 29  1  0
 29 30  2  0
 29 31  1  0
 34 33  1  0
 34 35  1  0
 35 36  1  0
 36 37  1  0
 36 38  1  0
 38 39  2  0
 39 40  1  0
 40 41  2  0
 41 42  1  0
 42 43  2  0
 43 44  1  0
 44 45  2  0
 45 46  1  0
 46 47  2  0
 47 48  1  0
 43 48  1  0
 48 49  2  0
 40 49  1  0
 49 50  1  0
 50 51  2  0
 51 52  1  0
 52 53  2  0
 53 54  1  0
 53 55  1  0
 55 56  2  0
 50 56  1  0
 41 57  1  0
 57 58  1  0
 58 59  1  0
 57 59  1  0
 34 60  1  0
 60 61  1  0
 61 62  2  0
 61 63  1  0
  1 64  1  0
  2 65  1  1
  3 66  1  0
  3 67  1  0
  4 68  1  6
  5 69  1  0
  6 70  1  0
  7 71  1  0
 12 72  1  0
 13 73  1  0
 14 74  1  0
 15 75  1  0
 19 76  1  0
 20 77  1  0
 23 78  1  0
 24 79  1  0
 25 80  1  0
 26 81  1  0
 26 82  1  0
 27 83  1  0
 27 84  1  0
 28 85  1  0
 28 86  1  0
 33 87  1  0
 34 88  1  6
 35 89  1  0
 35 90  1  0
 36 91  1  1
 37 92  1  0
 38 93  1  0
 39 94  1  0
 44 95  1  0
 45 96  1  0
 46 97  1  0
 47 98  1  0
 51 99  1  0
 52100  1  0
 55101  1  0
 56102  1  0
 57103  1  0
 58104  1  0
 58105  1  0
 59106  1  0
 59107  1  0
 60108  1  0
 60109  1  0
M  CHG  3  31  -1  32   2  63  -1
M  END
> <Uni-Dock RESULT> 
ENERGY=   -6.323  LOWER_BOUND=    2.776  UPPER_BOUND=    4.651
INTER + INTRA:          -6.323
INTER:                  -6.323
INTRA:                   0.000
UNBOUND:                 0.000

$$$$

     RDKit          3D

109114  0  0  0  0  0  0  0  0999 V2000
   49.1769    6.9086   19.1851 O   0  0  0  0  0  0  0  0  0  0  0  0
   47.8883    7.4924   19.3787 C   0  0  2  0  0  0  0  0  0  0  0  0
   47.6669    8.6776   18.4232 C   0  0  0  0  0  0  0  0  0  0  0  0
   48.8609    9.6003   18.1522 C   0  0  2  0  0  0  0  0  0  0  0  0
   49.0621   10.5253   19.2084 O   0  0  0  0  0  0  0  0  0  0  0  0
   48.5676   10.4528   16.9482 C   0  0  0  0  0  0  0  0  0  0  0  0
   49.3363   10.4972   15.8494 C   0  0  0  0  0  0  0  0  0  0  0  0
   49.0310   11.3615   14.6948 C   0  0  0  0  0  0  0  0  0  0  0  0
   49.1603   12.7586   14.7859 C   0  0  0  0  0  0  0  0  0  0  0  0
   48.8922   13.5609   13.7209 N   0  0  0  0  0  0  0  0  0  0  0  0
   48.4924   13.0309   12.5594 C   0  0  0  0  0  0  0  0  0  0  0  0
   48.2245   13.9040   11.5135 C   0  0  0  0  0  0  0  0  0  0  0  0
   47.8070   13.4518   10.2617 C   0  0  0  0  0  0  0  0  0  0  0  0
   47.6457   12.0916   10.0475 C   0  0  0  0  0  0  0  0  0  0  0  0
   47.8996   11.1968   11.0872 C   0  0  0  0  0  0  0  0  0  0  0  0
   48.3339   11.6480   12.3621 C   0  0  0  0  0  0  0  0  0  0  0  0
   48.6216   10.7931   13.4639 C   0  0  0  0  0  0  0  0  0  0  0  0
   48.4768    9.3307   13.3257 C   0  0  0  0  0  0  0  0  0  0  0  0
   49.5040    8.5638   12.7518 C   0  0  0  0  0  0  0  0  0  0  0  0
   49.3606    7.1831   12.6101 C   0  0  0  0  0  0  0  0  0  0  0  0
   48.1987    6.5635   13.0550 C   0  0  0  0  0  0  0  0  0  0  0  0
   48.0653    5.2382   12.9168 F   0  0  0  0  0  0  0  0  0  0  0  0
   47.1715    7.3007   13.6270 C   0  0  0  0  0  0  0  0  0  0  0  0
   47.3078    8.6828   13.7628 C   0  0  0  0  0  0  0  0  0  0  0  0
   49.5864   13.4629   16.0662 C   0  0  0  0  0  0  0  0  0  0  0  0
   51.0231   13.3810   16.5324 C   0  0  0  0  0  0  0  0  0  0  0  0
   50.4868   14.6798   16.0158 C   0  0  0  0  0  0  0  0  0  0  0  0
   47.5999    7.7388   20.8558 C   0  0  0  0  0  0  0  0  0  0  0  0
   48.6191    8.5576   21.6336 C   0  0  0  0  0  0  0  0  0  0  0  0
   48.2798    8.8910   22.7976 O   0  0  0  0  0  0  0  0  0  0  0  0
   49.6934    8.8014   21.0017 O   0  0  0  0  0  0  0  0  0  0  0  0
   48.6615   10.2916   15.6072 Ca  0  0  0  0  0 15  0  0  0  0  0  0
   48.6135    9.2538   21.1322 O   0  0  0  0  0  0  0  0  0  0  0  0
   48.7210    8.3673   20.0054 C   0  0  2  0  0  0  0  0  0  0  0  0
   48.7688    9.2465   18.7499 C   0  0  0  0  0  0  0  0  0  0  0  0
   48.9515    8.4813   17.4305 C   0  0  2  0  0  0  0  0  0  0  0  0
   50.0903    7.6246   17.5071 O   0  0  0  0  0  0  0  0  0  0  0  0
   49.1902    9.3644   16.2326 C   0  0  0  0  0  0  0  0  0  0  0  0
   48.6174   10.5568   16.0029 C   0  0  0  0  0  0  0  0  0  0  0  0
   48.9121   11.4299   14.8464 C   0  0  0  0  0  0  0  0  0  0  0  0
   49.3325   12.7489   15.1105 C   0  0  0  0  0  0  0  0  0  0  0  0
   49.6178   13.6198   14.1088 N   0  0  0  0  0  0  0  0  0  0  0  0
   49.4705   13.2394   12.8371 C   0  0  0  0  0  0  0  0  0  0  0  0
   49.7671   14.1731   11.8540 C   0  0  0  0  0  0  0  0  0  0  0  0
   49.6340   13.8861   10.4951 C   0  0  0  0  0  0  0  0  0  0  0  0
   49.1898   12.6353   10.1043 C   0  0  0  0  0  0  0  0  0  0  0  0
   48.8863   11.6825   11.0780 C   0  0  0  0  0  0  0  0  0  0  0  0
   49.0263   11.9569   12.4634 C   0  0  0  0  0  0  0  0  0  0  0  0
   48.7460   11.0227   13.5012 C   0  0  0  0  0  0  0  0  0  0  0  0
   48.2882    9.6547   13.1639 C   0  0  0  0  0  0  0  0  0  0  0  0
   49.1910    8.7085   12.6397 C   0  0  0  0  0  0  0  0  0  0  0  0
   48.7650    7.4197   12.3112 C   0  0  0  0  0  0  0  0  0  0  0  0
   47.4387    7.0657   12.5167 C   0  0  0  0  0  0  0  0  0  0  0  0
   47.0288    5.8269   12.2068 F   0  0  0  0  0  0  0  0  0  0  0  0
   46.5297    7.9754   13.0405 C   0  0  0  0  0  0  0  0  0  0  0  0
   46.9523    9.2682   13.3595 C   0  0  0  0  0  0  0  0  0  0  0  0
   49.5055   13.2679   16.5336 C   0  0  0  0  0  0  0  0  0  0  0  0
   48.3088   13.8504   17.2600 C   0  0  0  0  0  0  0  0  0  0  0  0
   49.4324   14.7458   16.8403 C   0  0  0  0  0  0  0  0  0  0  0  0
   47.5335    7.4112   20.0187 C   0  0  0  0  0  0  0  0  0  0  0  0
   47.8231    6.3871   21.1119 C   0  0  0  0  0  0  0  0  0  0  0  0
   48.0447    6.8821   22.2563 O   0  0  0  0  0  0  0  0  0  0  0  0
   47.8279    5.1840   20.7231 O   0  0  0  0  0  0  0  0  0  0  0  0
   49.7730    7.4513   19.7639 H   0  0  0  0  0  0  0  0  0  0  0  0
   47.1674    6.7271   19.0706 H   0  0  0  0  0  0  0  0  0  0  0  0
   47.3780    8.2338   17.4573 H   0  0  0  0  0  0  0  0  0  0  0  0
   46.8075    9.2629   18.7732 H   0  0  0  0  0  0  0  0  0  0  0  0
   49.7878    9.0390   18.0000 H   0  0  0  0  0  0  0  0  0  0  0  0
   49.4405    9.9937   19.9570 H   0  0  0  0  0  0  0  0  0  0  0  0
   47.6814   11.0766   17.0241 H   0  0  0  0  0  0  0  0  0  0  0  0
   50.2270    9.8826   15.7745 H   0  0  0  0  0  0  0  0  0  0  0  0
   48.3467   14.9716   11.6821 H   0  0  0  0  0  0  0  0  0  0  0  0
   47.5984   14.1654    9.4679 H   0  0  0  0  0  0  0  0  0  0  0  0
   47.3138   11.7229    9.0806 H   0  0  0  0  0  0  0  0  0  0  0  0
   47.7567   10.1344   10.8951 H   0  0  0  0  0  0  0  0  0  0  0  0
   50.4182    9.0449   12.4122 H   0  0  0  0  0  0  0  0  0  0  0  0
   50.1499    6.5878   12.1648 H   0  0  0  0  0  0  0  0  0  0  0  0
   46.2721    6.7988   13.9655 H   0  0  0  0  0  0  0  0  0  0  0  0
   46.5053    9.2563   14.2219 H   0  0  0  0  0  0  0  0  0  0  0  0
   48.8273   13.4881   16.8464 H   0  0  0  0  0  0  0  0  0  0  0  0
   51.7376   12.8413   15.9204 H   0  0  0  0  0  0  0  0  0  0  0  0
   51.1821   13.2657   17.6001 H   0  0  0  0  0  0  0  0  0  0  0  0
   50.3070   15.4718   16.7354 H   0  0  0  0  0  0  0  0  0  0  0  0
   50.8399   15.0317   15.0529 H   0  0  0  0  0  0  0  0  0  0  0  0
   46.6105    8.2063   20.9667 H   0  0  0  0  0  0  0  0  0  0  0  0
   47.5542    6.7642   21.3608 H   0  0  0  0  0  0  0  0  0  0  0  0
   48.4584    8.6431   21.8966 H   0  0  0  0  0  0  0  0  0  0  0  0
   49.6684    7.8291   20.1183 H   0  0  0  0  0  0  0  0  0  0  0  0
   49.5998    9.9572   18.8756 H   0  0  0  0  0  0  0  0  0  0  0  0
   47.8626    9.8663   18.7146 H   0  0  0  0  0  0  0  0  0  0  0  0
   48.0775    7.8615   17.2114 H   0  0  0  0  0  0  0  0  0  0  0  0
   49.8461    6.8801   18.0886 H   0  0  0  0  0  0  0  0  0  0  0  0
   49.9015    8.9679   15.5101 H   0  0  0  0  0  0  0  0  0  0  0  0
   47.9143   10.9687   16.7181 H   0  0  0  0  0  0  0  0  0  0  0  0
   50.1195   15.1565   12.1580 H   0  0  0  0  0  0  0  0  0  0  0  0
   49.8844   14.6397    9.7513 H   0  0  0  0  0  0  0  0  0  0  0  0
   49.0656   12.3960    9.0524 H   0  0  0  0  0  0  0  0  0  0  0  0
   48.5251   10.7142   10.7397 H   0  0  0  0  0  0  0  0  0  0  0  0
   50.2373    8.9711   12.4904 H   0  0  0  0  0  0  0  0  0  0  0  0
   49.4601    6.6839   11.9201 H   0  0  0  0  0  0  0  0  0  0  0  0
   45.5032    7.6692   13.2146 H   0  0  0  0  0  0  0  0  0  0  0  0
   46.2366    9.9742   13.7706 H   0  0  0  0  0  0  0  0  0  0  0  0
   50.2094   12.7010   17.1403 H   0  0  0  0  0  0  0  0  0  0  0  0
   47.3759   13.9347   16.7175 H   0  0  0  0  0  0  0  0  0  0  0  0
   48.1978   13.6179   18.3152 H   0  0  0  0  0  0  0  0  0  0  0  0
   49.2640   15.4329   16.0182 H   0  0  0  0  0  0  0  0  0  0  0  0
   50.1015   15.1263   17.6006 H   0  0  0  0  0  0  0  0  0  0  0  0
   46.6001    7.9327   20.2551 H   0  0  0  0  0  0  0  0  0  0  0  0
   47.4085    6.8834   19.0689 H   0  0  0  0  0  0  0  0  0  0  0  0
  2  1  1  0
  2  3  1  0
  3  4  1  0
  4  5  1  0
  4  6  1  0
  6  7  2  0
  7  8  1  0
  8  9  2  0
  9 10  1  0
 10 11  2  0
 11 12  1  0
 12 13  2  0
 13 14  1  0
 14 15  2  0
 15 16  1  0
 11 16  1  0
 16 17  2  0
  8 17  1  0
 17 18  1  0
 18 19  2  0
 19 20  1  0
 20 21  2  0
 21 22  1  0
 21 23  1  0
 23 24  2  0
 18 24  1  0
  9 25  1  0
 25 26  1  0
 26 27  1  0
 25 27  1  0
  2 28  1  0
 28 29  1  0
 29 30  2  0
 29 31  1  0
 34 33  1  0
 34 35  1  0
 35 36  1  0
 36 37  1  0
 36 38  1  0
 38 39  2  0
 39 40  1  0
 40 41  2  0
 41 42  1  0
 42 43  2  0
 43 44  1  0
 44 45  2  0
 45 46  1  0
 46 47  2  0
 47 48  1  0
 43 48  1  0
 48 49  2  0
 40 49  1  0
 49 50  1  0
 50 51  2  0
 51 52  1  0
 52 53  2  0
 53 54  1  0
 53 55  1  0
 55 56  2  0
 50 56  1  0
 41 57  1  0
 57 58  1  0
 58 59  1  0
 57 59  1  0
 34 60  1  0
 60 61  1  0
 61 62  2  0
 61 63  1  0
  1 64  1  0
  2 65  1  1
  3 66  1  0
  3 67  1  0
  4 68  1  6
  5 69  1  0
  6 70  1  0
  7 71  1  0
 12 72  1  0
 13 73  1  0
 14 74  1  0
 15 75  1  0
 19 76  1  0
 20 77  1  0
 23 78  1  0
 24 79  1  0
 25 80  1  0
 26 81  1  0
 26 82  1  0
 27 83  1  0
 27 84  1  0
 28 85  1  0
 28 86  1  0
 33 87  1  0
 34 88  1  6
 35 89  1  0
 35 90  1  0
 36 91  1  1
 37 92  1  0
 38 93  1  0
 39 94  1  0
 44 95  1  0
 45 96  1  0
 46 97  1  0
 47 98  1  0
 51 99  1  0
 52100  1  0
 55101  1  0
 56102  1  0
 57103  1  0
 58104  1  0
 58105  1  0
 59106  1  0
 59107  1  0
 60108  1  0
 60109  1  0
M  CHG  3  31  -1  32   2  63  -1
M  END
> <Uni-Dock RESULT> 
ENERGY=   -6.320  LOWER_BOUND=    3.400  UPPER_BOUND=    8.160
INTER + INTRA:          -6.320
INTER:                  -6.320
INTRA:                   0.000
UNBOUND:                 0.000

$$$$

     RDKit          3D

109114  0  0  0  0  0  0  0  0999 V2000
   49.9520    5.6389   18.4762 O   0  0  0  0  0  0  0  0  0  0  0  0
   48.5282    5.6476   18.3669 C   0  0  2  0  0  0  0  0  0  0  0  0
   48.0056    7.0568   18.0384 C   0  0  0  0  0  0  0  0  0  0  0  0
   48.7002    8.2443   18.7150 C   0  0  2  0  0  0  0  0  0  0  0  0
   48.2579    8.4219   20.0508 O   0  0  0  0  0  0  0  0  0  0  0  0
   48.3107    9.5153   18.0113 C   0  0  0  0  0  0  0  0  0  0  0  0
   49.1849   10.3737   17.4644 C   0  0  0  0  0  0  0  0  0  0  0  0
   48.7698   11.6228   16.8005 C   0  0  0  0  0  0  0  0  0  0  0  0
   48.2509   12.6969   17.5449 C   0  0  0  0  0  0  0  0  0  0  0  0
   47.8777   13.8565   16.9402 N   0  0  0  0  0  0  0  0  0  0  0  0
   47.9936   13.9952   15.6147 C   0  0  0  0  0  0  0  0  0  0  0  0
   47.5856   15.1994   15.0567 C   0  0  0  0  0  0  0  0  0  0  0  0
   47.6701   15.4453   13.6863 C   0  0  0  0  0  0  0  0  0  0  0  0
   48.1694   14.4614   12.8469 C   0  0  0  0  0  0  0  0  0  0  0  0
   48.5760   13.2401   13.3845 C   0  0  0  0  0  0  0  0  0  0  0  0
   48.5020   12.9847   14.7798 C   0  0  0  0  0  0  0  0  0  0  0  0
   48.9082   11.7682   15.3985 C   0  0  0  0  0  0  0  0  0  0  0  0
   49.4516   10.6657   14.5813 C   0  0  0  0  0  0  0  0  0  0  0  0
   50.8032   10.6606   14.1994 C   0  0  0  0  0  0  0  0  0  0  0  0
   51.3127    9.6244   13.4161 C   0  0  0  0  0  0  0  0  0  0  0  0
   50.4782    8.5836   13.0259 C   0  0  0  0  0  0  0  0  0  0  0  0
   50.9713    7.5912   12.2740 F   0  0  0  0  0  0  0  0  0  0  0  0
   49.1399    8.5665   13.3932 C   0  0  0  0  0  0  0  0  0  0  0  0
   48.6249    9.6054   14.1694 C   0  0  0  0  0  0  0  0  0  0  0  0
   48.0575   12.6341   19.0533 C   0  0  0  0  0  0  0  0  0  0  0  0
   49.2579   12.6827   19.9725 C   0  0  0  0  0  0  0  0  0  0  0  0
   48.3214   13.8496   19.9175 C   0  0  0  0  0  0  0  0  0  0  0  0
   47.8709    4.9282   19.5400 C   0  0  0  0  0  0  0  0  0  0  0  0
   48.2474    5.3949   20.9380 C   0  0  0  0  0  0  0  0  0  0  0  0
   47.5700    4.9074   21.8786 O   0  0  0  0  0  0  0  0  0  0  0  0
   49.2079    6.2249   20.9767 O   0  0  0  0  0  0  0  0  0  0  0  0
   48.7331   10.1732   16.9059 Ca  0  0  0  0  0 15  0  0  0  0  0  0
   48.0373    6.2213   20.8434 O   0  0  0  0  0  0  0  0  0  0  0  0
   48.7472    6.1948   19.5934 C   0  0  2  0  0  0  0  0  0  0  0  0
   48.6549    7.6053   18.9987 C   0  0  0  0  0  0  0  0  0  0  0  0
   49.4161    7.8023   17.6790 C   0  0  2  0  0  0  0  0  0  0  0  0
   50.7742    7.3880   17.8226 O   0  0  0  0  0  0  0  0  0  0  0  0
   49.4777    9.2332   17.2095 C   0  0  0  0  0  0  0  0  0  0  0  0
   48.4984   10.1449   17.3219 C   0  0  0  0  0  0  0  0  0  0  0  0
   48.6052   11.5592   16.9038 C   0  0  0  0  0  0  0  0  0  0  0  0
   48.3409   12.5507   17.8699 C   0  0  0  0  0  0  0  0  0  0  0  0
   48.4092   13.8732   17.5707 N   0  0  0  0  0  0  0  0  0  0  0  0
   48.7027   14.2574   16.3258 C   0  0  0  0  0  0  0  0  0  0  0  0
   48.7497   15.6214   16.0740 C   0  0  0  0  0  0  0  0  0  0  0  0
   49.0322   16.1316   14.8064 C   0  0  0  0  0  0  0  0  0  0  0  0
   49.2711   15.2590   13.7596 C   0  0  0  0  0  0  0  0  0  0  0  0
   49.2284   13.8835   13.9927 C   0  0  0  0  0  0  0  0  0  0  0  0
   48.9522   13.3503   15.2786 C   0  0  0  0  0  0  0  0  0  0  0  0
   48.9088   11.9591   15.5805 C   0  0  0  0  0  0  0  0  0  0  0  0
   49.1766   10.9610   14.5191 C   0  0  0  0  0  0  0  0  0  0  0  0
   50.4881   10.7551   14.0469 C   0  0  0  0  0  0  0  0  0  0  0  0
   50.7472    9.8223   13.0404 C   0  0  0  0  0  0  0  0  0  0  0  0
   49.7001    9.0816   12.5098 C   0  0  0  0  0  0  0  0  0  0  0  0
   49.9477    8.1815   11.5469 F   0  0  0  0  0  0  0  0  0  0  0  0
   48.3994    9.2576   12.9629 C   0  0  0  0  0  0  0  0  0  0  0  0
   48.1374   10.1980   13.9622 C   0  0  0  0  0  0  0  0  0  0  0  0
   47.9785   12.1958   19.3077 C   0  0  0  0  0  0  0  0  0  0  0  0
   46.5289   11.9260   19.6610 C   0  0  0  0  0  0  0  0  0  0  0  0
   47.2037   13.1579   20.1781 C   0  0  0  0  0  0  0  0  0  0  0  0
   48.1248    5.1287   18.6986 C   0  0  0  0  0  0  0  0  0  0  0  0
   48.6087    3.7854   19.2363 C   0  0  0  0  0  0  0  0  0  0  0  0
   48.3554    3.5824   20.4603 O   0  0  0  0  0  0  0  0  0  0  0  0
   49.2195    3.0666   18.3943 O   0  0  0  0  0  0  0  0  0  0  0  0
   50.1192    5.8916   19.4212 H   0  0  0  0  0  0  0  0  0  0  0  0
   48.2952    5.0350   17.4891 H   0  0  0  0  0  0  0  0  0  0  0  0
   48.1416    7.1811   16.9524 H   0  0  0  0  0  0  0  0  0  0  0  0
   46.9257    7.0906   18.2290 H   0  0  0  0  0  0  0  0  0  0  0  0
   49.7889    8.1349   18.7207 H   0  0  0  0  0  0  0  0  0  0  0  0
   48.6724    7.6817   20.5673 H   0  0  0  0  0  0  0  0  0  0  0  0
   47.2455    9.7274   17.9889 H   0  0  0  0  0  0  0  0  0  0  0  0
   50.2499   10.1694   17.4935 H   0  0  0  0  0  0  0  0  0  0  0  0
   47.1898   15.9703   15.7141 H   0  0  0  0  0  0  0  0  0  0  0  0
   47.3333   16.3977   13.2833 H   0  0  0  0  0  0  0  0  0  0  0  0
   48.2350   14.6337   11.7759 H   0  0  0  0  0  0  0  0  0  0  0  0
   48.9562   12.4811   12.7023 H   0  0  0  0  0  0  0  0  0  0  0  0
   51.4606   11.4686   14.5120 H   0  0  0  0  0  0  0  0  0  0  0  0
   52.3548    9.6182   13.1166 H   0  0  0  0  0  0  0  0  0  0  0  0
   48.5049    7.7468   13.0765 H   0  0  0  0  0  0  0  0  0  0  0  0
   47.5780    9.5832   14.4650 H   0  0  0  0  0  0  0  0  0  0  0  0
   47.2251   12.0130   19.3802 H   0  0  0  0  0  0  0  0  0  0  0  0
   50.2435   12.7949   19.5340 H   0  0  0  0  0  0  0  0  0  0  0  0
   49.2333   12.0299   20.8394 H   0  0  0  0  0  0  0  0  0  0  0  0
   47.6716   14.0140   20.7708 H   0  0  0  0  0  0  0  0  0  0  0  0
   48.6694   14.7624   19.4469 H   0  0  0  0  0  0  0  0  0  0  0  0
   46.7769    4.9713   19.4344 H   0  0  0  0  0  0  0  0  0  0  0  0
   48.1575    3.8687   19.4932 H   0  0  0  0  0  0  0  0  0  0  0  0
   48.0163    5.2707   21.1209 H   0  0  0  0  0  0  0  0  0  0  0  0
   49.7905    5.9587   19.8295 H   0  0  0  0  0  0  0  0  0  0  0  0
   49.0451    8.3073   19.7512 H   0  0  0  0  0  0  0  0  0  0  0  0
   47.5963    7.8720   18.8775 H   0  0  0  0  0  0  0  0  0  0  0  0
   48.9670    7.2127   16.8746 H   0  0  0  0  0  0  0  0  0  0  0  0
   50.7706    6.4129   17.8585 H   0  0  0  0  0  0  0  0  0  0  0  0
   50.4198    9.5189   16.7448 H   0  0  0  0  0  0  0  0  0  0  0  0
   47.5582    9.8774   17.7909 H   0  0  0  0  0  0  0  0  0  0  0  0
   48.5652   16.3101   16.8957 H   0  0  0  0  0  0  0  0  0  0  0  0
   49.0697   17.2073   14.6474 H   0  0  0  0  0  0  0  0  0  0  0  0
   49.4788   15.6350   12.7623 H   0  0  0  0  0  0  0  0  0  0  0  0
   49.4055   13.2236   13.1466 H   0  0  0  0  0  0  0  0  0  0  0  0
   51.3189   11.3192   14.4684 H   0  0  0  0  0  0  0  0  0  0  0  0
   51.7576    9.6511   12.6837 H   0  0  0  0  0  0  0  0  0  0  0  0
   47.6001    8.6506   12.5499 H   0  0  0  0  0  0  0  0  0  0  0  0
   47.1181   10.3292   14.3133 H   0  0  0  0  0  0  0  0  0  0  0  0
   48.7220   11.5938   19.8271 H   0  0  0  0  0  0  0  0  0  0  0  0
   45.7840   12.0544   18.8863 H   0  0  0  0  0  0  0  0  0  0  0  0
   46.3220   11.1177   20.3566 H   0  0  0  0  0  0  0  0  0  0  0  0
   46.9194   14.1161   19.7571 H   0  0  0  0  0  0  0  0  0  0  0  0
   47.4697   13.2002   21.2260 H   0  0  0  0  0  0  0  0  0  0  0  0
   47.0309    5.1577   18.7400 H   0  0  0  0  0  0  0  0  0  0  0  0
   48.4379    5.2213   17.6548 H   0  0  0  0  0  0  0  0  0  0  0  0
  2  1  1  0
  2  3  1  0
  3  4  1  0
  4  5  1  0
  4  6  1  0
  6  7  2  0
  7  8  1  0
  8  9  2  0
  9 10  1  0
 10 11  2  0
 11 12  1  0
 12 13  2  0
 13 14  1  0
 14 15  2  0
 15 16  1  0
 11 16  1  0
 16 17  2  0
  8 17  1  0
 17 18  1  0
 18 19  2  0
 19 20  1  0
 20 21  2  0
 21 22  1  0
 21 23  1  0
 23 24  2  0
 18 24  1  0
  9 25  1  0
 25 26  1  0
 26 27  1  0
 25 27  1  0
  2 28  1  0
 28 29  1  0
 29 30  2  0
 29 31  1  0
 34 33  1  0
 34 35  1  0
 35 36  1  0
 36 37  1  0
 36 38  1  0
 38 39  2  0
 39 40  1  0
 40 41  2  0
 41 42  1  0
 42 43  2  0
 43 44  1  0
 44 45  2  0
 45 46  1  0
 46 47  2  0
 47 48  1  0
 43 48  1  0
 48 49  2  0
 40 49  1  0
 49 50  1  0
 50 51  2  0
 51 52  1  0
 52 53  2  0
 53 54  1  0
 53 55  1  0
 55 56  2  0
 50 56  1  0
 41 57  1  0
 57 58  1  0
 58 59  1  0
 57 59  1  0
 34 60  1  0
 60 61  1  0
 61 62  2  0
 61 63  1  0
  1 64  1  0
  2 65  1  1
  3 66  1  0
  3 67  1  0
  4 68  1  6
  5 69  1  0
  6 70  1  0
  7 71  1  0
 12 72  1  0
 13 73  1  0
 14 74  1  0
 15 75  1  0
 19 76  1  0
 20 77  1  0
 23 78  1  0
 24 79  1  0
 25 80  1  0
 26 81  1  0
 26 82  1  0
 27 83  1  0
 27 84  1  0
 28 85  1  0
 28 86  1  0
 33 87  1  0
 34 88  1  6
 35 89  1  0
 35 90  1  0
 36 91  1  1
 37 92  1  0
 38 93  1  0
 39 94  1  0
 44 95  1  0
 45 96  1  0
 46 97  1  0
 47 98  1  0
 51 99  1  0
 52100  1  0
 55101  1  0
 56102  1  0
 57103  1  0
 58104  1  0
 58105  1  0
 59106  1  0
 59107  1  0
 60108  1  0
 60109  1  0
M  CHG  3  31  -1  32   2  63  -1
M  END
> <Uni-Dock RESULT> 
ENERGY=   -6.290  LOWER_BOUND=    3.358  UPPER_BOUND=    7.606
INTER + INTRA:          -6.290
INTER:                  -6.290
INTRA:                   0.000
UNBOUND:                 0.000

$$$$
