
     RDKit          3D

109114  0  0  0  0  0  0  0  0999 V2000
   52.4057   12.1951   18.2252 O   0  0  0  0  0  0  0  0  0  0  0  0
   53.2057   11.9728   17.0626 C   0  0  2  0  0  0  0  0  0  0  0  0
   52.9582   10.5357   16.5855 C   0  0  0  0  0  0  0  0  0  0  0  0
   53.4116    9.4536   17.5726 C   0  0  2  0  0  0  0  0  0  0  0  0
   54.7969    9.1677   17.3739 O   0  0  0  0  0  0  0  0  0  0  0  0
   52.6983    8.1480   17.3173 C   0  0  0  0  0  0  0  0  0  0  0  0
   51.9686    7.5117   18.2489 C   0  0  0  0  0  0  0  0  0  0  0  0
   51.2612    6.2450   17.9812 C   0  0  0  0  0  0  0  0  0  0  0  0
   51.9730    5.0575   17.7331 C   0  0  0  0  0  0  0  0  0  0  0  0
   51.3314    3.8890   17.4513 N   0  0  0  0  0  0  0  0  0  0  0  0
   49.9942    3.8449   17.4341 C   0  0  0  0  0  0  0  0  0  0  0  0
   49.3805    2.6288   17.1470 C   0  0  0  0  0  0  0  0  0  0  0  0
   47.9904    2.4957   17.0978 C   0  0  0  0  0  0  0  0  0  0  0  0
   47.1889    3.6020   17.3391 C   0  0  0  0  0  0  0  0  0  0  0  0
   47.7815    4.8318   17.6210 C   0  0  0  0  0  0  0  0  0  0  0  0
   49.1911    4.9787   17.6823 C   0  0  0  0  0  0  0  0  0  0  0  0
   49.8457    6.2083   17.9742 C   0  0  0  0  0  0  0  0  0  0  0  0
   49.0616    7.4285   18.2795 C   0  0  0  0  0  0  0  0  0  0  0  0
   48.5169    7.6305   19.5620 C   0  0  0  0  0  0  0  0  0  0  0  0
   47.7641    8.7737   19.8428 C   0  0  0  0  0  0  0  0  0  0  0  0
   47.5596    9.7194   18.8453 C   0  0  0  0  0  0  0  0  0  0  0  0
   46.8098   10.7997   19.1071 F   0  0  0  0  0  0  0  0  0  0  0  0
   48.0972    9.5494   17.5764 C   0  0  0  0  0  0  0  0  0  0  0  0
   48.8437    8.4040   17.2917 C   0  0  0  0  0  0  0  0  0  0  0  0
   53.4915    4.9997   17.7575 C   0  0  0  0  0  0  0  0  0  0  0  0
   54.1956    3.8226   18.4013 C   0  0  0  0  0  0  0  0  0  0  0  0
   54.2523    5.1697   19.0522 C   0  0  0  0  0  0  0  0  0  0  0  0
   54.6589   12.2790   17.3843 C   0  0  0  0  0  0  0  0  0  0  0  0
   54.8549   13.7824   17.5579 C   0  0  0  0  0  0  0  0  0  0  0  0
   53.8642   14.4061   18.0460 O   0  0  0  0  0  0  0  0  0  0  0  0
   55.9927   14.2110   17.2197 O   0  0  0  0  0  0  0  0  0  0  0  0
   51.4321    7.7728   17.9874 Ca  0  0  0  0  0 15  0  0  0  0  0  0
   56.5262   10.3660   18.5046 O   0  0  0  0  0  0  0  0  0  0  0  0
   55.2255   10.9563   18.6930 C   0  0  2  0  0  0  0  0  0  0  0  0
   54.2052   10.0782   17.9503 C   0  0  0  0  0  0  0  0  0  0  0  0
   53.7825    8.8913   18.8204 C   0  0  2  0  0  0  0  0  0  0  0  0
   54.9086    8.0510   19.0948 O   0  0  0  0  0  0  0  0  0  0  0  0
   52.7588    8.0431   18.1251 C   0  0  0  0  0  0  0  0  0  0  0  0
   51.4380    8.1522   18.3389 C   0  0  0  0  0  0  0  0  0  0  0  0
   50.4539    7.3080   17.6359 C   0  0  0  0  0  0  0  0  0  0  0  0
   50.1650    7.5138   16.2731 C   0  0  0  0  0  0  0  0  0  0  0  0
   49.2692    6.7271   15.6198 N   0  0  0  0  0  0  0  0  0  0  0  0
   48.6511    5.7269   16.2677 C   0  0  0  0  0  0  0  0  0  0  0  0
   47.7676    4.9344   15.5460 C   0  0  0  0  0  0  0  0  0  0  0  0
   47.0540    3.8910   16.1352 C   0  0  0  0  0  0  0  0  0  0  0  0
   47.2244    3.6200   17.4828 C   0  0  0  0  0  0  0  0  0  0  0  0
   48.1203    4.3877   18.2190 C   0  0  0  0  0  0  0  0  0  0  0  0
   48.8540    5.4525   17.6310 C   0  0  0  0  0  0  0  0  0  0  0  0
   49.7773    6.2767   18.3332 C   0  0  0  0  0  0  0  0  0  0  0  0
   50.0255    6.0638   19.7752 C   0  0  0  0  0  0  0  0  0  0  0  0
   49.3177    6.7975   20.7436 C   0  0  0  0  0  0  0  0  0  0  0  0
   49.5347    6.5788   22.1059 C   0  0  0  0  0  0  0  0  0  0  0  0
   50.4627    5.6249   22.5026 C   0  0  0  0  0  0  0  0  0  0  0  0
   50.6657    5.4062   23.8094 F   0  0  0  0  0  0  0  0  0  0  0  0
   51.1866    4.8951   21.5674 C   0  0  0  0  0  0  0  0  0  0  0  0
   50.9691    5.1135   20.2058 C   0  0  0  0  0  0  0  0  0  0  0  0
   50.7948    8.6428   15.4691 C   0  0  0  0  0  0  0  0  0  0  0  0
   52.1303    8.4337   14.7904 C   0  0  0  0  0  0  0  0  0  0  0  0
   50.8913    8.5578   13.9573 C   0  0  0  0  0  0  0  0  0  0  0  0
   55.2621   12.3903   18.1769 C   0  0  0  0  0  0  0  0  0  0  0  0
   53.9872   13.1658   18.5040 C   0  0  0  0  0  0  0  0  0  0  0  0
   53.2484   12.6736   19.4096 O   0  0  0  0  0  0  0  0  0  0  0  0
   53.8139   14.2155   17.8250 O   0  0  0  0  0  0  0  0  0  0  0  0
   52.6156   13.1384   18.4579 H   0  0  0  0  0  0  0  0  0  0  0  0
   52.8302   12.6463   16.2832 H   0  0  0  0  0  0  0  0  0  0  0  0
   53.4587   10.4025   15.6207 H   0  0  0  0  0  0  0  0  0  0  0  0
   51.8828   10.4224   16.4149 H   0  0  0  0  0  0  0  0  0  0  0  0
   53.2633    9.7701   18.6140 H   0  0  0  0  0  0  0  0  0  0  0  0
   55.2741    9.7194   18.0261 H   0  0  0  0  0  0  0  0  0  0  0  0
   52.8179    7.7355   16.3131 H   0  0  0  0  0  0  0  0  0  0  0  0
   51.8335    7.9437   19.2389 H   0  0  0  0  0  0  0  0  0  0  0  0
   50.0059    1.7611   16.9429 H   0  0  0  0  0  0  0  0  0  0  0  0
   47.5440    1.5330   16.8643 H   0  0  0  0  0  0  0  0  0  0  0  0
   46.1056    3.5179   17.2974 H   0  0  0  0  0  0  0  0  0  0  0  0
   47.1281    5.6895   17.7862 H   0  0  0  0  0  0  0  0  0  0  0  0
   48.6864    6.9017   20.3523 H   0  0  0  0  0  0  0  0  0  0  0  0
   47.3427    8.9350   20.8286 H   0  0  0  0  0  0  0  0  0  0  0  0
   47.9377   10.3089   16.8189 H   0  0  0  0  0  0  0  0  0  0  0  0
   49.2743    8.2771   16.2999 H   0  0  0  0  0  0  0  0  0  0  0  0
   53.9692    5.3887   16.8602 H   0  0  0  0  0  0  0  0  0  0  0  0
   55.0861    3.4482   17.9109 H   0  0  0  0  0  0  0  0  0  0  0  0
   53.5899    3.0563   18.8736 H   0  0  0  0  0  0  0  0  0  0  0  0
   53.7065    5.3067   19.9774 H   0  0  0  0  0  0  0  0  0  0  0  0
   55.1848    5.7199   19.0062 H   0  0  0  0  0  0  0  0  0  0  0  0
   54.9723   11.8176   18.3271 H   0  0  0  0  0  0  0  0  0  0  0  0
   55.3044   11.9239   16.5740 H   0  0  0  0  0  0  0  0  0  0  0  0
   56.4005    9.4160   18.7104 H   0  0  0  0  0  0  0  0  0  0  0  0
   55.0328   10.9548   19.7743 H   0  0  0  0  0  0  0  0  0  0  0  0
   53.3148   10.6598   17.6785 H   0  0  0  0  0  0  0  0  0  0  0  0
   54.6559    9.7147   17.0174 H   0  0  0  0  0  0  0  0  0  0  0  0
   53.3965    9.2617   19.7809 H   0  0  0  0  0  0  0  0  0  0  0  0
   54.5729    7.3545   19.6855 H   0  0  0  0  0  0  0  0  0  0  0  0
   53.1453    7.3463   17.3838 H   0  0  0  0  0  0  0  0  0  0  0  0
   51.0436    8.8669   19.0602 H   0  0  0  0  0  0  0  0  0  0  0  0
   47.6292    5.1344   14.4871 H   0  0  0  0  0  0  0  0  0  0  0  0
   46.3602    3.3043   15.5443 H   0  0  0  0  0  0  0  0  0  0  0  0
   46.6755    2.8156   17.9606 H   0  0  0  0  0  0  0  0  0  0  0  0
   48.2494    4.1513   19.2726 H   0  0  0  0  0  0  0  0  0  0  0  0
   48.5909    7.5453   20.4366 H   0  0  0  0  0  0  0  0  0  0  0  0
   48.9871    7.1424   22.8557 H   0  0  0  0  0  0  0  0  0  0  0  0
   51.9163    4.1635   21.9050 H   0  0  0  0  0  0  0  0  0  0  0  0
   51.5355    4.5405   19.4751 H   0  0  0  0  0  0  0  0  0  0  0  0
   50.5974    9.6427   15.8650 H   0  0  0  0  0  0  0  0  0  0  0  0
   52.6009    7.4612   14.8547 H   0  0  0  0  0  0  0  0  0  0  0  0
   52.8273    9.2623   14.8096 H   0  0  0  0  0  0  0  0  0  0  0  0
   50.5136    7.6714   13.4658 H   0  0  0  0  0  0  0  0  0  0  0  0
   50.7471    9.4798   13.4039 H   0  0  0  0  0  0  0  0  0  0  0  0
   55.4457   12.4063   17.0954 H   0  0  0  0  0  0  0  0  0  0  0  0
   56.1026   12.9221   18.6390 H   0  0  0  0  0  0  0  0  0  0  0  0
  2  1  1  0
  2  3  1  0
  3  4  1  0
  4  5  1  0
  4  6  1  0
  6  7  2  0
  7  8  1  0
  8  9  2  0
  9 10  1  0
 10 11  2  0
 11 12  1  0
 12 13  2  0
 13 14  1  0
 14 15  2  0
 15 16  1  0
 11 16  1  0
 16 17  2  0
  8 17  1  0
 17 18  1  0
 18 19  2  0
 19 20  1  0
 20 21  2  0
 21 22  1  0
 21 23  1  0
 23 24  2  0
 18 24  1  0
  9 25  1  0
 25 26  1  0
 26 27  1  0
 25 27  1  0
  2 28  1  0
 28 29  1  0
 29 30  2  0
 29 31  1  0
 34 33  1  0
 34 35  1  0
 35 36  1  0
 36 37  1  0
 36 38  1  0
 38 39  2  0
 39 40  1  0
 40 41  2  0
 41 42  1  0
 42 43  2  0
 43 44  1  0
 44 45  2  0
 45 46  1  0
 46 47  2  0
 47 48  1  0
 43 48  1  0
 48 49  2  0
 40 49  1  0
 49 50  1  0
 50 51  2  0
 51 52  1  0
 52 53  2  0
 53 54  1  0
 53 55  1  0
 55 56  2  0
 50 56  1  0
 41 57  1  0
 57 58  1  0
 58 59  1  0
 57 59  1  0
 34 60  1  0
 60 61  1  0
 61 62  2  0
 61 63  1  0
  1 64  1  0
  2 65  1  6
  3 66  1  0
  3 67  1  0
  4 68  1  1
  5 69  1  0
  6 70  1  0
  7 71  1  0
 12 72  1  0
 13 73  1  0
 14 74  1  0
 15 75  1  0
 19 76  1  0
 20 77  1  0
 23 78  1  0
 24 79  1  0
 25 80  1  0
 26 81  1  0
 26 82  1  0
 27 83  1  0
 27 84  1  0
 28 85  1  0
 28 86  1  0
 33 87  1  0
 34 88  1  1
 35 89  1  0
 35 90  1  0
 36 91  1  1
 37 92  1  0
 38 93  1  0
 39 94  1  0
 44 95  1  0
 45 96  1  0
 46 97  1  0
 47 98  1  0
 51 99  1  0
 52100  1  0
 55101  1  0
 56102  1  0
 57103  1  0
 58104  1  0
 58105  1  0
 59106  1  0
 59107  1  0
 60108  1  0
 60109  1  0
M  CHG  3  31  -1  32   2  63  -1
M  END
> <Uni-Dock RESULT> 
ENERGY=   -6.255  LOWER_BOUND=    0.000  UPPER_BOUND=    0.000
INTER + INTRA:          -6.255
INTER:                  -6.255
INTRA:                   0.000
UNBOUND:                 0.000

$$$$

     RDKit          3D

109114  0  0  0  0  0  0  0  0999 V2000
   52.4234   12.1995   18.2741 O   0  0  0  0  0  0  0  0  0  0  0  0
   53.2424   11.9708   17.1261 C   0  0  2  0  0  0  0  0  0  0  0  0
   52.9971   10.5336   16.6485 C   0  0  0  0  0  0  0  0  0  0  0  0
   53.4287    9.4522   17.6460 C   0  0  2  0  0  0  0  0  0  0  0  0
   54.8160    9.1599   17.4719 O   0  0  0  0  0  0  0  0  0  0  0  0
   52.7144    8.1489   17.3817 C   0  0  0  0  0  0  0  0  0  0  0  0
   51.9661    7.5182   18.3023 C   0  0  0  0  0  0  0  0  0  0  0  0
   51.2580    6.2537   18.0256 C   0  0  0  0  0  0  0  0  0  0  0  0
   51.9689    5.0626   17.7928 C   0  0  0  0  0  0  0  0  0  0  0  0
   51.3272    3.8961   17.5030 N   0  0  0  0  0  0  0  0  0  0  0  0
   49.9904    3.8576   17.4628 C   0  0  0  0  0  0  0  0  0  0  0  0
   49.3765    2.6434   17.1683 C   0  0  0  0  0  0  0  0  0  0  0  0
   47.9869    2.5160   17.0955 C   0  0  0  0  0  0  0  0  0  0  0  0
   47.1861    3.6263   17.3201 C   0  0  0  0  0  0  0  0  0  0  0  0
   47.7790    4.8543   17.6091 C   0  0  0  0  0  0  0  0  0  0  0  0
   49.1880    4.9955   17.6943 C   0  0  0  0  0  0  0  0  0  0  0  0
   49.8427    6.2230   17.9943 C   0  0  0  0  0  0  0  0  0  0  0  0
   49.0586    7.4473   18.2830 C   0  0  0  0  0  0  0  0  0  0  0  0
   48.4927    7.6549   19.5553 C   0  0  0  0  0  0  0  0  0  0  0  0
   47.7402    8.8020   19.8202 C   0  0  0  0  0  0  0  0  0  0  0  0
   47.5569    9.7460   18.8170 C   0  0  0  0  0  0  0  0  0  0  0  0
   46.8073   10.8301   19.0630 F   0  0  0  0  0  0  0  0  0  0  0  0
   48.1156    9.5704   17.5580 C   0  0  0  0  0  0  0  0  0  0  0  0
   48.8619    8.4211   17.2891 C   0  0  0  0  0  0  0  0  0  0  0  0
   53.4865    4.9985   17.8436 C   0  0  0  0  0  0  0  0  0  0  0  0
   54.1744    3.8201   18.5024 C   0  0  0  0  0  0  0  0  0  0  0  0
   54.2255    5.1687   19.1508 C   0  0  0  0  0  0  0  0  0  0  0  0
   54.6912   12.2718   17.4720 C   0  0  0  0  0  0  0  0  0  0  0  0
   54.8905   13.7748   17.6451 C   0  0  0  0  0  0  0  0  0  0  0  0
   53.8943   14.4039   18.1145 O   0  0  0  0  0  0  0  0  0  0  0  0
   56.0359   14.1977   17.3256 O   0  0  0  0  0  0  0  0  0  0  0  0
   51.4352    7.7808   18.0308 Ca  0  0  0  0  0 15  0  0  0  0  0  0
   56.5307   10.3538   18.6292 O   0  0  0  0  0  0  0  0  0  0  0  0
   55.2295   10.9501   18.7937 C   0  0  2  0  0  0  0  0  0  0  0  0
   54.2184   10.0744   18.0357 C   0  0  0  0  0  0  0  0  0  0  0  0
   53.7758    8.8916   18.9014 C   0  0  2  0  0  0  0  0  0  0  0  0
   54.8933    8.0472   19.1973 O   0  0  0  0  0  0  0  0  0  0  0  0
   52.7606    8.0459   18.1908 C   0  0  0  0  0  0  0  0  0  0  0  0
   51.4367    8.1611   18.3814 C   0  0  0  0  0  0  0  0  0  0  0  0
   50.4613    7.3192   17.6638 C   0  0  0  0  0  0  0  0  0  0  0  0
   50.1968    7.5227   16.2957 C   0  0  0  0  0  0  0  0  0  0  0  0
   49.3090    6.7381   15.6290 N   0  0  0  0  0  0  0  0  0  0  0  0
   48.6756    5.7421   16.2687 C   0  0  0  0  0  0  0  0  0  0  0  0
   47.8012    4.9515   15.5339 C   0  0  0  0  0  0  0  0  0  0  0  0
   47.0732    3.9127   16.1133 C   0  0  0  0  0  0  0  0  0  0  0  0
   47.2192    3.6445   17.4644 C   0  0  0  0  0  0  0  0  0  0  0  0
   48.1055    4.4103   18.2140 C   0  0  0  0  0  0  0  0  0  0  0  0
   48.8539    5.4705   17.6360 C   0  0  0  0  0  0  0  0  0  0  0  0
   49.7683    6.2926   18.3519 C   0  0  0  0  0  0  0  0  0  0  0  0
   49.9908    6.0824   19.7985 C   0  0  0  0  0  0  0  0  0  0  0  0
   49.2695    6.8216   20.7527 C   0  0  0  0  0  0  0  0  0  0  0  0
   49.4621    6.6056   22.1190 C   0  0  0  0  0  0  0  0  0  0  0  0
   50.3790    5.6488   22.5341 C   0  0  0  0  0  0  0  0  0  0  0  0
   50.5586    5.4327   23.8448 F   0  0  0  0  0  0  0  0  0  0  0  0
   51.1159    4.9136   21.6134 C   0  0  0  0  0  0  0  0  0  0  0  0
   50.9228    5.1293   20.2477 C   0  0  0  0  0  0  0  0  0  0  0  0
   50.8451    8.6469   15.4998 C   0  0  0  0  0  0  0  0  0  0  0  0
   52.1913    8.4304   14.8447 C   0  0  0  0  0  0  0  0  0  0  0  0
   50.9673    8.5576   13.9901 C   0  0  0  0  0  0  0  0  0  0  0  0
   55.2810   12.3826   18.2746 C   0  0  0  0  0  0  0  0  0  0  0  0
   54.0041   13.1644   18.5777 C   0  0  0  0  0  0  0  0  0  0  0  0
   53.2477   12.6776   19.4717 O   0  0  0  0  0  0  0  0  0  0  0  0
   53.8470   14.2130   17.8932 O   0  0  0  0  0  0  0  0  0  0  0  0
   52.6333   13.1426   18.5080 H   0  0  0  0  0  0  0  0  0  0  0  0
   52.8833   12.6439   16.3386 H   0  0  0  0  0  0  0  0  0  0  0  0
   53.5135   10.3958   15.6928 H   0  0  0  0  0  0  0  0  0  0  0  0
   51.9243   10.4244   16.4596 H   0  0  0  0  0  0  0  0  0  0  0  0
   53.2639    9.7720   18.6839 H   0  0  0  0  0  0  0  0  0  0  0  0
   55.2843    9.7113   18.1308 H   0  0  0  0  0  0  0  0  0  0  0  0
   52.8495    7.7333   16.3808 H   0  0  0  0  0  0  0  0  0  0  0  0
   51.8158    7.9533   19.2886 H   0  0  0  0  0  0  0  0  0  0  0  0
   50.0017    1.7725   16.9772 H   0  0  0  0  0  0  0  0  0  0  0  0
   47.5405    1.5546   16.8568 H   0  0  0  0  0  0  0  0  0  0  0  0
   46.1033    3.5466   17.2599 H   0  0  0  0  0  0  0  0  0  0  0  0
   47.1265    5.7152   17.7608 H   0  0  0  0  0  0  0  0  0  0  0  0
   48.6456    6.9275   20.3503 H   0  0  0  0  0  0  0  0  0  0  0  0
   47.3026    8.9677   20.7982 H   0  0  0  0  0  0  0  0  0  0  0  0
   47.9723   10.3286   16.7958 H   0  0  0  0  0  0  0  0  0  0  0  0
   49.3090    8.2898   16.3052 H   0  0  0  0  0  0  0  0  0  0  0  0
   53.9812    5.3831   16.9536 H   0  0  0  0  0  0  0  0  0  0  0  0
   55.0715    3.4406   18.0283 H   0  0  0  0  0  0  0  0  0  0  0  0
   53.5573    3.0576   18.9661 H   0  0  0  0  0  0  0  0  0  0  0  0
   53.6645    5.3104   20.0660 H   0  0  0  0  0  0  0  0  0  0  0  0
   55.1610    5.7148   19.1194 H   0  0  0  0  0  0  0  0  0  0  0  0
   54.9863   11.8115   18.4213 H   0  0  0  0  0  0  0  0  0  0  0  0
   55.3490   11.9118   16.6738 H   0  0  0  0  0  0  0  0  0  0  0  0
   56.3974    9.4050   18.8353 H   0  0  0  0  0  0  0  0  0  0  0  0
   55.0182   10.9523   19.8715 H   0  0  0  0  0  0  0  0  0  0  0  0
   53.3352   10.6591   17.7472 H   0  0  0  0  0  0  0  0  0  0  0  0
   54.6835    9.7065   17.1116 H   0  0  0  0  0  0  0  0  0  0  0  0
   53.3748    9.2661   19.8542 H   0  0  0  0  0  0  0  0  0  0  0  0
   54.5445    7.3537   19.7839 H   0  0  0  0  0  0  0  0  0  0  0  0
   53.1567    7.3456   17.4580 H   0  0  0  0  0  0  0  0  0  0  0  0
   51.0330    8.8793   19.0940 H   0  0  0  0  0  0  0  0  0  0  0  0
   47.6820    5.1493   14.4722 H   0  0  0  0  0  0  0  0  0  0  0  0
   46.3872    3.3274   15.5121 H   0  0  0  0  0  0  0  0  0  0  0  0
   46.6587    2.8437   17.9347 H   0  0  0  0  0  0  0  0  0  0  0  0
   48.2154    4.1762   19.2702 H   0  0  0  0  0  0  0  0  0  0  0  0
   48.5514    7.5717   20.4313 H   0  0  0  0  0  0  0  0  0  0  0  0
   48.9041    7.1735   22.8579 H   0  0  0  0  0  0  0  0  0  0  0  0
   51.8365    4.1798   21.9654 H   0  0  0  0  0  0  0  0  0  0  0  0
   51.4992    4.5520   19.5283 H   0  0  0  0  0  0  0  0  0  0  0  0
   50.6452    9.6487   15.8897 H   0  0  0  0  0  0  0  0  0  0  0  0
   52.6565    7.4561   14.9195 H   0  0  0  0  0  0  0  0  0  0  0  0
   52.8913    9.2561   14.8738 H   0  0  0  0  0  0  0  0  0  0  0  0
   50.5943    7.6715   13.4944 H   0  0  0  0  0  0  0  0  0  0  0  0
   50.8366    9.4787   13.4319 H   0  0  0  0  0  0  0  0  0  0  0  0
   55.4833   12.3950   17.1964 H   0  0  0  0  0  0  0  0  0  0  0  0
   56.1157   12.9120   18.7498 H   0  0  0  0  0  0  0  0  0  0  0  0
  2  1  1  0
  2  3  1  0
  3  4  1  0
  4  5  1  0
  4  6  1  0
  6  7  2  0
  7  8  1  0
  8  9  2  0
  9 10  1  0
 10 11  2  0
 11 12  1  0
 12 13  2  0
 13 14  1  0
 14 15  2  0
 15 16  1  0
 11 16  1  0
 16 17  2  0
  8 17  1  0
 17 18  1  0
 18 19  2  0
 19 20  1  0
 20 21  2  0
 21 22  1  0
 21 23  1  0
 23 24  2  0
 18 24  1  0
  9 25  1  0
 25 26  1  0
 26 27  1  0
 25 27  1  0
  2 28  1  0
 28 29  1  0
 29 30  2  0
 29 31  1  0
 34 33  1  0
 34 35  1  0
 35 36  1  0
 36 37  1  0
 36 38  1  0
 38 39  2  0
 39 40  1  0
 40 41  2  0
 41 42  1  0
 42 43  2  0
 43 44  1  0
 44 45  2  0
 45 46  1  0
 46 47  2  0
 47 48  1  0
 43 48  1  0
 48 49  2  0
 40 49  1  0
 49 50  1  0
 50 51  2  0
 51 52  1  0
 52 53  2  0
 53 54  1  0
 53 55  1  0
 55 56  2  0
 50 56  1  0
 41 57  1  0
 57 58  1  0
 58 59  1  0
 57 59  1  0
 34 60  1  0
 60 61  1  0
 61 62  2  0
 61 63  1  0
  1 64  1  0
  2 65  1  6
  3 66  1  0
  3 67  1  0
  4 68  1  1
  5 69  1  0
  6 70  1  0
  7 71  1  0
 12 72  1  0
 13 73  1  0
 14 74  1  0
 15 75  1  0
 19 76  1  0
 20 77  1  0
 23 78  1  0
 24 79  1  0
 25 80  1  0
 26 81  1  0
 26 82  1  0
 27 83  1  0
 27 84  1  0
 28 85  1  0
 28 86  1  0
 33 87  1  0
 34 88  1  1
 35 89  1  0
 35 90  1  0
 36 91  1  1
 37 92  1  0
 38 93  1  0
 39 94  1  0
 44 95  1  0
 45 96  1  0
 46 97  1  0
 47 98  1  0
 51 99  1  0
 52100  1  0
 55101  1  0
 56102  1  0
 57103  1  0
 58104  1  0
 58105  1  0
 59106  1  0
 59107  1  0
 60108  1  0
 60109  1  0
M  CHG  3  31  -1  32   2  63  -1
M  END
> <Uni-Dock RESULT> 
ENERGY=   -6.239  LOWER_BOUND=    0.067  UPPER_BOUND=    0.067
INTER + INTRA:          -6.239
INTER:                  -6.239
INTRA:                   0.000
UNBOUND:                 0.000

$$$$

     RDKit          3D

109114  0  0  0  0  0  0  0  0999 V2000
   48.7243    7.2549   14.3591 O   0  0  0  0  0  0  0  0  0  0  0  0
   49.9063    7.8720   13.8464 C   0  0  2  0  0  0  0  0  0  0  0  0
   50.9444    7.9171   14.9752 C   0  0  0  0  0  0  0  0  0  0  0  0
   50.5447    8.7924   16.1689 C   0  0  2  0  0  0  0  0  0  0  0  0
   50.9146   10.1492   15.9188 O   0  0  0  0  0  0  0  0  0  0  0  0
   51.3036    8.3990   17.4130 C   0  0  0  0  0  0  0  0  0  0  0  0
   50.7036    8.0259   18.5558 C   0  0  0  0  0  0  0  0  0  0  0  0
   51.4572    7.6262   19.7596 C   0  0  0  0  0  0  0  0  0  0  0  0
   52.2280    8.5610   20.4739 C   0  0  0  0  0  0  0  0  0  0  0  0
   52.9551    8.1967   21.5672 N   0  0  0  0  0  0  0  0  0  0  0  0
   52.9244    6.9318   22.0023 C   0  0  0  0  0  0  0  0  0  0  0  0
   53.6781    6.6052   23.1263 C   0  0  0  0  0  0  0  0  0  0  0  0
   53.7122    5.3068   23.6418 C   0  0  0  0  0  0  0  0  0  0  0  0
   52.9781    4.3060   23.0222 C   0  0  0  0  0  0  0  0  0  0  0  0
   52.2221    4.6081   21.8907 C   0  0  0  0  0  0  0  0  0  0  0  0
   52.1722    5.9236   21.3621 C   0  0  0  0  0  0  0  0  0  0  0  0
   51.4103    6.2867   20.2162 C   0  0  0  0  0  0  0  0  0  0  0  0
   50.5703    5.2846   19.5182 C   0  0  0  0  0  0  0  0  0  0  0  0
   49.3015    4.9363   20.0191 C   0  0  0  0  0  0  0  0  0  0  0  0
   48.5183    3.9793   19.3685 C   0  0  0  0  0  0  0  0  0  0  0  0
   48.9984    3.3736   18.2137 C   0  0  0  0  0  0  0  0  0  0  0  0
   48.2597    2.4320   17.6091 F   0  0  0  0  0  0  0  0  0  0  0  0
   50.2409    3.7094   17.6926 C   0  0  0  0  0  0  0  0  0  0  0  0
   51.0282    4.6602   18.3454 C   0  0  0  0  0  0  0  0  0  0  0  0
   52.3050   10.0255   20.0751 C   0  0  0  0  0  0  0  0  0  0  0  0
   52.2676   11.1043   21.1384 C   0  0  0  0  0  0  0  0  0  0  0  0
   51.1025   10.9303   20.2143 C   0  0  0  0  0  0  0  0  0  0  0  0
   49.5552    9.2337   13.2706 C   0  0  0  0  0  0  0  0  0  0  0  0
   48.7593    9.0705   11.9788 C   0  0  0  0  0  0  0  0  0  0  0  0
   48.0021    8.0541   11.9326 O   0  0  0  0  0  0  0  0  0  0  0  0
   48.9343    9.9871   11.1292 O   0  0  0  0  0  0  0  0  0  0  0  0
   50.8003    7.4040   18.3876 Ca  0  0  0  0  0 15  0  0  0  0  0  0
   49.4631   11.6881   14.8097 O   0  0  0  0  0  0  0  0  0  0  0  0
   48.9751   10.3332   14.7666 C   0  0  2  0  0  0  0  0  0  0  0  0
   49.9735    9.4554   15.5389 C   0  0  0  0  0  0  0  0  0  0  0  0
   49.6817    9.5030   17.0412 C   0  0  2  0  0  0  0  0  0  0  0  0
   49.8522   10.8347   17.5382 O   0  0  0  0  0  0  0  0  0  0  0  0
   50.6242    8.6226   17.8077 C   0  0  0  0  0  0  0  0  0  0  0  0
   50.3202    7.3744   18.1974 C   0  0  0  0  0  0  0  0  0  0  0  0
   51.2699    6.5295   18.9454 C   0  0  0  0  0  0  0  0  0  0  0  0
   52.3944    5.9672   18.3110 C   0  0  0  0  0  0  0  0  0  0  0  0
   53.2787    5.2003   19.0022 N   0  0  0  0  0  0  0  0  0  0  0  0
   53.0970    4.9763   20.3134 C   0  0  0  0  0  0  0  0  0  0  0  0
   54.0461    4.2108   20.9787 C   0  0  0  0  0  0  0  0  0  0  0  0
   53.9312    3.8967   22.3326 C   0  0  0  0  0  0  0  0  0  0  0  0
   52.8427    4.3600   23.0532 C   0  0  0  0  0  0  0  0  0  0  0  0
   51.8918    5.1461   22.4114 C   0  0  0  0  0  0  0  0  0  0  0  0
   51.9974    5.4742   21.0332 C   0  0  0  0  0  0  0  0  0  0  0  0
   51.0542    6.2662   20.3207 C   0  0  0  0  0  0  0  0  0  0  0  0
   49.8594    6.8052   21.0051 C   0  0  0  0  0  0  0  0  0  0  0  0
   48.6359    6.1131   20.9697 C   0  0  0  0  0  0  0  0  0  0  0  0
   47.5139    6.6101   21.6367 C   0  0  0  0  0  0  0  0  0  0  0  0
   47.6137    7.8030   22.3406 C   0  0  0  0  0  0  0  0  0  0  0  0
   46.5410    8.2771   22.9897 F   0  0  0  0  0  0  0  0  0  0  0  0
   48.8064    8.5152   22.3809 C   0  0  0  0  0  0  0  0  0  0  0  0
   49.9278    8.0179   21.7147 C   0  0  0  0  0  0  0  0  0  0  0  0
   52.6617    6.1428   16.8226 C   0  0  0  0  0  0  0  0  0  0  0  0
   53.4285    7.3500   16.3296 C   0  0  0  0  0  0  0  0  0  0  0  0
   54.0648    5.9952   16.2642 C   0  0  0  0  0  0  0  0  0  0  0  0
   48.8227    9.9166   13.3080 C   0  0  0  0  0  0  0  0  0  0  0  0
   48.1311    8.5635   13.1520 C   0  0  0  0  0  0  0  0  0  0  0  0
   47.4920    8.1407   14.1624 O   0  0  0  0  0  0  0  0  0  0  0  0
   48.2810    8.0161   12.0247 O   0  0  0  0  0  0  0  0  0  0  0  0
   48.1176    7.2566   13.5716 H   0  0  0  0  0  0  0  0  0  0  0  0
   50.2992    7.2099   13.0658 H   0  0  0  0  0  0  0  0  0  0  0  0
   51.8953    8.2607   14.5547 H   0  0  0  0  0  0  0  0  0  0  0  0
   51.0946    6.8924   15.3301 H   0  0  0  0  0  0  0  0  0  0  0  0
   49.4628    8.7511   16.3548 H   0  0  0  0  0  0  0  0  0  0  0  0
   50.1122   10.5768   15.5569 H   0  0  0  0  0  0  0  0  0  0  0  0
   52.3919    8.4438   17.3337 H   0  0  0  0  0  0  0  0  0  0  0  0
   49.6189    7.9590   18.6173 H   0  0  0  0  0  0  0  0  0  0  0  0
   54.2671    7.3846   23.6073 H   0  0  0  0  0  0  0  0  0  0  0  0
   54.3163    5.0847   24.5171 H   0  0  0  0  0  0  0  0  0  0  0  0
   52.9993    3.2886   23.4055 H   0  0  0  0  0  0  0  0  0  0  0  0
   51.6713    3.7979   21.4112 H   0  0  0  0  0  0  0  0  0  0  0  0
   48.9126    5.4183   20.9141 H   0  0  0  0  0  0  0  0  0  0  0  0
   47.5402    3.7076   19.7492 H   0  0  0  0  0  0  0  0  0  0  0  0
   50.5875    3.2348   16.7810 H   0  0  0  0  0  0  0  0  0  0  0  0
   51.9973    4.9310   17.9297 H   0  0  0  0  0  0  0  0  0  0  0  0
   52.9685   10.2271   19.2362 H   0  0  0  0  0  0  0  0  0  0  0  0
   52.9145   11.9620   20.9981 H   0  0  0  0  0  0  0  0  0  0  0  0
   52.1436   10.8027   22.1732 H   0  0  0  0  0  0  0  0  0  0  0  0
   50.1835   10.5358   20.6295 H   0  0  0  0  0  0  0  0  0  0  0  0
   50.9519   11.6712   19.4380 H   0  0  0  0  0  0  0  0  0  0  0  0
   48.9205    9.8114   13.9513 H   0  0  0  0  0  0  0  0  0  0  0  0
   50.4698    9.7981   13.0599 H   0  0  0  0  0  0  0  0  0  0  0  0
   49.6817   11.8438   15.7523 H   0  0  0  0  0  0  0  0  0  0  0  0
   47.9925   10.3367   15.2572 H   0  0  0  0  0  0  0  0  0  0  0  0
   49.9237    8.4138   15.1959 H   0  0  0  0  0  0  0  0  0  0  0  0
   50.9927    9.8153   15.3456 H   0  0  0  0  0  0  0  0  0  0  0  0
   48.6378    9.2077   17.2201 H   0  0  0  0  0  0  0  0  0  0  0  0
   49.6045   10.7930   18.4783 H   0  0  0  0  0  0  0  0  0  0  0  0
   51.6115    9.0386   17.9987 H   0  0  0  0  0  0  0  0  0  0  0  0
   49.3428    6.9430   17.9853 H   0  0  0  0  0  0  0  0  0  0  0  0
   54.9067    3.8458   20.4251 H   0  0  0  0  0  0  0  0  0  0  0  0
   54.6828    3.2824   22.8145 H   0  0  0  0  0  0  0  0  0  0  0  0
   52.7329    4.1231   24.1060 H   0  0  0  0  0  0  0  0  0  0  0  0
   51.0512    5.5105   22.9971 H   0  0  0  0  0  0  0  0  0  0  0  0
   48.5541    5.1793   20.4193 H   0  0  0  0  0  0  0  0  0  0  0  0
   46.5685    6.0757   21.6131 H   0  0  0  0  0  0  0  0  0  0  0  0
   48.8537    9.4529   22.9287 H   0  0  0  0  0  0  0  0  0  0  0  0
   50.8610    8.5757   21.7483 H   0  0  0  0  0  0  0  0  0  0  0  0
   51.8638    5.7706   16.1742 H   0  0  0  0  0  0  0  0  0  0  0  0
   53.8133    8.0548   17.0552 H   0  0  0  0  0  0  0  0  0  0  0  0
   53.0874    7.8075   15.4093 H   0  0  0  0  0  0  0  0  0  0  0  0
   54.8718    5.7747   16.9498 H   0  0  0  0  0  0  0  0  0  0  0  0
   54.1581    5.5296   15.2887 H   0  0  0  0  0  0  0  0  0  0  0  0
   49.7988    9.9008   12.8075 H   0  0  0  0  0  0  0  0  0  0  0  0
   48.2178   10.6623   12.7779 H   0  0  0  0  0  0  0  0  0  0  0  0
  2  1  1  0
  2  3  1  0
  3  4  1  0
  4  5  1  0
  4  6  1  0
  6  7  2  0
  7  8  1  0
  8  9  2  0
  9 10  1  0
 10 11  2  0
 11 12  1  0
 12 13  2  0
 13 14  1  0
 14 15  2  0
 15 16  1  0
 11 16  1  0
 16 17  2  0
  8 17  1  0
 17 18  1  0
 18 19  2  0
 19 20  1  0
 20 21  2  0
 21 22  1  0
 21 23  1  0
 23 24  2  0
 18 24  1  0
  9 25  1  0
 25 26  1  0
 26 27  1  0
 25 27  1  0
  2 28  1  0
 28 29  1  0
 29 30  2  0
 29 31  1  0
 34 33  1  0
 34 35  1  0
 35 36  1  0
 36 37  1  0
 36 38  1  0
 38 39  2  0
 39 40  1  0
 40 41  2  0
 41 42  1  0
 42 43  2  0
 43 44  1  0
 44 45  2  0
 45 46  1  0
 46 47  2  0
 47 48  1  0
 43 48  1  0
 48 49  2  0
 40 49  1  0
 49 50  1  0
 50 51  2  0
 51 52  1  0
 52 53  2  0
 53 54  1  0
 53 55  1  0
 55 56  2  0
 50 56  1  0
 41 57  1  0
 57 58  1  0
 58 59  1  0
 57 59  1  0
 34 60  1  0
 60 61  1  0
 61 62  2  0
 61 63  1  0
  1 64  1  0
  2 65  1  6
  3 66  1  0
  3 67  1  0
  4 68  1  1
  5 69  1  0
  6 70  1  0
  7 71  1  0
 12 72  1  0
 13 73  1  0
 14 74  1  0
 15 75  1  0
 19 76  1  0
 20 77  1  0
 23 78  1  0
 24 79  1  0
 25 80  1  0
 26 81  1  0
 26 82  1  0
 27 83  1  0
 27 84  1  0
 28 85  1  0
 28 86  1  0
 33 87  1  0
 34 88  1  1
 35 89  1  0
 35 90  1  0
 36 91  1  1
 37 92  1  0
 38 93  1  0
 39 94  1  0
 44 95  1  0
 45 96  1  0
 46 97  1  0
 47 98  1  0
 51 99  1  0
 52100  1  0
 55101  1  0
 56102  1  0
 57103  1  0
 58104  1  0
 58105  1  0
 59106  1  0
 59107  1  0
 60108  1  0
 60109  1  0
M  CHG  3  31  -1  32   2  63  -1
M  END
> <Uni-Dock RESULT> 
ENERGY=   -5.496  LOWER_BOUND=    3.250  UPPER_BOUND=    5.998
INTER + INTRA:          -5.496
INTER:                  -5.496
INTRA:                   0.000
UNBOUND:                 0.000

$$$$

     RDKit          3D

109114  0  0  0  0  0  0  0  0999 V2000
   48.2268    9.9499   19.7225 O   0  0  0  0  0  0  0  0  0  0  0  0
   47.9220   10.0543   18.3306 C   0  0  2  0  0  0  0  0  0  0  0  0
   48.8057    9.0523   17.5762 C   0  0  0  0  0  0  0  0  0  0  0  0
   50.3085    9.3446   17.6601 C   0  0  2  0  0  0  0  0  0  0  0  0
   50.6777   10.2750   16.6410 O   0  0  0  0  0  0  0  0  0  0  0  0
   51.1225    8.1053   17.3771 C   0  0  0  0  0  0  0  0  0  0  0  0
   52.0224    7.6014   18.2382 C   0  0  0  0  0  0  0  0  0  0  0  0
   52.7988    6.3787   17.9571 C   0  0  0  0  0  0  0  0  0  0  0  0
   53.7671    6.3553   16.9373 C   0  0  0  0  0  0  0  0  0  0  0  0
   54.4664    5.2227   16.6460 N   0  0  0  0  0  0  0  0  0  0  0  0
   54.2610    4.1064   17.3544 C   0  0  0  0  0  0  0  0  0  0  0  0
   55.0015    2.9742   17.0262 C   0  0  0  0  0  0  0  0  0  0  0  0
   54.8430    1.7641   17.7068 C   0  0  0  0  0  0  0  0  0  0  0  0
   53.9223    1.6772   18.7408 C   0  0  0  0  0  0  0  0  0  0  0  0
   53.1640    2.7959   19.0821 C   0  0  0  0  0  0  0  0  0  0  0  0
   53.3211    4.0325   18.4048 C   0  0  0  0  0  0  0  0  0  0  0  0
   52.5792    5.2057   18.7192 C   0  0  0  0  0  0  0  0  0  0  0  0
   51.6022    5.2064   19.8339 C   0  0  0  0  0  0  0  0  0  0  0  0
   52.0328    5.3484   21.1667 C   0  0  0  0  0  0  0  0  0  0  0  0
   51.1115    5.3323   22.2171 C   0  0  0  0  0  0  0  0  0  0  0  0
   49.7587    5.1807   21.9375 C   0  0  0  0  0  0  0  0  0  0  0  0
   48.8795    5.1327   22.9486 F   0  0  0  0  0  0  0  0  0  0  0  0
   49.3079    5.0519   20.6305 C   0  0  0  0  0  0  0  0  0  0  0  0
   50.2278    5.0604   19.5799 C   0  0  0  0  0  0  0  0  0  0  0  0
   54.0919    7.5787   16.0962 C   0  0  0  0  0  0  0  0  0  0  0  0
   55.5313    7.9011   15.7502 C   0  0  0  0  0  0  0  0  0  0  0  0
   54.7823    8.7767   16.7062 C   0  0  0  0  0  0  0  0  0  0  0  0
   48.0958   11.4959   17.8830 C   0  0  0  0  0  0  0  0  0  0  0  0
   46.9848   12.3659   18.4640 C   0  0  0  0  0  0  0  0  0  0  0  0
   46.5620   12.0146   19.6070 O   0  0  0  0  0  0  0  0  0  0  0  0
   46.6470   13.3454   17.7434 O   0  0  0  0  0  0  0  0  0  0  0  0
   51.5730    7.1733   18.4361 Ca  0  0  0  0  0 15  0  0  0  0  0  0
   50.6008   12.6385   16.9769 O   0  0  0  0  0  0  0  0  0  0  0  0
   49.9900   11.9032   18.0549 C   0  0  2  0  0  0  0  0  0  0  0  0
   50.1355   10.4061   17.7366 C   0  0  0  0  0  0  0  0  0  0  0  0
   51.5092    9.8934   18.1775 C   0  0  2  0  0  0  0  0  0  0  0  0
   52.5454   10.5598   17.4483 O   0  0  0  0  0  0  0  0  0  0  0  0
   51.6552    8.4248   17.9076 C   0  0  0  0  0  0  0  0  0  0  0  0
   51.4510    7.4773   18.8365 C   0  0  0  0  0  0  0  0  0  0  0  0
   51.5964    6.0398   18.5405 C   0  0  0  0  0  0  0  0  0  0  0  0
   50.6416    5.3607   17.7593 C   0  0  0  0  0  0  0  0  0  0  0  0
   50.7817    4.0392   17.4731 N   0  0  0  0  0  0  0  0  0  0  0  0
   51.8478    3.3601   17.9253 C   0  0  0  0  0  0  0  0  0  0  0  0
   51.9579    2.0194   17.5792 C   0  0  0  0  0  0  0  0  0  0  0  0
   53.0114    1.2212   18.0242 C   0  0  0  0  0  0  0  0  0  0  0  0
   53.9912    1.7698   18.8352 C   0  0  0  0  0  0  0  0  0  0  0  0
   53.9114    3.1157   19.1762 C   0  0  0  0  0  0  0  0  0  0  0  0
   52.8444    3.9400   18.7288 C   0  0  0  0  0  0  0  0  0  0  0  0
   52.7046    5.3190   19.0503 C   0  0  0  0  0  0  0  0  0  0  0  0
   53.7009    5.9927   19.9104 C   0  0  0  0  0  0  0  0  0  0  0  0
   53.4957    6.1064   21.2969 C   0  0  0  0  0  0  0  0  0  0  0  0
   54.4483    6.7211   22.1125 C   0  0  0  0  0  0  0  0  0  0  0  0
   55.6096    7.2251   21.5416 C   0  0  0  0  0  0  0  0  0  0  0  0
   56.5299    7.8068   22.3236 F   0  0  0  0  0  0  0  0  0  0  0  0
   55.8323    7.1392   20.1725 C   0  0  0  0  0  0  0  0  0  0  0  0
   54.8802    6.5242   19.3576 C   0  0  0  0  0  0  0  0  0  0  0  0
   49.3871    6.0434   17.2320 C   0  0  0  0  0  0  0  0  0  0  0  0
   49.4255    6.7789   15.9107 C   0  0  0  0  0  0  0  0  0  0  0  0
   48.6585    5.4964   16.0187 C   0  0  0  0  0  0  0  0  0  0  0  0
   48.5364   12.3445   18.1833 C   0  0  0  0  0  0  0  0  0  0  0  0
   47.8522   11.7635   19.4193 C   0  0  0  0  0  0  0  0  0  0  0  0
   48.6178   11.3035   20.3197 O   0  0  0  0  0  0  0  0  0  0  0  0
   46.5910   11.8059   19.3989 O   0  0  0  0  0  0  0  0  0  0  0  0
   47.6115   10.6150   20.1315 H   0  0  0  0  0  0  0  0  0  0  0  0
   46.8814    9.7319   18.2067 H   0  0  0  0  0  0  0  0  0  0  0  0
   48.4820    9.0275   16.5304 H   0  0  0  0  0  0  0  0  0  0  0  0
   48.6201    8.0601   18.0000 H   0  0  0  0  0  0  0  0  0  0  0  0
   50.5836    9.7649   18.6369 H   0  0  0  0  0  0  0  0  0  0  0  0
   50.6578   11.1543   17.0699 H   0  0  0  0  0  0  0  0  0  0  0  0
   50.9416    7.6351   16.4080 H   0  0  0  0  0  0  0  0  0  0  0  0
   52.1770    8.0617   19.2124 H   0  0  0  0  0  0  0  0  0  0  0  0
   55.7150    3.0340   16.2057 H   0  0  0  0  0  0  0  0  0  0  0  0
   55.4326    0.8976   17.4205 H   0  0  0  0  0  0  0  0  0  0  0  0
   53.7808    0.7412   19.2760 H   0  0  0  0  0  0  0  0  0  0  0  0
   52.4329    2.6938   19.8850 H   0  0  0  0  0  0  0  0  0  0  0  0
   53.0891    5.4834   21.3918 H   0  0  0  0  0  0  0  0  0  0  0  0
   51.4370    5.4418   23.2454 H   0  0  0  0  0  0  0  0  0  0  0  0
   48.2457    4.9510   20.4358 H   0  0  0  0  0  0  0  0  0  0  0  0
   49.8722    4.9707   18.5548 H   0  0  0  0  0  0  0  0  0  0  0  0
   53.3704    7.7847   15.3078 H   0  0  0  0  0  0  0  0  0  0  0  0
   55.7301    8.2763   14.7535 H   0  0  0  0  0  0  0  0  0  0  0  0
   56.3122    7.2637   16.1517 H   0  0  0  0  0  0  0  0  0  0  0  0
   55.0736    8.7507   17.7488 H   0  0  0  0  0  0  0  0  0  0  0  0
   54.4663    9.7545   16.3622 H   0  0  0  0  0  0  0  0  0  0  0  0
   49.0389   11.9221   18.2421 H   0  0  0  0  0  0  0  0  0  0  0  0
   48.0635   11.5548   16.7899 H   0  0  0  0  0  0  0  0  0  0  0  0
   51.4727   12.2103   16.8464 H   0  0  0  0  0  0  0  0  0  0  0  0
   50.5409   12.1669   18.9678 H   0  0  0  0  0  0  0  0  0  0  0  0
   49.3549    9.8223   18.2415 H   0  0  0  0  0  0  0  0  0  0  0  0
   50.0102   10.2547   16.6563 H   0  0  0  0  0  0  0  0  0  0  0  0
   51.6551   10.1112   19.2452 H   0  0  0  0  0  0  0  0  0  0  0  0
   53.3795   10.2187   17.8151 H   0  0  0  0  0  0  0  0  0  0  0  0
   51.8966    8.1533   16.8818 H   0  0  0  0  0  0  0  0  0  0  0  0
   51.1827    7.7422   19.8584 H   0  0  0  0  0  0  0  0  0  0  0  0
   51.1980    1.5792   16.9396 H   0  0  0  0  0  0  0  0  0  0  0  0
   53.0555    0.1742   17.7476 H   0  0  0  0  0  0  0  0  0  0  0  0
   54.8162    1.1646   19.1952 H   0  0  0  0  0  0  0  0  0  0  0  0
   54.6968    3.5307   19.8034 H   0  0  0  0  0  0  0  0  0  0  0  0
   52.5876    5.7134   21.7470 H   0  0  0  0  0  0  0  0  0  0  0  0
   54.2932    6.8075   23.1841 H   0  0  0  0  0  0  0  0  0  0  0  0
   56.7440    7.5535   19.7497 H   0  0  0  0  0  0  0  0  0  0  0  0
   55.0566    6.4565   18.2864 H   0  0  0  0  0  0  0  0  0  0  0  0
   48.7425    6.4640   18.0085 H   0  0  0  0  0  0  0  0  0  0  0  0
   50.3432    6.7723   15.3371 H   0  0  0  0  0  0  0  0  0  0  0  0
   48.8743    7.7090   15.8489 H   0  0  0  0  0  0  0  0  0  0  0  0
   49.0581    4.6180   15.5303 H   0  0  0  0  0  0  0  0  0  0  0  0
   47.5753    5.5571   16.0284 H   0  0  0  0  0  0  0  0  0  0  0  0
   47.9718   12.0795   17.2807 H   0  0  0  0  0  0  0  0  0  0  0  0
   48.4936   13.4376   18.2624 H   0  0  0  0  0  0  0  0  0  0  0  0
  2  1  1  0
  2  3  1  0
  3  4  1  0
  4  5  1  0
  4  6  1  0
  6  7  2  0
  7  8  1  0
  8  9  2  0
  9 10  1  0
 10 11  2  0
 11 12  1  0
 12 13  2  0
 13 14  1  0
 14 15  2  0
 15 16  1  0
 11 16  1  0
 16 17  2  0
  8 17  1  0
 17 18  1  0
 18 19  2  0
 19 20  1  0
 20 21  2  0
 21 22  1  0
 21 23  1  0
 23 24  2  0
 18 24  1  0
  9 25  1  0
 25 26  1  0
 26 27  1  0
 25 27  1  0
  2 28  1  0
 28 29  1  0
 29 30  2  0
 29 31  1  0
 34 33  1  0
 34 35  1  0
 35 36  1  0
 36 37  1  0
 36 38  1  0
 38 39  2  0
 39 40  1  0
 40 41  2  0
 41 42  1  0
 42 43  2  0
 43 44  1  0
 44 45  2  0
 45 46  1  0
 46 47  2  0
 47 48  1  0
 43 48  1  0
 48 49  2  0
 40 49  1  0
 49 50  1  0
 50 51  2  0
 51 52  1  0
 52 53  2  0
 53 54  1  0
 53 55  1  0
 55 56  2  0
 50 56  1  0
 41 57  1  0
 57 58  1  0
 58 59  1  0
 57 59  1  0
 34 60  1  0
 60 61  1  0
 61 62  2  0
 61 63  1  0
  1 64  1  0
  2 65  1  6
  3 66  1  0
  3 67  1  0
  4 68  1  1
  5 69  1  0
  6 70  1  0
  7 71  1  0
 12 72  1  0
 13 73  1  0
 14 74  1  0
 15 75  1  0
 19 76  1  0
 20 77  1  0
 23 78  1  0
 24 79  1  0
 25 80  1  0
 26 81  1  0
 26 82  1  0
 27 83  1  0
 27 84  1  0
 28 85  1  0
 28 86  1  0
 33 87  1  0
 34 88  1  1
 35 89  1  0
 35 90  1  0
 36 91  1  1
 37 92  1  0
 38 93  1  0
 39 94  1  0
 44 95  1  0
 45 96  1  0
 46 97  1  0
 47 98  1  0
 51 99  1  0
 52100  1  0
 55101  1  0
 56102  1  0
 57103  1  0
 58104  1  0
 58105  1  0
 59106  1  0
 59107  1  0
 60108  1  0
 60109  1  0
M  CHG  3  31  -1  32   2  63  -1
M  END
> <Uni-Dock RESULT> 
ENERGY=   -5.483  LOWER_BOUND=    2.510  UPPER_BOUND=    5.017
INTER + INTRA:          -5.483
INTER:                  -5.483
INTRA:                   0.000
UNBOUND:                 0.000

$$$$

     RDKit          3D

109114  0  0  0  0  0  0  0  0999 V2000
   47.0108    8.5652   11.8330 O   0  0  0  0  0  0  0  0  0  0  0  0
   47.4675    9.1613   13.0484 C   0  0  2  0  0  0  0  0  0  0  0  0
   47.8054   10.6294   12.7577 C   0  0  0  0  0  0  0  0  0  0  0  0
   48.9655   10.8300   11.7755 C   0  0  2  0  0  0  0  0  0  0  0  0
   50.2074   10.7947   12.4805 O   0  0  0  0  0  0  0  0  0  0  0  0
   48.9117   12.1974   11.1385 C   0  0  0  0  0  0  0  0  0  0  0  0
   48.8547   12.3905    9.8101 C   0  0  0  0  0  0  0  0  0  0  0  0
   48.7842   13.7323    9.2007 C   0  0  0  0  0  0  0  0  0  0  0  0
   49.8719   14.6205    9.2794 C   0  0  0  0  0  0  0  0  0  0  0  0
   49.8064   15.8743    8.7500 N   0  0  0  0  0  0  0  0  0  0  0  0
   48.7010   16.2766    8.1124 C   0  0  0  0  0  0  0  0  0  0  0  0
   48.6799   17.5636    7.5821 C   0  0  0  0  0  0  0  0  0  0  0  0
   47.5632   18.0682    6.9105 C   0  0  0  0  0  0  0  0  0  0  0  0
   46.4367   17.2722    6.7636 C   0  0  0  0  0  0  0  0  0  0  0  0
   46.4322   15.9828    7.2931 C   0  0  0  0  0  0  0  0  0  0  0  0
   47.5620   15.4554    7.9697 C   0  0  0  0  0  0  0  0  0  0  0  0
   47.6125   14.1441    8.5206 C   0  0  0  0  0  0  0  0  0  0  0  0
   46.4643   13.2181    8.3748 C   0  0  0  0  0  0  0  0  0  0  0  0
   46.2642   12.5044    7.1778 C   0  0  0  0  0  0  0  0  0  0  0  0
   45.1719   11.6445    7.0369 C   0  0  0  0  0  0  0  0  0  0  0  0
   44.2818   11.4914    8.0930 C   0  0  0  0  0  0  0  0  0  0  0  0
   43.2164   10.6910    7.9443 F   0  0  0  0  0  0  0  0  0  0  0  0
   44.4647   12.1741    9.2881 C   0  0  0  0  0  0  0  0  0  0  0  0
   45.5516   13.0396    9.4284 C   0  0  0  0  0  0  0  0  0  0  0  0
   51.1793   14.2467    9.9582 C   0  0  0  0  0  0  0  0  0  0  0  0
   52.5003   14.6427    9.3305 C   0  0  0  0  0  0  0  0  0  0  0  0
   52.0924   13.2024    9.3585 C   0  0  0  0  0  0  0  0  0  0  0  0
   48.6304    8.3537   13.6004 C   0  0  0  0  0  0  0  0  0  0  0  0
   48.1348    7.0121   14.1326 C   0  0  0  0  0  0  0  0  0  0  0  0
   47.1444    6.5157   13.5151 O   0  0  0  0  0  0  0  0  0  0  0  0
   48.7946    6.5513   15.1047 O   0  0  0  0  0  0  0  0  0  0  0  0
   48.2102   12.4693    9.8630 Ca  0  0  0  0  0 15  0  0  0  0  0  0
   51.4039    8.7635   12.8647 O   0  0  0  0  0  0  0  0  0  0  0  0
   50.0869    8.5399   12.3248 C   0  0  2  0  0  0  0  0  0  0  0  0
   49.4408    9.9154   12.0923 C   0  0  0  0  0  0  0  0  0  0  0  0
   49.8835   10.4974   10.7471 C   0  0  2  0  0  0  0  0  0  0  0  0
   51.2985   10.7142   10.7415 O   0  0  0  0  0  0  0  0  0  0  0  0
   49.2334   11.8243   10.4870 C   0  0  0  0  0  0  0  0  0  0  0  0
   48.1330   11.9746    9.7328 C   0  0  0  0  0  0  0  0  0  0  0  0
   47.5122   13.2919    9.4991 C   0  0  0  0  0  0  0  0  0  0  0  0
   46.7993   13.9484   10.5208 C   0  0  0  0  0  0  0  0  0  0  0  0
   46.2391   15.1692   10.3116 N   0  0  0  0  0  0  0  0  0  0  0  0
   46.3691   15.7764    9.1213 C   0  0  0  0  0  0  0  0  0  0  0  0
   45.8031   17.0359    8.9700 C   0  0  0  0  0  0  0  0  0  0  0  0
   45.8573   17.7349    7.7643 C   0  0  0  0  0  0  0  0  0  0  0  0
   46.4974   17.1701    6.6734 C   0  0  0  0  0  0  0  0  0  0  0  0
   47.0893   15.9191    6.8097 C   0  0  0  0  0  0  0  0  0  0  0  0
   47.0423   15.1971    8.0322 C   0  0  0  0  0  0  0  0  0  0  0  0
   47.6213   13.9125    8.2300 C   0  0  0  0  0  0  0  0  0  0  0  0
   48.3252   13.2293    7.1235 C   0  0  0  0  0  0  0  0  0  0  0  0
   47.6519   12.3080    6.3019 C   0  0  0  0  0  0  0  0  0  0  0  0
   48.3104   11.6813    5.2417 C   0  0  0  0  0  0  0  0  0  0  0  0
   49.6464   11.9746    5.0016 C   0  0  0  0  0  0  0  0  0  0  0  0
   50.2780   11.3819    3.9786 F   0  0  0  0  0  0  0  0  0  0  0  0
   50.3404   12.8704    5.8060 C   0  0  0  0  0  0  0  0  0  0  0  0
   49.6818   13.4972    6.8654 C   0  0  0  0  0  0  0  0  0  0  0  0
   46.5756   13.3209   11.8897 C   0  0  0  0  0  0  0  0  0  0  0  0
   47.6080   13.4996   12.9808 C   0  0  0  0  0  0  0  0  0  0  0  0
   46.2819   14.1865   13.1007 C   0  0  0  0  0  0  0  0  0  0  0  0
   49.3012    7.6719   13.3012 C   0  0  0  0  0  0  0  0  0  0  0  0
   47.9568    7.2187   12.7348 C   0  0  0  0  0  0  0  0  0  0  0  0
   47.8172    7.3139   11.4780 O   0  0  0  0  0  0  0  0  0  0  0  0
   47.1313    6.8010   13.5933 O   0  0  0  0  0  0  0  0  0  0  0  0
   46.8067    7.6326   12.1101 H   0  0  0  0  0  0  0  0  0  0  0  0
   46.6219    9.1514   13.7462 H   0  0  0  0  0  0  0  0  0  0  0  0
   48.0232   11.1271   13.7085 H   0  0  0  0  0  0  0  0  0  0  0  0
   46.9100   11.1003   12.3392 H   0  0  0  0  0  0  0  0  0  0  0  0
   48.9779   10.0506   11.0015 H   0  0  0  0  0  0  0  0  0  0  0  0
   50.5268    9.8731   12.4018 H   0  0  0  0  0  0  0  0  0  0  0  0
   48.9308   13.0404   11.8326 H   0  0  0  0  0  0  0  0  0  0  0  0
   48.8097   11.5440    9.1274 H   0  0  0  0  0  0  0  0  0  0  0  0
   49.5568   18.1970    7.7077 H   0  0  0  0  0  0  0  0  0  0  0  0
   47.5779   19.0799    6.5144 H   0  0  0  0  0  0  0  0  0  0  0  0
   45.5563   17.6518    6.2505 H   0  0  0  0  0  0  0  0  0  0  0  0
   45.5259   15.3862    7.1814 H   0  0  0  0  0  0  0  0  0  0  0  0
   46.9661   12.6074    6.3525 H   0  0  0  0  0  0  0  0  0  0  0  0
   45.0130   11.0918    6.1178 H   0  0  0  0  0  0  0  0  0  0  0  0
   43.7657   12.0262   10.1041 H   0  0  0  0  0  0  0  0  0  0  0  0
   45.7004   13.5657   10.3698 H   0  0  0  0  0  0  0  0  0  0  0  0
   51.1507   14.2988   11.0450 H   0  0  0  0  0  0  0  0  0  0  0  0
   53.2887   14.9692    9.9979 H   0  0  0  0  0  0  0  0  0  0  0  0
   52.4824   15.1564    8.3750 H   0  0  0  0  0  0  0  0  0  0  0  0
   51.8239   12.7355    8.4191 H   0  0  0  0  0  0  0  0  0  0  0  0
   52.6029   12.5408   10.0484 H   0  0  0  0  0  0  0  0  0  0  0  0
   49.3689    8.1226   12.8251 H   0  0  0  0  0  0  0  0  0  0  0  0
   49.1165    8.9048   14.4124 H   0  0  0  0  0  0  0  0  0  0  0  0
   51.8019    9.4397   12.2775 H   0  0  0  0  0  0  0  0  0  0  0  0
   50.2225    8.0033   11.3761 H   0  0  0  0  0  0  0  0  0  0  0  0
   48.3458    9.8397   12.1084 H   0  0  0  0  0  0  0  0  0  0  0  0
   49.7339   10.5921   12.9059 H   0  0  0  0  0  0  0  0  0  0  0  0
   49.6489    9.7830    9.9451 H   0  0  0  0  0  0  0  0  0  0  0  0
   51.5068   11.0356    9.8470 H   0  0  0  0  0  0  0  0  0  0  0  0
   49.6821   12.6785   10.9903 H   0  0  0  0  0  0  0  0  0  0  0  0
   47.6638   11.1192    9.2484 H   0  0  0  0  0  0  0  0  0  0  0  0
   45.3026   17.4911    9.8201 H   0  0  0  0  0  0  0  0  0  0  0  0
   45.3895   18.7087    7.6783 H   0  0  0  0  0  0  0  0  0  0  0  0
   46.5466   17.6958    5.7259 H   0  0  0  0  0  0  0  0  0  0  0  0
   47.5978   15.4982    5.9455 H   0  0  0  0  0  0  0  0  0  0  0  0
   46.6063   12.0756    6.4873 H   0  0  0  0  0  0  0  0  0  0  0  0
   47.7915   10.9713    4.6040 H   0  0  0  0  0  0  0  0  0  0  0  0
   51.3892   13.0724    5.6040 H   0  0  0  0  0  0  0  0  0  0  0  0
   50.2260   14.1991    7.4933 H   0  0  0  0  0  0  0  0  0  0  0  0
   46.0481   12.3635   11.8660 H   0  0  0  0  0  0  0  0  0  0  0  0
   48.4779   14.1113   12.7801 H   0  0  0  0  0  0  0  0  0  0  0  0
   47.8078   12.6442   13.6141 H   0  0  0  0  0  0  0  0  0  0  0  0
   46.2475   15.2598   12.9709 H   0  0  0  0  0  0  0  0  0  0  0  0
   45.5754   13.7941   13.8245 H   0  0  0  0  0  0  0  0  0  0  0  0
   49.1510    8.1995   14.2514 H   0  0  0  0  0  0  0  0  0  0  0  0
   49.8826    6.7726   13.5378 H   0  0  0  0  0  0  0  0  0  0  0  0
  2  1  1  0
  2  3  1  0
  3  4  1  0
  4  5  1  0
  4  6  1  0
  6  7  2  0
  7  8  1  0
  8  9  2  0
  9 10  1  0
 10 11  2  0
 11 12  1  0
 12 13  2  0
 13 14  1  0
 14 15  2  0
 15 16  1  0
 11 16  1  0
 16 17  2  0
  8 17  1  0
 17 18  1  0
 18 19  2  0
 19 20  1  0
 20 21  2  0
 21 22  1  0
 21 23  1  0
 23 24  2  0
 18 24  1  0
  9 25  1  0
 25 26  1  0
 26 27  1  0
 25 27  1  0
  2 28  1  0
 28 29  1  0
 29 30  2  0
 29 31  1  0
 34 33  1  0
 34 35  1  0
 35 36  1  0
 36 37  1  0
 36 38  1  0
 38 39  2  0
 39 40  1  0
 40 41  2  0
 41 42  1  0
 42 43  2  0
 43 44  1  0
 44 45  2  0
 45 46  1  0
 46 47  2  0
 47 48  1  0
 43 48  1  0
 48 49  2  0
 40 49  1  0
 49 50  1  0
 50 51  2  0
 51 52  1  0
 52 53  2  0
 53 54  1  0
 53 55  1  0
 55 56  2  0
 50 56  1  0
 41 57  1  0
 57 58  1  0
 58 59  1  0
 57 59  1  0
 34 60  1  0
 60 61  1  0
 61 62  2  0
 61 63  1  0
  1 64  1  0
  2 65  1  6
  3 66  1  0
  3 67  1  0
  4 68  1  1
  5 69  1  0
  6 70  1  0
  7 71  1  0
 12 72  1  0
 13 73  1  0
 14 74  1  0
 15 75  1  0
 19 76  1  0
 20 77  1  0
 23 78  1  0
 24 79  1  0
 25 80  1  0
 26 81  1  0
 26 82  1  0
 27 83  1  0
 27 84  1  0
 28 85  1  0
 28 86  1  0
 33 87  1  0
 34 88  1  1
 35 89  1  0
 35 90  1  0
 36 91  1  1
 37 92  1  0
 38 93  1  0
 39 94  1  0
 44 95  1  0
 45 96  1  0
 46 97  1  0
 47 98  1  0
 51 99  1  0
 52100  1  0
 55101  1  0
 56102  1  0
 57103  1  0
 58104  1  0
 58105  1  0
 59106  1  0
 59107  1  0
 60108  1  0
 60109  1  0
M  CHG  3  31  -1  32   2  63  -1
M  END
> <Uni-Dock RESULT> 
ENERGY=   -5.070  LOWER_BOUND=    8.489  UPPER_BOUND=   12.497
INTER + INTRA:          -5.070
INTER:                  -5.070
INTRA:                   0.000
UNBOUND:                 0.000

$$$$

     RDKit          3D

109114  0  0  0  0  0  0  0  0999 V2000
   47.8847   12.0046   17.1601 O   0  0  0  0  0  0  0  0  0  0  0  0
   47.3356   13.3096   17.3514 C   0  0  2  0  0  0  0  0  0  0  0  0
   47.3951   14.0496   16.0087 C   0  0  0  0  0  0  0  0  0  0  0  0
   48.8145   14.3060   15.4889 C   0  0  2  0  0  0  0  0  0  0  0  0
   49.3261   15.5132   16.0556 O   0  0  0  0  0  0  0  0  0  0  0  0
   48.8164   14.5380   13.9974 C   0  0  0  0  0  0  0  0  0  0  0  0
   49.5348   13.7976   13.1367 C   0  0  0  0  0  0  0  0  0  0  0  0
   49.5139   14.0231   11.6788 C   0  0  0  0  0  0  0  0  0  0  0  0
   50.0579   15.1936   11.1201 C   0  0  0  0  0  0  0  0  0  0  0  0
   50.0142   15.4287    9.7787 N   0  0  0  0  0  0  0  0  0  0  0  0
   49.4710   14.5238    8.9562 C   0  0  0  0  0  0  0  0  0  0  0  0
   49.4528   14.8027    7.5925 C   0  0  0  0  0  0  0  0  0  0  0  0
   48.8960   13.9187    6.6645 C   0  0  0  0  0  0  0  0  0  0  0  0
   48.3411   12.7259    7.1046 C   0  0  0  0  0  0  0  0  0  0  0  0
   48.3411   12.4288    8.4666 C   0  0  0  0  0  0  0  0  0  0  0  0
   48.9106   13.3136    9.4181 C   0  0  0  0  0  0  0  0  0  0  0  0
   48.9444   13.0545   10.8171 C   0  0  0  0  0  0  0  0  0  0  0  0
   48.4055   11.7868   11.3646 C   0  0  0  0  0  0  0  0  0  0  0  0
   49.1658   10.6029   11.3172 C   0  0  0  0  0  0  0  0  0  0  0  0
   48.6492    9.4055   11.8190 C   0  0  0  0  0  0  0  0  0  0  0  0
   47.3754    9.3902   12.3743 C   0  0  0  0  0  0  0  0  0  0  0  0
   46.8686    8.2339   12.8256 F   0  0  0  0  0  0  0  0  0  0  0  0
   46.6111   10.5473   12.4445 C   0  0  0  0  0  0  0  0  0  0  0  0
   47.1227   11.7434   11.9368 C   0  0  0  0  0  0  0  0  0  0  0  0
   50.7204   16.2672   11.9677 C   0  0  0  0  0  0  0  0  0  0  0  0
   51.9950   16.9323   11.4894 C   0  0  0  0  0  0  0  0  0  0  0  0
   52.0362   16.0030   12.6625 C   0  0  0  0  0  0  0  0  0  0  0  0
   48.0767   14.0082   18.4791 C   0  0  0  0  0  0  0  0  0  0  0  0
   47.7196   13.3710   19.8189 C   0  0  0  0  0  0  0  0  0  0  0  0
   47.4781   12.1264   19.7807 O   0  0  0  0  0  0  0  0  0  0  0  0
   47.7389   14.1606   20.8032 O   0  0  0  0  0  0  0  0  0  0  0  0
   48.9986   13.4502   13.0091 Ca  0  0  0  0  0 15  0  0  0  0  0  0
   50.5045   15.5533   18.1328 O   0  0  0  0  0  0  0  0  0  0  0  0
   49.9014   14.2736   17.8598 C   0  0  2  0  0  0  0  0  0  0  0  0
   49.2097   14.3691   16.4902 C   0  0  0  0  0  0  0  0  0  0  0  0
   50.2152   14.1256   15.3614 C   0  0  2  0  0  0  0  0  0  0  0  0
   51.2264   15.1389   15.3703 O   0  0  0  0  0  0  0  0  0  0  0  0
   49.5498   14.1789   14.0179 C   0  0  0  0  0  0  0  0  0  0  0  0
   49.1452   13.0880   13.3481 C   0  0  0  0  0  0  0  0  0  0  0  0
   48.4881   13.1715   12.0303 C   0  0  0  0  0  0  0  0  0  0  0  0
   47.1635   13.6338   11.9092 C   0  0  0  0  0  0  0  0  0  0  0  0
   46.5612   13.7254   10.6939 N   0  0  0  0  0  0  0  0  0  0  0  0
   47.2311   13.3846    9.5815 C   0  0  0  0  0  0  0  0  0  0  0  0
   46.5795   13.5254    8.3628 C   0  0  0  0  0  0  0  0  0  0  0  0
   47.1785   13.1700    7.1546 C   0  0  0  0  0  0  0  0  0  0  0  0
   48.4675   12.6627    7.1522 C   0  0  0  0  0  0  0  0  0  0  0  0
   49.1456   12.5337    8.3595 C   0  0  0  0  0  0  0  0  0  0  0  0
   48.5476   12.8929    9.5970 C   0  0  0  0  0  0  0  0  0  0  0  0
   49.1869   12.7764   10.8627 C   0  0  0  0  0  0  0  0  0  0  0  0
   50.5632   12.2449   10.9610 C   0  0  0  0  0  0  0  0  0  0  0  0
   50.7919   10.8817   11.2187 C   0  0  0  0  0  0  0  0  0  0  0  0
   52.0917   10.3753   11.2871 C   0  0  0  0  0  0  0  0  0  0  0  0
   53.1671   11.2334   11.0987 C   0  0  0  0  0  0  0  0  0  0  0  0
   54.4154   10.7481   11.1541 F   0  0  0  0  0  0  0  0  0  0  0  0
   52.9710   12.5877   10.8565 C   0  0  0  0  0  0  0  0  0  0  0  0
   51.6717   13.0935   10.7875 C   0  0  0  0  0  0  0  0  0  0  0  0
   46.3195   14.0114   13.1187 C   0  0  0  0  0  0  0  0  0  0  0  0
   46.3841   15.4158   13.6768 C   0  0  0  0  0  0  0  0  0  0  0  0
   45.1412   14.9568   12.9773 C   0  0  0  0  0  0  0  0  0  0  0  0
   48.9355   13.9393   18.9910 C   0  0  0  0  0  0  0  0  0  0  0  0
   48.3861   12.5172   18.8942 C   0  0  0  0  0  0  0  0  0  0  0  0
   49.0236   11.7199   18.1418 O   0  0  0  0  0  0  0  0  0  0  0  0
   47.3483   12.3000   19.5788 O   0  0  0  0  0  0  0  0  0  0  0  0
   47.7986   11.5967   18.0625 H   0  0  0  0  0  0  0  0  0  0  0  0
   46.2775   13.1765   17.6059 H   0  0  0  0  0  0  0  0  0  0  0  0
   46.8527   14.9952   16.1127 H   0  0  0  0  0  0  0  0  0  0  0  0
   46.8586   13.4440   15.2711 H   0  0  0  0  0  0  0  0  0  0  0  0
   49.4931   13.4813   15.7459 H   0  0  0  0  0  0  0  0  0  0  0  0
   49.8473   15.2357   16.8359 H   0  0  0  0  0  0  0  0  0  0  0  0
   48.1940   15.3653   13.6495 H   0  0  0  0  0  0  0  0  0  0  0  0
   50.1317   12.9586   13.4899 H   0  0  0  0  0  0  0  0  0  0  0  0
   49.8744   15.7443    7.2441 H   0  0  0  0  0  0  0  0  0  0  0  0
   48.8924   14.1705    5.6075 H   0  0  0  0  0  0  0  0  0  0  0  0
   47.8967   12.0300    6.3969 H   0  0  0  0  0  0  0  0  0  0  0  0
   47.8797   11.4939    8.7871 H   0  0  0  0  0  0  0  0  0  0  0  0
   50.1703   10.6110   10.8981 H   0  0  0  0  0  0  0  0  0  0  0  0
   49.2303    8.4908   11.7859 H   0  0  0  0  0  0  0  0  0  0  0  0
   45.6259   10.5141   12.8969 H   0  0  0  0  0  0  0  0  0  0  0  0
   46.5271   12.6523   12.0025 H   0  0  0  0  0  0  0  0  0  0  0  0
   50.0229   16.9239   12.4843 H   0  0  0  0  0  0  0  0  0  0  0  0
   52.0974   17.9957   11.6690 H   0  0  0  0  0  0  0  0  0  0  0  0
   52.4343   16.5922   10.5574 H   0  0  0  0  0  0  0  0  0  0  0  0
   52.5257   15.0460   12.5315 H   0  0  0  0  0  0  0  0  0  0  0  0
   52.1663   16.4321   13.6490 H   0  0  0  0  0  0  0  0  0  0  0  0
   49.1627   13.9116   18.3729 H   0  0  0  0  0  0  0  0  0  0  0  0
   47.8071   15.0694   18.5030 H   0  0  0  0  0  0  0  0  0  0  0  0
   50.9904   15.7793   17.3121 H   0  0  0  0  0  0  0  0  0  0  0  0
   50.7177   13.5390   17.8383 H   0  0  0  0  0  0  0  0  0  0  0  0
   48.3967   13.6356   16.4118 H   0  0  0  0  0  0  0  0  0  0  0  0
   48.7624   15.3661   16.3823 H   0  0  0  0  0  0  0  0  0  0  0  0
   50.7090   13.1554   15.5151 H   0  0  0  0  0  0  0  0  0  0  0  0
   51.8470   14.8902   14.6632 H   0  0  0  0  0  0  0  0  0  0  0  0
   49.3635   15.1748   13.6206 H   0  0  0  0  0  0  0  0  0  0  0  0
   49.3048   12.0897   13.7534 H   0  0  0  0  0  0  0  0  0  0  0  0
   45.5699   13.9267    8.3516 H   0  0  0  0  0  0  0  0  0  0  0  0
   46.6332   13.2779    6.2243 H   0  0  0  0  0  0  0  0  0  0  0  0
   48.9492   12.3765    6.2235 H   0  0  0  0  0  0  0  0  0  0  0  0
   50.1610   12.1453    8.3356 H   0  0  0  0  0  0  0  0  0  0  0  0
   49.9524   10.2072   11.3672 H   0  0  0  0  0  0  0  0  0  0  0  0
   52.2706    9.3220   11.4833 H   0  0  0  0  0  0  0  0  0  0  0  0
   53.8308   13.2399   10.7254 H   0  0  0  0  0  0  0  0  0  0  0  0
   51.5198   14.1535   10.5965 H   0  0  0  0  0  0  0  0  0  0  0  0
   46.1801   13.2027   13.8414 H   0  0  0  0  0  0  0  0  0  0  0  0
   47.0050   16.1474   13.1762 H   0  0  0  0  0  0  0  0  0  0  0  0
   46.3645   15.5186   14.7546 H   0  0  0  0  0  0  0  0  0  0  0  0
   44.9229   15.3655   12.0000 H   0  0  0  0  0  0  0  0  0  0  0  0
   44.2685   14.7477   13.5871 H   0  0  0  0  0  0  0  0  0  0  0  0
   48.1098   14.6611   19.0189 H   0  0  0  0  0  0  0  0  0  0  0  0
   49.4555   14.0302   19.9523 H   0  0  0  0  0  0  0  0  0  0  0  0
  2  1  1  0
  2  3  1  0
  3  4  1  0
  4  5  1  0
  4  6  1  0
  6  7  2  0
  7  8  1  0
  8  9  2  0
  9 10  1  0
 10 11  2  0
 11 12  1  0
 12 13  2  0
 13 14  1  0
 14 15  2  0
 15 16  1  0
 11 16  1  0
 16 17  2  0
  8 17  1  0
 17 18  1  0
 18 19  2  0
 19 20  1  0
 20 21  2  0
 21 22  1  0
 21 23  1  0
 23 24  2  0
 18 24  1  0
  9 25  1  0
 25 26  1  0
 26 27  1  0
 25 27  1  0
  2 28  1  0
 28 29  1  0
 29 30  2  0
 29 31  1  0
 34 33  1  0
 34 35  1  0
 35 36  1  0
 36 37  1  0
 36 38  1  0
 38 39  2  0
 39 40  1  0
 40 41  2  0
 41 42  1  0
 42 43  2  0
 43 44  1  0
 44 45  2  0
 45 46  1  0
 46 47  2  0
 47 48  1  0
 43 48  1  0
 48 49  2  0
 40 49  1  0
 49 50  1  0
 50 51  2  0
 51 52  1  0
 52 53  2  0
 53 54  1  0
 53 55  1  0
 55 56  2  0
 50 56  1  0
 41 57  1  0
 57 58  1  0
 58 59  1  0
 57 59  1  0
 34 60  1  0
 60 61  1  0
 61 62  2  0
 61 63  1  0
  1 64  1  0
  2 65  1  6
  3 66  1  0
  3 67  1  0
  4 68  1  1
  5 69  1  0
  6 70  1  0
  7 71  1  0
 12 72  1  0
 13 73  1  0
 14 74  1  0
 15 75  1  0
 19 76  1  0
 20 77  1  0
 23 78  1  0
 24 79  1  0
 25 80  1  0
 26 81  1  0
 26 82  1  0
 27 83  1  0
 27 84  1  0
 28 85  1  0
 28 86  1  0
 33 87  1  0
 34 88  1  1
 35 89  1  0
 35 90  1  0
 36 91  1  1
 37 92  1  0
 38 93  1  0
 39 94  1  0
 44 95  1  0
 45 96  1  0
 46 97  1  0
 47 98  1  0
 51 99  1  0
 52100  1  0
 55101  1  0
 56102  1  0
 57103  1  0
 58104  1  0
 58105  1  0
 59106  1  0
 59107  1  0
 60108  1  0
 60109  1  0
M  CHG  3  31  -1  32   2  63  -1
M  END
> <Uni-Dock RESULT> 
ENERGY=   -5.055  LOWER_BOUND=    6.663  UPPER_BOUND=    9.978
INTER + INTRA:          -5.055
INTER:                  -5.055
INTRA:                   0.000
UNBOUND:                 0.000

$$$$

     RDKit          3D

109114  0  0  0  0  0  0  0  0999 V2000
   52.5466    4.2314   17.6928 O   0  0  0  0  0  0  0  0  0  0  0  0
   52.3424    3.6305   18.9728 C   0  0  2  0  0  0  0  0  0  0  0  0
   51.6337    4.6546   19.8688 C   0  0  0  0  0  0  0  0  0  0  0  0
   52.4570    5.9134   20.1659 C   0  0  2  0  0  0  0  0  0  0  0  0
   53.3090    5.6801   21.2884 O   0  0  0  0  0  0  0  0  0  0  0  0
   51.5687    7.0627   20.5766 C   0  0  0  0  0  0  0  0  0  0  0  0
   51.5465    8.2433   19.9355 C   0  0  0  0  0  0  0  0  0  0  0  0
   50.6602    9.3527   20.3360 C   0  0  0  0  0  0  0  0  0  0  0  0
   50.8483   10.0239   21.5576 C   0  0  0  0  0  0  0  0  0  0  0  0
   50.0159   11.0272   21.9537 N   0  0  0  0  0  0  0  0  0  0  0  0
   49.0089   11.4154   21.1628 C   0  0  0  0  0  0  0  0  0  0  0  0
   48.1867   12.4481   21.6048 C   0  0  0  0  0  0  0  0  0  0  0  0
   47.1064   12.9087   20.8475 C   0  0  0  0  0  0  0  0  0  0  0  0
   46.8355   12.3256   19.6183 C   0  0  0  0  0  0  0  0  0  0  0  0
   47.6407   11.2846   19.1588 C   0  0  0  0  0  0  0  0  0  0  0  0
   48.7454   10.8133   19.9137 C   0  0  0  0  0  0  0  0  0  0  0  0
   49.6031    9.7608   19.4869 C   0  0  0  0  0  0  0  0  0  0  0  0
   49.4038    9.1101   18.1701 C   0  0  0  0  0  0  0  0  0  0  0  0
   49.8726    9.7178   16.9899 C   0  0  0  0  0  0  0  0  0  0  0  0
   49.6691    9.1104   15.7481 C   0  0  0  0  0  0  0  0  0  0  0  0
   49.0029    7.8926   15.6839 C   0  0  0  0  0  0  0  0  0  0  0  0
   48.7798    7.3272   14.4888 F   0  0  0  0  0  0  0  0  0  0  0  0
   48.5425    7.2668   16.8348 C   0  0  0  0  0  0  0  0  0  0  0  0
   48.7384    7.8759   18.0761 C   0  0  0  0  0  0  0  0  0  0  0  0
   51.9791    9.6749   22.5112 C   0  0  0  0  0  0  0  0  0  0  0  0
   52.7485   10.7767   23.2110 C   0  0  0  0  0  0  0  0  0  0  0  0
   53.4168    9.9637   22.1462 C   0  0  0  0  0  0  0  0  0  0  0  0
   53.6738    3.1430   19.5193 C   0  0  0  0  0  0  0  0  0  0  0  0
   54.1550    1.9290   18.7298 C   0  0  0  0  0  0  0  0  0  0  0  0
   53.8349    1.9179   17.5026 O   0  0  0  0  0  0  0  0  0  0  0  0
   54.8381    1.1015   19.3942 O   0  0  0  0  0  0  0  0  0  0  0  0
   51.0165    8.0432   19.6138 Ca  0  0  0  0  0 15  0  0  0  0  0  0
   55.5077    4.7752   21.0601 O   0  0  0  0  0  0  0  0  0  0  0  0
   54.7565    4.7284   19.8316 C   0  0  2  0  0  0  0  0  0  0  0  0
   53.3844    5.3671   20.1018 C   0  0  0  0  0  0  0  0  0  0  0  0
   53.4674    6.8913   19.9824 C   0  0  2  0  0  0  0  0  0  0  0  0
   54.3563    7.4192   20.9726 O   0  0  0  0  0  0  0  0  0  0  0  0
   52.1283    7.5293   20.2072 C   0  0  0  0  0  0  0  0  0  0  0  0
   51.3077    7.8993   19.2112 C   0  0  0  0  0  0  0  0  0  0  0  0
   49.9935    8.5196   19.4628 C   0  0  0  0  0  0  0  0  0  0  0  0
   48.9156    7.7589   19.9552 C   0  0  0  0  0  0  0  0  0  0  0  0
   47.7078    8.3320   20.2016 N   0  0  0  0  0  0  0  0  0  0  0  0
   47.5279    9.6452   19.9884 C   0  0  0  0  0  0  0  0  0  0  0  0
   46.2834   10.1863   20.2848 C   0  0  0  0  0  0  0  0  0  0  0  0
   45.9880   11.5323   20.0696 C   0  0  0  0  0  0  0  0  0  0  0  0
   46.9587   12.3716   19.5480 C   0  0  0  0  0  0  0  0  0  0  0  0
   48.2182   11.8547   19.2643 C   0  0  0  0  0  0  0  0  0  0  0  0
   48.5324   10.4862   19.4797 C   0  0  0  0  0  0  0  0  0  0  0  0
   49.7981    9.8985   19.2019 C   0  0  0  0  0  0  0  0  0  0  0  0
   50.8969   10.7150   18.6429 C   0  0  0  0  0  0  0  0  0  0  0  0
   51.1175   10.7720   17.2553 C   0  0  0  0  0  0  0  0  0  0  0  0
   52.1400   11.5625   16.7260 C   0  0  0  0  0  0  0  0  0  0  0  0
   52.9458   12.2979   17.5852 C   0  0  0  0  0  0  0  0  0  0  0  0
   53.9216   13.0650   17.0790 F   0  0  0  0  0  0  0  0  0  0  0  0
   52.7596   12.2496   18.9615 C   0  0  0  0  0  0  0  0  0  0  0  0
   51.7371   11.4598   19.4904 C   0  0  0  0  0  0  0  0  0  0  0  0
   49.0206    6.2592   20.1957 C   0  0  0  0  0  0  0  0  0  0  0  0
   49.5320    5.7403   21.5213 C   0  0  0  0  0  0  0  0  0  0  0  0
   48.0869    5.5627   21.1679 C   0  0  0  0  0  0  0  0  0  0  0  0
   54.6567    3.2768   19.3767 C   0  0  0  0  0  0  0  0  0  0  0  0
   54.0431    3.1374   17.9847 C   0  0  0  0  0  0  0  0  0  0  0  0
   54.0183    4.1883   17.2752 O   0  0  0  0  0  0  0  0  0  0  0  0
   53.6244    1.9811   17.7011 O   0  0  0  0  0  0  0  0  0  0  0  0
   52.9941    3.5069   17.1801 H   0  0  0  0  0  0  0  0  0  0  0  0
   51.6526    2.7912   18.8249 H   0  0  0  0  0  0  0  0  0  0  0  0
   51.3508    4.1574   20.8025 H   0  0  0  0  0  0  0  0  0  0  0  0
   50.7094    4.9545   19.3645 H   0  0  0  0  0  0  0  0  0  0  0  0
   53.0778    6.2014   19.3066 H   0  0  0  0  0  0  0  0  0  0  0  0
   54.1718    5.4138   20.9111 H   0  0  0  0  0  0  0  0  0  0  0  0
   50.9370    6.8803   21.4487 H   0  0  0  0  0  0  0  0  0  0  0  0
   52.1602    8.4068   19.0516 H   0  0  0  0  0  0  0  0  0  0  0  0
   48.3870   12.8990   22.5756 H   0  0  0  0  0  0  0  0  0  0  0  0
   46.4805   13.7125   21.2253 H   0  0  0  0  0  0  0  0  0  0  0  0
   45.9942   12.6666   19.0195 H   0  0  0  0  0  0  0  0  0  0  0  0
   47.3926   10.8305   18.1986 H   0  0  0  0  0  0  0  0  0  0  0  0
   50.4091   10.6637   17.0343 H   0  0  0  0  0  0  0  0  0  0  0  0
   50.0284    9.5733   14.8359 H   0  0  0  0  0  0  0  0  0  0  0  0
   48.0394    6.3088   16.7612 H   0  0  0  0  0  0  0  0  0  0  0  0
   48.3871    7.3790   18.9788 H   0  0  0  0  0  0  0  0  0  0  0  0
   51.8008    8.7840   23.1105 H   0  0  0  0  0  0  0  0  0  0  0  0
   53.0299   10.6070   24.2434 H   0  0  0  0  0  0  0  0  0  0  0  0
   52.4971   11.8066   22.9800 H   0  0  0  0  0  0  0  0  0  0  0  0
   53.6407   10.4505   21.2053 H   0  0  0  0  0  0  0  0  0  0  0  0
   54.1578    9.2340   22.4509 H   0  0  0  0  0  0  0  0  0  0  0  0
   54.4564    3.9032   19.4207 H   0  0  0  0  0  0  0  0  0  0  0  0
   53.5668    2.8664   20.5735 H   0  0  0  0  0  0  0  0  0  0  0  0
   55.4094    5.6975   21.3768 H   0  0  0  0  0  0  0  0  0  0  0  0
   55.3236    5.3115   19.0934 H   0  0  0  0  0  0  0  0  0  0  0  0
   52.6333    4.9914   19.3949 H   0  0  0  0  0  0  0  0  0  0  0  0
   53.0516    5.0899   21.1108 H   0  0  0  0  0  0  0  0  0  0  0  0
   53.8671    7.1590   18.9938 H   0  0  0  0  0  0  0  0  0  0  0  0
   54.3927    8.3766   20.8025 H   0  0  0  0  0  0  0  0  0  0  0  0
   51.8245    7.6396   21.2464 H   0  0  0  0  0  0  0  0  0  0  0  0
   51.5951    7.7666   18.1690 H   0  0  0  0  0  0  0  0  0  0  0  0
   45.5155    9.5388   20.6988 H   0  0  0  0  0  0  0  0  0  0  0  0
   45.0003   11.9158   20.2970 H   0  0  0  0  0  0  0  0  0  0  0  0
   46.7474   13.4204   19.3694 H   0  0  0  0  0  0  0  0  0  0  0  0
   48.9704   12.5323   18.8672 H   0  0  0  0  0  0  0  0  0  0  0  0
   50.4890   10.1972   16.5799 H   0  0  0  0  0  0  0  0  0  0  0  0
   52.3104   11.6102   15.6543 H   0  0  0  0  0  0  0  0  0  0  0  0
   53.4128   12.8251   19.6124 H   0  0  0  0  0  0  0  0  0  0  0  0
   51.5917   11.4241   20.5677 H   0  0  0  0  0  0  0  0  0  0  0  0
   49.2822    5.6774   19.3076 H   0  0  0  0  0  0  0  0  0  0  0  0
   49.7786    6.4513   22.2991 H   0  0  0  0  0  0  0  0  0  0  0  0
   50.1827    4.8751   21.4932 H   0  0  0  0  0  0  0  0  0  0  0  0
   47.3539    6.1583   21.6950 H   0  0  0  0  0  0  0  0  0  0  0  0
   47.7533    4.5659   20.8992 H   0  0  0  0  0  0  0  0  0  0  0  0
   54.0850    2.6840   20.1015 H   0  0  0  0  0  0  0  0  0  0  0  0
   55.6605    2.8361   19.3432 H   0  0  0  0  0  0  0  0  0  0  0  0
  2  1  1  0
  2  3  1  0
  3  4  1  0
  4  5  1  0
  4  6  1  0
  6  7  2  0
  7  8  1  0
  8  9  2  0
  9 10  1  0
 10 11  2  0
 11 12  1  0
 12 13  2  0
 13 14  1  0
 14 15  2  0
 15 16  1  0
 11 16  1  0
 16 17  2  0
  8 17  1  0
 17 18  1  0
 18 19  2  0
 19 20  1  0
 20 21  2  0
 21 22  1  0
 21 23  1  0
 23 24  2  0
 18 24  1  0
  9 25  1  0
 25 26  1  0
 26 27  1  0
 25 27  1  0
  2 28  1  0
 28 29  1  0
 29 30  2  0
 29 31  1  0
 34 33  1  0
 34 35  1  0
 35 36  1  0
 36 37  1  0
 36 38  1  0
 38 39  2  0
 39 40  1  0
 40 41  2  0
 41 42  1  0
 42 43  2  0
 43 44  1  0
 44 45  2  0
 45 46  1  0
 46 47  2  0
 47 48  1  0
 43 48  1  0
 48 49  2  0
 40 49  1  0
 49 50  1  0
 50 51  2  0
 51 52  1  0
 52 53  2  0
 53 54  1  0
 53 55  1  0
 55 56  2  0
 50 56  1  0
 41 57  1  0
 57 58  1  0
 58 59  1  0
 57 59  1  0
 34 60  1  0
 60 61  1  0
 61 62  2  0
 61 63  1  0
  1 64  1  0
  2 65  1  6
  3 66  1  0
  3 67  1  0
  4 68  1  1
  5 69  1  0
  6 70  1  0
  7 71  1  0
 12 72  1  0
 13 73  1  0
 14 74  1  0
 15 75  1  0
 19 76  1  0
 20 77  1  0
 23 78  1  0
 24 79  1  0
 25 80  1  0
 26 81  1  0
 26 82  1  0
 27 83  1  0
 27 84  1  0
 28 85  1  0
 28 86  1  0
 33 87  1  0
 34 88  1  1
 35 89  1  0
 35 90  1  0
 36 91  1  1
 37 92  1  0
 38 93  1  0
 39 94  1  0
 44 95  1  0
 45 96  1  0
 46 97  1  0
 47 98  1  0
 51 99  1  0
 52100  1  0
 55101  1  0
 56102  1  0
 57103  1  0
 58104  1  0
 58105  1  0
 59106  1  0
 59107  1  0
 60108  1  0
 60109  1  0
M  CHG  3  31  -1  32   2  63  -1
M  END
> <Uni-Dock RESULT> 
ENERGY=   -4.997  LOWER_BOUND=    3.383  UPPER_BOUND=    7.104
INTER + INTRA:          -4.997
INTER:                  -4.997
INTRA:                   0.000
UNBOUND:                 0.000

$$$$

     RDKit          3D

109114  0  0  0  0  0  0  0  0999 V2000
   47.3137   13.3959   18.0818 O   0  0  0  0  0  0  0  0  0  0  0  0
   48.6154   13.7670   18.5387 C   0  0  2  0  0  0  0  0  0  0  0  0
   49.5960   13.5841   17.3730 C   0  0  0  0  0  0  0  0  0  0  0  0
   49.7567   12.1339   16.9019 C   0  0  2  0  0  0  0  0  0  0  0  0
   50.7438   11.4741   17.6961 O   0  0  0  0  0  0  0  0  0  0  0  0
   50.2825   12.0739   15.4882 C   0  0  0  0  0  0  0  0  0  0  0  0
   49.6404   11.4467   14.4885 C   0  0  0  0  0  0  0  0  0  0  0  0
   50.1562   11.4108   13.1067 C   0  0  0  0  0  0  0  0  0  0  0  0
   51.3304   10.7037   12.7911 C   0  0  0  0  0  0  0  0  0  0  0  0
   51.8350   10.6912   11.5255 N   0  0  0  0  0  0  0  0  0  0  0  0
   51.1971   11.3367   10.5423 C   0  0  0  0  0  0  0  0  0  0  0  0
   51.7453   11.2926    9.2635 C   0  0  0  0  0  0  0  0  0  0  0  0
   51.1508   11.9470    8.1813 C   0  0  0  0  0  0  0  0  0  0  0  0
   49.9805   12.6658    8.3764 C   0  0  0  0  0  0  0  0  0  0  0  0
   49.4175   12.7303    9.6500 C   0  0  0  0  0  0  0  0  0  0  0  0
   50.0062   12.0638   10.7553 C   0  0  0  0  0  0  0  0  0  0  0  0
   49.4680   12.0904   12.0725 C   0  0  0  0  0  0  0  0  0  0  0  0
   48.2012   12.8053   12.3573 C   0  0  0  0  0  0  0  0  0  0  0  0
   46.9590   12.2112   12.0639 C   0  0  0  0  0  0  0  0  0  0  0  0
   45.7666   12.8937   12.3181 C   0  0  0  0  0  0  0  0  0  0  0  0
   45.8129   14.1677   12.8713 C   0  0  0  0  0  0  0  0  0  0  0  0
   44.6691   14.8341   13.0842 F   0  0  0  0  0  0  0  0  0  0  0  0
   47.0249   14.7699   13.1817 C   0  0  0  0  0  0  0  0  0  0  0  0
   48.2180   14.0923   12.9215 C   0  0  0  0  0  0  0  0  0  0  0  0
   52.1105    9.9176   13.8319 C   0  0  0  0  0  0  0  0  0  0  0  0
   52.6789    8.5565   13.4855 C   0  0  0  0  0  0  0  0  0  0  0  0
   51.5352    8.6623   14.4458 C   0  0  0  0  0  0  0  0  0  0  0  0
   48.9648   12.9587   19.7771 C   0  0  0  0  0  0  0  0  0  0  0  0
   48.1248   13.4226   20.9637 C   0  0  0  0  0  0  0  0  0  0  0  0
   46.9582   13.8294   20.6768 O   0  0  0  0  0  0  0  0  0  0  0  0
   48.6894   13.3145   22.0871 O   0  0  0  0  0  0  0  0  0  0  0  0
   49.4021   12.0225   14.2985 Ca  0  0  0  0  0 15  0  0  0  0  0  0
   50.2033   10.3386   19.7267 O   0  0  0  0  0  0  0  0  0  0  0  0
   49.0991   11.1041   19.2064 C   0  0  2  0  0  0  0  0  0  0  0  0
   49.5622   11.7519   17.8913 C   0  0  0  0  0  0  0  0  0  0  0  0
   49.4171   10.7683   16.7268 C   0  0  2  0  0  0  0  0  0  0  0  0
   50.2607    9.6298   16.9306 O   0  0  0  0  0  0  0  0  0  0  0  0
   49.8304   11.3962   15.4284 C   0  0  0  0  0  0  0  0  0  0  0  0
   48.9625   11.9323   14.5558 C   0  0  0  0  0  0  0  0  0  0  0  0
   49.3987   12.5484   13.2886 C   0  0  0  0  0  0  0  0  0  0  0  0
   50.0516   13.7960   13.2767 C   0  0  0  0  0  0  0  0  0  0  0  0
   50.4675   14.3585   12.1111 N   0  0  0  0  0  0  0  0  0  0  0  0
   50.2705   13.7209   10.9461 C   0  0  0  0  0  0  0  0  0  0  0  0
   50.7415   14.3255    9.7877 C   0  0  0  0  0  0  0  0  0  0  0  0
   50.5592   13.7584    8.5266 C   0  0  0  0  0  0  0  0  0  0  0  0
   49.8924   12.5499    8.4090 C   0  0  0  0  0  0  0  0  0  0  0  0
   49.4314   11.9172    9.5585 C   0  0  0  0  0  0  0  0  0  0  0  0
   49.6114   12.4834   10.8488 C   0  0  0  0  0  0  0  0  0  0  0  0
   49.1561   11.8885   12.0585 C   0  0  0  0  0  0  0  0  0  0  0  0
   48.4337   10.5986   12.0336 C   0  0  0  0  0  0  0  0  0  0  0  0
   47.0283   10.5608   12.0078 C   0  0  0  0  0  0  0  0  0  0  0  0
   46.3467    9.3428   11.9596 C   0  0  0  0  0  0  0  0  0  0  0  0
   47.0709    8.1581   11.9381 C   0  0  0  0  0  0  0  0  0  0  0  0
   46.4193    6.9880   11.8819 F   0  0  0  0  0  0  0  0  0  0  0  0
   48.4600    8.1651   11.9769 C   0  0  0  0  0  0  0  0  0  0  0  0
   49.1411    9.3827   12.0246 C   0  0  0  0  0  0  0  0  0  0  0  0
   50.2884   14.6029   14.5458 C   0  0  0  0  0  0  0  0  0  0  0  0
   51.5293   14.3591   15.3759 C   0  0  0  0  0  0  0  0  0  0  0  0
   51.3941   15.6399   14.6102 C   0  0  0  0  0  0  0  0  0  0  0  0
   48.6779   12.1264   20.2560 C   0  0  0  0  0  0  0  0  0  0  0  0
   47.3927   12.8611   19.8789 C   0  0  0  0  0  0  0  0  0  0  0  0
   46.6845   12.3238   18.9744 O   0  0  0  0  0  0  0  0  0  0  0  0
   47.1849   13.9309   20.5155 O   0  0  0  0  0  0  0  0  0  0  0  0
   46.7476   13.5526   18.8838 H   0  0  0  0  0  0  0  0  0  0  0  0
   48.5787   14.8378   18.7714 H   0  0  0  0  0  0  0  0  0  0  0  0
   50.5660   13.9955   17.6715 H   0  0  0  0  0  0  0  0  0  0  0  0
   49.2304   14.1841   16.5334 H   0  0  0  0  0  0  0  0  0  0  0  0
   48.8127   11.5776   16.9800 H   0  0  0  0  0  0  0  0  0  0  0  0
   50.2463   11.0093   18.3989 H   0  0  0  0  0  0  0  0  0  0  0  0
   51.2398   12.5725   15.3211 H   0  0  0  0  0  0  0  0  0  0  0  0
   48.6742   10.9751   14.6587 H   0  0  0  0  0  0  0  0  0  0  0  0
   52.6716   10.7415    9.1087 H   0  0  0  0  0  0  0  0  0  0  0  0
   51.6088   11.8975    7.1973 H   0  0  0  0  0  0  0  0  0  0  0  0
   49.5087   13.1873    7.5470 H   0  0  0  0  0  0  0  0  0  0  0  0
   48.5087   13.3195    9.7792 H   0  0  0  0  0  0  0  0  0  0  0  0
   46.9149   11.2075   11.6453 H   0  0  0  0  0  0  0  0  0  0  0  0
   44.8071   12.4410   12.0948 H   0  0  0  0  0  0  0  0  0  0  0  0
   47.0353   15.7584   13.6277 H   0  0  0  0  0  0  0  0  0  0  0  0
   49.1673   14.5607   13.1757 H   0  0  0  0  0  0  0  0  0  0  0  0
   52.7381   10.5291   14.4775 H   0  0  0  0  0  0  0  0  0  0  0  0
   53.6602    8.3145   13.8756 H   0  0  0  0  0  0  0  0  0  0  0  0
   52.4775    8.1505   12.4997 H   0  0  0  0  0  0  0  0  0  0  0  0
   50.5669    8.3043   14.1191 H   0  0  0  0  0  0  0  0  0  0  0  0
   51.7346    8.4931   15.4975 H   0  0  0  0  0  0  0  0  0  0  0  0
   48.7449   11.8940   19.6428 H   0  0  0  0  0  0  0  0  0  0  0  0
   50.0259   13.0829   20.0179 H   0  0  0  0  0  0  0  0  0  0  0  0
   50.5221    9.8120   18.9641 H   0  0  0  0  0  0  0  0  0  0  0  0
   48.2800   10.3943   19.0286 H   0  0  0  0  0  0  0  0  0  0  0  0
   48.9771   12.6549   17.6741 H   0  0  0  0  0  0  0  0  0  0  0  0
   50.6118   12.0583   17.9918 H   0  0  0  0  0  0  0  0  0  0  0  0
   48.3780   10.4129   16.6761 H   0  0  0  0  0  0  0  0  0  0  0  0
   50.0779    9.0359   16.1818 H   0  0  0  0  0  0  0  0  0  0  0  0
   50.9019   11.4391   15.2427 H   0  0  0  0  0  0  0  0  0  0  0  0
   47.8906   11.9164   14.7490 H   0  0  0  0  0  0  0  0  0  0  0  0
   51.2702   15.2712    9.8678 H   0  0  0  0  0  0  0  0  0  0  0  0
   50.9257   14.2673    7.6428 H   0  0  0  0  0  0  0  0  0  0  0  0
   49.7368   12.0946    7.4369 H   0  0  0  0  0  0  0  0  0  0  0  0
   48.9215   10.9633    9.4464 H   0  0  0  0  0  0  0  0  0  0  0  0
   46.4583   11.4862   12.0250 H   0  0  0  0  0  0  0  0  0  0  0  0
   45.2612    9.3113   11.9368 H   0  0  0  0  0  0  0  0  0  0  0  0
   49.0022    7.2229   11.9721 H   0  0  0  0  0  0  0  0  0  0  0  0
   50.2284    9.3866   12.0535 H   0  0  0  0  0  0  0  0  0  0  0  0
   49.3772   14.8631   15.0912 H   0  0  0  0  0  0  0  0  0  0  0  0
   52.2555   13.6362   15.0276 H   0  0  0  0  0  0  0  0  0  0  0  0
   51.4141   14.3841   16.4523 H   0  0  0  0  0  0  0  0  0  0  0  0
   52.0175   15.7834   13.7380 H   0  0  0  0  0  0  0  0  0  0  0  0
   51.1869   16.5436   15.1736 H   0  0  0  0  0  0  0  0  0  0  0  0
   49.4846   12.8475   20.4375 H   0  0  0  0  0  0  0  0  0  0  0  0
   48.5013   11.6163   21.2106 H   0  0  0  0  0  0  0  0  0  0  0  0
  2  1  1  0
  2  3  1  0
  3  4  1  0
  4  5  1  0
  4  6  1  0
  6  7  2  0
  7  8  1  0
  8  9  2  0
  9 10  1  0
 10 11  2  0
 11 12  1  0
 12 13  2  0
 13 14  1  0
 14 15  2  0
 15 16  1  0
 11 16  1  0
 16 17  2  0
  8 17  1  0
 17 18  1  0
 18 19  2  0
 19 20  1  0
 20 21  2  0
 21 22  1  0
 21 23  1  0
 23 24  2  0
 18 24  1  0
  9 25  1  0
 25 26  1  0
 26 27  1  0
 25 27  1  0
  2 28  1  0
 28 29  1  0
 29 30  2  0
 29 31  1  0
 34 33  1  0
 34 35  1  0
 35 36  1  0
 36 37  1  0
 36 38  1  0
 38 39  2  0
 39 40  1  0
 40 41  2  0
 41 42  1  0
 42 43  2  0
 43 44  1  0
 44 45  2  0
 45 46  1  0
 46 47  2  0
 47 48  1  0
 43 48  1  0
 48 49  2  0
 40 49  1  0
 49 50  1  0
 50 51  2  0
 51 52  1  0
 52 53  2  0
 53 54  1  0
 53 55  1  0
 55 56  2  0
 50 56  1  0
 41 57  1  0
 57 58  1  0
 58 59  1  0
 57 59  1  0
 34 60  1  0
 60 61  1  0
 61 62  2  0
 61 63  1  0
  1 64  1  0
  2 65  1  6
  3 66  1  0
  3 67  1  0
  4 68  1  1
  5 69  1  0
  6 70  1  0
  7 71  1  0
 12 72  1  0
 13 73  1  0
 14 74  1  0
 15 75  1  0
 19 76  1  0
 20 77  1  0
 23 78  1  0
 24 79  1  0
 25 80  1  0
 26 81  1  0
 26 82  1  0
 27 83  1  0
 27 84  1  0
 28 85  1  0
 28 86  1  0
 33 87  1  0
 34 88  1  1
 35 89  1  0
 35 90  1  0
 36 91  1  1
 37 92  1  0
 38 93  1  0
 39 94  1  0
 44 95  1  0
 45 96  1  0
 46 97  1  0
 47 98  1  0
 51 99  1  0
 52100  1  0
 55101  1  0
 56102  1  0
 57103  1  0
 58104  1  0
 58105  1  0
 59106  1  0
 59107  1  0
 60108  1  0
 60109  1  0
M  CHG  3  31  -1  32   2  63  -1
M  END
> <Uni-Dock RESULT> 
ENERGY=   -4.990  LOWER_BOUND=    5.244  UPPER_BOUND=    8.402
INTER + INTRA:          -4.990
INTER:                  -4.990
INTRA:                   0.000
UNBOUND:                 0.000

$$$$

     RDKit          3D

109114  0  0  0  0  0  0  0  0999 V2000
   52.2694    6.4213    9.1265 O   0  0  0  0  0  0  0  0  0  0  0  0
   53.6340    6.5012    9.5416 C   0  0  2  0  0  0  0  0  0  0  0  0
   53.7380    7.5885   10.6191 C   0  0  0  0  0  0  0  0  0  0  0  0
   53.4062    9.0021   10.1268 C   0  0  2  0  0  0  0  0  0  0  0  0
   54.5717    9.6025    9.5596 O   0  0  0  0  0  0  0  0  0  0  0  0
   53.0165    9.9025   11.2739 C   0  0  0  0  0  0  0  0  0  0  0  0
   51.8419   10.5519   11.3356 C   0  0  0  0  0  0  0  0  0  0  0  0
   51.4656   11.4151   12.4715 C   0  0  0  0  0  0  0  0  0  0  0  0
   52.1423   12.6234   12.7169 C   0  0  0  0  0  0  0  0  0  0  0  0
   51.8263   13.4122   13.7821 N   0  0  0  0  0  0  0  0  0  0  0  0
   50.8339   13.0595   14.6072 C   0  0  0  0  0  0  0  0  0  0  0  0
   50.5414   13.8980   15.6793 C   0  0  0  0  0  0  0  0  0  0  0  0
   49.5288   13.6010   16.5953 C   0  0  0  0  0  0  0  0  0  0  0  0
   48.7879   12.4383   16.4419 C   0  0  0  0  0  0  0  0  0  0  0  0
   49.0680   11.5797   15.3801 C   0  0  0  0  0  0  0  0  0  0  0  0
   50.0876   11.8735   14.4385 C   0  0  0  0  0  0  0  0  0  0  0  0
   50.4077   11.0362   13.3331 C   0  0  0  0  0  0  0  0  0  0  0  0
   49.6395    9.7945   13.0776 C   0  0  0  0  0  0  0  0  0  0  0  0
   48.3868    9.8435   12.4370 C   0  0  0  0  0  0  0  0  0  0  0  0
   47.6570    8.6734   12.2120 C   0  0  0  0  0  0  0  0  0  0  0  0
   48.1798    7.4525   12.6208 C   0  0  0  0  0  0  0  0  0  0  0  0
   47.4637    6.3346   12.4335 F   0  0  0  0  0  0  0  0  0  0  0  0
   49.4189    7.3766   13.2429 C   0  0  0  0  0  0  0  0  0  0  0  0
   50.1465    8.5457   13.4752 C   0  0  0  0  0  0  0  0  0  0  0  0
   53.2642   13.1233   11.8218 C   0  0  0  0  0  0  0  0  0  0  0  0
   53.3457   14.5913   11.4557 C   0  0  0  0  0  0  0  0  0  0  0  0
   52.9821   13.5833   10.4102 C   0  0  0  0  0  0  0  0  0  0  0  0
   54.5170    6.7422    8.3286 C   0  0  0  0  0  0  0  0  0  0  0  0
   54.5762    5.4875    7.4620 C   0  0  0  0  0  0  0  0  0  0  0  0
   53.5215    4.7830    7.4543 O   0  0  0  0  0  0  0  0  0  0  0  0
   55.6609    5.3254    6.8377 O   0  0  0  0  0  0  0  0  0  0  0  0
   51.6170   10.0800   11.7244 Ca  0  0  0  0  0 15  0  0  0  0  0  0
   55.1429    9.3600    7.2532 O   0  0  0  0  0  0  0  0  0  0  0  0
   54.0532    8.5048    7.6493 C   0  0  2  0  0  0  0  0  0  0  0  0
   53.7631    8.7801    9.1338 C   0  0  0  0  0  0  0  0  0  0  0  0
   52.8496    9.9994    9.2864 C   0  0  2  0  0  0  0  0  0  0  0  0
   53.4979   11.1717    8.7815 O   0  0  0  0  0  0  0  0  0  0  0  0
   52.5261   10.2610   10.7278 C   0  0  0  0  0  0  0  0  0  0  0  0
   51.3959    9.8443   11.3205 C   0  0  0  0  0  0  0  0  0  0  0  0
   51.1073   10.1115   12.7420 C   0  0  0  0  0  0  0  0  0  0  0  0
   51.7951    9.4265   13.7621 C   0  0  0  0  0  0  0  0  0  0  0  0
   51.5408    9.6820   15.0729 N   0  0  0  0  0  0  0  0  0  0  0  0
   50.6310   10.6077   15.4158 C   0  0  0  0  0  0  0  0  0  0  0  0
   50.4311   10.8514   16.7686 C   0  0  0  0  0  0  0  0  0  0  0  0
   49.4877   11.7707   17.2266 C   0  0  0  0  0  0  0  0  0  0  0  0
   48.7198   12.4760   16.3147 C   0  0  0  0  0  0  0  0  0  0  0  0
   48.9190   12.2628   14.9549 C   0  0  0  0  0  0  0  0  0  0  0  0
   49.8771   11.3302   14.4751 C   0  0  0  0  0  0  0  0  0  0  0  0
   50.1203   11.0634   13.0988 C   0  0  0  0  0  0  0  0  0  0  0  0
   49.3495   11.7672   12.0515 C   0  0  0  0  0  0  0  0  0  0  0  0
   48.1915   11.1910   11.5000 C   0  0  0  0  0  0  0  0  0  0  0  0
   47.4499   11.8667   10.5284 C   0  0  0  0  0  0  0  0  0  0  0  0
   47.8667   13.1219   10.1051 C   0  0  0  0  0  0  0  0  0  0  0  0
   47.1512   13.7767    9.1798 F   0  0  0  0  0  0  0  0  0  0  0  0
   49.0149   13.7094   10.6225 C   0  0  0  0  0  0  0  0  0  0  0  0
   49.7557   13.0340   11.5941 C   0  0  0  0  0  0  0  0  0  0  0  0
   52.8192    8.3398   13.4654 C   0  0  0  0  0  0  0  0  0  0  0  0
   54.2660    8.7100   13.2249 C   0  0  0  0  0  0  0  0  0  0  0  0
   53.8894    7.9849   14.4807 C   0  0  0  0  0  0  0  0  0  0  0  0
   54.4475    7.0571    7.3797 C   0  0  0  0  0  0  0  0  0  0  0  0
   53.2889    6.0834    7.5876 C   0  0  0  0  0  0  0  0  0  0  0  0
   52.1272    6.5915    7.6122 O   0  0  0  0  0  0  0  0  0  0  0  0
   53.6265    4.8741    7.7158 O   0  0  0  0  0  0  0  0  0  0  0  0
   52.2899    5.6969    8.4461 H   0  0  0  0  0  0  0  0  0  0  0  0
   53.8796    5.5441   10.0167 H   0  0  0  0  0  0  0  0  0  0  0  0
   54.7489    7.5608   11.0393 H   0  0  0  0  0  0  0  0  0  0  0  0
   53.0421    7.3278   11.4230 H   0  0  0  0  0  0  0  0  0  0  0  0
   52.6123    8.9887    9.3677 H   0  0  0  0  0  0  0  0  0  0  0  0
   54.5084    9.4384    8.5970 H   0  0  0  0  0  0  0  0  0  0  0  0
   53.7627   10.0061   12.0647 H   0  0  0  0  0  0  0  0  0  0  0  0
   51.0940   10.4220   10.5556 H   0  0  0  0  0  0  0  0  0  0  0  0
   51.1300   14.8046   15.8118 H   0  0  0  0  0  0  0  0  0  0  0  0
   49.3310   14.2743   17.4249 H   0  0  0  0  0  0  0  0  0  0  0  0
   48.0013   12.1881   17.1498 H   0  0  0  0  0  0  0  0  0  0  0  0
   48.4841   10.6624   15.2952 H   0  0  0  0  0  0  0  0  0  0  0  0
   47.9785   10.7945   12.0999 H   0  0  0  0  0  0  0  0  0  0  0  0
   46.6921    8.7049   11.7185 H   0  0  0  0  0  0  0  0  0  0  0  0
   49.8135    6.4106   13.5386 H   0  0  0  0  0  0  0  0  0  0  0  0
   51.1228    8.4838   13.9529 H   0  0  0  0  0  0  0  0  0  0  0  0
   54.2226   12.6357   11.9901 H   0  0  0  0  0  0  0  0  0  0  0  0
   54.3312   15.0399   11.4200 H   0  0  0  0  0  0  0  0  0  0  0  0
   52.5654   15.2549   11.8135 H   0  0  0  0  0  0  0  0  0  0  0  0
   51.9636   13.5823   10.0425 H   0  0  0  0  0  0  0  0  0  0  0  0
   53.7218   13.3402    9.6565 H   0  0  0  0  0  0  0  0  0  0  0  0
   54.1206    7.5385    7.6892 H   0  0  0  0  0  0  0  0  0  0  0  0
   55.5304    7.0049    8.6498 H   0  0  0  0  0  0  0  0  0  0  0  0
   54.8955   10.2483    7.5854 H   0  0  0  0  0  0  0  0  0  0  0  0
   53.1938    8.7792    7.0228 H   0  0  0  0  0  0  0  0  0  0  0  0
   53.2852    7.9116    9.6054 H   0  0  0  0  0  0  0  0  0  0  0  0
   54.7113    8.9568    9.6584 H   0  0  0  0  0  0  0  0  0  0  0  0
   51.9317    9.8436    8.7016 H   0  0  0  0  0  0  0  0  0  0  0  0
   52.8431   11.8862    8.8682 H   0  0  0  0  0  0  0  0  0  0  0  0
   53.2935   10.7798   11.2990 H   0  0  0  0  0  0  0  0  0  0  0  0
   50.6360    9.3010   10.7602 H   0  0  0  0  0  0  0  0  0  0  0  0
   51.0309   10.3077   17.4932 H   0  0  0  0  0  0  0  0  0  0  0  0
   49.3473   11.9224   18.2905 H   0  0  0  0  0  0  0  0  0  0  0  0
   47.9779   13.1923   16.6508 H   0  0  0  0  0  0  0  0  0  0  0  0
   48.3151   12.8352   14.2547 H   0  0  0  0  0  0  0  0  0  0  0  0
   47.8626   10.2084   11.8287 H   0  0  0  0  0  0  0  0  0  0  0  0
   46.5535   11.4246   10.1030 H   0  0  0  0  0  0  0  0  0  0  0  0
   49.3259   14.6874   10.2642 H   0  0  0  0  0  0  0  0  0  0  0  0
   50.6533   13.4957   11.9992 H   0  0  0  0  0  0  0  0  0  0  0  0
   52.4273    7.4956   12.8915 H   0  0  0  0  0  0  0  0  0  0  0  0
   54.5591    9.7484   13.3092 H   0  0  0  0  0  0  0  0  0  0  0  0
   54.7909    8.1659   12.4496 H   0  0  0  0  0  0  0  0  0  0  0  0
   53.9151    8.5304   15.4144 H   0  0  0  0  0  0  0  0  0  0  0  0
   54.1636    6.9381   14.5590 H   0  0  0  0  0  0  0  0  0  0  0  0
   55.3004    6.7667    8.0057 H   0  0  0  0  0  0  0  0  0  0  0  0
   54.7820    6.9586    6.3399 H   0  0  0  0  0  0  0  0  0  0  0  0
  2  1  1  0
  2  3  1  0
  3  4  1  0
  4  5  1  0
  4  6  1  0
  6  7  2  0
  7  8  1  0
  8  9  2  0
  9 10  1  0
 10 11  2  0
 11 12  1  0
 12 13  2  0
 13 14  1  0
 14 15  2  0
 15 16  1  0
 11 16  1  0
 16 17  2  0
  8 17  1  0
 17 18  1  0
 18 19  2  0
 19 20  1  0
 20 21  2  0
 21 22  1  0
 21 23  1  0
 23 24  2  0
 18 24  1  0
  9 25  1  0
 25 26  1  0
 26 27  1  0
 25 27  1  0
  2 28  1  0
 28 29  1  0
 29 30  2  0
 29 31  1  0
 34 33  1  0
 34 35  1  0
 35 36  1  0
 36 37  1  0
 36 38  1  0
 38 39  2  0
 39 40  1  0
 40 41  2  0
 41 42  1  0
 42 43  2  0
 43 44  1  0
 44 45  2  0
 45 46  1  0
 46 47  2  0
 47 48  1  0
 43 48  1  0
 48 49  2  0
 40 49  1  0
 49 50  1  0
 50 51  2  0
 51 52  1  0
 52 53  2  0
 53 54  1  0
 53 55  1  0
 55 56  2  0
 50 56  1  0
 41 57  1  0
 57 58  1  0
 58 59  1  0
 57 59  1  0
 34 60  1  0
 60 61  1  0
 61 62  2  0
 61 63  1  0
  1 64  1  0
  2 65  1  6
  3 66  1  0
  3 67  1  0
  4 68  1  1
  5 69  1  0
  6 70  1  0
  7 71  1  0
 12 72  1  0
 13 73  1  0
 14 74  1  0
 15 75  1  0
 19 76  1  0
 20 77  1  0
 23 78  1  0
 24 79  1  0
 25 80  1  0
 26 81  1  0
 26 82  1  0
 27 83  1  0
 27 84  1  0
 28 85  1  0
 28 86  1  0
 33 87  1  0
 34 88  1  1
 35 89  1  0
 35 90  1  0
 36 91  1  1
 37 92  1  0
 38 93  1  0
 39 94  1  0
 44 95  1  0
 45 96  1  0
 46 97  1  0
 47 98  1  0
 51 99  1  0
 52100  1  0
 55101  1  0
 56102  1  0
 57103  1  0
 58104  1  0
 58105  1  0
 59106  1  0
 59107  1  0
 60108  1  0
 60109  1  0
M  CHG  3  31  -1  32   2  63  -1
M  END
> <Uni-Dock RESULT> 
ENERGY=   -4.933  LOWER_BOUND=    5.835  UPPER_BOUND=    9.564
INTER + INTRA:          -4.933
INTER:                  -4.933
INTRA:                   0.000
UNBOUND:                 0.000

$$$$
