
     RDKit          3D

 77 76  0  0  0  0  0  0  0  0999 V2000
   47.9839    8.2089   12.6618 C   0  0  0  0  0  0  0  0  0  0  0  0
   48.4532    8.2571   13.9852 C   0  0  0  0  0  0  0  0  0  0  0  0
   48.9192    8.2317   11.6119 C   0  0  0  0  0  0  0  0  0  0  0  0
   44.6107    6.5660   11.9383 N   0  0  0  0  0  0  0  0  0  0  0  0
   50.2830    8.3052   11.8920 C   0  0  0  0  0  0  0  0  0  0  0  0
   49.8209    8.3329   14.2412 C   0  0  0  0  0  0  0  0  0  0  0  0
   50.7411    8.3546   13.2020 C   0  0  0  0  0  0  0  0  0  0  0  0
   46.5070    8.0958   12.3521 C   0  0  1  0  0  0  0  0  0  0  0  0
   44.0383    5.2122   11.7876 C   0  0  0  0  0  0  0  0  0  0  0  0
   46.0735    6.6234   12.1352 C   0  0  0  0  0  0  0  0  0  0  0  0
   51.2114    8.3280   10.8927 O   0  0  0  0  0  0  0  0  0  0  0  0
   50.2973    8.3870   15.5187 O   0  0  0  0  0  0  0  0  0  0  0  0
   45.7215    8.6540   13.4125 O   0  0  0  0  0  0  0  0  0  0  0  0
   44.5526    4.5138   10.5176 C   0  0  0  0  0  0  0  0  0  0  0  0
   44.3052    4.3284   13.0175 C   0  0  0  0  0  0  0  0  0  0  0  0
   42.5151    5.4073   11.6551 C   0  0  0  0  0  0  0  0  0  0  0  0
   46.2448    6.7863   12.7276 S   0  0  0  0  0  0  0  0  0  0  0  0
   45.9870    5.7683   11.5148 O   0  0  0  0  0  0  0  0  0  0  0  0
   47.3608    7.7478   12.0924 O   0  0  0  0  0  0  0  0  0  0  0  0
   45.0304    7.5445   12.8887 O   0  0  0  0  0  0  0  0  0  0  0  0
   46.8893    6.0663   13.7961 O   0  0  0  0  0  0  0  0  0  0  0  0
   47.5831    8.2348   13.0566 C   0  0  0  0  0  0  0  0  0  0  0  0
   48.5821    8.4033   12.0837 C   0  0  0  0  0  0  0  0  0  0  0  0
   47.9495    7.6964   14.3026 C   0  0  0  0  0  0  0  0  0  0  0  0
   45.3242    6.6524   11.5174 N   0  0  0  0  0  0  0  0  0  0  0  0
   49.2686    7.3279   14.5536 C   0  0  0  0  0  0  0  0  0  0  0  0
   49.8980    8.0306   12.3566 C   0  0  0  0  0  0  0  0  0  0  0  0
   50.2511    7.4876   13.5852 C   0  0  0  0  0  0  0  0  0  0  0  0
   46.1366    8.6196   12.8034 C   0  0  2  0  0  0  0  0  0  0  0  0
   44.4625    5.4622   11.3709 C   0  0  0  0  0  0  0  0  0  0  0  0
   45.1666    7.4054   12.7794 C   0  0  0  0  0  0  0  0  0  0  0  0
   49.5579    6.8083   15.7815 O   0  0  0  0  0  0  0  0  0  0  0  0
   50.8840    8.1890   11.4272 O   0  0  0  0  0  0  0  0  0  0  0  0
   46.0058    9.3298   11.5635 O   0  0  0  0  0  0  0  0  0  0  0  0
   44.7449    4.9059    9.9620 C   0  0  0  0  0  0  0  0  0  0  0  0
   42.9690    5.8130   11.4615 C   0  0  0  0  0  0  0  0  0  0  0  0
   44.8112    4.3758   12.4023 C   0  0  0  0  0  0  0  0  0  0  0  0
   47.7401    8.2380   14.8055 H   0  0  0  0  0  0  0  0  0  0  0  0
   48.5737    8.1913   10.5828 H   0  0  0  0  0  0  0  0  0  0  0  0
   44.3702    7.1157   11.1105 H   0  0  0  0  0  0  0  0  0  0  0  0
   51.8043    8.4136   13.4117 H   0  0  0  0  0  0  0  0  0  0  0  0
   46.2812    8.6890   11.4570 H   0  0  0  0  0  0  0  0  0  0  0  0
   46.6083    6.2056   11.2759 H   0  0  0  0  0  0  0  0  0  0  0  0
   46.3469    6.0510   13.0283 H   0  0  0  0  0  0  0  0  0  0  0  0
   50.7540    8.3158   10.0364 H   0  0  0  0  0  0  0  0  0  0  0  0
   49.5402    8.4216   16.1264 H   0  0  0  0  0  0  0  0  0  0  0  0
   44.8524    8.2123   13.3253 H   0  0  0  0  0  0  0  0  0  0  0  0
   44.0279    3.5655   10.3553 H   0  0  0  0  0  0  0  0  0  0  0  0
   44.3923    5.1334    9.6279 H   0  0  0  0  0  0  0  0  0  0  0  0
   45.6217    4.2841   10.5805 H   0  0  0  0  0  0  0  0  0  0  0  0
   43.7418    3.3897   12.9536 H   0  0  0  0  0  0  0  0  0  0  0  0
   44.0019    4.8311   13.9436 H   0  0  0  0  0  0  0  0  0  0  0  0
   45.3627    4.0586   13.1084 H   0  0  0  0  0  0  0  0  0  0  0  0
   42.2624    6.0248   10.7845 H   0  0  0  0  0  0  0  0  0  0  0  0
   42.0024    4.4454   11.5338 H   0  0  0  0  0  0  0  0  0  0  0  0
   42.0952    5.8948   12.5438 H   0  0  0  0  0  0  0  0  0  0  0  0
   45.3169    6.1795   10.9305 H   0  0  0  0  0  0  0  0  0  0  0  0
   48.2314    7.3357   12.2716 H   0  0  0  0  0  0  0  0  0  0  0  0
   48.3259    8.8313   11.1183 H   0  0  0  0  0  0  0  0  0  0  0  0
   47.2105    7.5638   15.0897 H   0  0  0  0  0  0  0  0  0  0  0  0
   46.3022    6.3561   11.4482 H   0  0  0  0  0  0  0  0  0  0  0  0
   51.2825    7.2068   13.7673 H   0  0  0  0  0  0  0  0  0  0  0  0
   45.8273    9.3142   13.5935 H   0  0  0  0  0  0  0  0  0  0  0  0
   44.1490    7.8091   12.8192 H   0  0  0  0  0  0  0  0  0  0  0  0
   45.3235    6.7713   13.6562 H   0  0  0  0  0  0  0  0  0  0  0  0
   50.5141    6.6369   15.8228 H   0  0  0  0  0  0  0  0  0  0  0  0
   50.5062    8.6408   10.6539 H   0  0  0  0  0  0  0  0  0  0  0  0
   45.5986    8.6802   10.9533 H   0  0  0  0  0  0  0  0  0  0  0  0
   44.1386    4.0152    9.7600 H   0  0  0  0  0  0  0  0  0  0  0  0
   44.5120    5.6452    9.1861 H   0  0  0  0  0  0  0  0  0  0  0  0
   45.7970    4.6187    9.8461 H   0  0  0  0  0  0  0  0  0  0  0  0
   42.6813    6.1276   12.4703 H   0  0  0  0  0  0  0  0  0  0  0  0
   42.7072    6.6190   10.7666 H   0  0  0  0  0  0  0  0  0  0  0  0
   42.3474    4.9463   11.2081 H   0  0  0  0  0  0  0  0  0  0  0  0
   44.2649    3.4487   12.1935 H   0  0  0  0  0  0  0  0  0  0  0  0
   45.8807    4.1361   12.3841 H   0  0  0  0  0  0  0  0  0  0  0  0
   44.5506    4.6796   13.4216 H   0  0  0  0  0  0  0  0  0  0  0  0
  2  1  2  0
  3  1  1  0
  4 10  1  0
  5  3  2  0
  6  2  1  0
  7  5  1  0
  8  1  1  0
  9  4  1  0
 10  8  1  0
 11  5  1  0
 12  6  1  0
 13  8  1  0
 14  9  1  0
 15  9  1  0
 16  9  1  0
  6  7  2  0
 18 17  1  0
 19 17  1  0
 20 17  2  0
 21 17  2  0
 23 22  2  0
 24 22  1  0
 25 31  1  0
 26 24  2  0
 27 23  1  0
 28 26  1  0
 29 22  1  0
 30 25  1  0
 31 29  1  0
 32 26  1  0
 33 27  1  0
 34 29  1  0
 35 30  1  0
 36 30  1  0
 37 30  1  0
 27 28  2  0
  2 38  1  0
  3 39  1  0
  4 40  1  0
  7 41  1  0
  8 42  1  1
 10 43  1  0
 10 44  1  0
 11 45  1  0
 12 46  1  0
 13 47  1  0
 14 48  1  0
 14 49  1  0
 14 50  1  0
 15 51  1  0
 15 52  1  0
 15 53  1  0
 16 54  1  0
 16 55  1  0
 16 56  1  0
 18 57  1  0
 19 58  1  0
 23 59  1  0
 24 60  1  0
 25 61  1  0
 28 62  1  0
 29 63  1  1
 31 64  1  0
 31 65  1  0
 32 66  1  0
 33 67  1  0
 34 68  1  0
 35 69  1  0
 35 70  1  0
 35 71  1  0
 36 72  1  0
 36 73  1  0
 36 74  1  0
 37 75  1  0
 37 76  1  0
 37 77  1  0
M  END
> <Uni-Dock RESULT> 
ENERGY=   -6.764  LOWER_BOUND=    0.000  UPPER_BOUND=    0.000
INTER + INTRA:          -6.764
INTER:                  -6.764
INTRA:                   0.000
UNBOUND:                 0.000

$$$$

     RDKit          3D

 77 76  0  0  0  0  0  0  0  0999 V2000
   44.6701    5.3328   11.5495 C   0  0  0  0  0  0  0  0  0  0  0  0
   44.6348    5.2558   10.1471 C   0  0  0  0  0  0  0  0  0  0  0  0
   44.3111    4.1976   12.2978 C   0  0  0  0  0  0  0  0  0  0  0  0
   47.0287    7.8317   13.2209 N   0  0  0  0  0  0  0  0  0  0  0  0
   43.9251    3.0256   11.6487 C   0  0  0  0  0  0  0  0  0  0  0  0
   44.2433    4.0746    9.5200 C   0  0  0  0  0  0  0  0  0  0  0  0
   43.8902    2.9559   10.2621 C   0  0  0  0  0  0  0  0  0  0  0  0
   45.1196    6.5913   12.2595 C   0  0  1  0  0  0  0  0  0  0  0  0
   48.4616    7.9601   13.5580 C   0  0  0  0  0  0  0  0  0  0  0  0
   46.6254    6.5418   12.6245 C   0  0  0  0  0  0  0  0  0  0  0  0
   43.5729    1.9100   12.3503 O   0  0  0  0  0  0  0  0  0  0  0  0
   44.1960    3.9806    8.1595 O   0  0  0  0  0  0  0  0  0  0  0  0
   44.8825    7.7461   11.4451 O   0  0  0  0  0  0  0  0  0  0  0  0
   48.8814    6.9645   14.6524 C   0  0  0  0  0  0  0  0  0  0  0  0
   49.3655    7.7966   12.3246 C   0  0  0  0  0  0  0  0  0  0  0  0
   48.6432    9.3904   14.1029 C   0  0  0  0  0  0  0  0  0  0  0  0
   46.4831    6.5812   12.0040 S   0  0  0  0  0  0  0  0  0  0  0  0
   47.4101    6.2309   13.2656 O   0  0  0  0  0  0  0  0  0  0  0  0
   45.2152    5.6384   12.2807 O   0  0  0  0  0  0  0  0  0  0  0  0
   46.0735    7.9529   12.1674 O   0  0  0  0  0  0  0  0  0  0  0  0
   47.1188    6.0693   10.8168 O   0  0  0  0  0  0  0  0  0  0  0  0
   44.7842    5.8145   11.2809 C   0  0  0  0  0  0  0  0  0  0  0  0
   44.2764    4.6793   11.9340 C   0  0  0  0  0  0  0  0  0  0  0  0
   45.3321    5.6554    9.9958 C   0  0  0  0  0  0  0  0  0  0  0  0
   46.7254    7.0833   13.4251 N   0  0  0  0  0  0  0  0  0  0  0  0
   45.3802    4.3988    9.3980 C   0  0  0  0  0  0  0  0  0  0  0  0
   44.3316    3.4302   11.3160 C   0  0  0  0  0  0  0  0  0  0  0  0
   44.8855    3.2778   10.0516 C   0  0  0  0  0  0  0  0  0  0  0  0
   44.7522    7.1930   11.9158 C   0  0  2  0  0  0  0  0  0  0  0  0
   48.0737    7.5251   13.8343 C   0  0  0  0  0  0  0  0  0  0  0  0
   46.1627    7.7607   12.2381 C   0  0  0  0  0  0  0  0  0  0  0  0
   45.9276    4.3116    8.1514 O   0  0  0  0  0  0  0  0  0  0  0  0
   43.8410    2.3158   11.9312 O   0  0  0  0  0  0  0  0  0  0  0  0
   43.9803    7.1811   13.1253 O   0  0  0  0  0  0  0  0  0  0  0  0
   48.4014    6.7464   15.1230 C   0  0  0  0  0  0  0  0  0  0  0  0
   48.1196    9.0278   14.1530 C   0  0  0  0  0  0  0  0  0  0  0  0
   49.1328    7.1795   12.7740 C   0  0  0  0  0  0  0  0  0  0  0  0
   44.9121    6.1261    9.5576 H   0  0  0  0  0  0  0  0  0  0  0  0
   44.3365    4.2386   13.3831 H   0  0  0  0  0  0  0  0  0  0  0  0
   46.4791    7.9861   14.0690 H   0  0  0  0  0  0  0  0  0  0  0  0
   43.5869    2.0405    9.7644 H   0  0  0  0  0  0  0  0  0  0  0  0
   44.5179    6.7262   13.1671 H   0  0  0  0  0  0  0  0  0  0  0  0
   46.8098    5.7097   13.3118 H   0  0  0  0  0  0  0  0  0  0  0  0
   47.1949    6.3679   11.7051 H   0  0  0  0  0  0  0  0  0  0  0  0
   43.6161    2.1074   13.2999 H   0  0  0  0  0  0  0  0  0  0  0  0
   44.4119    4.8506    7.7850 H   0  0  0  0  0  0  0  0  0  0  0  0
   45.5176    8.4109   11.7809 H   0  0  0  0  0  0  0  0  0  0  0  0
   49.9106    7.1545   14.9773 H   0  0  0  0  0  0  0  0  0  0  0  0
   48.2383    7.0472   15.5359 H   0  0  0  0  0  0  0  0  0  0  0  0
   48.8403    5.9279   14.3011 H   0  0  0  0  0  0  0  0  0  0  0  0
   50.4047    8.0507   12.5656 H   0  0  0  0  0  0  0  0  0  0  0  0
   49.0477    8.4544   11.5069 H   0  0  0  0  0  0  0  0  0  0  0  0
   49.3686    6.7673   11.9506 H   0  0  0  0  0  0  0  0  0  0  0  0
   48.0272    9.5632   14.9939 H   0  0  0  0  0  0  0  0  0  0  0  0
   49.6865    9.5763   14.3856 H   0  0  0  0  0  0  0  0  0  0  0  0
   48.3656   10.1424   13.3539 H   0  0  0  0  0  0  0  0  0  0  0  0
   47.1256    6.8102   14.0025 H   0  0  0  0  0  0  0  0  0  0  0  0
   45.4109    4.7672   11.8773 H   0  0  0  0  0  0  0  0  0  0  0  0
   43.8346    4.7798   12.9216 H   0  0  0  0  0  0  0  0  0  0  0  0
   45.7220    6.5106    9.4482 H   0  0  0  0  0  0  0  0  0  0  0  0
   46.7585    6.0788   13.2276 H   0  0  0  0  0  0  0  0  0  0  0  0
   44.9147    2.2935    9.5975 H   0  0  0  0  0  0  0  0  0  0  0  0
   44.2378    7.8723   11.2256 H   0  0  0  0  0  0  0  0  0  0  0  0
   46.0332    8.8230   12.4721 H   0  0  0  0  0  0  0  0  0  0  0  0
   46.8193    7.6740   11.3681 H   0  0  0  0  0  0  0  0  0  0  0  0
   45.8566    3.3897    7.8507 H   0  0  0  0  0  0  0  0  0  0  0  0
   43.4254    2.5855   12.7675 H   0  0  0  0  0  0  0  0  0  0  0  0
   44.6487    7.2254   13.8405 H   0  0  0  0  0  0  0  0  0  0  0  0
   49.3917    7.0171   15.5072 H   0  0  0  0  0  0  0  0  0  0  0  0
   47.6723    6.9581   15.9144 H   0  0  0  0  0  0  0  0  0  0  0  0
   48.4025    5.6635   14.9495 H   0  0  0  0  0  0  0  0  0  0  0  0
   47.9871    9.6422   13.2561 H   0  0  0  0  0  0  0  0  0  0  0  0
   47.3415    9.3053   14.8730 H   0  0  0  0  0  0  0  0  0  0  0  0
   49.0858    9.3057   14.5902 H   0  0  0  0  0  0  0  0  0  0  0  0
   50.1425    7.3831   13.1490 H   0  0  0  0  0  0  0  0  0  0  0  0
   49.0934    6.1187   12.5007 H   0  0  0  0  0  0  0  0  0  0  0  0
   49.0050    7.7686   11.8597 H   0  0  0  0  0  0  0  0  0  0  0  0
  2  1  2  0
  3  1  1  0
  4 10  1  0
  5  3  2  0
  6  2  1  0
  7  5  1  0
  8  1  1  0
  9  4  1  0
 10  8  1  0
 11  5  1  0
 12  6  1  0
 13  8  1  0
 14  9  1  0
 15  9  1  0
 16  9  1  0
  6  7  2  0
 18 17  1  0
 19 17  1  0
 20 17  2  0
 21 17  2  0
 23 22  2  0
 24 22  1  0
 25 31  1  0
 26 24  2  0
 27 23  1  0
 28 26  1  0
 29 22  1  0
 30 25  1  0
 31 29  1  0
 32 26  1  0
 33 27  1  0
 34 29  1  0
 35 30  1  0
 36 30  1  0
 37 30  1  0
 27 28  2  0
  2 38  1  0
  3 39  1  0
  4 40  1  0
  7 41  1  0
  8 42  1  1
 10 43  1  0
 10 44  1  0
 11 45  1  0
 12 46  1  0
 13 47  1  0
 14 48  1  0
 14 49  1  0
 14 50  1  0
 15 51  1  0
 15 52  1  0
 15 53  1  0
 16 54  1  0
 16 55  1  0
 16 56  1  0
 18 57  1  0
 19 58  1  0
 23 59  1  0
 24 60  1  0
 25 61  1  0
 28 62  1  0
 29 63  1  1
 31 64  1  0
 31 65  1  0
 32 66  1  0
 33 67  1  0
 34 68  1  0
 35 69  1  0
 35 70  1  0
 35 71  1  0
 36 72  1  0
 36 73  1  0
 36 74  1  0
 37 75  1  0
 37 76  1  0
 37 77  1  0
M  END
> <Uni-Dock RESULT> 
ENERGY=   -6.446  LOWER_BOUND=    1.790  UPPER_BOUND=    5.956
INTER + INTRA:          -6.446
INTER:                  -6.446
INTRA:                   0.000
UNBOUND:                 0.000

$$$$

     RDKit          3D

 77 76  0  0  0  0  0  0  0  0999 V2000
   47.9123    6.8328   13.9308 C   0  0  0  0  0  0  0  0  0  0  0  0
   49.0894    6.9220   13.1690 C   0  0  0  0  0  0  0  0  0  0  0  0
   47.5342    7.9325   14.7215 C   0  0  0  0  0  0  0  0  0  0  0  0
   45.1234    4.4852   12.7855 N   0  0  0  0  0  0  0  0  0  0  0  0
   48.3231    9.0819   14.7438 C   0  0  0  0  0  0  0  0  0  0  0  0
   49.8636    8.0799   13.2088 C   0  0  0  0  0  0  0  0  0  0  0  0
   49.4867    9.1636   13.9902 C   0  0  0  0  0  0  0  0  0  0  0  0
   47.0346    5.6009   13.8855 C   0  0  1  0  0  0  0  0  0  0  0  0
   44.0299    4.4524   11.7923 C   0  0  0  0  0  0  0  0  0  0  0  0
   45.8823    5.7504   12.8594 C   0  0  0  0  0  0  0  0  0  0  0  0
   47.9791   10.1630   15.5012 O   0  0  0  0  0  0  0  0  0  0  0  0
   51.0135    8.1848   12.4817 O   0  0  0  0  0  0  0  0  0  0  0  0
   47.8043    4.4412   13.5455 O   0  0  0  0  0  0  0  0  0  0  0  0
   42.9213    5.4631   12.1311 C   0  0  0  0  0  0  0  0  0  0  0  0
   44.5382    4.6910   10.3606 C   0  0  0  0  0  0  0  0  0  0  0  0
   43.4347    3.0324   11.8625 C   0  0  0  0  0  0  0  0  0  0  0  0
   46.4726    5.7078   12.6217 S   0  0  0  0  0  0  0  0  0  0  0  0
   44.9192    6.1079   12.5984 O   0  0  0  0  0  0  0  0  0  0  0  0
   46.9921    6.5578   13.8790 O   0  0  0  0  0  0  0  0  0  0  0  0
   46.5283    4.3095   12.9645 O   0  0  0  0  0  0  0  0  0  0  0  0
   47.1055    6.2749   11.4583 O   0  0  0  0  0  0  0  0  0  0  0  0
   48.0541    6.3630   13.6545 C   0  0  0  0  0  0  0  0  0  0  0  0
   47.8387    7.4535   14.5133 C   0  0  0  0  0  0  0  0  0  0  0  0
   48.8066    6.5731   12.4855 C   0  0  0  0  0  0  0  0  0  0  0  0
   45.1499    5.2086   13.1975 N   0  0  0  0  0  0  0  0  0  0  0  0
   49.3099    7.8363   12.1857 C   0  0  0  0  0  0  0  0  0  0  0  0
   48.3544    8.7098   14.1959 C   0  0  0  0  0  0  0  0  0  0  0  0
   49.0862    8.9135   13.0333 C   0  0  0  0  0  0  0  0  0  0  0  0
   47.5074    4.9789   13.9544 C   0  0  2  0  0  0  0  0  0  0  0  0
   44.0354    4.8567   12.2949 C   0  0  0  0  0  0  0  0  0  0  0  0
   46.4255    4.5066   12.9435 C   0  0  0  0  0  0  0  0  0  0  0  0
   50.0288    7.9743   11.0345 O   0  0  0  0  0  0  0  0  0  0  0  0
   48.1599    9.7812   15.0178 O   0  0  0  0  0  0  0  0  0  0  0  0
   46.9493    4.9247   15.2752 O   0  0  0  0  0  0  0  0  0  0  0  0
   42.8124    5.6425   12.8059 C   0  0  0  0  0  0  0  0  0  0  0  0
   43.7012    3.3575   12.3435 C   0  0  0  0  0  0  0  0  0  0  0  0
   44.3189    5.2858   10.8454 C   0  0  0  0  0  0  0  0  0  0  0  0
   49.3911    6.0792   12.5521 H   0  0  0  0  0  0  0  0  0  0  0  0
   46.6250    7.8819   15.3138 H   0  0  0  0  0  0  0  0  0  0  0  0
   44.7317    4.2843   13.7083 H   0  0  0  0  0  0  0  0  0  0  0  0
   50.0964   10.0612   14.0143 H   0  0  0  0  0  0  0  0  0  0  0  0
   46.6242    5.4152   14.8861 H   0  0  0  0  0  0  0  0  0  0  0  0
   45.2372    6.5859   13.1503 H   0  0  0  0  0  0  0  0  0  0  0  0
   46.3218    5.9729   11.8811 H   0  0  0  0  0  0  0  0  0  0  0  0
   47.1667    9.9590   15.9921 H   0  0  0  0  0  0  0  0  0  0  0  0
   51.1729    7.3358   12.0372 H   0  0  0  0  0  0  0  0  0  0  0  0
   47.1476    3.8183   13.1728 H   0  0  0  0  0  0  0  0  0  0  0  0
   42.0647    5.3412   11.4585 H   0  0  0  0  0  0  0  0  0  0  0  0
   42.5557    5.3268   13.1553 H   0  0  0  0  0  0  0  0  0  0  0  0
   43.2654    6.4980   12.0307 H   0  0  0  0  0  0  0  0  0  0  0  0
   43.7432    4.5068    9.6282 H   0  0  0  0  0  0  0  0  0  0  0  0
   45.3716    4.0216   10.1163 H   0  0  0  0  0  0  0  0  0  0  0  0
   44.8758    5.7220   10.2105 H   0  0  0  0  0  0  0  0  0  0  0  0
   43.0449    2.8081   12.8630 H   0  0  0  0  0  0  0  0  0  0  0  0
   42.6051    2.9160   11.1546 H   0  0  0  0  0  0  0  0  0  0  0  0
   44.1858    2.2710   11.6181 H   0  0  0  0  0  0  0  0  0  0  0  0
   44.4561    5.5027   13.2137 H   0  0  0  0  0  0  0  0  0  0  0  0
   47.2398    7.4447   13.5441 H   0  0  0  0  0  0  0  0  0  0  0  0
   47.2728    7.3123   15.4301 H   0  0  0  0  0  0  0  0  0  0  0  0
   49.0105    5.7528   11.8010 H   0  0  0  0  0  0  0  0  0  0  0  0
   45.3244    6.2151   13.1214 H   0  0  0  0  0  0  0  0  0  0  0  0
   49.4736    9.9022   12.8135 H   0  0  0  0  0  0  0  0  0  0  0  0
   48.3465    4.2731   13.9424 H   0  0  0  0  0  0  0  0  0  0  0  0
   46.2737    3.4355   13.1158 H   0  0  0  0  0  0  0  0  0  0  0  0
   46.7723    4.6476   11.9162 H   0  0  0  0  0  0  0  0  0  0  0  0
   50.3448    8.8922   10.9802 H   0  0  0  0  0  0  0  0  0  0  0  0
   47.6985    9.4745   15.8166 H   0  0  0  0  0  0  0  0  0  0  0  0
   45.9804    4.9191   15.1293 H   0  0  0  0  0  0  0  0  0  0  0  0
   41.9266    5.4368   12.1939 H   0  0  0  0  0  0  0  0  0  0  0  0
   42.5675    5.3726   13.8403 H   0  0  0  0  0  0  0  0  0  0  0  0
   42.9877    6.7247   12.7747 H   0  0  0  0  0  0  0  0  0  0  0  0
   44.4961    2.7449   11.9049 H   0  0  0  0  0  0  0  0  0  0  0  0
   43.5409    3.0193   13.3736 H   0  0  0  0  0  0  0  0  0  0  0  0
   42.7852    3.1424   11.7809 H   0  0  0  0  0  0  0  0  0  0  0  0
   43.4317    5.1485   10.2164 H   0  0  0  0  0  0  0  0  0  0  0  0
   44.5986    6.3442   10.7894 H   0  0  0  0  0  0  0  0  0  0  0  0
   45.1261    4.6990   10.3946 H   0  0  0  0  0  0  0  0  0  0  0  0
  2  1  2  0
  3  1  1  0
  4 10  1  0
  5  3  2  0
  6  2  1  0
  7  5  1  0
  8  1  1  0
  9  4  1  0
 10  8  1  0
 11  5  1  0
 12  6  1  0
 13  8  1  0
 14  9  1  0
 15  9  1  0
 16  9  1  0
  6  7  2  0
 18 17  1  0
 19 17  1  0
 20 17  2  0
 21 17  2  0
 23 22  2  0
 24 22  1  0
 25 31  1  0
 26 24  2  0
 27 23  1  0
 28 26  1  0
 29 22  1  0
 30 25  1  0
 31 29  1  0
 32 26  1  0
 33 27  1  0
 34 29  1  0
 35 30  1  0
 36 30  1  0
 37 30  1  0
 27 28  2  0
  2 38  1  0
  3 39  1  0
  4 40  1  0
  7 41  1  0
  8 42  1  1
 10 43  1  0
 10 44  1  0
 11 45  1  0
 12 46  1  0
 13 47  1  0
 14 48  1  0
 14 49  1  0
 14 50  1  0
 15 51  1  0
 15 52  1  0
 15 53  1  0
 16 54  1  0
 16 55  1  0
 16 56  1  0
 18 57  1  0
 19 58  1  0
 23 59  1  0
 24 60  1  0
 25 61  1  0
 28 62  1  0
 29 63  1  1
 31 64  1  0
 31 65  1  0
 32 66  1  0
 33 67  1  0
 34 68  1  0
 35 69  1  0
 35 70  1  0
 35 71  1  0
 36 72  1  0
 36 73  1  0
 36 74  1  0
 37 75  1  0
 37 76  1  0
 37 77  1  0
M  END
> <Uni-Dock RESULT> 
ENERGY=   -5.831  LOWER_BOUND=    1.517  UPPER_BOUND=    3.004
INTER + INTRA:          -5.831
INTER:                  -5.831
INTRA:                   0.000
UNBOUND:                 0.000

$$$$

     RDKit          3D

 77 76  0  0  0  0  0  0  0  0999 V2000
   41.5914   10.8793   11.1179 C   0  0  0  0  0  0  0  0  0  0  0  0
   41.3933   11.8478   12.1162 C   0  0  0  0  0  0  0  0  0  0  0  0
   40.5206   10.0355   10.7731 C   0  0  0  0  0  0  0  0  0  0  0  0
   44.2542   11.4760    8.4431 N   0  0  0  0  0  0  0  0  0  0  0  0
   39.2923   10.1646   11.4201 C   0  0  0  0  0  0  0  0  0  0  0  0
   40.1576   11.9570   12.7510 C   0  0  0  0  0  0  0  0  0  0  0  0
   39.1028   11.1225   12.4075 C   0  0  0  0  0  0  0  0  0  0  0  0
   42.9119   10.7560   10.3892 C   0  0  1  0  0  0  0  0  0  0  0  0
   44.4290   12.2474    7.1951 C   0  0  0  0  0  0  0  0  0  0  0  0
   42.9128   11.5492    9.0575 C   0  0  0  0  0  0  0  0  0  0  0  0
   38.2371    9.3598   11.1045 O   0  0  0  0  0  0  0  0  0  0  0  0
   39.9461   12.8865   13.7274 O   0  0  0  0  0  0  0  0  0  0  0  0
   43.9891   11.2300   11.2065 O   0  0  0  0  0  0  0  0  0  0  0  0
   43.5368   11.7108    6.0633 C   0  0  0  0  0  0  0  0  0  0  0  0
   44.1710   13.7497    7.3998 C   0  0  0  0  0  0  0  0  0  0  0  0
   45.9031   12.0628    6.7846 C   0  0  0  0  0  0  0  0  0  0  0  0
   42.8968   11.8929    9.5945 S   0  0  0  0  0  0  0  0  0  0  0  0
   42.6681   11.6270    8.0290 O   0  0  0  0  0  0  0  0  0  0  0  0
   41.9657   10.7575   10.2403 O   0  0  0  0  0  0  0  0  0  0  0  0
   44.2722   11.5621    9.8676 O   0  0  0  0  0  0  0  0  0  0  0  0
   42.2923   13.1558    9.9340 O   0  0  0  0  0  0  0  0  0  0  0  0
   42.0495   11.1757   11.2573 C   0  0  0  0  0  0  0  0  0  0  0  0
   40.9686   10.2953   11.0851 C   0  0  0  0  0  0  0  0  0  0  0  0
   41.7870   12.4654   11.7522 C   0  0  0  0  0  0  0  0  0  0  0  0
   43.5226   11.0786    8.4651 N   0  0  0  0  0  0  0  0  0  0  0  0
   40.4842   12.8579   12.0479 C   0  0  0  0  0  0  0  0  0  0  0  0
   39.6717   10.7075   11.3904 C   0  0  0  0  0  0  0  0  0  0  0  0
   39.4177   11.9870   11.8670 C   0  0  0  0  0  0  0  0  0  0  0  0
   43.4771   10.7746   10.9327 C   0  0  2  0  0  0  0  0  0  0  0  0
   44.0146   11.7561    7.2487 C   0  0  0  0  0  0  0  0  0  0  0  0
   44.0880   11.5641    9.7414 C   0  0  0  0  0  0  0  0  0  0  0  0
   40.2966   14.1236   12.5213 O   0  0  0  0  0  0  0  0  0  0  0  0
   38.6085    9.8672   11.2338 O   0  0  0  0  0  0  0  0  0  0  0  0
   43.5601    9.3726   10.6385 O   0  0  0  0  0  0  0  0  0  0  0  0
   43.3541   11.0282    6.0621 C   0  0  0  0  0  0  0  0  0  0  0  0
   45.5397   11.6411    7.0979 C   0  0  0  0  0  0  0  0  0  0  0  0
   43.5920   13.2344    7.2094 C   0  0  0  0  0  0  0  0  0  0  0  0
   42.2129   12.5075   12.3900 H   0  0  0  0  0  0  0  0  0  0  0  0
   40.6553    9.2836   10.0007 H   0  0  0  0  0  0  0  0  0  0  0  0
   44.4744   10.4957    8.2540 H   0  0  0  0  0  0  0  0  0  0  0  0
   38.1442   11.2156   12.9076 H   0  0  0  0  0  0  0  0  0  0  0  0
   43.1171    9.6957   10.1945 H   0  0  0  0  0  0  0  0  0  0  0  0
   42.1454   11.1458    8.3887 H   0  0  0  0  0  0  0  0  0  0  0  0
   42.6673   12.5932    9.2807 H   0  0  0  0  0  0  0  0  0  0  0  0
   38.5162    8.7251   10.4248 H   0  0  0  0  0  0  0  0  0  0  0  0
   40.7832   13.3501   13.8950 H   0  0  0  0  0  0  0  0  0  0  0  0
   44.6882   11.4714   10.5654 H   0  0  0  0  0  0  0  0  0  0  0  0
   43.7668   12.2112    5.1159 H   0  0  0  0  0  0  0  0  0  0  0  0
   43.6874   10.6360    5.9111 H   0  0  0  0  0  0  0  0  0  0  0  0
   42.4733   11.8771    6.2658 H   0  0  0  0  0  0  0  0  0  0  0  0
   44.4577   14.3202    6.5083 H   0  0  0  0  0  0  0  0  0  0  0  0
   44.7517   14.1432    8.2425 H   0  0  0  0  0  0  0  0  0  0  0  0
   43.1133   13.9635    7.5871 H   0  0  0  0  0  0  0  0  0  0  0  0
   46.1444   11.0064    6.6142 H   0  0  0  0  0  0  0  0  0  0  0  0
   46.1256   12.6029    5.8563 H   0  0  0  0  0  0  0  0  0  0  0  0
   46.5842   12.4407    7.5572 H   0  0  0  0  0  0  0  0  0  0  0  0
   43.3052   10.9340    7.7580 H   0  0  0  0  0  0  0  0  0  0  0  0
   41.0655   11.1356   10.3218 H   0  0  0  0  0  0  0  0  0  0  0  0
   41.1484    9.2885   10.7181 H   0  0  0  0  0  0  0  0  0  0  0  0
   42.5965   13.1733   11.9155 H   0  0  0  0  0  0  0  0  0  0  0  0
   42.5052   11.1892    8.5097 H   0  0  0  0  0  0  0  0  0  0  0  0
   38.3983   12.2784   12.0948 H   0  0  0  0  0  0  0  0  0  0  0  0
   44.0879   10.9408   11.8281 H   0  0  0  0  0  0  0  0  0  0  0  0
   45.1648   11.3631    9.7441 H   0  0  0  0  0  0  0  0  0  0  0  0
   43.9347   12.6386    9.8742 H   0  0  0  0  0  0  0  0  0  0  0  0
   39.3514   14.2389   12.7178 H   0  0  0  0  0  0  0  0  0  0  0  0
   38.9442    8.9953   10.9653 H   0  0  0  0  0  0  0  0  0  0  0  0
   43.6741    9.3350    9.6660 H   0  0  0  0  0  0  0  0  0  0  0  0
   43.6692   11.4633    5.1066 H   0  0  0  0  0  0  0  0  0  0  0  0
   43.6243    9.9653    6.0445 H   0  0  0  0  0  0  0  0  0  0  0  0
   42.2604   11.0951    6.1073 H   0  0  0  0  0  0  0  0  0  0  0  0
   46.0728   12.2185    7.8607 H   0  0  0  0  0  0  0  0  0  0  0  0
   45.8686   10.5981    7.1696 H   0  0  0  0  0  0  0  0  0  0  0  0
   45.8662   12.0220    6.1231 H   0  0  0  0  0  0  0  0  0  0  0  0
   43.8398   13.6862    6.2419 H   0  0  0  0  0  0  0  0  0  0  0  0
   42.5112   13.3450    7.3547 H   0  0  0  0  0  0  0  0  0  0  0  0
   44.0985   13.8261    7.9792 H   0  0  0  0  0  0  0  0  0  0  0  0
  2  1  2  0
  3  1  1  0
  4 10  1  0
  5  3  2  0
  6  2  1  0
  7  5  1  0
  8  1  1  0
  9  4  1  0
 10  8  1  0
 11  5  1  0
 12  6  1  0
 13  8  1  0
 14  9  1  0
 15  9  1  0
 16  9  1  0
  6  7  2  0
 18 17  1  0
 19 17  1  0
 20 17  2  0
 21 17  2  0
 23 22  2  0
 24 22  1  0
 25 31  1  0
 26 24  2  0
 27 23  1  0
 28 26  1  0
 29 22  1  0
 30 25  1  0
 31 29  1  0
 32 26  1  0
 33 27  1  0
 34 29  1  0
 35 30  1  0
 36 30  1  0
 37 30  1  0
 27 28  2  0
  2 38  1  0
  3 39  1  0
  4 40  1  0
  7 41  1  0
  8 42  1  1
 10 43  1  0
 10 44  1  0
 11 45  1  0
 12 46  1  0
 13 47  1  0
 14 48  1  0
 14 49  1  0
 14 50  1  0
 15 51  1  0
 15 52  1  0
 15 53  1  0
 16 54  1  0
 16 55  1  0
 16 56  1  0
 18 57  1  0
 19 58  1  0
 23 59  1  0
 24 60  1  0
 25 61  1  0
 28 62  1  0
 29 63  1  1
 31 64  1  0
 31 65  1  0
 32 66  1  0
 33 67  1  0
 34 68  1  0
 35 69  1  0
 35 70  1  0
 35 71  1  0
 36 72  1  0
 36 73  1  0
 36 74  1  0
 37 75  1  0
 37 76  1  0
 37 77  1  0
M  END
> <Uni-Dock RESULT> 
ENERGY=   -5.806  LOWER_BOUND=    6.103  UPPER_BOUND=    8.685
INTER + INTRA:          -5.806
INTER:                  -5.806
INTRA:                   0.000
UNBOUND:                 0.000

$$$$

     RDKit          3D

 77 76  0  0  0  0  0  0  0  0999 V2000
   49.6049    5.9719   16.9328 C   0  0  0  0  0  0  0  0  0  0  0  0
   48.5564    5.2456   17.5217 C   0  0  0  0  0  0  0  0  0  0  0  0
   50.9106    5.4550   17.0082 C   0  0  0  0  0  0  0  0  0  0  0  0
   48.8395    8.3196   14.0168 N   0  0  0  0  0  0  0  0  0  0  0  0
   51.1475    4.2463   17.6614 C   0  0  0  0  0  0  0  0  0  0  0  0
   48.8171    4.0409   18.1716 C   0  0  0  0  0  0  0  0  0  0  0  0
   50.1073    3.5337   18.2435 C   0  0  0  0  0  0  0  0  0  0  0  0
   49.3497    7.2677   16.1941 C   0  0  1  0  0  0  0  0  0  0  0  0
   48.5823    8.2470   12.5636 C   0  0  0  0  0  0  0  0  0  0  0  0
   49.1861    7.0406   14.6694 C   0  0  0  0  0  0  0  0  0  0  0  0
   52.4038    3.7221   17.7484 O   0  0  0  0  0  0  0  0  0  0  0  0
   47.8142    3.3231   18.7556 O   0  0  0  0  0  0  0  0  0  0  0  0
   48.1704    7.9119   16.6912 O   0  0  0  0  0  0  0  0  0  0  0  0
   49.8388    7.8274   11.7823 C   0  0  0  0  0  0  0  0  0  0  0  0
   47.4152    7.3040   12.2266 C   0  0  0  0  0  0  0  0  0  0  0  0
   48.1908    9.6733   12.1297 C   0  0  0  0  0  0  0  0  0  0  0  0
   48.7230    6.8116   15.0435 S   0  0  0  0  0  0  0  0  0  0  0  0
   49.6066    6.8964   13.7071 O   0  0  0  0  0  0  0  0  0  0  0  0
   49.8436    6.4493   16.1326 O   0  0  0  0  0  0  0  0  0  0  0  0
   48.2504    8.1472   15.3052 O   0  0  0  0  0  0  0  0  0  0  0  0
   47.8626    5.6601   14.9472 O   0  0  0  0  0  0  0  0  0  0  0  0
   49.1015    6.2237   16.9165 C   0  0  0  0  0  0  0  0  0  0  0  0
   50.3794    5.6969   17.1662 C   0  0  0  0  0  0  0  0  0  0  0  0
   48.0041    5.3447   16.9267 C   0  0  0  0  0  0  0  0  0  0  0  0
   49.4944    7.8568   14.2418 N   0  0  0  0  0  0  0  0  0  0  0  0
   48.1888    3.9853   17.1642 C   0  0  0  0  0  0  0  0  0  0  0  0
   50.5422    4.3325   17.4049 C   0  0  0  0  0  0  0  0  0  0  0  0
   49.4556    3.4676   17.4011 C   0  0  0  0  0  0  0  0  0  0  0  0
   48.8758    7.7001   16.6452 C   0  0  2  0  0  0  0  0  0  0  0  0
   49.1537    8.1037   12.8263 C   0  0  0  0  0  0  0  0  0  0  0  0
   48.3800    7.9972   15.2024 C   0  0  0  0  0  0  0  0  0  0  0  0
   47.0835    3.1856   17.1571 O   0  0  0  0  0  0  0  0  0  0  0  0
   51.7739    3.8011   17.6530 O   0  0  0  0  0  0  0  0  0  0  0  0
   50.0758    8.4520   16.8768 O   0  0  0  0  0  0  0  0  0  0  0  0
   50.4762    7.9823   12.0451 C   0  0  0  0  0  0  0  0  0  0  0  0
   48.5889    9.5156   12.6038 C   0  0  0  0  0  0  0  0  0  0  0  0
   48.1702    7.0523   12.2853 C   0  0  0  0  0  0  0  0  0  0  0  0
   47.5423    5.6338   17.4682 H   0  0  0  0  0  0  0  0  0  0  0  0
   51.7326    6.0018   16.5550 H   0  0  0  0  0  0  0  0  0  0  0  0
   49.5970    8.9864   14.1809 H   0  0  0  0  0  0  0  0  0  0  0  0
   50.3001    2.5943   18.7517 H   0  0  0  0  0  0  0  0  0  0  0  0
   50.1808    7.9588   16.3833 H   0  0  0  0  0  0  0  0  0  0  0  0
   50.1104    6.6210   14.2590 H   0  0  0  0  0  0  0  0  0  0  0  0
   48.3768    6.3185   14.5158 H   0  0  0  0  0  0  0  0  0  0  0  0
   53.0305    4.3321   17.3267 H   0  0  0  0  0  0  0  0  0  0  0  0
   46.9885    3.8284   18.6736 H   0  0  0  0  0  0  0  0  0  0  0  0
   47.8790    8.4827   15.9514 H   0  0  0  0  0  0  0  0  0  0  0  0
   49.6670    7.8974   10.7023 H   0  0  0  0  0  0  0  0  0  0  0  0
   50.6918    8.4728   12.0209 H   0  0  0  0  0  0  0  0  0  0  0  0
   50.1281    6.7930   11.9964 H   0  0  0  0  0  0  0  0  0  0  0  0
   47.1401    7.3857   11.1682 H   0  0  0  0  0  0  0  0  0  0  0  0
   46.5235    7.5456   12.8173 H   0  0  0  0  0  0  0  0  0  0  0  0
   47.6689    6.2543   12.4088 H   0  0  0  0  0  0  0  0  0  0  0  0
   48.9931   10.3919   12.3372 H   0  0  0  0  0  0  0  0  0  0  0  0
   47.9835    9.7163   11.0535 H   0  0  0  0  0  0  0  0  0  0  0  0
   47.2901   10.0178   12.6529 H   0  0  0  0  0  0  0  0  0  0  0  0
   49.9665    7.8059   13.6564 H   0  0  0  0  0  0  0  0  0  0  0  0
   49.9290    5.4733   16.1438 H   0  0  0  0  0  0  0  0  0  0  0  0
   51.2410    6.3590   17.1782 H   0  0  0  0  0  0  0  0  0  0  0  0
   46.9954    5.7133   16.7539 H   0  0  0  0  0  0  0  0  0  0  0  0
   49.8640    6.9052   14.3259 H   0  0  0  0  0  0  0  0  0  0  0  0
   49.6141    2.4115   17.5894 H   0  0  0  0  0  0  0  0  0  0  0  0
   48.1349    8.0678   17.3653 H   0  0  0  0  0  0  0  0  0  0  0  0
   48.0389    9.0381   15.1902 H   0  0  0  0  0  0  0  0  0  0  0  0
   47.5355    7.3517   14.9462 H   0  0  0  0  0  0  0  0  0  0  0  0
   47.3610    2.2795   17.3745 H   0  0  0  0  0  0  0  0  0  0  0  0
   52.4182    4.5277   17.6945 H   0  0  0  0  0  0  0  0  0  0  0  0
   50.4020    8.6712   15.9792 H   0  0  0  0  0  0  0  0  0  0  0  0
   50.3203    8.1582   10.9744 H   0  0  0  0  0  0  0  0  0  0  0  0
   51.2155    8.7134   12.3943 H   0  0  0  0  0  0  0  0  0  0  0  0
   50.9165    6.9835   12.1519 H   0  0  0  0  0  0  0  0  0  0  0  0
   47.5995    9.6385   13.0572 H   0  0  0  0  0  0  0  0  0  0  0  0
   49.2525   10.2799   13.0238 H   0  0  0  0  0  0  0  0  0  0  0  0
   48.4784    9.7286   11.5341 H   0  0  0  0  0  0  0  0  0  0  0  0
   48.0367    7.1624   11.2028 H   0  0  0  0  0  0  0  0  0  0  0  0
   48.5332    6.0342   12.4679 H   0  0  0  0  0  0  0  0  0  0  0  0
   47.1792    7.1444   12.7421 H   0  0  0  0  0  0  0  0  0  0  0  0
  2  1  2  0
  3  1  1  0
  4 10  1  0
  5  3  2  0
  6  2  1  0
  7  5  1  0
  8  1  1  0
  9  4  1  0
 10  8  1  0
 11  5  1  0
 12  6  1  0
 13  8  1  0
 14  9  1  0
 15  9  1  0
 16  9  1  0
  6  7  2  0
 18 17  1  0
 19 17  1  0
 20 17  2  0
 21 17  2  0
 23 22  2  0
 24 22  1  0
 25 31  1  0
 26 24  2  0
 27 23  1  0
 28 26  1  0
 29 22  1  0
 30 25  1  0
 31 29  1  0
 32 26  1  0
 33 27  1  0
 34 29  1  0
 35 30  1  0
 36 30  1  0
 37 30  1  0
 27 28  2  0
  2 38  1  0
  3 39  1  0
  4 40  1  0
  7 41  1  0
  8 42  1  1
 10 43  1  0
 10 44  1  0
 11 45  1  0
 12 46  1  0
 13 47  1  0
 14 48  1  0
 14 49  1  0
 14 50  1  0
 15 51  1  0
 15 52  1  0
 15 53  1  0
 16 54  1  0
 16 55  1  0
 16 56  1  0
 18 57  1  0
 19 58  1  0
 23 59  1  0
 24 60  1  0
 25 61  1  0
 28 62  1  0
 29 63  1  1
 31 64  1  0
 31 65  1  0
 32 66  1  0
 33 67  1  0
 34 68  1  0
 35 69  1  0
 35 70  1  0
 35 71  1  0
 36 72  1  0
 36 73  1  0
 36 74  1  0
 37 75  1  0
 37 76  1  0
 37 77  1  0
M  END
> <Uni-Dock RESULT> 
ENERGY=   -5.720  LOWER_BOUND=    3.176  UPPER_BOUND=    5.517
INTER + INTRA:          -5.720
INTER:                  -5.720
INTRA:                   0.000
UNBOUND:                 0.000

$$$$

     RDKit          3D

 77 76  0  0  0  0  0  0  0  0999 V2000
   47.1251    7.9363   12.5818 C   0  0  0  0  0  0  0  0  0  0  0  0
   46.5903    6.8217   11.9145 C   0  0  0  0  0  0  0  0  0  0  0  0
   46.3335    9.0916   12.7091 C   0  0  0  0  0  0  0  0  0  0  0  0
   49.8482    7.4069   15.2096 N   0  0  0  0  0  0  0  0  0  0  0  0
   45.0458    9.1192   12.1753 C   0  0  0  0  0  0  0  0  0  0  0  0
   45.3017    6.8729   11.3867 C   0  0  0  0  0  0  0  0  0  0  0  0
   44.5231    8.0150   11.5149 C   0  0  0  0  0  0  0  0  0  0  0  0
   48.5095    7.9013   13.1920 C   0  0  1  0  0  0  0  0  0  0  0  0
   49.9709    6.9825   16.6196 C   0  0  0  0  0  0  0  0  0  0  0  0
   48.4686    7.5247   14.6951 C   0  0  0  0  0  0  0  0  0  0  0  0
   44.2566   10.2264   12.2854 O   0  0  0  0  0  0  0  0  0  0  0  0
   44.7657    5.8039   10.7296 O   0  0  0  0  0  0  0  0  0  0  0  0
   49.3433    6.9598   12.5056 O   0  0  0  0  0  0  0  0  0  0  0  0
   49.3656    8.0184   17.5817 C   0  0  0  0  0  0  0  0  0  0  0  0
   49.3387    5.6027   16.8681 C   0  0  0  0  0  0  0  0  0  0  0  0
   51.4826    6.8783   16.9018 C   0  0  0  0  0  0  0  0  0  0  0  0
   48.3107    7.0657   14.2814 S   0  0  0  0  0  0  0  0  0  0  0  0
   48.3287    7.7938   15.7108 O   0  0  0  0  0  0  0  0  0  0  0  0
   47.6132    8.1877   13.3716 O   0  0  0  0  0  0  0  0  0  0  0  0
   49.6860    6.9386   13.8713 O   0  0  0  0  0  0  0  0  0  0  0  0
   47.3868    5.9621   14.3451 O   0  0  0  0  0  0  0  0  0  0  0  0
   47.4802    7.5041   12.5164 C   0  0  0  0  0  0  0  0  0  0  0  0
   46.6684    8.6494   12.4685 C   0  0  0  0  0  0  0  0  0  0  0  0
   46.8624    6.2444   12.4260 C   0  0  0  0  0  0  0  0  0  0  0  0
   49.2356    7.9609   15.1021 N   0  0  0  0  0  0  0  0  0  0  0  0
   45.4789    6.1420   12.3071 C   0  0  0  0  0  0  0  0  0  0  0  0
   45.2848    8.5247   12.3459 C   0  0  0  0  0  0  0  0  0  0  0  0
   44.6795    7.2771   12.2697 C   0  0  0  0  0  0  0  0  0  0  0  0
   48.9894    7.5896   12.6556 C   0  0  2  0  0  0  0  0  0  0  0  0
   49.6833    7.5319   16.4423 C   0  0  0  0  0  0  0  0  0  0  0  0
   49.5219    7.0190   13.9997 C   0  0  0  0  0  0  0  0  0  0  0  0
   44.9413    4.8906   12.2273 O   0  0  0  0  0  0  0  0  0  0  0  0
   44.4786    9.6241   12.2939 O   0  0  0  0  0  0  0  0  0  0  0  0
   49.4387    8.9464   12.5286 O   0  0  0  0  0  0  0  0  0  0  0  0
   49.3534    8.6992   17.3926 C   0  0  0  0  0  0  0  0  0  0  0  0
   51.1984    7.2799   16.4943 C   0  0  0  0  0  0  0  0  0  0  0  0
   48.9254    6.2832   16.9236 C   0  0  0  0  0  0  0  0  0  0  0  0
   47.1918    5.9220   11.8115 H   0  0  0  0  0  0  0  0  0  0  0  0
   46.7301    9.9613   13.2254 H   0  0  0  0  0  0  0  0  0  0  0  0
   50.3169    8.3087   15.0986 H   0  0  0  0  0  0  0  0  0  0  0  0
   43.5204    8.0450   11.1006 H   0  0  0  0  0  0  0  0  0  0  0  0
   48.9835    8.8826   13.0639 H   0  0  0  0  0  0  0  0  0  0  0  0
   47.9000    8.2797   15.2479 H   0  0  0  0  0  0  0  0  0  0  0  0
   47.9564    6.5614   14.7929 H   0  0  0  0  0  0  0  0  0  0  0  0
   44.7539   10.9246   12.7412 H   0  0  0  0  0  0  0  0  0  0  0  0
   45.4429    5.1099   10.6709 H   0  0  0  0  0  0  0  0  0  0  0  0
   50.0311    6.7257   13.1615 H   0  0  0  0  0  0  0  0  0  0  0  0
   49.5730    7.7497   18.6236 H   0  0  0  0  0  0  0  0  0  0  0  0
   49.7858    9.0160   17.4107 H   0  0  0  0  0  0  0  0  0  0  0  0
   48.2775    8.0881   17.4772 H   0  0  0  0  0  0  0  0  0  0  0  0
   49.5778    5.2392   17.8746 H   0  0  0  0  0  0  0  0  0  0  0  0
   49.7103    4.8589   16.1532 H   0  0  0  0  0  0  0  0  0  0  0  0
   48.2466    5.6310   16.7916 H   0  0  0  0  0  0  0  0  0  0  0  0
   51.9878    7.8400   16.7501 H   0  0  0  0  0  0  0  0  0  0  0  0
   51.6711    6.5696   17.9373 H   0  0  0  0  0  0  0  0  0  0  0  0
   51.9625    6.1416   16.2457 H   0  0  0  0  0  0  0  0  0  0  0  0
   49.1396    8.3423   15.7451 H   0  0  0  0  0  0  0  0  0  0  0  0
   46.6453    8.0510   13.4378 H   0  0  0  0  0  0  0  0  0  0  0  0
   47.1244    9.6343   12.5216 H   0  0  0  0  0  0  0  0  0  0  0  0
   47.4549    5.3324   12.4430 H   0  0  0  0  0  0  0  0  0  0  0  0
   48.2230    8.1127   15.1308 H   0  0  0  0  0  0  0  0  0  0  0  0
   43.6012    7.2125   12.1755 H   0  0  0  0  0  0  0  0  0  0  0  0
   49.4387    7.0344   11.8235 H   0  0  0  0  0  0  0  0  0  0  0  0
   50.6083    6.9226   13.8973 H   0  0  0  0  0  0  0  0  0  0  0  0
   49.1015    6.0276   14.1892 H   0  0  0  0  0  0  0  0  0  0  0  0
   43.9803    4.9782   12.1093 H   0  0  0  0  0  0  0  0  0  0  0  0
   45.0415   10.4165   12.2857 H   0  0  0  0  0  0  0  0  0  0  0  0
   49.6663    9.2135   13.4436 H   0  0  0  0  0  0  0  0  0  0  0  0
   49.6594    8.4708   18.4201 H   0  0  0  0  0  0  0  0  0  0  0  0
   49.8709    9.6181   17.0917 H   0  0  0  0  0  0  0  0  0  0  0  0
   48.2775    8.9113   17.4110 H   0  0  0  0  0  0  0  0  0  0  0  0
   51.4888    6.3996   15.9110 H   0  0  0  0  0  0  0  0  0  0  0  0
   51.7579    8.1410   16.1115 H   0  0  0  0  0  0  0  0  0  0  0  0
   51.5306    7.1040   17.5242 H   0  0  0  0  0  0  0  0  0  0  0  0
   49.1638    6.0603   17.9701 H   0  0  0  0  0  0  0  0  0  0  0  0
   47.8403    6.4244   16.8586 H   0  0  0  0  0  0  0  0  0  0  0  0
   49.1858    5.3947   16.3387 H   0  0  0  0  0  0  0  0  0  0  0  0
  2  1  2  0
  3  1  1  0
  4 10  1  0
  5  3  2  0
  6  2  1  0
  7  5  1  0
  8  1  1  0
  9  4  1  0
 10  8  1  0
 11  5  1  0
 12  6  1  0
 13  8  1  0
 14  9  1  0
 15  9  1  0
 16  9  1  0
  6  7  2  0
 18 17  1  0
 19 17  1  0
 20 17  2  0
 21 17  2  0
 23 22  2  0
 24 22  1  0
 25 31  1  0
 26 24  2  0
 27 23  1  0
 28 26  1  0
 29 22  1  0
 30 25  1  0
 31 29  1  0
 32 26  1  0
 33 27  1  0
 34 29  1  0
 35 30  1  0
 36 30  1  0
 37 30  1  0
 27 28  2  0
  2 38  1  0
  3 39  1  0
  4 40  1  0
  7 41  1  0
  8 42  1  1
 10 43  1  0
 10 44  1  0
 11 45  1  0
 12 46  1  0
 13 47  1  0
 14 48  1  0
 14 49  1  0
 14 50  1  0
 15 51  1  0
 15 52  1  0
 15 53  1  0
 16 54  1  0
 16 55  1  0
 16 56  1  0
 18 57  1  0
 19 58  1  0
 23 59  1  0
 24 60  1  0
 25 61  1  0
 28 62  1  0
 29 63  1  1
 31 64  1  0
 31 65  1  0
 32 66  1  0
 33 67  1  0
 34 68  1  0
 35 69  1  0
 35 70  1  0
 35 71  1  0
 36 72  1  0
 36 73  1  0
 36 74  1  0
 37 75  1  0
 37 76  1  0
 37 77  1  0
M  END
> <Uni-Dock RESULT> 
ENERGY=   -5.707  LOWER_BOUND=    2.175  UPPER_BOUND=    5.673
INTER + INTRA:          -5.707
INTER:                  -5.707
INTRA:                   0.000
UNBOUND:                 0.000

$$$$

     RDKit          3D

 77 76  0  0  0  0  0  0  0  0999 V2000
   47.1251    7.9364   12.5818 C   0  0  0  0  0  0  0  0  0  0  0  0
   46.5903    6.8217   11.9145 C   0  0  0  0  0  0  0  0  0  0  0  0
   46.3335    9.0916   12.7092 C   0  0  0  0  0  0  0  0  0  0  0  0
   49.8482    7.4069   15.2097 N   0  0  0  0  0  0  0  0  0  0  0  0
   45.0458    9.1192   12.1753 C   0  0  0  0  0  0  0  0  0  0  0  0
   45.3017    6.8729   11.3867 C   0  0  0  0  0  0  0  0  0  0  0  0
   44.5231    8.0150   11.5149 C   0  0  0  0  0  0  0  0  0  0  0  0
   48.5095    7.9013   13.1920 C   0  0  1  0  0  0  0  0  0  0  0  0
   49.9709    6.9825   16.6196 C   0  0  0  0  0  0  0  0  0  0  0  0
   48.4686    7.5247   14.6952 C   0  0  0  0  0  0  0  0  0  0  0  0
   44.2566   10.2264   12.2854 O   0  0  0  0  0  0  0  0  0  0  0  0
   44.7657    5.8039   10.7296 O   0  0  0  0  0  0  0  0  0  0  0  0
   49.3434    6.9598   12.5056 O   0  0  0  0  0  0  0  0  0  0  0  0
   49.3656    8.0184   17.5818 C   0  0  0  0  0  0  0  0  0  0  0  0
   49.3388    5.6027   16.8681 C   0  0  0  0  0  0  0  0  0  0  0  0
   51.4826    6.8783   16.9019 C   0  0  0  0  0  0  0  0  0  0  0  0
   48.3107    7.0657   14.2814 S   0  0  0  0  0  0  0  0  0  0  0  0
   48.3287    7.7938   15.7108 O   0  0  0  0  0  0  0  0  0  0  0  0
   47.6133    8.1877   13.3716 O   0  0  0  0  0  0  0  0  0  0  0  0
   49.6860    6.9387   13.8713 O   0  0  0  0  0  0  0  0  0  0  0  0
   47.3869    5.9621   14.3451 O   0  0  0  0  0  0  0  0  0  0  0  0
   47.4802    7.5042   12.5164 C   0  0  0  0  0  0  0  0  0  0  0  0
   46.6684    8.6494   12.4685 C   0  0  0  0  0  0  0  0  0  0  0  0
   46.8624    6.2444   12.4260 C   0  0  0  0  0  0  0  0  0  0  0  0
   49.2356    7.9609   15.1021 N   0  0  0  0  0  0  0  0  0  0  0  0
   45.4789    6.1420   12.3071 C   0  0  0  0  0  0  0  0  0  0  0  0
   45.2848    8.5248   12.3459 C   0  0  0  0  0  0  0  0  0  0  0  0
   44.6796    7.2771   12.2697 C   0  0  0  0  0  0  0  0  0  0  0  0
   48.9895    7.5897   12.6557 C   0  0  2  0  0  0  0  0  0  0  0  0
   49.6833    7.5319   16.4424 C   0  0  0  0  0  0  0  0  0  0  0  0
   49.5220    7.0190   13.9997 C   0  0  0  0  0  0  0  0  0  0  0  0
   44.9414    4.8906   12.2273 O   0  0  0  0  0  0  0  0  0  0  0  0
   44.4786    9.6241   12.2940 O   0  0  0  0  0  0  0  0  0  0  0  0
   49.4387    8.9465   12.5287 O   0  0  0  0  0  0  0  0  0  0  0  0
   49.3534    8.6992   17.3926 C   0  0  0  0  0  0  0  0  0  0  0  0
   51.1984    7.2799   16.4944 C   0  0  0  0  0  0  0  0  0  0  0  0
   48.9254    6.2831   16.9236 C   0  0  0  0  0  0  0  0  0  0  0  0
   47.1918    5.9220   11.8115 H   0  0  0  0  0  0  0  0  0  0  0  0
   46.7301    9.9613   13.2255 H   0  0  0  0  0  0  0  0  0  0  0  0
   50.3169    8.3087   15.0987 H   0  0  0  0  0  0  0  0  0  0  0  0
   43.5205    8.0450   11.1006 H   0  0  0  0  0  0  0  0  0  0  0  0
   48.9835    8.8826   13.0639 H   0  0  0  0  0  0  0  0  0  0  0  0
   47.9000    8.2797   15.2479 H   0  0  0  0  0  0  0  0  0  0  0  0
   47.9564    6.5614   14.7929 H   0  0  0  0  0  0  0  0  0  0  0  0
   44.7539   10.9246   12.7412 H   0  0  0  0  0  0  0  0  0  0  0  0
   45.4430    5.1099   10.6709 H   0  0  0  0  0  0  0  0  0  0  0  0
   50.0311    6.7257   13.1615 H   0  0  0  0  0  0  0  0  0  0  0  0
   49.5730    7.7497   18.6237 H   0  0  0  0  0  0  0  0  0  0  0  0
   49.7857    9.0160   17.4107 H   0  0  0  0  0  0  0  0  0  0  0  0
   48.2775    8.0881   17.4773 H   0  0  0  0  0  0  0  0  0  0  0  0
   49.5778    5.2392   17.8746 H   0  0  0  0  0  0  0  0  0  0  0  0
   49.7103    4.8589   16.1532 H   0  0  0  0  0  0  0  0  0  0  0  0
   48.2466    5.6310   16.7916 H   0  0  0  0  0  0  0  0  0  0  0  0
   51.9878    7.8400   16.7502 H   0  0  0  0  0  0  0  0  0  0  0  0
   51.6711    6.5696   17.9373 H   0  0  0  0  0  0  0  0  0  0  0  0
   51.9625    6.1416   16.2457 H   0  0  0  0  0  0  0  0  0  0  0  0
   49.1396    8.3423   15.7451 H   0  0  0  0  0  0  0  0  0  0  0  0
   46.6453    8.0510   13.4378 H   0  0  0  0  0  0  0  0  0  0  0  0
   47.1244    9.6343   12.5216 H   0  0  0  0  0  0  0  0  0  0  0  0
   47.4549    5.3324   12.4430 H   0  0  0  0  0  0  0  0  0  0  0  0
   48.2230    8.1127   15.1308 H   0  0  0  0  0  0  0  0  0  0  0  0
   43.6012    7.2125   12.1755 H   0  0  0  0  0  0  0  0  0  0  0  0
   49.4387    7.0344   11.8235 H   0  0  0  0  0  0  0  0  0  0  0  0
   50.6084    6.9227   13.8974 H   0  0  0  0  0  0  0  0  0  0  0  0
   49.1015    6.0276   14.1893 H   0  0  0  0  0  0  0  0  0  0  0  0
   43.9803    4.9782   12.1093 H   0  0  0  0  0  0  0  0  0  0  0  0
   45.0415   10.4165   12.2858 H   0  0  0  0  0  0  0  0  0  0  0  0
   49.6663    9.2135   13.4436 H   0  0  0  0  0  0  0  0  0  0  0  0
   49.6594    8.4708   18.4201 H   0  0  0  0  0  0  0  0  0  0  0  0
   49.8709    9.6182   17.0918 H   0  0  0  0  0  0  0  0  0  0  0  0
   48.2775    8.9113   17.4111 H   0  0  0  0  0  0  0  0  0  0  0  0
   51.4888    6.3997   15.9110 H   0  0  0  0  0  0  0  0  0  0  0  0
   51.7579    8.1410   16.1115 H   0  0  0  0  0  0  0  0  0  0  0  0
   51.5306    7.1040   17.5242 H   0  0  0  0  0  0  0  0  0  0  0  0
   49.1638    6.0603   17.9701 H   0  0  0  0  0  0  0  0  0  0  0  0
   47.8403    6.4244   16.8586 H   0  0  0  0  0  0  0  0  0  0  0  0
   49.1859    5.3947   16.3387 H   0  0  0  0  0  0  0  0  0  0  0  0
  2  1  2  0
  3  1  1  0
  4 10  1  0
  5  3  2  0
  6  2  1  0
  7  5  1  0
  8  1  1  0
  9  4  1  0
 10  8  1  0
 11  5  1  0
 12  6  1  0
 13  8  1  0
 14  9  1  0
 15  9  1  0
 16  9  1  0
  6  7  2  0
 18 17  1  0
 19 17  1  0
 20 17  2  0
 21 17  2  0
 23 22  2  0
 24 22  1  0
 25 31  1  0
 26 24  2  0
 27 23  1  0
 28 26  1  0
 29 22  1  0
 30 25  1  0
 31 29  1  0
 32 26  1  0
 33 27  1  0
 34 29  1  0
 35 30  1  0
 36 30  1  0
 37 30  1  0
 27 28  2  0
  2 38  1  0
  3 39  1  0
  4 40  1  0
  7 41  1  0
  8 42  1  1
 10 43  1  0
 10 44  1  0
 11 45  1  0
 12 46  1  0
 13 47  1  0
 14 48  1  0
 14 49  1  0
 14 50  1  0
 15 51  1  0
 15 52  1  0
 15 53  1  0
 16 54  1  0
 16 55  1  0
 16 56  1  0
 18 57  1  0
 19 58  1  0
 23 59  1  0
 24 60  1  0
 25 61  1  0
 28 62  1  0
 29 63  1  1
 31 64  1  0
 31 65  1  0
 32 66  1  0
 33 67  1  0
 34 68  1  0
 35 69  1  0
 35 70  1  0
 35 71  1  0
 36 72  1  0
 36 73  1  0
 36 74  1  0
 37 75  1  0
 37 76  1  0
 37 77  1  0
M  END
> <Uni-Dock RESULT> 
ENERGY=   -5.707  LOWER_BOUND=    2.176  UPPER_BOUND=    5.673
INTER + INTRA:          -5.707
INTER:                  -5.707
INTRA:                   0.000
UNBOUND:                 0.000

$$$$

     RDKit          3D

 77 76  0  0  0  0  0  0  0  0999 V2000
   45.0901    6.4330   11.1843 C   0  0  0  0  0  0  0  0  0  0  0  0
   44.3153    5.5613   11.9675 C   0  0  0  0  0  0  0  0  0  0  0  0
   45.6292    5.9571    9.9758 C   0  0  0  0  0  0  0  0  0  0  0  0
   44.5050   10.1995   11.4530 N   0  0  0  0  0  0  0  0  0  0  0  0
   45.3957    4.6421    9.5759 C   0  0  0  0  0  0  0  0  0  0  0  0
   44.0972    4.2501   11.5490 C   0  0  0  0  0  0  0  0  0  0  0  0
   44.6306    3.7842   10.3552 C   0  0  0  0  0  0  0  0  0  0  0  0
   45.3198    7.8708   11.5966 C   0  0  1  0  0  0  0  0  0  0  0  0
   43.5531   11.2186   10.9646 C   0  0  0  0  0  0  0  0  0  0  0  0
   44.2972    8.8311   10.9370 C   0  0  0  0  0  0  0  0  0  0  0  0
   45.9060    4.1553    8.4082 O   0  0  0  0  0  0  0  0  0  0  0  0
   43.3531    3.3854   12.2977 O   0  0  0  0  0  0  0  0  0  0  0  0
   45.2299    8.0116   13.0196 O   0  0  0  0  0  0  0  0  0  0  0  0
   43.6773   11.4341    9.4469 C   0  0  0  0  0  0  0  0  0  0  0  0
   42.0986   10.8768   11.3290 C   0  0  0  0  0  0  0  0  0  0  0  0
   43.9333   12.5312   11.6773 C   0  0  0  0  0  0  0  0  0  0  0  0
   44.0683    8.4261   11.3734 S   0  0  0  0  0  0  0  0  0  0  0  0
   43.9749    9.4097   10.1094 O   0  0  0  0  0  0  0  0  0  0  0  0
   45.1079    7.3292   10.8355 O   0  0  0  0  0  0  0  0  0  0  0  0
   44.7036    9.1757   12.4272 O   0  0  0  0  0  0  0  0  0  0  0  0
   42.8039    7.7510   11.5184 O   0  0  0  0  0  0  0  0  0  0  0  0
   44.9200    6.6432   11.6783 C   0  0  0  0  0  0  0  0  0  0  0  0
   45.5261    6.0354   10.5664 C   0  0  0  0  0  0  0  0  0  0  0  0
   43.7258    6.0897   12.1726 C   0  0  0  0  0  0  0  0  0  0  0  0
   44.7513    9.6853   10.8459 N   0  0  0  0  0  0  0  0  0  0  0  0
   43.1561    4.9760   11.5612 C   0  0  0  0  0  0  0  0  0  0  0  0
   44.9405    4.9185    9.9707 C   0  0  0  0  0  0  0  0  0  0  0  0
   43.7540    4.3842   10.4562 C   0  0  0  0  0  0  0  0  0  0  0  0
   45.5163    7.8638   12.3559 C   0  0  2  0  0  0  0  0  0  0  0  0
   43.9567   10.9002   10.5750 C   0  0  0  0  0  0  0  0  0  0  0  0
   44.6417    9.1408   12.2155 C   0  0  0  0  0  0  0  0  0  0  0  0
   41.9951    4.4898   12.0873 O   0  0  0  0  0  0  0  0  0  0  0  0
   45.5143    4.3110    8.8925 O   0  0  0  0  0  0  0  0  0  0  0  0
   46.8233    8.1493   11.8371 O   0  0  0  0  0  0  0  0  0  0  0  0
   44.2987   11.3167    9.1315 C   0  0  0  0  0  0  0  0  0  0  0  0
   44.3303   12.0584   11.5135 C   0  0  0  0  0  0  0  0  0  0  0  0
   42.4461   10.6230   10.6569 C   0  0  0  0  0  0  0  0  0  0  0  0
   43.8914    5.9181   12.9028 H   0  0  0  0  0  0  0  0  0  0  0  0
   46.2276    6.6190    9.3561 H   0  0  0  0  0  0  0  0  0  0  0  0
   45.4532   10.4985   11.2149 H   0  0  0  0  0  0  0  0  0  0  0  0
   44.4548    2.7613   10.0377 H   0  0  0  0  0  0  0  0  0  0  0  0
   46.3410    8.1644   11.3224 H   0  0  0  0  0  0  0  0  0  0  0  0
   44.4077    8.7944    9.8483 H   0  0  0  0  0  0  0  0  0  0  0  0
   43.2895    8.4893   11.1972 H   0  0  0  0  0  0  0  0  0  0  0  0
   46.4374    4.8476    7.9828 H   0  0  0  0  0  0  0  0  0  0  0  0
   43.1003    3.8336   13.1217 H   0  0  0  0  0  0  0  0  0  0  0  0
   45.0066    8.9551   13.1536 H   0  0  0  0  0  0  0  0  0  0  0  0
   43.0553   12.2754    9.1211 H   0  0  0  0  0  0  0  0  0  0  0  0
   44.7104   11.6594    9.1586 H   0  0  0  0  0  0  0  0  0  0  0  0
   43.3530   10.5549    8.8801 H   0  0  0  0  0  0  0  0  0  0  0  0
   41.4309   11.7158   11.0989 H   0  0  0  0  0  0  0  0  0  0  0  0
   41.9958   10.6590   12.3987 H   0  0  0  0  0  0  0  0  0  0  0  0
   41.7267   10.0121   10.7692 H   0  0  0  0  0  0  0  0  0  0  0  0
   44.9623   12.8319   11.4456 H   0  0  0  0  0  0  0  0  0  0  0  0
   43.2753   13.3531   11.3697 H   0  0  0  0  0  0  0  0  0  0  0  0
   43.8510   12.4335   12.7669 H   0  0  0  0  0  0  0  0  0  0  0  0
   44.7107   10.0515   10.1883 H   0  0  0  0  0  0  0  0  0  0  0  0
   44.5875    6.6478   10.3613 H   0  0  0  0  0  0  0  0  0  0  0  0
   46.4574    6.4362   10.1756 H   0  0  0  0  0  0  0  0  0  0  0  0
   43.2320    6.5195   13.0412 H   0  0  0  0  0  0  0  0  0  0  0  0
   44.4585    8.9531   10.1921 H   0  0  0  0  0  0  0  0  0  0  0  0
   43.3227    3.5155    9.9711 H   0  0  0  0  0  0  0  0  0  0  0  0
   45.6483    7.6307   13.4192 H   0  0  0  0  0  0  0  0  0  0  0  0
   45.0420    9.8805   12.9173 H   0  0  0  0  0  0  0  0  0  0  0  0
   43.6047    8.9278   12.4891 H   0  0  0  0  0  0  0  0  0  0  0  0
   41.7412    3.6966   11.5856 H   0  0  0  0  0  0  0  0  0  0  0  0
   46.3650    4.7458    8.7127 H   0  0  0  0  0  0  0  0  0  0  0  0
   46.6917    8.9349   11.2663 H   0  0  0  0  0  0  0  0  0  0  0  0
   43.7542   12.2230    8.8421 H   0  0  0  0  0  0  0  0  0  0  0  0
   45.3694   11.5262    9.0188 H   0  0  0  0  0  0  0  0  0  0  0  0
   44.0335   10.5320    8.4127 H   0  0  0  0  0  0  0  0  0  0  0  0
   44.0259   11.8640   12.5475 H   0  0  0  0  0  0  0  0  0  0  0  0
   45.4105   12.2431   11.5064 H   0  0  0  0  0  0  0  0  0  0  0  0
   43.8364   12.9871   11.2047 H   0  0  0  0  0  0  0  0  0  0  0  0
   41.8703   11.4917   10.3169 H   0  0  0  0  0  0  0  0  0  0  0  0
   42.1607    9.7741   10.0249 H   0  0  0  0  0  0  0  0  0  0  0  0
   42.1242   10.4051   11.6807 H   0  0  0  0  0  0  0  0  0  0  0  0
  2  1  2  0
  3  1  1  0
  4 10  1  0
  5  3  2  0
  6  2  1  0
  7  5  1  0
  8  1  1  0
  9  4  1  0
 10  8  1  0
 11  5  1  0
 12  6  1  0
 13  8  1  0
 14  9  1  0
 15  9  1  0
 16  9  1  0
  6  7  2  0
 18 17  1  0
 19 17  1  0
 20 17  2  0
 21 17  2  0
 23 22  2  0
 24 22  1  0
 25 31  1  0
 26 24  2  0
 27 23  1  0
 28 26  1  0
 29 22  1  0
 30 25  1  0
 31 29  1  0
 32 26  1  0
 33 27  1  0
 34 29  1  0
 35 30  1  0
 36 30  1  0
 37 30  1  0
 27 28  2  0
  2 38  1  0
  3 39  1  0
  4 40  1  0
  7 41  1  0
  8 42  1  1
 10 43  1  0
 10 44  1  0
 11 45  1  0
 12 46  1  0
 13 47  1  0
 14 48  1  0
 14 49  1  0
 14 50  1  0
 15 51  1  0
 15 52  1  0
 15 53  1  0
 16 54  1  0
 16 55  1  0
 16 56  1  0
 18 57  1  0
 19 58  1  0
 23 59  1  0
 24 60  1  0
 25 61  1  0
 28 62  1  0
 29 63  1  1
 31 64  1  0
 31 65  1  0
 32 66  1  0
 33 67  1  0
 34 68  1  0
 35 69  1  0
 35 70  1  0
 35 71  1  0
 36 72  1  0
 36 73  1  0
 36 74  1  0
 37 75  1  0
 37 76  1  0
 37 77  1  0
M  END
> <Uni-Dock RESULT> 
ENERGY=   -5.602  LOWER_BOUND=    3.000  UPPER_BOUND=    5.581
INTER + INTRA:          -5.602
INTER:                  -5.602
INTRA:                   0.000
UNBOUND:                 0.000

$$$$

     RDKit          3D

 77 76  0  0  0  0  0  0  0  0999 V2000
   49.0080    4.7229   19.4914 C   0  0  0  0  0  0  0  0  0  0  0  0
   47.9994    4.0880   18.7475 C   0  0  0  0  0  0  0  0  0  0  0  0
   50.3501    4.5099   19.1296 C   0  0  0  0  0  0  0  0  0  0  0  0
   48.2054    7.9802   21.3209 N   0  0  0  0  0  0  0  0  0  0  0  0
   50.6610    3.6789   18.0541 C   0  0  0  0  0  0  0  0  0  0  0  0
   48.3338    3.2596   17.6780 C   0  0  0  0  0  0  0  0  0  0  0  0
   49.6599    3.0523   17.3236 C   0  0  0  0  0  0  0  0  0  0  0  0
   48.6759    5.6519   20.6389 C   0  0  1  0  0  0  0  0  0  0  0  0
   48.0492    9.4187   21.0219 C   0  0  0  0  0  0  0  0  0  0  0  0
   48.6321    7.1342   20.1876 C   0  0  0  0  0  0  0  0  0  0  0  0
   51.9541    3.4559   17.6816 O   0  0  0  0  0  0  0  0  0  0  0  0
   47.3701    2.6286   16.9465 O   0  0  0  0  0  0  0  0  0  0  0  0
   47.4106    5.3110   21.2183 O   0  0  0  0  0  0  0  0  0  0  0  0
   49.3874   10.0689   20.6326 C   0  0  0  0  0  0  0  0  0  0  0  0
   47.0026    9.6735   19.9243 C   0  0  0  0  0  0  0  0  0  0  0  0
   47.5497   10.0717   22.3257 C   0  0  0  0  0  0  0  0  0  0  0  0
   48.1706    6.7543   19.9652 S   0  0  0  0  0  0  0  0  0  0  0  0
   49.1248    8.0439   19.9569 O   0  0  0  0  0  0  0  0  0  0  0  0
   49.2496    5.5707   19.8761 O   0  0  0  0  0  0  0  0  0  0  0  0
   47.5552    6.7109   21.2672 O   0  0  0  0  0  0  0  0  0  0  0  0
   47.4336    6.7262   18.7276 O   0  0  0  0  0  0  0  0  0  0  0  0
   48.4846    4.7999   19.6844 C   0  0  0  0  0  0  0  0  0  0  0  0
   49.7891    4.4146   19.3340 C   0  0  0  0  0  0  0  0  0  0  0  0
   47.4790    4.7175   18.7051 C   0  0  0  0  0  0  0  0  0  0  0  0
   48.8865    7.6590   20.9649 N   0  0  0  0  0  0  0  0  0  0  0  0
   47.7791    4.2782   17.4183 C   0  0  0  0  0  0  0  0  0  0  0  0
   50.0677    3.9746   18.0402 C   0  0  0  0  0  0  0  0  0  0  0  0
   49.0724    3.9074   17.0740 C   0  0  0  0  0  0  0  0  0  0  0  0
   48.1346    5.2914   21.0774 C   0  0  2  0  0  0  0  0  0  0  0  0
   48.6139    9.1103   20.9769 C   0  0  0  0  0  0  0  0  0  0  0  0
   47.7050    6.7845   21.1188 C   0  0  0  0  0  0  0  0  0  0  0  0
   46.7591    4.2247   16.5139 O   0  0  0  0  0  0  0  0  0  0  0  0
   51.3269    3.5925   17.6802 O   0  0  0  0  0  0  0  0  0  0  0  0
   49.2390    5.1116   21.9756 O   0  0  0  0  0  0  0  0  0  0  0  0
   49.9889    9.8001   20.8882 C   0  0  0  0  0  0  0  0  0  0  0  0
   47.9303    9.5609   22.2775 C   0  0  0  0  0  0  0  0  0  0  0  0
   47.7732    9.5423   19.7636 C   0  0  0  0  0  0  0  0  0  0  0  0
   46.9580    4.2465   19.0161 H   0  0  0  0  0  0  0  0  0  0  0  0
   51.1424    4.9961   19.6918 H   0  0  0  0  0  0  0  0  0  0  0  0
   48.8828    7.8766   22.0797 H   0  0  0  0  0  0  0  0  0  0  0  0
   49.9101    2.4055   16.4888 H   0  0  0  0  0  0  0  0  0  0  0  0
   49.4224    5.5233   21.4328 H   0  0  0  0  0  0  0  0  0  0  0  0
   49.6169    7.4342   19.8147 H   0  0  0  0  0  0  0  0  0  0  0  0
   47.9079    7.2220   19.3704 H   0  0  0  0  0  0  0  0  0  0  0  0
   52.5443    3.9296   18.2899 H   0  0  0  0  0  0  0  0  0  0  0  0
   46.5063    2.8228   17.3463 H   0  0  0  0  0  0  0  0  0  0  0  0
   47.1127    6.1386   21.6479 H   0  0  0  0  0  0  0  0  0  0  0  0
   49.2785   11.1548   20.5344 H   0  0  0  0  0  0  0  0  0  0  0  0
   50.1571    9.8839   21.3906 H   0  0  0  0  0  0  0  0  0  0  0  0
   49.7614    9.6944   19.6737 H   0  0  0  0  0  0  0  0  0  0  0  0
   46.7887   10.7449   19.8299 H   0  0  0  0  0  0  0  0  0  0  0  0
   46.0561    9.1682   20.1503 H   0  0  0  0  0  0  0  0  0  0  0  0
   47.3447    9.3302   18.9422 H   0  0  0  0  0  0  0  0  0  0  0  0
   48.2638    9.9305   23.1461 H   0  0  0  0  0  0  0  0  0  0  0  0
   47.4079   11.1518   22.1978 H   0  0  0  0  0  0  0  0  0  0  0  0
   46.5885    9.6484   22.6427 H   0  0  0  0  0  0  0  0  0  0  0  0
   49.3974    8.2071   20.8834 H   0  0  0  0  0  0  0  0  0  0  0  0
   49.4283    5.4151   18.9254 H   0  0  0  0  0  0  0  0  0  0  0  0
   50.5800    4.4556   20.0780 H   0  0  0  0  0  0  0  0  0  0  0  0
   46.4524    4.9908   18.9384 H   0  0  0  0  0  0  0  0  0  0  0  0
   49.3403    7.4209   20.0780 H   0  0  0  0  0  0  0  0  0  0  0  0
   49.3203    3.5618   16.0765 H   0  0  0  0  0  0  0  0  0  0  0  0
   47.3175    4.6689   21.4612 H   0  0  0  0  0  0  0  0  0  0  0  0
   47.2661    6.9629   22.1066 H   0  0  0  0  0  0  0  0  0  0  0  0
   46.9449    6.9865   20.3592 H   0  0  0  0  0  0  0  0  0  0  0  0
   47.1087    3.8659   15.6805 H   0  0  0  0  0  0  0  0  0  0  0  0
   51.8939    3.6242   18.4691 H   0  0  0  0  0  0  0  0  0  0  0  0
   49.5988    6.0143   22.1018 H   0  0  0  0  0  0  0  0  0  0  0  0
   49.8850   10.8912   20.8973 H   0  0  0  0  0  0  0  0  0  0  0  0
   50.6302    9.5236   21.7339 H   0  0  0  0  0  0  0  0  0  0  0  0
   50.5162    9.5293   19.9655 H   0  0  0  0  0  0  0  0  0  0  0  0
   46.9069    9.1791   22.3574 H   0  0  0  0  0  0  0  0  0  0  0  0
   48.4888    9.2230   23.1578 H   0  0  0  0  0  0  0  0  0  0  0  0
   47.8678   10.6543   22.3281 H   0  0  0  0  0  0  0  0  0  0  0  0
   47.6986   10.6346   19.7087 H   0  0  0  0  0  0  0  0  0  0  0  0
   48.2208    9.1977   18.8243 H   0  0  0  0  0  0  0  0  0  0  0  0
   46.7510    9.1527   19.8135 H   0  0  0  0  0  0  0  0  0  0  0  0
  2  1  2  0
  3  1  1  0
  4 10  1  0
  5  3  2  0
  6  2  1  0
  7  5  1  0
  8  1  1  0
  9  4  1  0
 10  8  1  0
 11  5  1  0
 12  6  1  0
 13  8  1  0
 14  9  1  0
 15  9  1  0
 16  9  1  0
  6  7  2  0
 18 17  1  0
 19 17  1  0
 20 17  2  0
 21 17  2  0
 23 22  2  0
 24 22  1  0
 25 31  1  0
 26 24  2  0
 27 23  1  0
 28 26  1  0
 29 22  1  0
 30 25  1  0
 31 29  1  0
 32 26  1  0
 33 27  1  0
 34 29  1  0
 35 30  1  0
 36 30  1  0
 37 30  1  0
 27 28  2  0
  2 38  1  0
  3 39  1  0
  4 40  1  0
  7 41  1  0
  8 42  1  1
 10 43  1  0
 10 44  1  0
 11 45  1  0
 12 46  1  0
 13 47  1  0
 14 48  1  0
 14 49  1  0
 14 50  1  0
 15 51  1  0
 15 52  1  0
 15 53  1  0
 16 54  1  0
 16 55  1  0
 16 56  1  0
 18 57  1  0
 19 58  1  0
 23 59  1  0
 24 60  1  0
 25 61  1  0
 28 62  1  0
 29 63  1  1
 31 64  1  0
 31 65  1  0
 32 66  1  0
 33 67  1  0
 34 68  1  0
 35 69  1  0
 35 70  1  0
 35 71  1  0
 36 72  1  0
 36 73  1  0
 36 74  1  0
 37 75  1  0
 37 76  1  0
 37 77  1  0
M  END
> <Uni-Dock RESULT> 
ENERGY=   -5.298  LOWER_BOUND=    6.538  UPPER_BOUND=    8.790
INTER + INTRA:          -5.298
INTER:                  -5.298
INTRA:                   0.000
UNBOUND:                 0.000

$$$$
