
     RDKit          3D

 77 76  0  0  0  0  0  0  0  0999 V2000
   44.5798    5.4215   11.2436 C   0  0  0  0  0  0  0  0  0  0  0  0
   44.0284    4.4818   12.1296 C   0  0  0  0  0  0  0  0  0  0  0  0
   44.9319    5.0019    9.9504 C   0  0  0  0  0  0  0  0  0  0  0  0
   46.5590    8.4988   12.3687 N   0  0  0  0  0  0  0  0  0  0  0  0
   44.7322    3.6813    9.5591 C   0  0  0  0  0  0  0  0  0  0  0  0
   43.8325    3.1643   11.7159 C   0  0  0  0  0  0  0  0  0  0  0  0
   44.1814    2.7537   10.4350 C   0  0  0  0  0  0  0  0  0  0  0  0
   44.8227    6.8441   11.6965 C   0  0  1  0  0  0  0  0  0  0  0  0
   47.8040    8.7921   13.1101 C   0  0  0  0  0  0  0  0  0  0  0  0
   46.2953    7.0653   12.1229 C   0  0  0  0  0  0  0  0  0  0  0  0
   45.0983    3.3309    8.2928 O   0  0  0  0  0  0  0  0  0  0  0  0
   43.2942    2.2312   12.5540 O   0  0  0  0  0  0  0  0  0  0  0  0
   44.4778    7.7523   10.6460 O   0  0  0  0  0  0  0  0  0  0  0  0
   47.9802   10.3228   13.0714 C   0  0  0  0  0  0  0  0  0  0  0  0
   49.0421    8.1430   12.4704 C   0  0  0  0  0  0  0  0  0  0  0  0
   47.6792    8.3606   14.5810 C   0  0  0  0  0  0  0  0  0  0  0  0
   46.5244    6.3956   11.8924 S   0  0  0  0  0  0  0  0  0  0  0  0
   45.0916    5.7100   12.1193 O   0  0  0  0  0  0  0  0  0  0  0  0
   46.1876    7.9271   12.2279 O   0  0  0  0  0  0  0  0  0  0  0  0
   46.8112    6.2960   10.4842 O   0  0  0  0  0  0  0  0  0  0  0  0
   47.4172    5.9425   12.9282 O   0  0  0  0  0  0  0  0  0  0  0  0
   44.3949    6.1623   11.3454 C   0  0  0  0  0  0  0  0  0  0  0  0
   44.5676    5.4750   10.1333 C   0  0  0  0  0  0  0  0  0  0  0  0
   44.0402    5.4337   12.4929 C   0  0  0  0  0  0  0  0  0  0  0  0
   47.0836    7.5706   11.8242 N   0  0  0  0  0  0  0  0  0  0  0  0
   43.8629    4.0550   12.4214 C   0  0  0  0  0  0  0  0  0  0  0  0
   44.3835    4.0940   10.0852 C   0  0  0  0  0  0  0  0  0  0  0  0
   44.0293    3.3759   11.2205 C   0  0  0  0  0  0  0  0  0  0  0  0
   44.5974    7.6644   11.4075 C   0  0  2  0  0  0  0  0  0  0  0  0
   48.2555    7.9081   12.6559 C   0  0  0  0  0  0  0  0  0  0  0  0
   45.7934    8.1007   12.2948 C   0  0  0  0  0  0  0  0  0  0  0  0
   43.5168    3.4008   13.5666 O   0  0  0  0  0  0  0  0  0  0  0  0
   44.5431    3.3982    8.9221 O   0  0  0  0  0  0  0  0  0  0  0  0
   43.4032    8.2833   11.8972 O   0  0  0  0  0  0  0  0  0  0  0  0
   48.4371    9.4252   12.8205 C   0  0  0  0  0  0  0  0  0  0  0  0
   49.4818    7.3502   11.9078 C   0  0  0  0  0  0  0  0  0  0  0  0
   48.1852    7.2349   14.0371 C   0  0  0  0  0  0  0  0  0  0  0  0
   43.7557    4.7876   13.1354 H   0  0  0  0  0  0  0  0  0  0  0  0
   45.3587    5.7095    9.2417 H   0  0  0  0  0  0  0  0  0  0  0  0
   46.6257    8.9466   11.4503 H   0  0  0  0  0  0  0  0  0  0  0  0
   44.0207    1.7217   10.1430 H   0  0  0  0  0  0  0  0  0  0  0  0
   44.1569    7.0764   12.5376 H   0  0  0  0  0  0  0  0  0  0  0  0
   46.4906    6.4541   13.0102 H   0  0  0  0  0  0  0  0  0  0  0  0
   46.9658    6.7207   11.3256 H   0  0  0  0  0  0  0  0  0  0  0  0
   44.8658    2.3984    8.1531 H   0  0  0  0  0  0  0  0  0  0  0  0
   43.0563    2.6641   13.3904 H   0  0  0  0  0  0  0  0  0  0  0  0
   44.5726    8.6339   11.0488 H   0  0  0  0  0  0  0  0  0  0  0  0
   48.8727   10.6316   13.6281 H   0  0  0  0  0  0  0  0  0  0  0  0
   48.0928   10.6889   12.0443 H   0  0  0  0  0  0  0  0  0  0  0  0
   47.1209   10.8364   13.5174 H   0  0  0  0  0  0  0  0  0  0  0  0
   49.0139    7.0499   12.5396 H   0  0  0  0  0  0  0  0  0  0  0  0
   49.9592    8.4723   12.9720 H   0  0  0  0  0  0  0  0  0  0  0  0
   49.1304    8.4122   11.4114 H   0  0  0  0  0  0  0  0  0  0  0  0
   47.6361    7.2721   14.6918 H   0  0  0  0  0  0  0  0  0  0  0  0
   48.5403    8.7087   15.1636 H   0  0  0  0  0  0  0  0  0  0  0  0
   46.7789    8.7808   15.0450 H   0  0  0  0  0  0  0  0  0  0  0  0
   44.5430    5.9159   11.3356 H   0  0  0  0  0  0  0  0  0  0  0  0
   46.3598    8.0564   13.1838 H   0  0  0  0  0  0  0  0  0  0  0  0
   44.8533    6.0230    9.2393 H   0  0  0  0  0  0  0  0  0  0  0  0
   43.9008    5.9378   13.4477 H   0  0  0  0  0  0  0  0  0  0  0  0
   47.0107    6.5525   11.7590 H   0  0  0  0  0  0  0  0  0  0  0  0
   43.8920    2.3020   11.1505 H   0  0  0  0  0  0  0  0  0  0  0  0
   44.7499    8.0565   10.3948 H   0  0  0  0  0  0  0  0  0  0  0  0
   45.8118    9.1964   12.2946 H   0  0  0  0  0  0  0  0  0  0  0  0
   45.5960    7.7947   13.3285 H   0  0  0  0  0  0  0  0  0  0  0  0
   43.4474    2.4521   13.3697 H   0  0  0  0  0  0  0  0  0  0  0  0
   44.7731    4.0224    8.2134 H   0  0  0  0  0  0  0  0  0  0  0  0
   42.6602    7.6896   11.6915 H   0  0  0  0  0  0  0  0  0  0  0  0
   48.4336    9.9342   11.8494 H   0  0  0  0  0  0  0  0  0  0  0  0
   47.6490    9.8673   13.4396 H   0  0  0  0  0  0  0  0  0  0  0  0
   49.3927    9.6557   13.3078 H   0  0  0  0  0  0  0  0  0  0  0  0
   50.4079    7.5624   12.4544 H   0  0  0  0  0  0  0  0  0  0  0  0
   49.5805    7.7950   10.9096 H   0  0  0  0  0  0  0  0  0  0  0  0
   49.4171    6.2627   11.7826 H   0  0  0  0  0  0  0  0  0  0  0  0
   47.3831    7.6495   14.6560 H   0  0  0  0  0  0  0  0  0  0  0  0
   49.1223    7.3764   14.5882 H   0  0  0  0  0  0  0  0  0  0  0  0
   48.0177    6.1554   13.9487 H   0  0  0  0  0  0  0  0  0  0  0  0
  2  1  2  0
  3  1  1  0
  4 10  1  0
  5  3  2  0
  6  2  1  0
  7  5  1  0
  8  1  1  0
  9  4  1  0
 10  8  1  0
 11  5  1  0
 12  6  1  0
 13  8  1  0
 14  9  1  0
 15  9  1  0
 16  9  1  0
  6  7  2  0
 18 17  1  0
 19 17  1  0
 20 17  2  0
 21 17  2  0
 23 22  2  0
 24 22  1  0
 25 31  1  0
 26 24  2  0
 27 23  1  0
 28 26  1  0
 29 22  1  0
 30 25  1  0
 31 29  1  0
 32 26  1  0
 33 27  1  0
 34 29  1  0
 35 30  1  0
 36 30  1  0
 37 30  1  0
 27 28  2  0
  2 38  1  0
  3 39  1  0
  4 40  1  0
  7 41  1  0
  8 42  1  6
 10 43  1  0
 10 44  1  0
 11 45  1  0
 12 46  1  0
 13 47  1  0
 14 48  1  0
 14 49  1  0
 14 50  1  0
 15 51  1  0
 15 52  1  0
 15 53  1  0
 16 54  1  0
 16 55  1  0
 16 56  1  0
 18 57  1  0
 19 58  1  0
 23 59  1  0
 24 60  1  0
 25 61  1  0
 28 62  1  0
 29 63  1  6
 31 64  1  0
 31 65  1  0
 32 66  1  0
 33 67  1  0
 34 68  1  0
 35 69  1  0
 35 70  1  0
 35 71  1  0
 36 72  1  0
 36 73  1  0
 36 74  1  0
 37 75  1  0
 37 76  1  0
 37 77  1  0
M  END
> <Uni-Dock RESULT> 
ENERGY=   -6.665  LOWER_BOUND=    0.000  UPPER_BOUND=    0.000
INTER + INTRA:          -6.665
INTER:                  -6.665
INTRA:                   0.000
UNBOUND:                 0.000

$$$$

     RDKit          3D

 77 76  0  0  0  0  0  0  0  0999 V2000
   47.3698    7.7293   12.4230 C   0  0  0  0  0  0  0  0  0  0  0  0
   46.5565    8.8729   12.3690 C   0  0  0  0  0  0  0  0  0  0  0  0
   46.7725    6.4696   12.2527 C   0  0  0  0  0  0  0  0  0  0  0  0
   50.6412    7.5378   14.4014 N   0  0  0  0  0  0  0  0  0  0  0  0
   45.4027    6.3632   12.0312 C   0  0  0  0  0  0  0  0  0  0  0  0
   45.1865    8.7443   12.1415 C   0  0  0  0  0  0  0  0  0  0  0  0
   44.5999    7.4960   11.9726 C   0  0  0  0  0  0  0  0  0  0  0  0
   48.8511    7.8605   12.6997 C   0  0  1  0  0  0  0  0  0  0  0  0
   51.0809    7.6500   15.8085 C   0  0  0  0  0  0  0  0  0  0  0  0
   49.1795    7.6031   14.1914 C   0  0  0  0  0  0  0  0  0  0  0  0
   44.8783    5.1134   11.8784 O   0  0  0  0  0  0  0  0  0  0  0  0
   44.3730    9.8385   12.0792 O   0  0  0  0  0  0  0  0  0  0  0  0
   49.5806    6.9465   11.8752 O   0  0  0  0  0  0  0  0  0  0  0  0
   52.5933    7.3531   15.8141 C   0  0  0  0  0  0  0  0  0  0  0  0
   50.3824    6.6375   16.7307 C   0  0  0  0  0  0  0  0  0  0  0  0
   50.8707    9.0798   16.3348 C   0  0  0  0  0  0  0  0  0  0  0  0
   48.4903    7.3825   14.3660 S   0  0  0  0  0  0  0  0  0  0  0  0
   47.8020    8.2688   13.2193 O   0  0  0  0  0  0  0  0  0  0  0  0
   50.0435    7.6363   14.0583 O   0  0  0  0  0  0  0  0  0  0  0  0
   48.1900    6.0070   14.0605 O   0  0  0  0  0  0  0  0  0  0  0  0
   48.2255    7.9986   15.6410 O   0  0  0  0  0  0  0  0  0  0  0  0
   48.1113    7.8068   12.2295 C   0  0  0  0  0  0  0  0  0  0  0  0
   47.2561    6.7279   11.9537 C   0  0  0  0  0  0  0  0  0  0  0  0
   47.5520    9.0778   12.4418 C   0  0  0  0  0  0  0  0  0  0  0  0
   49.6588    6.9431   14.7396 N   0  0  0  0  0  0  0  0  0  0  0  0
   46.1733    9.2572   12.3764 C   0  0  0  0  0  0  0  0  0  0  0  0
   45.8783    6.9316   11.8918 C   0  0  0  0  0  0  0  0  0  0  0  0
   45.3276    8.1900   12.0987 C   0  0  0  0  0  0  0  0  0  0  0  0
   49.6114    7.5931   12.3027 C   0  0  2  0  0  0  0  0  0  0  0  0
   50.1534    7.1616   16.1132 C   0  0  0  0  0  0  0  0  0  0  0  0
   50.2128    7.8396   13.7119 C   0  0  0  0  0  0  0  0  0  0  0  0
   45.6874   10.5134   12.5889 O   0  0  0  0  0  0  0  0  0  0  0  0
   45.0216    5.9034   11.6250 O   0  0  0  0  0  0  0  0  0  0  0  0
   50.2590    8.4559   11.3619 O   0  0  0  0  0  0  0  0  0  0  0  0
   51.6830    7.0472   16.2079 C   0  0  0  0  0  0  0  0  0  0  0  0
   49.5284    6.0453   16.9721 C   0  0  0  0  0  0  0  0  0  0  0  0
   49.6927    8.5177   16.6742 C   0  0  0  0  0  0  0  0  0  0  0  0
   47.0007    9.8546   12.5043 H   0  0  0  0  0  0  0  0  0  0  0  0
   47.3791    5.5662   12.2869 H   0  0  0  0  0  0  0  0  0  0  0  0
   50.9483    6.6278   14.0464 H   0  0  0  0  0  0  0  0  0  0  0  0
   43.5312    7.4272   11.8008 H   0  0  0  0  0  0  0  0  0  0  0  0
   49.1857    8.8670   12.4173 H   0  0  0  0  0  0  0  0  0  0  0  0
   48.7144    8.3959   14.7865 H   0  0  0  0  0  0  0  0  0  0  0  0
   48.7405    6.6480   14.5060 H   0  0  0  0  0  0  0  0  0  0  0  0
   43.9285    5.1995   11.6946 H   0  0  0  0  0  0  0  0  0  0  0  0
   44.9185   10.6376   12.1654 H   0  0  0  0  0  0  0  0  0  0  0  0
   50.5151    7.1611   12.0460 H   0  0  0  0  0  0  0  0  0  0  0  0
   53.0097    7.4442   16.8241 H   0  0  0  0  0  0  0  0  0  0  0  0
   52.8048    6.3361   15.4638 H   0  0  0  0  0  0  0  0  0  0  0  0
   53.1408    8.0499   15.1691 H   0  0  0  0  0  0  0  0  0  0  0  0
   49.3116    6.8464   16.8323 H   0  0  0  0  0  0  0  0  0  0  0  0
   50.8115    6.6662   17.7387 H   0  0  0  0  0  0  0  0  0  0  0  0
   50.4926    5.6140   16.3541 H   0  0  0  0  0  0  0  0  0  0  0  0
   49.8102    9.3316   16.4394 H   0  0  0  0  0  0  0  0  0  0  0  0
   51.3288    9.2023   17.3233 H   0  0  0  0  0  0  0  0  0  0  0  0
   51.3273    9.8213   15.6684 H   0  0  0  0  0  0  0  0  0  0  0  0
   47.8710    7.7666   12.3823 H   0  0  0  0  0  0  0  0  0  0  0  0
   50.3197    8.4094   14.5934 H   0  0  0  0  0  0  0  0  0  0  0  0
   47.6727    5.7362   11.7985 H   0  0  0  0  0  0  0  0  0  0  0  0
   48.1888    9.9335   12.6594 H   0  0  0  0  0  0  0  0  0  0  0  0
   48.6406    7.0401   14.7390 H   0  0  0  0  0  0  0  0  0  0  0  0
   44.2515    8.3166   12.0428 H   0  0  0  0  0  0  0  0  0  0  0  0
   49.8521    6.5693   11.9922 H   0  0  0  0  0  0  0  0  0  0  0  0
   51.2961    7.6967   13.6293 H   0  0  0  0  0  0  0  0  0  0  0  0
   50.0590    8.8905   13.9823 H   0  0  0  0  0  0  0  0  0  0  0  0
   44.7182   10.4819   12.5314 H   0  0  0  0  0  0  0  0  0  0  0  0
   45.5396    5.0924   11.4879 H   0  0  0  0  0  0  0  0  0  0  0  0
   49.6183    8.6538   10.6567 H   0  0  0  0  0  0  0  0  0  0  0  0
   52.0405    6.1115   15.7621 H   0  0  0  0  0  0  0  0  0  0  0  0
   52.1879    7.8789   15.7048 H   0  0  0  0  0  0  0  0  0  0  0  0
   52.0135    7.0590   17.2541 H   0  0  0  0  0  0  0  0  0  0  0  0
   49.8489    6.1251   18.0173 H   0  0  0  0  0  0  0  0  0  0  0  0
   49.8217    5.0504   16.6140 H   0  0  0  0  0  0  0  0  0  0  0  0
   48.4329    6.0935   16.9607 H   0  0  0  0  0  0  0  0  0  0  0  0
   50.1700    9.3584   16.1608 H   0  0  0  0  0  0  0  0  0  0  0  0
   49.9443    8.6056   17.7376 H   0  0  0  0  0  0  0  0  0  0  0  0
   48.6074    8.6409   16.5838 H   0  0  0  0  0  0  0  0  0  0  0  0
  2  1  2  0
  3  1  1  0
  4 10  1  0
  5  3  2  0
  6  2  1  0
  7  5  1  0
  8  1  1  0
  9  4  1  0
 10  8  1  0
 11  5  1  0
 12  6  1  0
 13  8  1  0
 14  9  1  0
 15  9  1  0
 16  9  1  0
  6  7  2  0
 18 17  1  0
 19 17  1  0
 20 17  2  0
 21 17  2  0
 23 22  2  0
 24 22  1  0
 25 31  1  0
 26 24  2  0
 27 23  1  0
 28 26  1  0
 29 22  1  0
 30 25  1  0
 31 29  1  0
 32 26  1  0
 33 27  1  0
 34 29  1  0
 35 30  1  0
 36 30  1  0
 37 30  1  0
 27 28  2  0
  2 38  1  0
  3 39  1  0
  4 40  1  0
  7 41  1  0
  8 42  1  6
 10 43  1  0
 10 44  1  0
 11 45  1  0
 12 46  1  0
 13 47  1  0
 14 48  1  0
 14 49  1  0
 14 50  1  0
 15 51  1  0
 15 52  1  0
 15 53  1  0
 16 54  1  0
 16 55  1  0
 16 56  1  0
 18 57  1  0
 19 58  1  0
 23 59  1  0
 24 60  1  0
 25 61  1  0
 28 62  1  0
 29 63  1  6
 31 64  1  0
 31 65  1  0
 32 66  1  0
 33 67  1  0
 34 68  1  0
 35 69  1  0
 35 70  1  0
 35 71  1  0
 36 72  1  0
 36 73  1  0
 36 74  1  0
 37 75  1  0
 37 76  1  0
 37 77  1  0
M  END
> <Uni-Dock RESULT> 
ENERGY=   -5.776  LOWER_BOUND=    2.485  UPPER_BOUND=    4.744
INTER + INTRA:          -5.776
INTER:                  -5.776
INTRA:                   0.000
UNBOUND:                 0.000

$$$$

     RDKit          3D

 77 76  0  0  0  0  0  0  0  0999 V2000
   50.7966    4.1727   18.2043 C   0  0  0  0  0  0  0  0  0  0  0  0
   49.8712    3.4195   17.4636 C   0  0  0  0  0  0  0  0  0  0  0  0
   52.0306    3.5883   18.5336 C   0  0  0  0  0  0  0  0  0  0  0  0
   49.8099    6.9640   20.6308 N   0  0  0  0  0  0  0  0  0  0  0  0
   52.3263    2.2903   18.1280 C   0  0  0  0  0  0  0  0  0  0  0  0
   50.1894    2.1219   17.0632 C   0  0  0  0  0  0  0  0  0  0  0  0
   51.4118    1.5480   17.3905 C   0  0  0  0  0  0  0  0  0  0  0  0
   50.4453    5.5692   18.6673 C   0  0  1  0  0  0  0  0  0  0  0  0
   49.0252    7.1097   21.8753 C   0  0  0  0  0  0  0  0  0  0  0  0
   49.9555    5.5785   20.1368 C   0  0  0  0  0  0  0  0  0  0  0  0
   53.5381    1.7739   18.4818 O   0  0  0  0  0  0  0  0  0  0  0  0
   49.3114    1.3688   16.3387 O   0  0  0  0  0  0  0  0  0  0  0  0
   51.5824    6.4263   18.5271 O   0  0  0  0  0  0  0  0  0  0  0  0
   49.1755    8.5803   22.3118 C   0  0  0  0  0  0  0  0  0  0  0  0
   49.5406    6.2097   23.0102 C   0  0  0  0  0  0  0  0  0  0  0  0
   47.5341    6.8359   21.6168 C   0  0  0  0  0  0  0  0  0  0  0  0
   50.1188    4.8623   20.2576 S   0  0  0  0  0  0  0  0  0  0  0  0
   49.9192    4.4477   18.7205 O   0  0  0  0  0  0  0  0  0  0  0  0
   49.9256    6.4520   20.1735 O   0  0  0  0  0  0  0  0  0  0  0  0
   51.4963    4.5930   20.5822 O   0  0  0  0  0  0  0  0  0  0  0  0
   49.0016    4.3596   21.0155 O   0  0  0  0  0  0  0  0  0  0  0  0
   50.7646    4.9399   18.1445 C   0  0  0  0  0  0  0  0  0  0  0  0
   51.9066    4.1297   18.2482 C   0  0  0  0  0  0  0  0  0  0  0  0
   49.5847    4.3843   17.6225 C   0  0  0  0  0  0  0  0  0  0  0  0
   50.2485    5.9172   21.0116 N   0  0  0  0  0  0  0  0  0  0  0  0
   49.5563    3.0536   17.2156 C   0  0  0  0  0  0  0  0  0  0  0  0
   51.8551    2.7999   17.8330 C   0  0  0  0  0  0  0  0  0  0  0  0
   50.6882    2.2534   17.3140 C   0  0  0  0  0  0  0  0  0  0  0  0
   50.8109    6.3869   18.5978 C   0  0  2  0  0  0  0  0  0  0  0  0
   49.3816    6.1264   22.1878 C   0  0  0  0  0  0  0  0  0  0  0  0
   49.8951    6.6941   19.8123 C   0  0  0  0  0  0  0  0  0  0  0  0
   48.3841    2.5694   16.7149 O   0  0  0  0  0  0  0  0  0  0  0  0
   52.9484    1.9877   17.9203 O   0  0  0  0  0  0  0  0  0  0  0  0
   50.4400    7.2368   17.5073 O   0  0  0  0  0  0  0  0  0  0  0  0
   49.3281    7.6005   22.6188 C   0  0  0  0  0  0  0  0  0  0  0  0
   50.0127    5.3084   23.3312 C   0  0  0  0  0  0  0  0  0  0  0  0
   47.9574    5.5983   21.9455 C   0  0  0  0  0  0  0  0  0  0  0  0
   48.9099    3.8536   17.2051 H   0  0  0  0  0  0  0  0  0  0  0  0
   52.7681    4.1499   19.1045 H   0  0  0  0  0  0  0  0  0  0  0  0
   50.7559    7.3119   20.8116 H   0  0  0  0  0  0  0  0  0  0  0  0
   51.6295    0.5356   17.0683 H   0  0  0  0  0  0  0  0  0  0  0  0
   49.6642    5.9821   18.0161 H   0  0  0  0  0  0  0  0  0  0  0  0
   49.0129    5.0236   20.1873 H   0  0  0  0  0  0  0  0  0  0  0  0
   50.6838    5.0583   20.7714 H   0  0  0  0  0  0  0  0  0  0  0  0
   53.6161    0.8845   18.0996 H   0  0  0  0  0  0  0  0  0  0  0  0
   48.5268    1.9071   16.1432 H   0  0  0  0  0  0  0  0  0  0  0  0
   51.2462    7.3117   18.7541 H   0  0  0  0  0  0  0  0  0  0  0  0
   48.5956    8.7837   23.2197 H   0  0  0  0  0  0  0  0  0  0  0  0
   50.2205    8.8307   22.5283 H   0  0  0  0  0  0  0  0  0  0  0  0
   48.8208    9.2670   21.5348 H   0  0  0  0  0  0  0  0  0  0  0  0
   49.3863    5.1470   22.7928 H   0  0  0  0  0  0  0  0  0  0  0  0
   49.0158    6.4243   23.9480 H   0  0  0  0  0  0  0  0  0  0  0  0
   50.6109    6.3663   23.1876 H   0  0  0  0  0  0  0  0  0  0  0  0
   47.3397    5.7838   21.3837 H   0  0  0  0  0  0  0  0  0  0  0  0
   46.9334    7.0855   22.4994 H   0  0  0  0  0  0  0  0  0  0  0  0
   47.1564    7.4394   20.7828 H   0  0  0  0  0  0  0  0  0  0  0  0
   50.7465    4.6725   18.2486 H   0  0  0  0  0  0  0  0  0  0  0  0
   48.9748    6.6343   20.3248 H   0  0  0  0  0  0  0  0  0  0  0  0
   52.8239    4.5418   18.6606 H   0  0  0  0  0  0  0  0  0  0  0  0
   48.6824    4.9866   17.5313 H   0  0  0  0  0  0  0  0  0  0  0  0
   50.2367    4.9236   20.7687 H   0  0  0  0  0  0  0  0  0  0  0  0
   50.6801    1.2154   16.9984 H   0  0  0  0  0  0  0  0  0  0  0  0
   51.8413    6.6576   18.8574 H   0  0  0  0  0  0  0  0  0  0  0  0
   49.9813    7.7670   20.0175 H   0  0  0  0  0  0  0  0  0  0  0  0
   48.8530    6.5173   19.5221 H   0  0  0  0  0  0  0  0  0  0  0  0
   48.5086    1.6320   16.4929 H   0  0  0  0  0  0  0  0  0  0  0  0
   53.6904    2.5002   18.2831 H   0  0  0  0  0  0  0  0  0  0  0  0
   50.6394    6.7594   16.6831 H   0  0  0  0  0  0  0  0  0  0  0  0
   50.3352    8.0156   22.7432 H   0  0  0  0  0  0  0  0  0  0  0  0
   48.7915    8.2204   21.8924 H   0  0  0  0  0  0  0  0  0  0  0  0
   48.8076    7.7104   23.5784 H   0  0  0  0  0  0  0  0  0  0  0  0
   49.4334    5.4105   24.2561 H   0  0  0  0  0  0  0  0  0  0  0  0
   51.0359    5.6411   23.5465 H   0  0  0  0  0  0  0  0  0  0  0  0
   50.0545    4.2402   23.0871 H   0  0  0  0  0  0  0  0  0  0  0  0
   47.4196    6.1935   21.2007 H   0  0  0  0  0  0  0  0  0  0  0  0
   47.3674    5.6296   22.8690 H   0  0  0  0  0  0  0  0  0  0  0  0
   47.9690    4.5583   21.6000 H   0  0  0  0  0  0  0  0  0  0  0  0
  2  1  2  0
  3  1  1  0
  4 10  1  0
  5  3  2  0
  6  2  1  0
  7  5  1  0
  8  1  1  0
  9  4  1  0
 10  8  1  0
 11  5  1  0
 12  6  1  0
 13  8  1  0
 14  9  1  0
 15  9  1  0
 16  9  1  0
  6  7  2  0
 18 17  1  0
 19 17  1  0
 20 17  2  0
 21 17  2  0
 23 22  2  0
 24 22  1  0
 25 31  1  0
 26 24  2  0
 27 23  1  0
 28 26  1  0
 29 22  1  0
 30 25  1  0
 31 29  1  0
 32 26  1  0
 33 27  1  0
 34 29  1  0
 35 30  1  0
 36 30  1  0
 37 30  1  0
 27 28  2  0
  2 38  1  0
  3 39  1  0
  4 40  1  0
  7 41  1  0
  8 42  1  6
 10 43  1  0
 10 44  1  0
 11 45  1  0
 12 46  1  0
 13 47  1  0
 14 48  1  0
 14 49  1  0
 14 50  1  0
 15 51  1  0
 15 52  1  0
 15 53  1  0
 16 54  1  0
 16 55  1  0
 16 56  1  0
 18 57  1  0
 19 58  1  0
 23 59  1  0
 24 60  1  0
 25 61  1  0
 28 62  1  0
 29 63  1  6
 31 64  1  0
 31 65  1  0
 32 66  1  0
 33 67  1  0
 34 68  1  0
 35 69  1  0
 35 70  1  0
 35 71  1  0
 36 72  1  0
 36 73  1  0
 36 74  1  0
 37 75  1  0
 37 76  1  0
 37 77  1  0
M  END
> <Uni-Dock RESULT> 
ENERGY=   -5.487  LOWER_BOUND=    7.731  UPPER_BOUND=    9.575
INTER + INTRA:          -5.487
INTER:                  -5.487
INTRA:                   0.000
UNBOUND:                 0.000

$$$$

     RDKit          3D

 77 76  0  0  0  0  0  0  0  0999 V2000
   52.0856    3.7037   18.3005 C   0  0  0  0  0  0  0  0  0  0  0  0
   50.8532    3.4306   17.6850 C   0  0  0  0  0  0  0  0  0  0  0  0
   53.0019    2.6526   18.4687 C   0  0  0  0  0  0  0  0  0  0  0  0
   52.6191    6.5238   20.8333 N   0  0  0  0  0  0  0  0  0  0  0  0
   52.6910    1.3694   18.0286 C   0  0  0  0  0  0  0  0  0  0  0  0
   50.5634    2.1384   17.2473 C   0  0  0  0  0  0  0  0  0  0  0  0
   51.4733    1.1017   17.4148 C   0  0  0  0  0  0  0  0  0  0  0  0
   52.3932    5.0962   18.8046 C   0  0  1  0  0  0  0  0  0  0  0  0
   52.1146    6.9099   22.1683 C   0  0  0  0  0  0  0  0  0  0  0  0
   52.1262    5.2264   20.3248 C   0  0  0  0  0  0  0  0  0  0  0  0
   53.6179    0.3881   18.2238 O   0  0  0  0  0  0  0  0  0  0  0  0
   49.3759    1.8454   16.6417 O   0  0  0  0  0  0  0  0  0  0  0  0
   53.7564    5.4245   18.5193 O   0  0  0  0  0  0  0  0  0  0  0  0
   52.9033    8.1680   22.5816 C   0  0  0  0  0  0  0  0  0  0  0  0
   52.3460    5.8201   23.2276 C   0  0  0  0  0  0  0  0  0  0  0  0
   50.6229    7.2785   22.1036 C   0  0  0  0  0  0  0  0  0  0  0  0
   51.9952    4.5003   20.4238 S   0  0  0  0  0  0  0  0  0  0  0  0
   51.4647    4.2835   18.9251 O   0  0  0  0  0  0  0  0  0  0  0  0
   52.4607    6.0337   20.3649 O   0  0  0  0  0  0  0  0  0  0  0  0
   53.1697    3.6787   20.5687 O   0  0  0  0  0  0  0  0  0  0  0  0
   50.8675    4.4550   21.3191 O   0  0  0  0  0  0  0  0  0  0  0  0
   52.3635    4.4199   18.2452 C   0  0  0  0  0  0  0  0  0  0  0  0
   53.0777    3.2119   18.2014 C   0  0  0  0  0  0  0  0  0  0  0  0
   51.0072    4.4189   17.8793 C   0  0  0  0  0  0  0  0  0  0  0  0
   52.6325    5.3707   21.1547 N   0  0  0  0  0  0  0  0  0  0  0  0
   50.3895    3.2375   17.4796 C   0  0  0  0  0  0  0  0  0  0  0  0
   52.4385    2.0410   17.7965 C   0  0  0  0  0  0  0  0  0  0  0  0
   51.0980    2.0430   17.4318 C   0  0  0  0  0  0  0  0  0  0  0  0
   53.0503    5.6978   18.6886 C   0  0  2  0  0  0  0  0  0  0  0  0
   52.0716    5.8516   22.4326 C   0  0  0  0  0  0  0  0  0  0  0  0
   52.4897    6.2859   20.0106 C   0  0  0  0  0  0  0  0  0  0  0  0
   49.0719    3.2973   17.1338 O   0  0  0  0  0  0  0  0  0  0  0  0
   53.1059    0.8518   17.7427 O   0  0  0  0  0  0  0  0  0  0  0  0
   52.9344    6.6810   17.6547 O   0  0  0  0  0  0  0  0  0  0  0  0
   52.6767    7.1959   22.8666 C   0  0  0  0  0  0  0  0  0  0  0  0
   52.4422    4.7892   23.4855 C   0  0  0  0  0  0  0  0  0  0  0  0
   50.5383    5.9602   22.3754 C   0  0  0  0  0  0  0  0  0  0  0  0
   50.1305    4.2302   17.5521 H   0  0  0  0  0  0  0  0  0  0  0  0
   53.9660    2.8359   18.9399 H   0  0  0  0  0  0  0  0  0  0  0  0
   53.6386    6.4481   20.8910 H   0  0  0  0  0  0  0  0  0  0  0  0
   51.2184    0.1064   17.0674 H   0  0  0  0  0  0  0  0  0  0  0  0
   51.7788    5.8241   18.2592 H   0  0  0  0  0  0  0  0  0  0  0  0
   51.0521    5.0998   20.4962 H   0  0  0  0  0  0  0  0  0  0  0  0
   52.6470    4.4229   20.8607 H   0  0  0  0  0  0  0  0  0  0  0  0
   53.2799   -0.4351   17.8348 H   0  0  0  0  0  0  0  0  0  0  0  0
   48.8630    2.6651   16.5486 H   0  0  0  0  0  0  0  0  0  0  0  0
   53.8409    6.3569   18.7875 H   0  0  0  0  0  0  0  0  0  0  0  0
   52.5683    8.5413   23.5564 H   0  0  0  0  0  0  0  0  0  0  0  0
   53.9768    7.9613   22.6621 H   0  0  0  0  0  0  0  0  0  0  0  0
   52.7721    8.9792   21.8565 H   0  0  0  0  0  0  0  0  0  0  0  0
   51.7463    4.9243   23.0320 H   0  0  0  0  0  0  0  0  0  0  0  0
   52.0689    6.1796   24.2251 H   0  0  0  0  0  0  0  0  0  0  0  0
   53.3995    5.5195   23.2660 H   0  0  0  0  0  0  0  0  0  0  0  0
   49.9893    6.4095   21.8976 H   0  0  0  0  0  0  0  0  0  0  0  0
   50.2849    7.7036   23.0560 H   0  0  0  0  0  0  0  0  0  0  0  0
   50.4301    8.0261   21.3249 H   0  0  0  0  0  0  0  0  0  0  0  0
   52.2499    4.1778   18.3508 H   0  0  0  0  0  0  0  0  0  0  0  0
   51.6926    6.5778   20.6372 H   0  0  0  0  0  0  0  0  0  0  0  0
   54.1247    3.1942   18.4924 H   0  0  0  0  0  0  0  0  0  0  0  0
   50.4263    5.3393   17.9046 H   0  0  0  0  0  0  0  0  0  0  0  0
   52.1869    4.4816   20.9155 H   0  0  0  0  0  0  0  0  0  0  0  0
   50.6292    1.1156   17.1200 H   0  0  0  0  0  0  0  0  0  0  0  0
   54.1240    5.5132   18.8136 H   0  0  0  0  0  0  0  0  0  0  0  0
   53.0307    7.2193   20.2030 H   0  0  0  0  0  0  0  0  0  0  0  0
   51.4404    6.5625   19.8568 H   0  0  0  0  0  0  0  0  0  0  0  0
   48.7750    2.4031   16.8977 H   0  0  0  0  0  0  0  0  0  0  0  0
   54.0295    0.9995   18.0071 H   0  0  0  0  0  0  0  0  0  0  0  0
   52.8229    6.2077   16.8117 H   0  0  0  0  0  0  0  0  0  0  0  0
   53.7725    7.1597   22.8605 H   0  0  0  0  0  0  0  0  0  0  0  0
   52.3594    8.0174   22.2152 H   0  0  0  0  0  0  0  0  0  0  0  0
   52.3632    7.4570   23.8851 H   0  0  0  0  0  0  0  0  0  0  0  0
   52.0683    5.0689   24.4772 H   0  0  0  0  0  0  0  0  0  0  0  0
   53.5296    4.6665   23.5674 H   0  0  0  0  0  0  0  0  0  0  0  0
   52.0145    3.8103   23.2382 H   0  0  0  0  0  0  0  0  0  0  0  0
   50.2077    6.7605   21.7057 H   0  0  0  0  0  0  0  0  0  0  0  0
   50.1255    6.1796   23.3670 H   0  0  0  0  0  0  0  0  0  0  0  0
   50.0829    5.0245   22.0314 H   0  0  0  0  0  0  0  0  0  0  0  0
  2  1  2  0
  3  1  1  0
  4 10  1  0
  5  3  2  0
  6  2  1  0
  7  5  1  0
  8  1  1  0
  9  4  1  0
 10  8  1  0
 11  5  1  0
 12  6  1  0
 13  8  1  0
 14  9  1  0
 15  9  1  0
 16  9  1  0
  6  7  2  0
 18 17  1  0
 19 17  1  0
 20 17  2  0
 21 17  2  0
 23 22  2  0
 24 22  1  0
 25 31  1  0
 26 24  2  0
 27 23  1  0
 28 26  1  0
 29 22  1  0
 30 25  1  0
 31 29  1  0
 32 26  1  0
 33 27  1  0
 34 29  1  0
 35 30  1  0
 36 30  1  0
 37 30  1  0
 27 28  2  0
  2 38  1  0
  3 39  1  0
  4 40  1  0
  7 41  1  0
  8 42  1  6
 10 43  1  0
 10 44  1  0
 11 45  1  0
 12 46  1  0
 13 47  1  0
 14 48  1  0
 14 49  1  0
 14 50  1  0
 15 51  1  0
 15 52  1  0
 15 53  1  0
 16 54  1  0
 16 55  1  0
 16 56  1  0
 18 57  1  0
 19 58  1  0
 23 59  1  0
 24 60  1  0
 25 61  1  0
 28 62  1  0
 29 63  1  6
 31 64  1  0
 31 65  1  0
 32 66  1  0
 33 67  1  0
 34 68  1  0
 35 69  1  0
 35 70  1  0
 35 71  1  0
 36 72  1  0
 36 73  1  0
 36 74  1  0
 37 75  1  0
 37 76  1  0
 37 77  1  0
M  END
> <Uni-Dock RESULT> 
ENERGY=   -5.476  LOWER_BOUND=    8.421  UPPER_BOUND=   10.529
INTER + INTRA:          -5.476
INTER:                  -5.476
INTRA:                   0.000
UNBOUND:                 0.000

$$$$

     RDKit          3D

 77 76  0  0  0  0  0  0  0  0999 V2000
   48.2932    4.9610   19.0208 C   0  0  0  0  0  0  0  0  0  0  0  0
   49.5230    4.3058   18.8466 C   0  0  0  0  0  0  0  0  0  0  0  0
   47.3007    4.8025   18.0398 C   0  0  0  0  0  0  0  0  0  0  0  0
   47.8753    8.2057   21.0084 N   0  0  0  0  0  0  0  0  0  0  0  0
   47.5355    4.0077   16.9218 C   0  0  0  0  0  0  0  0  0  0  0  0
   49.7360    3.5103   17.7209 C   0  0  0  0  0  0  0  0  0  0  0  0
   48.7509    3.3555   16.7532 C   0  0  0  0  0  0  0  0  0  0  0  0
   48.0672    5.8493   20.2241 C   0  0  1  0  0  0  0  0  0  0  0  0
   48.3615    9.6006   20.9471 C   0  0  0  0  0  0  0  0  0  0  0  0
   48.2928    7.3433   19.8829 C   0  0  0  0  0  0  0  0  0  0  0  0
   46.5363    3.8954   16.0001 O   0  0  0  0  0  0  0  0  0  0  0  0
   50.9194    2.8581   17.5281 O   0  0  0  0  0  0  0  0  0  0  0  0
   46.7405    5.6586   20.7246 O   0  0  0  0  0  0  0  0  0  0  0  0
   47.6496   10.3573   22.0856 C   0  0  0  0  0  0  0  0  0  0  0  0
   48.0199   10.2897   19.6160 C   0  0  0  0  0  0  0  0  0  0  0  0
   49.8766    9.6633   21.2034 C   0  0  0  0  0  0  0  0  0  0  0  0
   48.3694    7.2256   19.1518 S   0  0  0  0  0  0  0  0  0  0  0  0
   48.9323    5.7353   19.3432 O   0  0  0  0  0  0  0  0  0  0  0  0
   48.0143    7.6156   20.6662 O   0  0  0  0  0  0  0  0  0  0  0  0
   47.1363    7.1096   18.4161 O   0  0  0  0  0  0  0  0  0  0  0  0
   49.4612    8.0800   18.7605 O   0  0  0  0  0  0  0  0  0  0  0  0
   48.0680    5.1160   19.7409 C   0  0  0  0  0  0  0  0  0  0  0  0
   47.2729    4.7109   18.6569 C   0  0  0  0  0  0  0  0  0  0  0  0
   49.4322    4.7806   19.7435 C   0  0  0  0  0  0  0  0  0  0  0  0
   47.7708    8.1734   19.8163 N   0  0  0  0  0  0  0  0  0  0  0  0
   49.9786    4.0576   18.6871 C   0  0  0  0  0  0  0  0  0  0  0  0
   47.8417    3.9863   17.6105 C   0  0  0  0  0  0  0  0  0  0  0  0
   49.1903    3.6528   17.6167 C   0  0  0  0  0  0  0  0  0  0  0  0
   47.4579    5.9083   20.8817 C   0  0  2  0  0  0  0  0  0  0  0  0
   48.3218    9.5422   19.8578 C   0  0  0  0  0  0  0  0  0  0  0  0
   48.0146    7.3509   21.0125 C   0  0  0  0  0  0  0  0  0  0  0  0
   51.3078    3.7590   18.7448 O   0  0  0  0  0  0  0  0  0  0  0  0
   47.0950    3.5776   16.5438 O   0  0  0  0  0  0  0  0  0  0  0  0
   47.6761    5.2109   22.1125 O   0  0  0  0  0  0  0  0  0  0  0  0
   47.7982   10.3460   21.0583 C   0  0  0  0  0  0  0  0  0  0  0  0
   47.8435   10.2317   18.5653 C   0  0  0  0  0  0  0  0  0  0  0  0
   49.8600    9.5359   19.8608 C   0  0  0  0  0  0  0  0  0  0  0  0
   50.3037    4.4219   19.5924 H   0  0  0  0  0  0  0  0  0  0  0  0
   46.3368    5.2964   18.1503 H   0  0  0  0  0  0  0  0  0  0  0  0
   46.8516    8.2275   20.9973 H   0  0  0  0  0  0  0  0  0  0  0  0
   48.9469    2.7333   15.8867 H   0  0  0  0  0  0  0  0  0  0  0  0
   48.7485    5.5489   21.0306 H   0  0  0  0  0  0  0  0  0  0  0  0
   49.3492    7.4813   19.6300 H   0  0  0  0  0  0  0  0  0  0  0  0
   47.6998    7.6133   19.0000 H   0  0  0  0  0  0  0  0  0  0  0  0
   46.8286    3.2851   15.3035 H   0  0  0  0  0  0  0  0  0  0  0  0
   51.4910    3.0159   18.2974 H   0  0  0  0  0  0  0  0  0  0  0  0
   46.7125    6.1883   21.5414 H   0  0  0  0  0  0  0  0  0  0  0  0
   47.9777   11.4024   22.1305 H   0  0  0  0  0  0  0  0  0  0  0  0
   46.5621   10.3618   21.9470 H   0  0  0  0  0  0  0  0  0  0  0  0
   47.8608    9.9045   23.0610 H   0  0  0  0  0  0  0  0  0  0  0  0
   48.5618    9.8456   18.7736 H   0  0  0  0  0  0  0  0  0  0  0  0
   48.2886   11.3518   19.6456 H   0  0  0  0  0  0  0  0  0  0  0  0
   46.9473   10.2266   19.3988 H   0  0  0  0  0  0  0  0  0  0  0  0
   50.4543    9.2175   20.3870 H   0  0  0  0  0  0  0  0  0  0  0  0
   50.2121   10.7022   21.3040 H   0  0  0  0  0  0  0  0  0  0  0  0
   50.1466    9.1413   22.1292 H   0  0  0  0  0  0  0  0  0  0  0  0
   48.1609    5.1469   19.4706 H   0  0  0  0  0  0  0  0  0  0  0  0
   48.8092    8.0442   21.0464 H   0  0  0  0  0  0  0  0  0  0  0  0
   46.2183    4.9725   18.6349 H   0  0  0  0  0  0  0  0  0  0  0  0
   50.0748    5.0820   20.5689 H   0  0  0  0  0  0  0  0  0  0  0  0
   48.1608    7.6879   19.0048 H   0  0  0  0  0  0  0  0  0  0  0  0
   49.6032    3.0869   16.7882 H   0  0  0  0  0  0  0  0  0  0  0  0
   46.3704    5.9619   20.7512 H   0  0  0  0  0  0  0  0  0  0  0  0
   47.5342    7.8036   21.8872 H   0  0  0  0  0  0  0  0  0  0  0  0
   49.0852    7.2967   21.2410 H   0  0  0  0  0  0  0  0  0  0  0  0
   51.5490    3.2734   17.9388 H   0  0  0  0  0  0  0  0  0  0  0  0
   46.1758    3.8638   16.6777 H   0  0  0  0  0  0  0  0  0  0  0  0
   47.7818    4.2673   21.8996 H   0  0  0  0  0  0  0  0  0  0  0  0
   46.7034   10.3177   21.1093 H   0  0  0  0  0  0  0  0  0  0  0  0
   48.1933    9.9686   22.0077 H   0  0  0  0  0  0  0  0  0  0  0  0
   48.0956   11.3996   20.9852 H   0  0  0  0  0  0  0  0  0  0  0  0
   48.2034   11.2658   18.5131 H   0  0  0  0  0  0  0  0  0  0  0  0
   46.7482   10.2622   18.5074 H   0  0  0  0  0  0  0  0  0  0  0  0
   48.2097    9.7119   17.6720 H   0  0  0  0  0  0  0  0  0  0  0  0
   50.2675    9.1351   20.7944 H   0  0  0  0  0  0  0  0  0  0  0  0
   50.2543   10.5526   19.7482 H   0  0  0  0  0  0  0  0  0  0  0  0
   50.2599    8.9368   19.0349 H   0  0  0  0  0  0  0  0  0  0  0  0
  2  1  2  0
  3  1  1  0
  4 10  1  0
  5  3  2  0
  6  2  1  0
  7  5  1  0
  8  1  1  0
  9  4  1  0
 10  8  1  0
 11  5  1  0
 12  6  1  0
 13  8  1  0
 14  9  1  0
 15  9  1  0
 16  9  1  0
  6  7  2  0
 18 17  1  0
 19 17  1  0
 20 17  2  0
 21 17  2  0
 23 22  2  0
 24 22  1  0
 25 31  1  0
 26 24  2  0
 27 23  1  0
 28 26  1  0
 29 22  1  0
 30 25  1  0
 31 29  1  0
 32 26  1  0
 33 27  1  0
 34 29  1  0
 35 30  1  0
 36 30  1  0
 37 30  1  0
 27 28  2  0
  2 38  1  0
  3 39  1  0
  4 40  1  0
  7 41  1  0
  8 42  1  6
 10 43  1  0
 10 44  1  0
 11 45  1  0
 12 46  1  0
 13 47  1  0
 14 48  1  0
 14 49  1  0
 14 50  1  0
 15 51  1  0
 15 52  1  0
 15 53  1  0
 16 54  1  0
 16 55  1  0
 16 56  1  0
 18 57  1  0
 19 58  1  0
 23 59  1  0
 24 60  1  0
 25 61  1  0
 28 62  1  0
 29 63  1  6
 31 64  1  0
 31 65  1  0
 32 66  1  0
 33 67  1  0
 34 68  1  0
 35 69  1  0
 35 70  1  0
 35 71  1  0
 36 72  1  0
 36 73  1  0
 36 74  1  0
 37 75  1  0
 37 76  1  0
 37 77  1  0
M  END
> <Uni-Dock RESULT> 
ENERGY=   -5.334  LOWER_BOUND=    6.397  UPPER_BOUND=    8.487
INTER + INTRA:          -5.334
INTER:                  -5.334
INTRA:                   0.000
UNBOUND:                 0.000

$$$$

     RDKit          3D

 77 76  0  0  0  0  0  0  0  0999 V2000
   50.0926    6.9995   16.5539 C   0  0  0  0  0  0  0  0  0  0  0  0
   51.4762    7.1119   16.3417 C   0  0  0  0  0  0  0  0  0  0  0  0
   49.6065    5.8794   17.2480 C   0  0  0  0  0  0  0  0  0  0  0  0
   47.4554    8.5465   14.2507 N   0  0  0  0  0  0  0  0  0  0  0  0
   50.4834    4.9059   17.7171 C   0  0  0  0  0  0  0  0  0  0  0  0
   52.3381    6.1271   16.8241 C   0  0  0  0  0  0  0  0  0  0  0  0
   51.8529    5.0210   17.5112 C   0  0  0  0  0  0  0  0  0  0  0  0
   49.1504    8.0487   16.0067 C   0  0  1  0  0  0  0  0  0  0  0  0
   47.0276    8.4326   12.8401 C   0  0  0  0  0  0  0  0  0  0  0  0
   48.5166    7.6047   14.6649 C   0  0  0  0  0  0  0  0  0  0  0  0
   49.9530    3.8381   18.3795 O   0  0  0  0  0  0  0  0  0  0  0  0
   53.6873    6.2128   16.6367 O   0  0  0  0  0  0  0  0  0  0  0  0
   48.1229    8.3234   16.9638 O   0  0  0  0  0  0  0  0  0  0  0  0
   45.7953    9.3456   12.6866 C   0  0  0  0  0  0  0  0  0  0  0  0
   46.6230    6.9998   12.4569 C   0  0  0  0  0  0  0  0  0  0  0  0
   48.1254    8.9451   11.8927 C   0  0  0  0  0  0  0  0  0  0  0  0
   48.7933    6.9142   14.6949 S   0  0  0  0  0  0  0  0  0  0  0  0
   50.0724    7.3505   15.5598 O   0  0  0  0  0  0  0  0  0  0  0  0
   47.9804    8.2951   14.6325 O   0  0  0  0  0  0  0  0  0  0  0  0
   48.0443    5.9875   15.5046 O   0  0  0  0  0  0  0  0  0  0  0  0
   49.2243    6.6384   13.3483 O   0  0  0  0  0  0  0  0  0  0  0  0
   49.6799    7.6492   16.5823 C   0  0  0  0  0  0  0  0  0  0  0  0
   49.5143    6.4879   17.3538 C   0  0  0  0  0  0  0  0  0  0  0  0
   50.9449    7.9265   16.0378 C   0  0  0  0  0  0  0  0  0  0  0  0
   47.6329    7.3640   14.3085 N   0  0  0  0  0  0  0  0  0  0  0  0
   52.0112    7.0612   16.2650 C   0  0  0  0  0  0  0  0  0  0  0  0
   50.5970    5.6365   17.5692 C   0  0  0  0  0  0  0  0  0  0  0  0
   51.8479    5.9144   17.0326 C   0  0  0  0  0  0  0  0  0  0  0  0
   48.5060    8.5790   16.3395 C   0  0  2  0  0  0  0  0  0  0  0  0
   47.2505    7.3648   12.8828 C   0  0  0  0  0  0  0  0  0  0  0  0
   48.0666    8.6608   14.8535 C   0  0  0  0  0  0  0  0  0  0  0  0
   53.2160    7.3825   15.7133 O   0  0  0  0  0  0  0  0  0  0  0  0
   50.4678    4.5010   18.3151 O   0  0  0  0  0  0  0  0  0  0  0  0
   48.8392    9.8926   16.8003 O   0  0  0  0  0  0  0  0  0  0  0  0
   46.1254    8.3672   12.5808 C   0  0  0  0  0  0  0  0  0  0  0  0
   46.7308    5.9457   12.5818 C   0  0  0  0  0  0  0  0  0  0  0  0
   48.4579    7.6403   11.9705 C   0  0  0  0  0  0  0  0  0  0  0  0
   51.8689    7.9685   15.8019 H   0  0  0  0  0  0  0  0  0  0  0  0
   48.5389    5.7677   17.4293 H   0  0  0  0  0  0  0  0  0  0  0  0
   46.6432    8.3525   14.8434 H   0  0  0  0  0  0  0  0  0  0  0  0
   52.5472    4.2696   17.8713 H   0  0  0  0  0  0  0  0  0  0  0  0
   49.6981    8.9889   15.8620 H   0  0  0  0  0  0  0  0  0  0  0  0
   49.3136    7.5299   13.9176 H   0  0  0  0  0  0  0  0  0  0  0  0
   48.0714    6.6084   14.7793 H   0  0  0  0  0  0  0  0  0  0  0  0
   50.6814    3.2688   18.6771 H   0  0  0  0  0  0  0  0  0  0  0  0
   53.8869    7.0514   16.1889 H   0  0  0  0  0  0  0  0  0  0  0  0
   47.6246    9.0650   16.5763 H   0  0  0  0  0  0  0  0  0  0  0  0
   45.4282    9.3428   11.6536 H   0  0  0  0  0  0  0  0  0  0  0  0
   44.9692    9.0173   13.3280 H   0  0  0  0  0  0  0  0  0  0  0  0
   46.0306   10.3834   12.9488 H   0  0  0  0  0  0  0  0  0  0  0  0
   47.4784    6.3152   12.4686 H   0  0  0  0  0  0  0  0  0  0  0  0
   46.2024    6.9698   11.4453 H   0  0  0  0  0  0  0  0  0  0  0  0
   45.8641    6.6038   13.1417 H   0  0  0  0  0  0  0  0  0  0  0  0
   49.0046    8.2924   11.8849 H   0  0  0  0  0  0  0  0  0  0  0  0
   47.7564    8.9987   10.8617 H   0  0  0  0  0  0  0  0  0  0  0  0
   48.4573    9.9516   12.1741 H   0  0  0  0  0  0  0  0  0  0  0  0
   49.7890    7.3978   16.4952 H   0  0  0  0  0  0  0  0  0  0  0  0
   48.2740    8.7650   13.8242 H   0  0  0  0  0  0  0  0  0  0  0  0
   48.5390    6.2537   17.7722 H   0  0  0  0  0  0  0  0  0  0  0  0
   51.1043    8.8180   15.4338 H   0  0  0  0  0  0  0  0  0  0  0  0
   48.3875    6.6870   14.4446 H   0  0  0  0  0  0  0  0  0  0  0  0
   52.6712    5.2329   17.2192 H   0  0  0  0  0  0  0  0  0  0  0  0
   47.6493    8.2536   16.9417 H   0  0  0  0  0  0  0  0  0  0  0  0
   47.2478    9.3870   14.7992 H   0  0  0  0  0  0  0  0  0  0  0  0
   48.8908    9.0792   14.2643 H   0  0  0  0  0  0  0  0  0  0  0  0
   53.8531    6.6847   15.9385 H   0  0  0  0  0  0  0  0  0  0  0  0
   49.5527    4.4410   18.6372 H   0  0  0  0  0  0  0  0  0  0  0  0
   49.5201    9.7974   17.4889 H   0  0  0  0  0  0  0  0  0  0  0  0
   45.2746    8.2264   13.2578 H   0  0  0  0  0  0  0  0  0  0  0  0
   46.4655    9.4044   12.6721 H   0  0  0  0  0  0  0  0  0  0  0  0
   45.7531    8.2425   11.5563 H   0  0  0  0  0  0  0  0  0  0  0  0
   46.4146    5.8545   11.5362 H   0  0  0  0  0  0  0  0  0  0  0  0
   45.8669    5.6924   13.2092 H   0  0  0  0  0  0  0  0  0  0  0  0
   47.5035    5.1878   12.7577 H   0  0  0  0  0  0  0  0  0  0  0  0
   48.8246    8.6666   12.0729 H   0  0  0  0  0  0  0  0  0  0  0  0
   48.1911    7.4979   10.9168 H   0  0  0  0  0  0  0  0  0  0  0  0
   49.2901    6.9624   12.1916 H   0  0  0  0  0  0  0  0  0  0  0  0
  2  1  2  0
  3  1  1  0
  4 10  1  0
  5  3  2  0
  6  2  1  0
  7  5  1  0
  8  1  1  0
  9  4  1  0
 10  8  1  0
 11  5  1  0
 12  6  1  0
 13  8  1  0
 14  9  1  0
 15  9  1  0
 16  9  1  0
  6  7  2  0
 18 17  1  0
 19 17  1  0
 20 17  2  0
 21 17  2  0
 23 22  2  0
 24 22  1  0
 25 31  1  0
 26 24  2  0
 27 23  1  0
 28 26  1  0
 29 22  1  0
 30 25  1  0
 31 29  1  0
 32 26  1  0
 33 27  1  0
 34 29  1  0
 35 30  1  0
 36 30  1  0
 37 30  1  0
 27 28  2  0
  2 38  1  0
  3 39  1  0
  4 40  1  0
  7 41  1  0
  8 42  1  6
 10 43  1  0
 10 44  1  0
 11 45  1  0
 12 46  1  0
 13 47  1  0
 14 48  1  0
 14 49  1  0
 14 50  1  0
 15 51  1  0
 15 52  1  0
 15 53  1  0
 16 54  1  0
 16 55  1  0
 16 56  1  0
 18 57  1  0
 19 58  1  0
 23 59  1  0
 24 60  1  0
 25 61  1  0
 28 62  1  0
 29 63  1  6
 31 64  1  0
 31 65  1  0
 32 66  1  0
 33 67  1  0
 34 68  1  0
 35 69  1  0
 35 70  1  0
 35 71  1  0
 36 72  1  0
 36 73  1  0
 36 74  1  0
 37 75  1  0
 37 76  1  0
 37 77  1  0
M  END
> <Uni-Dock RESULT> 
ENERGY=   -5.305  LOWER_BOUND=    3.778  UPPER_BOUND=    7.156
INTER + INTRA:          -5.305
INTER:                  -5.305
INTRA:                   0.000
UNBOUND:                 0.000

$$$$

     RDKit          3D

 77 76  0  0  0  0  0  0  0  0999 V2000
   48.3473    5.8804   20.6646 C   0  0  0  0  0  0  0  0  0  0  0  0
   48.0050    7.1981   20.3204 C   0  0  0  0  0  0  0  0  0  0  0  0
   48.1732    5.4650   21.9949 C   0  0  0  0  0  0  0  0  0  0  0  0
   51.0055    3.8255   18.8304 N   0  0  0  0  0  0  0  0  0  0  0  0
   47.6674    6.3446   22.9474 C   0  0  0  0  0  0  0  0  0  0  0  0
   47.4955    8.0622   21.2894 C   0  0  0  0  0  0  0  0  0  0  0  0
   47.3239    7.6467   22.6043 C   0  0  0  0  0  0  0  0  0  0  0  0
   48.9288    4.9481   19.6250 C   0  0  1  0  0  0  0  0  0  0  0  0
   52.4571    3.9002   18.5600 C   0  0  0  0  0  0  0  0  0  0  0  0
   50.4740    4.8853   19.7130 C   0  0  0  0  0  0  0  0  0  0  0  0
   47.5252    5.8865   24.2242 O   0  0  0  0  0  0  0  0  0  0  0  0
   47.1499    9.3464   20.9822 O   0  0  0  0  0  0  0  0  0  0  0  0
   48.3777    3.6377   19.7871 O   0  0  0  0  0  0  0  0  0  0  0  0
   52.8239    2.6072   17.8057 C   0  0  0  0  0  0  0  0  0  0  0  0
   53.2971    3.9690   19.8458 C   0  0  0  0  0  0  0  0  0  0  0  0
   52.7828    5.0958   17.6491 C   0  0  0  0  0  0  0  0  0  0  0  0
   50.5134    5.2859   20.3393 S   0  0  0  0  0  0  0  0  0  0  0  0
   49.1629    6.0958   20.0318 O   0  0  0  0  0  0  0  0  0  0  0  0
   50.5315    4.2461   19.1186 O   0  0  0  0  0  0  0  0  0  0  0  0
   50.2845    4.5483   21.5553 O   0  0  0  0  0  0  0  0  0  0  0  0
   51.6329    6.1689   20.1338 O   0  0  0  0  0  0  0  0  0  0  0  0
   48.3150    5.3451   20.1117 C   0  0  0  0  0  0  0  0  0  0  0  0
   47.9641    5.2101   21.4645 C   0  0  0  0  0  0  0  0  0  0  0  0
   48.2746    6.6209   19.5251 C   0  0  0  0  0  0  0  0  0  0  0  0
   51.1757    4.2363   19.9419 N   0  0  0  0  0  0  0  0  0  0  0  0
   47.8907    7.7270   20.2777 C   0  0  0  0  0  0  0  0  0  0  0  0
   47.5814    6.3320   22.1983 C   0  0  0  0  0  0  0  0  0  0  0  0
   47.5389    7.5922   21.6153 C   0  0  0  0  0  0  0  0  0  0  0  0
   48.7366    4.1301   19.3070 C   0  0  2  0  0  0  0  0  0  0  0  0
   52.5964    4.3319   19.5529 C   0  0  0  0  0  0  0  0  0  0  0  0
   50.2127    4.1740   18.8303 C   0  0  0  0  0  0  0  0  0  0  0  0
   47.8681    8.9398   19.6549 O   0  0  0  0  0  0  0  0  0  0  0  0
   47.2339    6.2329   23.5143 O   0  0  0  0  0  0  0  0  0  0  0  0
   47.8819    3.9978   18.1664 O   0  0  0  0  0  0  0  0  0  0  0  0
   53.0357    3.1644   18.6554 C   0  0  0  0  0  0  0  0  0  0  0  0
   53.4013    4.2656   20.8654 C   0  0  0  0  0  0  0  0  0  0  0  0
   52.9080    5.6708   18.8627 C   0  0  0  0  0  0  0  0  0  0  0  0
   48.1386    7.5379   19.2976 H   0  0  0  0  0  0  0  0  0  0  0  0
   48.4275    4.4483   22.2895 H   0  0  0  0  0  0  0  0  0  0  0  0
   50.8169    2.9335   19.2965 H   0  0  0  0  0  0  0  0  0  0  0  0
   46.9289    8.3423   23.3366 H   0  0  0  0  0  0  0  0  0  0  0  0
   48.6305    5.2879   18.6248 H   0  0  0  0  0  0  0  0  0  0  0  0
   50.8723    5.8722   19.4552 H   0  0  0  0  0  0  0  0  0  0  0  0
   50.7757    4.6622   20.7441 H   0  0  0  0  0  0  0  0  0  0  0  0
   47.1296    6.5924   24.7613 H   0  0  0  0  0  0  0  0  0  0  0  0
   47.2759    9.4833   20.0288 H   0  0  0  0  0  0  0  0  0  0  0  0
   48.7280    3.1337   19.0310 H   0  0  0  0  0  0  0  0  0  0  0  0
   53.8870    2.5941   17.5384 H   0  0  0  0  0  0  0  0  0  0  0  0
   52.6291    1.7170   18.4151 H   0  0  0  0  0  0  0  0  0  0  0  0
   52.2504    2.5088   16.8769 H   0  0  0  0  0  0  0  0  0  0  0  0
   53.1401    4.9078   20.3883 H   0  0  0  0  0  0  0  0  0  0  0  0
   54.3671    3.9060   19.6174 H   0  0  0  0  0  0  0  0  0  0  0  0
   53.0552    3.1424   20.5240 H   0  0  0  0  0  0  0  0  0  0  0  0
   52.6268    6.0556   18.1526 H   0  0  0  0  0  0  0  0  0  0  0  0
   53.8312    5.0678   17.3293 H   0  0  0  0  0  0  0  0  0  0  0  0
   52.1644    5.0877   16.7437 H   0  0  0  0  0  0  0  0  0  0  0  0
   48.4144    5.5295   20.3087 H   0  0  0  0  0  0  0  0  0  0  0  0
   51.0365    4.6657   18.3912 H   0  0  0  0  0  0  0  0  0  0  0  0
   48.0014    4.2315   21.9357 H   0  0  0  0  0  0  0  0  0  0  0  0
   48.5427    6.7580   18.4790 H   0  0  0  0  0  0  0  0  0  0  0  0
   50.9418    5.0413   20.5279 H   0  0  0  0  0  0  0  0  0  0  0  0
   47.2357    8.4457   22.2126 H   0  0  0  0  0  0  0  0  0  0  0  0
   48.5875    3.2235   19.9056 H   0  0  0  0  0  0  0  0  0  0  0  0
   50.3845    3.2729   18.2309 H   0  0  0  0  0  0  0  0  0  0  0  0
   50.3393    5.0256   18.1520 H   0  0  0  0  0  0  0  0  0  0  0  0
   47.6022    9.6131   20.3026 H   0  0  0  0  0  0  0  0  0  0  0  0
   47.2936    5.3009   23.7841 H   0  0  0  0  0  0  0  0  0  0  0  0
   47.0373    4.4306   18.3816 H   0  0  0  0  0  0  0  0  0  0  0  0
   52.7726    2.1982   19.1019 H   0  0  0  0  0  0  0  0  0  0  0  0
   52.5776    3.2166   17.6618 H   0  0  0  0  0  0  0  0  0  0  0  0
   54.1228    3.1712   18.5064 H   0  0  0  0  0  0  0  0  0  0  0  0
   54.4785    4.3233   20.6712 H   0  0  0  0  0  0  0  0  0  0  0  0
   53.2148    3.3282   21.4045 H   0  0  0  0  0  0  0  0  0  0  0  0
   53.1447    5.0929   21.5377 H   0  0  0  0  0  0  0  0  0  0  0  0
   52.4329    5.7466   17.8795 H   0  0  0  0  0  0  0  0  0  0  0  0
   53.9870    5.7881   18.7083 H   0  0  0  0  0  0  0  0  0  0  0  0
   52.5697    6.5209   19.4660 H   0  0  0  0  0  0  0  0  0  0  0  0
  2  1  2  0
  3  1  1  0
  4 10  1  0
  5  3  2  0
  6  2  1  0
  7  5  1  0
  8  1  1  0
  9  4  1  0
 10  8  1  0
 11  5  1  0
 12  6  1  0
 13  8  1  0
 14  9  1  0
 15  9  1  0
 16  9  1  0
  6  7  2  0
 18 17  1  0
 19 17  1  0
 20 17  2  0
 21 17  2  0
 23 22  2  0
 24 22  1  0
 25 31  1  0
 26 24  2  0
 27 23  1  0
 28 26  1  0
 29 22  1  0
 30 25  1  0
 31 29  1  0
 32 26  1  0
 33 27  1  0
 34 29  1  0
 35 30  1  0
 36 30  1  0
 37 30  1  0
 27 28  2  0
  2 38  1  0
  3 39  1  0
  4 40  1  0
  7 41  1  0
  8 42  1  6
 10 43  1  0
 10 44  1  0
 11 45  1  0
 12 46  1  0
 13 47  1  0
 14 48  1  0
 14 49  1  0
 14 50  1  0
 15 51  1  0
 15 52  1  0
 15 53  1  0
 16 54  1  0
 16 55  1  0
 16 56  1  0
 18 57  1  0
 19 58  1  0
 23 59  1  0
 24 60  1  0
 25 61  1  0
 28 62  1  0
 29 63  1  6
 31 64  1  0
 31 65  1  0
 32 66  1  0
 33 67  1  0
 34 68  1  0
 35 69  1  0
 35 70  1  0
 35 71  1  0
 36 72  1  0
 36 73  1  0
 36 74  1  0
 37 75  1  0
 37 76  1  0
 37 77  1  0
M  END
> <Uni-Dock RESULT> 
ENERGY=   -5.245  LOWER_BOUND=    8.405  UPPER_BOUND=   10.486
INTER + INTRA:          -5.245
INTER:                  -5.245
INTRA:                   0.000
UNBOUND:                 0.000

$$$$

     RDKit          3D

 77 76  0  0  0  0  0  0  0  0999 V2000
   47.5400    7.0748   13.1492 C   0  0  0  0  0  0  0  0  0  0  0  0
   46.3158    7.5520   12.6533 C   0  0  0  0  0  0  0  0  0  0  0  0
   47.6151    5.7433   13.5896 C   0  0  0  0  0  0  0  0  0  0  0  0
   50.1853    9.3049   14.7869 N   0  0  0  0  0  0  0  0  0  0  0  0
   46.4969    4.9170   13.5295 C   0  0  0  0  0  0  0  0  0  0  0  0
   45.2085    6.7058   12.5976 C   0  0  0  0  0  0  0  0  0  0  0  0
   45.2876    5.3888   13.0334 C   0  0  0  0  0  0  0  0  0  0  0  0
   48.7360    7.9964   13.2403 C   0  0  1  0  0  0  0  0  0  0  0  0
   50.2991   10.1856   15.9690 C   0  0  0  0  0  0  0  0  0  0  0  0
   48.9068    8.5727   14.6680 C   0  0  0  0  0  0  0  0  0  0  0  0
   46.6287    3.6350   13.9762 O   0  0  0  0  0  0  0  0  0  0  0  0
   44.0079    7.1411   12.1160 O   0  0  0  0  0  0  0  0  0  0  0  0
   49.9203    7.2926   12.8540 O   0  0  0  0  0  0  0  0  0  0  0  0
   51.7594   10.6775   16.0031 C   0  0  0  0  0  0  0  0  0  0  0  0
   50.0016    9.4513   17.2865 C   0  0  0  0  0  0  0  0  0  0  0  0
   49.3827   11.4126   15.8270 C   0  0  0  0  0  0  0  0  0  0  0  0
   48.3751    8.1462   14.9674 S   0  0  0  0  0  0  0  0  0  0  0  0
   47.5489    8.0295   13.5969 O   0  0  0  0  0  0  0  0  0  0  0  0
   49.6702    8.9544   14.4763 O   0  0  0  0  0  0  0  0  0  0  0  0
   48.7845    6.8101   15.3175 O   0  0  0  0  0  0  0  0  0  0  0  0
   47.6630    9.0274   15.8570 O   0  0  0  0  0  0  0  0  0  0  0  0
   48.1854    7.4074   12.8922 C   0  0  0  0  0  0  0  0  0  0  0  0
   47.9688    6.0495   13.1759 C   0  0  0  0  0  0  0  0  0  0  0  0
   47.0843    8.2148   12.5619 C   0  0  0  0  0  0  0  0  0  0  0  0
   49.5408    8.5168   15.4168 N   0  0  0  0  0  0  0  0  0  0  0  0
   45.8040    7.6706   12.5169 C   0  0  0  0  0  0  0  0  0  0  0  0
   46.6778    5.5261   13.1233 C   0  0  0  0  0  0  0  0  0  0  0  0
   45.5907    6.3255   12.7931 C   0  0  0  0  0  0  0  0  0  0  0  0
   49.5865    7.9861   12.9511 C   0  0  2  0  0  0  0  0  0  0  0  0
   49.6597    9.4921   16.5185 C   0  0  0  0  0  0  0  0  0  0  0  0
   49.7808    9.0486   14.0653 C   0  0  0  0  0  0  0  0  0  0  0  0
   44.7740    8.5015   12.1885 O   0  0  0  0  0  0  0  0  0  0  0  0
   46.4354    4.2104   13.3928 O   0  0  0  0  0  0  0  0  0  0  0  0
   49.9103    8.5724   11.6861 O   0  0  0  0  0  0  0  0  0  0  0  0
   51.0381   10.1706   16.5512 C   0  0  0  0  0  0  0  0  0  0  0  0
   49.4838    8.6860   17.8200 C   0  0  0  0  0  0  0  0  0  0  0  0
   48.5516   10.5572   16.4568 C   0  0  0  0  0  0  0  0  0  0  0  0
   46.2382    8.5807   12.3139 H   0  0  0  0  0  0  0  0  0  0  0  0
   48.5520    5.3458   13.9761 H   0  0  0  0  0  0  0  0  0  0  0  0
   50.9236    8.5981   14.8477 H   0  0  0  0  0  0  0  0  0  0  0  0
   44.4086    4.7555   12.9812 H   0  0  0  0  0  0  0  0  0  0  0  0
   48.6166    8.8187   12.5232 H   0  0  0  0  0  0  0  0  0  0  0  0
   48.0453    9.2131   14.8843 H   0  0  0  0  0  0  0  0  0  0  0  0
   48.9062    7.7540   15.3985 H   0  0  0  0  0  0  0  0  0  0  0  0
   45.7856    3.1734   13.8374 H   0  0  0  0  0  0  0  0  0  0  0  0
   44.1098    8.0560   11.8060 H   0  0  0  0  0  0  0  0  0  0  0  0
   50.6155    7.9745   12.8502 H   0  0  0  0  0  0  0  0  0  0  0  0
   51.9246   11.3657   16.8402 H   0  0  0  0  0  0  0  0  0  0  0  0
   52.4617    9.8442   16.1214 H   0  0  0  0  0  0  0  0  0  0  0  0
   52.0242   11.2103   15.0827 H   0  0  0  0  0  0  0  0  0  0  0  0
   48.9518    9.1458   17.3576 H   0  0  0  0  0  0  0  0  0  0  0  0
   50.2066   10.0964   18.1483 H   0  0  0  0  0  0  0  0  0  0  0  0
   50.6223    8.5538   17.3909 H   0  0  0  0  0  0  0  0  0  0  0  0
   48.3219   11.1466   15.8813 H   0  0  0  0  0  0  0  0  0  0  0  0
   49.5736   12.1362   16.6283 H   0  0  0  0  0  0  0  0  0  0  0  0
   49.5509   11.9280   14.8739 H   0  0  0  0  0  0  0  0  0  0  0  0
   47.9690    7.3254   13.0628 H   0  0  0  0  0  0  0  0  0  0  0  0
   49.4774    9.9074   14.5979 H   0  0  0  0  0  0  0  0  0  0  0  0
   48.8090    5.4145   13.4442 H   0  0  0  0  0  0  0  0  0  0  0  0
   47.2199    9.2716   12.3387 H   0  0  0  0  0  0  0  0  0  0  0  0
   48.6039    8.1073   15.4418 H   0  0  0  0  0  0  0  0  0  0  0  0
   44.5983    5.8883   12.7595 H   0  0  0  0  0  0  0  0  0  0  0  0
   50.3113    7.1779   13.1061 H   0  0  0  0  0  0  0  0  0  0  0  0
   50.8086    9.4191   13.9815 H   0  0  0  0  0  0  0  0  0  0  0  0
   49.1261    9.9025   13.8567 H   0  0  0  0  0  0  0  0  0  0  0  0
   43.9474    7.9920   12.2156 H   0  0  0  0  0  0  0  0  0  0  0  0
   47.2795    3.7712   13.5913 H   0  0  0  0  0  0  0  0  0  0  0  0
   49.3692    8.1280   11.0103 H   0  0  0  0  0  0  0  0  0  0  0  0
   51.8466    9.4302   16.5386 H   0  0  0  0  0  0  0  0  0  0  0  0
   51.1821   10.8468   15.7015 H   0  0  0  0  0  0  0  0  0  0  0  0
   51.1584   10.7716   17.4612 H   0  0  0  0  0  0  0  0  0  0  0  0
   49.5645    9.3344   18.7000 H   0  0  0  0  0  0  0  0  0  0  0  0
   50.2491    7.9055   17.9161 H   0  0  0  0  0  0  0  0  0  0  0  0
   48.5030    8.1973   17.8619 H   0  0  0  0  0  0  0  0  0  0  0  0
   48.6689   11.2229   15.5958 H   0  0  0  0  0  0  0  0  0  0  0  0
   48.5654   11.1868   17.3542 H   0  0  0  0  0  0  0  0  0  0  0  0
   47.5582   10.0987   16.3944 H   0  0  0  0  0  0  0  0  0  0  0  0
  2  1  2  0
  3  1  1  0
  4 10  1  0
  5  3  2  0
  6  2  1  0
  7  5  1  0
  8  1  1  0
  9  4  1  0
 10  8  1  0
 11  5  1  0
 12  6  1  0
 13  8  1  0
 14  9  1  0
 15  9  1  0
 16  9  1  0
  6  7  2  0
 18 17  1  0
 19 17  1  0
 20 17  2  0
 21 17  2  0
 23 22  2  0
 24 22  1  0
 25 31  1  0
 26 24  2  0
 27 23  1  0
 28 26  1  0
 29 22  1  0
 30 25  1  0
 31 29  1  0
 32 26  1  0
 33 27  1  0
 34 29  1  0
 35 30  1  0
 36 30  1  0
 37 30  1  0
 27 28  2  0
  2 38  1  0
  3 39  1  0
  4 40  1  0
  7 41  1  0
  8 42  1  6
 10 43  1  0
 10 44  1  0
 11 45  1  0
 12 46  1  0
 13 47  1  0
 14 48  1  0
 14 49  1  0
 14 50  1  0
 15 51  1  0
 15 52  1  0
 15 53  1  0
 16 54  1  0
 16 55  1  0
 16 56  1  0
 18 57  1  0
 19 58  1  0
 23 59  1  0
 24 60  1  0
 25 61  1  0
 28 62  1  0
 29 63  1  6
 31 64  1  0
 31 65  1  0
 32 66  1  0
 33 67  1  0
 34 68  1  0
 35 69  1  0
 35 70  1  0
 35 71  1  0
 36 72  1  0
 36 73  1  0
 36 74  1  0
 37 75  1  0
 37 76  1  0
 37 77  1  0
M  END
> <Uni-Dock RESULT> 
ENERGY=   -5.165  LOWER_BOUND=    2.729  UPPER_BOUND=    4.602
INTER + INTRA:          -5.165
INTER:                  -5.165
INTRA:                   0.000
UNBOUND:                 0.000

$$$$

     RDKit          3D

 77 76  0  0  0  0  0  0  0  0999 V2000
   43.9189   11.4383   10.1042 C   0  0  0  0  0  0  0  0  0  0  0  0
   44.6802   12.2383   10.9717 C   0  0  0  0  0  0  0  0  0  0  0  0
   44.1229   11.5628    8.7202 C   0  0  0  0  0  0  0  0  0  0  0  0
   40.4320   10.1052   10.9512 N   0  0  0  0  0  0  0  0  0  0  0  0
   45.0646   12.4596    8.2245 C   0  0  0  0  0  0  0  0  0  0  0  0
   45.6220   13.1276   10.4542 C   0  0  0  0  0  0  0  0  0  0  0  0
   45.8212   13.2468    9.0842 C   0  0  0  0  0  0  0  0  0  0  0  0
   42.8748   10.4944   10.6581 C   0  0  1  0  0  0  0  0  0  0  0  0
   39.0954   10.6516   11.2684 C   0  0  0  0  0  0  0  0  0  0  0  0
   41.4552   11.1108   10.5953 C   0  0  0  0  0  0  0  0  0  0  0  0
   45.2150   12.5406    6.8713 O   0  0  0  0  0  0  0  0  0  0  0  0
   46.3791   13.9137   11.2737 O   0  0  0  0  0  0  0  0  0  0  0  0
   42.9033    9.2613    9.9329 O   0  0  0  0  0  0  0  0  0  0  0  0
   38.1533    9.4393   11.4036 C   0  0  0  0  0  0  0  0  0  0  0  0
   38.5520   11.5696   10.1613 C   0  0  0  0  0  0  0  0  0  0  0  0
   39.1144   11.3968   12.6136 C   0  0  0  0  0  0  0  0  0  0  0  0
   41.6674   11.7072   10.2035 S   0  0  0  0  0  0  0  0  0  0  0  0
   43.1605   11.6936   10.7909 O   0  0  0  0  0  0  0  0  0  0  0  0
   41.0685   10.3716   10.8585 O   0  0  0  0  0  0  0  0  0  0  0  0
   41.7812   11.4994    8.7825 O   0  0  0  0  0  0  0  0  0  0  0  0
   40.9513   12.8055   10.8001 O   0  0  0  0  0  0  0  0  0  0  0  0
   43.6601   10.7642   10.3721 C   0  0  0  0  0  0  0  0  0  0  0  0
   44.1355   11.0550    9.0834 C   0  0  0  0  0  0  0  0  0  0  0  0
   44.0931   11.5559   11.4488 C   0  0  0  0  0  0  0  0  0  0  0  0
   40.6032   10.9589   10.1296 N   0  0  0  0  0  0  0  0  0  0  0  0
   44.9794   12.6074   11.2343 C   0  0  0  0  0  0  0  0  0  0  0  0
   45.0238   12.1124    8.8926 C   0  0  0  0  0  0  0  0  0  0  0  0
   45.4532   12.8918    9.9593 C   0  0  0  0  0  0  0  0  0  0  0  0
   42.6901    9.6179   10.5880 C   0  0  2  0  0  0  0  0  0  0  0  0
   39.2845   11.4620   10.5618 C   0  0  0  0  0  0  0  0  0  0  0  0
   41.2878   10.0660   11.0788 C   0  0  0  0  0  0  0  0  0  0  0  0
   45.3665   13.3401   12.3171 O   0  0  0  0  0  0  0  0  0  0  0  0
   45.5040   12.4191    7.6526 O   0  0  0  0  0  0  0  0  0  0  0  0
   43.2448    8.7003   11.5362 O   0  0  0  0  0  0  0  0  0  0  0  0
   38.3021   10.3244   10.8823 C   0  0  0  0  0  0  0  0  0  0  0  0
   38.7258   12.2658    9.3716 C   0  0  0  0  0  0  0  0  0  0  0  0
   39.4046   12.4076   11.7691 C   0  0  0  0  0  0  0  0  0  0  0  0
   44.5314   12.1593   12.0445 H   0  0  0  0  0  0  0  0  0  0  0  0
   43.5489   10.9532    8.0245 H   0  0  0  0  0  0  0  0  0  0  0  0
   40.3357    9.4855   10.1418 H   0  0  0  0  0  0  0  0  0  0  0  0
   46.5582   13.9496    8.7111 H   0  0  0  0  0  0  0  0  0  0  0  0
   43.1234   10.2476   11.6983 H   0  0  0  0  0  0  0  0  0  0  0  0
   41.4283   11.9780   11.2634 H   0  0  0  0  0  0  0  0  0  0  0  0
   41.2527   11.4670    9.5774 H   0  0  0  0  0  0  0  0  0  0  0  0
   45.9266   13.1730    6.6789 H   0  0  0  0  0  0  0  0  0  0  0  0
   46.1707   13.6933   12.1966 H   0  0  0  0  0  0  0  0  0  0  0  0
   42.2763    8.6875   10.4084 H   0  0  0  0  0  0  0  0  0  0  0  0
   37.1380    9.7561   11.6692 H   0  0  0  0  0  0  0  0  0  0  0  0
   38.0851    8.8763   10.4654 H   0  0  0  0  0  0  0  0  0  0  0  0
   38.4969    8.7500   12.1833 H   0  0  0  0  0  0  0  0  0  0  0  0
   39.1356   12.4925   10.0709 H   0  0  0  0  0  0  0  0  0  0  0  0
   37.5173   11.8640   10.3706 H   0  0  0  0  0  0  0  0  0  0  0  0
   38.5616   11.0671    9.1871 H   0  0  0  0  0  0  0  0  0  0  0  0
   39.6990   12.3215   12.5674 H   0  0  0  0  0  0  0  0  0  0  0  0
   38.0988   11.6742   12.9197 H   0  0  0  0  0  0  0  0  0  0  0  0
   39.5369   10.7723   13.4097 H   0  0  0  0  0  0  0  0  0  0  0  0
   43.6697   11.0352   10.2765 H   0  0  0  0  0  0  0  0  0  0  0  0
   40.6566   10.6289   11.7096 H   0  0  0  0  0  0  0  0  0  0  0  0
   43.8009   10.4588    8.2386 H   0  0  0  0  0  0  0  0  0  0  0  0
   43.7409   11.3564   12.4594 H   0  0  0  0  0  0  0  0  0  0  0  0
   41.2125   11.7583    9.9402 H   0  0  0  0  0  0  0  0  0  0  0  0
   46.1460   13.7071    9.7787 H   0  0  0  0  0  0  0  0  0  0  0  0
   42.5723    9.0558    9.6538 H   0  0  0  0  0  0  0  0  0  0  0  0
   40.6964    9.1572   11.2371 H   0  0  0  0  0  0  0  0  0  0  0  0
   41.3929   10.5418   12.0605 H   0  0  0  0  0  0  0  0  0  0  0  0
   45.9643   14.0434   12.0145 H   0  0  0  0  0  0  0  0  0  0  0  0
   45.1360   11.7892    7.0102 H   0  0  0  0  0  0  0  0  0  0  0  0
   44.2127    8.7957   11.5043 H   0  0  0  0  0  0  0  0  0  0  0  0
   38.2425    9.6056   10.0566 H   0  0  0  0  0  0  0  0  0  0  0  0
   38.5879    9.7795   11.7885 H   0  0  0  0  0  0  0  0  0  0  0  0
   37.2906   10.7149   11.0504 H   0  0  0  0  0  0  0  0  0  0  0  0
   37.7357   12.6757    9.6021 H   0  0  0  0  0  0  0  0  0  0  0  0
   38.6214   11.6392    8.4769 H   0  0  0  0  0  0  0  0  0  0  0  0
   39.3775   13.1089    9.1133 H   0  0  0  0  0  0  0  0  0  0  0  0
   39.7165   11.8791   12.6755 H   0  0  0  0  0  0  0  0  0  0  0  0
   38.4416   12.8831   11.9894 H   0  0  0  0  0  0  0  0  0  0  0  0
   40.1290   13.2081   11.5805 H   0  0  0  0  0  0  0  0  0  0  0  0
  2  1  2  0
  3  1  1  0
  4 10  1  0
  5  3  2  0
  6  2  1  0
  7  5  1  0
  8  1  1  0
  9  4  1  0
 10  8  1  0
 11  5  1  0
 12  6  1  0
 13  8  1  0
 14  9  1  0
 15  9  1  0
 16  9  1  0
  6  7  2  0
 18 17  1  0
 19 17  1  0
 20 17  2  0
 21 17  2  0
 23 22  2  0
 24 22  1  0
 25 31  1  0
 26 24  2  0
 27 23  1  0
 28 26  1  0
 29 22  1  0
 30 25  1  0
 31 29  1  0
 32 26  1  0
 33 27  1  0
 34 29  1  0
 35 30  1  0
 36 30  1  0
 37 30  1  0
 27 28  2  0
  2 38  1  0
  3 39  1  0
  4 40  1  0
  7 41  1  0
  8 42  1  6
 10 43  1  0
 10 44  1  0
 11 45  1  0
 12 46  1  0
 13 47  1  0
 14 48  1  0
 14 49  1  0
 14 50  1  0
 15 51  1  0
 15 52  1  0
 15 53  1  0
 16 54  1  0
 16 55  1  0
 16 56  1  0
 18 57  1  0
 19 58  1  0
 23 59  1  0
 24 60  1  0
 25 61  1  0
 28 62  1  0
 29 63  1  6
 31 64  1  0
 31 65  1  0
 32 66  1  0
 33 67  1  0
 34 68  1  0
 35 69  1  0
 35 70  1  0
 35 71  1  0
 36 72  1  0
 36 73  1  0
 36 74  1  0
 37 75  1  0
 37 76  1  0
 37 77  1  0
M  END
> <Uni-Dock RESULT> 
ENERGY=   -5.148  LOWER_BOUND=    5.387  UPPER_BOUND=    8.266
INTER + INTRA:          -5.148
INTER:                  -5.148
INTRA:                   0.000
UNBOUND:                 0.000

$$$$
