
     RDKit          3D

 77 76  0  0  0  0  0  0  0  0999 V2000
   46.9574    6.5166   13.3558 C   0  0  0  0  0  0  0  0  0  0  0  0
   47.0667    5.1204   13.4395 C   0  0  0  0  0  0  0  0  0  0  0  0
   45.7728    7.0647   12.8383 C   0  0  0  0  0  0  0  0  0  0  0  0
   50.2068    8.5315   13.0960 N   0  0  0  0  0  0  0  0  0  0  0  0
   44.7282    6.2356   12.4357 C   0  0  0  0  0  0  0  0  0  0  0  0
   46.0100    4.3064   13.0376 C   0  0  0  0  0  0  0  0  0  0  0  0
   44.8330    4.8519   12.5331 C   0  0  0  0  0  0  0  0  0  0  0  0
   48.1120    7.3910   13.7958 C   0  0  1  0  0  0  0  0  0  0  0  0
   51.0144    9.2057   12.0690 C   0  0  0  0  0  0  0  0  0  0  0  0
   49.0697    7.7298   12.6229 C   0  0  0  0  0  0  0  0  0  0  0  0
   43.6030    6.8321   11.9439 O   0  0  0  0  0  0  0  0  0  0  0  0
   46.1725    2.9570   13.1582 O   0  0  0  0  0  0  0  0  0  0  0  0
   47.5984    8.5935   14.3912 O   0  0  0  0  0  0  0  0  0  0  0  0
   51.5157    8.2324   10.9926 C   0  0  0  0  0  0  0  0  0  0  0  0
   50.2378   10.3613   11.4157 C   0  0  0  0  0  0  0  0  0  0  0  0
   52.2334    9.7963   12.8013 C   0  0  0  0  0  0  0  0  0  0  0  0
   48.7289    7.5430   12.8698 S   0  0  0  0  0  0  0  0  0  0  0  0
   48.0254    6.2623   12.2041 O   0  0  0  0  0  0  0  0  0  0  0  0
   48.3978    8.6888   11.7972 O   0  0  0  0  0  0  0  0  0  0  0  0
   50.1592    7.3663   12.8389 O   0  0  0  0  0  0  0  0  0  0  0  0
   47.9895    7.8405   14.0709 O   0  0  0  0  0  0  0  0  0  0  0  0
   46.8712    6.3852   12.3131 C   0  0  0  0  0  0  0  0  0  0  0  0
   45.8546    5.8102   11.5269 C   0  0  0  0  0  0  0  0  0  0  0  0
   47.1206    5.8412   13.5824 C   0  0  0  0  0  0  0  0  0  0  0  0
   49.6206    9.0248   11.6637 N   0  0  0  0  0  0  0  0  0  0  0  0
   46.3906    4.7421   14.0323 C   0  0  0  0  0  0  0  0  0  0  0  0
   45.1372    4.7116   11.9947 C   0  0  0  0  0  0  0  0  0  0  0  0
   45.3989    4.1676   13.2454 C   0  0  0  0  0  0  0  0  0  0  0  0
   47.5945    7.6044   11.7769 C   0  0  2  0  0  0  0  0  0  0  0  0
   50.8355    9.5934   12.2700 C   0  0  0  0  0  0  0  0  0  0  0  0
   48.9992    7.8929   12.3720 C   0  0  0  0  0  0  0  0  0  0  0  0
   46.6835    4.2550   15.2734 O   0  0  0  0  0  0  0  0  0  0  0  0
   44.1509    4.1368   11.2453 O   0  0  0  0  0  0  0  0  0  0  0  0
   46.7681    8.7616   11.9938 O   0  0  0  0  0  0  0  0  0  0  0  0
   51.3697   10.6260   11.2570 C   0  0  0  0  0  0  0  0  0  0  0  0
   51.9223    8.5308   12.4996 C   0  0  0  0  0  0  0  0  0  0  0  0
   50.5221   10.3237   13.5881 C   0  0  0  0  0  0  0  0  0  0  0  0
   47.9714    4.6586   13.8288 H   0  0  0  0  0  0  0  0  0  0  0  0
   45.6524    8.1416   12.7601 H   0  0  0  0  0  0  0  0  0  0  0  0
   49.9148    9.1906   13.8176 H   0  0  0  0  0  0  0  0  0  0  0  0
   44.0186    4.2111   12.2189 H   0  0  0  0  0  0  0  0  0  0  0  0
   48.6668    6.8752   14.5894 H   0  0  0  0  0  0  0  0  0  0  0  0
   48.5030    8.2774   11.8629 H   0  0  0  0  0  0  0  0  0  0  0  0
   49.4345    6.8010   12.1720 H   0  0  0  0  0  0  0  0  0  0  0  0
   42.9408    6.1478   11.7552 H   0  0  0  0  0  0  0  0  0  0  0  0
   45.3190    2.5247   12.9915 H   0  0  0  0  0  0  0  0  0  0  0  0
   47.7785    9.3207   13.7745 H   0  0  0  0  0  0  0  0  0  0  0  0
   50.6951    7.8280   10.3901 H   0  0  0  0  0  0  0  0  0  0  0  0
   52.0553    7.3903   11.4403 H   0  0  0  0  0  0  0  0  0  0  0  0
   52.2055    8.7342   10.3035 H   0  0  0  0  0  0  0  0  0  0  0  0
   49.3951   10.0037   10.8151 H   0  0  0  0  0  0  0  0  0  0  0  0
   50.8873   10.9405   10.7483 H   0  0  0  0  0  0  0  0  0  0  0  0
   49.8418   11.0522   12.1691 H   0  0  0  0  0  0  0  0  0  0  0  0
   52.8189    9.0144   13.2992 H   0  0  0  0  0  0  0  0  0  0  0  0
   51.9303   10.5239   13.5641 H   0  0  0  0  0  0  0  0  0  0  0  0
   52.9011   10.3133   12.1032 H   0  0  0  0  0  0  0  0  0  0  0  0
   47.0624    6.3314   12.3665 H   0  0  0  0  0  0  0  0  0  0  0  0
   49.2543    9.0906   11.5366 H   0  0  0  0  0  0  0  0  0  0  0  0
   45.6310    6.2380   10.5512 H   0  0  0  0  0  0  0  0  0  0  0  0
   47.8775    6.2559   14.2412 H   0  0  0  0  0  0  0  0  0  0  0  0
   48.9063    9.7529   11.5698 H   0  0  0  0  0  0  0  0  0  0  0  0
   44.8233    3.3129   13.5849 H   0  0  0  0  0  0  0  0  0  0  0  0
   47.7057    7.4859   10.6910 H   0  0  0  0  0  0  0  0  0  0  0  0
   48.8878    8.1381   13.4335 H   0  0  0  0  0  0  0  0  0  0  0  0
   49.6267    7.0003   12.2747 H   0  0  0  0  0  0  0  0  0  0  0  0
   46.1238    3.4754   15.4339 H   0  0  0  0  0  0  0  0  0  0  0  0
   44.0892    4.6054   10.3951 H   0  0  0  0  0  0  0  0  0  0  0  0
   46.1302    8.5407   12.6960 H   0  0  0  0  0  0  0  0  0  0  0  0
   50.6318   11.4133   11.0598 H   0  0  0  0  0  0  0  0  0  0  0  0
   51.6206   10.1545   10.2989 H   0  0  0  0  0  0  0  0  0  0  0  0
   52.2778   11.1130   11.6296 H   0  0  0  0  0  0  0  0  0  0  0  0
   52.8546    8.9930   12.8425 H   0  0  0  0  0  0  0  0  0  0  0  0
   51.6274    7.7990   13.2614 H   0  0  0  0  0  0  0  0  0  0  0  0
   52.1447    7.9854   11.5746 H   0  0  0  0  0  0  0  0  0  0  0  0
   50.2144    9.6338   14.3800 H   0  0  0  0  0  0  0  0  0  0  0  0
   49.7213   11.0601   13.4546 H   0  0  0  0  0  0  0  0  0  0  0  0
   51.4045   10.8612   13.9542 H   0  0  0  0  0  0  0  0  0  0  0  0
  2  1  2  0
  3  1  1  0
  4 10  1  0
  5  3  2  0
  6  2  1  0
  7  5  1  0
  8  1  1  0
  9  4  1  0
 10  8  1  0
 11  5  1  0
 12  6  1  0
 13  8  1  0
 14  9  1  0
 15  9  1  0
 16  9  1  0
  6  7  2  0
 18 17  1  0
 19 17  1  0
 20 17  2  0
 21 17  2  0
 23 22  2  0
 24 22  1  0
 25 31  1  0
 26 24  2  0
 27 23  1  0
 28 26  1  0
 29 22  1  0
 30 25  1  0
 31 29  1  0
 32 26  1  0
 33 27  1  0
 34 29  1  0
 35 30  1  0
 36 30  1  0
 37 30  1  0
 27 28  2  0
  2 38  1  0
  3 39  1  0
  4 40  1  0
  7 41  1  0
  8 42  1  1
 10 43  1  0
 10 44  1  0
 11 45  1  0
 12 46  1  0
 13 47  1  0
 14 48  1  0
 14 49  1  0
 14 50  1  0
 15 51  1  0
 15 52  1  0
 15 53  1  0
 16 54  1  0
 16 55  1  0
 16 56  1  0
 18 57  1  0
 19 58  1  0
 23 59  1  0
 24 60  1  0
 25 61  1  0
 28 62  1  0
 29 63  1  6
 31 64  1  0
 31 65  1  0
 32 66  1  0
 33 67  1  0
 34 68  1  0
 35 69  1  0
 35 70  1  0
 35 71  1  0
 36 72  1  0
 36 73  1  0
 36 74  1  0
 37 75  1  0
 37 76  1  0
 37 77  1  0
M  END
> <Uni-Dock RESULT> 
ENERGY=   -5.926  LOWER_BOUND=    0.000  UPPER_BOUND=    0.000
INTER + INTRA:          -5.926
INTER:                  -5.926
INTRA:                   0.000
UNBOUND:                 0.000

$$$$

     RDKit          3D

 77 76  0  0  0  0  0  0  0  0999 V2000
   44.7146    5.7668   11.9717 C   0  0  0  0  0  0  0  0  0  0  0  0
   44.3511    4.6695   12.7668 C   0  0  0  0  0  0  0  0  0  0  0  0
   44.6110    5.6452   10.5768 C   0  0  0  0  0  0  0  0  0  0  0  0
   47.2317    8.2563   13.4390 N   0  0  0  0  0  0  0  0  0  0  0  0
   44.1410    4.4655   10.0038 C   0  0  0  0  0  0  0  0  0  0  0  0
   43.8779    3.4994   12.1774 C   0  0  0  0  0  0  0  0  0  0  0  0
   43.7674    3.3838   10.7947 C   0  0  0  0  0  0  0  0  0  0  0  0
   45.2273    7.0332   12.6234 C   0  0  1  0  0  0  0  0  0  0  0  0
   48.6650    8.5693   13.3451 C   0  0  0  0  0  0  0  0  0  0  0  0
   46.7736    7.0402   12.7529 C   0  0  0  0  0  0  0  0  0  0  0  0
   44.0621    4.4134    8.6420 O   0  0  0  0  0  0  0  0  0  0  0  0
   43.5265    2.4737   13.0058 O   0  0  0  0  0  0  0  0  0  0  0  0
   44.7790    8.1714   11.8697 O   0  0  0  0  0  0  0  0  0  0  0  0
   49.5467    7.3941   13.7909 C   0  0  0  0  0  0  0  0  0  0  0  0
   49.0500    9.0084   11.9224 C   0  0  0  0  0  0  0  0  0  0  0  0
   48.9088    9.7537   14.2985 C   0  0  0  0  0  0  0  0  0  0  0  0
   46.3415    6.9025   12.6726 S   0  0  0  0  0  0  0  0  0  0  0  0
   46.1531    5.3191   12.4835 O   0  0  0  0  0  0  0  0  0  0  0  0
   47.3027    7.2640   11.4404 O   0  0  0  0  0  0  0  0  0  0  0  0
   47.1110    7.1479   13.8666 O   0  0  0  0  0  0  0  0  0  0  0  0
   45.0564    7.5031   12.4165 O   0  0  0  0  0  0  0  0  0  0  0  0
   45.4604    5.1440   11.5622 C   0  0  0  0  0  0  0  0  0  0  0  0
   45.3753    4.0052   10.7388 C   0  0  0  0  0  0  0  0  0  0  0  0
   44.4521    5.3546   12.5151 C   0  0  0  0  0  0  0  0  0  0  0  0
   48.1703    7.8309   12.1834 N   0  0  0  0  0  0  0  0  0  0  0  0
   43.4105    4.4381   12.6513 C   0  0  0  0  0  0  0  0  0  0  0  0
   44.3266    3.1011   10.8915 C   0  0  0  0  0  0  0  0  0  0  0  0
   43.3398    3.3064   11.8469 C   0  0  0  0  0  0  0  0  0  0  0  0
   46.5975    6.1187   11.3290 C   0  0  2  0  0  0  0  0  0  0  0  0
   48.5060    8.9367   13.0952 C   0  0  0  0  0  0  0  0  0  0  0  0
   46.9753    7.0389   12.5210 C   0  0  0  0  0  0  0  0  0  0  0  0
   42.4632    4.6955   13.5998 O   0  0  0  0  0  0  0  0  0  0  0  0
   44.2291    1.9882   10.1061 O   0  0  0  0  0  0  0  0  0  0  0  0
   46.2651    6.9525   10.2050 O   0  0  0  0  0  0  0  0  0  0  0  0
   49.8690    9.4781   12.6189 C   0  0  0  0  0  0  0  0  0  0  0  0
   48.6523    8.4652   14.5510 C   0  0  0  0  0  0  0  0  0  0  0  0
   47.4742   10.0755   13.0085 C   0  0  0  0  0  0  0  0  0  0  0  0
   44.4239    4.7235   13.8508 H   0  0  0  0  0  0  0  0  0  0  0  0
   44.8821    6.4748    9.9299 H   0  0  0  0  0  0  0  0  0  0  0  0
   46.6666    9.0623   13.1715 H   0  0  0  0  0  0  0  0  0  0  0  0
   43.4027    2.4687   10.3452 H   0  0  0  0  0  0  0  0  0  0  0  0
   44.7722    7.1317   13.6168 H   0  0  0  0  0  0  0  0  0  0  0  0
   47.2035    6.9807   11.7478 H   0  0  0  0  0  0  0  0  0  0  0  0
   47.0950    6.1562   13.3135 H   0  0  0  0  0  0  0  0  0  0  0  0
   43.6708    3.5640    8.3815 H   0  0  0  0  0  0  0  0  0  0  0  0
   43.0766    1.7908   12.4820 H   0  0  0  0  0  0  0  0  0  0  0  0
   45.5539    8.5420   11.4182 H   0  0  0  0  0  0  0  0  0  0  0  0
   49.4678    6.5397   13.1098 H   0  0  0  0  0  0  0  0  0  0  0  0
   49.2741    7.0532   14.7960 H   0  0  0  0  0  0  0  0  0  0  0  0
   50.6029    7.6875   13.8199 H   0  0  0  0  0  0  0  0  0  0  0  0
   48.9694    8.1879   11.2019 H   0  0  0  0  0  0  0  0  0  0  0  0
   50.0866    9.3652   11.8906 H   0  0  0  0  0  0  0  0  0  0  0  0
   48.4105    9.8262   11.5703 H   0  0  0  0  0  0  0  0  0  0  0  0
   48.6371    9.4998   15.3300 H   0  0  0  0  0  0  0  0  0  0  0  0
   48.3225   10.6330   14.0051 H   0  0  0  0  0  0  0  0  0  0  0  0
   49.9638   10.0493   14.2993 H   0  0  0  0  0  0  0  0  0  0  0  0
   45.5100    5.1785   11.7588 H   0  0  0  0  0  0  0  0  0  0  0  0
   48.0855    7.7221   11.8151 H   0  0  0  0  0  0  0  0  0  0  0  0
   46.1352    3.8422    9.9766 H   0  0  0  0  0  0  0  0  0  0  0  0
   44.4538    6.2257   13.1633 H   0  0  0  0  0  0  0  0  0  0  0  0
   48.0365    8.1923   11.2343 H   0  0  0  0  0  0  0  0  0  0  0  0
   42.5337    2.5867   11.9425 H   0  0  0  0  0  0  0  0  0  0  0  0
   47.4900    5.5426   11.0512 H   0  0  0  0  0  0  0  0  0  0  0  0
   46.1345    7.7095   12.7279 H   0  0  0  0  0  0  0  0  0  0  0  0
   47.1707    6.4258   13.4075 H   0  0  0  0  0  0  0  0  0  0  0  0
   41.8271    3.9591   13.6018 H   0  0  0  0  0  0  0  0  0  0  0  0
   44.9894    1.9643    9.4998 H   0  0  0  0  0  0  0  0  0  0  0  0
   45.2992    6.9148   10.0857 H   0  0  0  0  0  0  0  0  0  0  0  0
   49.8194    9.8338   11.5825 H   0  0  0  0  0  0  0  0  0  0  0  0
   50.6470    8.7065   12.6713 H   0  0  0  0  0  0  0  0  0  0  0  0
   50.1999   10.3186   13.2391 H   0  0  0  0  0  0  0  0  0  0  0  0
   49.0136    9.2782   15.1906 H   0  0  0  0  0  0  0  0  0  0  0  0
   47.6977    8.1261   14.9712 H   0  0  0  0  0  0  0  0  0  0  0  0
   49.3693    7.6393   14.6298 H   0  0  0  0  0  0  0  0  0  0  0  0
   46.4995    9.7817   13.4101 H   0  0  0  0  0  0  0  0  0  0  0  0
   47.3263   10.4005   11.9723 H   0  0  0  0  0  0  0  0  0  0  0  0
   47.8089   10.9479   13.5815 H   0  0  0  0  0  0  0  0  0  0  0  0
  2  1  2  0
  3  1  1  0
  4 10  1  0
  5  3  2  0
  6  2  1  0
  7  5  1  0
  8  1  1  0
  9  4  1  0
 10  8  1  0
 11  5  1  0
 12  6  1  0
 13  8  1  0
 14  9  1  0
 15  9  1  0
 16  9  1  0
  6  7  2  0
 18 17  1  0
 19 17  1  0
 20 17  2  0
 21 17  2  0
 23 22  2  0
 24 22  1  0
 25 31  1  0
 26 24  2  0
 27 23  1  0
 28 26  1  0
 29 22  1  0
 30 25  1  0
 31 29  1  0
 32 26  1  0
 33 27  1  0
 34 29  1  0
 35 30  1  0
 36 30  1  0
 37 30  1  0
 27 28  2  0
  2 38  1  0
  3 39  1  0
  4 40  1  0
  7 41  1  0
  8 42  1  1
 10 43  1  0
 10 44  1  0
 11 45  1  0
 12 46  1  0
 13 47  1  0
 14 48  1  0
 14 49  1  0
 14 50  1  0
 15 51  1  0
 15 52  1  0
 15 53  1  0
 16 54  1  0
 16 55  1  0
 16 56  1  0
 18 57  1  0
 19 58  1  0
 23 59  1  0
 24 60  1  0
 25 61  1  0
 28 62  1  0
 29 63  1  6
 31 64  1  0
 31 65  1  0
 32 66  1  0
 33 67  1  0
 34 68  1  0
 35 69  1  0
 35 70  1  0
 35 71  1  0
 36 72  1  0
 36 73  1  0
 36 74  1  0
 37 75  1  0
 37 76  1  0
 37 77  1  0
M  END
> <Uni-Dock RESULT> 
ENERGY=   -5.791  LOWER_BOUND=    1.806  UPPER_BOUND=    2.860
INTER + INTRA:          -5.791
INTER:                  -5.791
INTRA:                   0.000
UNBOUND:                 0.000

$$$$

     RDKit          3D

 77 76  0  0  0  0  0  0  0  0999 V2000
   48.0490    7.6739   13.6843 C   0  0  0  0  0  0  0  0  0  0  0  0
   47.8027    8.6683   14.6429 C   0  0  0  0  0  0  0  0  0  0  0  0
   49.0813    7.8815   12.7556 C   0  0  0  0  0  0  0  0  0  0  0  0
   45.1377    5.3664   12.7431 N   0  0  0  0  0  0  0  0  0  0  0  0
   49.8499    9.0424   12.8021 C   0  0  0  0  0  0  0  0  0  0  0  0
   48.5848    9.8206   14.6785 C   0  0  0  0  0  0  0  0  0  0  0  0
   49.6136   10.0206   13.7625 C   0  0  0  0  0  0  0  0  0  0  0  0
   47.1928    6.4259   13.6555 C   0  0  1  0  0  0  0  0  0  0  0  0
   44.1471    5.2133   11.6676 C   0  0  0  0  0  0  0  0  0  0  0  0
   45.9761    6.5727   12.7038 C   0  0  0  0  0  0  0  0  0  0  0  0
   50.8396    9.1814   11.8721 O   0  0  0  0  0  0  0  0  0  0  0  0
   48.3048   10.7429   15.6442 O   0  0  0  0  0  0  0  0  0  0  0  0
   48.0018    5.3025   13.2706 O   0  0  0  0  0  0  0  0  0  0  0  0
   43.2334    6.4407   11.5404 C   0  0  0  0  0  0  0  0  0  0  0  0
   44.8256    4.9182   10.3195 C   0  0  0  0  0  0  0  0  0  0  0  0
   43.2833    3.9973   12.0499 C   0  0  0  0  0  0  0  0  0  0  0  0
   46.3501    6.6694   12.9544 S   0  0  0  0  0  0  0  0  0  0  0  0
   46.6628    8.2335   13.1392 O   0  0  0  0  0  0  0  0  0  0  0  0
   46.4804    6.4984   11.3648 O   0  0  0  0  0  0  0  0  0  0  0  0
   44.9658    6.4232   13.2718 O   0  0  0  0  0  0  0  0  0  0  0  0
   47.4452    5.9563   13.5628 O   0  0  0  0  0  0  0  0  0  0  0  0
   47.8028    8.3989   12.9594 C   0  0  0  0  0  0  0  0  0  0  0  0
   48.4606    9.5774   12.5588 C   0  0  0  0  0  0  0  0  0  0  0  0
   47.8811    8.0170   14.3074 C   0  0  0  0  0  0  0  0  0  0  0  0
   45.3233    5.9752   11.2487 N   0  0  0  0  0  0  0  0  0  0  0  0
   48.5746    8.8069   15.2231 C   0  0  0  0  0  0  0  0  0  0  0  0
   49.1477   10.3532   13.4897 C   0  0  0  0  0  0  0  0  0  0  0  0
   49.2087    9.9785   14.8257 C   0  0  0  0  0  0  0  0  0  0  0  0
   47.1043    7.5681   11.9015 C   0  0  2  0  0  0  0  0  0  0  0  0
   44.4232    4.8498   11.5482 C   0  0  0  0  0  0  0  0  0  0  0  0
   45.9874    6.6114   12.3991 C   0  0  0  0  0  0  0  0  0  0  0  0
   48.6101    8.3853   16.5209 O   0  0  0  0  0  0  0  0  0  0  0  0
   49.7879   11.5019   13.1219 O   0  0  0  0  0  0  0  0  0  0  0  0
   48.0906    6.7849   11.2066 O   0  0  0  0  0  0  0  0  0  0  0  0
   43.7385    4.4896   10.2143 C   0  0  0  0  0  0  0  0  0  0  0  0
   43.3353    5.2306   12.5654 C   0  0  0  0  0  0  0  0  0  0  0  0
   45.2020    3.6176   12.0423 C   0  0  0  0  0  0  0  0  0  0  0  0
   47.0073    8.5464   15.3748 H   0  0  0  0  0  0  0  0  0  0  0  0
   49.3014    7.1324   12.0001 H   0  0  0  0  0  0  0  0  0  0  0  0
   45.7093    4.5262   12.8313 H   0  0  0  0  0  0  0  0  0  0  0  0
   50.2134   10.9216   13.7950 H   0  0  0  0  0  0  0  0  0  0  0  0
   46.8432    6.2106   14.6729 H   0  0  0  0  0  0  0  0  0  0  0  0
   46.3510    6.7475   11.6901 H   0  0  0  0  0  0  0  0  0  0  0  0
   45.3842    7.4440   13.0028 H   0  0  0  0  0  0  0  0  0  0  0  0
   51.3278   10.0011   12.0519 H   0  0  0  0  0  0  0  0  0  0  0  0
   49.0108   11.4097   15.6517 H   0  0  0  0  0  0  0  0  0  0  0  0
   47.7342    5.0482   12.3732 H   0  0  0  0  0  0  0  0  0  0  0  0
   43.7812    7.3277   11.2040 H   0  0  0  0  0  0  0  0  0  0  0  0
   42.7553    6.6796   12.4971 H   0  0  0  0  0  0  0  0  0  0  0  0
   42.4345    6.2587   10.8116 H   0  0  0  0  0  0  0  0  0  0  0  0
   45.4006    5.7741    9.9514 H   0  0  0  0  0  0  0  0  0  0  0  0
   44.0807    4.6755    9.5519 H   0  0  0  0  0  0  0  0  0  0  0  0
   45.5089    4.0643   10.3951 H   0  0  0  0  0  0  0  0  0  0  0  0
   42.7840    4.1482   13.0144 H   0  0  0  0  0  0  0  0  0  0  0  0
   43.8860    3.0839   12.1247 H   0  0  0  0  0  0  0  0  0  0  0  0
   42.5045    3.8150   11.3011 H   0  0  0  0  0  0  0  0  0  0  0  0
   47.6313    8.3561   13.0645 H   0  0  0  0  0  0  0  0  0  0  0  0
   45.6400    6.1001   11.0517 H   0  0  0  0  0  0  0  0  0  0  0  0
   48.4319    9.8725   11.5113 H   0  0  0  0  0  0  0  0  0  0  0  0
   47.4116    7.1076   14.6700 H   0  0  0  0  0  0  0  0  0  0  0  0
   46.0590    5.6693   10.6049 H   0  0  0  0  0  0  0  0  0  0  0  0
   49.7524   10.6009   15.5285 H   0  0  0  0  0  0  0  0  0  0  0  0
   46.6598    8.2530   11.1673 H   0  0  0  0  0  0  0  0  0  0  0  0
   46.4399    5.8432   13.0351 H   0  0  0  0  0  0  0  0  0  0  0  0
   45.2569    7.1780   12.9868 H   0  0  0  0  0  0  0  0  0  0  0  0
   49.0942    9.0487   17.0429 H   0  0  0  0  0  0  0  0  0  0  0  0
   49.6482   11.6482   12.1704 H   0  0  0  0  0  0  0  0  0  0  0  0
   48.8779    6.7290   11.7773 H   0  0  0  0  0  0  0  0  0  0  0  0
   44.4726    4.2043    9.4509 H   0  0  0  0  0  0  0  0  0  0  0  0
   43.1576    5.3332    9.8216 H   0  0  0  0  0  0  0  0  0  0  0  0
   43.0489    3.6471   10.3379 H   0  0  0  0  0  0  0  0  0  0  0  0
   42.6110    4.4174   12.6859 H   0  0  0  0  0  0  0  0  0  0  0  0
   43.7545    5.4371   13.5576 H   0  0  0  0  0  0  0  0  0  0  0  0
   42.7824    6.1198   12.2398 H   0  0  0  0  0  0  0  0  0  0  0  0
   45.6473    3.7782   13.0291 H   0  0  0  0  0  0  0  0  0  0  0  0
   46.0086    3.3523   11.3492 H   0  0  0  0  0  0  0  0  0  0  0  0
   44.5409    2.7471   12.1251 H   0  0  0  0  0  0  0  0  0  0  0  0
  2  1  2  0
  3  1  1  0
  4 10  1  0
  5  3  2  0
  6  2  1  0
  7  5  1  0
  8  1  1  0
  9  4  1  0
 10  8  1  0
 11  5  1  0
 12  6  1  0
 13  8  1  0
 14  9  1  0
 15  9  1  0
 16  9  1  0
  6  7  2  0
 18 17  1  0
 19 17  1  0
 20 17  2  0
 21 17  2  0
 23 22  2  0
 24 22  1  0
 25 31  1  0
 26 24  2  0
 27 23  1  0
 28 26  1  0
 29 22  1  0
 30 25  1  0
 31 29  1  0
 32 26  1  0
 33 27  1  0
 34 29  1  0
 35 30  1  0
 36 30  1  0
 37 30  1  0
 27 28  2  0
  2 38  1  0
  3 39  1  0
  4 40  1  0
  7 41  1  0
  8 42  1  1
 10 43  1  0
 10 44  1  0
 11 45  1  0
 12 46  1  0
 13 47  1  0
 14 48  1  0
 14 49  1  0
 14 50  1  0
 15 51  1  0
 15 52  1  0
 15 53  1  0
 16 54  1  0
 16 55  1  0
 16 56  1  0
 18 57  1  0
 19 58  1  0
 23 59  1  0
 24 60  1  0
 25 61  1  0
 28 62  1  0
 29 63  1  6
 31 64  1  0
 31 65  1  0
 32 66  1  0
 33 67  1  0
 34 68  1  0
 35 69  1  0
 35 70  1  0
 35 71  1  0
 36 72  1  0
 36 73  1  0
 36 74  1  0
 37 75  1  0
 37 76  1  0
 37 77  1  0
M  END
> <Uni-Dock RESULT> 
ENERGY=   -5.702  LOWER_BOUND=    2.104  UPPER_BOUND=    6.025
INTER + INTRA:          -5.702
INTER:                  -5.702
INTRA:                   0.000
UNBOUND:                 0.000

$$$$

     RDKit          3D

 77 76  0  0  0  0  0  0  0  0999 V2000
   47.3160   10.4529   21.0562 C   0  0  0  0  0  0  0  0  0  0  0  0
   46.8057   11.0834   19.9115 C   0  0  0  0  0  0  0  0  0  0  0  0
   48.0677   11.2181   21.9622 C   0  0  0  0  0  0  0  0  0  0  0  0
   47.9129    6.6718   20.8736 N   0  0  0  0  0  0  0  0  0  0  0  0
   48.2828   12.5751   21.7317 C   0  0  0  0  0  0  0  0  0  0  0  0
   47.0257   12.4426   19.6996 C   0  0  0  0  0  0  0  0  0  0  0  0
   47.7636   13.2017   20.6034 C   0  0  0  0  0  0  0  0  0  0  0  0
   47.0704    8.9754   21.2760 C   0  0  1  0  0  0  0  0  0  0  0  0
   49.0278    5.7333   20.6801 C   0  0  0  0  0  0  0  0  0  0  0  0
   48.2106    8.0994   20.6927 C   0  0  0  0  0  0  0  0  0  0  0  0
   49.0199   13.2624   22.6526 O   0  0  0  0  0  0  0  0  0  0  0  0
   46.4903   13.0001   18.5752 O   0  0  0  0  0  0  0  0  0  0  0  0
   46.9092    8.7237   22.6814 O   0  0  0  0  0  0  0  0  0  0  0  0
   49.7161    5.9214   19.3206 C   0  0  0  0  0  0  0  0  0  0  0  0
   50.0596    5.8481   21.8147 C   0  0  0  0  0  0  0  0  0  0  0  0
   48.4136    4.3220   20.7270 C   0  0  0  0  0  0  0  0  0  0  0  0
   47.9467    8.4621   20.7968 S   0  0  0  0  0  0  0  0  0  0  0  0
   48.2480    9.7920   19.9488 O   0  0  0  0  0  0  0  0  0  0  0  0
   49.3383    8.2450   21.5645 O   0  0  0  0  0  0  0  0  0  0  0  0
   47.8086    7.3468   19.8942 O   0  0  0  0  0  0  0  0  0  0  0  0
   46.9547    8.8175   21.7804 O   0  0  0  0  0  0  0  0  0  0  0  0
   48.2736   10.6943   20.6866 C   0  0  0  0  0  0  0  0  0  0  0  0
   48.9276   11.9311   20.5295 C   0  0  0  0  0  0  0  0  0  0  0  0
   46.8836   10.6467   20.4998 C   0  0  0  0  0  0  0  0  0  0  0  0
   49.4692    7.0466   21.1488 N   0  0  0  0  0  0  0  0  0  0  0  0
   46.1822   11.7972   20.1425 C   0  0  0  0  0  0  0  0  0  0  0  0
   48.2083   13.0690   20.1713 C   0  0  0  0  0  0  0  0  0  0  0  0
   46.8350   13.0127   19.9725 C   0  0  0  0  0  0  0  0  0  0  0  0
   49.0938    9.4948   21.1174 C   0  0  2  0  0  0  0  0  0  0  0  0
   48.9684    5.6625   21.1428 C   0  0  0  0  0  0  0  0  0  0  0  0
   48.5038    8.0977   20.7851 C   0  0  0  0  0  0  0  0  0  0  0  0
   44.8327   11.6856   19.9697 O   0  0  0  0  0  0  0  0  0  0  0  0
   48.8251   14.2766   20.0094 O   0  0  0  0  0  0  0  0  0  0  0  0
   49.3035    9.5678   22.5386 O   0  0  0  0  0  0  0  0  0  0  0  0
   50.2001    4.7664   21.3826 C   0  0  0  0  0  0  0  0  0  0  0  0
   48.3425    5.2769   19.7928 C   0  0  0  0  0  0  0  0  0  0  0  0
   47.9621    5.4194   22.2818 C   0  0  0  0  0  0  0  0  0  0  0  0
   46.2242   10.5221   19.1835 H   0  0  0  0  0  0  0  0  0  0  0  0
   48.4771   10.7637   22.8600 H   0  0  0  0  0  0  0  0  0  0  0  0
   47.4499    6.5049   21.7672 H   0  0  0  0  0  0  0  0  0  0  0  0
   47.9333   14.2566   20.4280 H   0  0  0  0  0  0  0  0  0  0  0  0
   46.1164    8.7000   20.8094 H   0  0  0  0  0  0  0  0  0  0  0  0
   49.1432    8.3651   21.2010 H   0  0  0  0  0  0  0  0  0  0  0  0
   48.3291    8.3200   19.6268 H   0  0  0  0  0  0  0  0  0  0  0  0
   49.0451   14.1993   22.3999 H   0  0  0  0  0  0  0  0  0  0  0  0
   46.5860   13.9649   18.6304 H   0  0  0  0  0  0  0  0  0  0  0  0
   47.7006    8.2495   22.9822 H   0  0  0  0  0  0  0  0  0  0  0  0
   50.2316    6.8855   19.2509 H   0  0  0  0  0  0  0  0  0  0  0  0
   48.9933    5.8628   18.4991 H   0  0  0  0  0  0  0  0  0  0  0  0
   50.4674    5.1406   19.1521 H   0  0  0  0  0  0  0  0  0  0  0  0
   50.5892    6.8061   21.7946 H   0  0  0  0  0  0  0  0  0  0  0  0
   50.8169    5.0588   21.7355 H   0  0  0  0  0  0  0  0  0  0  0  0
   49.5844    5.7495   22.7977 H   0  0  0  0  0  0  0  0  0  0  0  0
   47.6576    4.1882   19.9442 H   0  0  0  0  0  0  0  0  0  0  0  0
   47.9332    4.1247   21.6930 H   0  0  0  0  0  0  0  0  0  0  0  0
   49.1798    3.5528   20.5794 H   0  0  0  0  0  0  0  0  0  0  0  0
   48.1914   10.5555   20.5590 H   0  0  0  0  0  0  0  0  0  0  0  0
   49.6390    7.3345   21.3562 H   0  0  0  0  0  0  0  0  0  0  0  0
   50.0015   11.9897   20.6976 H   0  0  0  0  0  0  0  0  0  0  0  0
   46.3228    9.7258   20.6278 H   0  0  0  0  0  0  0  0  0  0  0  0
   49.8355    7.2791   22.0768 H   0  0  0  0  0  0  0  0  0  0  0  0
   46.3000   13.9151   19.6958 H   0  0  0  0  0  0  0  0  0  0  0  0
   50.0806    9.5665   20.6413 H   0  0  0  0  0  0  0  0  0  0  0  0
   47.5785    7.9621   21.3550 H   0  0  0  0  0  0  0  0  0  0  0  0
   48.2764    8.0431   19.7149 H   0  0  0  0  0  0  0  0  0  0  0  0
   44.4892   12.5524   19.6911 H   0  0  0  0  0  0  0  0  0  0  0  0
   49.7792   14.1647   20.1621 H   0  0  0  0  0  0  0  0  0  0  0  0
   48.6206   10.1563   22.9074 H   0  0  0  0  0  0  0  0  0  0  0  0
   50.6843    4.9977   22.3393 H   0  0  0  0  0  0  0  0  0  0  0  0
   50.9477    4.8925   20.5898 H   0  0  0  0  0  0  0  0  0  0  0  0
   49.9211    3.7070   21.4035 H   0  0  0  0  0  0  0  0  0  0  0  0
   48.0821    4.2128   19.7724 H   0  0  0  0  0  0  0  0  0  0  0  0
   47.4211    5.8369   19.5919 H   0  0  0  0  0  0  0  0  0  0  0  0
   49.0384    5.4626   18.9660 H   0  0  0  0  0  0  0  0  0  0  0  0
   47.0259    5.9655   22.1299 H   0  0  0  0  0  0  0  0  0  0  0  0
   48.3754    5.7245   23.2500 H   0  0  0  0  0  0  0  0  0  0  0  0
   47.7065    4.3560   22.3545 H   0  0  0  0  0  0  0  0  0  0  0  0
  2  1  2  0
  3  1  1  0
  4 10  1  0
  5  3  2  0
  6  2  1  0
  7  5  1  0
  8  1  1  0
  9  4  1  0
 10  8  1  0
 11  5  1  0
 12  6  1  0
 13  8  1  0
 14  9  1  0
 15  9  1  0
 16  9  1  0
  6  7  2  0
 18 17  1  0
 19 17  1  0
 20 17  2  0
 21 17  2  0
 23 22  2  0
 24 22  1  0
 25 31  1  0
 26 24  2  0
 27 23  1  0
 28 26  1  0
 29 22  1  0
 30 25  1  0
 31 29  1  0
 32 26  1  0
 33 27  1  0
 34 29  1  0
 35 30  1  0
 36 30  1  0
 37 30  1  0
 27 28  2  0
  2 38  1  0
  3 39  1  0
  4 40  1  0
  7 41  1  0
  8 42  1  1
 10 43  1  0
 10 44  1  0
 11 45  1  0
 12 46  1  0
 13 47  1  0
 14 48  1  0
 14 49  1  0
 14 50  1  0
 15 51  1  0
 15 52  1  0
 15 53  1  0
 16 54  1  0
 16 55  1  0
 16 56  1  0
 18 57  1  0
 19 58  1  0
 23 59  1  0
 24 60  1  0
 25 61  1  0
 28 62  1  0
 29 63  1  6
 31 64  1  0
 31 65  1  0
 32 66  1  0
 33 67  1  0
 34 68  1  0
 35 69  1  0
 35 70  1  0
 35 71  1  0
 36 72  1  0
 36 73  1  0
 36 74  1  0
 37 75  1  0
 37 76  1  0
 37 77  1  0
M  END
> <Uni-Dock RESULT> 
ENERGY=   -5.563  LOWER_BOUND=    7.768  UPPER_BOUND=   10.016
INTER + INTRA:          -5.563
INTER:                  -5.563
INTRA:                   0.000
UNBOUND:                 0.000

$$$$

     RDKit          3D

 77 76  0  0  0  0  0  0  0  0999 V2000
   48.5701    6.0420   17.4932 C   0  0  0  0  0  0  0  0  0  0  0  0
   47.6677    4.9679   17.5159 C   0  0  0  0  0  0  0  0  0  0  0  0
   49.9443    5.7597   17.4362 C   0  0  0  0  0  0  0  0  0  0  0  0
   47.4149    9.3539   19.0370 N   0  0  0  0  0  0  0  0  0  0  0  0
   50.3928    4.4417   17.3862 C   0  0  0  0  0  0  0  0  0  0  0  0
   48.1334    3.6562   17.4595 C   0  0  0  0  0  0  0  0  0  0  0  0
   49.4958    3.3785   17.3941 C   0  0  0  0  0  0  0  0  0  0  0  0
   48.0524    7.4631   17.5547 C   0  0  1  0  0  0  0  0  0  0  0  0
   47.5823   10.1140   20.2842 C   0  0  0  0  0  0  0  0  0  0  0  0
   47.9732    7.9948   19.0103 C   0  0  0  0  0  0  0  0  0  0  0  0
   51.7412    4.2359   17.3295 O   0  0  0  0  0  0  0  0  0  0  0  0
   47.2048    2.6566   17.4698 O   0  0  0  0  0  0  0  0  0  0  0  0
   48.8913    8.3104   16.7530 O   0  0  0  0  0  0  0  0  0  0  0  0
   47.0602    9.3461   21.5070 C   0  0  0  0  0  0  0  0  0  0  0  0
   49.0504   10.5172   20.5012 C   0  0  0  0  0  0  0  0  0  0  0  0
   46.7483   11.3978   20.1193 C   0  0  0  0  0  0  0  0  0  0  0  0
   48.0269    7.7146   18.6488 S   0  0  0  0  0  0  0  0  0  0  0  0
   48.0659    6.1479   18.9986 O   0  0  0  0  0  0  0  0  0  0  0  0
   49.3167    8.2544   19.4349 O   0  0  0  0  0  0  0  0  0  0  0  0
   46.8851    8.3146   19.2923 O   0  0  0  0  0  0  0  0  0  0  0  0
   48.2954    7.8276   17.2370 O   0  0  0  0  0  0  0  0  0  0  0  0
   48.9450    5.6655   18.4039 C   0  0  0  0  0  0  0  0  0  0  0  0
   49.6587    4.4894   18.7032 C   0  0  0  0  0  0  0  0  0  0  0  0
   47.9835    5.6202   17.3829 C   0  0  0  0  0  0  0  0  0  0  0  0
   48.6560    9.1454   20.0639 N   0  0  0  0  0  0  0  0  0  0  0  0
   47.7319    4.4278   16.7061 C   0  0  0  0  0  0  0  0  0  0  0  0
   49.3916    3.3078   18.0155 C   0  0  0  0  0  0  0  0  0  0  0  0
   48.4278    3.2650   17.0165 C   0  0  0  0  0  0  0  0  0  0  0  0
   49.3015    6.9349   19.1515 C   0  0  2  0  0  0  0  0  0  0  0  0
   47.8593   10.3820   20.0120 C   0  0  0  0  0  0  0  0  0  0  0  0
   48.2103    8.0383   19.2010 C   0  0  0  0  0  0  0  0  0  0  0  0
   46.7809    4.4462   15.7270 O   0  0  0  0  0  0  0  0  0  0  0  0
   50.0696    2.1557   18.2945 O   0  0  0  0  0  0  0  0  0  0  0  0
   50.4852    7.4994   18.5605 O   0  0  0  0  0  0  0  0  0  0  0  0
   48.4257   11.2964   21.1169 C   0  0  0  0  0  0  0  0  0  0  0  0
   46.3721   10.1278   20.3067 C   0  0  0  0  0  0  0  0  0  0  0  0
   48.0159   11.1004   18.6598 C   0  0  0  0  0  0  0  0  0  0  0  0
   46.5959    5.1467   17.5663 H   0  0  0  0  0  0  0  0  0  0  0  0
   50.6718    6.5661   17.4157 H   0  0  0  0  0  0  0  0  0  0  0  0
   47.7362    9.8973   18.2357 H   0  0  0  0  0  0  0  0  0  0  0  0
   49.8487    2.3555   17.3552 H   0  0  0  0  0  0  0  0  0  0  0  0
   47.0580    7.4999   17.0926 H   0  0  0  0  0  0  0  0  0  0  0  0
   48.9820    7.9851   19.4356 H   0  0  0  0  0  0  0  0  0  0  0  0
   47.3453    7.3255   19.6077 H   0  0  0  0  0  0  0  0  0  0  0  0
   51.9110    3.2840   17.2435 H   0  0  0  0  0  0  0  0  0  0  0  0
   47.6501    1.8162   17.2731 H   0  0  0  0  0  0  0  0  0  0  0  0
   49.3989    8.8718   17.3602 H   0  0  0  0  0  0  0  0  0  0  0  0
   47.6583    8.4527   21.7173 H   0  0  0  0  0  0  0  0  0  0  0  0
   46.0202    9.0322   21.3633 H   0  0  0  0  0  0  0  0  0  0  0  0
   47.0915    9.9745   22.4051 H   0  0  0  0  0  0  0  0  0  0  0  0
   49.6907    9.6512   20.6986 H   0  0  0  0  0  0  0  0  0  0  0  0
   49.1473   11.1928   21.3597 H   0  0  0  0  0  0  0  0  0  0  0  0
   49.4546   11.0389   19.6259 H   0  0  0  0  0  0  0  0  0  0  0  0
   45.6899   11.1684   19.9476 H   0  0  0  0  0  0  0  0  0  0  0  0
   47.1013   12.0005   19.2737 H   0  0  0  0  0  0  0  0  0  0  0  0
   46.8078   12.0252   21.0156 H   0  0  0  0  0  0  0  0  0  0  0  0
   48.7540    5.7332   18.4392 H   0  0  0  0  0  0  0  0  0  0  0  0
   49.0101    8.9798   20.0203 H   0  0  0  0  0  0  0  0  0  0  0  0
   50.4269    4.5154   19.4741 H   0  0  0  0  0  0  0  0  0  0  0  0
   47.4172    6.5005   17.0942 H   0  0  0  0  0  0  0  0  0  0  0  0
   49.6293    9.3491   19.8175 H   0  0  0  0  0  0  0  0  0  0  0  0
   48.2419    2.3314   16.4962 H   0  0  0  0  0  0  0  0  0  0  0  0
   49.5543    6.6636   20.1849 H   0  0  0  0  0  0  0  0  0  0  0  0
   48.0384    8.4086   18.1847 H   0  0  0  0  0  0  0  0  0  0  0  0
   47.2786    7.6126   19.5892 H   0  0  0  0  0  0  0  0  0  0  0  0
   46.6921    3.5444   15.3724 H   0  0  0  0  0  0  0  0  0  0  0  0
   50.6951    2.3272   19.0194 H   0  0  0  0  0  0  0  0  0  0  0  0
   50.5699    7.1323   17.6623 H   0  0  0  0  0  0  0  0  0  0  0  0
   49.4880   11.5143   20.9517 H   0  0  0  0  0  0  0  0  0  0  0  0
   48.3285   10.8352   22.1075 H   0  0  0  0  0  0  0  0  0  0  0  0
   47.8950   12.2545   21.1487 H   0  0  0  0  0  0  0  0  0  0  0  0
   45.8206   11.0719   20.3765 H   0  0  0  0  0  0  0  0  0  0  0  0
   45.8928    9.5332   19.5195 H   0  0  0  0  0  0  0  0  0  0  0  0
   46.2417    9.5979   21.2578 H   0  0  0  0  0  0  0  0  0  0  0  0
   47.5585   10.5399   17.8385 H   0  0  0  0  0  0  0  0  0  0  0  0
   49.0720   11.2570   18.4122 H   0  0  0  0  0  0  0  0  0  0  0  0
   47.5351   12.0851   18.6846 H   0  0  0  0  0  0  0  0  0  0  0  0
  2  1  2  0
  3  1  1  0
  4 10  1  0
  5  3  2  0
  6  2  1  0
  7  5  1  0
  8  1  1  0
  9  4  1  0
 10  8  1  0
 11  5  1  0
 12  6  1  0
 13  8  1  0
 14  9  1  0
 15  9  1  0
 16  9  1  0
  6  7  2  0
 18 17  1  0
 19 17  1  0
 20 17  2  0
 21 17  2  0
 23 22  2  0
 24 22  1  0
 25 31  1  0
 26 24  2  0
 27 23  1  0
 28 26  1  0
 29 22  1  0
 30 25  1  0
 31 29  1  0
 32 26  1  0
 33 27  1  0
 34 29  1  0
 35 30  1  0
 36 30  1  0
 37 30  1  0
 27 28  2  0
  2 38  1  0
  3 39  1  0
  4 40  1  0
  7 41  1  0
  8 42  1  1
 10 43  1  0
 10 44  1  0
 11 45  1  0
 12 46  1  0
 13 47  1  0
 14 48  1  0
 14 49  1  0
 14 50  1  0
 15 51  1  0
 15 52  1  0
 15 53  1  0
 16 54  1  0
 16 55  1  0
 16 56  1  0
 18 57  1  0
 19 58  1  0
 23 59  1  0
 24 60  1  0
 25 61  1  0
 28 62  1  0
 29 63  1  6
 31 64  1  0
 31 65  1  0
 32 66  1  0
 33 67  1  0
 34 68  1  0
 35 69  1  0
 35 70  1  0
 35 71  1  0
 36 72  1  0
 36 73  1  0
 36 74  1  0
 37 75  1  0
 37 76  1  0
 37 77  1  0
M  END
> <Uni-Dock RESULT> 
ENERGY=   -5.328  LOWER_BOUND=    5.362  UPPER_BOUND=    7.098
INTER + INTRA:          -5.328
INTER:                  -5.328
INTRA:                   0.000
UNBOUND:                 0.000

$$$$

     RDKit          3D

 77 76  0  0  0  0  0  0  0  0999 V2000
   48.4189    9.8660   18.4150 C   0  0  0  0  0  0  0  0  0  0  0  0
   47.2265    9.6474   19.1213 C   0  0  0  0  0  0  0  0  0  0  0  0
   49.1520   11.0325   18.6856 C   0  0  0  0  0  0  0  0  0  0  0  0
   48.7670    8.2066   14.9782 N   0  0  0  0  0  0  0  0  0  0  0  0
   48.7084   11.9382   19.6466 C   0  0  0  0  0  0  0  0  0  0  0  0
   46.8006   10.5608   20.0830 C   0  0  0  0  0  0  0  0  0  0  0  0
   47.5334   11.7123   20.3562 C   0  0  0  0  0  0  0  0  0  0  0  0
   48.8718    8.8663   17.3725 C   0  0  1  0  0  0  0  0  0  0  0  0
   48.6474    8.5638   13.5572 C   0  0  0  0  0  0  0  0  0  0  0  0
   48.3567    9.2262   15.9537 C   0  0  0  0  0  0  0  0  0  0  0  0
   49.4689   13.0510   19.8634 O   0  0  0  0  0  0  0  0  0  0  0  0
   45.6408   10.2835   20.7460 O   0  0  0  0  0  0  0  0  0  0  0  0
   50.3062    8.7848   17.3828 O   0  0  0  0  0  0  0  0  0  0  0  0
   47.2351    9.0462   13.1964 C   0  0  0  0  0  0  0  0  0  0  0  0
   49.6862    9.6251   13.1574 C   0  0  0  0  0  0  0  0  0  0  0  0
   48.9426    7.2768   12.7650 C   0  0  0  0  0  0  0  0  0  0  0  0
   48.4215    9.2284   16.4096 S   0  0  0  0  0  0  0  0  0  0  0  0
   47.3672   10.1053   17.2451 O   0  0  0  0  0  0  0  0  0  0  0  0
   49.1255   10.3473   15.5010 O   0  0  0  0  0  0  0  0  0  0  0  0
   47.7060    8.3669   15.5020 O   0  0  0  0  0  0  0  0  0  0  0  0
   49.4004    8.7519   17.3544 O   0  0  0  0  0  0  0  0  0  0  0  0
   47.9588   10.7329   18.0295 C   0  0  0  0  0  0  0  0  0  0  0  0
   47.5785   11.9396   18.6472 C   0  0  0  0  0  0  0  0  0  0  0  0
   47.8676    9.5460   18.7725 C   0  0  0  0  0  0  0  0  0  0  0  0
   48.8863    9.7251   14.4139 N   0  0  0  0  0  0  0  0  0  0  0  0
   47.3863    9.5703   20.0806 C   0  0  0  0  0  0  0  0  0  0  0  0
   47.0994   11.9421   19.9552 C   0  0  0  0  0  0  0  0  0  0  0  0
   46.9965   10.7622   20.6805 C   0  0  0  0  0  0  0  0  0  0  0  0
   48.5126   10.7881   16.6197 C   0  0  2  0  0  0  0  0  0  0  0  0
   49.1183    8.5386   13.5741 C   0  0  0  0  0  0  0  0  0  0  0  0
   48.4299    9.4772   15.7921 C   0  0  0  0  0  0  0  0  0  0  0  0
   47.3159    8.3824   20.7494 O   0  0  0  0  0  0  0  0  0  0  0  0
   46.7210   13.1013   20.5700 O   0  0  0  0  0  0  0  0  0  0  0  0
   49.8913   11.1938   16.6829 O   0  0  0  0  0  0  0  0  0  0  0  0
   49.4128    9.0740   12.1584 C   0  0  0  0  0  0  0  0  0  0  0  0
   47.8824    7.6274   13.5016 C   0  0  0  0  0  0  0  0  0  0  0  0
   50.3408    7.7357   14.0535 C   0  0  0  0  0  0  0  0  0  0  0  0
   46.6279    8.7585   18.9346 H   0  0  0  0  0  0  0  0  0  0  0  0
   50.0807   11.2339   18.1590 H   0  0  0  0  0  0  0  0  0  0  0  0
   49.7024    7.8566   15.1862 H   0  0  0  0  0  0  0  0  0  0  0  0
   47.1922   12.4189   21.1023 H   0  0  0  0  0  0  0  0  0  0  0  0
   48.5115    7.8694   17.6552 H   0  0  0  0  0  0  0  0  0  0  0  0
   48.7609   10.2059   15.6790 H   0  0  0  0  0  0  0  0  0  0  0  0
   47.2645    9.3016   15.9722 H   0  0  0  0  0  0  0  0  0  0  0  0
   49.0779   13.5630   20.5897 H   0  0  0  0  0  0  0  0  0  0  0  0
   45.5451   10.9106   21.4814 H   0  0  0  0  0  0  0  0  0  0  0  0
   50.6251    9.2057   16.5687 H   0  0  0  0  0  0  0  0  0  0  0  0
   46.9904    9.9987   13.6792 H   0  0  0  0  0  0  0  0  0  0  0  0
   46.4779    8.3114   13.4919 H   0  0  0  0  0  0  0  0  0  0  0  0
   47.1391    9.1985   12.1147 H   0  0  0  0  0  0  0  0  0  0  0  0
   49.4904   10.5924   13.6315 H   0  0  0  0  0  0  0  0  0  0  0  0
   49.6792    9.7897   12.0731 H   0  0  0  0  0  0  0  0  0  0  0  0
   50.7003    9.3157   13.4358 H   0  0  0  0  0  0  0  0  0  0  0  0
   48.2368    6.4780   13.0217 H   0  0  0  0  0  0  0  0  0  0  0  0
   49.9551    6.9054   12.9647 H   0  0  0  0  0  0  0  0  0  0  0  0
   48.8647    7.4506   11.6861 H   0  0  0  0  0  0  0  0  0  0  0  0
   47.8587   10.5706   17.9525 H   0  0  0  0  0  0  0  0  0  0  0  0
   49.0375   10.0535   14.5689 H   0  0  0  0  0  0  0  0  0  0  0  0
   47.6693   12.8721   18.0930 H   0  0  0  0  0  0  0  0  0  0  0  0
   48.1662    8.5888   18.3559 H   0  0  0  0  0  0  0  0  0  0  0  0
   49.7447   10.2809   14.4740 H   0  0  0  0  0  0  0  0  0  0  0  0
   46.6216   10.7942   21.6980 H   0  0  0  0  0  0  0  0  0  0  0  0
   47.9710   11.5692   16.0700 H   0  0  0  0  0  0  0  0  0  0  0  0
   49.0698    8.7232   16.2627 H   0  0  0  0  0  0  0  0  0  0  0  0
   47.3961    9.1152   15.7847 H   0  0  0  0  0  0  0  0  0  0  0  0
   46.9326    8.5504   21.6279 H   0  0  0  0  0  0  0  0  0  0  0  0
   46.8294   13.8383   19.9445 H   0  0  0  0  0  0  0  0  0  0  0  0
   50.2094   11.0167   17.5863 H   0  0  0  0  0  0  0  0  0  0  0  0
   50.2924    9.7294   12.1523 H   0  0  0  0  0  0  0  0  0  0  0  0
   48.5654    9.6472   11.7625 H   0  0  0  0  0  0  0  0  0  0  0  0
   49.6090    8.2545   11.4580 H   0  0  0  0  0  0  0  0  0  0  0  0
   48.0374    6.8150   12.7831 H   0  0  0  0  0  0  0  0  0  0  0  0
   47.6574    7.1621   14.4690 H   0  0  0  0  0  0  0  0  0  0  0  0
   46.9957    8.1873   13.1810 H   0  0  0  0  0  0  0  0  0  0  0  0
   50.1671    7.2571   15.0222 H   0  0  0  0  0  0  0  0  0  0  0  0
   51.2251    8.3761   14.1491 H   0  0  0  0  0  0  0  0  0  0  0  0
   50.5873    6.9401   13.3408 H   0  0  0  0  0  0  0  0  0  0  0  0
  2  1  2  0
  3  1  1  0
  4 10  1  0
  5  3  2  0
  6  2  1  0
  7  5  1  0
  8  1  1  0
  9  4  1  0
 10  8  1  0
 11  5  1  0
 12  6  1  0
 13  8  1  0
 14  9  1  0
 15  9  1  0
 16  9  1  0
  6  7  2  0
 18 17  1  0
 19 17  1  0
 20 17  2  0
 21 17  2  0
 23 22  2  0
 24 22  1  0
 25 31  1  0
 26 24  2  0
 27 23  1  0
 28 26  1  0
 29 22  1  0
 30 25  1  0
 31 29  1  0
 32 26  1  0
 33 27  1  0
 34 29  1  0
 35 30  1  0
 36 30  1  0
 37 30  1  0
 27 28  2  0
  2 38  1  0
  3 39  1  0
  4 40  1  0
  7 41  1  0
  8 42  1  1
 10 43  1  0
 10 44  1  0
 11 45  1  0
 12 46  1  0
 13 47  1  0
 14 48  1  0
 14 49  1  0
 14 50  1  0
 15 51  1  0
 15 52  1  0
 15 53  1  0
 16 54  1  0
 16 55  1  0
 16 56  1  0
 18 57  1  0
 19 58  1  0
 23 59  1  0
 24 60  1  0
 25 61  1  0
 28 62  1  0
 29 63  1  6
 31 64  1  0
 31 65  1  0
 32 66  1  0
 33 67  1  0
 34 68  1  0
 35 69  1  0
 35 70  1  0
 35 71  1  0
 36 72  1  0
 36 73  1  0
 36 74  1  0
 37 75  1  0
 37 76  1  0
 37 77  1  0
M  END
> <Uni-Dock RESULT> 
ENERGY=   -5.172  LOWER_BOUND=    4.774  UPPER_BOUND=    6.843
INTER + INTRA:          -5.172
INTER:                  -5.172
INTRA:                   0.000
UNBOUND:                 0.000

$$$$

     RDKit          3D

 77 76  0  0  0  0  0  0  0  0999 V2000
   48.2468   10.4134   18.6927 C   0  0  0  0  0  0  0  0  0  0  0  0
   46.9619   10.7353   19.1552 C   0  0  0  0  0  0  0  0  0  0  0  0
   49.3115   11.2641   19.0306 C   0  0  0  0  0  0  0  0  0  0  0  0
   48.5004    8.2906   15.5122 N   0  0  0  0  0  0  0  0  0  0  0  0
   49.0922   12.3899   19.8213 C   0  0  0  0  0  0  0  0  0  0  0  0
   46.7615   11.8619   19.9496 C   0  0  0  0  0  0  0  0  0  0  0  0
   47.8198   12.6992   20.2909 C   0  0  0  0  0  0  0  0  0  0  0  0
   48.4524    9.1865   17.8303 C   0  0  1  0  0  0  0  0  0  0  0  0
   48.7597    8.4710   14.0764 C   0  0  0  0  0  0  0  0  0  0  0  0
   48.3521    9.5116   16.3164 C   0  0  0  0  0  0  0  0  0  0  0  0
   50.1704   13.1739   20.1155 O   0  0  0  0  0  0  0  0  0  0  0  0
   45.4912   12.1119   20.3801 O   0  0  0  0  0  0  0  0  0  0  0  0
   49.7267    8.5976   18.1366 O   0  0  0  0  0  0  0  0  0  0  0  0
   47.7147    9.3746   13.4064 C   0  0  0  0  0  0  0  0  0  0  0  0
   50.1730    9.0240   13.8280 C   0  0  0  0  0  0  0  0  0  0  0  0
   48.6718    7.0692   13.4453 C   0  0  0  0  0  0  0  0  0  0  0  0
   48.3371    9.5521   16.7749 S   0  0  0  0  0  0  0  0  0  0  0  0
   47.5711   10.8535   17.3210 O   0  0  0  0  0  0  0  0  0  0  0  0
   49.5508   10.2096   15.9577 O   0  0  0  0  0  0  0  0  0  0  0  0
   47.5084    8.8905   15.7986 O   0  0  0  0  0  0  0  0  0  0  0  0
   48.8936    8.8886   17.9273 O   0  0  0  0  0  0  0  0  0  0  0  0
   48.2188   11.3270   18.1669 C   0  0  0  0  0  0  0  0  0  0  0  0
   48.2274   12.6615   18.6155 C   0  0  0  0  0  0  0  0  0  0  0  0
   47.5648   10.3643   18.9509 C   0  0  0  0  0  0  0  0  0  0  0  0
   49.2759    9.5736   14.8871 N   0  0  0  0  0  0  0  0  0  0  0  0
   46.9209   10.7366   20.1298 C   0  0  0  0  0  0  0  0  0  0  0  0
   47.5772   13.0130   19.7962 C   0  0  0  0  0  0  0  0  0  0  0  0
   46.9181   12.0585   20.5601 C   0  0  0  0  0  0  0  0  0  0  0  0
   48.9756   10.9882   16.8981 C   0  0  2  0  0  0  0  0  0  0  0  0
   49.1764    8.2810   14.1901 C   0  0  0  0  0  0  0  0  0  0  0  0
   48.5403    9.6952   16.1572 C   0  0  0  0  0  0  0  0  0  0  0  0
   46.2977    9.7555   20.8457 O   0  0  0  0  0  0  0  0  0  0  0  0
   47.5699   14.3025   20.2455 O   0  0  0  0  0  0  0  0  0  0  0  0
   50.3746   10.8765   17.2132 O   0  0  0  0  0  0  0  0  0  0  0  0
   49.8795    8.4779   12.8320 C   0  0  0  0  0  0  0  0  0  0  0  0
   47.7176    7.8733   13.9274 C   0  0  0  0  0  0  0  0  0  0  0  0
   49.9078    7.1655   14.9581 C   0  0  0  0  0  0  0  0  0  0  0  0
   46.1110   10.1041   18.9087 H   0  0  0  0  0  0  0  0  0  0  0  0
   50.3201   11.0455   18.6914 H   0  0  0  0  0  0  0  0  0  0  0  0
   49.1860    7.6598   15.9277 H   0  0  0  0  0  0  0  0  0  0  0  0
   47.6538   13.5753   20.9052 H   0  0  0  0  0  0  0  0  0  0  0  0
   47.7007    8.4335   18.0979 H   0  0  0  0  0  0  0  0  0  0  0  0
   49.1359   10.2340   16.0668 H   0  0  0  0  0  0  0  0  0  0  0  0
   47.3825    9.9758   16.1081 H   0  0  0  0  0  0  0  0  0  0  0  0
   49.8886   13.8854   20.7128 H   0  0  0  0  0  0  0  0  0  0  0  0
   45.5205   12.8250   21.0388 H   0  0  0  0  0  0  0  0  0  0  0  0
   50.3100    8.7616   17.3787 H   0  0  0  0  0  0  0  0  0  0  0  0
   47.7728   10.4074   13.7672 H   0  0  0  0  0  0  0  0  0  0  0  0
   46.6984    9.0078   13.5890 H   0  0  0  0  0  0  0  0  0  0  0  0
   47.8623    9.4031   12.3202 H   0  0  0  0  0  0  0  0  0  0  0  0
   50.2828   10.0517   14.1892 H   0  0  0  0  0  0  0  0  0  0  0  0
   50.4069    9.0316   12.7565 H   0  0  0  0  0  0  0  0  0  0  0  0
   50.9342    8.4119   14.3256 H   0  0  0  0  0  0  0  0  0  0  0  0
   47.6846    6.6196   13.6045 H   0  0  0  0  0  0  0  0  0  0  0  0
   49.4211    6.3898   13.8696 H   0  0  0  0  0  0  0  0  0  0  0  0
   48.8436    7.1115   12.3640 H   0  0  0  0  0  0  0  0  0  0  0  0
   48.0789   11.2025   18.0818 H   0  0  0  0  0  0  0  0  0  0  0  0
   49.5125    9.8436   15.0480 H   0  0  0  0  0  0  0  0  0  0  0  0
   48.7537   13.4150   18.0322 H   0  0  0  0  0  0  0  0  0  0  0  0
   47.5432    9.3167   18.6661 H   0  0  0  0  0  0  0  0  0  0  0  0
   50.2583    9.7869   15.0840 H   0  0  0  0  0  0  0  0  0  0  0  0
   46.4217   12.3605   21.4763 H   0  0  0  0  0  0  0  0  0  0  0  0
   48.8678   11.8294   16.2008 H   0  0  0  0  0  0  0  0  0  0  0  0
   48.7608    8.8330   16.7954 H   0  0  0  0  0  0  0  0  0  0  0  0
   47.4626    9.7310   15.9637 H   0  0  0  0  0  0  0  0  0  0  0  0
   45.8679   10.1672   21.6155 H   0  0  0  0  0  0  0  0  0  0  0  0
   48.0501   14.8595   19.6087 H   0  0  0  0  0  0  0  0  0  0  0  0
   50.4492   10.7211   18.1719 H   0  0  0  0  0  0  0  0  0  0  0  0
   50.9297    8.7665   12.9621 H   0  0  0  0  0  0  0  0  0  0  0  0
   49.3892    9.2578   12.2364 H   0  0  0  0  0  0  0  0  0  0  0  0
   49.8632    7.5558   12.2402 H   0  0  0  0  0  0  0  0  0  0  0  0
   47.6696    6.9701   13.3091 H   0  0  0  0  0  0  0  0  0  0  0  0
   47.1779    7.6554   14.8570 H   0  0  0  0  0  0  0  0  0  0  0  0
   47.1742    8.6652   13.3982 H   0  0  0  0  0  0  0  0  0  0  0  0
   49.4096    6.9171   15.9004 H   0  0  0  0  0  0  0  0  0  0  0  0
   50.9400    7.4525   15.1896 H   0  0  0  0  0  0  0  0  0  0  0  0
   49.9484    6.2458   14.3631 H   0  0  0  0  0  0  0  0  0  0  0  0
  2  1  2  0
  3  1  1  0
  4 10  1  0
  5  3  2  0
  6  2  1  0
  7  5  1  0
  8  1  1  0
  9  4  1  0
 10  8  1  0
 11  5  1  0
 12  6  1  0
 13  8  1  0
 14  9  1  0
 15  9  1  0
 16  9  1  0
  6  7  2  0
 18 17  1  0
 19 17  1  0
 20 17  2  0
 21 17  2  0
 23 22  2  0
 24 22  1  0
 25 31  1  0
 26 24  2  0
 27 23  1  0
 28 26  1  0
 29 22  1  0
 30 25  1  0
 31 29  1  0
 32 26  1  0
 33 27  1  0
 34 29  1  0
 35 30  1  0
 36 30  1  0
 37 30  1  0
 27 28  2  0
  2 38  1  0
  3 39  1  0
  4 40  1  0
  7 41  1  0
  8 42  1  1
 10 43  1  0
 10 44  1  0
 11 45  1  0
 12 46  1  0
 13 47  1  0
 14 48  1  0
 14 49  1  0
 14 50  1  0
 15 51  1  0
 15 52  1  0
 15 53  1  0
 16 54  1  0
 16 55  1  0
 16 56  1  0
 18 57  1  0
 19 58  1  0
 23 59  1  0
 24 60  1  0
 25 61  1  0
 28 62  1  0
 29 63  1  6
 31 64  1  0
 31 65  1  0
 32 66  1  0
 33 67  1  0
 34 68  1  0
 35 69  1  0
 35 70  1  0
 35 71  1  0
 36 72  1  0
 36 73  1  0
 36 74  1  0
 37 75  1  0
 37 76  1  0
 37 77  1  0
M  END
> <Uni-Dock RESULT> 
ENERGY=   -5.106  LOWER_BOUND=    5.050  UPPER_BOUND=    7.387
INTER + INTRA:          -5.106
INTER:                  -5.106
INTRA:                   0.000
UNBOUND:                 0.000

$$$$

     RDKit          3D

 77 76  0  0  0  0  0  0  0  0999 V2000
   48.1454    8.6132   19.7048 C   0  0  0  0  0  0  0  0  0  0  0  0
   47.1386    9.5338   19.3772 C   0  0  0  0  0  0  0  0  0  0  0  0
   49.4496    9.0924   19.9070 C   0  0  0  0  0  0  0  0  0  0  0  0
   47.6520    4.9815   18.5852 N   0  0  0  0  0  0  0  0  0  0  0  0
   49.7261   10.4536   19.8002 C   0  0  0  0  0  0  0  0  0  0  0  0
   47.4317   10.8922   19.2801 C   0  0  0  0  0  0  0  0  0  0  0  0
   48.7234   11.3666   19.4897 C   0  0  0  0  0  0  0  0  0  0  0  0
   47.8152    7.1395   19.8078 C   0  0  1  0  0  0  0  0  0  0  0  0
   48.1067    4.0788   17.5176 C   0  0  0  0  0  0  0  0  0  0  0  0
   48.0350    6.3951   18.4643 C   0  0  0  0  0  0  0  0  0  0  0  0
   51.0139   10.8543   20.0113 O   0  0  0  0  0  0  0  0  0  0  0  0
   46.4059   11.7380   18.9733 O   0  0  0  0  0  0  0  0  0  0  0  0
   48.6074    6.5459   20.8491 O   0  0  0  0  0  0  0  0  0  0  0  0
   47.7021    4.5780   16.1232 C   0  0  0  0  0  0  0  0  0  0  0  0
   49.6277    3.8600   17.5795 C   0  0  0  0  0  0  0  0  0  0  0  0
   47.4138    2.7278   17.7742 C   0  0  0  0  0  0  0  0  0  0  0  0
   47.9963    6.7298   18.7781 S   0  0  0  0  0  0  0  0  0  0  0  0
   47.9068    8.2182   18.1820 O   0  0  0  0  0  0  0  0  0  0  0  0
   49.4505    6.2691   18.2821 O   0  0  0  0  0  0  0  0  0  0  0  0
   47.0520    5.8867   18.0888 O   0  0  0  0  0  0  0  0  0  0  0  0
   48.0449    6.8635   20.2126 O   0  0  0  0  0  0  0  0  0  0  0  0
   48.6155    8.9018   18.8062 C   0  0  0  0  0  0  0  0  0  0  0  0
   49.2250   10.1106   18.4193 C   0  0  0  0  0  0  0  0  0  0  0  0
   47.5033    8.9593   19.6598 C   0  0  0  0  0  0  0  0  0  0  0  0
   49.0094    5.2112   17.7231 N   0  0  0  0  0  0  0  0  0  0  0  0
   47.0073   10.1901   20.0870 C   0  0  0  0  0  0  0  0  0  0  0  0
   48.7133   11.3302   18.8567 C   0  0  0  0  0  0  0  0  0  0  0  0
   47.6026   11.3816   19.6889 C   0  0  0  0  0  0  0  0  0  0  0  0
   49.2347    7.6002   18.3375 C   0  0  2  0  0  0  0  0  0  0  0  0
   48.3657    3.8953   17.8668 C   0  0  0  0  0  0  0  0  0  0  0  0
   48.3032    6.3582   18.3187 C   0  0  0  0  0  0  0  0  0  0  0  0
   45.9197   10.1805   20.9118 O   0  0  0  0  0  0  0  0  0  0  0  0
   49.2872   12.5134   18.4887 O   0  0  0  0  0  0  0  0  0  0  0  0
   50.3656    7.3014   19.1747 O   0  0  0  0  0  0  0  0  0  0  0  0
   49.2065    2.9188   17.0200 C   0  0  0  0  0  0  0  0  0  0  0  0
   46.9261    3.8907   17.3276 C   0  0  0  0  0  0  0  0  0  0  0  0
   48.3854    3.4117   19.3279 C   0  0  0  0  0  0  0  0  0  0  0  0
   46.1176    9.1997   19.2068 H   0  0  0  0  0  0  0  0  0  0  0  0
   50.2540    8.4088   20.1635 H   0  0  0  0  0  0  0  0  0  0  0  0
   47.9015    4.6120   19.5027 H   0  0  0  0  0  0  0  0  0  0  0  0
   48.9427   12.4237   19.4075 H   0  0  0  0  0  0  0  0  0  0  0  0
   46.7706    7.0303   20.1249 H   0  0  0  0  0  0  0  0  0  0  0  0
   49.0910    6.4852   18.1895 H   0  0  0  0  0  0  0  0  0  0  0  0
   47.4375    6.8742   17.6816 H   0  0  0  0  0  0  0  0  0  0  0  0
   51.0546   11.8229   19.9611 H   0  0  0  0  0  0  0  0  0  0  0  0
   46.7117   12.6526   19.0885 H   0  0  0  0  0  0  0  0  0  0  0  0
   49.2688    5.9794   20.4211 H   0  0  0  0  0  0  0  0  0  0  0  0
   48.2172    5.5067   15.8538 H   0  0  0  0  0  0  0  0  0  0  0  0
   46.6230    4.7591   16.0649 H   0  0  0  0  0  0  0  0  0  0  0  0
   47.9517    3.8360   15.3554 H   0  0  0  0  0  0  0  0  0  0  0  0
   50.1851    4.7697   17.3332 H   0  0  0  0  0  0  0  0  0  0  0  0
   49.9406    3.0869   16.8674 H   0  0  0  0  0  0  0  0  0  0  0  0
   49.9438    3.5343   18.5774 H   0  0  0  0  0  0  0  0  0  0  0  0
   46.3221    2.8277   17.7547 H   0  0  0  0  0  0  0  0  0  0  0  0
   47.6941    2.3112   18.7494 H   0  0  0  0  0  0  0  0  0  0  0  0
   47.6905    1.9910   17.0120 H   0  0  0  0  0  0  0  0  0  0  0  0
   48.4420    8.8033   18.7561 H   0  0  0  0  0  0  0  0  0  0  0  0
   49.3299    5.4298   17.7880 H   0  0  0  0  0  0  0  0  0  0  0  0
   50.1051   10.0813   17.7794 H   0  0  0  0  0  0  0  0  0  0  0  0
   47.0053    8.0594   20.0079 H   0  0  0  0  0  0  0  0  0  0  0  0
   49.9472    5.1855   18.1344 H   0  0  0  0  0  0  0  0  0  0  0  0
   47.2268   12.3455   20.0156 H   0  0  0  0  0  0  0  0  0  0  0  0
   49.6173    7.7506   17.3194 H   0  0  0  0  0  0  0  0  0  0  0  0
   48.0143    6.1198   19.3479 H   0  0  0  0  0  0  0  0  0  0  0  0
   47.4029    6.5864   17.7379 H   0  0  0  0  0  0  0  0  0  0  0  0
   45.6694   11.1027   21.0956 H   0  0  0  0  0  0  0  0  0  0  0  0
   50.0373   12.3281   17.8977 H   0  0  0  0  0  0  0  0  0  0  0  0
   50.2605    7.8041   20.0024 H   0  0  0  0  0  0  0  0  0  0  0  0
   50.2464    2.8799   17.3670 H   0  0  0  0  0  0  0  0  0  0  0  0
   49.2169    3.2118   15.9629 H   0  0  0  0  0  0  0  0  0  0  0  0
   48.8043    1.9009   17.0733 H   0  0  0  0  0  0  0  0  0  0  0  0
   46.5080    2.8780   17.3385 H   0  0  0  0  0  0  0  0  0  0  0  0
   46.2596    4.5200   17.9296 H   0  0  0  0  0  0  0  0  0  0  0  0
   46.8896    4.2520   16.2929 H   0  0  0  0  0  0  0  0  0  0  0  0
   47.7388    4.0157   19.9721 H   0  0  0  0  0  0  0  0  0  0  0  0
   49.3987    3.4440   19.7443 H   0  0  0  0  0  0  0  0  0  0  0  0
   48.0341    2.3759   19.3995 H   0  0  0  0  0  0  0  0  0  0  0  0
  2  1  2  0
  3  1  1  0
  4 10  1  0
  5  3  2  0
  6  2  1  0
  7  5  1  0
  8  1  1  0
  9  4  1  0
 10  8  1  0
 11  5  1  0
 12  6  1  0
 13  8  1  0
 14  9  1  0
 15  9  1  0
 16  9  1  0
  6  7  2  0
 18 17  1  0
 19 17  1  0
 20 17  2  0
 21 17  2  0
 23 22  2  0
 24 22  1  0
 25 31  1  0
 26 24  2  0
 27 23  1  0
 28 26  1  0
 29 22  1  0
 30 25  1  0
 31 29  1  0
 32 26  1  0
 33 27  1  0
 34 29  1  0
 35 30  1  0
 36 30  1  0
 37 30  1  0
 27 28  2  0
  2 38  1  0
  3 39  1  0
  4 40  1  0
  7 41  1  0
  8 42  1  1
 10 43  1  0
 10 44  1  0
 11 45  1  0
 12 46  1  0
 13 47  1  0
 14 48  1  0
 14 49  1  0
 14 50  1  0
 15 51  1  0
 15 52  1  0
 15 53  1  0
 16 54  1  0
 16 55  1  0
 16 56  1  0
 18 57  1  0
 19 58  1  0
 23 59  1  0
 24 60  1  0
 25 61  1  0
 28 62  1  0
 29 63  1  6
 31 64  1  0
 31 65  1  0
 32 66  1  0
 33 67  1  0
 34 68  1  0
 35 69  1  0
 35 70  1  0
 35 71  1  0
 36 72  1  0
 36 73  1  0
 36 74  1  0
 37 75  1  0
 37 76  1  0
 37 77  1  0
M  END
> <Uni-Dock RESULT> 
ENERGY=   -5.072  LOWER_BOUND=    5.550  UPPER_BOUND=    8.315
INTER + INTRA:          -5.072
INTER:                  -5.072
INTRA:                   0.000
UNBOUND:                 0.000

$$$$

     RDKit          3D

 77 76  0  0  0  0  0  0  0  0999 V2000
   48.6654    6.4975   18.1190 C   0  0  0  0  0  0  0  0  0  0  0  0
   48.0238    6.2157   16.9035 C   0  0  0  0  0  0  0  0  0  0  0  0
   48.8797    5.4440   19.0220 C   0  0  0  0  0  0  0  0  0  0  0  0
   48.4086   10.0765   19.4648 N   0  0  0  0  0  0  0  0  0  0  0  0
   48.4773    4.1487   18.7041 C   0  0  0  0  0  0  0  0  0  0  0  0
   47.6331    4.9135   16.5994 C   0  0  0  0  0  0  0  0  0  0  0  0
   47.8544    3.8687   17.4922 C   0  0  0  0  0  0  0  0  0  0  0  0
   49.0857    7.9163   18.4384 C   0  0  1  0  0  0  0  0  0  0  0  0
   47.6426   10.8322   20.4666 C   0  0  0  0  0  0  0  0  0  0  0  0
   47.9910    8.6888   19.2210 C   0  0  0  0  0  0  0  0  0  0  0  0
   48.7174    3.1697   19.6246 O   0  0  0  0  0  0  0  0  0  0  0  0
   47.0276    4.7020   15.3951 O   0  0  0  0  0  0  0  0  0  0  0  0
   50.3152    7.8925   19.1814 O   0  0  0  0  0  0  0  0  0  0  0  0
   46.1349   10.8184   20.1766 C   0  0  0  0  0  0  0  0  0  0  0  0
   47.9119   10.3100   21.8878 C   0  0  0  0  0  0  0  0  0  0  0  0
   48.1441   12.2856   20.3831 C   0  0  0  0  0  0  0  0  0  0  0  0
   48.2093    8.3624   18.9805 S   0  0  0  0  0  0  0  0  0  0  0  0
   47.2664    7.2076   18.3840 O   0  0  0  0  0  0  0  0  0  0  0  0
   47.9915    8.1756   20.5587 O   0  0  0  0  0  0  0  0  0  0  0  0
   47.6497    9.6486   18.6482 O   0  0  0  0  0  0  0  0  0  0  0  0
   49.5664    7.9826   18.6777 O   0  0  0  0  0  0  0  0  0  0  0  0
   47.7772    6.1801   18.5901 C   0  0  0  0  0  0  0  0  0  0  0  0
   47.1756    4.9109   18.6871 C   0  0  0  0  0  0  0  0  0  0  0  0
   48.4725    6.5002   17.4140 C   0  0  0  0  0  0  0  0  0  0  0  0
   47.6613    9.3945   20.7355 N   0  0  0  0  0  0  0  0  0  0  0  0
   48.5372    5.5855   16.3641 C   0  0  0  0  0  0  0  0  0  0  0  0
   47.2513    4.0114   17.6261 C   0  0  0  0  0  0  0  0  0  0  0  0
   47.9275    4.3397   16.4583 C   0  0  0  0  0  0  0  0  0  0  0  0
   47.7022    7.1066   19.7873 C   0  0  2  0  0  0  0  0  0  0  0  0
   48.0505   10.8137   20.7031 C   0  0  0  0  0  0  0  0  0  0  0  0
   47.8871    8.6215   19.5024 C   0  0  0  0  0  0  0  0  0  0  0  0
   49.2233    5.9575   15.2442 O   0  0  0  0  0  0  0  0  0  0  0  0
   46.6704    2.7777   17.6989 O   0  0  0  0  0  0  0  0  0  0  0  0
   48.6988    6.7040   20.7433 O   0  0  0  0  0  0  0  0  0  0  0  0
   47.5551   11.4183   22.0323 C   0  0  0  0  0  0  0  0  0  0  0  0
   47.3827   11.5730   19.5453 C   0  0  0  0  0  0  0  0  0  0  0  0
   49.5791   10.9804   20.6338 C   0  0  0  0  0  0  0  0  0  0  0  0
   47.8344    7.0068   16.1814 H   0  0  0  0  0  0  0  0  0  0  0  0
   49.3748    5.6249   19.9719 H   0  0  0  0  0  0  0  0  0  0  0  0
   49.4087   10.1290   19.6583 H   0  0  0  0  0  0  0  0  0  0  0  0
   47.5432    2.8605   17.2491 H   0  0  0  0  0  0  0  0  0  0  0  0
   49.3103    8.4405   17.5012 H   0  0  0  0  0  0  0  0  0  0  0  0
   47.8130    8.1689   20.1679 H   0  0  0  0  0  0  0  0  0  0  0  0
   47.0587    8.6789   18.6468 H   0  0  0  0  0  0  0  0  0  0  0  0
   48.4399    2.3157   19.2557 H   0  0  0  0  0  0  0  0  0  0  0  0
   46.9500    3.7450   15.2497 H   0  0  0  0  0  0  0  0  0  0  0  0
   50.1068    8.1525   20.0927 H   0  0  0  0  0  0  0  0  0  0  0  0
   45.7045    9.8170   20.2868 H   0  0  0  0  0  0  0  0  0  0  0  0
   45.9237   11.1687   19.1601 H   0  0  0  0  0  0  0  0  0  0  0  0
   45.5983   11.4785   20.8686 H   0  0  0  0  0  0  0  0  0  0  0  0
   47.5127    9.3017   22.0388 H   0  0  0  0  0  0  0  0  0  0  0  0
   47.4431   10.9585   22.6378 H   0  0  0  0  0  0  0  0  0  0  0  0
   48.9859   10.2801   22.1052 H   0  0  0  0  0  0  0  0  0  0  0  0
   47.9886   12.7060   19.3825 H   0  0  0  0  0  0  0  0  0  0  0  0
   49.2145   12.3552   20.6125 H   0  0  0  0  0  0  0  0  0  0  0  0
   47.6144   12.9276   21.0957 H   0  0  0  0  0  0  0  0  0  0  0  0
   47.7347    6.3544   18.4895 H   0  0  0  0  0  0  0  0  0  0  0  0
   47.7044    9.0452   20.9112 H   0  0  0  0  0  0  0  0  0  0  0  0
   46.6559    4.6375   19.6037 H   0  0  0  0  0  0  0  0  0  0  0  0
   48.9738    7.4554   17.2908 H   0  0  0  0  0  0  0  0  0  0  0  0
   48.1612    8.9148   21.4901 H   0  0  0  0  0  0  0  0  0  0  0  0
   47.9719    3.6189   15.6487 H   0  0  0  0  0  0  0  0  0  0  0  0
   46.7229    6.9699   20.2646 H   0  0  0  0  0  0  0  0  0  0  0  0
   48.9079    8.7898   19.1431 H   0  0  0  0  0  0  0  0  0  0  0  0
   47.1787    8.9361   18.7283 H   0  0  0  0  0  0  0  0  0  0  0  0
   49.1527    5.2390   14.5918 H   0  0  0  0  0  0  0  0  0  0  0  0
   46.2220    2.6921   18.5579 H   0  0  0  0  0  0  0  0  0  0  0  0
   49.3656    6.1757   20.2690 H   0  0  0  0  0  0  0  0  0  0  0  0
   48.0066   10.9137   22.8953 H   0  0  0  0  0  0  0  0  0  0  0  0
   46.4655   11.3358   22.1285 H   0  0  0  0  0  0  0  0  0  0  0  0
   47.8102   12.4815   22.1032 H   0  0  0  0  0  0  0  0  0  0  0  0
   47.5940   12.6463   19.6083 H   0  0  0  0  0  0  0  0  0  0  0  0
   47.7435   11.2316   18.5675 H   0  0  0  0  0  0  0  0  0  0  0  0
   46.2934   11.4490   19.5662 H   0  0  0  0  0  0  0  0  0  0  0  0
   49.9886   10.6446   19.6761 H   0  0  0  0  0  0  0  0  0  0  0  0
   50.0776   10.4144   21.4290 H   0  0  0  0  0  0  0  0  0  0  0  0
   49.8613   12.0328   20.7536 H   0  0  0  0  0  0  0  0  0  0  0  0
  2  1  2  0
  3  1  1  0
  4 10  1  0
  5  3  2  0
  6  2  1  0
  7  5  1  0
  8  1  1  0
  9  4  1  0
 10  8  1  0
 11  5  1  0
 12  6  1  0
 13  8  1  0
 14  9  1  0
 15  9  1  0
 16  9  1  0
  6  7  2  0
 18 17  1  0
 19 17  1  0
 20 17  2  0
 21 17  2  0
 23 22  2  0
 24 22  1  0
 25 31  1  0
 26 24  2  0
 27 23  1  0
 28 26  1  0
 29 22  1  0
 30 25  1  0
 31 29  1  0
 32 26  1  0
 33 27  1  0
 34 29  1  0
 35 30  1  0
 36 30  1  0
 37 30  1  0
 27 28  2  0
  2 38  1  0
  3 39  1  0
  4 40  1  0
  7 41  1  0
  8 42  1  1
 10 43  1  0
 10 44  1  0
 11 45  1  0
 12 46  1  0
 13 47  1  0
 14 48  1  0
 14 49  1  0
 14 50  1  0
 15 51  1  0
 15 52  1  0
 15 53  1  0
 16 54  1  0
 16 55  1  0
 16 56  1  0
 18 57  1  0
 19 58  1  0
 23 59  1  0
 24 60  1  0
 25 61  1  0
 28 62  1  0
 29 63  1  6
 31 64  1  0
 31 65  1  0
 32 66  1  0
 33 67  1  0
 34 68  1  0
 35 69  1  0
 35 70  1  0
 35 71  1  0
 36 72  1  0
 36 73  1  0
 36 74  1  0
 37 75  1  0
 37 76  1  0
 37 77  1  0
M  END
> <Uni-Dock RESULT> 
ENERGY=   -4.926  LOWER_BOUND=    5.613  UPPER_BOUND=    7.240
INTER + INTRA:          -4.926
INTER:                  -4.926
INTRA:                   0.000
UNBOUND:                 0.000

$$$$
