
     RDKit          3D

 77 76  0  0  0  0  0  0  0  0999 V2000
   49.5586    6.2195   17.2630 C   0  0  0  0  0  0  0  0  0  0  0  0
   48.7698    5.6138   18.2552 C   0  0  0  0  0  0  0  0  0  0  0  0
   50.8431    5.7042   17.0217 C   0  0  0  0  0  0  0  0  0  0  0  0
   48.1792    8.1973   14.2905 N   0  0  0  0  0  0  0  0  0  0  0  0
   51.3126    4.6121   17.7486 C   0  0  0  0  0  0  0  0  0  0  0  0
   49.2599    4.5236   18.9740 C   0  0  0  0  0  0  0  0  0  0  0  0
   50.5285    4.0146   18.7285 C   0  0  0  0  0  0  0  0  0  0  0  0
   49.0646    7.4028   16.4590 C   0  0  1  0  0  0  0  0  0  0  0  0
   47.8858    8.0088   12.8549 C   0  0  0  0  0  0  0  0  0  0  0  0
   48.7743    7.0331   14.9797 C   0  0  0  0  0  0  0  0  0  0  0  0
   52.5640    4.1500   17.4588 O   0  0  0  0  0  0  0  0  0  0  0  0
   48.5093    3.9182   19.9393 O   0  0  0  0  0  0  0  0  0  0  0  0
   47.8716    7.9566   17.0308 O   0  0  0  0  0  0  0  0  0  0  0  0
   47.1357    9.2784   12.4064 C   0  0  0  0  0  0  0  0  0  0  0  0
   46.9802    6.7939   12.5940 C   0  0  0  0  0  0  0  0  0  0  0  0
   49.1780    7.8908   12.0272 C   0  0  0  0  0  0  0  0  0  0  0  0
   49.1772    7.0223   15.3478 S   0  0  0  0  0  0  0  0  0  0  0  0
   48.4849    6.4054   14.0394 O   0  0  0  0  0  0  0  0  0  0  0  0
   48.4449    6.1929   16.5096 O   0  0  0  0  0  0  0  0  0  0  0  0
   50.5582    6.6143   15.3707 O   0  0  0  0  0  0  0  0  0  0  0  0
   48.7446    8.3942   15.4292 O   0  0  0  0  0  0  0  0  0  0  0  0
   49.4260    6.1512   16.9007 C   0  0  0  0  0  0  0  0  0  0  0  0
   50.5886    5.4958   17.3355 C   0  0  0  0  0  0  0  0  0  0  0  0
   48.2035    5.4655   16.9732 C   0  0  0  0  0  0  0  0  0  0  0  0
   49.1400    6.8903   13.8663 N   0  0  0  0  0  0  0  0  0  0  0  0
   48.1579    4.1612   17.4566 C   0  0  0  0  0  0  0  0  0  0  0  0
   50.5226    4.1923   17.8210 C   0  0  0  0  0  0  0  0  0  0  0  0
   49.3118    3.5103   17.8834 C   0  0  0  0  0  0  0  0  0  0  0  0
   49.4809    7.5503   16.3256 C   0  0  2  0  0  0  0  0  0  0  0  0
   48.2051    7.7063   13.0783 C   0  0  0  0  0  0  0  0  0  0  0  0
   49.9823    7.5778   14.8534 C   0  0  0  0  0  0  0  0  0  0  0  0
   46.9392    3.5468   17.4873 O   0  0  0  0  0  0  0  0  0  0  0  0
   51.6871    3.6102   18.2286 O   0  0  0  0  0  0  0  0  0  0  0  0
   50.3469    8.3504   17.1377 O   0  0  0  0  0  0  0  0  0  0  0  0
   47.3267    6.7201   12.2835 C   0  0  0  0  0  0  0  0  0  0  0  0
   48.9778    8.5760   12.0722 C   0  0  0  0  0  0  0  0  0  0  0  0
   47.2873    8.5850   13.9396 C   0  0  0  0  0  0  0  0  0  0  0  0
   47.7764    6.0014   18.4587 H   0  0  0  0  0  0  0  0  0  0  0  0
   51.4869    6.1468   16.2623 H   0  0  0  0  0  0  0  0  0  0  0  0
   48.8065    9.0011   14.3934 H   0  0  0  0  0  0  0  0  0  0  0  0
   50.8819    3.1653   19.3015 H   0  0  0  0  0  0  0  0  0  0  0  0
   49.8231    8.1955   16.5036 H   0  0  0  0  0  0  0  0  0  0  0  0
   49.6988    6.7081   14.4917 H   0  0  0  0  0  0  0  0  0  0  0  0
   48.0608    6.2005   14.9683 H   0  0  0  0  0  0  0  0  0  0  0  0
   52.7544    3.3995   18.0462 H   0  0  0  0  0  0  0  0  0  0  0  0
   47.6747    4.4102   20.0286 H   0  0  0  0  0  0  0  0  0  0  0  0
   47.4167    8.3793   16.2731 H   0  0  0  0  0  0  0  0  0  0  0  0
   47.7469   10.1778   12.5487 H   0  0  0  0  0  0  0  0  0  0  0  0
   46.8745    9.2275   11.3433 H   0  0  0  0  0  0  0  0  0  0  0  0
   46.2052    9.4136   12.9705 H   0  0  0  0  0  0  0  0  0  0  0  0
   46.6620    6.7631   11.5455 H   0  0  0  0  0  0  0  0  0  0  0  0
   46.0741    6.8306   13.2119 H   0  0  0  0  0  0  0  0  0  0  0  0
   47.4958    5.8488   12.7968 H   0  0  0  0  0  0  0  0  0  0  0  0
   49.7299    6.9717   12.2552 H   0  0  0  0  0  0  0  0  0  0  0  0
   49.8484    8.7392   12.2108 H   0  0  0  0  0  0  0  0  0  0  0  0
   48.9546    7.8752   10.9547 H   0  0  0  0  0  0  0  0  0  0  0  0
   47.6495    6.9001   13.9040 H   0  0  0  0  0  0  0  0  0  0  0  0
   49.0182    5.4254   16.7185 H   0  0  0  0  0  0  0  0  0  0  0  0
   51.5491    6.0049   17.2981 H   0  0  0  0  0  0  0  0  0  0  0  0
   47.2808    5.9432   16.6499 H   0  0  0  0  0  0  0  0  0  0  0  0
   48.6568    6.1111   14.3133 H   0  0  0  0  0  0  0  0  0  0  0  0
   49.2691    2.4952   18.2595 H   0  0  0  0  0  0  0  0  0  0  0  0
   48.4883    8.0067   16.4019 H   0  0  0  0  0  0  0  0  0  0  0  0
   50.1833    8.6149   14.5624 H   0  0  0  0  0  0  0  0  0  0  0  0
   50.9683    7.0949   14.8221 H   0  0  0  0  0  0  0  0  0  0  0  0
   47.0490    2.6488   17.8436 H   0  0  0  0  0  0  0  0  0  0  0  0
   51.5147    2.6845   18.4590 H   0  0  0  0  0  0  0  0  0  0  0  0
   50.2141    9.2737   16.8690 H   0  0  0  0  0  0  0  0  0  0  0  0
   47.9331    6.0722   11.6388 H   0  0  0  0  0  0  0  0  0  0  0  0
   46.6186    7.2538   11.6394 H   0  0  0  0  0  0  0  0  0  0  0  0
   46.7423    6.0769   12.9518 H   0  0  0  0  0  0  0  0  0  0  0  0
   49.6437    7.9663   11.4474 H   0  0  0  0  0  0  0  0  0  0  0  0
   49.5873    9.3407   12.5657 H   0  0  0  0  0  0  0  0  0  0  0  0
   48.2906    9.1038   11.4000 H   0  0  0  0  0  0  0  0  0  0  0  0
   46.7194    7.9881   14.6620 H   0  0  0  0  0  0  0  0  0  0  0  0
   47.8493    9.3459   14.4938 H   0  0  0  0  0  0  0  0  0  0  0  0
   46.5612    9.1173   13.3172 H   0  0  0  0  0  0  0  0  0  0  0  0
  2  1  2  0
  3  1  1  0
  4 10  1  0
  5  3  2  0
  6  2  1  0
  7  5  1  0
  8  1  1  0
  9  4  1  0
 10  8  1  0
 11  5  1  0
 12  6  1  0
 13  8  1  0
 14  9  1  0
 15  9  1  0
 16  9  1  0
  6  7  2  0
 18 17  1  0
 19 17  1  0
 20 17  2  0
 21 17  2  0
 23 22  2  0
 24 22  1  0
 25 31  1  0
 26 24  2  0
 27 23  1  0
 28 26  1  0
 29 22  1  0
 30 25  1  0
 31 29  1  0
 32 26  1  0
 33 27  1  0
 34 29  1  0
 35 30  1  0
 36 30  1  0
 37 30  1  0
 27 28  2  0
  2 38  1  0
  3 39  1  0
  4 40  1  0
  7 41  1  0
  8 42  1  1
 10 43  1  0
 10 44  1  0
 11 45  1  0
 12 46  1  0
 13 47  1  0
 14 48  1  0
 14 49  1  0
 14 50  1  0
 15 51  1  0
 15 52  1  0
 15 53  1  0
 16 54  1  0
 16 55  1  0
 16 56  1  0
 18 57  1  0
 19 58  1  0
 23 59  1  0
 24 60  1  0
 25 61  1  0
 28 62  1  0
 29 63  1  1
 31 64  1  0
 31 65  1  0
 32 66  1  0
 33 67  1  0
 34 68  1  0
 35 69  1  0
 35 70  1  0
 35 71  1  0
 36 72  1  0
 36 73  1  0
 36 74  1  0
 37 75  1  0
 37 76  1  0
 37 77  1  0
M  END
> <Uni-Dock RESULT> 
ENERGY=   -5.484  LOWER_BOUND=    0.000  UPPER_BOUND=    0.000
INTER + INTRA:          -5.484
INTER:                  -5.484
INTRA:                   0.000
UNBOUND:                 0.000

$$$$

     RDKit          3D

 77 76  0  0  0  0  0  0  0  0999 V2000
   47.3642    7.7129   12.7754 C   0  0  0  0  0  0  0  0  0  0  0  0
   46.9451    6.6168   12.0031 C   0  0  0  0  0  0  0  0  0  0  0  0
   46.4988    8.8123   12.9023 C   0  0  0  0  0  0  0  0  0  0  0  0
   49.9412    7.5290   15.5994 N   0  0  0  0  0  0  0  0  0  0  0  0
   45.2522    8.8038   12.2802 C   0  0  0  0  0  0  0  0  0  0  0  0
   45.6945    6.6296   11.3857 C   0  0  0  0  0  0  0  0  0  0  0  0
   44.8405    7.7166   11.5181 C   0  0  0  0  0  0  0  0  0  0  0  0
   48.7120    7.7391   13.4634 C   0  0  1  0  0  0  0  0  0  0  0  0
   49.9881    7.4563   17.0742 C   0  0  0  0  0  0  0  0  0  0  0  0
   48.5907    7.6241   15.0066 C   0  0  0  0  0  0  0  0  0  0  0  0
   44.4519    9.8964   12.4517 O   0  0  0  0  0  0  0  0  0  0  0  0
   45.2663    5.5742   10.6344 O   0  0  0  0  0  0  0  0  0  0  0  0
   49.5545    6.6775   12.9943 O   0  0  0  0  0  0  0  0  0  0  0  0
   51.4643    7.2032   17.4383 C   0  0  0  0  0  0  0  0  0  0  0  0
   49.1462    6.2976   17.6332 C   0  0  0  0  0  0  0  0  0  0  0  0
   49.5507    8.7843   17.7173 C   0  0  0  0  0  0  0  0  0  0  0  0
   48.4205    7.9333   14.5902 S   0  0  0  0  0  0  0  0  0  0  0  0
   48.1749    7.3378   16.0588 O   0  0  0  0  0  0  0  0  0  0  0  0
   47.7565    6.7944   13.6759 O   0  0  0  0  0  0  0  0  0  0  0  0
   47.6019    9.1073   14.4293 O   0  0  0  0  0  0  0  0  0  0  0  0
   49.8450    7.9131   14.3753 O   0  0  0  0  0  0  0  0  0  0  0  0
   47.3747    7.6336   13.1589 C   0  0  0  0  0  0  0  0  0  0  0  0
   46.3520    8.4561   12.6612 C   0  0  0  0  0  0  0  0  0  0  0  0
   47.1009    6.2719   13.3607 C   0  0  0  0  0  0  0  0  0  0  0  0
   48.4452    8.1260   16.0653 N   0  0  0  0  0  0  0  0  0  0  0  0
   45.8367    5.7611   13.0809 C   0  0  0  0  0  0  0  0  0  0  0  0
   45.0948    7.9261   12.3822 C   0  0  0  0  0  0  0  0  0  0  0  0
   44.8218    6.5782   12.5917 C   0  0  0  0  0  0  0  0  0  0  0  0
   48.7341    8.1972   13.5135 C   0  0  2  0  0  0  0  0  0  0  0  0
   49.5818    7.6277   16.8533 C   0  0  0  0  0  0  0  0  0  0  0  0
   48.7407    8.9407   14.8798 C   0  0  0  0  0  0  0  0  0  0  0  0
   45.6331    4.4314   13.3129 O   0  0  0  0  0  0  0  0  0  0  0  0
   44.1433    8.7767   11.9005 O   0  0  0  0  0  0  0  0  0  0  0  0
   49.1449    9.0985   12.4798 O   0  0  0  0  0  0  0  0  0  0  0  0
   48.9972    6.6573   17.8985 C   0  0  0  0  0  0  0  0  0  0  0  0
   50.2567    8.7884   17.6036 C   0  0  0  0  0  0  0  0  0  0  0  0
   50.6187    6.8676   16.0146 C   0  0  0  0  0  0  0  0  0  0  0  0
   47.6024    5.7603   11.8900 H   0  0  0  0  0  0  0  0  0  0  0  0
   46.7873    9.6829   13.4907 H   0  0  0  0  0  0  0  0  0  0  0  0
   50.4961    8.3346   15.2938 H   0  0  0  0  0  0  0  0  0  0  0  0
   43.8738    7.6976   11.0284 H   0  0  0  0  0  0  0  0  0  0  0  0
   49.2208    8.6752   13.1978 H   0  0  0  0  0  0  0  0  0  0  0  0
   48.0405    8.4853   15.3992 H   0  0  0  0  0  0  0  0  0  0  0  0
   48.0270    6.7127   15.2390 H   0  0  0  0  0  0  0  0  0  0  0  0
   43.6282    9.7504   11.9570 H   0  0  0  0  0  0  0  0  0  0  0  0
   45.9835    4.9179   10.5954 H   0  0  0  0  0  0  0  0  0  0  0  0
   50.1665    6.5098   13.7405 H   0  0  0  0  0  0  0  0  0  0  0  0
   52.1109    8.0145   17.0827 H   0  0  0  0  0  0  0  0  0  0  0  0
   51.5966    7.1339   18.5240 H   0  0  0  0  0  0  0  0  0  0  0  0
   51.8298    6.2673   16.9993 H   0  0  0  0  0  0  0  0  0  0  0  0
   49.3139    6.1781   18.7099 H   0  0  0  0  0  0  0  0  0  0  0  0
   49.4058    5.3461   17.1522 H   0  0  0  0  0  0  0  0  0  0  0  0
   48.0728    6.4694   17.4967 H   0  0  0  0  0  0  0  0  0  0  0  0
   48.4883    8.9933   17.5472 H   0  0  0  0  0  0  0  0  0  0  0  0
   50.1266    9.6290   17.3201 H   0  0  0  0  0  0  0  0  0  0  0  0
   49.7054    8.7626   18.8018 H   0  0  0  0  0  0  0  0  0  0  0  0
   48.9158    6.7219   16.2396 H   0  0  0  0  0  0  0  0  0  0  0  0
   46.8326    7.0712   13.4996 H   0  0  0  0  0  0  0  0  0  0  0  0
   46.5373    9.5137   12.4878 H   0  0  0  0  0  0  0  0  0  0  0  0
   47.8704    5.6027   13.7404 H   0  0  0  0  0  0  0  0  0  0  0  0
   47.8176    7.3642   15.8083 H   0  0  0  0  0  0  0  0  0  0  0  0
   43.8402    6.1741   12.3751 H   0  0  0  0  0  0  0  0  0  0  0  0
   49.4681    7.3844   13.5149 H   0  0  0  0  0  0  0  0  0  0  0  0
   49.6858    9.4848   14.9872 H   0  0  0  0  0  0  0  0  0  0  0  0
   47.9795    9.7315   14.8390 H   0  0  0  0  0  0  0  0  0  0  0  0
   44.7165    4.2082   13.0771 H   0  0  0  0  0  0  0  0  0  0  0  0
   43.3003    8.3029   11.8322 H   0  0  0  0  0  0  0  0  0  0  0  0
   50.0844    9.2917   12.6295 H   0  0  0  0  0  0  0  0  0  0  0  0
   48.2554    7.1535   18.5363 H   0  0  0  0  0  0  0  0  0  0  0  0
   49.7826    6.2638   18.5537 H   0  0  0  0  0  0  0  0  0  0  0  0
   48.5091    5.8004   17.4197 H   0  0  0  0  0  0  0  0  0  0  0  0
   49.5308    9.3480   18.2079 H   0  0  0  0  0  0  0  0  0  0  0  0
   50.7439    9.4956   16.9235 H   0  0  0  0  0  0  0  0  0  0  0  0
   51.0327    8.4178   18.2841 H   0  0  0  0  0  0  0  0  0  0  0  0
   50.1641    6.0299   15.4739 H   0  0  0  0  0  0  0  0  0  0  0  0
   51.1113    7.5181   15.2826 H   0  0  0  0  0  0  0  0  0  0  0  0
   51.4063    6.4528   16.6514 H   0  0  0  0  0  0  0  0  0  0  0  0
  2  1  2  0
  3  1  1  0
  4 10  1  0
  5  3  2  0
  6  2  1  0
  7  5  1  0
  8  1  1  0
  9  4  1  0
 10  8  1  0
 11  5  1  0
 12  6  1  0
 13  8  1  0
 14  9  1  0
 15  9  1  0
 16  9  1  0
  6  7  2  0
 18 17  1  0
 19 17  1  0
 20 17  2  0
 21 17  2  0
 23 22  2  0
 24 22  1  0
 25 31  1  0
 26 24  2  0
 27 23  1  0
 28 26  1  0
 29 22  1  0
 30 25  1  0
 31 29  1  0
 32 26  1  0
 33 27  1  0
 34 29  1  0
 35 30  1  0
 36 30  1  0
 37 30  1  0
 27 28  2  0
  2 38  1  0
  3 39  1  0
  4 40  1  0
  7 41  1  0
  8 42  1  1
 10 43  1  0
 10 44  1  0
 11 45  1  0
 12 46  1  0
 13 47  1  0
 14 48  1  0
 14 49  1  0
 14 50  1  0
 15 51  1  0
 15 52  1  0
 15 53  1  0
 16 54  1  0
 16 55  1  0
 16 56  1  0
 18 57  1  0
 19 58  1  0
 23 59  1  0
 24 60  1  0
 25 61  1  0
 28 62  1  0
 29 63  1  1
 31 64  1  0
 31 65  1  0
 32 66  1  0
 33 67  1  0
 34 68  1  0
 35 69  1  0
 35 70  1  0
 35 71  1  0
 36 72  1  0
 36 73  1  0
 36 74  1  0
 37 75  1  0
 37 76  1  0
 37 77  1  0
M  END
> <Uni-Dock RESULT> 
ENERGY=   -5.264  LOWER_BOUND=    2.280  UPPER_BOUND=    5.996
INTER + INTRA:          -5.264
INTER:                  -5.264
INTRA:                   0.000
UNBOUND:                 0.000

$$$$

     RDKit          3D

 77 76  0  0  0  0  0  0  0  0999 V2000
   47.8906    8.1927   13.0314 C   0  0  0  0  0  0  0  0  0  0  0  0
   48.2503    8.5950   14.3284 C   0  0  0  0  0  0  0  0  0  0  0  0
   48.9117    7.9671   12.0932 C   0  0  0  0  0  0  0  0  0  0  0  0
   44.6369    6.3873   12.1349 N   0  0  0  0  0  0  0  0  0  0  0  0
   50.2478    8.1328   12.4518 C   0  0  0  0  0  0  0  0  0  0  0  0
   49.5936    8.7585   14.6661 C   0  0  0  0  0  0  0  0  0  0  0  0
   50.5997    8.5295   13.7367 C   0  0  0  0  0  0  0  0  0  0  0  0
   46.4455    8.0020   12.6240 C   0  0  1  0  0  0  0  0  0  0  0  0
   44.1496    5.0195   11.8625 C   0  0  0  0  0  0  0  0  0  0  0  0
   46.0849    6.5082   12.4048 C   0  0  0  0  0  0  0  0  0  0  0  0
   51.1939    7.8861   11.4991 O   0  0  0  0  0  0  0  0  0  0  0  0
   49.9651    9.1450   15.9209 O   0  0  0  0  0  0  0  0  0  0  0  0
   45.5535    8.5444   13.6073 O   0  0  0  0  0  0  0  0  0  0  0  0
   42.6145    5.1272   11.7749 C   0  0  0  0  0  0  0  0  0  0  0  0
   44.5022    4.0341   12.9888 C   0  0  0  0  0  0  0  0  0  0  0  0
   44.6765    4.4921   10.5161 C   0  0  0  0  0  0  0  0  0  0  0  0
   46.4350    6.8894   12.2312 S   0  0  0  0  0  0  0  0  0  0  0  0
   46.1004    5.3462   12.5108 O   0  0  0  0  0  0  0  0  0  0  0  0
   47.0533    7.3360   13.6425 O   0  0  0  0  0  0  0  0  0  0  0  0
   47.5131    6.9590   11.2788 O   0  0  0  0  0  0  0  0  0  0  0  0
   45.1692    7.5561   12.0601 O   0  0  0  0  0  0  0  0  0  0  0  0
   47.7515    7.8267   13.0188 C   0  0  0  0  0  0  0  0  0  0  0  0
   49.0356    8.0851   12.5143 C   0  0  0  0  0  0  0  0  0  0  0  0
   47.6329    7.3281   14.3254 C   0  0  0  0  0  0  0  0  0  0  0  0
   46.0295    5.5570   11.7078 N   0  0  0  0  0  0  0  0  0  0  0  0
   48.7702    7.0883   15.0912 C   0  0  0  0  0  0  0  0  0  0  0  0
   50.1617    7.8438   13.2971 C   0  0  0  0  0  0  0  0  0  0  0  0
   50.0433    7.3406   14.5886 C   0  0  0  0  0  0  0  0  0  0  0  0
   46.5164    8.0369   12.1695 C   0  0  2  0  0  0  0  0  0  0  0  0
   44.6306    5.1186   11.8164 C   0  0  0  0  0  0  0  0  0  0  0  0
   46.2864    6.8889   11.1453 C   0  0  0  0  0  0  0  0  0  0  0  0
   48.5850    6.5900   16.3485 O   0  0  0  0  0  0  0  0  0  0  0  0
   51.3815    8.1155   12.7501 O   0  0  0  0  0  0  0  0  0  0  0  0
   46.6421    9.2798   11.4701 O   0  0  0  0  0  0  0  0  0  0  0  0
   44.6469    3.7965   12.6086 C   0  0  0  0  0  0  0  0  0  0  0  0
   44.0545    4.8316   10.4194 C   0  0  0  0  0  0  0  0  0  0  0  0
   43.7346    6.1177   12.5616 C   0  0  0  0  0  0  0  0  0  0  0  0
   47.4746    8.7785   15.0654 H   0  0  0  0  0  0  0  0  0  0  0  0
   48.6745    7.6561   11.0762 H   0  0  0  0  0  0  0  0  0  0  0  0
   44.3960    6.9851   11.3382 H   0  0  0  0  0  0  0  0  0  0  0  0
   51.6350    8.6627   14.0283 H   0  0  0  0  0  0  0  0  0  0  0  0
   46.2660    8.5685   11.7007 H   0  0  0  0  0  0  0  0  0  0  0  0
   46.6813    6.1010   11.5820 H   0  0  0  0  0  0  0  0  0  0  0  0
   46.3307    5.9584   13.3213 H   0  0  0  0  0  0  0  0  0  0  0  0
   52.0685    8.0506   11.8895 H   0  0  0  0  0  0  0  0  0  0  0  0
   49.1586    9.3116   16.4389 H   0  0  0  0  0  0  0  0  0  0  0  0
   44.7302    8.0253   13.4963 H   0  0  0  0  0  0  0  0  0  0  0  0
   42.3042    5.8027   10.9686 H   0  0  0  0  0  0  0  0  0  0  0  0
   42.1613    4.1500   11.5730 H   0  0  0  0  0  0  0  0  0  0  0  0
   42.1859    5.5046   12.7110 H   0  0  0  0  0  0  0  0  0  0  0  0
   44.0072    3.0689   12.8312 H   0  0  0  0  0  0  0  0  0  0  0  0
   44.1805    4.4131   13.9671 H   0  0  0  0  0  0  0  0  0  0  0  0
   45.5785    3.8346   13.0352 H   0  0  0  0  0  0  0  0  0  0  0  0
   45.7609    4.3335   10.5326 H   0  0  0  0  0  0  0  0  0  0  0  0
   44.4516    5.1884    9.6991 H   0  0  0  0  0  0  0  0  0  0  0  0
   44.2139    3.5312   10.2651 H   0  0  0  0  0  0  0  0  0  0  0  0
   45.2176    5.3228   12.9363 H   0  0  0  0  0  0  0  0  0  0  0  0
   48.0266    7.2398   13.5721 H   0  0  0  0  0  0  0  0  0  0  0  0
   49.1579    8.4789   11.5078 H   0  0  0  0  0  0  0  0  0  0  0  0
   46.6536    7.1207   14.7521 H   0  0  0  0  0  0  0  0  0  0  0  0
   46.5109    5.4655   12.6024 H   0  0  0  0  0  0  0  0  0  0  0  0
   50.9245    7.1525   15.1903 H   0  0  0  0  0  0  0  0  0  0  0  0
   45.6464    8.1462   12.8256 H   0  0  0  0  0  0  0  0  0  0  0  0
   45.5031    7.1890   10.4403 H   0  0  0  0  0  0  0  0  0  0  0  0
   47.1879    6.8036   10.5237 H   0  0  0  0  0  0  0  0  0  0  0  0
   49.4531    6.4706   16.7700 H   0  0  0  0  0  0  0  0  0  0  0  0
   52.0749    7.8240   13.3616 H   0  0  0  0  0  0  0  0  0  0  0  0
   45.7708    9.4819   11.0930 H   0  0  0  0  0  0  0  0  0  0  0  0
   45.2659    3.0389   12.1126 H   0  0  0  0  0  0  0  0  0  0  0  0
   43.6367    3.3828   12.7057 H   0  0  0  0  0  0  0  0  0  0  0  0
   45.0410    3.9419   13.6212 H   0  0  0  0  0  0  0  0  0  0  0  0
   44.6832    4.1207    9.8674 H   0  0  0  0  0  0  0  0  0  0  0  0
   43.9623    5.7394    9.8133 H   0  0  0  0  0  0  0  0  0  0  0  0
   43.0511    4.3949   10.4904 H   0  0  0  0  0  0  0  0  0  0  0  0
   44.1199    6.3348   13.5642 H   0  0  0  0  0  0  0  0  0  0  0  0
   43.6392    7.0664   12.0207 H   0  0  0  0  0  0  0  0  0  0  0  0
   42.7228    5.7183   12.6829 H   0  0  0  0  0  0  0  0  0  0  0  0
  2  1  2  0
  3  1  1  0
  4 10  1  0
  5  3  2  0
  6  2  1  0
  7  5  1  0
  8  1  1  0
  9  4  1  0
 10  8  1  0
 11  5  1  0
 12  6  1  0
 13  8  1  0
 14  9  1  0
 15  9  1  0
 16  9  1  0
  6  7  2  0
 18 17  1  0
 19 17  1  0
 20 17  2  0
 21 17  2  0
 23 22  2  0
 24 22  1  0
 25 31  1  0
 26 24  2  0
 27 23  1  0
 28 26  1  0
 29 22  1  0
 30 25  1  0
 31 29  1  0
 32 26  1  0
 33 27  1  0
 34 29  1  0
 35 30  1  0
 36 30  1  0
 37 30  1  0
 27 28  2  0
  2 38  1  0
  3 39  1  0
  4 40  1  0
  7 41  1  0
  8 42  1  1
 10 43  1  0
 10 44  1  0
 11 45  1  0
 12 46  1  0
 13 47  1  0
 14 48  1  0
 14 49  1  0
 14 50  1  0
 15 51  1  0
 15 52  1  0
 15 53  1  0
 16 54  1  0
 16 55  1  0
 16 56  1  0
 18 57  1  0
 19 58  1  0
 23 59  1  0
 24 60  1  0
 25 61  1  0
 28 62  1  0
 29 63  1  1
 31 64  1  0
 31 65  1  0
 32 66  1  0
 33 67  1  0
 34 68  1  0
 35 69  1  0
 35 70  1  0
 35 71  1  0
 36 72  1  0
 36 73  1  0
 36 74  1  0
 37 75  1  0
 37 76  1  0
 37 77  1  0
M  END
> <Uni-Dock RESULT> 
ENERGY=   -5.250  LOWER_BOUND=    2.972  UPPER_BOUND=    5.181
INTER + INTRA:          -5.250
INTER:                  -5.250
INTRA:                   0.000
UNBOUND:                 0.000

$$$$

     RDKit          3D

 77 76  0  0  0  0  0  0  0  0999 V2000
   48.8373   11.0704   17.4985 C   0  0  0  0  0  0  0  0  0  0  0  0
   49.2625   12.4071   17.5761 C   0  0  0  0  0  0  0  0  0  0  0  0
   47.7566   10.6642   18.2991 C   0  0  0  0  0  0  0  0  0  0  0  0
   49.3753    8.7857   14.4752 N   0  0  0  0  0  0  0  0  0  0  0  0
   47.1218   11.5747   19.1413 C   0  0  0  0  0  0  0  0  0  0  0  0
   48.6156   13.3018   18.4282 C   0  0  0  0  0  0  0  0  0  0  0  0
   47.5446   12.8969   19.2140 C   0  0  0  0  0  0  0  0  0  0  0  0
   49.5100   10.0677   16.5861 C   0  0  1  0  0  0  0  0  0  0  0  0
   48.6329    8.2828   13.3011 C   0  0  0  0  0  0  0  0  0  0  0  0
   48.6117    9.6637   15.3864 C   0  0  0  0  0  0  0  0  0  0  0  0
   46.0699   11.1221   19.8845 O   0  0  0  0  0  0  0  0  0  0  0  0
   49.0100   14.6050   18.5162 O   0  0  0  0  0  0  0  0  0  0  0  0
   50.7473   10.5812   16.0737 O   0  0  0  0  0  0  0  0  0  0  0  0
   49.6672    7.5384   12.4339 C   0  0  0  0  0  0  0  0  0  0  0  0
   48.0231    9.4168   12.4607 C   0  0  0  0  0  0  0  0  0  0  0  0
   47.5370    7.2841   13.7137 C   0  0  0  0  0  0  0  0  0  0  0  0
   48.6107    9.6729   15.9322 S   0  0  0  0  0  0  0  0  0  0  0  0
   47.8019    9.7272   14.5485 O   0  0  0  0  0  0  0  0  0  0  0  0
   48.9346   11.2266   16.1664 O   0  0  0  0  0  0  0  0  0  0  0  0
   47.7003    9.2886   16.9799 O   0  0  0  0  0  0  0  0  0  0  0  0
   49.8482    8.9893   15.6541 O   0  0  0  0  0  0  0  0  0  0  0  0
   48.6613   10.9862   17.1588 C   0  0  0  0  0  0  0  0  0  0  0  0
   47.8811   11.1009   18.3200 C   0  0  0  0  0  0  0  0  0  0  0  0
   48.7519   12.0931   16.3005 C   0  0  0  0  0  0  0  0  0  0  0  0
   47.7700    8.9811   14.9181 N   0  0  0  0  0  0  0  0  0  0  0  0
   48.0702   13.2696   16.5980 C   0  0  0  0  0  0  0  0  0  0  0  0
   47.2104   12.2878   18.6036 C   0  0  0  0  0  0  0  0  0  0  0  0
   47.2932   13.3810   17.7473 C   0  0  0  0  0  0  0  0  0  0  0  0
   49.3607    9.6909   16.8065 C   0  0  2  0  0  0  0  0  0  0  0  0
   48.3828    8.4543   13.6902 C   0  0  0  0  0  0  0  0  0  0  0  0
   48.3973    8.6314   16.1990 C   0  0  0  0  0  0  0  0  0  0  0  0
   48.1896   14.3032   15.7142 O   0  0  0  0  0  0  0  0  0  0  0  0
   46.4688   12.3366   19.7475 O   0  0  0  0  0  0  0  0  0  0  0  0
   49.9694    9.1580   17.9876 O   0  0  0  0  0  0  0  0  0  0  0  0
   47.6529    9.1300   12.5126 C   0  0  0  0  0  0  0  0  0  0  0  0
   48.1500    6.9373   13.5895 C   0  0  0  0  0  0  0  0  0  0  0  0
   49.8811    8.7672   13.5737 C   0  0  0  0  0  0  0  0  0  0  0  0
   50.0990   12.7377   16.9683 H   0  0  0  0  0  0  0  0  0  0  0  0
   47.3977    9.6359   18.2698 H   0  0  0  0  0  0  0  0  0  0  0  0
   49.7303    7.9840   15.0057 H   0  0  0  0  0  0  0  0  0  0  0  0
   47.0601   13.6148   19.8654 H   0  0  0  0  0  0  0  0  0  0  0  0
   49.7675    9.1779   17.1757 H   0  0  0  0  0  0  0  0  0  0  0  0
   47.7058    9.1702   15.7528 H   0  0  0  0  0  0  0  0  0  0  0  0
   48.3218   10.5768   14.8528 H   0  0  0  0  0  0  0  0  0  0  0  0
   45.7386   11.8600   20.4232 H   0  0  0  0  0  0  0  0  0  0  0  0
   49.7921   14.7249   17.9500 H   0  0  0  0  0  0  0  0  0  0  0  0
   50.8717   10.1051   15.2267 H   0  0  0  0  0  0  0  0  0  0  0  0
   50.1193    6.7005   12.9780 H   0  0  0  0  0  0  0  0  0  0  0  0
   49.2019    7.1269   11.5311 H   0  0  0  0  0  0  0  0  0  0  0  0
   50.4765    8.2060   12.1152 H   0  0  0  0  0  0  0  0  0  0  0  0
   47.6057    9.0272   11.5249 H   0  0  0  0  0  0  0  0  0  0  0  0
   48.7772   10.1689   12.1966 H   0  0  0  0  0  0  0  0  0  0  0  0
   47.2052    9.9211   12.9870 H   0  0  0  0  0  0  0  0  0  0  0  0
   46.7346    7.7664   14.2837 H   0  0  0  0  0  0  0  0  0  0  0  0
   47.9464    6.4744   14.3299 H   0  0  0  0  0  0  0  0  0  0  0  0
   47.0755    6.8248   12.8325 H   0  0  0  0  0  0  0  0  0  0  0  0
   48.4709    9.7242   13.8319 H   0  0  0  0  0  0  0  0  0  0  0  0
   48.2232   11.5843   16.7385 H   0  0  0  0  0  0  0  0  0  0  0  0
   47.7985   10.2621   19.0075 H   0  0  0  0  0  0  0  0  0  0  0  0
   49.3514   12.0430   15.3938 H   0  0  0  0  0  0  0  0  0  0  0  0
   47.6505    9.9925   14.8613 H   0  0  0  0  0  0  0  0  0  0  0  0
   46.7658   14.3000   17.9734 H   0  0  0  0  0  0  0  0  0  0  0  0
   50.1816    9.9054   16.1141 H   0  0  0  0  0  0  0  0  0  0  0  0
   48.9128    7.6658   16.1476 H   0  0  0  0  0  0  0  0  0  0  0  0
   47.5832    8.4626   16.9167 H   0  0  0  0  0  0  0  0  0  0  0  0
   47.6685   15.0567   16.0400 H   0  0  0  0  0  0  0  0  0  0  0  0
   45.9904   13.1792   19.7792 H   0  0  0  0  0  0  0  0  0  0  0  0
   50.5643    8.4458   17.7029 H   0  0  0  0  0  0  0  0  0  0  0  0
   46.5750    8.9286   12.5397 H   0  0  0  0  0  0  0  0  0  0  0  0
   48.0313    8.7633   11.5517 H   0  0  0  0  0  0  0  0  0  0  0  0
   47.7920   10.2174   12.5268 H   0  0  0  0  0  0  0  0  0  0  0  0
   47.0834    6.6913   13.6740 H   0  0  0  0  0  0  0  0  0  0  0  0
   48.6854    6.3821   14.3674 H   0  0  0  0  0  0  0  0  0  0  0  0
   48.5002    6.5492   12.6255 H   0  0  0  0  0  0  0  0  0  0  0  0
   50.0742    9.8440   13.6359 H   0  0  0  0  0  0  0  0  0  0  0  0
   50.4662    8.2706   14.3565 H   0  0  0  0  0  0  0  0  0  0  0  0
   50.2777    8.4219   12.6137 H   0  0  0  0  0  0  0  0  0  0  0  0
  2  1  2  0
  3  1  1  0
  4 10  1  0
  5  3  2  0
  6  2  1  0
  7  5  1  0
  8  1  1  0
  9  4  1  0
 10  8  1  0
 11  5  1  0
 12  6  1  0
 13  8  1  0
 14  9  1  0
 15  9  1  0
 16  9  1  0
  6  7  2  0
 18 17  1  0
 19 17  1  0
 20 17  2  0
 21 17  2  0
 23 22  2  0
 24 22  1  0
 25 31  1  0
 26 24  2  0
 27 23  1  0
 28 26  1  0
 29 22  1  0
 30 25  1  0
 31 29  1  0
 32 26  1  0
 33 27  1  0
 34 29  1  0
 35 30  1  0
 36 30  1  0
 37 30  1  0
 27 28  2  0
  2 38  1  0
  3 39  1  0
  4 40  1  0
  7 41  1  0
  8 42  1  1
 10 43  1  0
 10 44  1  0
 11 45  1  0
 12 46  1  0
 13 47  1  0
 14 48  1  0
 14 49  1  0
 14 50  1  0
 15 51  1  0
 15 52  1  0
 15 53  1  0
 16 54  1  0
 16 55  1  0
 16 56  1  0
 18 57  1  0
 19 58  1  0
 23 59  1  0
 24 60  1  0
 25 61  1  0
 28 62  1  0
 29 63  1  1
 31 64  1  0
 31 65  1  0
 32 66  1  0
 33 67  1  0
 34 68  1  0
 35 69  1  0
 35 70  1  0
 35 71  1  0
 36 72  1  0
 36 73  1  0
 36 74  1  0
 37 75  1  0
 37 76  1  0
 37 77  1  0
M  END
> <Uni-Dock RESULT> 
ENERGY=   -5.208  LOWER_BOUND=    3.680  UPPER_BOUND=    5.951
INTER + INTRA:          -5.208
INTER:                  -5.208
INTRA:                   0.000
UNBOUND:                 0.000

$$$$

     RDKit          3D

 77 76  0  0  0  0  0  0  0  0999 V2000
   51.9631    4.1450   18.3263 C   0  0  0  0  0  0  0  0  0  0  0  0
   53.3575    4.3140   18.3044 C   0  0  0  0  0  0  0  0  0  0  0  0
   51.4370    2.8808   18.0118 C   0  0  0  0  0  0  0  0  0  0  0  0
   49.5424    6.2816   20.3819 N   0  0  0  0  0  0  0  0  0  0  0  0
   52.2862    1.8227   17.6949 C   0  0  0  0  0  0  0  0  0  0  0  0
   54.1900    3.2427   17.9812 C   0  0  0  0  0  0  0  0  0  0  0  0
   53.6656    1.9936   17.6758 C   0  0  0  0  0  0  0  0  0  0  0  0
   51.0242    5.2802   18.6734 C   0  0  1  0  0  0  0  0  0  0  0  0
   48.7959    6.2228   21.6553 C   0  0  0  0  0  0  0  0  0  0  0  0
   50.3420    5.0828   20.0535 C   0  0  0  0  0  0  0  0  0  0  0  0
   51.7147    0.6159   17.4110 O   0  0  0  0  0  0  0  0  0  0  0  0
   55.5470    3.3841   17.9575 O   0  0  0  0  0  0  0  0  0  0  0  0
   51.7130    6.5381   18.6835 O   0  0  0  0  0  0  0  0  0  0  0  0
   48.1828    7.6234   21.8511 C   0  0  0  0  0  0  0  0  0  0  0  0
   49.7057    5.9204   22.8573 C   0  0  0  0  0  0  0  0  0  0  0  0
   47.6506    5.1968   21.5894 C   0  0  0  0  0  0  0  0  0  0  0  0
   50.4035    4.8335   19.5718 S   0  0  0  0  0  0  0  0  0  0  0  0
   50.1683    4.7398   21.1554 O   0  0  0  0  0  0  0  0  0  0  0  0
   52.0056    4.8143   19.4920 O   0  0  0  0  0  0  0  0  0  0  0  0
   49.9552    3.6048   18.9688 O   0  0  0  0  0  0  0  0  0  0  0  0
   49.9456    6.1387   19.1686 O   0  0  0  0  0  0  0  0  0  0  0  0
   51.8144    4.1544   18.6887 C   0  0  0  0  0  0  0  0  0  0  0  0
   51.8893    2.9254   18.0148 C   0  0  0  0  0  0  0  0  0  0  0  0
   52.8301    4.4814   19.6006 C   0  0  0  0  0  0  0  0  0  0  0  0
   49.4690    4.6396   20.7134 N   0  0  0  0  0  0  0  0  0  0  0  0
   53.8776    3.5948   19.8323 C   0  0  0  0  0  0  0  0  0  0  0  0
   52.9478    2.0532   18.2559 C   0  0  0  0  0  0  0  0  0  0  0  0
   53.9488    2.3743   19.1670 C   0  0  0  0  0  0  0  0  0  0  0  0
   50.6489    5.0968   18.4775 C   0  0  2  0  0  0  0  0  0  0  0  0
   48.9531    5.8040   21.4475 C   0  0  0  0  0  0  0  0  0  0  0  0
   49.3711    4.6576   19.2482 C   0  0  0  0  0  0  0  0  0  0  0  0
   54.8246    3.9681   20.7418 O   0  0  0  0  0  0  0  0  0  0  0  0
   52.9641    0.8745   17.5695 O   0  0  0  0  0  0  0  0  0  0  0  0
   50.3589    5.1670   17.0773 O   0  0  0  0  0  0  0  0  0  0  0  0
   49.3598    5.6070   22.9212 C   0  0  0  0  0  0  0  0  0  0  0  0
   47.4171    5.8383   21.3762 C   0  0  0  0  0  0  0  0  0  0  0  0
   49.5340    7.1386   20.9601 C   0  0  0  0  0  0  0  0  0  0  0  0
   53.7818    5.2850   18.5401 H   0  0  0  0  0  0  0  0  0  0  0  0
   50.3610    2.7090   18.0155 H   0  0  0  0  0  0  0  0  0  0  0  0
   48.8784    6.4571   19.6212 H   0  0  0  0  0  0  0  0  0  0  0  0
   54.3371    1.1792   17.4303 H   0  0  0  0  0  0  0  0  0  0  0  0
   50.2612    5.3542   17.8872 H   0  0  0  0  0  0  0  0  0  0  0  0
   49.7221    4.1807   20.0337 H   0  0  0  0  0  0  0  0  0  0  0  0
   51.1269    4.9519   20.8080 H   0  0  0  0  0  0  0  0  0  0  0  0
   52.4242   -0.0148   17.2028 H   0  0  0  0  0  0  0  0  0  0  0  0
   55.7590    4.3153   18.1435 H   0  0  0  0  0  0  0  0  0  0  0  0
   51.1900    7.0926   19.2989 H   0  0  0  0  0  0  0  0  0  0  0  0
   47.5033    7.8830   21.0304 H   0  0  0  0  0  0  0  0  0  0  0  0
   47.6046    7.6745   22.7806 H   0  0  0  0  0  0  0  0  0  0  0  0
   48.9589    8.3964   21.9002 H   0  0  0  0  0  0  0  0  0  0  0  0
   49.1550    6.0259   23.7992 H   0  0  0  0  0  0  0  0  0  0  0  0
   50.5591    6.6091   22.8962 H   0  0  0  0  0  0  0  0  0  0  0  0
   50.0927    4.8958   22.8293 H   0  0  0  0  0  0  0  0  0  0  0  0
   48.0233    4.1689   21.5123 H   0  0  0  0  0  0  0  0  0  0  0  0
   46.9975    5.3824   20.7281 H   0  0  0  0  0  0  0  0  0  0  0  0
   47.0286    5.2476   22.4899 H   0  0  0  0  0  0  0  0  0  0  0  0
   50.2241    5.6549   21.5023 H   0  0  0  0  0  0  0  0  0  0  0  0
   52.2743    3.8817   19.3523 H   0  0  0  0  0  0  0  0  0  0  0  0
   51.1206    2.6483   17.2969 H   0  0  0  0  0  0  0  0  0  0  0  0
   52.8082    5.4275   20.1377 H   0  0  0  0  0  0  0  0  0  0  0  0
   50.4286    4.4305   20.9889 H   0  0  0  0  0  0  0  0  0  0  0  0
   54.7675    1.6890   19.3514 H   0  0  0  0  0  0  0  0  0  0  0  0
   50.9486    6.1073   18.7749 H   0  0  0  0  0  0  0  0  0  0  0  0
   48.5216    5.2592   18.9062 H   0  0  0  0  0  0  0  0  0  0  0  0
   49.1198    3.6358   18.9333 H   0  0  0  0  0  0  0  0  0  0  0  0
   55.4925    3.2644   20.8067 H   0  0  0  0  0  0  0  0  0  0  0  0
   53.6988    0.3303   17.8919 H   0  0  0  0  0  0  0  0  0  0  0  0
   49.7494    5.9120   16.9513 H   0  0  0  0  0  0  0  0  0  0  0  0
   48.9596    4.6694   23.3262 H   0  0  0  0  0  0  0  0  0  0  0  0
   48.9812    6.4230   23.5470 H   0  0  0  0  0  0  0  0  0  0  0  0
   50.4499    5.5840   23.0356 H   0  0  0  0  0  0  0  0  0  0  0  0
   46.9810    4.8904   21.7179 H   0  0  0  0  0  0  0  0  0  0  0  0
   47.0522    6.0293   20.3611 H   0  0  0  0  0  0  0  0  0  0  0  0
   47.0119    6.6336   22.0132 H   0  0  0  0  0  0  0  0  0  0  0  0
   50.6288    7.1430   21.0069 H   0  0  0  0  0  0  0  0  0  0  0  0
   49.2364    7.3638   19.9293 H   0  0  0  0  0  0  0  0  0  0  0  0
   49.1799    7.9675   21.5809 H   0  0  0  0  0  0  0  0  0  0  0  0
  2  1  2  0
  3  1  1  0
  4 10  1  0
  5  3  2  0
  6  2  1  0
  7  5  1  0
  8  1  1  0
  9  4  1  0
 10  8  1  0
 11  5  1  0
 12  6  1  0
 13  8  1  0
 14  9  1  0
 15  9  1  0
 16  9  1  0
  6  7  2  0
 18 17  1  0
 19 17  1  0
 20 17  2  0
 21 17  2  0
 23 22  2  0
 24 22  1  0
 25 31  1  0
 26 24  2  0
 27 23  1  0
 28 26  1  0
 29 22  1  0
 30 25  1  0
 31 29  1  0
 32 26  1  0
 33 27  1  0
 34 29  1  0
 35 30  1  0
 36 30  1  0
 37 30  1  0
 27 28  2  0
  2 38  1  0
  3 39  1  0
  4 40  1  0
  7 41  1  0
  8 42  1  1
 10 43  1  0
 10 44  1  0
 11 45  1  0
 12 46  1  0
 13 47  1  0
 14 48  1  0
 14 49  1  0
 14 50  1  0
 15 51  1  0
 15 52  1  0
 15 53  1  0
 16 54  1  0
 16 55  1  0
 16 56  1  0
 18 57  1  0
 19 58  1  0
 23 59  1  0
 24 60  1  0
 25 61  1  0
 28 62  1  0
 29 63  1  1
 31 64  1  0
 31 65  1  0
 32 66  1  0
 33 67  1  0
 34 68  1  0
 35 69  1  0
 35 70  1  0
 35 71  1  0
 36 72  1  0
 36 73  1  0
 36 74  1  0
 37 75  1  0
 37 76  1  0
 37 77  1  0
M  END
> <Uni-Dock RESULT> 
ENERGY=   -5.155  LOWER_BOUND=    4.350  UPPER_BOUND=    6.280
INTER + INTRA:          -5.155
INTER:                  -5.155
INTRA:                   0.000
UNBOUND:                 0.000

$$$$

     RDKit          3D

 77 76  0  0  0  0  0  0  0  0999 V2000
   41.3714   11.3916   11.5503 C   0  0  0  0  0  0  0  0  0  0  0  0
   40.9101   12.3370   12.4815 C   0  0  0  0  0  0  0  0  0  0  0  0
   40.5036   10.3583   11.1594 C   0  0  0  0  0  0  0  0  0  0  0  0
   44.1551   12.0252    9.0008 N   0  0  0  0  0  0  0  0  0  0  0  0
   39.2140   10.2852   11.6818 C   0  0  0  0  0  0  0  0  0  0  0  0
   39.6166   12.2438   12.9950 C   0  0  0  0  0  0  0  0  0  0  0  0
   38.7607   11.2234   12.6019 C   0  0  0  0  0  0  0  0  0  0  0  0
   42.7665   11.4570   10.9672 C   0  0  1  0  0  0  0  0  0  0  0  0
   44.3134   12.3680    7.5726 C   0  0  0  0  0  0  0  0  0  0  0  0
   42.7628   11.8584    9.4678 C   0  0  0  0  0  0  0  0  0  0  0  0
   38.4145    9.2651   11.2532 O   0  0  0  0  0  0  0  0  0  0  0  0
   39.1473   13.1533   13.8975 O   0  0  0  0  0  0  0  0  0  0  0  0
   43.5854   12.3905   11.6848 O   0  0  0  0  0  0  0  0  0  0  0  0
   45.8159   12.6443    7.3681 C   0  0  0  0  0  0  0  0  0  0  0  0
   43.5310   13.6323    7.1808 C   0  0  0  0  0  0  0  0  0  0  0  0
   43.9080   11.1940    6.6638 C   0  0  0  0  0  0  0  0  0  0  0  0
   42.5578   11.4823    9.8062 S   0  0  0  0  0  0  0  0  0  0  0  0
   42.4309   12.3454    8.4606 O   0  0  0  0  0  0  0  0  0  0  0  0
   41.8422   12.4499   10.8670 O   0  0  0  0  0  0  0  0  0  0  0  0
   41.7141   10.3212    9.6867 O   0  0  0  0  0  0  0  0  0  0  0  0
   43.9624   11.4242   10.1219 O   0  0  0  0  0  0  0  0  0  0  0  0
   41.4117   11.5402   11.1900 C   0  0  0  0  0  0  0  0  0  0  0  0
   40.3438   10.6677   11.4516 C   0  0  0  0  0  0  0  0  0  0  0  0
   41.1717   12.9226   11.2265 C   0  0  0  0  0  0  0  0  0  0  0  0
   42.6905   11.5650    8.3265 N   0  0  0  0  0  0  0  0  0  0  0  0
   39.8970   13.4066   11.5059 C   0  0  0  0  0  0  0  0  0  0  0  0
   39.0763   11.1705   11.7342 C   0  0  0  0  0  0  0  0  0  0  0  0
   38.8375   12.5407   11.7607 C   0  0  0  0  0  0  0  0  0  0  0  0
   42.7863   11.0156   10.8344 C   0  0  2  0  0  0  0  0  0  0  0  0
   43.8894   12.1697    7.7282 C   0  0  0  0  0  0  0  0  0  0  0  0
   42.8856   10.5376    9.3575 C   0  0  0  0  0  0  0  0  0  0  0  0
   39.7288   14.7613   11.5118 O   0  0  0  0  0  0  0  0  0  0  0  0
   38.0803   10.2714   11.9800 O   0  0  0  0  0  0  0  0  0  0  0  0
   43.1066    9.9280   11.7086 O   0  0  0  0  0  0  0  0  0  0  0  0
   43.3977   13.3319    6.8432 C   0  0  0  0  0  0  0  0  0  0  0  0
   44.6034   11.1500    6.8247 C   0  0  0  0  0  0  0  0  0  0  0  0
   44.8704   12.7335    8.7655 C   0  0  0  0  0  0  0  0  0  0  0  0
   41.5683   13.1398   12.7987 H   0  0  0  0  0  0  0  0  0  0  0  0
   40.8238    9.6041   10.4412 H   0  0  0  0  0  0  0  0  0  0  0  0
   44.6748   11.1624    9.1897 H   0  0  0  0  0  0  0  0  0  0  0  0
   37.7604   11.1775   13.0164 H   0  0  0  0  0  0  0  0  0  0  0  0
   43.2416   10.4746   11.0893 H   0  0  0  0  0  0  0  0  0  0  0  0
   42.2323   11.0998    8.8835 H   0  0  0  0  0  0  0  0  0  0  0  0
   42.2302   12.8119    9.3698 H   0  0  0  0  0  0  0  0  0  0  0  0
   37.5581    9.3391   11.7065 H   0  0  0  0  0  0  0  0  0  0  0  0
   39.8681   13.7716   14.1090 H   0  0  0  0  0  0  0  0  0  0  0  0
   44.2538   12.6767   11.0283 H   0  0  0  0  0  0  0  0  0  0  0  0
   46.4233   11.7642    7.6115 H   0  0  0  0  0  0  0  0  0  0  0  0
   46.0301   12.9095    6.3266 H   0  0  0  0  0  0  0  0  0  0  0  0
   46.1598   13.4728    7.9988 H   0  0  0  0  0  0  0  0  0  0  0  0
   43.7805   13.9442    6.1600 H   0  0  0  0  0  0  0  0  0  0  0  0
   43.7664   14.4711    7.8480 H   0  0  0  0  0  0  0  0  0  0  0  0
   42.4483   13.4671    7.2062 H   0  0  0  0  0  0  0  0  0  0  0  0
   42.8331   10.9858    6.7159 H   0  0  0  0  0  0  0  0  0  0  0  0
   44.4413   10.2753    6.9366 H   0  0  0  0  0  0  0  0  0  0  0  0
   44.1438   11.4117    5.6162 H   0  0  0  0  0  0  0  0  0  0  0  0
   43.1913   12.9640    8.4509 H   0  0  0  0  0  0  0  0  0  0  0  0
   40.9041   12.1702   10.9224 H   0  0  0  0  0  0  0  0  0  0  0  0
   40.5017    9.5916   11.4377 H   0  0  0  0  0  0  0  0  0  0  0  0
   41.9763   13.6295   11.0340 H   0  0  0  0  0  0  0  0  0  0  0  0
   42.0555   12.2828    8.6757 H   0  0  0  0  0  0  0  0  0  0  0  0
   37.8479   12.9241   11.9784 H   0  0  0  0  0  0  0  0  0  0  0  0
   43.5290   11.7945   11.0367 H   0  0  0  0  0  0  0  0  0  0  0  0
   43.8288    9.9975    9.2181 H   0  0  0  0  0  0  0  0  0  0  0  0
   42.1131    9.7736    9.1958 H   0  0  0  0  0  0  0  0  0  0  0  0
   38.8002   14.9616   11.7192 H   0  0  0  0  0  0  0  0  0  0  0  0
   37.2408   10.7469   12.0752 H   0  0  0  0  0  0  0  0  0  0  0  0
   44.0520    9.7406   11.5928 H   0  0  0  0  0  0  0  0  0  0  0  0
   42.6993   12.9824    6.0729 H   0  0  0  0  0  0  0  0  0  0  0  0
   44.2351   13.8185    6.3305 H   0  0  0  0  0  0  0  0  0  0  0  0
   42.8863   14.0984    7.4373 H   0  0  0  0  0  0  0  0  0  0  0  0
   43.9175   10.7315    6.0766 H   0  0  0  0  0  0  0  0  0  0  0  0
   45.0288   10.3164    7.3940 H   0  0  0  0  0  0  0  0  0  0  0  0
   45.4330   11.6190    6.2822 H   0  0  0  0  0  0  0  0  0  0  0  0
   44.3877   13.4687    9.4191 H   0  0  0  0  0  0  0  0  0  0  0  0
   45.2982   11.9458    9.3966 H   0  0  0  0  0  0  0  0  0  0  0  0
   45.7090   13.2375    8.2749 H   0  0  0  0  0  0  0  0  0  0  0  0
  2  1  2  0
  3  1  1  0
  4 10  1  0
  5  3  2  0
  6  2  1  0
  7  5  1  0
  8  1  1  0
  9  4  1  0
 10  8  1  0
 11  5  1  0
 12  6  1  0
 13  8  1  0
 14  9  1  0
 15  9  1  0
 16  9  1  0
  6  7  2  0
 18 17  1  0
 19 17  1  0
 20 17  2  0
 21 17  2  0
 23 22  2  0
 24 22  1  0
 25 31  1  0
 26 24  2  0
 27 23  1  0
 28 26  1  0
 29 22  1  0
 30 25  1  0
 31 29  1  0
 32 26  1  0
 33 27  1  0
 34 29  1  0
 35 30  1  0
 36 30  1  0
 37 30  1  0
 27 28  2  0
  2 38  1  0
  3 39  1  0
  4 40  1  0
  7 41  1  0
  8 42  1  1
 10 43  1  0
 10 44  1  0
 11 45  1  0
 12 46  1  0
 13 47  1  0
 14 48  1  0
 14 49  1  0
 14 50  1  0
 15 51  1  0
 15 52  1  0
 15 53  1  0
 16 54  1  0
 16 55  1  0
 16 56  1  0
 18 57  1  0
 19 58  1  0
 23 59  1  0
 24 60  1  0
 25 61  1  0
 28 62  1  0
 29 63  1  1
 31 64  1  0
 31 65  1  0
 32 66  1  0
 33 67  1  0
 34 68  1  0
 35 69  1  0
 35 70  1  0
 35 71  1  0
 36 72  1  0
 36 73  1  0
 36 74  1  0
 37 75  1  0
 37 76  1  0
 37 77  1  0
M  END
> <Uni-Dock RESULT> 
ENERGY=   -5.111  LOWER_BOUND=    9.568  UPPER_BOUND=   11.328
INTER + INTRA:          -5.111
INTER:                  -5.111
INTRA:                   0.000
UNBOUND:                 0.000

$$$$

     RDKit          3D

 77 76  0  0  0  0  0  0  0  0999 V2000
   48.3363    8.7459   12.9530 C   0  0  0  0  0  0  0  0  0  0  0  0
   49.7019    8.4245   13.0266 C   0  0  0  0  0  0  0  0  0  0  0  0
   47.9706    9.9985   12.4324 C   0  0  0  0  0  0  0  0  0  0  0  0
   45.5027    6.1805   12.7553 N   0  0  0  0  0  0  0  0  0  0  0  0
   48.9458   10.8916   11.9936 C   0  0  0  0  0  0  0  0  0  0  0  0
   50.6625    9.3342   12.5852 C   0  0  0  0  0  0  0  0  0  0  0  0
   50.2959   10.5692   12.0667 C   0  0  0  0  0  0  0  0  0  0  0  0
   47.2618    7.7874   13.4192 C   0  0  1  0  0  0  0  0  0  0  0  0
   44.6201    5.5572   11.7477 C   0  0  0  0  0  0  0  0  0  0  0  0
   46.4432    7.1974   12.2398 C   0  0  0  0  0  0  0  0  0  0  0  0
   48.5263   12.0875   11.4863 O   0  0  0  0  0  0  0  0  0  0  0  0
   51.9938    9.0408   12.6443 O   0  0  0  0  0  0  0  0  0  0  0  0
   47.8247    6.7019   14.1686 O   0  0  0  0  0  0  0  0  0  0  0  0
   43.8609    4.4371   12.4858 C   0  0  0  0  0  0  0  0  0  0  0  0
   45.4063    4.9256   10.5871 C   0  0  0  0  0  0  0  0  0  0  0  0
   43.5908    6.5628   11.2020 C   0  0  0  0  0  0  0  0  0  0  0  0
   46.5838    7.6767   12.4599 S   0  0  0  0  0  0  0  0  0  0  0  0
   46.1736    6.8166   11.1701 O   0  0  0  0  0  0  0  0  0  0  0  0
   48.1790    7.5068   12.4547 O   0  0  0  0  0  0  0  0  0  0  0  0
   46.3257    9.0666   12.1845 O   0  0  0  0  0  0  0  0  0  0  0  0
   46.0573    6.9742   13.6024 O   0  0  0  0  0  0  0  0  0  0  0  0
   48.1458    8.5389   12.6804 C   0  0  0  0  0  0  0  0  0  0  0  0
   48.4133    9.8960   12.4419 C   0  0  0  0  0  0  0  0  0  0  0  0
   49.0123    7.5793   12.1342 C   0  0  0  0  0  0  0  0  0  0  0  0
   45.5436    7.2665   11.4784 N   0  0  0  0  0  0  0  0  0  0  0  0
   50.1030    7.9750   11.3655 C   0  0  0  0  0  0  0  0  0  0  0  0
   49.5125   10.2731   11.6745 C   0  0  0  0  0  0  0  0  0  0  0  0
   50.3651    9.3207   11.1258 C   0  0  0  0  0  0  0  0  0  0  0  0
   46.9308    8.1046   13.4717 C   0  0  2  0  0  0  0  0  0  0  0  0
   44.8390    5.9871   11.6448 C   0  0  0  0  0  0  0  0  0  0  0  0
   45.6176    8.1618   12.6400 C   0  0  0  0  0  0  0  0  0  0  0  0
   50.8977    6.9907   10.8523 O   0  0  0  0  0  0  0  0  0  0  0  0
   49.7188   11.6073   11.4792 O   0  0  0  0  0  0  0  0  0  0  0  0
   46.8023    8.9476   14.6217 O   0  0  0  0  0  0  0  0  0  0  0  0
   45.0859    5.1809   10.3545 C   0  0  0  0  0  0  0  0  0  0  0  0
   43.3255    6.2280   11.7755 C   0  0  0  0  0  0  0  0  0  0  0  0
   45.3467    5.1616   12.8352 C   0  0  0  0  0  0  0  0  0  0  0  0
   50.0035    7.4630   13.4304 H   0  0  0  0  0  0  0  0  0  0  0  0
   46.9223   10.2869   12.3603 H   0  0  0  0  0  0  0  0  0  0  0  0
   44.9194    6.6055   13.4829 H   0  0  0  0  0  0  0  0  0  0  0  0
   51.0644   11.2550   11.7296 H   0  0  0  0  0  0  0  0  0  0  0  0
   46.5931    8.3214   14.1073 H   0  0  0  0  0  0  0  0  0  0  0  0
   45.9164    8.0019   11.7166 H   0  0  0  0  0  0  0  0  0  0  0  0
   47.1426    6.7239   11.5404 H   0  0  0  0  0  0  0  0  0  0  0  0
   49.3108   12.6021   11.2327 H   0  0  0  0  0  0  0  0  0  0  0  0
   52.0950    8.1716   13.0696 H   0  0  0  0  0  0  0  0  0  0  0  0
   47.1837    5.9708   14.0495 H   0  0  0  0  0  0  0  0  0  0  0  0
   43.2616    4.8355   13.3133 H   0  0  0  0  0  0  0  0  0  0  0  0
   43.1751    3.9138   11.8100 H   0  0  0  0  0  0  0  0  0  0  0  0
   44.5506    3.6924   12.9005 H   0  0  0  0  0  0  0  0  0  0  0  0
   44.7412    4.3484    9.9345 H   0  0  0  0  0  0  0  0  0  0  0  0
   46.1815    4.2415   10.9547 H   0  0  0  0  0  0  0  0  0  0  0  0
   45.8874    5.6835    9.9591 H   0  0  0  0  0  0  0  0  0  0  0  0
   44.0638    7.3555   10.6109 H   0  0  0  0  0  0  0  0  0  0  0  0
   43.0292    7.0398   12.0144 H   0  0  0  0  0  0  0  0  0  0  0  0
   42.8652    6.0639   10.5501 H   0  0  0  0  0  0  0  0  0  0  0  0
   46.1029    5.8844   11.4651 H   0  0  0  0  0  0  0  0  0  0  0  0
   48.5477    8.2787   11.9753 H   0  0  0  0  0  0  0  0  0  0  0  0
   47.7635   10.6623   12.8587 H   0  0  0  0  0  0  0  0  0  0  0  0
   48.8396    6.5181   12.3021 H   0  0  0  0  0  0  0  0  0  0  0  0
   46.4793    7.1210   11.0993 H   0  0  0  0  0  0  0  0  0  0  0  0
   51.2164    9.6220   10.5272 H   0  0  0  0  0  0  0  0  0  0  0  0
   47.0982    7.0928   13.8561 H   0  0  0  0  0  0  0  0  0  0  0  0
   44.7620    8.0265   13.3111 H   0  0  0  0  0  0  0  0  0  0  0  0
   45.5011    9.1859   12.2606 H   0  0  0  0  0  0  0  0  0  0  0  0
   51.6157    7.4013   10.3411 H   0  0  0  0  0  0  0  0  0  0  0  0
   50.4578   11.7267   10.8631 H   0  0  0  0  0  0  0  0  0  0  0  0
   46.1454    8.5337   15.2043 H   0  0  0  0  0  0  0  0  0  0  0  0
   44.7296    5.7214    9.4690 H   0  0  0  0  0  0  0  0  0  0  0  0
   44.5621    4.2187   10.3846 H   0  0  0  0  0  0  0  0  0  0  0  0
   46.1523    4.9699   10.2127 H   0  0  0  0  0  0  0  0  0  0  0  0
   42.9421    6.8204   10.9344 H   0  0  0  0  0  0  0  0  0  0  0  0
   43.0665    6.7527   12.7016 H   0  0  0  0  0  0  0  0  0  0  0  0
   42.7760    5.2790   11.7849 H   0  0  0  0  0  0  0  0  0  0  0  0
   46.4232    4.9700   12.7631 H   0  0  0  0  0  0  0  0  0  0  0  0
   45.1529    5.6595   13.7924 H   0  0  0  0  0  0  0  0  0  0  0  0
   44.8465    4.1890   12.8763 H   0  0  0  0  0  0  0  0  0  0  0  0
  2  1  2  0
  3  1  1  0
  4 10  1  0
  5  3  2  0
  6  2  1  0
  7  5  1  0
  8  1  1  0
  9  4  1  0
 10  8  1  0
 11  5  1  0
 12  6  1  0
 13  8  1  0
 14  9  1  0
 15  9  1  0
 16  9  1  0
  6  7  2  0
 18 17  1  0
 19 17  1  0
 20 17  2  0
 21 17  2  0
 23 22  2  0
 24 22  1  0
 25 31  1  0
 26 24  2  0
 27 23  1  0
 28 26  1  0
 29 22  1  0
 30 25  1  0
 31 29  1  0
 32 26  1  0
 33 27  1  0
 34 29  1  0
 35 30  1  0
 36 30  1  0
 37 30  1  0
 27 28  2  0
  2 38  1  0
  3 39  1  0
  4 40  1  0
  7 41  1  0
  8 42  1  1
 10 43  1  0
 10 44  1  0
 11 45  1  0
 12 46  1  0
 13 47  1  0
 14 48  1  0
 14 49  1  0
 14 50  1  0
 15 51  1  0
 15 52  1  0
 15 53  1  0
 16 54  1  0
 16 55  1  0
 16 56  1  0
 18 57  1  0
 19 58  1  0
 23 59  1  0
 24 60  1  0
 25 61  1  0
 28 62  1  0
 29 63  1  1
 31 64  1  0
 31 65  1  0
 32 66  1  0
 33 67  1  0
 34 68  1  0
 35 69  1  0
 35 70  1  0
 35 71  1  0
 36 72  1  0
 36 73  1  0
 36 74  1  0
 37 75  1  0
 37 76  1  0
 37 77  1  0
M  END
> <Uni-Dock RESULT> 
ENERGY=   -5.024  LOWER_BOUND=    4.254  UPPER_BOUND=    6.248
INTER + INTRA:          -5.024
INTER:                  -5.024
INTRA:                   0.000
UNBOUND:                 0.000

$$$$

     RDKit          3D

 77 76  0  0  0  0  0  0  0  0999 V2000
   44.0055   11.7197   10.3414 C   0  0  0  0  0  0  0  0  0  0  0  0
   44.7022   12.9285   10.1769 C   0  0  0  0  0  0  0  0  0  0  0  0
   44.6076   10.6971   11.0933 C   0  0  0  0  0  0  0  0  0  0  0  0
   40.2016   11.3523   10.1295 N   0  0  0  0  0  0  0  0  0  0  0  0
   45.8632   10.8888   11.6660 C   0  0  0  0  0  0  0  0  0  0  0  0
   45.9597   13.0990   10.7557 C   0  0  0  0  0  0  0  0  0  0  0  0
   46.5487   12.0870   11.5022 C   0  0  0  0  0  0  0  0  0  0  0  0
   42.6387   11.4940    9.7320 C   0  0  1  0  0  0  0  0  0  0  0  0
   39.0308   11.2565   11.0253 C   0  0  0  0  0  0  0  0  0  0  0  0
   41.5146   11.4478   10.8013 C   0  0  0  0  0  0  0  0  0  0  0  0
   46.3894    9.8620   12.3957 O   0  0  0  0  0  0  0  0  0  0  0  0
   46.6519   14.2660   10.6114 O   0  0  0  0  0  0  0  0  0  0  0  0
   42.3189   12.5193    8.7815 O   0  0  0  0  0  0  0  0  0  0  0  0
   37.7919   11.3312   10.1114 C   0  0  0  0  0  0  0  0  0  0  0  0
   38.9619   12.4184   12.0299 C   0  0  0  0  0  0  0  0  0  0  0  0
   39.0022    9.9111   11.7722 C   0  0  0  0  0  0  0  0  0  0  0  0
   41.9849   11.2036   10.6703 S   0  0  0  0  0  0  0  0  0  0  0  0
   40.9265   11.6526   11.7883 O   0  0  0  0  0  0  0  0  0  0  0  0
   42.9374   12.4929   10.6057 O   0  0  0  0  0  0  0  0  0  0  0  0
   42.7891   10.1348   11.2041 O   0  0  0  0  0  0  0  0  0  0  0  0
   41.2557   11.1168    9.4306 O   0  0  0  0  0  0  0  0  0  0  0  0
   43.6934   11.7548   10.5756 C   0  0  0  0  0  0  0  0  0  0  0  0
   44.8331   11.0898   11.0543 C   0  0  0  0  0  0  0  0  0  0  0  0
   43.5140   13.1051   10.9140 C   0  0  0  0  0  0  0  0  0  0  0  0
   40.8658   10.8471   11.5838 N   0  0  0  0  0  0  0  0  0  0  0  0
   44.4457   13.7575   11.7161 C   0  0  0  0  0  0  0  0  0  0  0  0
   45.7571   11.7605   11.8515 C   0  0  0  0  0  0  0  0  0  0  0  0
   45.5733   13.0962   12.1942 C   0  0  0  0  0  0  0  0  0  0  0  0
   42.6524   11.0331    9.7470 C   0  0  2  0  0  0  0  0  0  0  0  0
   39.4790   11.1486   11.2007 C   0  0  0  0  0  0  0  0  0  0  0  0
   41.7074   10.1452   10.6062 C   0  0  0  0  0  0  0  0  0  0  0  0
   44.2039   15.0664   12.0193 O   0  0  0  0  0  0  0  0  0  0  0  0
   46.8440   11.0595   12.2852 O   0  0  0  0  0  0  0  0  0  0  0  0
   43.3178   10.2181    8.7761 O   0  0  0  0  0  0  0  0  0  0  0  0
   38.9035   12.0467   12.3134 C   0  0  0  0  0  0  0  0  0  0  0  0
   38.6485    9.8550   11.1532 C   0  0  0  0  0  0  0  0  0  0  0  0
   39.3643   11.8987    9.8664 C   0  0  0  0  0  0  0  0  0  0  0  0
   44.2546   13.7283    9.5951 H   0  0  0  0  0  0  0  0  0  0  0  0
   44.1013    9.7439   11.2426 H   0  0  0  0  0  0  0  0  0  0  0  0
   40.2048   10.5381    9.5072 H   0  0  0  0  0  0  0  0  0  0  0  0
   47.5261   12.2487   11.9417 H   0  0  0  0  0  0  0  0  0  0  0  0
   42.6588   10.5504    9.1708 H   0  0  0  0  0  0  0  0  0  0  0  0
   41.6815   10.6025   11.4767 H   0  0  0  0  0  0  0  0  0  0  0  0
   41.5578   12.3757   11.3841 H   0  0  0  0  0  0  0  0  0  0  0  0
   47.2629   10.1368   12.7211 H   0  0  0  0  0  0  0  0  0  0  0  0
   46.1388   14.8540   10.0304 H   0  0  0  0  0  0  0  0  0  0  0  0
   41.3396   12.5463    8.7788 H   0  0  0  0  0  0  0  0  0  0  0  0
   37.7770   10.5085    9.3864 H   0  0  0  0  0  0  0  0  0  0  0  0
   36.8666   11.2673   10.6951 H   0  0  0  0  0  0  0  0  0  0  0  0
   37.7653   12.2726    9.5497 H   0  0  0  0  0  0  0  0  0  0  0  0
   38.0142   12.4020   12.5805 H   0  0  0  0  0  0  0  0  0  0  0  0
   39.0316   13.3895   11.5237 H   0  0  0  0  0  0  0  0  0  0  0  0
   39.7627   12.3620   12.7755 H   0  0  0  0  0  0  0  0  0  0  0  0
   39.8273    9.8206   12.4881 H   0  0  0  0  0  0  0  0  0  0  0  0
   39.0681    9.0665   11.0757 H   0  0  0  0  0  0  0  0  0  0  0  0
   38.0707    9.7982   12.3378 H   0  0  0  0  0  0  0  0  0  0  0  0
   40.2358   12.1741   11.3279 H   0  0  0  0  0  0  0  0  0  0  0  0
   43.6903   12.3233   11.2105 H   0  0  0  0  0  0  0  0  0  0  0  0
   45.0024   10.0454   10.8021 H   0  0  0  0  0  0  0  0  0  0  0  0
   42.6453   13.6546   10.5570 H   0  0  0  0  0  0  0  0  0  0  0  0
   41.3459   11.6871   11.9069 H   0  0  0  0  0  0  0  0  0  0  0  0
   46.2952   13.6102   12.8175 H   0  0  0  0  0  0  0  0  0  0  0  0
   42.0753   11.7699    9.1783 H   0  0  0  0  0  0  0  0  0  0  0  0
   41.1122    9.5082    9.9424 H   0  0  0  0  0  0  0  0  0  0  0  0
   42.3285    9.4370   11.1711 H   0  0  0  0  0  0  0  0  0  0  0  0
   44.9259   15.3975   12.5802 H   0  0  0  0  0  0  0  0  0  0  0  0
   47.3555   11.6132   12.8948 H   0  0  0  0  0  0  0  0  0  0  0  0
   42.6433    9.9241    8.1430 H   0  0  0  0  0  0  0  0  0  0  0  0
   38.9497   11.5530   13.2919 H   0  0  0  0  0  0  0  0  0  0  0  0
   37.8532   12.2915   12.1185 H   0  0  0  0  0  0  0  0  0  0  0  0
   39.4526   12.9926   12.3881 H   0  0  0  0  0  0  0  0  0  0  0  0
   38.7196    9.3008   12.0982 H   0  0  0  0  0  0  0  0  0  0  0  0
   38.9671    9.1858   10.3466 H   0  0  0  0  0  0  0  0  0  0  0  0
   37.5879   10.0751   10.9817 H   0  0  0  0  0  0  0  0  0  0  0  0
   39.9428   12.8293    9.8759 H   0  0  0  0  0  0  0  0  0  0  0  0
   39.7112   11.2909    9.0226 H   0  0  0  0  0  0  0  0  0  0  0  0
   38.3236   12.1663    9.6582 H   0  0  0  0  0  0  0  0  0  0  0  0
  2  1  2  0
  3  1  1  0
  4 10  1  0
  5  3  2  0
  6  2  1  0
  7  5  1  0
  8  1  1  0
  9  4  1  0
 10  8  1  0
 11  5  1  0
 12  6  1  0
 13  8  1  0
 14  9  1  0
 15  9  1  0
 16  9  1  0
  6  7  2  0
 18 17  1  0
 19 17  1  0
 20 17  2  0
 21 17  2  0
 23 22  2  0
 24 22  1  0
 25 31  1  0
 26 24  2  0
 27 23  1  0
 28 26  1  0
 29 22  1  0
 30 25  1  0
 31 29  1  0
 32 26  1  0
 33 27  1  0
 34 29  1  0
 35 30  1  0
 36 30  1  0
 37 30  1  0
 27 28  2  0
  2 38  1  0
  3 39  1  0
  4 40  1  0
  7 41  1  0
  8 42  1  1
 10 43  1  0
 10 44  1  0
 11 45  1  0
 12 46  1  0
 13 47  1  0
 14 48  1  0
 14 49  1  0
 14 50  1  0
 15 51  1  0
 15 52  1  0
 15 53  1  0
 16 54  1  0
 16 55  1  0
 16 56  1  0
 18 57  1  0
 19 58  1  0
 23 59  1  0
 24 60  1  0
 25 61  1  0
 28 62  1  0
 29 63  1  1
 31 64  1  0
 31 65  1  0
 32 66  1  0
 33 67  1  0
 34 68  1  0
 35 69  1  0
 35 70  1  0
 35 71  1  0
 36 72  1  0
 36 73  1  0
 36 74  1  0
 37 75  1  0
 37 76  1  0
 37 77  1  0
M  END
> <Uni-Dock RESULT> 
ENERGY=   -4.953  LOWER_BOUND=    7.588  UPPER_BOUND=   10.527
INTER + INTRA:          -4.953
INTER:                  -4.953
INTRA:                   0.000
UNBOUND:                 0.000

$$$$

     RDKit          3D

 77 76  0  0  0  0  0  0  0  0999 V2000
   48.5376   13.7385   16.3652 C   0  0  0  0  0  0  0  0  0  0  0  0
   49.4535   13.7013   15.3006 C   0  0  0  0  0  0  0  0  0  0  0  0
   47.2789   14.3226   16.1453 C   0  0  0  0  0  0  0  0  0  0  0  0
   48.5437   11.3163   19.3288 N   0  0  0  0  0  0  0  0  0  0  0  0
   46.9518   14.8428   14.8949 C   0  0  0  0  0  0  0  0  0  0  0  0
   49.1076   14.2309   14.0575 C   0  0  0  0  0  0  0  0  0  0  0  0
   47.8603   14.8027   13.8435 C   0  0  0  0  0  0  0  0  0  0  0  0
   48.8718   13.1740   17.7291 C   0  0  1  0  0  0  0  0  0  0  0  0
   47.8453   10.0967   19.7840 C   0  0  0  0  0  0  0  0  0  0  0  0
   48.0771   11.8784   18.0440 C   0  0  0  0  0  0  0  0  0  0  0  0
   45.7088   15.3856   14.7408 O   0  0  0  0  0  0  0  0  0  0  0  0
   49.9805   14.2018   13.0092 O   0  0  0  0  0  0  0  0  0  0  0  0
   50.2722   12.8860   17.8422 O   0  0  0  0  0  0  0  0  0  0  0  0
   48.6036    9.6183   21.0378 C   0  0  0  0  0  0  0  0  0  0  0  0
   47.8830    8.9715   18.7368 C   0  0  0  0  0  0  0  0  0  0  0  0
   46.3896   10.3974   20.1829 C   0  0  0  0  0  0  0  0  0  0  0  0
   47.9984   12.4010   17.9072 S   0  0  0  0  0  0  0  0  0  0  0  0
   47.4984   10.8774   17.8859 O   0  0  0  0  0  0  0  0  0  0  0  0
   48.8878   12.4569   16.5733 O   0  0  0  0  0  0  0  0  0  0  0  0
   46.8651   13.2581   17.6722 O   0  0  0  0  0  0  0  0  0  0  0  0
   48.8766   12.5256   19.0426 O   0  0  0  0  0  0  0  0  0  0  0  0
   48.3955   13.3849   16.4560 C   0  0  0  0  0  0  0  0  0  0  0  0
   47.5658   14.3028   15.7933 C   0  0  0  0  0  0  0  0  0  0  0  0
   49.0560   12.4080   15.6949 C   0  0  0  0  0  0  0  0  0  0  0  0
   47.1106   11.3420   18.4587 N   0  0  0  0  0  0  0  0  0  0  0  0
   48.8764   12.3525   14.3158 C   0  0  0  0  0  0  0  0  0  0  0  0
   47.4024   14.2350   14.4120 C   0  0  0  0  0  0  0  0  0  0  0  0
   48.0500   13.2603   13.6599 C   0  0  0  0  0  0  0  0  0  0  0  0
   48.5509   13.4104   17.9614 C   0  0  2  0  0  0  0  0  0  0  0  0
   47.6317   10.3860   19.4464 C   0  0  0  0  0  0  0  0  0  0  0  0
   47.3422   12.7713   18.7032 C   0  0  0  0  0  0  0  0  0  0  0  0
   49.5367   11.3692   13.6372 O   0  0  0  0  0  0  0  0  0  0  0  0
   46.5831   15.1555   13.8268 O   0  0  0  0  0  0  0  0  0  0  0  0
   48.7061   14.7684   18.3874 O   0  0  0  0  0  0  0  0  0  0  0  0
   47.4250    8.9812   18.8466 C   0  0  0  0  0  0  0  0  0  0  0  0
   46.8192   10.4735   20.7495 C   0  0  0  0  0  0  0  0  0  0  0  0
   49.1265   10.5697   19.7432 C   0  0  0  0  0  0  0  0  0  0  0  0
   50.4326   13.2581   15.4533 H   0  0  0  0  0  0  0  0  0  0  0  0
   46.5412   14.3731   16.9455 H   0  0  0  0  0  0  0  0  0  0  0  0
   48.4578   12.0332   20.0561 H   0  0  0  0  0  0  0  0  0  0  0  0
   47.6188   15.2045   12.8664 H   0  0  0  0  0  0  0  0  0  0  0  0
   48.6535   13.9389   18.4860 H   0  0  0  0  0  0  0  0  0  0  0  0
   47.0051   12.0993   18.0689 H   0  0  0  0  0  0  0  0  0  0  0  0
   48.2673   11.1561   17.2411 H   0  0  0  0  0  0  0  0  0  0  0  0
   45.6303   15.7112   13.8285 H   0  0  0  0  0  0  0  0  0  0  0  0
   50.8185   13.8191   13.3219 H   0  0  0  0  0  0  0  0  0  0  0  0
   50.3170   12.1756   18.5153 H   0  0  0  0  0  0  0  0  0  0  0  0
   48.5886   10.3762   21.8303 H   0  0  0  0  0  0  0  0  0  0  0  0
   48.1516    8.7086   21.4491 H   0  0  0  0  0  0  0  0  0  0  0  0
   49.6523    9.3937   20.8096 H   0  0  0  0  0  0  0  0  0  0  0  0
   47.4881    8.0378   19.1537 H   0  0  0  0  0  0  0  0  0  0  0  0
   48.9082    8.7735   18.3993 H   0  0  0  0  0  0  0  0  0  0  0  0
   47.2728    9.2099   17.8587 H   0  0  0  0  0  0  0  0  0  0  0  0
   45.7778   10.6848   19.3200 H   0  0  0  0  0  0  0  0  0  0  0  0
   46.3367   11.2103   20.9173 H   0  0  0  0  0  0  0  0  0  0  0  0
   45.9183    9.5169   20.6334 H   0  0  0  0  0  0  0  0  0  0  0  0
   48.2069   10.3434   18.3028 H   0  0  0  0  0  0  0  0  0  0  0  0
   48.3070   12.7868   15.8554 H   0  0  0  0  0  0  0  0  0  0  0  0
   47.0471   15.0756   16.3562 H   0  0  0  0  0  0  0  0  0  0  0  0
   49.7112   11.6828   16.1733 H   0  0  0  0  0  0  0  0  0  0  0  0
   47.4232   11.1014   17.5181 H   0  0  0  0  0  0  0  0  0  0  0  0
   47.9152   13.2121   12.5860 H   0  0  0  0  0  0  0  0  0  0  0  0
   49.4813   12.9005   18.2329 H   0  0  0  0  0  0  0  0  0  0  0  0
   47.4212   12.9918   19.7737 H   0  0  0  0  0  0  0  0  0  0  0  0
   46.4327   13.2999   18.3872 H   0  0  0  0  0  0  0  0  0  0  0  0
   49.3254   11.4441   12.6910 H   0  0  0  0  0  0  0  0  0  0  0  0
   46.4905   14.9439   12.8853 H   0  0  0  0  0  0  0  0  0  0  0  0
   48.9946   14.7433   19.3139 H   0  0  0  0  0  0  0  0  0  0  0  0
   46.3676    8.7909   18.6251 H   0  0  0  0  0  0  0  0  0  0  0  0
   47.7601    8.2028   19.5414 H   0  0  0  0  0  0  0  0  0  0  0  0
   47.9908    8.8565   17.9160 H   0  0  0  0  0  0  0  0  0  0  0  0
   45.7454   10.3479   20.5588 H   0  0  0  0  0  0  0  0  0  0  0  0
   46.9594   11.4308   21.2633 H   0  0  0  0  0  0  0  0  0  0  0  0
   47.1207    9.6890   21.4539 H   0  0  0  0  0  0  0  0  0  0  0  0
   49.7296   10.5051   18.8306 H   0  0  0  0  0  0  0  0  0  0  0  0
   49.3346   11.5340   20.2213 H   0  0  0  0  0  0  0  0  0  0  0  0
   49.4866    9.7930   20.4251 H   0  0  0  0  0  0  0  0  0  0  0  0
  2  1  2  0
  3  1  1  0
  4 10  1  0
  5  3  2  0
  6  2  1  0
  7  5  1  0
  8  1  1  0
  9  4  1  0
 10  8  1  0
 11  5  1  0
 12  6  1  0
 13  8  1  0
 14  9  1  0
 15  9  1  0
 16  9  1  0
  6  7  2  0
 18 17  1  0
 19 17  1  0
 20 17  2  0
 21 17  2  0
 23 22  2  0
 24 22  1  0
 25 31  1  0
 26 24  2  0
 27 23  1  0
 28 26  1  0
 29 22  1  0
 30 25  1  0
 31 29  1  0
 32 26  1  0
 33 27  1  0
 34 29  1  0
 35 30  1  0
 36 30  1  0
 37 30  1  0
 27 28  2  0
  2 38  1  0
  3 39  1  0
  4 40  1  0
  7 41  1  0
  8 42  1  1
 10 43  1  0
 10 44  1  0
 11 45  1  0
 12 46  1  0
 13 47  1  0
 14 48  1  0
 14 49  1  0
 14 50  1  0
 15 51  1  0
 15 52  1  0
 15 53  1  0
 16 54  1  0
 16 55  1  0
 16 56  1  0
 18 57  1  0
 19 58  1  0
 23 59  1  0
 24 60  1  0
 25 61  1  0
 28 62  1  0
 29 63  1  1
 31 64  1  0
 31 65  1  0
 32 66  1  0
 33 67  1  0
 34 68  1  0
 35 69  1  0
 35 70  1  0
 35 71  1  0
 36 72  1  0
 36 73  1  0
 36 74  1  0
 37 75  1  0
 37 76  1  0
 37 77  1  0
M  END
> <Uni-Dock RESULT> 
ENERGY=   -4.905  LOWER_BOUND=    5.373  UPPER_BOUND=    8.565
INTER + INTRA:          -4.905
INTER:                  -4.905
INTRA:                   0.000
UNBOUND:                 0.000

$$$$
