
     RDKit          3D

 77 76  0  0  0  0  0  0  0  0999 V2000
   45.1740    5.3416   12.0995 C   0  0  0  0  0  0  0  0  0  0  0  0
   45.3470    4.9155   10.7681 C   0  0  0  0  0  0  0  0  0  0  0  0
   43.8808    5.6632   12.5420 C   0  0  0  0  0  0  0  0  0  0  0  0
   48.0397    7.0572   13.9679 N   0  0  0  0  0  0  0  0  0  0  0  0
   42.7957    5.5613   11.6721 C   0  0  0  0  0  0  0  0  0  0  0  0
   44.2472    4.8279    9.9143 C   0  0  0  0  0  0  0  0  0  0  0  0
   42.9704    5.1534   10.3556 C   0  0  0  0  0  0  0  0  0  0  0  0
   46.3736    5.4719   13.0130 C   0  0  1  0  0  0  0  0  0  0  0  0
   49.0104    8.1466   13.7326 C   0  0  0  0  0  0  0  0  0  0  0  0
   47.0266    6.8716   12.9083 C   0  0  0  0  0  0  0  0  0  0  0  0
   41.5313    5.8530   12.0893 O   0  0  0  0  0  0  0  0  0  0  0  0
   44.3862    4.4289    8.6182 O   0  0  0  0  0  0  0  0  0  0  0  0
   45.9909    5.2172   14.3682 O   0  0  0  0  0  0  0  0  0  0  0  0
   50.0227    7.7318   12.6519 C   0  0  0  0  0  0  0  0  0  0  0  0
   48.3399    9.4752   13.3464 C   0  0  0  0  0  0  0  0  0  0  0  0
   49.7702    8.3488   15.0598 C   0  0  0  0  0  0  0  0  0  0  0  0
   47.1062    6.7001   12.5791 S   0  0  0  0  0  0  0  0  0  0  0  0
   45.7255    5.9573   12.2408 O   0  0  0  0  0  0  0  0  0  0  0  0
   46.5886    7.9962   13.3721 O   0  0  0  0  0  0  0  0  0  0  0  0
   47.8198    5.8783   13.5259 O   0  0  0  0  0  0  0  0  0  0  0  0
   47.6609    7.1102   11.3146 O   0  0  0  0  0  0  0  0  0  0  0  0
   45.2916    6.1291   11.7784 C   0  0  0  0  0  0  0  0  0  0  0  0
   44.6298    5.5010   12.8460 C   0  0  0  0  0  0  0  0  0  0  0  0
   45.5980    5.3649   10.6389 C   0  0  0  0  0  0  0  0  0  0  0  0
   47.3035    7.6011   13.6900 N   0  0  0  0  0  0  0  0  0  0  0  0
   45.2577    4.0156   10.5789 C   0  0  0  0  0  0  0  0  0  0  0  0
   44.3183    4.1427   12.7736 C   0  0  0  0  0  0  0  0  0  0  0  0
   44.6226    3.3929   11.6439 C   0  0  0  0  0  0  0  0  0  0  0  0
   45.6003    7.6139   11.7776 C   0  0  2  0  0  0  0  0  0  0  0  0
   48.6019    8.2396   13.4026 C   0  0  0  0  0  0  0  0  0  0  0  0
   46.1092    8.2272   13.1111 C   0  0  0  0  0  0  0  0  0  0  0  0
   45.5647    3.3339    9.4379 O   0  0  0  0  0  0  0  0  0  0  0  0
   43.6901    3.5070   13.8044 O   0  0  0  0  0  0  0  0  0  0  0  0
   44.4097    8.3196   11.3926 O   0  0  0  0  0  0  0  0  0  0  0  0
   48.8707    8.4129   11.9016 C   0  0  0  0  0  0  0  0  0  0  0  0
   49.6736    7.2924   13.9814 C   0  0  0  0  0  0  0  0  0  0  0  0
   48.7267    9.5997   14.1167 C   0  0  0  0  0  0  0  0  0  0  0  0
   46.3398    4.6581   10.4098 H   0  0  0  0  0  0  0  0  0  0  0  0
   43.7369    5.9942   13.5687 H   0  0  0  0  0  0  0  0  0  0  0  0
   47.5316    7.2585   14.8338 H   0  0  0  0  0  0  0  0  0  0  0  0
   42.1201    5.0811    9.6849 H   0  0  0  0  0  0  0  0  0  0  0  0
   47.1090    4.7009   12.7495 H   0  0  0  0  0  0  0  0  0  0  0  0
   46.2582    7.6460   13.0223 H   0  0  0  0  0  0  0  0  0  0  0  0
   47.4523    6.9787   11.9054 H   0  0  0  0  0  0  0  0  0  0  0  0
   41.5561    6.0147   13.0465 H   0  0  0  0  0  0  0  0  0  0  0  0
   45.3163    4.2039    8.4563 H   0  0  0  0  0  0  0  0  0  0  0  0
   46.8311    5.2368   14.8628 H   0  0  0  0  0  0  0  0  0  0  0  0
   50.5097    6.7840   12.9108 H   0  0  0  0  0  0  0  0  0  0  0  0
   50.8102    8.4865   12.5426 H   0  0  0  0  0  0  0  0  0  0  0  0
   49.5524    7.6131   11.6698 H   0  0  0  0  0  0  0  0  0  0  0  0
   49.0756   10.2862   13.2961 H   0  0  0  0  0  0  0  0  0  0  0  0
   47.5868    9.7654   14.0865 H   0  0  0  0  0  0  0  0  0  0  0  0
   47.8465    9.4210   12.3689 H   0  0  0  0  0  0  0  0  0  0  0  0
   49.1042    8.7108   15.8498 H   0  0  0  0  0  0  0  0  0  0  0  0
   50.5721    9.0855   14.9496 H   0  0  0  0  0  0  0  0  0  0  0  0
   50.2246    7.4173   15.4128 H   0  0  0  0  0  0  0  0  0  0  0  0
   45.7435    5.7499   11.2799 H   0  0  0  0  0  0  0  0  0  0  0  0
   46.2436    7.6898   14.2346 H   0  0  0  0  0  0  0  0  0  0  0  0
   44.3534    6.0751   13.7251 H   0  0  0  0  0  0  0  0  0  0  0  0
   46.0991    5.8213    9.7860 H   0  0  0  0  0  0  0  0  0  0  0  0
   47.1864    7.5489   14.7015 H   0  0  0  0  0  0  0  0  0  0  0  0
   44.3602    2.3407   11.6136 H   0  0  0  0  0  0  0  0  0  0  0  0
   46.3383    7.8195   10.9950 H   0  0  0  0  0  0  0  0  0  0  0  0
   46.2306    9.3085   12.9854 H   0  0  0  0  0  0  0  0  0  0  0  0
   45.3018    8.1486   13.8524 H   0  0  0  0  0  0  0  0  0  0  0  0
   45.1946    2.4406    9.5093 H   0  0  0  0  0  0  0  0  0  0  0  0
   43.6356    4.1180   14.5574 H   0  0  0  0  0  0  0  0  0  0  0  0
   43.8327    7.6848   10.9345 H   0  0  0  0  0  0  0  0  0  0  0  0
   49.8951    8.7670   11.7251 H   0  0  0  0  0  0  0  0  0  0  0  0
   48.7566    7.4621   11.3652 H   0  0  0  0  0  0  0  0  0  0  0  0
   48.1966    9.1475   11.4493 H   0  0  0  0  0  0  0  0  0  0  0  0
   50.6829    7.6876   13.8164 H   0  0  0  0  0  0  0  0  0  0  0  0
   49.5545    7.1624   15.0637 H   0  0  0  0  0  0  0  0  0  0  0  0
   49.6262    6.2988   13.5198 H   0  0  0  0  0  0  0  0  0  0  0  0
   49.7372   10.0095   14.0004 H   0  0  0  0  0  0  0  0  0  0  0  0
   48.5369    9.5049   15.1935 H   0  0  0  0  0  0  0  0  0  0  0  0
   48.0288   10.3419   13.7179 H   0  0  0  0  0  0  0  0  0  0  0  0
  2  1  2  0
  3  1  1  0
  4 10  1  0
  5  3  2  0
  6  2  1  0
  7  5  1  0
  8  1  1  0
  9  4  1  0
 10  8  1  0
 11  5  1  0
 12  6  1  0
 13  8  1  0
 14  9  1  0
 15  9  1  0
 16  9  1  0
  6  7  2  0
 18 17  1  0
 19 17  1  0
 20 17  2  0
 21 17  2  0
 23 22  2  0
 24 22  1  0
 25 31  1  0
 26 24  2  0
 27 23  1  0
 28 26  1  0
 29 22  1  0
 30 25  1  0
 31 29  1  0
 32 26  1  0
 33 27  1  0
 34 29  1  0
 35 30  1  0
 36 30  1  0
 37 30  1  0
 27 28  2  0
  2 38  1  0
  3 39  1  0
  4 40  1  0
  7 41  1  0
  8 42  1  6
 10 43  1  0
 10 44  1  0
 11 45  1  0
 12 46  1  0
 13 47  1  0
 14 48  1  0
 14 49  1  0
 14 50  1  0
 15 51  1  0
 15 52  1  0
 15 53  1  0
 16 54  1  0
 16 55  1  0
 16 56  1  0
 18 57  1  0
 19 58  1  0
 23 59  1  0
 24 60  1  0
 25 61  1  0
 28 62  1  0
 29 63  1  1
 31 64  1  0
 31 65  1  0
 32 66  1  0
 33 67  1  0
 34 68  1  0
 35 69  1  0
 35 70  1  0
 35 71  1  0
 36 72  1  0
 36 73  1  0
 36 74  1  0
 37 75  1  0
 37 76  1  0
 37 77  1  0
M  END
> <Uni-Dock RESULT> 
ENERGY=   -4.745  LOWER_BOUND=    0.000  UPPER_BOUND=    0.000
INTER + INTRA:          -4.745
INTER:                  -4.745
INTRA:                   0.000
UNBOUND:                 0.000

$$$$

     RDKit          3D

 77 76  0  0  0  0  0  0  0  0999 V2000
   48.8255    6.5640   17.8205 C   0  0  0  0  0  0  0  0  0  0  0  0
   48.0799    5.4311   18.2009 C   0  0  0  0  0  0  0  0  0  0  0  0
   50.1772    6.3980   17.4784 C   0  0  0  0  0  0  0  0  0  0  0  0
   47.8544   10.0369   19.1019 N   0  0  0  0  0  0  0  0  0  0  0  0
   50.7614    5.1325   17.5195 C   0  0  0  0  0  0  0  0  0  0  0  0
   48.6879    4.1761   18.2412 C   0  0  0  0  0  0  0  0  0  0  0  0
   50.0275    4.0185   17.9077 C   0  0  0  0  0  0  0  0  0  0  0  0
   48.1739    7.9300   17.8137 C   0  0  1  0  0  0  0  0  0  0  0  0
   47.5124   10.6791   20.3884 C   0  0  0  0  0  0  0  0  0  0  0  0
   48.2822    8.6255   19.1926 C   0  0  0  0  0  0  0  0  0  0  0  0
   52.0672    4.9501   17.1745 O   0  0  0  0  0  0  0  0  0  0  0  0
   47.9938    3.0642   18.6158 O   0  0  0  0  0  0  0  0  0  0  0  0
   48.7700    8.7553   16.8079 O   0  0  0  0  0  0  0  0  0  0  0  0
   46.1564   10.1615   20.8964 C   0  0  0  0  0  0  0  0  0  0  0  0
   48.5914   10.4789   21.4651 C   0  0  0  0  0  0  0  0  0  0  0  0
   47.3809   12.1891   20.1014 C   0  0  0  0  0  0  0  0  0  0  0  0
   48.0356    8.3414   19.2437 S   0  0  0  0  0  0  0  0  0  0  0  0
   48.7116    7.1501   18.4092 O   0  0  0  0  0  0  0  0  0  0  0  0
   49.3249    9.1582   19.7408 O   0  0  0  0  0  0  0  0  0  0  0  0
   47.3334    9.1833   18.3060 O   0  0  0  0  0  0  0  0  0  0  0  0
   47.4002    7.7246   20.3798 O   0  0  0  0  0  0  0  0  0  0  0  0
   49.0138    6.6217   18.6561 C   0  0  0  0  0  0  0  0  0  0  0  0
   49.5731    6.9552   17.4118 C   0  0  0  0  0  0  0  0  0  0  0  0
   48.0521    5.5972   18.7042 C   0  0  0  0  0  0  0  0  0  0  0  0
   48.6404    9.6332   19.4684 N   0  0  0  0  0  0  0  0  0  0  0  0
   47.6617    4.9376   17.5413 C   0  0  0  0  0  0  0  0  0  0  0  0
   49.1509    6.2965   16.2563 C   0  0  0  0  0  0  0  0  0  0  0  0
   48.2010    5.2838   16.3105 C   0  0  0  0  0  0  0  0  0  0  0  0
   49.4776    7.2614   19.9504 C   0  0  2  0  0  0  0  0  0  0  0  0
   47.7950   10.2441   20.5116 C   0  0  0  0  0  0  0  0  0  0  0  0
   49.7533    8.7900   19.9202 C   0  0  0  0  0  0  0  0  0  0  0  0
   46.7390    3.9396   17.6571 O   0  0  0  0  0  0  0  0  0  0  0  0
   49.6679    6.6141   15.0344 O   0  0  0  0  0  0  0  0  0  0  0  0
   50.6838    6.6032   20.3695 O   0  0  0  0  0  0  0  0  0  0  0  0
   47.2098    9.2186   21.4920 C   0  0  0  0  0  0  0  0  0  0  0  0
   46.6277   10.9215   19.7638 C   0  0  0  0  0  0  0  0  0  0  0  0
   48.5631   11.3312   21.2885 C   0  0  0  0  0  0  0  0  0  0  0  0
   47.0316    5.5400   18.4644 H   0  0  0  0  0  0  0  0  0  0  0  0
   50.7620    7.2674   17.1838 H   0  0  0  0  0  0  0  0  0  0  0  0
   48.6282   10.5560   18.6773 H   0  0  0  0  0  0  0  0  0  0  0  0
   50.4922    3.0381   17.9405 H   0  0  0  0  0  0  0  0  0  0  0  0
   47.1173    7.8207   17.5375 H   0  0  0  0  0  0  0  0  0  0  0  0
   49.3231    8.5990   19.5376 H   0  0  0  0  0  0  0  0  0  0  0  0
   47.6846    8.0573   19.9125 H   0  0  0  0  0  0  0  0  0  0  0  0
   52.4106    5.7896   16.8274 H   0  0  0  0  0  0  0  0  0  0  0  0
   47.0714    3.3121   18.7876 H   0  0  0  0  0  0  0  0  0  0  0  0
   48.2356    9.5709   16.8187 H   0  0  0  0  0  0  0  0  0  0  0  0
   45.3745   10.2953   20.1392 H   0  0  0  0  0  0  0  0  0  0  0  0
   45.8407   10.7059   21.7940 H   0  0  0  0  0  0  0  0  0  0  0  0
   46.1930    9.0993   21.1607 H   0  0  0  0  0  0  0  0  0  0  0  0
   48.3632   11.0643   22.3633 H   0  0  0  0  0  0  0  0  0  0  0  0
   49.5722   10.8062   21.1047 H   0  0  0  0  0  0  0  0  0  0  0  0
   48.6796    9.4303   21.7726 H   0  0  0  0  0  0  0  0  0  0  0  0
   48.3396   12.6230   19.7993 H   0  0  0  0  0  0  0  0  0  0  0  0
   47.0443   12.7338   20.9891 H   0  0  0  0  0  0  0  0  0  0  0  0
   46.6618   12.3884   19.3002 H   0  0  0  0  0  0  0  0  0  0  0  0
   48.3098    6.3135   18.7337 H   0  0  0  0  0  0  0  0  0  0  0  0
   49.7179    9.5865   18.9540 H   0  0  0  0  0  0  0  0  0  0  0  0
   50.3405    7.7208   17.3505 H   0  0  0  0  0  0  0  0  0  0  0  0
   47.6061    5.3024   19.6534 H   0  0  0  0  0  0  0  0  0  0  0  0
   49.0132   10.3768   18.8788 H   0  0  0  0  0  0  0  0  0  0  0  0
   47.8989    4.7842   15.3961 H   0  0  0  0  0  0  0  0  0  0  0  0
   48.7363    7.0560   20.7300 H   0  0  0  0  0  0  0  0  0  0  0  0
   50.1388    9.1044   20.8960 H   0  0  0  0  0  0  0  0  0  0  0  0
   50.6008    8.9701   19.2442 H   0  0  0  0  0  0  0  0  0  0  0  0
   46.6329    3.5221   16.7885 H   0  0  0  0  0  0  0  0  0  0  0  0
   50.2329    7.3980   15.1318 H   0  0  0  0  0  0  0  0  0  0  0  0
   50.7149    5.7421   19.9184 H   0  0  0  0  0  0  0  0  0  0  0  0
   46.4855    9.6918   22.1683 H   0  0  0  0  0  0  0  0  0  0  0  0
   46.6839    8.4154   20.9600 H   0  0  0  0  0  0  0  0  0  0  0  0
   47.9849    8.7669   22.1197 H   0  0  0  0  0  0  0  0  0  0  0  0
   45.9391   11.4101   20.4631 H   0  0  0  0  0  0  0  0  0  0  0  0
   46.9857   11.6956   19.0745 H   0  0  0  0  0  0  0  0  0  0  0  0
   46.0485   10.1972   19.1785 H   0  0  0  0  0  0  0  0  0  0  0  0
   47.8951   11.8647   21.9753 H   0  0  0  0  0  0  0  0  0  0  0  0
   48.9947   12.0781   20.6100 H   0  0  0  0  0  0  0  0  0  0  0  0
   49.3774   10.9137   21.8883 H   0  0  0  0  0  0  0  0  0  0  0  0
  2  1  2  0
  3  1  1  0
  4 10  1  0
  5  3  2  0
  6  2  1  0
  7  5  1  0
  8  1  1  0
  9  4  1  0
 10  8  1  0
 11  5  1  0
 12  6  1  0
 13  8  1  0
 14  9  1  0
 15  9  1  0
 16  9  1  0
  6  7  2  0
 18 17  1  0
 19 17  1  0
 20 17  2  0
 21 17  2  0
 23 22  2  0
 24 22  1  0
 25 31  1  0
 26 24  2  0
 27 23  1  0
 28 26  1  0
 29 22  1  0
 30 25  1  0
 31 29  1  0
 32 26  1  0
 33 27  1  0
 34 29  1  0
 35 30  1  0
 36 30  1  0
 37 30  1  0
 27 28  2  0
  2 38  1  0
  3 39  1  0
  4 40  1  0
  7 41  1  0
  8 42  1  6
 10 43  1  0
 10 44  1  0
 11 45  1  0
 12 46  1  0
 13 47  1  0
 14 48  1  0
 14 49  1  0
 14 50  1  0
 15 51  1  0
 15 52  1  0
 15 53  1  0
 16 54  1  0
 16 55  1  0
 16 56  1  0
 18 57  1  0
 19 58  1  0
 23 59  1  0
 24 60  1  0
 25 61  1  0
 28 62  1  0
 29 63  1  1
 31 64  1  0
 31 65  1  0
 32 66  1  0
 33 67  1  0
 34 68  1  0
 35 69  1  0
 35 70  1  0
 35 71  1  0
 36 72  1  0
 36 73  1  0
 36 74  1  0
 37 75  1  0
 37 76  1  0
 37 77  1  0
M  END
> <Uni-Dock RESULT> 
ENERGY=   -4.513  LOWER_BOUND=    5.511  UPPER_BOUND=    8.008
INTER + INTRA:          -4.513
INTER:                  -4.513
INTRA:                   0.000
UNBOUND:                 0.000

$$$$

     RDKit          3D

 77 76  0  0  0  0  0  0  0  0999 V2000
   48.4071    8.0401   21.1133 C   0  0  0  0  0  0  0  0  0  0  0  0
   49.6783    8.0748   21.7191 C   0  0  0  0  0  0  0  0  0  0  0  0
   47.2700    8.1957   21.9222 C   0  0  0  0  0  0  0  0  0  0  0  0
   47.8711    6.1063   17.8545 N   0  0  0  0  0  0  0  0  0  0  0  0
   47.4069    8.3784   23.2979 C   0  0  0  0  0  0  0  0  0  0  0  0
   49.7900    8.2520   23.0984 C   0  0  0  0  0  0  0  0  0  0  0  0
   48.6611    8.3992   23.8951 C   0  0  0  0  0  0  0  0  0  0  0  0
   48.2868    7.8102   19.6222 C   0  0  1  0  0  0  0  0  0  0  0  0
   48.1836    4.7711   17.3032 C   0  0  0  0  0  0  0  0  0  0  0  0
   48.2222    6.3026   19.2764 C   0  0  0  0  0  0  0  0  0  0  0  0
   46.3152    8.5481   24.0959 O   0  0  0  0  0  0  0  0  0  0  0  0
   51.0064    8.2790   23.7132 O   0  0  0  0  0  0  0  0  0  0  0  0
   47.1251    8.4731   19.1136 O   0  0  0  0  0  0  0  0  0  0  0  0
   49.6993    4.6272   17.0871 C   0  0  0  0  0  0  0  0  0  0  0  0
   47.6638    3.6218   18.1823 C   0  0  0  0  0  0  0  0  0  0  0  0
   47.4860    4.6915   15.9297 C   0  0  0  0  0  0  0  0  0  0  0  0
   48.5790    6.3629   19.3910 S   0  0  0  0  0  0  0  0  0  0  0  0
   48.3730    7.3498   20.6384 O   0  0  0  0  0  0  0  0  0  0  0  0
   47.2383    5.4824   19.4523 O   0  0  0  0  0  0  0  0  0  0  0  0
   48.5101    7.1608   18.1911 O   0  0  0  0  0  0  0  0  0  0  0  0
   49.7068    5.5299   19.7210 O   0  0  0  0  0  0  0  0  0  0  0  0
   48.4420    7.1974   21.2736 C   0  0  0  0  0  0  0  0  0  0  0  0
   47.4864    8.2161   21.1269 C   0  0  0  0  0  0  0  0  0  0  0  0
   49.7533    7.5569   21.6309 C   0  0  0  0  0  0  0  0  0  0  0  0
   47.5075    5.7326   18.6564 N   0  0  0  0  0  0  0  0  0  0  0  0
   50.0928    8.8936   21.8258 C   0  0  0  0  0  0  0  0  0  0  0  0
   47.8539    9.5505   21.3052 C   0  0  0  0  0  0  0  0  0  0  0  0
   49.1514    9.8993   21.6596 C   0  0  0  0  0  0  0  0  0  0  0  0
   48.0855    5.7285   21.1514 C   0  0  2  0  0  0  0  0  0  0  0  0
   48.1911    4.7168   17.8336 C   0  0  0  0  0  0  0  0  0  0  0  0
   47.1067    5.3348   20.0110 C   0  0  0  0  0  0  0  0  0  0  0  0
   51.3767    9.1755   22.1903 O   0  0  0  0  0  0  0  0  0  0  0  0
   46.9472   10.5584   21.1523 O   0  0  0  0  0  0  0  0  0  0  0  0
   47.5086    5.3015   22.3958 O   0  0  0  0  0  0  0  0  0  0  0  0
   49.4342    4.1261   18.5127 C   0  0  0  0  0  0  0  0  0  0  0  0
   48.6398    5.4472   16.5507 C   0  0  0  0  0  0  0  0  0  0  0  0
   47.2279    3.5836   17.4294 C   0  0  0  0  0  0  0  0  0  0  0  0
   50.5693    7.9608   21.1081 H   0  0  0  0  0  0  0  0  0  0  0  0
   46.2834    8.1696   21.4636 H   0  0  0  0  0  0  0  0  0  0  0  0
   46.8623    6.2618   17.7726 H   0  0  0  0  0  0  0  0  0  0  0  0
   48.7573    8.5380   24.9673 H   0  0  0  0  0  0  0  0  0  0  0  0
   49.1486    8.2675   19.1193 H   0  0  0  0  0  0  0  0  0  0  0  0
   47.4575    5.8156   19.8939 H   0  0  0  0  0  0  0  0  0  0  0  0
   49.1855    5.8493   19.5311 H   0  0  0  0  0  0  0  0  0  0  0  0
   45.5305    8.6176   23.5279 H   0  0  0  0  0  0  0  0  0  0  0  0
   51.7009    8.1984   23.0402 H   0  0  0  0  0  0  0  0  0  0  0  0
   47.1784    8.3445   18.1484 H   0  0  0  0  0  0  0  0  0  0  0  0
   50.0875    5.4408   16.4626 H   0  0  0  0  0  0  0  0  0  0  0  0
   49.9349    3.6838   16.5810 H   0  0  0  0  0  0  0  0  0  0  0  0
   50.2532    4.6323   18.0320 H   0  0  0  0  0  0  0  0  0  0  0  0
   47.8067    2.6539   17.6881 H   0  0  0  0  0  0  0  0  0  0  0  0
   46.5921    3.7309   18.3790 H   0  0  0  0  0  0  0  0  0  0  0  0
   48.1793    3.5742   19.1487 H   0  0  0  0  0  0  0  0  0  0  0  0
   46.3964    4.7218   16.0330 H   0  0  0  0  0  0  0  0  0  0  0  0
   47.7362    3.7608   15.4109 H   0  0  0  0  0  0  0  0  0  0  0  0
   47.7785    5.5210   15.2777 H   0  0  0  0  0  0  0  0  0  0  0  0
   49.1990    7.3104   21.1702 H   0  0  0  0  0  0  0  0  0  0  0  0
   46.4960    6.0664   19.1980 H   0  0  0  0  0  0  0  0  0  0  0  0
   46.4591    7.9641   20.8823 H   0  0  0  0  0  0  0  0  0  0  0  0
   50.5181    6.7929   21.7665 H   0  0  0  0  0  0  0  0  0  0  0  0
   46.6810    6.0530   18.1528 H   0  0  0  0  0  0  0  0  0  0  0  0
   49.4050   10.9448   21.7994 H   0  0  0  0  0  0  0  0  0  0  0  0
   49.0085    5.1509   21.0337 H   0  0  0  0  0  0  0  0  0  0  0  0
   46.8894    4.2634   20.0787 H   0  0  0  0  0  0  0  0  0  0  0  0
   46.1346    5.8030   20.2196 H   0  0  0  0  0  0  0  0  0  0  0  0
   51.4391   10.1261   22.3709 H   0  0  0  0  0  0  0  0  0  0  0  0
   46.1216   10.1819   20.8061 H   0  0  0  0  0  0  0  0  0  0  0  0
   47.7812    5.9414   23.0755 H   0  0  0  0  0  0  0  0  0  0  0  0
   49.9870    3.4762   17.8213 H   0  0  0  0  0  0  0  0  0  0  0  0
   50.1223    4.9167   18.8388 H   0  0  0  0  0  0  0  0  0  0  0  0
   49.1717    3.5162   19.3832 H   0  0  0  0  0  0  0  0  0  0  0  0
   49.1614    4.7658   15.8683 H   0  0  0  0  0  0  0  0  0  0  0  0
   47.7846    5.8577   16.0005 H   0  0  0  0  0  0  0  0  0  0  0  0
   49.3201    6.2774   16.7756 H   0  0  0  0  0  0  0  0  0  0  0  0
   47.7072    2.8999   16.7186 H   0  0  0  0  0  0  0  0  0  0  0  0
   46.3273    3.9790   16.9422 H   0  0  0  0  0  0  0  0  0  0  0  0
   46.9087    2.9858   18.2883 H   0  0  0  0  0  0  0  0  0  0  0  0
  2  1  2  0
  3  1  1  0
  4 10  1  0
  5  3  2  0
  6  2  1  0
  7  5  1  0
  8  1  1  0
  9  4  1  0
 10  8  1  0
 11  5  1  0
 12  6  1  0
 13  8  1  0
 14  9  1  0
 15  9  1  0
 16  9  1  0
  6  7  2  0
 18 17  1  0
 19 17  1  0
 20 17  2  0
 21 17  2  0
 23 22  2  0
 24 22  1  0
 25 31  1  0
 26 24  2  0
 27 23  1  0
 28 26  1  0
 29 22  1  0
 30 25  1  0
 31 29  1  0
 32 26  1  0
 33 27  1  0
 34 29  1  0
 35 30  1  0
 36 30  1  0
 37 30  1  0
 27 28  2  0
  2 38  1  0
  3 39  1  0
  4 40  1  0
  7 41  1  0
  8 42  1  6
 10 43  1  0
 10 44  1  0
 11 45  1  0
 12 46  1  0
 13 47  1  0
 14 48  1  0
 14 49  1  0
 14 50  1  0
 15 51  1  0
 15 52  1  0
 15 53  1  0
 16 54  1  0
 16 55  1  0
 16 56  1  0
 18 57  1  0
 19 58  1  0
 23 59  1  0
 24 60  1  0
 25 61  1  0
 28 62  1  0
 29 63  1  1
 31 64  1  0
 31 65  1  0
 32 66  1  0
 33 67  1  0
 34 68  1  0
 35 69  1  0
 35 70  1  0
 35 71  1  0
 36 72  1  0
 36 73  1  0
 36 74  1  0
 37 75  1  0
 37 76  1  0
 37 77  1  0
M  END
> <Uni-Dock RESULT> 
ENERGY=   -4.374  LOWER_BOUND=    6.664  UPPER_BOUND=    9.828
INTER + INTRA:          -4.374
INTER:                  -4.374
INTRA:                   0.000
UNBOUND:                 0.000

$$$$

     RDKit          3D

 77 76  0  0  0  0  0  0  0  0999 V2000
   49.0686    9.8921   15.8905 C   0  0  0  0  0  0  0  0  0  0  0  0
   48.3309    8.7954   15.4036 C   0  0  0  0  0  0  0  0  0  0  0  0
   50.4548    9.9241   15.6692 C   0  0  0  0  0  0  0  0  0  0  0  0
   47.8299   11.8579   18.9315 N   0  0  0  0  0  0  0  0  0  0  0  0
   51.0800    8.8846   14.9813 C   0  0  0  0  0  0  0  0  0  0  0  0
   48.9794    7.7639   14.7241 C   0  0  0  0  0  0  0  0  0  0  0  0
   50.3524    7.7975   14.5133 C   0  0  0  0  0  0  0  0  0  0  0  0
   48.3689   10.9916   16.6600 C   0  0  1  0  0  0  0  0  0  0  0  0
   47.3257   11.5774   20.2922 C   0  0  0  0  0  0  0  0  0  0  0  0
   48.3000   10.6791   18.1747 C   0  0  0  0  0  0  0  0  0  0  0  0
   52.4216    8.9072   14.7426 O   0  0  0  0  0  0  0  0  0  0  0  0
   48.2927    6.6853   14.2512 O   0  0  0  0  0  0  0  0  0  0  0  0
   49.0378   12.2398   16.4539 O   0  0  0  0  0  0  0  0  0  0  0  0
   45.9438   10.9067   20.2188 C   0  0  0  0  0  0  0  0  0  0  0  0
   48.2887   10.7138   21.1232 C   0  0  0  0  0  0  0  0  0  0  0  0
   47.1673   12.9442   20.9897 C   0  0  0  0  0  0  0  0  0  0  0  0
   48.0605   10.4337   18.0117 S   0  0  0  0  0  0  0  0  0  0  0  0
   48.8688    9.9913   16.6989 O   0  0  0  0  0  0  0  0  0  0  0  0
   49.2556   10.7190   19.0446 O   0  0  0  0  0  0  0  0  0  0  0  0
   47.4318   11.7005   17.7272 O   0  0  0  0  0  0  0  0  0  0  0  0
   47.3303    9.2697   18.4439 O   0  0  0  0  0  0  0  0  0  0  0  0
   49.1628    9.4129   16.5966 C   0  0  0  0  0  0  0  0  0  0  0  0
   49.8403   10.4245   15.8966 C   0  0  0  0  0  0  0  0  0  0  0  0
   48.2423    8.6150   15.8948 C   0  0  0  0  0  0  0  0  0  0  0  0
   48.5866   11.2854   19.0523 N   0  0  0  0  0  0  0  0  0  0  0  0
   48.0062    8.8323   14.5394 C   0  0  0  0  0  0  0  0  0  0  0  0
   49.5718   10.6391   14.5440 C   0  0  0  0  0  0  0  0  0  0  0  0
   48.6617    9.8462   13.8555 C   0  0  0  0  0  0  0  0  0  0  0  0
   49.4584    9.0959   18.0498 C   0  0  2  0  0  0  0  0  0  0  0  0
   47.6100   11.1495   20.1495 C   0  0  0  0  0  0  0  0  0  0  0  0
   49.6760   10.3034   19.0029 C   0  0  0  0  0  0  0  0  0  0  0  0
   47.1160    8.0118   13.9109 O   0  0  0  0  0  0  0  0  0  0  0  0
   50.2053   11.6259   13.8469 O   0  0  0  0  0  0  0  0  0  0  0  0
   50.6368    8.2758   18.0997 O   0  0  0  0  0  0  0  0  0  0  0  0
   46.9625    9.7596   20.2131 C   0  0  0  0  0  0  0  0  0  0  0  0
   46.5051   12.1868   19.8600 C   0  0  0  0  0  0  0  0  0  0  0  0
   48.2465   11.4926   21.5106 C   0  0  0  0  0  0  0  0  0  0  0  0
   47.2567    8.7562   15.5615 H   0  0  0  0  0  0  0  0  0  0  0  0
   51.0338   10.7668   16.0422 H   0  0  0  0  0  0  0  0  0  0  0  0
   48.6243   12.4995   19.0071 H   0  0  0  0  0  0  0  0  0  0  0  0
   50.8486    6.9912   13.9825 H   0  0  0  0  0  0  0  0  0  0  0  0
   47.3534   11.1158   16.2623 H   0  0  0  0  0  0  0  0  0  0  0  0
   49.2976   10.4063   18.5401 H   0  0  0  0  0  0  0  0  0  0  0  0
   47.6504    9.8096   18.3176 H   0  0  0  0  0  0  0  0  0  0  0  0
   52.7677    9.7680   15.0299 H   0  0  0  0  0  0  0  0  0  0  0  0
   47.3481    6.8073   14.4377 H   0  0  0  0  0  0  0  0  0  0  0  0
   48.4740   12.8924   16.9090 H   0  0  0  0  0  0  0  0  0  0  0  0
   45.2440   11.5093   19.6275 H   0  0  0  0  0  0  0  0  0  0  0  0
   45.5118   10.7893   21.2195 H   0  0  0  0  0  0  0  0  0  0  0  0
   45.9929    9.9085   19.7706 H   0  0  0  0  0  0  0  0  0  0  0  0
   47.9419   10.6250   22.1593 H   0  0  0  0  0  0  0  0  0  0  0  0
   49.2893   11.1577   21.1527 H   0  0  0  0  0  0  0  0  0  0  0  0
   48.3839    9.6977   20.7227 H   0  0  0  0  0  0  0  0  0  0  0  0
   48.1355   13.4363   21.1280 H   0  0  0  0  0  0  0  0  0  0  0  0
   46.7156   12.8340   21.9805 H   0  0  0  0  0  0  0  0  0  0  0  0
   46.5320   13.6231   20.4115 H   0  0  0  0  0  0  0  0  0  0  0  0
   48.4672    9.1490   16.3894 H   0  0  0  0  0  0  0  0  0  0  0  0
   49.7145   11.5277   18.7408 H   0  0  0  0  0  0  0  0  0  0  0  0
   50.5793   11.0347   16.4066 H   0  0  0  0  0  0  0  0  0  0  0  0
   47.7079    7.8123   16.4016 H   0  0  0  0  0  0  0  0  0  0  0  0
   48.9918   12.2200   19.0948 H   0  0  0  0  0  0  0  0  0  0  0  0
   48.4802   10.0318   12.8022 H   0  0  0  0  0  0  0  0  0  0  0  0
   48.6456    8.4793   18.4480 H   0  0  0  0  0  0  0  0  0  0  0  0
   49.9410    9.9314   19.9985 H   0  0  0  0  0  0  0  0  0  0  0  0
   50.5841   10.8320   18.6812 H   0  0  0  0  0  0  0  0  0  0  0  0
   47.1209    8.2262   12.9654 H   0  0  0  0  0  0  0  0  0  0  0  0
   50.7254   12.1596   14.4697 H   0  0  0  0  0  0  0  0  0  0  0  0
   50.7502    7.8787   17.2192 H   0  0  0  0  0  0  0  0  0  0  0  0
   46.1513    9.7384   20.9529 H   0  0  0  0  0  0  0  0  0  0  0  0
   46.5290    9.4785   19.2446 H   0  0  0  0  0  0  0  0  0  0  0  0
   47.6820    8.9880   20.5061 H   0  0  0  0  0  0  0  0  0  0  0  0
   45.7263   12.1623   20.6313 H   0  0  0  0  0  0  0  0  0  0  0  0
   46.9053   13.2077   19.8425 H   0  0  0  0  0  0  0  0  0  0  0  0
   46.0214   12.0026   18.8933 H   0  0  0  0  0  0  0  0  0  0  0  0
   47.4877   11.5103   22.3021 H   0  0  0  0  0  0  0  0  0  0  0  0
   48.7196   12.4828   21.4925 H   0  0  0  0  0  0  0  0  0  0  0  0
   49.0067   10.7639   21.8073 H   0  0  0  0  0  0  0  0  0  0  0  0
  2  1  2  0
  3  1  1  0
  4 10  1  0
  5  3  2  0
  6  2  1  0
  7  5  1  0
  8  1  1  0
  9  4  1  0
 10  8  1  0
 11  5  1  0
 12  6  1  0
 13  8  1  0
 14  9  1  0
 15  9  1  0
 16  9  1  0
  6  7  2  0
 18 17  1  0
 19 17  1  0
 20 17  2  0
 21 17  2  0
 23 22  2  0
 24 22  1  0
 25 31  1  0
 26 24  2  0
 27 23  1  0
 28 26  1  0
 29 22  1  0
 30 25  1  0
 31 29  1  0
 32 26  1  0
 33 27  1  0
 34 29  1  0
 35 30  1  0
 36 30  1  0
 37 30  1  0
 27 28  2  0
  2 38  1  0
  3 39  1  0
  4 40  1  0
  7 41  1  0
  8 42  1  6
 10 43  1  0
 10 44  1  0
 11 45  1  0
 12 46  1  0
 13 47  1  0
 14 48  1  0
 14 49  1  0
 14 50  1  0
 15 51  1  0
 15 52  1  0
 15 53  1  0
 16 54  1  0
 16 55  1  0
 16 56  1  0
 18 57  1  0
 19 58  1  0
 23 59  1  0
 24 60  1  0
 25 61  1  0
 28 62  1  0
 29 63  1  1
 31 64  1  0
 31 65  1  0
 32 66  1  0
 33 67  1  0
 34 68  1  0
 35 69  1  0
 35 70  1  0
 35 71  1  0
 36 72  1  0
 36 73  1  0
 36 74  1  0
 37 75  1  0
 37 76  1  0
 37 77  1  0
M  END
> <Uni-Dock RESULT> 
ENERGY=   -4.359  LOWER_BOUND=    4.797  UPPER_BOUND=    7.838
INTER + INTRA:          -4.359
INTER:                  -4.359
INTRA:                   0.000
UNBOUND:                 0.000

$$$$

     RDKit          3D

 77 76  0  0  0  0  0  0  0  0999 V2000
   48.8036    7.9931   19.9889 C   0  0  0  0  0  0  0  0  0  0  0  0
   47.9305    7.2711   19.1520 C   0  0  0  0  0  0  0  0  0  0  0  0
   49.0996    7.4768   21.2606 C   0  0  0  0  0  0  0  0  0  0  0  0
   49.1347   11.7882   19.6225 N   0  0  0  0  0  0  0  0  0  0  0  0
   48.5337    6.2728   21.6785 C   0  0  0  0  0  0  0  0  0  0  0  0
   47.3710    6.0721   19.5946 C   0  0  0  0  0  0  0  0  0  0  0  0
   47.6625    5.5688   20.8566 C   0  0  0  0  0  0  0  0  0  0  0  0
   49.3798    9.3122   19.5213 C   0  0  1  0  0  0  0  0  0  0  0  0
   48.2468   12.9647   19.5135 C   0  0  0  0  0  0  0  0  0  0  0  0
   48.4530   10.5013   19.8733 C   0  0  0  0  0  0  0  0  0  0  0  0
   48.8231    5.7482   22.9027 O   0  0  0  0  0  0  0  0  0  0  0  0
   46.5147    5.3577   18.8106 O   0  0  0  0  0  0  0  0  0  0  0  0
   50.6720    9.5185   20.1006 O   0  0  0  0  0  0  0  0  0  0  0  0
   47.5014   12.9447   18.1686 C   0  0  0  0  0  0  0  0  0  0  0  0
   47.2423   13.0685   20.6727 C   0  0  0  0  0  0  0  0  0  0  0  0
   49.1615   14.2065   19.5451 C   0  0  0  0  0  0  0  0  0  0  0  0
   48.2710   10.3112   19.5996 S   0  0  0  0  0  0  0  0  0  0  0  0
   48.5276    8.7844   20.0184 O   0  0  0  0  0  0  0  0  0  0  0  0
   48.2430   11.0373   21.0309 O   0  0  0  0  0  0  0  0  0  0  0  0
   49.4499   10.7753   18.9097 O   0  0  0  0  0  0  0  0  0  0  0  0
   46.9517   10.3524   19.0231 O   0  0  0  0  0  0  0  0  0  0  0  0
   48.0878    8.3701   20.2763 C   0  0  0  0  0  0  0  0  0  0  0  0
   49.3763    8.0433   20.7294 C   0  0  0  0  0  0  0  0  0  0  0  0
   47.5506    7.6381   19.2029 C   0  0  0  0  0  0  0  0  0  0  0  0
   48.6646   11.4561   20.3866 N   0  0  0  0  0  0  0  0  0  0  0  0
   48.2864    6.6195   18.6020 C   0  0  0  0  0  0  0  0  0  0  0  0
   50.1044    7.0339   20.0981 C   0  0  0  0  0  0  0  0  0  0  0  0
   49.5674    6.3131   19.0384 C   0  0  0  0  0  0  0  0  0  0  0  0
   47.2288    9.4150   20.9618 C   0  0  2  0  0  0  0  0  0  0  0  0
   47.9581   12.5839   19.7501 C   0  0  0  0  0  0  0  0  0  0  0  0
   47.9400   10.7159   21.4261 C   0  0  0  0  0  0  0  0  0  0  0  0
   47.7017    5.9337   17.5781 O   0  0  0  0  0  0  0  0  0  0  0  0
   51.3639    6.7095   20.5099 O   0  0  0  0  0  0  0  0  0  0  0  0
   46.6191    8.8098   22.1132 O   0  0  0  0  0  0  0  0  0  0  0  0
   46.6012   12.1870   19.1530 C   0  0  0  0  0  0  0  0  0  0  0  0
   48.8731   13.0593   18.6022 C   0  0  0  0  0  0  0  0  0  0  0  0
   47.7738   13.7556   20.7342 C   0  0  0  0  0  0  0  0  0  0  0  0
   47.6938    7.6531   18.1629 H   0  0  0  0  0  0  0  0  0  0  0  0
   49.7726    8.0277   21.9149 H   0  0  0  0  0  0  0  0  0  0  0  0
   49.7792   11.9409   20.4034 H   0  0  0  0  0  0  0  0  0  0  0  0
   47.2238    4.6345   21.1923 H   0  0  0  0  0  0  0  0  0  0  0  0
   49.5310    9.2712   18.4350 H   0  0  0  0  0  0  0  0  0  0  0  0
   48.1796   10.4535   20.9344 H   0  0  0  0  0  0  0  0  0  0  0  0
   47.5301   10.4019   19.2930 H   0  0  0  0  0  0  0  0  0  0  0  0
   49.5190    6.2899   23.3094 H   0  0  0  0  0  0  0  0  0  0  0  0
   46.4271    5.8034   17.9530 H   0  0  0  0  0  0  0  0  0  0  0  0
   50.9960   10.3364   19.6799 H   0  0  0  0  0  0  0  0  0  0  0  0
   48.2037   12.8693   17.3297 H   0  0  0  0  0  0  0  0  0  0  0  0
   46.9207   13.8640   18.0290 H   0  0  0  0  0  0  0  0  0  0  0  0
   46.7994   12.1070   18.0983 H   0  0  0  0  0  0  0  0  0  0  0  0
   46.6831   14.0100   20.6247 H   0  0  0  0  0  0  0  0  0  0  0  0
   47.7545   13.0441   21.6403 H   0  0  0  0  0  0  0  0  0  0  0  0
   46.5099   12.2528   20.6600 H   0  0  0  0  0  0  0  0  0  0  0  0
   49.6670   14.3054   20.5111 H   0  0  0  0  0  0  0  0  0  0  0  0
   48.5888   15.1253   19.3838 H   0  0  0  0  0  0  0  0  0  0  0  0
   49.9348   14.1602   18.7714 H   0  0  0  0  0  0  0  0  0  0  0  0
   47.8505    8.2452   19.5520 H   0  0  0  0  0  0  0  0  0  0  0  0
   49.1550   11.0174   21.3840 H   0  0  0  0  0  0  0  0  0  0  0  0
   49.8029    8.5714   21.5766 H   0  0  0  0  0  0  0  0  0  0  0  0
   46.5490    7.8546   18.8330 H   0  0  0  0  0  0  0  0  0  0  0  0
   49.5373   11.8042   20.7825 H   0  0  0  0  0  0  0  0  0  0  0  0
   50.1545    5.5284   18.5733 H   0  0  0  0  0  0  0  0  0  0  0  0
   46.4052    9.6873   20.2933 H   0  0  0  0  0  0  0  0  0  0  0  0
   47.2202   11.3484   21.9567 H   0  0  0  0  0  0  0  0  0  0  0  0
   48.6644   10.4478   22.2077 H   0  0  0  0  0  0  0  0  0  0  0  0
   48.2928    5.2091   17.3217 H   0  0  0  0  0  0  0  0  0  0  0  0
   51.6468    7.3551   21.1781 H   0  0  0  0  0  0  0  0  0  0  0  0
   46.6470    7.8465   21.9824 H   0  0  0  0  0  0  0  0  0  0  0  0
   46.1690   13.0157   18.5766 H   0  0  0  0  0  0  0  0  0  0  0  0
   46.7017   11.3324   18.4715 H   0  0  0  0  0  0  0  0  0  0  0  0
   45.8752   11.9256   19.9297 H   0  0  0  0  0  0  0  0  0  0  0  0
   48.4286   13.9058   18.0656 H   0  0  0  0  0  0  0  0  0  0  0  0
   49.8479   13.3945   18.9762 H   0  0  0  0  0  0  0  0  0  0  0  0
   49.0534   12.2609   17.8725 H   0  0  0  0  0  0  0  0  0  0  0  0
   47.3612   14.6332   20.2222 H   0  0  0  0  0  0  0  0  0  0  0  0
   48.7305   14.0590   21.1784 H   0  0  0  0  0  0  0  0  0  0  0  0
   47.0897   13.5063   21.5508 H   0  0  0  0  0  0  0  0  0  0  0  0
  2  1  2  0
  3  1  1  0
  4 10  1  0
  5  3  2  0
  6  2  1  0
  7  5  1  0
  8  1  1  0
  9  4  1  0
 10  8  1  0
 11  5  1  0
 12  6  1  0
 13  8  1  0
 14  9  1  0
 15  9  1  0
 16  9  1  0
  6  7  2  0
 18 17  1  0
 19 17  1  0
 20 17  2  0
 21 17  2  0
 23 22  2  0
 24 22  1  0
 25 31  1  0
 26 24  2  0
 27 23  1  0
 28 26  1  0
 29 22  1  0
 30 25  1  0
 31 29  1  0
 32 26  1  0
 33 27  1  0
 34 29  1  0
 35 30  1  0
 36 30  1  0
 37 30  1  0
 27 28  2  0
  2 38  1  0
  3 39  1  0
  4 40  1  0
  7 41  1  0
  8 42  1  6
 10 43  1  0
 10 44  1  0
 11 45  1  0
 12 46  1  0
 13 47  1  0
 14 48  1  0
 14 49  1  0
 14 50  1  0
 15 51  1  0
 15 52  1  0
 15 53  1  0
 16 54  1  0
 16 55  1  0
 16 56  1  0
 18 57  1  0
 19 58  1  0
 23 59  1  0
 24 60  1  0
 25 61  1  0
 28 62  1  0
 29 63  1  1
 31 64  1  0
 31 65  1  0
 32 66  1  0
 33 67  1  0
 34 68  1  0
 35 69  1  0
 35 70  1  0
 35 71  1  0
 36 72  1  0
 36 73  1  0
 36 74  1  0
 37 75  1  0
 37 76  1  0
 37 77  1  0
M  END
> <Uni-Dock RESULT> 
ENERGY=   -4.246  LOWER_BOUND=    7.139  UPPER_BOUND=    9.115
INTER + INTRA:          -4.246
INTER:                  -4.246
INTRA:                   0.000
UNBOUND:                 0.000

$$$$

     RDKit          3D

 77 76  0  0  0  0  0  0  0  0999 V2000
   45.1337   12.4778    6.6973 C   0  0  0  0  0  0  0  0  0  0  0  0
   46.5135   12.6553    6.9182 C   0  0  0  0  0  0  0  0  0  0  0  0
   44.4601   13.3912    5.8706 C   0  0  0  0  0  0  0  0  0  0  0  0
   42.9723   10.6958    9.3049 N   0  0  0  0  0  0  0  0  0  0  0  0
   45.1521   14.4512    5.2857 C   0  0  0  0  0  0  0  0  0  0  0  0
   47.1831   13.7274    6.3277 C   0  0  0  0  0  0  0  0  0  0  0  0
   46.5103   14.6320    5.5154 C   0  0  0  0  0  0  0  0  0  0  0  0
   44.4018   11.3360    7.3690 C   0  0  1  0  0  0  0  0  0  0  0  0
   42.7448   10.7444   10.7644 C   0  0  0  0  0  0  0  0  0  0  0  0
   43.8770   11.7345    8.7699 C   0  0  0  0  0  0  0  0  0  0  0  0
   44.5180   15.3373    4.4669 O   0  0  0  0  0  0  0  0  0  0  0  0
   48.5156   13.9300    6.5323 O   0  0  0  0  0  0  0  0  0  0  0  0
   43.3119   10.9000    6.5505 O   0  0  0  0  0  0  0  0  0  0  0  0
   43.9882   10.2362   11.5130 C   0  0  0  0  0  0  0  0  0  0  0  0
   42.3623   12.1464   11.2662 C   0  0  0  0  0  0  0  0  0  0  0  0
   41.5739    9.7833   11.0561 C   0  0  0  0  0  0  0  0  0  0  0  0
   44.2543   11.7141    8.8073 S   0  0  0  0  0  0  0  0  0  0  0  0
   44.7677   12.3905    7.4467 O   0  0  0  0  0  0  0  0  0  0  0  0
   42.8813   12.5056    9.0622 O   0  0  0  0  0  0  0  0  0  0  0  0
   43.9079   10.3461    8.5074 O   0  0  0  0  0  0  0  0  0  0  0  0
   45.2074   12.0823    9.8225 O   0  0  0  0  0  0  0  0  0  0  0  0
   45.0400   12.9850    7.3836 C   0  0  0  0  0  0  0  0  0  0  0  0
   44.3528   12.6460    6.2067 C   0  0  0  0  0  0  0  0  0  0  0  0
   46.4322   12.7935    7.4241 C   0  0  0  0  0  0  0  0  0  0  0  0
   42.8720   11.6432    9.2189 N   0  0  0  0  0  0  0  0  0  0  0  0
   47.1074   12.2724    6.3229 C   0  0  0  0  0  0  0  0  0  0  0  0
   45.0462   12.1046    5.1235 C   0  0  0  0  0  0  0  0  0  0  0  0
   46.4225   11.9189    5.1691 C   0  0  0  0  0  0  0  0  0  0  0  0
   44.3482   13.6321    8.5679 C   0  0  2  0  0  0  0  0  0  0  0  0
   42.9434   11.2208   10.6305 C   0  0  0  0  0  0  0  0  0  0  0  0
   42.9454   13.0837    8.9488 C   0  0  0  0  0  0  0  0  0  0  0  0
   48.4606   12.1290    6.4180 O   0  0  0  0  0  0  0  0  0  0  0  0
   44.3981   11.7526    3.9757 O   0  0  0  0  0  0  0  0  0  0  0  0
   44.2150   15.0367    8.2974 O   0  0  0  0  0  0  0  0  0  0  0  0
   44.1876   11.7493   11.3569 C   0  0  0  0  0  0  0  0  0  0  0  0
   43.0141    9.6797   10.6052 C   0  0  0  0  0  0  0  0  0  0  0  0
   41.6738   11.6309   11.4020 C   0  0  0  0  0  0  0  0  0  0  0  0
   47.0520   11.9557    7.5513 H   0  0  0  0  0  0  0  0  0  0  0  0
   43.3938   13.2630    5.6944 H   0  0  0  0  0  0  0  0  0  0  0  0
   42.0712   10.8140    8.8331 H   0  0  0  0  0  0  0  0  0  0  0  0
   47.0394   15.4625    5.0589 H   0  0  0  0  0  0  0  0  0  0  0  0
   45.0821   10.4794    7.4597 H   0  0  0  0  0  0  0  0  0  0  0  0
   43.3213   12.6776    8.7004 H   0  0  0  0  0  0  0  0  0  0  0  0
   44.7379   11.9097    9.4230 H   0  0  0  0  0  0  0  0  0  0  0  0
   43.6118   15.0208    4.3191 H   0  0  0  0  0  0  0  0  0  0  0  0
   48.8614   13.2126    7.0868 H   0  0  0  0  0  0  0  0  0  0  0  0
   42.9602   10.1183    7.0153 H   0  0  0  0  0  0  0  0  0  0  0  0
   44.2763    9.2366   11.1659 H   0  0  0  0  0  0  0  0  0  0  0  0
   43.7958   10.1669   12.5900 H   0  0  0  0  0  0  0  0  0  0  0  0
   44.8489   10.9007   11.3821 H   0  0  0  0  0  0  0  0  0  0  0  0
   42.0861   12.1221   12.3266 H   0  0  0  0  0  0  0  0  0  0  0  0
   41.5017   12.5401   10.7154 H   0  0  0  0  0  0  0  0  0  0  0  0
   43.1853   12.8629   11.1596 H   0  0  0  0  0  0  0  0  0  0  0  0
   40.6439   10.1370   10.5993 H   0  0  0  0  0  0  0  0  0  0  0  0
   41.3926    9.6938   12.1318 H   0  0  0  0  0  0  0  0  0  0  0  0
   41.7692    8.7775   10.6700 H   0  0  0  0  0  0  0  0  0  0  0  0
   45.7036   12.6519    7.5960 H   0  0  0  0  0  0  0  0  0  0  0  0
   42.2476   12.2154    8.3760 H   0  0  0  0  0  0  0  0  0  0  0  0
   43.2823   12.8129    6.1372 H   0  0  0  0  0  0  0  0  0  0  0  0
   47.0005   13.0573    8.3153 H   0  0  0  0  0  0  0  0  0  0  0  0
   42.0087   11.2796    8.8165 H   0  0  0  0  0  0  0  0  0  0  0  0
   46.9350   11.5036    4.3078 H   0  0  0  0  0  0  0  0  0  0  0  0
   45.0023   13.5549    9.4429 H   0  0  0  0  0  0  0  0  0  0  0  0
   42.5394   13.6790    9.7737 H   0  0  0  0  0  0  0  0  0  0  0  0
   42.2581   13.3005    8.1192 H   0  0  0  0  0  0  0  0  0  0  0  0
   48.7964   11.8401    5.5555 H   0  0  0  0  0  0  0  0  0  0  0  0
   43.4417   11.8370    4.1222 H   0  0  0  0  0  0  0  0  0  0  0  0
   44.8623   15.2609    7.6071 H   0  0  0  0  0  0  0  0  0  0  0  0
   44.2734   11.3084   12.3590 H   0  0  0  0  0  0  0  0  0  0  0  0
   45.1047   11.4968   10.8092 H   0  0  0  0  0  0  0  0  0  0  0  0
   44.1520   12.8357   11.4881 H   0  0  0  0  0  0  0  0  0  0  0  0
   43.0683    9.2686   11.6202 H   0  0  0  0  0  0  0  0  0  0  0  0
   42.1271    9.2431   10.1307 H   0  0  0  0  0  0  0  0  0  0  0  0
   43.8941    9.3247   10.0555 H   0  0  0  0  0  0  0  0  0  0  0  0
   41.6787   11.2073   12.4135 H   0  0  0  0  0  0  0  0  0  0  0  0
   40.7670   11.2667   10.9022 H   0  0  0  0  0  0  0  0  0  0  0  0
   41.5855   12.7164   11.5062 H   0  0  0  0  0  0  0  0  0  0  0  0
  2  1  2  0
  3  1  1  0
  4 10  1  0
  5  3  2  0
  6  2  1  0
  7  5  1  0
  8  1  1  0
  9  4  1  0
 10  8  1  0
 11  5  1  0
 12  6  1  0
 13  8  1  0
 14  9  1  0
 15  9  1  0
 16  9  1  0
  6  7  2  0
 18 17  1  0
 19 17  1  0
 20 17  2  0
 21 17  2  0
 23 22  2  0
 24 22  1  0
 25 31  1  0
 26 24  2  0
 27 23  1  0
 28 26  1  0
 29 22  1  0
 30 25  1  0
 31 29  1  0
 32 26  1  0
 33 27  1  0
 34 29  1  0
 35 30  1  0
 36 30  1  0
 37 30  1  0
 27 28  2  0
  2 38  1  0
  3 39  1  0
  4 40  1  0
  7 41  1  0
  8 42  1  6
 10 43  1  0
 10 44  1  0
 11 45  1  0
 12 46  1  0
 13 47  1  0
 14 48  1  0
 14 49  1  0
 14 50  1  0
 15 51  1  0
 15 52  1  0
 15 53  1  0
 16 54  1  0
 16 55  1  0
 16 56  1  0
 18 57  1  0
 19 58  1  0
 23 59  1  0
 24 60  1  0
 25 61  1  0
 28 62  1  0
 29 63  1  1
 31 64  1  0
 31 65  1  0
 32 66  1  0
 33 67  1  0
 34 68  1  0
 35 69  1  0
 35 70  1  0
 35 71  1  0
 36 72  1  0
 36 73  1  0
 36 74  1  0
 37 75  1  0
 37 76  1  0
 37 77  1  0
M  END
> <Uni-Dock RESULT> 
ENERGY=   -4.191  LOWER_BOUND=    6.701  UPPER_BOUND=    8.831
INTER + INTRA:          -4.191
INTER:                  -4.191
INTRA:                   0.000
UNBOUND:                 0.000

$$$$

     RDKit          3D

 77 76  0  0  0  0  0  0  0  0999 V2000
   48.3508    7.2527   19.5938 C   0  0  0  0  0  0  0  0  0  0  0  0
   47.9588    6.6961   20.8270 C   0  0  0  0  0  0  0  0  0  0  0  0
   49.4356    6.6807   18.9101 C   0  0  0  0  0  0  0  0  0  0  0  0
   47.6728   10.9421   18.8357 N   0  0  0  0  0  0  0  0  0  0  0  0
   50.1067    5.5843   19.4506 C   0  0  0  0  0  0  0  0  0  0  0  0
   48.6499    5.6034   21.3511 C   0  0  0  0  0  0  0  0  0  0  0  0
   49.7268    5.0451   20.6733 C   0  0  0  0  0  0  0  0  0  0  0  0
   47.6235    8.4613   19.0452 C   0  0  1  0  0  0  0  0  0  0  0  0
   47.8501   12.2520   19.4969 C   0  0  0  0  0  0  0  0  0  0  0  0
   48.2395    9.7852   19.5595 C   0  0  0  0  0  0  0  0  0  0  0  0
   51.1508    5.0058   18.7928 O   0  0  0  0  0  0  0  0  0  0  0  0
   48.2997    5.0509   22.5472 O   0  0  0  0  0  0  0  0  0  0  0  0
   47.6451    8.4419   17.6145 O   0  0  0  0  0  0  0  0  0  0  0  0
   46.9018   12.3714   20.7017 C   0  0  0  0  0  0  0  0  0  0  0  0
   49.3000   12.5105   19.9382 C   0  0  0  0  0  0  0  0  0  0  0  0
   47.4556   13.3224   18.4585 C   0  0  0  0  0  0  0  0  0  0  0  0
   48.0687    9.6312   19.8616 S   0  0  0  0  0  0  0  0  0  0  0  0
   48.4404    8.0787   19.7072 O   0  0  0  0  0  0  0  0  0  0  0  0
   49.3562   10.3366   19.2125 O   0  0  0  0  0  0  0  0  0  0  0  0
   46.9515    9.8982   18.9889 O   0  0  0  0  0  0  0  0  0  0  0  0
   48.0463    9.8992   21.2767 O   0  0  0  0  0  0  0  0  0  0  0  0
   48.8712    7.7413   20.0708 C   0  0  0  0  0  0  0  0  0  0  0  0
   48.8078    7.1984   18.7771 C   0  0  0  0  0  0  0  0  0  0  0  0
   48.1321    7.1211   21.0934 C   0  0  0  0  0  0  0  0  0  0  0  0
   48.5765   10.6856   19.0158 N   0  0  0  0  0  0  0  0  0  0  0  0
   47.3514    5.9999   20.8225 C   0  0  0  0  0  0  0  0  0  0  0  0
   48.0017    6.0878   18.5236 C   0  0  0  0  0  0  0  0  0  0  0  0
   47.2746    5.4785   19.5389 C   0  0  0  0  0  0  0  0  0  0  0  0
   49.7760    8.9082   20.4162 C   0  0  2  0  0  0  0  0  0  0  0  0
   48.2009   11.9225   19.7265 C   0  0  0  0  0  0  0  0  0  0  0  0
   49.8552   10.0665   19.3838 C   0  0  0  0  0  0  0  0  0  0  0  0
   46.6737    5.4326   21.8614 O   0  0  0  0  0  0  0  0  0  0  0  0
   47.9115    5.5525   17.2719 O   0  0  0  0  0  0  0  0  0  0  0  0
   51.1056    8.4018   20.6148 O   0  0  0  0  0  0  0  0  0  0  0  0
   48.1987   11.7650   21.2531 C   0  0  0  0  0  0  0  0  0  0  0  0
   46.7638   12.2498   19.2703 C   0  0  0  0  0  0  0  0  0  0  0  0
   49.1124   13.0981   19.3234 C   0  0  0  0  0  0  0  0  0  0  0  0
   47.1187    7.1228   21.3677 H   0  0  0  0  0  0  0  0  0  0  0  0
   49.7466    7.1041   17.9569 H   0  0  0  0  0  0  0  0  0  0  0  0
   48.1336   10.9764   17.9219 H   0  0  0  0  0  0  0  0  0  0  0  0
   50.2580    4.1942   21.0878 H   0  0  0  0  0  0  0  0  0  0  0  0
   46.5674    8.4069   19.3391 H   0  0  0  0  0  0  0  0  0  0  0  0
   49.3247    9.7729   19.4003 H   0  0  0  0  0  0  0  0  0  0  0  0
   48.0681    9.8481   20.6389 H   0  0  0  0  0  0  0  0  0  0  0  0
   51.2255    5.4188   17.9170 H   0  0  0  0  0  0  0  0  0  0  0  0
   47.5193    5.5140   22.8912 H   0  0  0  0  0  0  0  0  0  0  0  0
   47.0867    9.1982   17.3555 H   0  0  0  0  0  0  0  0  0  0  0  0
   45.8622   12.1880   20.4047 H   0  0  0  0  0  0  0  0  0  0  0  0
   46.9466   13.3764   21.1371 H   0  0  0  0  0  0  0  0  0  0  0  0
   47.1558   11.6640   21.4984 H   0  0  0  0  0  0  0  0  0  0  0  0
   49.4194   13.5330   20.3149 H   0  0  0  0  0  0  0  0  0  0  0  0
   49.9937   12.3904   19.0995 H   0  0  0  0  0  0  0  0  0  0  0  0
   49.6174   11.8294   20.7365 H   0  0  0  0  0  0  0  0  0  0  0  0
   48.1436   13.3250   17.6069 H   0  0  0  0  0  0  0  0  0  0  0  0
   47.4774   14.3258   18.8953 H   0  0  0  0  0  0  0  0  0  0  0  0
   46.4469   13.1551   18.0671 H   0  0  0  0  0  0  0  0  0  0  0  0
   48.3034    7.6656   20.5888 H   0  0  0  0  0  0  0  0  0  0  0  0
   49.3294   10.1604   18.2508 H   0  0  0  0  0  0  0  0  0  0  0  0
   49.3930    7.6385   17.9755 H   0  0  0  0  0  0  0  0  0  0  0  0
   48.1672    7.5064   22.1118 H   0  0  0  0  0  0  0  0  0  0  0  0
   48.5838   10.8782   18.0147 H   0  0  0  0  0  0  0  0  0  0  0  0
   46.6632    4.6113   19.3126 H   0  0  0  0  0  0  0  0  0  0  0  0
   49.4642    9.3218   21.3811 H   0  0  0  0  0  0  0  0  0  0  0  0
   50.5867   10.8052   19.7288 H   0  0  0  0  0  0  0  0  0  0  0  0
   50.3092    9.6725   18.4639 H   0  0  0  0  0  0  0  0  0  0  0  0
   46.2495    4.6219   21.5405 H   0  0  0  0  0  0  0  0  0  0  0  0
   48.3808    6.1345   16.6520 H   0  0  0  0  0  0  0  0  0  0  0  0
   51.0284    7.4489   20.7932 H   0  0  0  0  0  0  0  0  0  0  0  0
   47.7889   12.6605   21.7390 H   0  0  0  0  0  0  0  0  0  0  0  0
   47.5805   10.9129   21.5637 H   0  0  0  0  0  0  0  0  0  0  0  0
   49.2092   11.6209   21.6492 H   0  0  0  0  0  0  0  0  0  0  0  0
   46.3944   13.1643   19.7490 H   0  0  0  0  0  0  0  0  0  0  0  0
   46.7120   12.4128   18.1871 H   0  0  0  0  0  0  0  0  0  0  0  0
   46.0670   11.4401   19.5185 H   0  0  0  0  0  0  0  0  0  0  0  0
   48.7516   14.0378   19.7586 H   0  0  0  0  0  0  0  0  0  0  0  0
   49.1340   13.2321   18.2343 H   0  0  0  0  0  0  0  0  0  0  0  0
   50.1427   12.9585   19.6640 H   0  0  0  0  0  0  0  0  0  0  0  0
  2  1  2  0
  3  1  1  0
  4 10  1  0
  5  3  2  0
  6  2  1  0
  7  5  1  0
  8  1  1  0
  9  4  1  0
 10  8  1  0
 11  5  1  0
 12  6  1  0
 13  8  1  0
 14  9  1  0
 15  9  1  0
 16  9  1  0
  6  7  2  0
 18 17  1  0
 19 17  1  0
 20 17  2  0
 21 17  2  0
 23 22  2  0
 24 22  1  0
 25 31  1  0
 26 24  2  0
 27 23  1  0
 28 26  1  0
 29 22  1  0
 30 25  1  0
 31 29  1  0
 32 26  1  0
 33 27  1  0
 34 29  1  0
 35 30  1  0
 36 30  1  0
 37 30  1  0
 27 28  2  0
  2 38  1  0
  3 39  1  0
  4 40  1  0
  7 41  1  0
  8 42  1  6
 10 43  1  0
 10 44  1  0
 11 45  1  0
 12 46  1  0
 13 47  1  0
 14 48  1  0
 14 49  1  0
 14 50  1  0
 15 51  1  0
 15 52  1  0
 15 53  1  0
 16 54  1  0
 16 55  1  0
 16 56  1  0
 18 57  1  0
 19 58  1  0
 23 59  1  0
 24 60  1  0
 25 61  1  0
 28 62  1  0
 29 63  1  1
 31 64  1  0
 31 65  1  0
 32 66  1  0
 33 67  1  0
 34 68  1  0
 35 69  1  0
 35 70  1  0
 35 71  1  0
 36 72  1  0
 36 73  1  0
 36 74  1  0
 37 75  1  0
 37 76  1  0
 37 77  1  0
M  END
> <Uni-Dock RESULT> 
ENERGY=   -4.078  LOWER_BOUND=    6.881  UPPER_BOUND=    9.033
INTER + INTRA:          -4.078
INTER:                  -4.078
INTRA:                   0.000
UNBOUND:                 0.000

$$$$

     RDKit          3D

 77 76  0  0  0  0  0  0  0  0999 V2000
   49.7403    5.1743   17.6162 C   0  0  0  0  0  0  0  0  0  0  0  0
   48.7689    4.2527   17.1790 C   0  0  0  0  0  0  0  0  0  0  0  0
   49.9728    5.3061   18.9946 C   0  0  0  0  0  0  0  0  0  0  0  0
   50.5895    8.2418   15.4911 N   0  0  0  0  0  0  0  0  0  0  0  0
   49.2494    4.5366   19.9052 C   0  0  0  0  0  0  0  0  0  0  0  0
   48.0529    3.4988   18.1092 C   0  0  0  0  0  0  0  0  0  0  0  0
   48.2825    3.6378   19.4725 C   0  0  0  0  0  0  0  0  0  0  0  0
   50.4893    6.0181   16.6074 C   0  0  1  0  0  0  0  0  0  0  0  0
   49.8719    9.3186   14.7771 C   0  0  0  0  0  0  0  0  0  0  0  0
   49.7388    7.3340   16.2884 C   0  0  0  0  0  0  0  0  0  0  0  0
   49.4738    4.6391   21.2456 O   0  0  0  0  0  0  0  0  0  0  0  0
   47.0995    2.6073   17.7156 O   0  0  0  0  0  0  0  0  0  0  0  0
   51.8024    6.3159   17.0921 O   0  0  0  0  0  0  0  0  0  0  0  0
   49.1196    8.7430   13.5657 C   0  0  0  0  0  0  0  0  0  0  0  0
   48.9010   10.0954   15.6815 C   0  0  0  0  0  0  0  0  0  0  0  0
   50.9496   10.2950   14.2624 C   0  0  0  0  0  0  0  0  0  0  0  0
   49.5300    7.0596   16.1295 S   0  0  0  0  0  0  0  0  0  0  0  0
   49.5765    5.9082   17.2451 O   0  0  0  0  0  0  0  0  0  0  0  0
   49.6145    8.3850   17.0310 O   0  0  0  0  0  0  0  0  0  0  0  0
   50.7558    6.9800   15.3732 O   0  0  0  0  0  0  0  0  0  0  0  0
   48.2242    6.9808   15.5266 O   0  0  0  0  0  0  0  0  0  0  0  0
   49.0859    5.7293   17.6437 C   0  0  0  0  0  0  0  0  0  0  0  0
   50.3207    5.5048   18.2740 C   0  0  0  0  0  0  0  0  0  0  0  0
   48.4438    4.6427   17.0244 C   0  0  0  0  0  0  0  0  0  0  0  0
   50.0845    8.3830   16.2911 N   0  0  0  0  0  0  0  0  0  0  0  0
   49.0267    3.3777   17.0323 C   0  0  0  0  0  0  0  0  0  0  0  0
   50.8970    4.2341   18.2505 C   0  0  0  0  0  0  0  0  0  0  0  0
   50.2567    3.1638   17.6378 C   0  0  0  0  0  0  0  0  0  0  0  0
   48.3853    7.0734   17.6899 C   0  0  2  0  0  0  0  0  0  0  0  0
   49.5353    9.1395   15.1500 C   0  0  0  0  0  0  0  0  0  0  0  0
   49.2732    8.3359   17.5131 C   0  0  0  0  0  0  0  0  0  0  0  0
   48.3444    2.3609   16.4313 O   0  0  0  0  0  0  0  0  0  0  0  0
   52.1031    3.9954   18.8418 O   0  0  0  0  0  0  0  0  0  0  0  0
   47.7074    7.1832   18.9517 O   0  0  0  0  0  0  0  0  0  0  0  0
   48.1317    8.6761   14.7374 C   0  0  0  0  0  0  0  0  0  0  0  0
   50.4975    8.8810   13.9718 C   0  0  0  0  0  0  0  0  0  0  0  0
   49.5228   10.6537   15.4367 C   0  0  0  0  0  0  0  0  0  0  0  0
   48.5790    4.1341   16.1159 H   0  0  0  0  0  0  0  0  0  0  0  0
   50.7209    6.0160   19.3424 H   0  0  0  0  0  0  0  0  0  0  0  0
   51.2554    8.6717   16.1393 H   0  0  0  0  0  0  0  0  0  0  0  0
   47.7218    3.0461   20.1892 H   0  0  0  0  0  0  0  0  0  0  0  0
   50.6244    5.4376   15.6857 H   0  0  0  0  0  0  0  0  0  0  0  0
   49.4702    7.8407   17.2234 H   0  0  0  0  0  0  0  0  0  0  0  0
   48.8061    7.0822   15.7734 H   0  0  0  0  0  0  0  0  0  0  0  0
   50.2413    5.2182   21.3826 H   0  0  0  0  0  0  0  0  0  0  0  0
   47.0672    2.5889   16.7458 H   0  0  0  0  0  0  0  0  0  0  0  0
   52.2328    6.7799   16.3503 H   0  0  0  0  0  0  0  0  0  0  0  0
   49.7977    8.1837   12.9099 H   0  0  0  0  0  0  0  0  0  0  0  0
   48.6704    9.5439   12.9670 H   0  0  0  0  0  0  0  0  0  0  0  0
   48.3080    8.0713   13.8650 H   0  0  0  0  0  0  0  0  0  0  0  0
   48.4769   10.9572   15.1535 H   0  0  0  0  0  0  0  0  0  0  0  0
   49.4130   10.4789   16.5703 H   0  0  0  0  0  0  0  0  0  0  0  0
   48.0629    9.4744   16.0188 H   0  0  0  0  0  0  0  0  0  0  0  0
   51.4720   10.7854   15.0902 H   0  0  0  0  0  0  0  0  0  0  0  0
   50.5080   11.0840   13.6456 H   0  0  0  0  0  0  0  0  0  0  0  0
   51.7026    9.7836   13.6541 H   0  0  0  0  0  0  0  0  0  0  0  0
   48.8276    5.3000   17.0559 H   0  0  0  0  0  0  0  0  0  0  0  0
   50.5179    8.4249   17.4039 H   0  0  0  0  0  0  0  0  0  0  0  0
   50.8232    6.3192   18.7869 H   0  0  0  0  0  0  0  0  0  0  0  0
   47.4787    4.7761   16.5370 H   0  0  0  0  0  0  0  0  0  0  0  0
   51.0001    8.7671   16.5223 H   0  0  0  0  0  0  0  0  0  0  0  0
   50.7259    2.1857   17.6432 H   0  0  0  0  0  0  0  0  0  0  0  0
   47.6016    7.0883   16.9249 H   0  0  0  0  0  0  0  0  0  0  0  0
   48.6522    9.2305   17.6303 H   0  0  0  0  0  0  0  0  0  0  0  0
   49.9602    8.3918   18.3690 H   0  0  0  0  0  0  0  0  0  0  0  0
   48.8276    1.5355   16.5905 H   0  0  0  0  0  0  0  0  0  0  0  0
   52.4780    4.8427   19.1330 H   0  0  0  0  0  0  0  0  0  0  0  0
   47.6009    6.2822   19.3020 H   0  0  0  0  0  0  0  0  0  0  0  0
   47.8133    9.1685   13.8089 H   0  0  0  0  0  0  0  0  0  0  0  0
   48.1074    7.5934   14.5581 H   0  0  0  0  0  0  0  0  0  0  0  0
   47.3830    8.9166   15.4993 H   0  0  0  0  0  0  0  0  0  0  0  0
   50.1698    9.4095   13.0689 H   0  0  0  0  0  0  0  0  0  0  0  0
   51.5124    9.2306   14.1961 H   0  0  0  0  0  0  0  0  0  0  0  0
   50.5598    7.8137   13.7280 H   0  0  0  0  0  0  0  0  0  0  0  0
   49.2313   11.2172   14.5422 H   0  0  0  0  0  0  0  0  0  0  0  0
   50.5159   11.0122   15.7366 H   0  0  0  0  0  0  0  0  0  0  0  0
   48.8177   10.9188   16.2302 H   0  0  0  0  0  0  0  0  0  0  0  0
  2  1  2  0
  3  1  1  0
  4 10  1  0
  5  3  2  0
  6  2  1  0
  7  5  1  0
  8  1  1  0
  9  4  1  0
 10  8  1  0
 11  5  1  0
 12  6  1  0
 13  8  1  0
 14  9  1  0
 15  9  1  0
 16  9  1  0
  6  7  2  0
 18 17  1  0
 19 17  1  0
 20 17  2  0
 21 17  2  0
 23 22  2  0
 24 22  1  0
 25 31  1  0
 26 24  2  0
 27 23  1  0
 28 26  1  0
 29 22  1  0
 30 25  1  0
 31 29  1  0
 32 26  1  0
 33 27  1  0
 34 29  1  0
 35 30  1  0
 36 30  1  0
 37 30  1  0
 27 28  2  0
  2 38  1  0
  3 39  1  0
  4 40  1  0
  7 41  1  0
  8 42  1  6
 10 43  1  0
 10 44  1  0
 11 45  1  0
 12 46  1  0
 13 47  1  0
 14 48  1  0
 14 49  1  0
 14 50  1  0
 15 51  1  0
 15 52  1  0
 15 53  1  0
 16 54  1  0
 16 55  1  0
 16 56  1  0
 18 57  1  0
 19 58  1  0
 23 59  1  0
 24 60  1  0
 25 61  1  0
 28 62  1  0
 29 63  1  1
 31 64  1  0
 31 65  1  0
 32 66  1  0
 33 67  1  0
 34 68  1  0
 35 69  1  0
 35 70  1  0
 35 71  1  0
 36 72  1  0
 36 73  1  0
 36 74  1  0
 37 75  1  0
 37 76  1  0
 37 77  1  0
M  END
> <Uni-Dock RESULT> 
ENERGY=   -4.028  LOWER_BOUND=    4.848  UPPER_BOUND=    6.685
INTER + INTRA:          -4.028
INTER:                  -4.028
INTRA:                   0.000
UNBOUND:                 0.000

$$$$

     RDKit          3D

 77 76  0  0  0  0  0  0  0  0999 V2000
   48.6545    6.8038   20.3855 C   0  0  0  0  0  0  0  0  0  0  0  0
   50.0214    6.4707   20.3175 C   0  0  0  0  0  0  0  0  0  0  0  0
   47.7222    5.9567   19.7650 C   0  0  0  0  0  0  0  0  0  0  0  0
   47.5716   10.4530   20.7815 N   0  0  0  0  0  0  0  0  0  0  0  0
   48.1515    4.8114   19.0953 C   0  0  0  0  0  0  0  0  0  0  0  0
   50.4275    5.3231   19.6360 C   0  0  0  0  0  0  0  0  0  0  0  0
   49.5013    4.4917   19.0183 C   0  0  0  0  0  0  0  0  0  0  0  0
   48.2194    8.0689   21.0932 C   0  0  1  0  0  0  0  0  0  0  0  0
   47.8727   11.7630   20.1670 C   0  0  0  0  0  0  0  0  0  0  0  0
   48.2177    9.2890   20.1403 C   0  0  0  0  0  0  0  0  0  0  0  0
   47.2594    3.9688   18.5020 O   0  0  0  0  0  0  0  0  0  0  0  0
   51.7442    4.9817   19.5448 O   0  0  0  0  0  0  0  0  0  0  0  0
   46.9159    7.8945   21.6574 O   0  0  0  0  0  0  0  0  0  0  0  0
   49.3059   12.1969   20.5168 C   0  0  0  0  0  0  0  0  0  0  0  0
   47.6758   11.7705   18.6422 C   0  0  0  0  0  0  0  0  0  0  0  0
   46.8909   12.7750   20.7928 C   0  0  0  0  0  0  0  0  0  0  0  0
   48.5841    9.2052   20.1936 S   0  0  0  0  0  0  0  0  0  0  0  0
   48.5772    7.6022   20.1412 O   0  0  0  0  0  0  0  0  0  0  0  0
   47.3803    9.5652   19.1948 O   0  0  0  0  0  0  0  0  0  0  0  0
   48.1698    9.5973   21.5187 O   0  0  0  0  0  0  0  0  0  0  0  0
   49.8297    9.6202   19.6012 O   0  0  0  0  0  0  0  0  0  0  0  0
   48.8029    7.2256   19.6526 C   0  0  0  0  0  0  0  0  0  0  0  0
   47.7488    6.5728   20.3122 C   0  0  0  0  0  0  0  0  0  0  0  0
   50.1221    6.8780   19.9926 C   0  0  0  0  0  0  0  0  0  0  0  0
   47.4366   10.0408   19.9289 N   0  0  0  0  0  0  0  0  0  0  0  0
   50.3716    5.9141   20.9665 C   0  0  0  0  0  0  0  0  0  0  0  0
   48.0219    5.6263   21.3006 C   0  0  0  0  0  0  0  0  0  0  0  0
   49.3279    5.2860   21.6312 C   0  0  0  0  0  0  0  0  0  0  0  0
   48.5658    8.2170   18.5299 C   0  0  2  0  0  0  0  0  0  0  0  0
   48.0059   11.3960   19.8038 C   0  0  0  0  0  0  0  0  0  0  0  0
   47.3937    9.2201   18.7132 C   0  0  0  0  0  0  0  0  0  0  0  0
   51.6729    5.6073   21.2370 O   0  0  0  0  0  0  0  0  0  0  0  0
   47.0148    4.9908   21.9663 O   0  0  0  0  0  0  0  0  0  0  0  0
   48.3298    7.4780   17.3208 O   0  0  0  0  0  0  0  0  0  0  0  0
   49.4203   11.4044   19.2083 C   0  0  0  0  0  0  0  0  0  0  0  0
   48.0807   11.9550   21.2400 C   0  0  0  0  0  0  0  0  0  0  0  0
   47.0852   12.3154   18.9778 C   0  0  0  0  0  0  0  0  0  0  0  0
   50.7564    7.1120   20.7958 H   0  0  0  0  0  0  0  0  0  0  0  0
   46.6638    6.2059   19.8112 H   0  0  0  0  0  0  0  0  0  0  0  0
   46.5608   10.2974   20.7318 H   0  0  0  0  0  0  0  0  0  0  0  0
   49.8260    3.6000   18.4913 H   0  0  0  0  0  0  0  0  0  0  0  0
   48.8977    8.2590   21.9349 H   0  0  0  0  0  0  0  0  0  0  0  0
   47.6624    9.0423   19.2271 H   0  0  0  0  0  0  0  0  0  0  0  0
   49.2515    9.4987   19.8477 H   0  0  0  0  0  0  0  0  0  0  0  0
   46.3630    4.2636   18.7315 H   0  0  0  0  0  0  0  0  0  0  0  0
   52.2715    5.6257   20.0439 H   0  0  0  0  0  0  0  0  0  0  0  0
   46.7596    8.7158   22.1593 H   0  0  0  0  0  0  0  0  0  0  0  0
   49.4644   12.1957   21.6020 H   0  0  0  0  0  0  0  0  0  0  0  0
   49.5064   13.2128   20.1569 H   0  0  0  0  0  0  0  0  0  0  0  0
   50.0576   11.5412   20.0645 H   0  0  0  0  0  0  0  0  0  0  0  0
   47.7915   12.7821   18.2363 H   0  0  0  0  0  0  0  0  0  0  0  0
   46.6718   11.4256   18.3736 H   0  0  0  0  0  0  0  0  0  0  0  0
   48.4001   11.1277   18.1282 H   0  0  0  0  0  0  0  0  0  0  0  0
   45.8556   12.5494   20.5172 H   0  0  0  0  0  0  0  0  0  0  0  0
   47.1015   13.7940   20.4533 H   0  0  0  0  0  0  0  0  0  0  0  0
   46.9489   12.7732   21.8861 H   0  0  0  0  0  0  0  0  0  0  0  0
   49.5026    7.3206   19.9656 H   0  0  0  0  0  0  0  0  0  0  0  0
   46.5486    9.2974   19.6346 H   0  0  0  0  0  0  0  0  0  0  0  0
   46.7207    6.7994   20.0469 H   0  0  0  0  0  0  0  0  0  0  0  0
   50.9650    7.3538   19.4927 H   0  0  0  0  0  0  0  0  0  0  0  0
   46.4911   10.1212   20.3016 H   0  0  0  0  0  0  0  0  0  0  0  0
   49.5086    4.5403   22.3981 H   0  0  0  0  0  0  0  0  0  0  0  0
   49.4872    8.7843   18.3608 H   0  0  0  0  0  0  0  0  0  0  0  0
   47.2979    9.8292   17.8078 H   0  0  0  0  0  0  0  0  0  0  0  0
   46.4556    8.6481   18.7327 H   0  0  0  0  0  0  0  0  0  0  0  0
   51.6863    4.8690   21.8653 H   0  0  0  0  0  0  0  0  0  0  0  0
   46.1705    5.3979   21.7117 H   0  0  0  0  0  0  0  0  0  0  0  0
   48.6896    6.5842   17.4534 H   0  0  0  0  0  0  0  0  0  0  0  0
   49.8588   12.4101   19.2537 H   0  0  0  0  0  0  0  0  0  0  0  0
   50.0882   10.7313   19.7612 H   0  0  0  0  0  0  0  0  0  0  0  0
   49.4208   11.1031   18.1557 H   0  0  0  0  0  0  0  0  0  0  0  0
   48.4940   12.9704   21.2492 H   0  0  0  0  0  0  0  0  0  0  0  0
   47.0884   12.0096   21.7035 H   0  0  0  0  0  0  0  0  0  0  0  0
   48.7143   11.3325   21.8832 H   0  0  0  0  0  0  0  0  0  0  0  0
   47.4513   13.3490   18.9934 H   0  0  0  0  0  0  0  0  0  0  0  0
   46.0647   12.3265   19.3815 H   0  0  0  0  0  0  0  0  0  0  0  0
   47.0270   12.0086   17.9292 H   0  0  0  0  0  0  0  0  0  0  0  0
  2  1  2  0
  3  1  1  0
  4 10  1  0
  5  3  2  0
  6  2  1  0
  7  5  1  0
  8  1  1  0
  9  4  1  0
 10  8  1  0
 11  5  1  0
 12  6  1  0
 13  8  1  0
 14  9  1  0
 15  9  1  0
 16  9  1  0
  6  7  2  0
 18 17  1  0
 19 17  1  0
 20 17  2  0
 21 17  2  0
 23 22  2  0
 24 22  1  0
 25 31  1  0
 26 24  2  0
 27 23  1  0
 28 26  1  0
 29 22  1  0
 30 25  1  0
 31 29  1  0
 32 26  1  0
 33 27  1  0
 34 29  1  0
 35 30  1  0
 36 30  1  0
 37 30  1  0
 27 28  2  0
  2 38  1  0
  3 39  1  0
  4 40  1  0
  7 41  1  0
  8 42  1  6
 10 43  1  0
 10 44  1  0
 11 45  1  0
 12 46  1  0
 13 47  1  0
 14 48  1  0
 14 49  1  0
 14 50  1  0
 15 51  1  0
 15 52  1  0
 15 53  1  0
 16 54  1  0
 16 55  1  0
 16 56  1  0
 18 57  1  0
 19 58  1  0
 23 59  1  0
 24 60  1  0
 25 61  1  0
 28 62  1  0
 29 63  1  1
 31 64  1  0
 31 65  1  0
 32 66  1  0
 33 67  1  0
 34 68  1  0
 35 69  1  0
 35 70  1  0
 35 71  1  0
 36 72  1  0
 36 73  1  0
 36 74  1  0
 37 75  1  0
 37 76  1  0
 37 77  1  0
M  END
> <Uni-Dock RESULT> 
ENERGY=   -3.922  LOWER_BOUND=    7.155  UPPER_BOUND=    8.927
INTER + INTRA:          -3.922
INTER:                  -3.922
INTRA:                   0.000
UNBOUND:                 0.000

$$$$
