
     RDKit          3D

 77 76  0  0  0  0  0  0  0  0999 V2000
   46.7872    8.2254   12.4633 C   0  0  0  0  0  0  0  0  0  0  0  0
   48.1876    8.3486   12.4479 C   0  0  0  0  0  0  0  0  0  0  0  0
   46.0059    9.3544   12.1753 C   0  0  0  0  0  0  0  0  0  0  0  0
   45.6934    4.5873   11.8232 N   0  0  0  0  0  0  0  0  0  0  0  0
   46.6150   10.5749   11.8963 C   0  0  0  0  0  0  0  0  0  0  0  0
   48.7765    9.5799   12.1677 C   0  0  0  0  0  0  0  0  0  0  0  0
   47.9995   10.6995   11.8923 C   0  0  0  0  0  0  0  0  0  0  0  0
   46.1212    6.8980   12.7550 C   0  0  1  0  0  0  0  0  0  0  0  0
   44.2940    4.2338   11.5469 C   0  0  0  0  0  0  0  0  0  0  0  0
   46.1253    5.9603   11.5199 C   0  0  0  0  0  0  0  0  0  0  0  0
   45.8055   11.6387   11.6271 O   0  0  0  0  0  0  0  0  0  0  0  0
   50.1331    9.7291   12.1526 O   0  0  0  0  0  0  0  0  0  0  0  0
   46.7817    6.2542   13.8528 O   0  0  0  0  0  0  0  0  0  0  0  0
   44.0823    2.8156   12.1157 C   0  0  0  0  0  0  0  0  0  0  0  0
   43.2810    5.1769   12.2136 C   0  0  0  0  0  0  0  0  0  0  0  0
   44.0452    4.1827   10.0282 C   0  0  0  0  0  0  0  0  0  0  0  0
   46.0437    6.4932   11.6835 S   0  0  0  0  0  0  0  0  0  0  0  0
   45.8552    7.9357   12.3600 O   0  0  0  0  0  0  0  0  0  0  0  0
   45.0525    5.5912   12.5665 O   0  0  0  0  0  0  0  0  0  0  0  0
   47.4048    6.0976   11.9435 O   0  0  0  0  0  0  0  0  0  0  0  0
   45.4819    6.5655   10.3579 O   0  0  0  0  0  0  0  0  0  0  0  0
   47.4619    7.7961   12.5622 C   0  0  0  0  0  0  0  0  0  0  0  0
   46.8654    9.0387   12.8390 C   0  0  0  0  0  0  0  0  0  0  0  0
   48.7241    7.7723   11.9504 C   0  0  0  0  0  0  0  0  0  0  0  0
   44.9766    4.9047   12.2132 N   0  0  0  0  0  0  0  0  0  0  0  0
   49.3708    8.9636   11.6344 C   0  0  0  0  0  0  0  0  0  0  0  0
   47.5304   10.2185   12.5131 C   0  0  0  0  0  0  0  0  0  0  0  0
   48.7840   10.1925   11.9143 C   0  0  0  0  0  0  0  0  0  0  0  0
   46.7532    6.4988   12.8914 C   0  0  2  0  0  0  0  0  0  0  0  0
   43.7415    4.5889   11.4759 C   0  0  0  0  0  0  0  0  0  0  0  0
   45.6151    6.1897   11.8866 C   0  0  0  0  0  0  0  0  0  0  0  0
   50.5954    8.8799   11.0390 O   0  0  0  0  0  0  0  0  0  0  0  0
   46.9739   11.4379   12.7682 O   0  0  0  0  0  0  0  0  0  0  0  0
   46.2089    6.5787   14.2179 O   0  0  0  0  0  0  0  0  0  0  0  0
   43.9211    4.7073    9.9534 C   0  0  0  0  0  0  0  0  0  0  0  0
   43.4081    3.1237   11.8147 C   0  0  0  0  0  0  0  0  0  0  0  0
   42.5697    5.4737   11.9367 C   0  0  0  0  0  0  0  0  0  0  0  0
   48.8028    7.4758   12.6548 H   0  0  0  0  0  0  0  0  0  0  0  0
   44.9198    9.2928   12.1659 H   0  0  0  0  0  0  0  0  0  0  0  0
   45.9278    4.4073   12.8059 H   0  0  0  0  0  0  0  0  0  0  0  0
   48.4865   11.6440   11.6761 H   0  0  0  0  0  0  0  0  0  0  0  0
   45.0952    7.0757   13.0881 H   0  0  0  0  0  0  0  0  0  0  0  0
   47.1593    5.8655   11.1652 H   0  0  0  0  0  0  0  0  0  0  0  0
   45.5662    6.4104   10.6932 H   0  0  0  0  0  0  0  0  0  0  0  0
   46.3621   12.4282   11.5185 H   0  0  0  0  0  0  0  0  0  0  0  0
   50.5433    8.8711   12.3562 H   0  0  0  0  0  0  0  0  0  0  0  0
   46.8993    6.9324   14.5405 H   0  0  0  0  0  0  0  0  0  0  0  0
   44.2239    2.7931   13.2031 H   0  0  0  0  0  0  0  0  0  0  0  0
   43.0677    2.4552   11.9100 H   0  0  0  0  0  0  0  0  0  0  0  0
   44.7837    2.0980   11.6712 H   0  0  0  0  0  0  0  0  0  0  0  0
   43.3249    6.1868   11.7894 H   0  0  0  0  0  0  0  0  0  0  0  0
   43.4513    5.2489   13.2945 H   0  0  0  0  0  0  0  0  0  0  0  0
   42.2562    4.8126   12.0694 H   0  0  0  0  0  0  0  0  0  0  0  0
   44.7594    3.5145    9.5312 H   0  0  0  0  0  0  0  0  0  0  0  0
   43.0391    3.8053    9.8089 H   0  0  0  0  0  0  0  0  0  0  0  0
   44.1288    5.1684    9.5581 H   0  0  0  0  0  0  0  0  0  0  0  0
   46.7306    8.3793   12.3417 H   0  0  0  0  0  0  0  0  0  0  0  0
   44.1379    5.8866   12.3826 H   0  0  0  0  0  0  0  0  0  0  0  0
   45.8849    9.0676   13.3079 H   0  0  0  0  0  0  0  0  0  0  0  0
   49.2099    6.8285   11.7107 H   0  0  0  0  0  0  0  0  0  0  0  0
   44.7903    4.9034   13.2214 H   0  0  0  0  0  0  0  0  0  0  0  0
   49.2788   11.1271   11.6754 H   0  0  0  0  0  0  0  0  0  0  0  0
   47.4763    5.6733   12.8993 H   0  0  0  0  0  0  0  0  0  0  0  0
   44.8771    6.9985   11.9324 H   0  0  0  0  0  0  0  0  0  0  0  0
   46.0305    6.1569   10.8733 H   0  0  0  0  0  0  0  0  0  0  0  0
   50.9031    9.7812   10.8449 H   0  0  0  0  0  0  0  0  0  0  0  0
   46.0907   11.3019   13.1511 H   0  0  0  0  0  0  0  0  0  0  0  0
   46.9326    6.8952   14.7868 H   0  0  0  0  0  0  0  0  0  0  0  0
   43.0359    4.3337    9.4248 H   0  0  0  0  0  0  0  0  0  0  0  0
   44.0687    5.7457    9.6377 H   0  0  0  0  0  0  0  0  0  0  0  0
   44.7819    4.1214    9.6091 H   0  0  0  0  0  0  0  0  0  0  0  0
   42.4878    2.8013   11.3140 H   0  0  0  0  0  0  0  0  0  0  0  0
   43.2596    2.9835   12.8910 H   0  0  0  0  0  0  0  0  0  0  0  0
   44.2101    2.4479   11.4955 H   0  0  0  0  0  0  0  0  0  0  0  0
   42.4252    5.4099   13.0210 H   0  0  0  0  0  0  0  0  0  0  0  0
   41.6320    5.1591   11.4641 H   0  0  0  0  0  0  0  0  0  0  0  0
   42.7212    6.5264   11.6799 H   0  0  0  0  0  0  0  0  0  0  0  0
  2  1  2  0
  3  1  1  0
  4 10  1  0
  5  3  2  0
  6  2  1  0
  7  5  1  0
  8  1  1  0
  9  4  1  0
 10  8  1  0
 11  5  1  0
 12  6  1  0
 13  8  1  0
 14  9  1  0
 15  9  1  0
 16  9  1  0
  6  7  2  0
 18 17  1  0
 19 17  1  0
 20 17  2  0
 21 17  2  0
 23 22  2  0
 24 22  1  0
 25 31  1  0
 26 24  2  0
 27 23  1  0
 28 26  1  0
 29 22  1  0
 30 25  1  0
 31 29  1  0
 32 26  1  0
 33 27  1  0
 34 29  1  0
 35 30  1  0
 36 30  1  0
 37 30  1  0
 27 28  2  0
  2 38  1  0
  3 39  1  0
  4 40  1  0
  7 41  1  0
  8 42  1  6
 10 43  1  0
 10 44  1  0
 11 45  1  0
 12 46  1  0
 13 47  1  0
 14 48  1  0
 14 49  1  0
 14 50  1  0
 15 51  1  0
 15 52  1  0
 15 53  1  0
 16 54  1  0
 16 55  1  0
 16 56  1  0
 18 57  1  0
 19 58  1  0
 23 59  1  0
 24 60  1  0
 25 61  1  0
 28 62  1  0
 29 63  1  6
 31 64  1  0
 31 65  1  0
 32 66  1  0
 33 67  1  0
 34 68  1  0
 35 69  1  0
 35 70  1  0
 35 71  1  0
 36 72  1  0
 36 73  1  0
 36 74  1  0
 37 75  1  0
 37 76  1  0
 37 77  1  0
M  END
> <Uni-Dock RESULT> 
ENERGY=   -6.455  LOWER_BOUND=    0.000  UPPER_BOUND=    0.000
INTER + INTRA:          -6.455
INTER:                  -6.455
INTRA:                   0.000
UNBOUND:                 0.000

$$$$

     RDKit          3D

 77 76  0  0  0  0  0  0  0  0999 V2000
   48.0844    7.9824   12.4185 C   0  0  0  0  0  0  0  0  0  0  0  0
   48.4799    8.7228   13.5463 C   0  0  0  0  0  0  0  0  0  0  0  0
   49.0682    7.5360   11.5237 C   0  0  0  0  0  0  0  0  0  0  0  0
   44.7058    6.2278   13.0086 N   0  0  0  0  0  0  0  0  0  0  0  0
   50.4084    7.8393   11.7480 C   0  0  0  0  0  0  0  0  0  0  0  0
   49.8266    9.0165   13.7507 C   0  0  0  0  0  0  0  0  0  0  0  0
   50.7985    8.5812   12.8570 C   0  0  0  0  0  0  0  0  0  0  0  0
   46.6299    7.6409   12.1769 C   0  0  1  0  0  0  0  0  0  0  0  0
   44.1911    5.2036   12.0889 C   0  0  0  0  0  0  0  0  0  0  0  0
   46.1600    6.4456   13.0459 C   0  0  0  0  0  0  0  0  0  0  0  0
   51.3203    7.3822   10.8430 O   0  0  0  0  0  0  0  0  0  0  0  0
   50.2375    9.7389   14.8335 O   0  0  0  0  0  0  0  0  0  0  0  0
   45.8108    8.7864   12.4472 O   0  0  0  0  0  0  0  0  0  0  0  0
   42.6530    5.3141   12.1303 C   0  0  0  0  0  0  0  0  0  0  0  0
   44.6496    5.3992   10.6358 C   0  0  0  0  0  0  0  0  0  0  0  0
   44.5835    3.7980   12.5802 C   0  0  0  0  0  0  0  0  0  0  0  0
   46.5847    6.6345   12.7276 S   0  0  0  0  0  0  0  0  0  0  0  0
   47.6653    7.3579   11.7879 O   0  0  0  0  0  0  0  0  0  0  0  0
   45.2695    6.6924   11.8096 O   0  0  0  0  0  0  0  0  0  0  0  0
   46.4035    7.4914   13.8720 O   0  0  0  0  0  0  0  0  0  0  0  0
   46.9675    5.2487   12.8315 O   0  0  0  0  0  0  0  0  0  0  0  0
   47.7882    8.3405   13.0769 C   0  0  0  0  0  0  0  0  0  0  0  0
   48.7320    8.4819   12.0444 C   0  0  0  0  0  0  0  0  0  0  0  0
   48.2124    8.4851   14.4062 C   0  0  0  0  0  0  0  0  0  0  0  0
   44.7326    6.2355   12.1334 N   0  0  0  0  0  0  0  0  0  0  0  0
   49.5449    8.7720   14.6880 C   0  0  0  0  0  0  0  0  0  0  0  0
   50.0606    8.7680   12.3495 C   0  0  0  0  0  0  0  0  0  0  0  0
   50.4768    8.9185   13.6668 C   0  0  0  0  0  0  0  0  0  0  0  0
   46.3412    8.0134   12.7730 C   0  0  2  0  0  0  0  0  0  0  0  0
   44.4337    4.9193   11.5442 C   0  0  0  0  0  0  0  0  0  0  0  0
   46.1536    6.5260   12.3819 C   0  0  0  0  0  0  0  0  0  0  0  0
   49.9010    8.8999   15.9988 O   0  0  0  0  0  0  0  0  0  0  0  0
   50.9977    8.9080   11.3678 O   0  0  0  0  0  0  0  0  0  0  0  0
   45.8806    8.8497   11.7003 O   0  0  0  0  0  0  0  0  0  0  0  0
   45.0688    3.7646   12.3361 C   0  0  0  0  0  0  0  0  0  0  0  0
   42.9020    4.7661   11.6033 C   0  0  0  0  0  0  0  0  0  0  0  0
   44.8731    4.8498   10.0710 C   0  0  0  0  0  0  0  0  0  0  0  0
   47.7267    9.0607   14.2545 H   0  0  0  0  0  0  0  0  0  0  0  0
   48.7997    6.9501   10.6472 H   0  0  0  0  0  0  0  0  0  0  0  0
   44.2691    7.1376   12.8225 H   0  0  0  0  0  0  0  0  0  0  0  0
   51.8388    8.8238   13.0436 H   0  0  0  0  0  0  0  0  0  0  0  0
   46.4846    7.4148   11.1172 H   0  0  0  0  0  0  0  0  0  0  0  0
   46.3906    6.6727   14.0944 H   0  0  0  0  0  0  0  0  0  0  0  0
   46.7326    5.5446   12.8028 H   0  0  0  0  0  0  0  0  0  0  0  0
   52.1962    7.7232   11.0907 H   0  0  0  0  0  0  0  0  0  0  0  0
   49.4585    9.9697   15.3681 H   0  0  0  0  0  0  0  0  0  0  0  0
   46.2406    9.5424   12.0109 H   0  0  0  0  0  0  0  0  0  0  0  0
   42.3100    6.2909   11.7679 H   0  0  0  0  0  0  0  0  0  0  0  0
   42.1852    4.5485   11.5006 H   0  0  0  0  0  0  0  0  0  0  0  0
   42.2702    5.1815   13.1502 H   0  0  0  0  0  0  0  0  0  0  0  0
   45.7299    5.2487   10.5262 H   0  0  0  0  0  0  0  0  0  0  0  0
   44.4020    6.4023   10.2687 H   0  0  0  0  0  0  0  0  0  0  0  0
   44.1564    4.6788    9.9714 H   0  0  0  0  0  0  0  0  0  0  0  0
   44.2658    3.6371   13.6178 H   0  0  0  0  0  0  0  0  0  0  0  0
   44.1060    3.0225   11.9693 H   0  0  0  0  0  0  0  0  0  0  0  0
   45.6641    3.6256   12.5322 H   0  0  0  0  0  0  0  0  0  0  0  0
   48.2549    7.8790   12.3748 H   0  0  0  0  0  0  0  0  0  0  0  0
   45.4216    6.1143   11.0348 H   0  0  0  0  0  0  0  0  0  0  0  0
   48.4141    8.3661   11.0111 H   0  0  0  0  0  0  0  0  0  0  0  0
   47.5116    8.3703   15.2308 H   0  0  0  0  0  0  0  0  0  0  0  0
   44.3701    6.9788   11.5274 H   0  0  0  0  0  0  0  0  0  0  0  0
   51.5168    9.1446   13.8734 H   0  0  0  0  0  0  0  0  0  0  0  0
   45.7170    8.2501   13.6441 H   0  0  0  0  0  0  0  0  0  0  0  0
   46.7420    6.3234   11.4800 H   0  0  0  0  0  0  0  0  0  0  0  0
   46.5315    5.8919   13.1917 H   0  0  0  0  0  0  0  0  0  0  0  0
   50.8587    9.0597   16.0411 H   0  0  0  0  0  0  0  0  0  0  0  0
   50.5741    8.7419   10.5087 H   0  0  0  0  0  0  0  0  0  0  0  0
   46.1334    9.7586   11.9405 H   0  0  0  0  0  0  0  0  0  0  0  0
   44.7183    2.7948   11.9629 H   0  0  0  0  0  0  0  0  0  0  0  0
   46.1612    3.7638   12.2546 H   0  0  0  0  0  0  0  0  0  0  0  0
   44.8072    3.8222   13.3996 H   0  0  0  0  0  0  0  0  0  0  0  0
   42.5830    3.8105   11.1714 H   0  0  0  0  0  0  0  0  0  0  0  0
   42.3964    5.5611   11.0444 H   0  0  0  0  0  0  0  0  0  0  0  0
   42.5375    4.7979   12.6367 H   0  0  0  0  0  0  0  0  0  0  0  0
   44.4365    5.6672    9.4863 H   0  0  0  0  0  0  0  0  0  0  0  0
   44.5489    3.9099    9.6095 H   0  0  0  0  0  0  0  0  0  0  0  0
   45.9605    4.9028    9.9615 H   0  0  0  0  0  0  0  0  0  0  0  0
  2  1  2  0
  3  1  1  0
  4 10  1  0
  5  3  2  0
  6  2  1  0
  7  5  1  0
  8  1  1  0
  9  4  1  0
 10  8  1  0
 11  5  1  0
 12  6  1  0
 13  8  1  0
 14  9  1  0
 15  9  1  0
 16  9  1  0
  6  7  2  0
 18 17  1  0
 19 17  1  0
 20 17  2  0
 21 17  2  0
 23 22  2  0
 24 22  1  0
 25 31  1  0
 26 24  2  0
 27 23  1  0
 28 26  1  0
 29 22  1  0
 30 25  1  0
 31 29  1  0
 32 26  1  0
 33 27  1  0
 34 29  1  0
 35 30  1  0
 36 30  1  0
 37 30  1  0
 27 28  2  0
  2 38  1  0
  3 39  1  0
  4 40  1  0
  7 41  1  0
  8 42  1  6
 10 43  1  0
 10 44  1  0
 11 45  1  0
 12 46  1  0
 13 47  1  0
 14 48  1  0
 14 49  1  0
 14 50  1  0
 15 51  1  0
 15 52  1  0
 15 53  1  0
 16 54  1  0
 16 55  1  0
 16 56  1  0
 18 57  1  0
 19 58  1  0
 23 59  1  0
 24 60  1  0
 25 61  1  0
 28 62  1  0
 29 63  1  6
 31 64  1  0
 31 65  1  0
 32 66  1  0
 33 67  1  0
 34 68  1  0
 35 69  1  0
 35 70  1  0
 35 71  1  0
 36 72  1  0
 36 73  1  0
 36 74  1  0
 37 75  1  0
 37 76  1  0
 37 77  1  0
M  END
> <Uni-Dock RESULT> 
ENERGY=   -6.355  LOWER_BOUND=    1.457  UPPER_BOUND=    2.842
INTER + INTRA:          -6.355
INTER:                  -6.355
INTRA:                   0.000
UNBOUND:                 0.000

$$$$

     RDKit          3D

 77 76  0  0  0  0  0  0  0  0999 V2000
   45.1727    6.3787   12.2104 C   0  0  0  0  0  0  0  0  0  0  0  0
   44.9771    6.0353   10.8612 C   0  0  0  0  0  0  0  0  0  0  0  0
   44.5737    5.5886   13.2028 C   0  0  0  0  0  0  0  0  0  0  0  0
   48.4182    8.3991   12.6858 N   0  0  0  0  0  0  0  0  0  0  0  0
   43.7879    4.4954   12.8482 C   0  0  0  0  0  0  0  0  0  0  0  0
   44.1854    4.9381   10.5283 C   0  0  0  0  0  0  0  0  0  0  0  0
   43.5849    4.1626   11.5138 C   0  0  0  0  0  0  0  0  0  0  0  0
   46.0353    7.5594   12.6007 C   0  0  1  0  0  0  0  0  0  0  0  0
   48.9777    8.6687   14.0177 C   0  0  0  0  0  0  0  0  0  0  0  0
   47.5477    7.2232   12.5342 C   0  0  0  0  0  0  0  0  0  0  0  0
   43.2280    3.7658   13.8550 O   0  0  0  0  0  0  0  0  0  0  0  0
   43.9736    4.5864    9.2266 O   0  0  0  0  0  0  0  0  0  0  0  0
   45.7498    8.6735   11.7443 O   0  0  0  0  0  0  0  0  0  0  0  0
   49.6911   10.0331   13.9228 C   0  0  0  0  0  0  0  0  0  0  0  0
   47.9138    8.7567   15.1225 C   0  0  0  0  0  0  0  0  0  0  0  0
   50.0282    7.6034   14.3821 C   0  0  0  0  0  0  0  0  0  0  0  0
   47.0462    7.0236   12.6956 S   0  0  0  0  0  0  0  0  0  0  0  0
   45.5335    6.6533   13.0809 O   0  0  0  0  0  0  0  0  0  0  0  0
   47.2285    8.4389   13.4303 O   0  0  0  0  0  0  0  0  0  0  0  0
   47.0645    7.2231   11.2685 O   0  0  0  0  0  0  0  0  0  0  0  0
   47.9028    6.0822   13.3723 O   0  0  0  0  0  0  0  0  0  0  0  0
   45.3769    6.6027   11.4638 C   0  0  0  0  0  0  0  0  0  0  0  0
   44.3086    6.1321   12.2473 C   0  0  0  0  0  0  0  0  0  0  0  0
   45.6926    5.9288   10.2746 C   0  0  0  0  0  0  0  0  0  0  0  0
   47.9823    8.6214   13.4119 N   0  0  0  0  0  0  0  0  0  0  0  0
   44.9499    4.8194    9.8810 C   0  0  0  0  0  0  0  0  0  0  0  0
   43.5795    5.0193   11.8345 C   0  0  0  0  0  0  0  0  0  0  0  0
   43.8891    4.3581   10.6522 C   0  0  0  0  0  0  0  0  0  0  0  0
   46.1958    7.8004   11.8981 C   0  0  2  0  0  0  0  0  0  0  0  0
   48.8012    8.4904   14.6289 C   0  0  0  0  0  0  0  0  0  0  0  0
   47.1766    7.4463   13.0440 C   0  0  0  0  0  0  0  0  0  0  0  0
   45.3030    4.2025    8.7166 O   0  0  0  0  0  0  0  0  0  0  0  0
   42.5396    4.5399   12.5764 O   0  0  0  0  0  0  0  0  0  0  0  0
   45.3132    8.8465   12.3326 O   0  0  0  0  0  0  0  0  0  0  0  0
   49.6920    7.2375   14.6040 C   0  0  0  0  0  0  0  0  0  0  0  0
   49.7101    9.7337   14.6644 C   0  0  0  0  0  0  0  0  0  0  0  0
   47.9286    8.4892   15.8964 C   0  0  0  0  0  0  0  0  0  0  0  0
   45.4495    6.6322   10.0843 H   0  0  0  0  0  0  0  0  0  0  0  0
   44.7138    5.8173   14.2572 H   0  0  0  0  0  0  0  0  0  0  0  0
   47.8930    9.2101   12.3400 H   0  0  0  0  0  0  0  0  0  0  0  0
   42.9757    3.3136   11.2240 H   0  0  0  0  0  0  0  0  0  0  0  0
   45.7667    7.8834   13.6096 H   0  0  0  0  0  0  0  0  0  0  0  0
   47.7674    6.8290   11.5340 H   0  0  0  0  0  0  0  0  0  0  0  0
   47.7938    6.4174   13.2333 H   0  0  0  0  0  0  0  0  0  0  0  0
   42.6595    3.0833   13.4601 H   0  0  0  0  0  0  0  0  0  0  0  0
   44.4535    5.2087    8.6536 H   0  0  0  0  0  0  0  0  0  0  0  0
   44.7805    8.7401   11.6917 H   0  0  0  0  0  0  0  0  0  0  0  0
   48.9864   10.8399   13.6872 H   0  0  0  0  0  0  0  0  0  0  0  0
   50.1786   10.2904   14.8703 H   0  0  0  0  0  0  0  0  0  0  0  0
   50.4651   10.0260   13.1448 H   0  0  0  0  0  0  0  0  0  0  0  0
   47.4270    7.7900   15.2965 H   0  0  0  0  0  0  0  0  0  0  0  0
   47.1399    9.4935   14.8763 H   0  0  0  0  0  0  0  0  0  0  0  0
   48.3649    9.0645   16.0740 H   0  0  0  0  0  0  0  0  0  0  0  0
   50.7982    7.5232   13.6049 H   0  0  0  0  0  0  0  0  0  0  0  0
   50.5366    7.8597   15.3193 H   0  0  0  0  0  0  0  0  0  0  0  0
   49.5863    6.6103   14.5168 H   0  0  0  0  0  0  0  0  0  0  0  0
   45.1408    6.2000   12.3038 H   0  0  0  0  0  0  0  0  0  0  0  0
   47.1999    8.2791   14.3953 H   0  0  0  0  0  0  0  0  0  0  0  0
   44.0597    6.6443   13.1734 H   0  0  0  0  0  0  0  0  0  0  0  0
   46.5207    6.2580    9.6499 H   0  0  0  0  0  0  0  0  0  0  0  0
   47.3398    9.4146   13.5082 H   0  0  0  0  0  0  0  0  0  0  0  0
   43.3016    3.4969   10.3549 H   0  0  0  0  0  0  0  0  0  0  0  0
   46.7539    8.1981   11.0409 H   0  0  0  0  0  0  0  0  0  0  0  0
   46.5972    7.1023   13.9082 H   0  0  0  0  0  0  0  0  0  0  0  0
   47.8297    6.6294   12.7175 H   0  0  0  0  0  0  0  0  0  0  0  0
   44.7264    3.4300    8.5929 H   0  0  0  0  0  0  0  0  0  0  0  0
   42.4632    5.0741   13.3850 H   0  0  0  0  0  0  0  0  0  0  0  0
   44.6450    8.9430   11.6314 H   0  0  0  0  0  0  0  0  0  0  0  0
   50.3899    7.2367   15.4499 H   0  0  0  0  0  0  0  0  0  0  0  0
   49.1044    6.3155   14.6722 H   0  0  0  0  0  0  0  0  0  0  0  0
   50.2886    7.1934   13.6849 H   0  0  0  0  0  0  0  0  0  0  0  0
   50.3540    9.7279   15.5515 H   0  0  0  0  0  0  0  0  0  0  0  0
   49.1247   10.6592   14.6930 H   0  0  0  0  0  0  0  0  0  0  0  0
   50.3627    9.7761   13.7847 H   0  0  0  0  0  0  0  0  0  0  0  0
   47.2801    9.3716   15.9341 H   0  0  0  0  0  0  0  0  0  0  0  0
   48.5497    8.5027   16.7995 H   0  0  0  0  0  0  0  0  0  0  0  0
   47.2914    7.6019   15.9583 H   0  0  0  0  0  0  0  0  0  0  0  0
  2  1  2  0
  3  1  1  0
  4 10  1  0
  5  3  2  0
  6  2  1  0
  7  5  1  0
  8  1  1  0
  9  4  1  0
 10  8  1  0
 11  5  1  0
 12  6  1  0
 13  8  1  0
 14  9  1  0
 15  9  1  0
 16  9  1  0
  6  7  2  0
 18 17  1  0
 19 17  1  0
 20 17  2  0
 21 17  2  0
 23 22  2  0
 24 22  1  0
 25 31  1  0
 26 24  2  0
 27 23  1  0
 28 26  1  0
 29 22  1  0
 30 25  1  0
 31 29  1  0
 32 26  1  0
 33 27  1  0
 34 29  1  0
 35 30  1  0
 36 30  1  0
 37 30  1  0
 27 28  2  0
  2 38  1  0
  3 39  1  0
  4 40  1  0
  7 41  1  0
  8 42  1  6
 10 43  1  0
 10 44  1  0
 11 45  1  0
 12 46  1  0
 13 47  1  0
 14 48  1  0
 14 49  1  0
 14 50  1  0
 15 51  1  0
 15 52  1  0
 15 53  1  0
 16 54  1  0
 16 55  1  0
 16 56  1  0
 18 57  1  0
 19 58  1  0
 23 59  1  0
 24 60  1  0
 25 61  1  0
 28 62  1  0
 29 63  1  6
 31 64  1  0
 31 65  1  0
 32 66  1  0
 33 67  1  0
 34 68  1  0
 35 69  1  0
 35 70  1  0
 35 71  1  0
 36 72  1  0
 36 73  1  0
 36 74  1  0
 37 75  1  0
 37 76  1  0
 37 77  1  0
M  END
> <Uni-Dock RESULT> 
ENERGY=   -6.218  LOWER_BOUND=    2.095  UPPER_BOUND=    5.840
INTER + INTRA:          -6.218
INTER:                  -6.218
INTRA:                   0.000
UNBOUND:                 0.000

$$$$

     RDKit          3D

 77 76  0  0  0  0  0  0  0  0999 V2000
   45.7508    6.0465   11.6100 C   0  0  0  0  0  0  0  0  0  0  0  0
   44.4949    5.6065   12.0634 C   0  0  0  0  0  0  0  0  0  0  0  0
   46.1213    5.7818   10.2831 C   0  0  0  0  0  0  0  0  0  0  0  0
   47.0187    9.0381   13.6799 N   0  0  0  0  0  0  0  0  0  0  0  0
   45.2609    5.0810    9.4422 C   0  0  0  0  0  0  0  0  0  0  0  0
   43.6499    4.9054   11.2056 C   0  0  0  0  0  0  0  0  0  0  0  0
   44.0238    4.6359    9.8939 C   0  0  0  0  0  0  0  0  0  0  0  0
   46.6844    6.8183   12.5173 C   0  0  1  0  0  0  0  0  0  0  0  0
   48.1801    9.8357   13.2619 C   0  0  0  0  0  0  0  0  0  0  0  0
   46.2779    8.3099   12.6385 C   0  0  0  0  0  0  0  0  0  0  0  0
   45.6754    4.8497    8.1639 O   0  0  0  0  0  0  0  0  0  0  0  0
   42.4282    4.4611   11.6216 O   0  0  0  0  0  0  0  0  0  0  0  0
   46.7053    6.2158   13.8183 O   0  0  0  0  0  0  0  0  0  0  0  0
   48.8548   10.3344   14.5563 C   0  0  0  0  0  0  0  0  0  0  0  0
   49.2148    9.0354   12.4563 C   0  0  0  0  0  0  0  0  0  0  0  0
   47.7222   11.0654   12.4561 C   0  0  0  0  0  0  0  0  0  0  0  0
   46.3358    7.8847   12.2735 S   0  0  0  0  0  0  0  0  0  0  0  0
   46.5695    6.5507   11.4133 O   0  0  0  0  0  0  0  0  0  0  0  0
   47.7515    8.0436   13.0127 O   0  0  0  0  0  0  0  0  0  0  0  0
   45.3235    7.5667   13.2487 O   0  0  0  0  0  0  0  0  0  0  0  0
   46.2193    8.9792   11.3426 O   0  0  0  0  0  0  0  0  0  0  0  0
   45.2738    6.0536   12.2594 C   0  0  0  0  0  0  0  0  0  0  0  0
   45.7181    5.2491   11.1955 C   0  0  0  0  0  0  0  0  0  0  0  0
   43.8944    6.1848   12.4787 C   0  0  0  0  0  0  0  0  0  0  0  0
   47.7714    8.7463   13.3407 N   0  0  0  0  0  0  0  0  0  0  0  0
   42.9891    5.5194   11.6572 C   0  0  0  0  0  0  0  0  0  0  0  0
   44.7942    4.5930   10.3853 C   0  0  0  0  0  0  0  0  0  0  0  0
   43.4286    4.7183   10.6093 C   0  0  0  0  0  0  0  0  0  0  0  0
   46.2568    6.7905   13.1448 C   0  0  2  0  0  0  0  0  0  0  0  0
   48.5746    9.8203   12.7322 C   0  0  0  0  0  0  0  0  0  0  0  0
   46.8532    8.0337   12.4382 C   0  0  0  0  0  0  0  0  0  0  0  0
   41.6599    5.6851   11.9160 O   0  0  0  0  0  0  0  0  0  0  0  0
   45.1974    3.8081    9.3447 O   0  0  0  0  0  0  0  0  0  0  0  0
   47.3192    5.8997   13.5187 O   0  0  0  0  0  0  0  0  0  0  0  0
   47.7114   10.8342   11.9635 C   0  0  0  0  0  0  0  0  0  0  0  0
   49.2602   10.5518   13.9017 C   0  0  0  0  0  0  0  0  0  0  0  0
   49.6654    9.2517   11.8075 C   0  0  0  0  0  0  0  0  0  0  0  0
   44.1915    5.8198   13.0859 H   0  0  0  0  0  0  0  0  0  0  0  0
   47.0802    6.1182    9.8946 H   0  0  0  0  0  0  0  0  0  0  0  0
   47.2856    8.3527   14.3955 H   0  0  0  0  0  0  0  0  0  0  0  0
   43.3441    4.0896    9.2492 H   0  0  0  0  0  0  0  0  0  0  0  0
   47.7056    6.7373   12.1356 H   0  0  0  0  0  0  0  0  0  0  0  0
   45.2263    8.3543   12.9485 H   0  0  0  0  0  0  0  0  0  0  0  0
   46.3219    8.8013   11.6612 H   0  0  0  0  0  0  0  0  0  0  0  0
   45.0085    4.2991    7.7199 H   0  0  0  0  0  0  0  0  0  0  0  0
   42.3008    4.7229   12.5496 H   0  0  0  0  0  0  0  0  0  0  0  0
   46.8008    5.2579   13.6775 H   0  0  0  0  0  0  0  0  0  0  0  0
   49.2245    9.5000   15.1645 H   0  0  0  0  0  0  0  0  0  0  0  0
   49.7115   10.9803   14.3313 H   0  0  0  0  0  0  0  0  0  0  0  0
   48.1568   10.9152   15.1726 H   0  0  0  0  0  0  0  0  0  0  0  0
   48.8194    8.7232   11.4826 H   0  0  0  0  0  0  0  0  0  0  0  0
   49.5408    8.1403   12.9994 H   0  0  0  0  0  0  0  0  0  0  0  0
   50.1087    9.6405   12.2604 H   0  0  0  0  0  0  0  0  0  0  0  0
   46.9811   11.6517   13.0134 H   0  0  0  0  0  0  0  0  0  0  0  0
   48.5681   11.7294   12.2410 H   0  0  0  0  0  0  0  0  0  0  0  0
   47.2753   10.7915   11.4944 H   0  0  0  0  0  0  0  0  0  0  0  0
   45.7204    6.0583   11.4084 H   0  0  0  0  0  0  0  0  0  0  0  0
   48.4227    8.2460   12.3299 H   0  0  0  0  0  0  0  0  0  0  0  0
   46.7851    5.1455   11.0140 H   0  0  0  0  0  0  0  0  0  0  0  0
   43.5148    6.8091   13.2852 H   0  0  0  0  0  0  0  0  0  0  0  0
   48.3896    8.0459   13.7633 H   0  0  0  0  0  0  0  0  0  0  0  0
   42.7334    4.1929    9.9643 H   0  0  0  0  0  0  0  0  0  0  0  0
   45.7613    7.0943   14.0757 H   0  0  0  0  0  0  0  0  0  0  0  0
   47.3887    7.7041   11.5408 H   0  0  0  0  0  0  0  0  0  0  0  0
   46.0373    8.6972   12.1306 H   0  0  0  0  0  0  0  0  0  0  0  0
   41.1546    5.1968   11.2445 H   0  0  0  0  0  0  0  0  0  0  0  0
   46.1673    3.8431    9.2873 H   0  0  0  0  0  0  0  0  0  0  0  0
   46.8887    5.0881   13.8407 H   0  0  0  0  0  0  0  0  0  0  0  0
   48.3111   11.6939   11.6414 H   0  0  0  0  0  0  0  0  0  0  0  0
   47.2692   10.3959   11.0623 H   0  0  0  0  0  0  0  0  0  0  0  0
   46.8970   11.2171   12.5903 H   0  0  0  0  0  0  0  0  0  0  0  0
   49.8949   11.3689   13.5397 H   0  0  0  0  0  0  0  0  0  0  0  0
   49.8987    9.8753   14.4804 H   0  0  0  0  0  0  0  0  0  0  0  0
   48.5234   10.9867   14.5871 H   0  0  0  0  0  0  0  0  0  0  0  0
   50.2914    8.5215   12.3325 H   0  0  0  0  0  0  0  0  0  0  0  0
   50.3267   10.0477   11.4464 H   0  0  0  0  0  0  0  0  0  0  0  0
   49.2440    8.7596   10.9257 H   0  0  0  0  0  0  0  0  0  0  0  0
  2  1  2  0
  3  1  1  0
  4 10  1  0
  5  3  2  0
  6  2  1  0
  7  5  1  0
  8  1  1  0
  9  4  1  0
 10  8  1  0
 11  5  1  0
 12  6  1  0
 13  8  1  0
 14  9  1  0
 15  9  1  0
 16  9  1  0
  6  7  2  0
 18 17  1  0
 19 17  1  0
 20 17  2  0
 21 17  2  0
 23 22  2  0
 24 22  1  0
 25 31  1  0
 26 24  2  0
 27 23  1  0
 28 26  1  0
 29 22  1  0
 30 25  1  0
 31 29  1  0
 32 26  1  0
 33 27  1  0
 34 29  1  0
 35 30  1  0
 36 30  1  0
 37 30  1  0
 27 28  2  0
  2 38  1  0
  3 39  1  0
  4 40  1  0
  7 41  1  0
  8 42  1  6
 10 43  1  0
 10 44  1  0
 11 45  1  0
 12 46  1  0
 13 47  1  0
 14 48  1  0
 14 49  1  0
 14 50  1  0
 15 51  1  0
 15 52  1  0
 15 53  1  0
 16 54  1  0
 16 55  1  0
 16 56  1  0
 18 57  1  0
 19 58  1  0
 23 59  1  0
 24 60  1  0
 25 61  1  0
 28 62  1  0
 29 63  1  6
 31 64  1  0
 31 65  1  0
 32 66  1  0
 33 67  1  0
 34 68  1  0
 35 69  1  0
 35 70  1  0
 35 71  1  0
 36 72  1  0
 36 73  1  0
 36 74  1  0
 37 75  1  0
 37 76  1  0
 37 77  1  0
M  END
> <Uni-Dock RESULT> 
ENERGY=   -6.084  LOWER_BOUND=    1.802  UPPER_BOUND=    5.980
INTER + INTRA:          -6.084
INTER:                  -6.084
INTRA:                   0.000
UNBOUND:                 0.000

$$$$

     RDKit          3D

 77 76  0  0  0  0  0  0  0  0999 V2000
   48.8911    5.1674   18.7491 C   0  0  0  0  0  0  0  0  0  0  0  0
   48.1854    4.1913   18.0240 C   0  0  0  0  0  0  0  0  0  0  0  0
   50.2932    5.1233   18.7547 C   0  0  0  0  0  0  0  0  0  0  0  0
   46.8018    8.3751   19.1818 N   0  0  0  0  0  0  0  0  0  0  0  0
   50.9650    4.1176   18.0649 C   0  0  0  0  0  0  0  0  0  0  0  0
   48.8776    3.1927   17.3420 C   0  0  0  0  0  0  0  0  0  0  0  0
   50.2670    3.1457   17.3573 C   0  0  0  0  0  0  0  0  0  0  0  0
   48.1652    6.2688   19.4910 C   0  0  1  0  0  0  0  0  0  0  0  0
   47.3910    9.6244   19.6836 C   0  0  0  0  0  0  0  0  0  0  0  0
   47.7010    7.4032   18.5410 C   0  0  0  0  0  0  0  0  0  0  0  0
   52.3280    4.1226   18.1085 O   0  0  0  0  0  0  0  0  0  0  0  0
   48.2174    2.2292   16.6358 O   0  0  0  0  0  0  0  0  0  0  0  0
   47.0335    5.7242   20.1827 O   0  0  0  0  0  0  0  0  0  0  0  0
   46.2703   10.3584   20.4483 C   0  0  0  0  0  0  0  0  0  0  0  0
   48.5671    9.4032   20.6469 C   0  0  0  0  0  0  0  0  0  0  0  0
   47.8331   10.5167   18.5091 C   0  0  0  0  0  0  0  0  0  0  0  0
   48.1306    7.0581   18.6579 S   0  0  0  0  0  0  0  0  0  0  0  0
   49.2228    5.9951   19.1591 O   0  0  0  0  0  0  0  0  0  0  0  0
   47.7945    7.8404   20.0184 O   0  0  0  0  0  0  0  0  0  0  0  0
   46.9779    6.2947   18.2514 O   0  0  0  0  0  0  0  0  0  0  0  0
   48.8069    7.9896   17.7903 O   0  0  0  0  0  0  0  0  0  0  0  0
   48.1430    4.9441   18.5499 C   0  0  0  0  0  0  0  0  0  0  0  0
   49.4020    4.4510   18.9349 C   0  0  0  0  0  0  0  0  0  0  0  0
   47.5343    4.4215   17.3991 C   0  0  0  0  0  0  0  0  0  0  0  0
   47.3771    8.4681   19.8353 N   0  0  0  0  0  0  0  0  0  0  0  0
   48.1697    3.4262   16.6623 C   0  0  0  0  0  0  0  0  0  0  0  0
   50.0201    3.4553   18.1820 C   0  0  0  0  0  0  0  0  0  0  0  0
   49.4117    2.9337   17.0468 C   0  0  0  0  0  0  0  0  0  0  0  0
   47.4569    6.0377   19.3416 C   0  0  2  0  0  0  0  0  0  0  0  0
   48.0043    9.8005   19.8548 C   0  0  0  0  0  0  0  0  0  0  0  0
   48.0933    7.4263   19.0823 C   0  0  0  0  0  0  0  0  0  0  0  0
   47.5319    2.9567   15.5514 O   0  0  0  0  0  0  0  0  0  0  0  0
   51.2426    2.9603   18.5312 O   0  0  0  0  0  0  0  0  0  0  0  0
   47.5369    5.7311   20.7423 O   0  0  0  0  0  0  0  0  0  0  0  0
   48.3339   10.3140   18.4435 C   0  0  0  0  0  0  0  0  0  0  0  0
   46.9679   10.7479   20.4882 C   0  0  0  0  0  0  0  0  0  0  0  0
   49.2718    9.8126   20.7273 C   0  0  0  0  0  0  0  0  0  0  0  0
   47.0985    4.2254   18.0006 H   0  0  0  0  0  0  0  0  0  0  0  0
   50.8721    5.8696   19.2946 H   0  0  0  0  0  0  0  0  0  0  0  0
   46.3059    7.8791   19.9309 H   0  0  0  0  0  0  0  0  0  0  0  0
   50.7779    2.3575   16.8155 H   0  0  0  0  0  0  0  0  0  0  0  0
   48.8212    6.6734   20.2664 H   0  0  0  0  0  0  0  0  0  0  0  0
   47.1104    6.9533   17.7331 H   0  0  0  0  0  0  0  0  0  0  0  0
   48.5615    7.8743   18.0550 H   0  0  0  0  0  0  0  0  0  0  0  0
   52.6529    3.3335   17.6431 H   0  0  0  0  0  0  0  0  0  0  0  0
   47.2608    2.3888   16.7098 H   0  0  0  0  0  0  0  0  0  0  0  0
   47.3457    4.9203   20.6331 H   0  0  0  0  0  0  0  0  0  0  0  0
   45.9282    9.7791   21.3145 H   0  0  0  0  0  0  0  0  0  0  0  0
   46.6167   11.3297   20.8200 H   0  0  0  0  0  0  0  0  0  0  0  0
   45.4013   10.5427   19.8038 H   0  0  0  0  0  0  0  0  0  0  0  0
   49.4310    8.9587   20.1391 H   0  0  0  0  0  0  0  0  0  0  0  0
   48.2844    8.7510   21.4819 H   0  0  0  0  0  0  0  0  0  0  0  0
   48.9026   10.3551   21.0770 H   0  0  0  0  0  0  0  0  0  0  0  0
   47.0073   10.6869   17.8072 H   0  0  0  0  0  0  0  0  0  0  0  0
   48.1643   11.4989   18.8670 H   0  0  0  0  0  0  0  0  0  0  0  0
   48.6654   10.0822   17.9450 H   0  0  0  0  0  0  0  0  0  0  0  0
   49.0720    5.1670   18.6543 H   0  0  0  0  0  0  0  0  0  0  0  0
   48.5944    8.3396   20.2801 H   0  0  0  0  0  0  0  0  0  0  0  0
   49.8844    4.8535   19.8222 H   0  0  0  0  0  0  0  0  0  0  0  0
   46.5657    4.7883   17.0650 H   0  0  0  0  0  0  0  0  0  0  0  0
   47.2581    8.1252   20.7942 H   0  0  0  0  0  0  0  0  0  0  0  0
   49.9153    2.1568   16.4828 H   0  0  0  0  0  0  0  0  0  0  0  0
   46.3896    6.0648   19.0879 H   0  0  0  0  0  0  0  0  0  0  0  0
   49.1440    7.3942   19.3916 H   0  0  0  0  0  0  0  0  0  0  0  0
   48.0546    7.6437   18.0091 H   0  0  0  0  0  0  0  0  0  0  0  0
   48.1071    2.3008   15.1230 H   0  0  0  0  0  0  0  0  0  0  0  0
   51.5585    3.4392   19.3161 H   0  0  0  0  0  0  0  0  0  0  0  0
   47.2422    4.8077   20.8326 H   0  0  0  0  0  0  0  0  0  0  0  0
   48.6677   11.3581   18.4751 H   0  0  0  0  0  0  0  0  0  0  0  0
   49.1363    9.7348   17.9738 H   0  0  0  0  0  0  0  0  0  0  0  0
   47.4545   10.2689   17.7899 H   0  0  0  0  0  0  0  0  0  0  0  0
   47.3558   11.7710   20.5551 H   0  0  0  0  0  0  0  0  0  0  0  0
   46.7028   10.4332   21.5035 H   0  0  0  0  0  0  0  0  0  0  0  0
   46.0459   10.7840   19.8962 H   0  0  0  0  0  0  0  0  0  0  0  0
   49.0627    9.4453   21.7383 H   0  0  0  0  0  0  0  0  0  0  0  0
   49.6697   10.8292   20.8260 H   0  0  0  0  0  0  0  0  0  0  0  0
   50.0701    9.1951   20.3046 H   0  0  0  0  0  0  0  0  0  0  0  0
  2  1  2  0
  3  1  1  0
  4 10  1  0
  5  3  2  0
  6  2  1  0
  7  5  1  0
  8  1  1  0
  9  4  1  0
 10  8  1  0
 11  5  1  0
 12  6  1  0
 13  8  1  0
 14  9  1  0
 15  9  1  0
 16  9  1  0
  6  7  2  0
 18 17  1  0
 19 17  1  0
 20 17  2  0
 21 17  2  0
 23 22  2  0
 24 22  1  0
 25 31  1  0
 26 24  2  0
 27 23  1  0
 28 26  1  0
 29 22  1  0
 30 25  1  0
 31 29  1  0
 32 26  1  0
 33 27  1  0
 34 29  1  0
 35 30  1  0
 36 30  1  0
 37 30  1  0
 27 28  2  0
  2 38  1  0
  3 39  1  0
  4 40  1  0
  7 41  1  0
  8 42  1  6
 10 43  1  0
 10 44  1  0
 11 45  1  0
 12 46  1  0
 13 47  1  0
 14 48  1  0
 14 49  1  0
 14 50  1  0
 15 51  1  0
 15 52  1  0
 15 53  1  0
 16 54  1  0
 16 55  1  0
 16 56  1  0
 18 57  1  0
 19 58  1  0
 23 59  1  0
 24 60  1  0
 25 61  1  0
 28 62  1  0
 29 63  1  6
 31 64  1  0
 31 65  1  0
 32 66  1  0
 33 67  1  0
 34 68  1  0
 35 69  1  0
 35 70  1  0
 35 71  1  0
 36 72  1  0
 36 73  1  0
 36 74  1  0
 37 75  1  0
 37 76  1  0
 37 77  1  0
M  END
> <Uni-Dock RESULT> 
ENERGY=   -5.907  LOWER_BOUND=    6.555  UPPER_BOUND=    8.936
INTER + INTRA:          -5.907
INTER:                  -5.907
INTRA:                   0.000
UNBOUND:                 0.000

$$$$

     RDKit          3D

 77 76  0  0  0  0  0  0  0  0999 V2000
   53.9245    6.3813    8.7289 C   0  0  0  0  0  0  0  0  0  0  0  0
   54.4509    5.1085    8.4472 C   0  0  0  0  0  0  0  0  0  0  0  0
   54.1794    6.9559    9.9830 C   0  0  0  0  0  0  0  0  0  0  0  0
   53.2807    8.3781    5.4979 N   0  0  0  0  0  0  0  0  0  0  0  0
   54.9279    6.2639   10.9313 C   0  0  0  0  0  0  0  0  0  0  0  0
   55.1959    4.4327    9.4114 C   0  0  0  0  0  0  0  0  0  0  0  0
   55.4388    5.0005   10.6570 C   0  0  0  0  0  0  0  0  0  0  0  0
   53.1199    7.1417    7.6970 C   0  0  1  0  0  0  0  0  0  0  0  0
   52.9661    9.8135    5.5211 C   0  0  0  0  0  0  0  0  0  0  0  0
   54.0255    7.8221    6.6379 C   0  0  0  0  0  0  0  0  0  0  0  0
   55.1409    6.8702   12.1341 O   0  0  0  0  0  0  0  0  0  0  0  0
   55.7131    3.1934    9.1667 O   0  0  0  0  0  0  0  0  0  0  0  0
   52.2001    6.2539    7.0477 O   0  0  0  0  0  0  0  0  0  0  0  0
   52.0455   10.0774    4.3119 C   0  0  0  0  0  0  0  0  0  0  0  0
   52.2299   10.2585    6.7939 C   0  0  0  0  0  0  0  0  0  0  0  0
   54.2488   10.6451    5.3369 C   0  0  0  0  0  0  0  0  0  0  0  0
   53.9729    7.7184    7.1891 S   0  0  0  0  0  0  0  0  0  0  0  0
   53.6289    7.3168    8.7039 O   0  0  0  0  0  0  0  0  0  0  0  0
   52.6175    8.4473    6.7334 O   0  0  0  0  0  0  0  0  0  0  0  0
   54.1145    6.4815    6.4633 O   0  0  0  0  0  0  0  0  0  0  0  0
   55.0007    8.7280    7.2370 O   0  0  0  0  0  0  0  0  0  0  0  0
   53.9675    5.8291    8.1437 C   0  0  0  0  0  0  0  0  0  0  0  0
   53.7994    5.9920    9.5300 C   0  0  0  0  0  0  0  0  0  0  0  0
   54.9541    4.9458    7.6805 C   0  0  0  0  0  0  0  0  0  0  0  0
   52.7526    8.7989    6.0552 N   0  0  0  0  0  0  0  0  0  0  0  0
   55.7424    4.2408    8.5854 C   0  0  0  0  0  0  0  0  0  0  0  0
   54.6003    5.2770   10.4175 C   0  0  0  0  0  0  0  0  0  0  0  0
   55.5717    4.3968    9.9564 C   0  0  0  0  0  0  0  0  0  0  0  0
   53.1212    6.6066    7.1575 C   0  0  2  0  0  0  0  0  0  0  0  0
   52.9226   10.2609    6.0051 C   0  0  0  0  0  0  0  0  0  0  0  0
   53.5694    8.0858    7.0500 C   0  0  0  0  0  0  0  0  0  0  0  0
   56.6872    3.3973    8.0784 O   0  0  0  0  0  0  0  0  0  0  0  0
   54.4604    5.4175   11.7674 O   0  0  0  0  0  0  0  0  0  0  0  0
   51.7459    6.5542    7.5675 O   0  0  0  0  0  0  0  0  0  0  0  0
   54.3962   10.6751    5.8599 C   0  0  0  0  0  0  0  0  0  0  0  0
   52.1580   10.7343    4.7544 C   0  0  0  0  0  0  0  0  0  0  0  0
   52.3051   10.9415    7.2395 C   0  0  0  0  0  0  0  0  0  0  0  0
   54.2719    4.6603    7.4724 H   0  0  0  0  0  0  0  0  0  0  0  0
   53.7985    7.9444   10.2309 H   0  0  0  0  0  0  0  0  0  0  0  0
   52.4264    7.8192    5.3940 H   0  0  0  0  0  0  0  0  0  0  0  0
   56.0236    4.4511   11.3864 H   0  0  0  0  0  0  0  0  0  0  0  0
   52.5041    7.8910    8.2015 H   0  0  0  0  0  0  0  0  0  0  0  0
   54.6831    7.0567    6.2068 H   0  0  0  0  0  0  0  0  0  0  0  0
   54.6889    8.5531    7.1113 H   0  0  0  0  0  0  0  0  0  0  0  0
   55.6158    6.2487   12.7112 H   0  0  0  0  0  0  0  0  0  0  0  0
   55.4697    2.9269    8.2636 H   0  0  0  0  0  0  0  0  0  0  0  0
   51.7736    5.7349    7.7516 H   0  0  0  0  0  0  0  0  0  0  0  0
   51.1006    9.5271    4.3980 H   0  0  0  0  0  0  0  0  0  0  0  0
   51.7980   11.1421    4.2292 H   0  0  0  0  0  0  0  0  0  0  0  0
   52.5245    9.7761    3.3716 H   0  0  0  0  0  0  0  0  0  0  0  0
   52.8660   10.1737    7.6827 H   0  0  0  0  0  0  0  0  0  0  0  0
   51.3229    9.6652    6.9608 H   0  0  0  0  0  0  0  0  0  0  0  0
   51.9221   11.3089    6.7187 H   0  0  0  0  0  0  0  0  0  0  0  0
   54.7916   10.3426    4.4327 H   0  0  0  0  0  0  0  0  0  0  0  0
   54.0127   11.7111    5.2338 H   0  0  0  0  0  0  0  0  0  0  0  0
   54.9348   10.5480    6.1852 H   0  0  0  0  0  0  0  0  0  0  0  0
   54.0513    6.4474    8.8746 H   0  0  0  0  0  0  0  0  0  0  0  0
   52.5376    9.2758    7.2480 H   0  0  0  0  0  0  0  0  0  0  0  0
   53.0412    6.6784    9.8987 H   0  0  0  0  0  0  0  0  0  0  0  0
   55.1200    4.8043    6.6144 H   0  0  0  0  0  0  0  0  0  0  0  0
   51.7714    8.5687    6.2436 H   0  0  0  0  0  0  0  0  0  0  0  0
   56.1775    3.8513   10.6711 H   0  0  0  0  0  0  0  0  0  0  0  0
   53.1714    6.1304    6.1701 H   0  0  0  0  0  0  0  0  0  0  0  0
   53.4613    8.5576    8.0330 H   0  0  0  0  0  0  0  0  0  0  0  0
   54.6264    8.1202    6.7636 H   0  0  0  0  0  0  0  0  0  0  0  0
   57.1799    3.0087    8.8205 H   0  0  0  0  0  0  0  0  0  0  0  0
   53.7755    6.0855   11.9404 H   0  0  0  0  0  0  0  0  0  0  0  0
   51.5525    5.6159    7.7403 H   0  0  0  0  0  0  0  0  0  0  0  0
   54.4839   11.7540    5.6842 H   0  0  0  0  0  0  0  0  0  0  0  0
   54.9762   10.4487    6.7612 H   0  0  0  0  0  0  0  0  0  0  0  0
   54.8700   10.1640    5.0132 H   0  0  0  0  0  0  0  0  0  0  0  0
   52.2201   11.8228    4.6411 H   0  0  0  0  0  0  0  0  0  0  0  0
   51.0956   10.4727    4.8095 H   0  0  0  0  0  0  0  0  0  0  0  0
   52.5677   10.2848    3.8424 H   0  0  0  0  0  0  0  0  0  0  0  0
   51.2546   10.6571    7.3671 H   0  0  0  0  0  0  0  0  0  0  0  0
   52.3375   12.0328    7.1423 H   0  0  0  0  0  0  0  0  0  0  0  0
   52.8362   10.6854    8.1613 H   0  0  0  0  0  0  0  0  0  0  0  0
  2  1  2  0
  3  1  1  0
  4 10  1  0
  5  3  2  0
  6  2  1  0
  7  5  1  0
  8  1  1  0
  9  4  1  0
 10  8  1  0
 11  5  1  0
 12  6  1  0
 13  8  1  0
 14  9  1  0
 15  9  1  0
 16  9  1  0
  6  7  2  0
 18 17  1  0
 19 17  1  0
 20 17  2  0
 21 17  2  0
 23 22  2  0
 24 22  1  0
 25 31  1  0
 26 24  2  0
 27 23  1  0
 28 26  1  0
 29 22  1  0
 30 25  1  0
 31 29  1  0
 32 26  1  0
 33 27  1  0
 34 29  1  0
 35 30  1  0
 36 30  1  0
 37 30  1  0
 27 28  2  0
  2 38  1  0
  3 39  1  0
  4 40  1  0
  7 41  1  0
  8 42  1  6
 10 43  1  0
 10 44  1  0
 11 45  1  0
 12 46  1  0
 13 47  1  0
 14 48  1  0
 14 49  1  0
 14 50  1  0
 15 51  1  0
 15 52  1  0
 15 53  1  0
 16 54  1  0
 16 55  1  0
 16 56  1  0
 18 57  1  0
 19 58  1  0
 23 59  1  0
 24 60  1  0
 25 61  1  0
 28 62  1  0
 29 63  1  6
 31 64  1  0
 31 65  1  0
 32 66  1  0
 33 67  1  0
 34 68  1  0
 35 69  1  0
 35 70  1  0
 35 71  1  0
 36 72  1  0
 36 73  1  0
 36 74  1  0
 37 75  1  0
 37 76  1  0
 37 77  1  0
M  END
> <Uni-Dock RESULT> 
ENERGY=   -5.835  LOWER_BOUND=    8.336  UPPER_BOUND=    9.953
INTER + INTRA:          -5.835
INTER:                  -5.835
INTRA:                   0.000
UNBOUND:                 0.000

$$$$

     RDKit          3D

 77 76  0  0  0  0  0  0  0  0999 V2000
   47.4574   11.1621   19.6433 C   0  0  0  0  0  0  0  0  0  0  0  0
   47.5925   12.3142   20.4376 C   0  0  0  0  0  0  0  0  0  0  0  0
   47.6958   11.2598   18.2644 C   0  0  0  0  0  0  0  0  0  0  0  0
   47.9476    7.9586   21.7264 N   0  0  0  0  0  0  0  0  0  0  0  0
   48.0437   12.4835   17.6987 C   0  0  0  0  0  0  0  0  0  0  0  0
   47.9400   13.5293   19.8507 C   0  0  0  0  0  0  0  0  0  0  0  0
   48.1661   13.6253   18.4823 C   0  0  0  0  0  0  0  0  0  0  0  0
   47.0905    9.8276   20.2557 C   0  0  1  0  0  0  0  0  0  0  0  0
   48.0997    6.6388   21.0981 C   0  0  0  0  0  0  0  0  0  0  0  0
   48.3071    9.1416   20.9296 C   0  0  0  0  0  0  0  0  0  0  0  0
   48.2600   12.5194   16.3529 O   0  0  0  0  0  0  0  0  0  0  0  0
   48.0716   14.6644   20.5972 O   0  0  0  0  0  0  0  0  0  0  0  0
   46.0425   10.0066   21.2178 O   0  0  0  0  0  0  0  0  0  0  0  0
   47.4935    5.6159   22.0808 C   0  0  0  0  0  0  0  0  0  0  0  0
   47.3645    6.5115   19.7552 C   0  0  0  0  0  0  0  0  0  0  0  0
   49.5911    6.3021   20.9158 C   0  0  0  0  0  0  0  0  0  0  0  0
   48.1454    9.4304   20.4737 S   0  0  0  0  0  0  0  0  0  0  0  0
   47.4775   10.2546   19.2701 O   0  0  0  0  0  0  0  0  0  0  0  0
   47.1683    8.1613   20.5763 O   0  0  0  0  0  0  0  0  0  0  0  0
   47.9949   10.2427   21.6546 O   0  0  0  0  0  0  0  0  0  0  0  0
   49.4199    8.9465   20.0054 O   0  0  0  0  0  0  0  0  0  0  0  0
   47.4091   11.4140   20.4072 C   0  0  0  0  0  0  0  0  0  0  0  0
   47.1021   11.7680   19.0817 C   0  0  0  0  0  0  0  0  0  0  0  0
   48.1245   12.3220   21.2020 C   0  0  0  0  0  0  0  0  0  0  0  0
   47.5035    7.6397   21.0425 N   0  0  0  0  0  0  0  0  0  0  0  0
   48.5120   13.5533   20.6813 C   0  0  0  0  0  0  0  0  0  0  0  0
   47.5007   13.0052   18.5810 C   0  0  0  0  0  0  0  0  0  0  0  0
   48.2025   13.9061   19.3727 C   0  0  0  0  0  0  0  0  0  0  0  0
   47.0017   10.0687   20.9709 C   0  0  2  0  0  0  0  0  0  0  0  0
   48.1294    6.4356   20.4702 C   0  0  0  0  0  0  0  0  0  0  0  0
   47.9023    8.9234   20.4438 C   0  0  0  0  0  0  0  0  0  0  0  0
   49.2071   14.3955   21.4991 O   0  0  0  0  0  0  0  0  0  0  0  0
   47.2183   13.3735   17.2980 O   0  0  0  0  0  0  0  0  0  0  0  0
   45.6355    9.8008   20.6190 O   0  0  0  0  0  0  0  0  0  0  0  0
   49.6631    6.5352   20.4293 C   0  0  0  0  0  0  0  0  0  0  0  0
   47.7414    5.2721   21.4022 C   0  0  0  0  0  0  0  0  0  0  0  0
   47.5851    6.1339   19.0628 C   0  0  0  0  0  0  0  0  0  0  0  0
   47.4249   12.2462   21.5102 H   0  0  0  0  0  0  0  0  0  0  0  0
   47.6128   10.3862   17.6212 H   0  0  0  0  0  0  0  0  0  0  0  0
   46.9855    8.0972   22.0553 H   0  0  0  0  0  0  0  0  0  0  0  0
   48.4369   14.5842   18.0545 H   0  0  0  0  0  0  0  0  0  0  0  0
   46.6749    9.1781   19.4807 H   0  0  0  0  0  0  0  0  0  0  0  0
   48.7461    9.8484   21.6449 H   0  0  0  0  0  0  0  0  0  0  0  0
   49.0906    8.9374   20.1927 H   0  0  0  0  0  0  0  0  0  0  0  0
   48.4270   13.4411   16.0933 H   0  0  0  0  0  0  0  0  0  0  0  0
   47.8901   14.4481   21.5279 H   0  0  0  0  0  0  0  0  0  0  0  0
   45.3776   10.5799   20.7985 H   0  0  0  0  0  0  0  0  0  0  0  0
   46.4217    5.7913   22.2337 H   0  0  0  0  0  0  0  0  0  0  0  0
   47.6076    4.5924   21.7053 H   0  0  0  0  0  0  0  0  0  0  0  0
   47.9845    5.6642   23.0611 H   0  0  0  0  0  0  0  0  0  0  0  0
   47.8062    7.1565   18.9867 H   0  0  0  0  0  0  0  0  0  0  0  0
   46.3030    6.7687   19.8531 H   0  0  0  0  0  0  0  0  0  0  0  0
   47.4164    5.4823   19.3788 H   0  0  0  0  0  0  0  0  0  0  0  0
   50.1362    6.3878   21.8640 H   0  0  0  0  0  0  0  0  0  0  0  0
   49.7191    5.2733   20.5582 H   0  0  0  0  0  0  0  0  0  0  0  0
   50.0816    6.9587   20.1892 H   0  0  0  0  0  0  0  0  0  0  0  0
   47.5762   11.2076   19.4836 H   0  0  0  0  0  0  0  0  0  0  0  0
   47.2791    7.6337   19.7596 H   0  0  0  0  0  0  0  0  0  0  0  0
   46.5528   11.0688   18.4560 H   0  0  0  0  0  0  0  0  0  0  0  0
   48.3899   12.0761   22.2284 H   0  0  0  0  0  0  0  0  0  0  0  0
   46.4833    7.5710   20.9674 H   0  0  0  0  0  0  0  0  0  0  0  0
   48.4964   14.8631   18.9566 H   0  0  0  0  0  0  0  0  0  0  0  0
   47.0421   10.0987   22.0671 H   0  0  0  0  0  0  0  0  0  0  0  0
   47.8068    8.8754   19.3533 H   0  0  0  0  0  0  0  0  0  0  0  0
   48.9464    9.1458   20.6907 H   0  0  0  0  0  0  0  0  0  0  0  0
   49.4401   15.1910   20.9916 H   0  0  0  0  0  0  0  0  0  0  0  0
   46.7604   12.6376   16.8576 H   0  0  0  0  0  0  0  0  0  0  0  0
   45.1344   10.6002   20.8587 H   0  0  0  0  0  0  0  0  0  0  0  0
   50.1096    5.5785   20.1326 H   0  0  0  0  0  0  0  0  0  0  0  0
   50.0060    7.2861   19.7093 H   0  0  0  0  0  0  0  0  0  0  0  0
   50.0697    6.7972   21.4136 H   0  0  0  0  0  0  0  0  0  0  0  0
   48.1578    4.3232   21.0450 H   0  0  0  0  0  0  0  0  0  0  0  0
   46.6544    5.1492   21.4611 H   0  0  0  0  0  0  0  0  0  0  0  0
   48.1167    5.4336   22.4195 H   0  0  0  0  0  0  0  0  0  0  0  0
   46.4916    6.0632   19.0655 H   0  0  0  0  0  0  0  0  0  0  0  0
   47.9722    5.1787   18.6896 H   0  0  0  0  0  0  0  0  0  0  0  0
   47.8697    6.9013   18.3366 H   0  0  0  0  0  0  0  0  0  0  0  0
  2  1  2  0
  3  1  1  0
  4 10  1  0
  5  3  2  0
  6  2  1  0
  7  5  1  0
  8  1  1  0
  9  4  1  0
 10  8  1  0
 11  5  1  0
 12  6  1  0
 13  8  1  0
 14  9  1  0
 15  9  1  0
 16  9  1  0
  6  7  2  0
 18 17  1  0
 19 17  1  0
 20 17  2  0
 21 17  2  0
 23 22  2  0
 24 22  1  0
 25 31  1  0
 26 24  2  0
 27 23  1  0
 28 26  1  0
 29 22  1  0
 30 25  1  0
 31 29  1  0
 32 26  1  0
 33 27  1  0
 34 29  1  0
 35 30  1  0
 36 30  1  0
 37 30  1  0
 27 28  2  0
  2 38  1  0
  3 39  1  0
  4 40  1  0
  7 41  1  0
  8 42  1  6
 10 43  1  0
 10 44  1  0
 11 45  1  0
 12 46  1  0
 13 47  1  0
 14 48  1  0
 14 49  1  0
 14 50  1  0
 15 51  1  0
 15 52  1  0
 15 53  1  0
 16 54  1  0
 16 55  1  0
 16 56  1  0
 18 57  1  0
 19 58  1  0
 23 59  1  0
 24 60  1  0
 25 61  1  0
 28 62  1  0
 29 63  1  6
 31 64  1  0
 31 65  1  0
 32 66  1  0
 33 67  1  0
 34 68  1  0
 35 69  1  0
 35 70  1  0
 35 71  1  0
 36 72  1  0
 36 73  1  0
 36 74  1  0
 37 75  1  0
 37 76  1  0
 37 77  1  0
M  END
> <Uni-Dock RESULT> 
ENERGY=   -5.821  LOWER_BOUND=    7.791  UPPER_BOUND=    9.153
INTER + INTRA:          -5.821
INTER:                  -5.821
INTRA:                   0.000
UNBOUND:                 0.000

$$$$

     RDKit          3D

 77 76  0  0  0  0  0  0  0  0999 V2000
   47.2883    7.4961   12.9874 C   0  0  0  0  0  0  0  0  0  0  0  0
   46.5923    6.3046   12.7186 C   0  0  0  0  0  0  0  0  0  0  0  0
   46.5996    8.7153   12.9025 C   0  0  0  0  0  0  0  0  0  0  0  0
   50.3343    6.8580   15.2581 N   0  0  0  0  0  0  0  0  0  0  0  0
   45.2550    8.7364   12.5420 C   0  0  0  0  0  0  0  0  0  0  0  0
   45.2471    6.3486   12.3579 C   0  0  0  0  0  0  0  0  0  0  0  0
   44.5696    7.5591   12.2650 C   0  0  0  0  0  0  0  0  0  0  0  0
   48.7469    7.4769   13.3905 C   0  0  1  0  0  0  0  0  0  0  0  0
   51.0814    7.9583   15.8835 C   0  0  0  0  0  0  0  0  0  0  0  0
   48.9335    7.1070   14.8848 C   0  0  0  0  0  0  0  0  0  0  0  0
   44.6379    9.9505   12.4722 O   0  0  0  0  0  0  0  0  0  0  0  0
   44.5492    5.2078   12.0853 O   0  0  0  0  0  0  0  0  0  0  0  0
   49.4655    6.5469   12.5691 O   0  0  0  0  0  0  0  0  0  0  0  0
   52.5433    7.4804   16.0019 C   0  0  0  0  0  0  0  0  0  0  0  0
   51.0634    9.2558   15.0612 C   0  0  0  0  0  0  0  0  0  0  0  0
   50.5490    8.2271   17.3030 C   0  0  0  0  0  0  0  0  0  0  0  0
   48.6207    7.4128   14.5298 S   0  0  0  0  0  0  0  0  0  0  0  0
   47.8647    8.2007   13.3544 O   0  0  0  0  0  0  0  0  0  0  0  0
   50.1453    7.8480   14.2806 O   0  0  0  0  0  0  0  0  0  0  0  0
   48.4734    6.0092   14.2379 O   0  0  0  0  0  0  0  0  0  0  0  0
   48.2094    8.0073   15.7769 O   0  0  0  0  0  0  0  0  0  0  0  0
   47.3859    6.6965   12.9668 C   0  0  0  0  0  0  0  0  0  0  0  0
   46.7815    7.7763   12.2993 C   0  0  0  0  0  0  0  0  0  0  0  0
   46.5980    5.5893   13.3151 C   0  0  0  0  0  0  0  0  0  0  0  0
   50.5611    7.6220   14.8954 N   0  0  0  0  0  0  0  0  0  0  0  0
   45.2439    5.5654   12.9937 C   0  0  0  0  0  0  0  0  0  0  0  0
   45.4244    7.7314   11.9884 C   0  0  0  0  0  0  0  0  0  0  0  0
   44.6477    6.6302   12.3275 C   0  0  0  0  0  0  0  0  0  0  0  0
   48.8555    6.7272   13.3308 C   0  0  2  0  0  0  0  0  0  0  0  0
   51.0031    8.6142   15.8899 C   0  0  0  0  0  0  0  0  0  0  0  0
   49.1320    7.6483   14.5456 C   0  0  0  0  0  0  0  0  0  0  0  0
   44.5264    4.4640   13.3586 O   0  0  0  0  0  0  0  0  0  0  0  0
   44.8118    8.7659   11.3434 O   0  0  0  0  0  0  0  0  0  0  0  0
   49.6147    7.1869   12.2019 O   0  0  0  0  0  0  0  0  0  0  0  0
   50.1544    8.5780   17.1714 C   0  0  0  0  0  0  0  0  0  0  0  0
   52.4510    8.2341   16.2536 C   0  0  0  0  0  0  0  0  0  0  0  0
   51.0064   10.0364   15.3022 C   0  0  0  0  0  0  0  0  0  0  0  0
   47.1129    5.3528   12.7964 H   0  0  0  0  0  0  0  0  0  0  0  0
   47.1031    9.6558   13.1158 H   0  0  0  0  0  0  0  0  0  0  0  0
   50.8159    6.5225   14.4163 H   0  0  0  0  0  0  0  0  0  0  0  0
   43.5223    7.5616   11.9837 H   0  0  0  0  0  0  0  0  0  0  0  0
   49.1892    8.4560   13.1880 H   0  0  0  0  0  0  0  0  0  0  0  0
   48.4129    6.1592   15.0708 H   0  0  0  0  0  0  0  0  0  0  0  0
   48.4458    7.8466   15.5281 H   0  0  0  0  0  0  0  0  0  0  0  0
   43.7315    9.8160   12.1479 H   0  0  0  0  0  0  0  0  0  0  0  0
   45.1434    4.4455   12.1937 H   0  0  0  0  0  0  0  0  0  0  0  0
   49.1879    6.7164   11.6521 H   0  0  0  0  0  0  0  0  0  0  0  0
   52.9866    7.2937   15.0162 H   0  0  0  0  0  0  0  0  0  0  0  0
   53.1646    8.2313   16.5036 H   0  0  0  0  0  0  0  0  0  0  0  0
   52.6144    6.5520   16.5828 H   0  0  0  0  0  0  0  0  0  0  0  0
   50.0590    9.6923   15.0116 H   0  0  0  0  0  0  0  0  0  0  0  0
   51.4171    9.0867   14.0371 H   0  0  0  0  0  0  0  0  0  0  0  0
   51.7195   10.0112   15.5113 H   0  0  0  0  0  0  0  0  0  0  0  0
   50.5523    7.3120   17.9081 H   0  0  0  0  0  0  0  0  0  0  0  0
   51.1741    8.9634   17.8225 H   0  0  0  0  0  0  0  0  0  0  0  0
   49.5264    8.6194   17.2980 H   0  0  0  0  0  0  0  0  0  0  0  0
   47.1366    7.6217   13.0411 H   0  0  0  0  0  0  0  0  0  0  0  0
   50.2168    8.8049   14.4726 H   0  0  0  0  0  0  0  0  0  0  0  0
   47.3825    8.6413   12.0300 H   0  0  0  0  0  0  0  0  0  0  0  0
   47.0299    4.7414   13.8430 H   0  0  0  0  0  0  0  0  0  0  0  0
   51.0909    7.7408   14.0257 H   0  0  0  0  0  0  0  0  0  0  0  0
   43.5948    6.6222   12.0693 H   0  0  0  0  0  0  0  0  0  0  0  0
   49.2045    5.7098   13.5489 H   0  0  0  0  0  0  0  0  0  0  0  0
   48.8265    8.6688   14.2889 H   0  0  0  0  0  0  0  0  0  0  0  0
   48.5299    7.3101   15.3963 H   0  0  0  0  0  0  0  0  0  0  0  0
   43.5989    4.6056   13.1051 H   0  0  0  0  0  0  0  0  0  0  0  0
   45.4633    9.4738   11.2037 H   0  0  0  0  0  0  0  0  0  0  0  0
   49.3131    6.6585   11.4420 H   0  0  0  0  0  0  0  0  0  0  0  0
   50.5872    9.2226   17.9458 H   0  0  0  0  0  0  0  0  0  0  0  0
   49.1320    8.9298   16.9958 H   0  0  0  0  0  0  0  0  0  0  0  0
   50.0989    7.5624   17.5815 H   0  0  0  0  0  0  0  0  0  0  0  0
   52.8708    8.9318   16.9874 H   0  0  0  0  0  0  0  0  0  0  0  0
   53.1048    8.2534   15.3748 H   0  0  0  0  0  0  0  0  0  0  0  0
   52.5024    7.2292   16.6885 H   0  0  0  0  0  0  0  0  0  0  0  0
   51.6018   10.0863   14.3837 H   0  0  0  0  0  0  0  0  0  0  0  0
   51.4399   10.7519   16.0106 H   0  0  0  0  0  0  0  0  0  0  0  0
   49.9974   10.3886   15.0674 H   0  0  0  0  0  0  0  0  0  0  0  0
  2  1  2  0
  3  1  1  0
  4 10  1  0
  5  3  2  0
  6  2  1  0
  7  5  1  0
  8  1  1  0
  9  4  1  0
 10  8  1  0
 11  5  1  0
 12  6  1  0
 13  8  1  0
 14  9  1  0
 15  9  1  0
 16  9  1  0
  6  7  2  0
 18 17  1  0
 19 17  1  0
 20 17  2  0
 21 17  2  0
 23 22  2  0
 24 22  1  0
 25 31  1  0
 26 24  2  0
 27 23  1  0
 28 26  1  0
 29 22  1  0
 30 25  1  0
 31 29  1  0
 32 26  1  0
 33 27  1  0
 34 29  1  0
 35 30  1  0
 36 30  1  0
 37 30  1  0
 27 28  2  0
  2 38  1  0
  3 39  1  0
  4 40  1  0
  7 41  1  0
  8 42  1  6
 10 43  1  0
 10 44  1  0
 11 45  1  0
 12 46  1  0
 13 47  1  0
 14 48  1  0
 14 49  1  0
 14 50  1  0
 15 51  1  0
 15 52  1  0
 15 53  1  0
 16 54  1  0
 16 55  1  0
 16 56  1  0
 18 57  1  0
 19 58  1  0
 23 59  1  0
 24 60  1  0
 25 61  1  0
 28 62  1  0
 29 63  1  6
 31 64  1  0
 31 65  1  0
 32 66  1  0
 33 67  1  0
 34 68  1  0
 35 69  1  0
 35 70  1  0
 35 71  1  0
 36 72  1  0
 36 73  1  0
 36 74  1  0
 37 75  1  0
 37 76  1  0
 37 77  1  0
M  END
> <Uni-Dock RESULT> 
ENERGY=   -5.539  LOWER_BOUND=    3.114  UPPER_BOUND=    6.041
INTER + INTRA:          -5.539
INTER:                  -5.539
INTRA:                   0.000
UNBOUND:                 0.000

$$$$

     RDKit          3D

 77 76  0  0  0  0  0  0  0  0999 V2000
   43.6971   10.5730   11.1425 C   0  0  0  0  0  0  0  0  0  0  0  0
   44.7699   11.4718   11.0094 C   0  0  0  0  0  0  0  0  0  0  0  0
   43.8947    9.3863   11.8639 C   0  0  0  0  0  0  0  0  0  0  0  0
   40.3095   12.3701   10.7734 N   0  0  0  0  0  0  0  0  0  0  0  0
   45.1392    9.1043   12.4210 C   0  0  0  0  0  0  0  0  0  0  0  0
   46.0075   11.1692   11.5736 C   0  0  0  0  0  0  0  0  0  0  0  0
   46.2033    9.9876   12.2797 C   0  0  0  0  0  0  0  0  0  0  0  0
   42.3396   10.8807   10.5481 C   0  0  1  0  0  0  0  0  0  0  0  0
   39.0397   11.7115   11.1105 C   0  0  0  0  0  0  0  0  0  0  0  0
   41.5319   11.8735   11.4236 C   0  0  0  0  0  0  0  0  0  0  0  0
   45.2739    7.9344   13.1085 O   0  0  0  0  0  0  0  0  0  0  0  0
   47.0676   12.0206   11.4541 O   0  0  0  0  0  0  0  0  0  0  0  0
   42.4980   11.4184    9.2284 O   0  0  0  0  0  0  0  0  0  0  0  0
   37.9753   12.3084   10.1670 C   0  0  0  0  0  0  0  0  0  0  0  0
   39.0661   10.1891   10.9058 C   0  0  0  0  0  0  0  0  0  0  0  0
   38.6344   12.0409   12.5590 C   0  0  0  0  0  0  0  0  0  0  0  0
   41.8662   11.4205   11.4439 S   0  0  0  0  0  0  0  0  0  0  0  0
   42.8239   10.1446   11.2742 O   0  0  0  0  0  0  0  0  0  0  0  0
   40.6508   11.0434   10.4659 O   0  0  0  0  0  0  0  0  0  0  0  0
   42.5852   12.5435   10.8973 O   0  0  0  0  0  0  0  0  0  0  0  0
   41.3505   11.3925   12.7898 O   0  0  0  0  0  0  0  0  0  0  0  0
   43.8872   11.2901   10.8281 C   0  0  0  0  0  0  0  0  0  0  0  0
   44.3666    9.9837   11.0277 C   0  0  0  0  0  0  0  0  0  0  0  0
   44.6840   12.3725   11.2303 C   0  0  0  0  0  0  0  0  0  0  0  0
   40.0741   11.5451   10.5982 N   0  0  0  0  0  0  0  0  0  0  0  0
   45.9299   12.1472   11.8083 C   0  0  0  0  0  0  0  0  0  0  0  0
   45.6163    9.7815   11.6091 C   0  0  0  0  0  0  0  0  0  0  0  0
   46.4070   10.8554   11.9995 C   0  0  0  0  0  0  0  0  0  0  0  0
   42.5254   11.5371   10.2133 C   0  0  2  0  0  0  0  0  0  0  0  0
   38.8877   11.1188   11.3596 C   0  0  0  0  0  0  0  0  0  0  0  0
   41.3781   11.2565   11.2160 C   0  0  0  0  0  0  0  0  0  0  0  0
   46.6605   13.2371   12.1817 O   0  0  0  0  0  0  0  0  0  0  0  0
   46.1050    8.5247   11.8167 O   0  0  0  0  0  0  0  0  0  0  0  0
   42.3660   10.6968    9.0598 O   0  0  0  0  0  0  0  0  0  0  0  0
   38.9025   11.6374   12.8070 C   0  0  0  0  0  0  0  0  0  0  0  0
   37.6752   11.7327   10.6345 C   0  0  0  0  0  0  0  0  0  0  0  0
   38.7351    9.5875   11.3520 C   0  0  0  0  0  0  0  0  0  0  0  0
   44.6231   12.4019   10.4650 H   0  0  0  0  0  0  0  0  0  0  0  0
   43.0836    8.6737   11.9976 H   0  0  0  0  0  0  0  0  0  0  0  0
   40.4751   12.3461    9.7610 H   0  0  0  0  0  0  0  0  0  0  0  0
   47.1773    9.7805   12.7090 H   0  0  0  0  0  0  0  0  0  0  0  0
   41.7813    9.9489   10.4245 H   0  0  0  0  0  0  0  0  0  0  0  0
   42.1508   12.7638   11.5920 H   0  0  0  0  0  0  0  0  0  0  0  0
   41.3449   11.4482   12.4150 H   0  0  0  0  0  0  0  0  0  0  0  0
   46.2029    7.8429   13.3796 H   0  0  0  0  0  0  0  0  0  0  0  0
   46.7858   12.7995   10.9444 H   0  0  0  0  0  0  0  0  0  0  0  0
   43.1411   10.8478    8.7729 H   0  0  0  0  0  0  0  0  0  0  0  0
   38.1984   12.0855    9.1165 H   0  0  0  0  0  0  0  0  0  0  0  0
   36.9815   11.9001   10.3845 H   0  0  0  0  0  0  0  0  0  0  0  0
   37.9141   13.3991   10.2727 H   0  0  0  0  0  0  0  0  0  0  0  0
   39.7462    9.6956   11.6098 H   0  0  0  0  0  0  0  0  0  0  0  0
   39.3746    9.9268    9.8867 H   0  0  0  0  0  0  0  0  0  0  0  0
   38.0703    9.7573   11.0655 H   0  0  0  0  0  0  0  0  0  0  0  0
   38.6101   13.1246   12.7277 H   0  0  0  0  0  0  0  0  0  0  0  0
   37.6331   11.6537   12.7829 H   0  0  0  0  0  0  0  0  0  0  0  0
   39.3199   11.6048   13.2937 H   0  0  0  0  0  0  0  0  0  0  0  0
   43.7488   10.4713   11.3118 H   0  0  0  0  0  0  0  0  0  0  0  0
   40.1871   10.2725   10.8510 H   0  0  0  0  0  0  0  0  0  0  0  0
   43.7542    9.1381   10.7245 H   0  0  0  0  0  0  0  0  0  0  0  0
   44.3393   13.3967   11.1022 H   0  0  0  0  0  0  0  0  0  0  0  0
   40.0703   11.1048    9.6722 H   0  0  0  0  0  0  0  0  0  0  0  0
   47.3768   10.6671   12.4461 H   0  0  0  0  0  0  0  0  0  0  0  0
   42.4623   12.5730    9.8567 H   0  0  0  0  0  0  0  0  0  0  0  0
   41.4260   10.2045   11.5188 H   0  0  0  0  0  0  0  0  0  0  0  0
   41.5192   11.8799   12.1059 H   0  0  0  0  0  0  0  0  0  0  0  0
   47.4807   12.9265   12.6006 H   0  0  0  0  0  0  0  0  0  0  0  0
   45.4354    7.8804   11.5310 H   0  0  0  0  0  0  0  0  0  0  0  0
   43.1702   10.8190    8.5250 H   0  0  0  0  0  0  0  0  0  0  0  0
   37.9497   11.4274   13.3076 H   0  0  0  0  0  0  0  0  0  0  0  0
   39.6897   11.1640   13.4038 H   0  0  0  0  0  0  0  0  0  0  0  0
   39.0585   12.7225   12.8376 H   0  0  0  0  0  0  0  0  0  0  0  0
   36.7368   11.4565   11.1292 H   0  0  0  0  0  0  0  0  0  0  0  0
   37.6101   11.3878    9.5968 H   0  0  0  0  0  0  0  0  0  0  0  0
   37.7303   12.8275   10.6217 H   0  0  0  0  0  0  0  0  0  0  0  0
   38.7271    9.1933   10.3297 H   0  0  0  0  0  0  0  0  0  0  0  0
   37.7935    9.2854   11.8250 H   0  0  0  0  0  0  0  0  0  0  0  0
   39.5424    9.0893   11.8972 H   0  0  0  0  0  0  0  0  0  0  0  0
  2  1  2  0
  3  1  1  0
  4 10  1  0
  5  3  2  0
  6  2  1  0
  7  5  1  0
  8  1  1  0
  9  4  1  0
 10  8  1  0
 11  5  1  0
 12  6  1  0
 13  8  1  0
 14  9  1  0
 15  9  1  0
 16  9  1  0
  6  7  2  0
 18 17  1  0
 19 17  1  0
 20 17  2  0
 21 17  2  0
 23 22  2  0
 24 22  1  0
 25 31  1  0
 26 24  2  0
 27 23  1  0
 28 26  1  0
 29 22  1  0
 30 25  1  0
 31 29  1  0
 32 26  1  0
 33 27  1  0
 34 29  1  0
 35 30  1  0
 36 30  1  0
 37 30  1  0
 27 28  2  0
  2 38  1  0
  3 39  1  0
  4 40  1  0
  7 41  1  0
  8 42  1  6
 10 43  1  0
 10 44  1  0
 11 45  1  0
 12 46  1  0
 13 47  1  0
 14 48  1  0
 14 49  1  0
 14 50  1  0
 15 51  1  0
 15 52  1  0
 15 53  1  0
 16 54  1  0
 16 55  1  0
 16 56  1  0
 18 57  1  0
 19 58  1  0
 23 59  1  0
 24 60  1  0
 25 61  1  0
 28 62  1  0
 29 63  1  6
 31 64  1  0
 31 65  1  0
 32 66  1  0
 33 67  1  0
 34 68  1  0
 35 69  1  0
 35 70  1  0
 35 71  1  0
 36 72  1  0
 36 73  1  0
 36 74  1  0
 37 75  1  0
 37 76  1  0
 37 77  1  0
M  END
> <Uni-Dock RESULT> 
ENERGY=   -5.538  LOWER_BOUND=    4.810  UPPER_BOUND=    6.555
INTER + INTRA:          -5.538
INTER:                  -5.538
INTRA:                   0.000
UNBOUND:                 0.000

$$$$
