
     RDKit          3D

 77 76  0  0  0  0  0  0  0  0999 V2000
   47.8983    7.1027   13.5163 C   0  0  0  0  0  0  0  0  0  0  0  0
   47.7580    8.3790   14.0860 C   0  0  0  0  0  0  0  0  0  0  0  0
   48.8273    6.9297   12.4782 C   0  0  0  0  0  0  0  0  0  0  0  0
   45.8317    5.3699   11.8880 N   0  0  0  0  0  0  0  0  0  0  0  0
   49.5943    8.0073   12.0380 C   0  0  0  0  0  0  0  0  0  0  0  0
   48.5344    9.4420   13.6319 C   0  0  0  0  0  0  0  0  0  0  0  0
   49.4574    9.2667   12.6084 C   0  0  0  0  0  0  0  0  0  0  0  0
   47.0349    5.9621   14.0109 C   0  0  1  0  0  0  0  0  0  0  0  0
   44.6122    4.9396   11.1907 C   0  0  0  0  0  0  0  0  0  0  0  0
   45.6743    5.8484   13.2690 C   0  0  0  0  0  0  0  0  0  0  0  0
   50.5043    7.8617   11.0312 O   0  0  0  0  0  0  0  0  0  0  0  0
   48.3548   10.6571   14.2262 O   0  0  0  0  0  0  0  0  0  0  0  0
   47.7450    4.7179   13.9085 O   0  0  0  0  0  0  0  0  0  0  0  0
   43.5030    6.0022   11.2442 C   0  0  0  0  0  0  0  0  0  0  0  0
   45.0147    4.7270    9.7193 C   0  0  0  0  0  0  0  0  0  0  0  0
   44.0904    3.6057   11.7504 C   0  0  0  0  0  0  0  0  0  0  0  0
   46.4299    6.5737   11.9231 S   0  0  0  0  0  0  0  0  0  0  0  0
   45.4321    5.5630   12.6687 O   0  0  0  0  0  0  0  0  0  0  0  0
   47.7514    6.4216   12.8200 O   0  0  0  0  0  0  0  0  0  0  0  0
   46.6930    6.0035   10.6264 O   0  0  0  0  0  0  0  0  0  0  0  0
   45.9516    7.9173   12.1272 O   0  0  0  0  0  0  0  0  0  0  0  0
   47.8721    7.7493   13.1734 C   0  0  0  0  0  0  0  0  0  0  0  0
   48.7125    7.3601   14.2295 C   0  0  0  0  0  0  0  0  0  0  0  0
   48.4477    8.3367   12.0350 C   0  0  0  0  0  0  0  0  0  0  0  0
   44.4796    6.1373   12.4655 N   0  0  0  0  0  0  0  0  0  0  0  0
   49.8247    8.5251   11.9595 C   0  0  0  0  0  0  0  0  0  0  0  0
   50.0891    7.5620   14.1349 C   0  0  0  0  0  0  0  0  0  0  0  0
   50.6551    8.1396   13.0046 C   0  0  0  0  0  0  0  0  0  0  0  0
   46.3832    7.5027   13.2538 C   0  0  2  0  0  0  0  0  0  0  0  0
   43.9090    5.0607   11.6304 C   0  0  0  0  0  0  0  0  0  0  0  0
   45.9506    6.2672   12.4233 C   0  0  0  0  0  0  0  0  0  0  0  0
   50.3279    9.0957   10.8272 O   0  0  0  0  0  0  0  0  0  0  0  0
   50.9296    7.1972   15.1463 O   0  0  0  0  0  0  0  0  0  0  0  0
   45.6718    8.6536   12.7880 O   0  0  0  0  0  0  0  0  0  0  0  0
   44.1891    5.2872   10.1358 C   0  0  0  0  0  0  0  0  0  0  0  0
   44.4135    3.6723   12.0560 C   0  0  0  0  0  0  0  0  0  0  0  0
   42.3841    5.1143   11.8487 C   0  0  0  0  0  0  0  0  0  0  0  0
   47.0438    8.5539   14.8867 H   0  0  0  0  0  0  0  0  0  0  0  0
   48.9381    5.9492   12.0239 H   0  0  0  0  0  0  0  0  0  0  0  0
   46.5419    4.6351   11.8720 H   0  0  0  0  0  0  0  0  0  0  0  0
   50.0680   10.0851   12.2444 H   0  0  0  0  0  0  0  0  0  0  0  0
   46.8422    6.1150   15.0803 H   0  0  0  0  0  0  0  0  0  0  0  0
   45.0661    5.1333   13.8330 H   0  0  0  0  0  0  0  0  0  0  0  0
   45.1657    6.8184   13.2831 H   0  0  0  0  0  0  0  0  0  0  0  0
   50.4686    6.9398   10.7255 H   0  0  0  0  0  0  0  0  0  0  0  0
   48.9594   11.2916   13.8063 H   0  0  0  0  0  0  0  0  0  0  0  0
   47.1850    4.0453   14.3300 H   0  0  0  0  0  0  0  0  0  0  0  0
   43.8637    6.9727   10.8845 H   0  0  0  0  0  0  0  0  0  0  0  0
   42.6536    5.7134   10.6141 H   0  0  0  0  0  0  0  0  0  0  0  0
   43.1173    6.1396   12.2603 H   0  0  0  0  0  0  0  0  0  0  0  0
   45.3959    5.6524    9.2713 H   0  0  0  0  0  0  0  0  0  0  0  0
   44.1583    4.3988    9.1187 H   0  0  0  0  0  0  0  0  0  0  0  0
   45.7952    3.9627    9.6218 H   0  0  0  0  0  0  0  0  0  0  0  0
   44.8723    2.8374   11.7453 H   0  0  0  0  0  0  0  0  0  0  0  0
   43.2565    3.2283   11.1470 H   0  0  0  0  0  0  0  0  0  0  0  0
   43.7255    3.7051   12.7779 H   0  0  0  0  0  0  0  0  0  0  0  0
   45.5868    4.6728   12.2902 H   0  0  0  0  0  0  0  0  0  0  0  0
   47.6657    7.0473   13.5689 H   0  0  0  0  0  0  0  0  0  0  0  0
   48.2854    6.9037   15.1175 H   0  0  0  0  0  0  0  0  0  0  0  0
   47.8192    8.6564   11.2063 H   0  0  0  0  0  0  0  0  0  0  0  0
   44.1932    5.9885   13.4352 H   0  0  0  0  0  0  0  0  0  0  0  0
   51.7291    8.2811   12.9591 H   0  0  0  0  0  0  0  0  0  0  0  0
   46.0882    7.3623   14.3011 H   0  0  0  0  0  0  0  0  0  0  0  0
   46.2760    6.4127   11.3881 H   0  0  0  0  0  0  0  0  0  0  0  0
   46.4412    5.3720   12.8199 H   0  0  0  0  0  0  0  0  0  0  0  0
   51.2873    9.1992   10.9365 H   0  0  0  0  0  0  0  0  0  0  0  0
   50.3983    6.8700   15.8904 H   0  0  0  0  0  0  0  0  0  0  0  0
   44.8132    8.3003   12.4792 H   0  0  0  0  0  0  0  0  0  0  0  0
   43.6282    4.5737    9.5206 H   0  0  0  0  0  0  0  0  0  0  0  0
   43.8912    6.2947    9.8231 H   0  0  0  0  0  0  0  0  0  0  0  0
   45.2481    5.1555    9.8901 H   0  0  0  0  0  0  0  0  0  0  0  0
   44.2580    3.5024   13.1277 H   0  0  0  0  0  0  0  0  0  0  0  0
   45.4804    3.5422   11.8449 H   0  0  0  0  0  0  0  0  0  0  0  0
   43.8800    2.8803   11.5174 H   0  0  0  0  0  0  0  0  0  0  0  0
   41.8722    4.3485   11.2542 H   0  0  0  0  0  0  0  0  0  0  0  0
   42.1217    4.9426   12.8996 H   0  0  0  0  0  0  0  0  0  0  0  0
   41.9722    6.0877   11.5562 H   0  0  0  0  0  0  0  0  0  0  0  0
  2  1  2  0
  3  1  1  0
  4 10  1  0
  5  3  2  0
  6  2  1  0
  7  5  1  0
  8  1  1  0
  9  4  1  0
 10  8  1  0
 11  5  1  0
 12  6  1  0
 13  8  1  0
 14  9  1  0
 15  9  1  0
 16  9  1  0
  6  7  2  0
 18 17  1  0
 19 17  1  0
 20 17  2  0
 21 17  2  0
 23 22  2  0
 24 22  1  0
 25 31  1  0
 26 24  2  0
 27 23  1  0
 28 26  1  0
 29 22  1  0
 30 25  1  0
 31 29  1  0
 32 26  1  0
 33 27  1  0
 34 29  1  0
 35 30  1  0
 36 30  1  0
 37 30  1  0
 27 28  2  0
  2 38  1  0
  3 39  1  0
  4 40  1  0
  7 41  1  0
  8 42  1  1
 10 43  1  0
 10 44  1  0
 11 45  1  0
 12 46  1  0
 13 47  1  0
 14 48  1  0
 14 49  1  0
 14 50  1  0
 15 51  1  0
 15 52  1  0
 15 53  1  0
 16 54  1  0
 16 55  1  0
 16 56  1  0
 18 57  1  0
 19 58  1  0
 23 59  1  0
 24 60  1  0
 25 61  1  0
 28 62  1  0
 29 63  1  1
 31 64  1  0
 31 65  1  0
 32 66  1  0
 33 67  1  0
 34 68  1  0
 35 69  1  0
 35 70  1  0
 35 71  1  0
 36 72  1  0
 36 73  1  0
 36 74  1  0
 37 75  1  0
 37 76  1  0
 37 77  1  0
M  END
> <Uni-Dock RESULT> 
ENERGY=   -5.938  LOWER_BOUND=    0.000  UPPER_BOUND=    0.000
INTER + INTRA:          -5.938
INTER:                  -5.938
INTRA:                   0.000
UNBOUND:                 0.000

$$$$

     RDKit          3D

 77 76  0  0  0  0  0  0  0  0999 V2000
   45.2387    6.4515   12.3936 C   0  0  0  0  0  0  0  0  0  0  0  0
   44.8815    5.3018   13.1175 C   0  0  0  0  0  0  0  0  0  0  0  0
   45.3055    6.3692   10.9939 C   0  0  0  0  0  0  0  0  0  0  0  0
   47.9347    8.0814   12.3762 N   0  0  0  0  0  0  0  0  0  0  0  0
   45.0121    5.1691   10.3480 C   0  0  0  0  0  0  0  0  0  0  0  0
   44.5918    4.1130   12.4528 C   0  0  0  0  0  0  0  0  0  0  0  0
   44.6528    4.0360   11.0670 C   0  0  0  0  0  0  0  0  0  0  0  0
   45.5662    7.7311   13.1328 C   0  0  1  0  0  0  0  0  0  0  0  0
   49.3137    8.5035   12.6562 C   0  0  0  0  0  0  0  0  0  0  0  0
   47.0623    7.8479   13.5361 C   0  0  0  0  0  0  0  0  0  0  0  0
   45.0694    5.0667    8.9882 O   0  0  0  0  0  0  0  0  0  0  0  0
   44.2485    3.0311   13.2101 O   0  0  0  0  0  0  0  0  0  0  0  0
   45.1884    8.8721   12.3468 O   0  0  0  0  0  0  0  0  0  0  0  0
   50.0198    7.5696   13.6519 C   0  0  0  0  0  0  0  0  0  0  0  0
   50.0611    8.4387   11.3111 C   0  0  0  0  0  0  0  0  0  0  0  0
   49.3605    9.9523   13.1698 C   0  0  0  0  0  0  0  0  0  0  0  0
   47.4249    6.8492   12.2021 S   0  0  0  0  0  0  0  0  0  0  0  0
   47.6674    8.0539   13.2332 O   0  0  0  0  0  0  0  0  0  0  0  0
   45.8615    7.0221   11.8867 O   0  0  0  0  0  0  0  0  0  0  0  0
   48.1673    7.1766   11.0116 O   0  0  0  0  0  0  0  0  0  0  0  0
   47.5611    5.6056   12.9165 O   0  0  0  0  0  0  0  0  0  0  0  0
   45.4657    5.7632   12.2879 C   0  0  0  0  0  0  0  0  0  0  0  0
   44.1469    6.2389   12.3743 C   0  0  0  0  0  0  0  0  0  0  0  0
   45.8191    4.9500   11.1988 C   0  0  0  0  0  0  0  0  0  0  0  0
   48.4635    7.5441   13.8535 N   0  0  0  0  0  0  0  0  0  0  0  0
   44.8774    4.6266   10.2264 C   0  0  0  0  0  0  0  0  0  0  0  0
   43.2180    5.8992   11.3913 C   0  0  0  0  0  0  0  0  0  0  0  0
   43.5731    5.0977   10.3128 C   0  0  0  0  0  0  0  0  0  0  0  0
   46.4869    6.1549   13.3309 C   0  0  2  0  0  0  0  0  0  0  0  0
   49.5049    8.5197   13.4722 C   0  0  0  0  0  0  0  0  0  0  0  0
   47.4339    7.2748   12.8287 C   0  0  0  0  0  0  0  0  0  0  0  0
   45.2792    3.8374    9.1887 O   0  0  0  0  0  0  0  0  0  0  0  0
   41.9290    6.3435   11.4508 O   0  0  0  0  0  0  0  0  0  0  0  0
   47.2660    5.0140   13.7039 O   0  0  0  0  0  0  0  0  0  0  0  0
   50.3351    8.0308   12.2742 C   0  0  0  0  0  0  0  0  0  0  0  0
   48.9132    9.9065   13.1716 C   0  0  0  0  0  0  0  0  0  0  0  0
   50.4415    8.6419   14.6902 C   0  0  0  0  0  0  0  0  0  0  0  0
   44.8264    5.3243   14.2029 H   0  0  0  0  0  0  0  0  0  0  0  0
   45.5893    7.2495   10.4240 H   0  0  0  0  0  0  0  0  0  0  0  0
   47.4724    8.7358   11.7417 H   0  0  0  0  0  0  0  0  0  0  0  0
   44.4306    3.1172   10.5364 H   0  0  0  0  0  0  0  0  0  0  0  0
   44.9517    7.7707   14.0411 H   0  0  0  0  0  0  0  0  0  0  0  0
   47.1385    8.6972   14.2234 H   0  0  0  0  0  0  0  0  0  0  0  0
   47.3703    6.9436   14.0718 H   0  0  0  0  0  0  0  0  0  0  0  0
   45.3517    5.9267    8.6342 H   0  0  0  0  0  0  0  0  0  0  0  0
   44.0782    2.2846   12.6116 H   0  0  0  0  0  0  0  0  0  0  0  0
   45.3274    9.6523   12.9087 H   0  0  0  0  0  0  0  0  0  0  0  0
   49.9662    6.5249   13.3246 H   0  0  0  0  0  0  0  0  0  0  0  0
   51.0805    7.8297   13.7479 H   0  0  0  0  0  0  0  0  0  0  0  0
   49.5813    7.6335   14.6537 H   0  0  0  0  0  0  0  0  0  0  0  0
   50.0565    7.4222   10.8997 H   0  0  0  0  0  0  0  0  0  0  0  0
   51.1081    8.7428   11.4255 H   0  0  0  0  0  0  0  0  0  0  0  0
   49.6068    9.1025   10.5657 H   0  0  0  0  0  0  0  0  0  0  0  0
   48.8410   10.6349   12.4873 H   0  0  0  0  0  0  0  0  0  0  0  0
   50.3957   10.3023   13.2580 H   0  0  0  0  0  0  0  0  0  0  0  0
   48.9009   10.0534   14.1585 H   0  0  0  0  0  0  0  0  0  0  0  0
   47.8628    8.8536   12.7021 H   0  0  0  0  0  0  0  0  0  0  0  0
   45.3712    6.5357   12.5816 H   0  0  0  0  0  0  0  0  0  0  0  0
   43.8554    6.8695   13.2091 H   0  0  0  0  0  0  0  0  0  0  0  0
   46.8312    4.5600   11.1121 H   0  0  0  0  0  0  0  0  0  0  0  0
   47.9998    7.8726   14.7029 H   0  0  0  0  0  0  0  0  0  0  0  0
   42.8295    4.8529    9.5626 H   0  0  0  0  0  0  0  0  0  0  0  0
   45.9749    6.4885   14.2419 H   0  0  0  0  0  0  0  0  0  0  0  0
   47.9156    6.9354   11.9059 H   0  0  0  0  0  0  0  0  0  0  0  0
   46.8490    8.1735   12.6059 H   0  0  0  0  0  0  0  0  0  0  0  0
   44.5115    3.6655    8.6193 H   0  0  0  0  0  0  0  0  0  0  0  0
   41.8062    6.8336   12.2802 H   0  0  0  0  0  0  0  0  0  0  0  0
   48.1124    5.3902   14.0194 H   0  0  0  0  0  0  0  0  0  0  0  0
   51.1992    8.6843   12.1048 H   0  0  0  0  0  0  0  0  0  0  0  0
   50.7184    7.0177   12.4422 H   0  0  0  0  0  0  0  0  0  0  0  0
   49.7547    8.0237   11.3456 H   0  0  0  0  0  0  0  0  0  0  0  0
   48.2858   10.2602   13.9979 H   0  0  0  0  0  0  0  0  0  0  0  0
   48.3029    9.9026   12.2621 H   0  0  0  0  0  0  0  0  0  0  0  0
   49.7079   10.6469   13.0227 H   0  0  0  0  0  0  0  0  0  0  0  0
   51.2585    9.3456   14.4920 H   0  0  0  0  0  0  0  0  0  0  0  0
   49.9052    9.0038   15.5756 H   0  0  0  0  0  0  0  0  0  0  0  0
   50.8938    7.6760   14.9452 H   0  0  0  0  0  0  0  0  0  0  0  0
  2  1  2  0
  3  1  1  0
  4 10  1  0
  5  3  2  0
  6  2  1  0
  7  5  1  0
  8  1  1  0
  9  4  1  0
 10  8  1  0
 11  5  1  0
 12  6  1  0
 13  8  1  0
 14  9  1  0
 15  9  1  0
 16  9  1  0
  6  7  2  0
 18 17  1  0
 19 17  1  0
 20 17  2  0
 21 17  2  0
 23 22  2  0
 24 22  1  0
 25 31  1  0
 26 24  2  0
 27 23  1  0
 28 26  1  0
 29 22  1  0
 30 25  1  0
 31 29  1  0
 32 26  1  0
 33 27  1  0
 34 29  1  0
 35 30  1  0
 36 30  1  0
 37 30  1  0
 27 28  2  0
  2 38  1  0
  3 39  1  0
  4 40  1  0
  7 41  1  0
  8 42  1  1
 10 43  1  0
 10 44  1  0
 11 45  1  0
 12 46  1  0
 13 47  1  0
 14 48  1  0
 14 49  1  0
 14 50  1  0
 15 51  1  0
 15 52  1  0
 15 53  1  0
 16 54  1  0
 16 55  1  0
 16 56  1  0
 18 57  1  0
 19 58  1  0
 23 59  1  0
 24 60  1  0
 25 61  1  0
 28 62  1  0
 29 63  1  1
 31 64  1  0
 31 65  1  0
 32 66  1  0
 33 67  1  0
 34 68  1  0
 35 69  1  0
 35 70  1  0
 35 71  1  0
 36 72  1  0
 36 73  1  0
 36 74  1  0
 37 75  1  0
 37 76  1  0
 37 77  1  0
M  END
> <Uni-Dock RESULT> 
ENERGY=   -5.131  LOWER_BOUND=    1.599  UPPER_BOUND=    5.758
INTER + INTRA:          -5.131
INTER:                  -5.131
INTRA:                   0.000
UNBOUND:                 0.000

$$$$

     RDKit          3D

 77 76  0  0  0  0  0  0  0  0999 V2000
   49.5929    4.9077   19.0014 C   0  0  0  0  0  0  0  0  0  0  0  0
   49.4847    5.6651   17.8233 C   0  0  0  0  0  0  0  0  0  0  0  0
   48.7982    3.7583   19.1353 C   0  0  0  0  0  0  0  0  0  0  0  0
   48.8974    5.6742   21.9769 N   0  0  0  0  0  0  0  0  0  0  0  0
   47.9314    3.3826   18.1102 C   0  0  0  0  0  0  0  0  0  0  0  0
   48.6130    5.2721   16.8111 C   0  0  0  0  0  0  0  0  0  0  0  0
   47.8320    4.1308   16.9437 C   0  0  0  0  0  0  0  0  0  0  0  0
   50.5334    5.3581   20.0984 C   0  0  1  0  0  0  0  0  0  0  0  0
   48.4387    6.4200   23.1566 C   0  0  0  0  0  0  0  0  0  0  0  0
   49.8801    6.3403   21.1099 C   0  0  0  0  0  0  0  0  0  0  0  0
   47.1506    2.2684   18.2184 O   0  0  0  0  0  0  0  0  0  0  0  0
   48.5538    6.0470   15.6895 O   0  0  0  0  0  0  0  0  0  0  0  0
   51.0603    4.2221   20.8016 O   0  0  0  0  0  0  0  0  0  0  0  0
   47.9388    7.8287   22.7992 C   0  0  0  0  0  0  0  0  0  0  0  0
   47.2605    5.6161   23.7379 C   0  0  0  0  0  0  0  0  0  0  0  0
   49.5417    6.5083   24.2246 C   0  0  0  0  0  0  0  0  0  0  0  0
   48.3825    5.6149   20.7360 S   0  0  0  0  0  0  0  0  0  0  0  0
   49.4772    6.2971   21.6898 O   0  0  0  0  0  0  0  0  0  0  0  0
   49.2965    4.6035   19.8902 O   0  0  0  0  0  0  0  0  0  0  0  0
   47.5217    4.8405   21.5933 O   0  0  0  0  0  0  0  0  0  0  0  0
   47.9073    6.6083   19.8071 O   0  0  0  0  0  0  0  0  0  0  0  0
   48.9841    5.0953   18.6400 C   0  0  0  0  0  0  0  0  0  0  0  0
   50.1311    4.4595   18.1370 C   0  0  0  0  0  0  0  0  0  0  0  0
   47.7272    4.5281   18.3735 C   0  0  0  0  0  0  0  0  0  0  0  0
   48.9886    7.3148   21.7517 N   0  0  0  0  0  0  0  0  0  0  0  0
   47.6265    3.3579   17.6267 C   0  0  0  0  0  0  0  0  0  0  0  0
   50.0073    3.2901   17.3874 C   0  0  0  0  0  0  0  0  0  0  0  0
   48.7618    2.7298   17.1297 C   0  0  0  0  0  0  0  0  0  0  0  0
   49.1122    6.3437   19.4820 C   0  0  2  0  0  0  0  0  0  0  0  0
   48.7403    7.2006   23.2033 C   0  0  0  0  0  0  0  0  0  0  0  0
   48.9486    6.0467   20.9947 C   0  0  0  0  0  0  0  0  0  0  0  0
   46.3801    2.8502   17.4040 O   0  0  0  0  0  0  0  0  0  0  0  0
   51.1035    2.6526   16.8830 O   0  0  0  0  0  0  0  0  0  0  0  0
   48.1292    7.3043   19.0836 O   0  0  0  0  0  0  0  0  0  0  0  0
   47.3290    6.6690   23.5018 C   0  0  0  0  0  0  0  0  0  0  0  0
   49.7920    6.3224   23.9006 C   0  0  0  0  0  0  0  0  0  0  0  0
   48.8463    8.6308   23.7680 C   0  0  0  0  0  0  0  0  0  0  0  0
   50.0781    6.5656   17.6861 H   0  0  0  0  0  0  0  0  0  0  0  0
   48.8668    3.1695   20.0457 H   0  0  0  0  0  0  0  0  0  0  0  0
   49.2594    4.7557   22.2415 H   0  0  0  0  0  0  0  0  0  0  0  0
   47.1488    3.8132   16.1644 H   0  0  0  0  0  0  0  0  0  0  0  0
   51.3945    5.8530   19.6318 H   0  0  0  0  0  0  0  0  0  0  0  0
   50.6906    6.7450   21.7253 H   0  0  0  0  0  0  0  0  0  0  0  0
   49.4132    7.1696   20.5677 H   0  0  0  0  0  0  0  0  0  0  0  0
   47.3164    1.8693   19.0890 H   0  0  0  0  0  0  0  0  0  0  0  0
   47.9082    5.6501   15.0812 H   0  0  0  0  0  0  0  0  0  0  0  0
   51.7272    4.5651   21.4191 H   0  0  0  0  0  0  0  0  0  0  0  0
   47.1773    7.7930   22.0116 H   0  0  0  0  0  0  0  0  0  0  0  0
   47.4870    8.3165   23.6709 H   0  0  0  0  0  0  0  0  0  0  0  0
   48.7526    8.4760   22.4545 H   0  0  0  0  0  0  0  0  0  0  0  0
   46.4435    5.5230   23.0124 H   0  0  0  0  0  0  0  0  0  0  0  0
   46.8530    6.1024   24.6319 H   0  0  0  0  0  0  0  0  0  0  0  0
   47.5675    4.6037   24.0268 H   0  0  0  0  0  0  0  0  0  0  0  0
   49.9319    5.5160   24.4787 H   0  0  0  0  0  0  0  0  0  0  0  0
   49.1560    6.9550   25.1486 H   0  0  0  0  0  0  0  0  0  0  0  0
   50.3844    7.1253   23.8958 H   0  0  0  0  0  0  0  0  0  0  0  0
   49.5715    5.7229   22.4778 H   0  0  0  0  0  0  0  0  0  0  0  0
   49.6561    5.1061   19.1300 H   0  0  0  0  0  0  0  0  0  0  0  0
   51.1116    4.8831   18.3335 H   0  0  0  0  0  0  0  0  0  0  0  0
   46.8216    5.0050   18.7429 H   0  0  0  0  0  0  0  0  0  0  0  0
   49.9010    7.7521   21.6071 H   0  0  0  0  0  0  0  0  0  0  0  0
   48.6976    1.8182   16.5461 H   0  0  0  0  0  0  0  0  0  0  0  0
   50.0885    6.8110   19.3034 H   0  0  0  0  0  0  0  0  0  0  0  0
   47.9817    5.5574   21.1507 H   0  0  0  0  0  0  0  0  0  0  0  0
   49.7408    5.3638   21.3194 H   0  0  0  0  0  0  0  0  0  0  0  0
   46.4656    2.0643   16.8400 H   0  0  0  0  0  0  0  0  0  0  0  0
   51.8920    3.1830   17.0830 H   0  0  0  0  0  0  0  0  0  0  0  0
   47.9904    7.8551   19.8804 H   0  0  0  0  0  0  0  0  0  0  0  0
   47.1028    6.7405   24.5724 H   0  0  0  0  0  0  0  0  0  0  0  0
   46.5651    7.2446   22.9663 H   0  0  0  0  0  0  0  0  0  0  0  0
   47.2173    5.6160   23.2227 H   0  0  0  0  0  0  0  0  0  0  0  0
   50.8093    6.6604   23.6718 H   0  0  0  0  0  0  0  0  0  0  0  0
   49.7104    5.2716   23.6025 H   0  0  0  0  0  0  0  0  0  0  0  0
   49.6715    6.3582   24.9897 H   0  0  0  0  0  0  0  0  0  0  0  0
   48.6651    8.6437   24.8492 H   0  0  0  0  0  0  0  0  0  0  0  0
   49.8419    9.0581   23.5978 H   0  0  0  0  0  0  0  0  0  0  0  0
   48.1118    9.2997   23.3033 H   0  0  0  0  0  0  0  0  0  0  0  0
  2  1  2  0
  3  1  1  0
  4 10  1  0
  5  3  2  0
  6  2  1  0
  7  5  1  0
  8  1  1  0
  9  4  1  0
 10  8  1  0
 11  5  1  0
 12  6  1  0
 13  8  1  0
 14  9  1  0
 15  9  1  0
 16  9  1  0
  6  7  2  0
 18 17  1  0
 19 17  1  0
 20 17  2  0
 21 17  2  0
 23 22  2  0
 24 22  1  0
 25 31  1  0
 26 24  2  0
 27 23  1  0
 28 26  1  0
 29 22  1  0
 30 25  1  0
 31 29  1  0
 32 26  1  0
 33 27  1  0
 34 29  1  0
 35 30  1  0
 36 30  1  0
 37 30  1  0
 27 28  2  0
  2 38  1  0
  3 39  1  0
  4 40  1  0
  7 41  1  0
  8 42  1  1
 10 43  1  0
 10 44  1  0
 11 45  1  0
 12 46  1  0
 13 47  1  0
 14 48  1  0
 14 49  1  0
 14 50  1  0
 15 51  1  0
 15 52  1  0
 15 53  1  0
 16 54  1  0
 16 55  1  0
 16 56  1  0
 18 57  1  0
 19 58  1  0
 23 59  1  0
 24 60  1  0
 25 61  1  0
 28 62  1  0
 29 63  1  1
 31 64  1  0
 31 65  1  0
 32 66  1  0
 33 67  1  0
 34 68  1  0
 35 69  1  0
 35 70  1  0
 35 71  1  0
 36 72  1  0
 36 73  1  0
 36 74  1  0
 37 75  1  0
 37 76  1  0
 37 77  1  0
M  END
> <Uni-Dock RESULT> 
ENERGY=   -4.967  LOWER_BOUND=    6.876  UPPER_BOUND=    9.298
INTER + INTRA:          -4.967
INTER:                  -4.967
INTRA:                   0.000
UNBOUND:                 0.000

$$$$

     RDKit          3D

 77 76  0  0  0  0  0  0  0  0999 V2000
   47.4007    8.4975   13.0228 C   0  0  0  0  0  0  0  0  0  0  0  0
   48.5881    8.6969   12.2991 C   0  0  0  0  0  0  0  0  0  0  0  0
   47.4922    8.0919   14.3636 C   0  0  0  0  0  0  0  0  0  0  0  0
   45.0941    6.3945   12.5964 N   0  0  0  0  0  0  0  0  0  0  0  0
   48.7406    7.9036   14.9547 C   0  0  0  0  0  0  0  0  0  0  0  0
   49.8250    8.5037   12.9087 C   0  0  0  0  0  0  0  0  0  0  0  0
   49.9128    8.1081   14.2376 C   0  0  0  0  0  0  0  0  0  0  0  0
   46.0645    8.6962   12.3401 C   0  0  1  0  0  0  0  0  0  0  0  0
   44.3035    5.2771   12.0628 C   0  0  0  0  0  0  0  0  0  0  0  0
   45.5325    7.4173   11.6358 C   0  0  0  0  0  0  0  0  0  0  0  0
   48.8532    7.5108   16.2570 O   0  0  0  0  0  0  0  0  0  0  0  0
   50.9427    8.7154   12.1551 O   0  0  0  0  0  0  0  0  0  0  0  0
   45.0885    9.1692   13.2816 O   0  0  0  0  0  0  0  0  0  0  0  0
   44.9855    4.5989   10.8641 C   0  0  0  0  0  0  0  0  0  0  0  0
   44.1901    4.2508   13.2056 C   0  0  0  0  0  0  0  0  0  0  0  0
   42.8866    5.7314   11.6742 C   0  0  0  0  0  0  0  0  0  0  0  0
   46.4224    6.5090   12.7724 S   0  0  0  0  0  0  0  0  0  0  0  0
   45.1750    6.8346   11.8177 O   0  0  0  0  0  0  0  0  0  0  0  0
   46.6923    7.9472   13.4299 O   0  0  0  0  0  0  0  0  0  0  0  0
   45.9299    5.6257   13.7986 O   0  0  0  0  0  0  0  0  0  0  0  0
   47.5648    6.2190   11.9439 O   0  0  0  0  0  0  0  0  0  0  0  0
   48.0024    8.0799   13.0193 C   0  0  0  0  0  0  0  0  0  0  0  0
   47.9053    9.4606   13.2585 C   0  0  0  0  0  0  0  0  0  0  0  0
   48.7110    7.2852   13.9350 C   0  0  0  0  0  0  0  0  0  0  0  0
   45.4329    6.0972   11.0004 N   0  0  0  0  0  0  0  0  0  0  0  0
   49.3019    7.8596   15.0566 C   0  0  0  0  0  0  0  0  0  0  0  0
   48.5085   10.0163   14.3863 C   0  0  0  0  0  0  0  0  0  0  0  0
   49.2052    9.2255   15.2924 C   0  0  0  0  0  0  0  0  0  0  0  0
   47.3225    7.4651   11.8176 C   0  0  2  0  0  0  0  0  0  0  0  0
   44.2175    5.2896   11.2291 C   0  0  0  0  0  0  0  0  0  0  0  0
   45.9970    6.7561   12.1964 C   0  0  0  0  0  0  0  0  0  0  0  0
   49.9730    7.0376   15.9139 O   0  0  0  0  0  0  0  0  0  0  0  0
   48.4340   11.3546   14.6427 O   0  0  0  0  0  0  0  0  0  0  0  0
   48.1972    6.5212   11.1917 O   0  0  0  0  0  0  0  0  0  0  0  0
   44.4858    4.1081   12.1754 C   0  0  0  0  0  0  0  0  0  0  0  0
   43.0534    6.1391   11.7648 C   0  0  0  0  0  0  0  0  0  0  0  0
   43.8161    4.7236    9.8528 C   0  0  0  0  0  0  0  0  0  0  0  0
   48.5578    9.0037   11.2567 H   0  0  0  0  0  0  0  0  0  0  0  0
   46.5806    7.9261   14.9307 H   0  0  0  0  0  0  0  0  0  0  0  0
   44.6058    6.8538   13.3679 H   0  0  0  0  0  0  0  0  0  0  0  0
   50.8687    7.9534   14.7248 H   0  0  0  0  0  0  0  0  0  0  0  0
   46.1752    9.4911   11.5918 H   0  0  0  0  0  0  0  0  0  0  0  0
   44.6801    7.7265   11.0217 H   0  0  0  0  0  0  0  0  0  0  0  0
   46.3056    7.0142   10.9727 H   0  0  0  0  0  0  0  0  0  0  0  0
   47.9567    7.3906   16.6127 H   0  0  0  0  0  0  0  0  0  0  0  0
   51.7202    8.5417   12.7116 H   0  0  0  0  0  0  0  0  0  0  0  0
   44.2881    9.3727   12.7702 H   0  0  0  0  0  0  0  0  0  0  0  0
   46.0118    4.2998   11.1067 H   0  0  0  0  0  0  0  0  0  0  0  0
   44.4422    3.6952   10.5644 H   0  0  0  0  0  0  0  0  0  0  0  0
   45.0225    5.2568    9.9889 H   0  0  0  0  0  0  0  0  0  0  0  0
   45.1776    3.8938   13.5218 H   0  0  0  0  0  0  0  0  0  0  0  0
   43.6078    3.3756   12.8945 H   0  0  0  0  0  0  0  0  0  0  0  0
   43.6931    4.6796   14.0841 H   0  0  0  0  0  0  0  0  0  0  0  0
   42.3881    6.2407   12.5071 H   0  0  0  0  0  0  0  0  0  0  0  0
   42.2640    4.8733   11.3951 H   0  0  0  0  0  0  0  0  0  0  0  0
   42.8938    6.4158   10.8194 H   0  0  0  0  0  0  0  0  0  0  0  0
   44.3643    6.7394   12.3594 H   0  0  0  0  0  0  0  0  0  0  0  0
   47.2793    8.4386   12.8185 H   0  0  0  0  0  0  0  0  0  0  0  0
   47.3608   10.0910   12.5617 H   0  0  0  0  0  0  0  0  0  0  0  0
   48.8100    6.2143   13.7692 H   0  0  0  0  0  0  0  0  0  0  0  0
   45.2258    6.8131   10.3010 H   0  0  0  0  0  0  0  0  0  0  0  0
   49.6611    9.6859   16.1617 H   0  0  0  0  0  0  0  0  0  0  0  0
   47.1224    8.2417   11.0691 H   0  0  0  0  0  0  0  0  0  0  0  0
   46.2113    6.0037   12.9623 H   0  0  0  0  0  0  0  0  0  0  0  0
   45.2985    7.4890   12.6141 H   0  0  0  0  0  0  0  0  0  0  0  0
   50.3615    7.5812   16.6186 H   0  0  0  0  0  0  0  0  0  0  0  0
   47.9783   11.7888   13.9031 H   0  0  0  0  0  0  0  0  0  0  0  0
   47.5963    5.8990   10.7343 H   0  0  0  0  0  0  0  0  0  0  0  0
   43.6241    3.4309   12.2091 H   0  0  0  0  0  0  0  0  0  0  0  0
   45.3509    3.5216   11.8448 H   0  0  0  0  0  0  0  0  0  0  0  0
   44.6724    4.4369   13.2031 H   0  0  0  0  0  0  0  0  0  0  0  0
   42.8675    7.0097   11.1252 H   0  0  0  0  0  0  0  0  0  0  0  0
   43.2447    6.5012   12.7806 H   0  0  0  0  0  0  0  0  0  0  0  0
   42.1267    5.5543   11.8007 H   0  0  0  0  0  0  0  0  0  0  0  0
   42.9197    4.0970    9.9288 H   0  0  0  0  0  0  0  0  0  0  0  0
   43.5960    5.5245    9.1368 H   0  0  0  0  0  0  0  0  0  0  0  0
   44.6149    4.1047    9.4266 H   0  0  0  0  0  0  0  0  0  0  0  0
  2  1  2  0
  3  1  1  0
  4 10  1  0
  5  3  2  0
  6  2  1  0
  7  5  1  0
  8  1  1  0
  9  4  1  0
 10  8  1  0
 11  5  1  0
 12  6  1  0
 13  8  1  0
 14  9  1  0
 15  9  1  0
 16  9  1  0
  6  7  2  0
 18 17  1  0
 19 17  1  0
 20 17  2  0
 21 17  2  0
 23 22  2  0
 24 22  1  0
 25 31  1  0
 26 24  2  0
 27 23  1  0
 28 26  1  0
 29 22  1  0
 30 25  1  0
 31 29  1  0
 32 26  1  0
 33 27  1  0
 34 29  1  0
 35 30  1  0
 36 30  1  0
 37 30  1  0
 27 28  2  0
  2 38  1  0
  3 39  1  0
  4 40  1  0
  7 41  1  0
  8 42  1  1
 10 43  1  0
 10 44  1  0
 11 45  1  0
 12 46  1  0
 13 47  1  0
 14 48  1  0
 14 49  1  0
 14 50  1  0
 15 51  1  0
 15 52  1  0
 15 53  1  0
 16 54  1  0
 16 55  1  0
 16 56  1  0
 18 57  1  0
 19 58  1  0
 23 59  1  0
 24 60  1  0
 25 61  1  0
 28 62  1  0
 29 63  1  1
 31 64  1  0
 31 65  1  0
 32 66  1  0
 33 67  1  0
 34 68  1  0
 35 69  1  0
 35 70  1  0
 35 71  1  0
 36 72  1  0
 36 73  1  0
 36 74  1  0
 37 75  1  0
 37 76  1  0
 37 77  1  0
M  END
> <Uni-Dock RESULT> 
ENERGY=   -4.705  LOWER_BOUND=    1.084  UPPER_BOUND=    2.848
INTER + INTRA:          -4.705
INTER:                  -4.705
INTRA:                   0.000
UNBOUND:                 0.000

$$$$

     RDKit          3D

 77 76  0  0  0  0  0  0  0  0999 V2000
   49.8438    4.5138   17.8813 C   0  0  0  0  0  0  0  0  0  0  0  0
   49.6095    5.5946   17.0152 C   0  0  0  0  0  0  0  0  0  0  0  0
   49.1336    4.4572   19.0909 C   0  0  0  0  0  0  0  0  0  0  0  0
   52.4572    3.6890   19.4352 N   0  0  0  0  0  0  0  0  0  0  0  0
   48.2120    5.4536   19.4093 C   0  0  0  0  0  0  0  0  0  0  0  0
   48.6842    6.5791   17.3520 C   0  0  0  0  0  0  0  0  0  0  0  0
   47.9783    6.5176   18.5470 C   0  0  0  0  0  0  0  0  0  0  0  0
   50.8648    3.4610   17.5072 C   0  0  1  0  0  0  0  0  0  0  0  0
   53.8280    3.6921   19.9635 C   0  0  0  0  0  0  0  0  0  0  0  0
   52.3062    3.8014   17.9773 C   0  0  0  0  0  0  0  0  0  0  0  0
   47.5096    5.4180   20.5790 O   0  0  0  0  0  0  0  0  0  0  0  0
   48.4983    7.6027   16.4690 O   0  0  0  0  0  0  0  0  0  0  0  0
   50.4768    2.1812   18.0307 O   0  0  0  0  0  0  0  0  0  0  0  0
   54.6487    4.8865   19.4515 C   0  0  0  0  0  0  0  0  0  0  0  0
   53.6953    3.8104   21.4934 C   0  0  0  0  0  0  0  0  0  0  0  0
   54.5546    2.3763   19.6382 C   0  0  0  0  0  0  0  0  0  0  0  0
   51.6028    4.7087   19.2385 S   0  0  0  0  0  0  0  0  0  0  0  0
   52.6888    3.7363   18.5688 O   0  0  0  0  0  0  0  0  0  0  0  0
   50.2376    4.0826   18.6746 O   0  0  0  0  0  0  0  0  0  0  0  0
   51.6609    4.4677   20.6577 O   0  0  0  0  0  0  0  0  0  0  0  0
   51.7306    6.0128   18.6398 O   0  0  0  0  0  0  0  0  0  0  0  0
   49.7707    5.2220   18.0532 C   0  0  0  0  0  0  0  0  0  0  0  0
   48.9004    4.4173   17.2995 C   0  0  0  0  0  0  0  0  0  0  0  0
   49.2428    5.9763   19.1138 C   0  0  0  0  0  0  0  0  0  0  0  0
   53.5052    4.5086   18.4450 N   0  0  0  0  0  0  0  0  0  0  0  0
   47.8837    5.9221   19.4087 C   0  0  0  0  0  0  0  0  0  0  0  0
   47.5413    4.3810   17.6093 C   0  0  0  0  0  0  0  0  0  0  0  0
   47.0237    5.1257   18.6625 C   0  0  0  0  0  0  0  0  0  0  0  0
   51.2502    5.2403   17.7455 C   0  0  2  0  0  0  0  0  0  0  0  0
   54.4165    3.8182   19.3801 C   0  0  0  0  0  0  0  0  0  0  0  0
   52.0639    4.3730   18.7399 C   0  0  0  0  0  0  0  0  0  0  0  0
   47.4286    6.6723   20.4533 O   0  0  0  0  0  0  0  0  0  0  0  0
   46.6716    3.6114   16.8925 O   0  0  0  0  0  0  0  0  0  0  0  0
   51.7404    6.5841   17.7850 O   0  0  0  0  0  0  0  0  0  0  0  0
   54.3054    4.3806   20.8067 C   0  0  0  0  0  0  0  0  0  0  0  0
   54.1851    2.2984   19.3941 C   0  0  0  0  0  0  0  0  0  0  0  0
   55.8433    4.0902   18.8644 C   0  0  0  0  0  0  0  0  0  0  0  0
   50.1456    5.6771   16.0731 H   0  0  0  0  0  0  0  0  0  0  0  0
   49.3129    3.6308   19.7728 H   0  0  0  0  0  0  0  0  0  0  0  0
   51.9415    2.8679   19.7583 H   0  0  0  0  0  0  0  0  0  0  0  0
   47.2556    7.2771   18.8225 H   0  0  0  0  0  0  0  0  0  0  0  0
   50.8655    3.3551   16.4149 H   0  0  0  0  0  0  0  0  0  0  0  0
   52.9752    3.0857   17.4876 H   0  0  0  0  0  0  0  0  0  0  0  0
   52.5745    4.8085   17.6405 H   0  0  0  0  0  0  0  0  0  0  0  0
   47.7959    4.6342   21.0772 H   0  0  0  0  0  0  0  0  0  0  0  0
   47.8308    8.2042   16.8392 H   0  0  0  0  0  0  0  0  0  0  0  0
   51.1097    1.5349   17.6764 H   0  0  0  0  0  0  0  0  0  0  0  0
   54.1317    5.8346   19.6392 H   0  0  0  0  0  0  0  0  0  0  0  0
   55.6214    4.9375   19.9547 H   0  0  0  0  0  0  0  0  0  0  0  0
   54.8464    4.8156   18.3763 H   0  0  0  0  0  0  0  0  0  0  0  0
   53.1812    4.7357   21.7798 H   0  0  0  0  0  0  0  0  0  0  0  0
   54.6795    3.8177   21.9763 H   0  0  0  0  0  0  0  0  0  0  0  0
   53.1300    2.9704   21.9147 H   0  0  0  0  0  0  0  0  0  0  0  0
   53.9759    1.5075   19.9726 H   0  0  0  0  0  0  0  0  0  0  0  0
   55.5287    2.3337   20.1394 H   0  0  0  0  0  0  0  0  0  0  0  0
   54.7392    2.2627   18.5650 H   0  0  0  0  0  0  0  0  0  0  0  0
   52.7947    2.9670   19.1659 H   0  0  0  0  0  0  0  0  0  0  0  0
   50.0731    4.4900   17.7990 H   0  0  0  0  0  0  0  0  0  0  0  0
   49.2906    3.8265   16.4760 H   0  0  0  0  0  0  0  0  0  0  0  0
   49.8927    6.6156   19.7080 H   0  0  0  0  0  0  0  0  0  0  0  0
   53.6785    4.1613   17.4996 H   0  0  0  0  0  0  0  0  0  0  0  0
   45.9630    5.0747   18.8811 H   0  0  0  0  0  0  0  0  0  0  0  0
   51.4190    4.8817   16.7226 H   0  0  0  0  0  0  0  0  0  0  0  0
   51.8630    4.7276   19.7561 H   0  0  0  0  0  0  0  0  0  0  0  0
   51.7382    3.3301   18.6643 H   0  0  0  0  0  0  0  0  0  0  0  0
   46.4651    6.5649   20.5108 H   0  0  0  0  0  0  0  0  0  0  0  0
   47.1531    3.2003   16.1561 H   0  0  0  0  0  0  0  0  0  0  0  0
   52.6915    6.4899   17.9950 H   0  0  0  0  0  0  0  0  0  0  0  0
   55.0943    3.9729   21.4500 H   0  0  0  0  0  0  0  0  0  0  0  0
   54.4081    5.4719   20.8136 H   0  0  0  0  0  0  0  0  0  0  0  0
   53.3492    4.1273   21.2765 H   0  0  0  0  0  0  0  0  0  0  0  0
   54.2228    1.8798   18.3816 H   0  0  0  0  0  0  0  0  0  0  0  0
   53.2160    2.0360   19.8319 H   0  0  0  0  0  0  0  0  0  0  0  0
   54.9545    1.7910   19.9878 H   0  0  0  0  0  0  0  0  0  0  0  0
   56.5938    3.6186   19.5095 H   0  0  0  0  0  0  0  0  0  0  0  0
   55.9874    3.6951   17.8516 H   0  0  0  0  0  0  0  0  0  0  0  0
   56.0608    5.1648   18.8378 H   0  0  0  0  0  0  0  0  0  0  0  0
  2  1  2  0
  3  1  1  0
  4 10  1  0
  5  3  2  0
  6  2  1  0
  7  5  1  0
  8  1  1  0
  9  4  1  0
 10  8  1  0
 11  5  1  0
 12  6  1  0
 13  8  1  0
 14  9  1  0
 15  9  1  0
 16  9  1  0
  6  7  2  0
 18 17  1  0
 19 17  1  0
 20 17  2  0
 21 17  2  0
 23 22  2  0
 24 22  1  0
 25 31  1  0
 26 24  2  0
 27 23  1  0
 28 26  1  0
 29 22  1  0
 30 25  1  0
 31 29  1  0
 32 26  1  0
 33 27  1  0
 34 29  1  0
 35 30  1  0
 36 30  1  0
 37 30  1  0
 27 28  2  0
  2 38  1  0
  3 39  1  0
  4 40  1  0
  7 41  1  0
  8 42  1  1
 10 43  1  0
 10 44  1  0
 11 45  1  0
 12 46  1  0
 13 47  1  0
 14 48  1  0
 14 49  1  0
 14 50  1  0
 15 51  1  0
 15 52  1  0
 15 53  1  0
 16 54  1  0
 16 55  1  0
 16 56  1  0
 18 57  1  0
 19 58  1  0
 23 59  1  0
 24 60  1  0
 25 61  1  0
 28 62  1  0
 29 63  1  1
 31 64  1  0
 31 65  1  0
 32 66  1  0
 33 67  1  0
 34 68  1  0
 35 69  1  0
 35 70  1  0
 35 71  1  0
 36 72  1  0
 36 73  1  0
 36 74  1  0
 37 75  1  0
 37 76  1  0
 37 77  1  0
M  END
> <Uni-Dock RESULT> 
ENERGY=   -4.444  LOWER_BOUND=    6.284  UPPER_BOUND=    9.365
INTER + INTRA:          -4.444
INTER:                  -4.444
INTRA:                   0.000
UNBOUND:                 0.000

$$$$

     RDKit          3D

 77 76  0  0  0  0  0  0  0  0999 V2000
   48.6567   10.2909   17.7088 C   0  0  0  0  0  0  0  0  0  0  0  0
   49.7406   11.0013   18.2509 C   0  0  0  0  0  0  0  0  0  0  0  0
   47.3788   10.5002   18.2508 C   0  0  0  0  0  0  0  0  0  0  0  0
   48.0773    7.1945   17.6684 N   0  0  0  0  0  0  0  0  0  0  0  0
   47.2015   11.4032   19.2980 C   0  0  0  0  0  0  0  0  0  0  0  0
   49.5417   11.8991   19.2965 C   0  0  0  0  0  0  0  0  0  0  0  0
   48.2749   12.1089   19.8271 C   0  0  0  0  0  0  0  0  0  0  0  0
   48.8931    9.3069   16.5833 C   0  0  1  0  0  0  0  0  0  0  0  0
   48.1977    5.7477   17.8936 C   0  0  0  0  0  0  0  0  0  0  0  0
   49.2383    7.8740   17.0756 C   0  0  0  0  0  0  0  0  0  0  0  0
   45.9681   11.6234   19.8393 O   0  0  0  0  0  0  0  0  0  0  0  0
   50.6327   12.5613   19.7792 O   0  0  0  0  0  0  0  0  0  0  0  0
   47.7492    9.2560   15.7164 O   0  0  0  0  0  0  0  0  0  0  0  0
   49.4657    5.3826   18.6815 C   0  0  0  0  0  0  0  0  0  0  0  0
   46.9692    5.3425   18.7295 C   0  0  0  0  0  0  0  0  0  0  0  0
   48.1610    4.9714   16.5666 C   0  0  0  0  0  0  0  0  0  0  0  0
   48.3507    8.2241   18.4892 S   0  0  0  0  0  0  0  0  0  0  0  0
   48.8859    7.3001   17.2920 O   0  0  0  0  0  0  0  0  0  0  0  0
   47.9838    9.5715   17.6995 O   0  0  0  0  0  0  0  0  0  0  0  0
   47.1268    7.6216   18.9525 O   0  0  0  0  0  0  0  0  0  0  0  0
   49.4626    8.5449   19.3472 O   0  0  0  0  0  0  0  0  0  0  0  0
   48.8050   10.4180   18.4147 C   0  0  0  0  0  0  0  0  0  0  0  0
   48.7071   11.3484   17.3669 C   0  0  0  0  0  0  0  0  0  0  0  0
   48.0800   10.6525   19.5944 C   0  0  0  0  0  0  0  0  0  0  0  0
   49.6526    6.7275   17.8943 N   0  0  0  0  0  0  0  0  0  0  0  0
   47.2805   11.7852   19.7165 C   0  0  0  0  0  0  0  0  0  0  0  0
   47.9036   12.4789   17.5118 C   0  0  0  0  0  0  0  0  0  0  0  0
   47.1844   12.7049   18.6794 C   0  0  0  0  0  0  0  0  0  0  0  0
   49.6465    9.1732   18.2524 C   0  0  2  0  0  0  0  0  0  0  0  0
   48.9554    5.4379   17.7137 C   0  0  0  0  0  0  0  0  0  0  0  0
   48.7843    7.9217   17.9466 C   0  0  0  0  0  0  0  0  0  0  0  0
   46.5953   11.9579   20.8834 O   0  0  0  0  0  0  0  0  0  0  0  0
   47.7921   13.4015   16.5125 O   0  0  0  0  0  0  0  0  0  0  0  0
   50.4072    8.9397   19.4417 O   0  0  0  0  0  0  0  0  0  0  0  0
   48.0163    5.1260   18.8902 C   0  0  0  0  0  0  0  0  0  0  0  0
   48.1760    5.3845   16.3896 C   0  0  0  0  0  0  0  0  0  0  0  0
   50.0560    4.3595   17.6763 C   0  0  0  0  0  0  0  0  0  0  0  0
   50.7462   10.8604   17.8628 H   0  0  0  0  0  0  0  0  0  0  0  0
   46.5344    9.9499   17.8456 H   0  0  0  0  0  0  0  0  0  0  0  0
   47.2480    7.4113   17.1118 H   0  0  0  0  0  0  0  0  0  0  0  0
   48.1054   12.8040   20.6414 H   0  0  0  0  0  0  0  0  0  0  0  0
   49.7233    9.6788   15.9697 H   0  0  0  0  0  0  0  0  0  0  0  0
   49.5779    7.3123   16.1989 H   0  0  0  0  0  0  0  0  0  0  0  0
   50.0634    7.9211   17.7944 H   0  0  0  0  0  0  0  0  0  0  0  0
   45.3325   11.0478   19.3817 H   0  0  0  0  0  0  0  0  0  0  0  0
   50.3387   13.1447   20.4986 H   0  0  0  0  0  0  0  0  0  0  0  0
   47.9969    8.6910   14.9660 H   0  0  0  0  0  0  0  0  0  0  0  0
   49.5322    5.9527   19.6154 H   0  0  0  0  0  0  0  0  0  0  0  0
   49.4698    4.3185   18.9454 H   0  0  0  0  0  0  0  0  0  0  0  0
   50.3759    5.5736   18.1026 H   0  0  0  0  0  0  0  0  0  0  0  0
   46.9474    5.8707   19.6903 H   0  0  0  0  0  0  0  0  0  0  0  0
   46.9747    4.2676   18.9450 H   0  0  0  0  0  0  0  0  0  0  0  0
   46.0330    5.5665   18.2041 H   0  0  0  0  0  0  0  0  0  0  0  0
   47.2764    5.2338   15.9747 H   0  0  0  0  0  0  0  0  0  0  0  0
   48.1256    3.8906   16.7470 H   0  0  0  0  0  0  0  0  0  0  0  0
   49.0455    5.1664   15.9512 H   0  0  0  0  0  0  0  0  0  0  0  0
   48.1059    6.8572   16.8983 H   0  0  0  0  0  0  0  0  0  0  0  0
   48.8031   10.1058   17.6437 H   0  0  0  0  0  0  0  0  0  0  0  0
   49.2601   11.1835   16.4468 H   0  0  0  0  0  0  0  0  0  0  0  0
   48.1449    9.9531   20.4255 H   0  0  0  0  0  0  0  0  0  0  0  0
   50.3258    6.8470   17.1347 H   0  0  0  0  0  0  0  0  0  0  0  0
   46.5658   13.5916   18.7615 H   0  0  0  0  0  0  0  0  0  0  0  0
   50.3751    9.3227   17.4460 H   0  0  0  0  0  0  0  0  0  0  0  0
   48.0466    7.8034   18.7469 H   0  0  0  0  0  0  0  0  0  0  0  0
   48.2517    8.0687   17.0010 H   0  0  0  0  0  0  0  0  0  0  0  0
   46.1195   12.8033   20.8372 H   0  0  0  0  0  0  0  0  0  0  0  0
   48.3912   13.1524   15.7899 H   0  0  0  0  0  0  0  0  0  0  0  0
   50.5735    7.9754   19.4386 H   0  0  0  0  0  0  0  0  0  0  0  0
   47.6308    4.1018   18.8216 H   0  0  0  0  0  0  0  0  0  0  0  0
   48.5372    5.2166   19.8504 H   0  0  0  0  0  0  0  0  0  0  0  0
   47.1474    5.7921   18.9121 H   0  0  0  0  0  0  0  0  0  0  0  0
   48.8176    5.6403   15.5383 H   0  0  0  0  0  0  0  0  0  0  0  0
   47.3236    6.0723   16.3885 H   0  0  0  0  0  0  0  0  0  0  0  0
   47.7782    4.3787   16.2102 H   0  0  0  0  0  0  0  0  0  0  0  0
   49.6255    3.3588   17.5532 H   0  0  0  0  0  0  0  0  0  0  0  0
   50.7505    4.5218   16.8432 H   0  0  0  0  0  0  0  0  0  0  0  0
   50.6419    4.3538   18.6034 H   0  0  0  0  0  0  0  0  0  0  0  0
  2  1  2  0
  3  1  1  0
  4 10  1  0
  5  3  2  0
  6  2  1  0
  7  5  1  0
  8  1  1  0
  9  4  1  0
 10  8  1  0
 11  5  1  0
 12  6  1  0
 13  8  1  0
 14  9  1  0
 15  9  1  0
 16  9  1  0
  6  7  2  0
 18 17  1  0
 19 17  1  0
 20 17  2  0
 21 17  2  0
 23 22  2  0
 24 22  1  0
 25 31  1  0
 26 24  2  0
 27 23  1  0
 28 26  1  0
 29 22  1  0
 30 25  1  0
 31 29  1  0
 32 26  1  0
 33 27  1  0
 34 29  1  0
 35 30  1  0
 36 30  1  0
 37 30  1  0
 27 28  2  0
  2 38  1  0
  3 39  1  0
  4 40  1  0
  7 41  1  0
  8 42  1  1
 10 43  1  0
 10 44  1  0
 11 45  1  0
 12 46  1  0
 13 47  1  0
 14 48  1  0
 14 49  1  0
 14 50  1  0
 15 51  1  0
 15 52  1  0
 15 53  1  0
 16 54  1  0
 16 55  1  0
 16 56  1  0
 18 57  1  0
 19 58  1  0
 23 59  1  0
 24 60  1  0
 25 61  1  0
 28 62  1  0
 29 63  1  1
 31 64  1  0
 31 65  1  0
 32 66  1  0
 33 67  1  0
 34 68  1  0
 35 69  1  0
 35 70  1  0
 35 71  1  0
 36 72  1  0
 36 73  1  0
 36 74  1  0
 37 75  1  0
 37 76  1  0
 37 77  1  0
M  END
> <Uni-Dock RESULT> 
ENERGY=   -4.377  LOWER_BOUND=    5.080  UPPER_BOUND=    7.435
INTER + INTRA:          -4.377
INTER:                  -4.377
INTRA:                   0.000
UNBOUND:                 0.000

$$$$

     RDKit          3D

 77 76  0  0  0  0  0  0  0  0999 V2000
   49.0282    7.5882   20.1339 C   0  0  0  0  0  0  0  0  0  0  0  0
   48.1405    7.0281   19.2002 C   0  0  0  0  0  0  0  0  0  0  0  0
   49.0493    7.0657   21.4366 C   0  0  0  0  0  0  0  0  0  0  0  0
   49.1259   10.4923   21.3509 N   0  0  0  0  0  0  0  0  0  0  0  0
   48.2091    6.0078   21.7807 C   0  0  0  0  0  0  0  0  0  0  0  0
   47.3100    5.9714   19.5643 C   0  0  0  0  0  0  0  0  0  0  0  0
   47.3372    5.4522   20.8527 C   0  0  0  0  0  0  0  0  0  0  0  0
   49.9123    8.7469   19.7259 C   0  0  1  0  0  0  0  0  0  0  0  0
   48.7930   11.8895   21.6597 C   0  0  0  0  0  0  0  0  0  0  0  0
   49.2462   10.1360   19.9298 C   0  0  0  0  0  0  0  0  0  0  0  0
   48.2139    5.4834   23.0409 O   0  0  0  0  0  0  0  0  0  0  0  0
   46.4712    5.4679   18.6130 O   0  0  0  0  0  0  0  0  0  0  0  0
   51.1574    8.7002   20.4401 O   0  0  0  0  0  0  0  0  0  0  0  0
   47.5483   12.3751   20.9001 C   0  0  0  0  0  0  0  0  0  0  0  0
   48.4916   11.9324   23.1696 C   0  0  0  0  0  0  0  0  0  0  0  0
   49.9813   12.8227   21.3738 C   0  0  0  0  0  0  0  0  0  0  0  0
   48.3215    9.4289   21.1763 S   0  0  0  0  0  0  0  0  0  0  0  0
   49.1561   10.5963   20.4593 O   0  0  0  0  0  0  0  0  0  0  0  0
   49.2641    8.1605   20.9001 O   0  0  0  0  0  0  0  0  0  0  0  0
   48.3492    9.7165   22.5877 O   0  0  0  0  0  0  0  0  0  0  0  0
   47.1119    9.2085   20.4254 O   0  0  0  0  0  0  0  0  0  0  0  0
   48.3294    7.3939   20.2360 C   0  0  0  0  0  0  0  0  0  0  0  0
   49.3792    6.6181   19.7173 C   0  0  0  0  0  0  0  0  0  0  0  0
   47.5484    6.8629   21.2754 C   0  0  0  0  0  0  0  0  0  0  0  0
   48.2690   11.2141   20.1280 N   0  0  0  0  0  0  0  0  0  0  0  0
   47.8151    5.5930   21.7788 C   0  0  0  0  0  0  0  0  0  0  0  0
   49.6265    5.3464   20.2335 C   0  0  0  0  0  0  0  0  0  0  0  0
   48.8538    4.8264   21.2651 C   0  0  0  0  0  0  0  0  0  0  0  0
   48.0767    8.7863   19.7055 C   0  0  2  0  0  0  0  0  0  0  0  0
   48.6406   12.3599   20.9829 C   0  0  0  0  0  0  0  0  0  0  0  0
   48.6304    9.8812   20.6530 C   0  0  0  0  0  0  0  0  0  0  0  0
   47.0267    5.1314   22.7919 O   0  0  0  0  0  0  0  0  0  0  0  0
   50.6369    4.5687   19.7471 O   0  0  0  0  0  0  0  0  0  0  0  0
   46.6725    8.9913   19.5216 O   0  0  0  0  0  0  0  0  0  0  0  0
   47.9176   12.3195   22.3391 C   0  0  0  0  0  0  0  0  0  0  0  0
   50.1601   12.4490   21.1991 C   0  0  0  0  0  0  0  0  0  0  0  0
   48.1798   13.6224   20.2283 C   0  0  0  0  0  0  0  0  0  0  0  0
   48.0898    7.4106   18.1840 H   0  0  0  0  0  0  0  0  0  0  0  0
   49.7253    7.4966   22.1697 H   0  0  0  0  0  0  0  0  0  0  0  0
   49.9766   10.2018   21.8373 H   0  0  0  0  0  0  0  0  0  0  0  0
   46.6960    4.6304   21.1503 H   0  0  0  0  0  0  0  0  0  0  0  0
   50.1659    8.6294   18.6648 H   0  0  0  0  0  0  0  0  0  0  0  0
   49.8844   10.8692   19.4253 H   0  0  0  0  0  0  0  0  0  0  0  0
   48.2629   10.1465   19.4473 H   0  0  0  0  0  0  0  0  0  0  0  0
   48.8538    5.9859   23.5725 H   0  0  0  0  0  0  0  0  0  0  0  0
   45.9603    4.7442   19.0126 H   0  0  0  0  0  0  0  0  0  0  0  0
   51.7162    9.4015   20.0664 H   0  0  0  0  0  0  0  0  0  0  0  0
   46.6972   11.7030   21.0592 H   0  0  0  0  0  0  0  0  0  0  0  0
   47.2469   13.3729   21.2399 H   0  0  0  0  0  0  0  0  0  0  0  0
   47.7286   12.4437   19.8217 H   0  0  0  0  0  0  0  0  0  0  0  0
   47.6486   11.2804   23.4277 H   0  0  0  0  0  0  0  0  0  0  0  0
   48.2334   12.9478   23.4924 H   0  0  0  0  0  0  0  0  0  0  0  0
   49.3564   11.6103   23.7621 H   0  0  0  0  0  0  0  0  0  0  0  0
   50.8887   12.4824   21.8862 H   0  0  0  0  0  0  0  0  0  0  0  0
   49.7710   13.8409   21.7217 H   0  0  0  0  0  0  0  0  0  0  0  0
   50.2054   12.8877   20.3040 H   0  0  0  0  0  0  0  0  0  0  0  0
   49.8020   10.9334   21.1142 H   0  0  0  0  0  0  0  0  0  0  0  0
   49.0196    7.8050   20.0205 H   0  0  0  0  0  0  0  0  0  0  0  0
   49.9942    7.0124   18.9138 H   0  0  0  0  0  0  0  0  0  0  0  0
   46.7228    7.4384   21.6893 H   0  0  0  0  0  0  0  0  0  0  0  0
   48.7049   11.3324   19.2112 H   0  0  0  0  0  0  0  0  0  0  0  0
   49.0721    3.8356   21.6476 H   0  0  0  0  0  0  0  0  0  0  0  0
   48.5350    8.8927   18.7145 H   0  0  0  0  0  0  0  0  0  0  0  0
   48.1829    9.7437   21.6427 H   0  0  0  0  0  0  0  0  0  0  0  0
   49.7161    9.7696   20.7432 H   0  0  0  0  0  0  0  0  0  0  0  0
   47.3037    4.2259   23.0075 H   0  0  0  0  0  0  0  0  0  0  0  0
   51.0480    5.0259   18.9954 H   0  0  0  0  0  0  0  0  0  0  0  0
   46.5568    9.9603   19.5928 H   0  0  0  0  0  0  0  0  0  0  0  0
   48.0773   13.2509   22.8950 H   0  0  0  0  0  0  0  0  0  0  0  0
   46.8360   12.1960   22.2102 H   0  0  0  0  0  0  0  0  0  0  0  0
   48.2783   11.5038   22.9746 H   0  0  0  0  0  0  0  0  0  0  0  0
   50.6999   12.4417   20.2450 H   0  0  0  0  0  0  0  0  0  0  0  0
   50.5365   11.6186   21.8061 H   0  0  0  0  0  0  0  0  0  0  0  0
   50.4273   13.3758   21.7203 H   0  0  0  0  0  0  0  0  0  0  0  0
   48.4087   14.5301   20.7989 H   0  0  0  0  0  0  0  0  0  0  0  0
   48.6769   13.7134   19.2550 H   0  0  0  0  0  0  0  0  0  0  0  0
   47.0976   13.6095   20.0508 H   0  0  0  0  0  0  0  0  0  0  0  0
  2  1  2  0
  3  1  1  0
  4 10  1  0
  5  3  2  0
  6  2  1  0
  7  5  1  0
  8  1  1  0
  9  4  1  0
 10  8  1  0
 11  5  1  0
 12  6  1  0
 13  8  1  0
 14  9  1  0
 15  9  1  0
 16  9  1  0
  6  7  2  0
 18 17  1  0
 19 17  1  0
 20 17  2  0
 21 17  2  0
 23 22  2  0
 24 22  1  0
 25 31  1  0
 26 24  2  0
 27 23  1  0
 28 26  1  0
 29 22  1  0
 30 25  1  0
 31 29  1  0
 32 26  1  0
 33 27  1  0
 34 29  1  0
 35 30  1  0
 36 30  1  0
 37 30  1  0
 27 28  2  0
  2 38  1  0
  3 39  1  0
  4 40  1  0
  7 41  1  0
  8 42  1  1
 10 43  1  0
 10 44  1  0
 11 45  1  0
 12 46  1  0
 13 47  1  0
 14 48  1  0
 14 49  1  0
 14 50  1  0
 15 51  1  0
 15 52  1  0
 15 53  1  0
 16 54  1  0
 16 55  1  0
 16 56  1  0
 18 57  1  0
 19 58  1  0
 23 59  1  0
 24 60  1  0
 25 61  1  0
 28 62  1  0
 29 63  1  1
 31 64  1  0
 31 65  1  0
 32 66  1  0
 33 67  1  0
 34 68  1  0
 35 69  1  0
 35 70  1  0
 35 71  1  0
 36 72  1  0
 36 73  1  0
 36 74  1  0
 37 75  1  0
 37 76  1  0
 37 77  1  0
M  END
> <Uni-Dock RESULT> 
ENERGY=   -4.349  LOWER_BOUND=    7.566  UPPER_BOUND=   10.167
INTER + INTRA:          -4.349
INTER:                  -4.349
INTRA:                   0.000
UNBOUND:                 0.000

$$$$

     RDKit          3D

 77 76  0  0  0  0  0  0  0  0999 V2000
   50.1526    8.0480   15.2272 C   0  0  0  0  0  0  0  0  0  0  0  0
   49.8683    9.4232   15.1903 C   0  0  0  0  0  0  0  0  0  0  0  0
   49.8075    7.2615   14.1168 C   0  0  0  0  0  0  0  0  0  0  0  0
   49.0206    5.7926   17.1131 N   0  0  0  0  0  0  0  0  0  0  0  0
   49.2048    7.8466   13.0042 C   0  0  0  0  0  0  0  0  0  0  0  0
   49.2662    9.9879   14.0688 C   0  0  0  0  0  0  0  0  0  0  0  0
   48.9312    9.2082   12.9688 C   0  0  0  0  0  0  0  0  0  0  0  0
   50.7926    7.4477   16.4604 C   0  0  1  0  0  0  0  0  0  0  0  0
   48.2452    5.0963   18.1486 C   0  0  0  0  0  0  0  0  0  0  0  0
   49.7640    6.9898   17.5315 C   0  0  0  0  0  0  0  0  0  0  0  0
   48.8620    7.1014   11.9133 O   0  0  0  0  0  0  0  0  0  0  0  0
   49.0175   11.3293   14.0911 O   0  0  0  0  0  0  0  0  0  0  0  0
   51.6350    6.3425   16.0978 O   0  0  0  0  0  0  0  0  0  0  0  0
   47.3069    6.0443   18.9122 C   0  0  0  0  0  0  0  0  0  0  0  0
   47.3884    4.0514   17.4095 C   0  0  0  0  0  0  0  0  0  0  0  0
   49.1666    4.3603   19.1356 C   0  0  0  0  0  0  0  0  0  0  0  0
   48.6498    6.7639   16.2602 S   0  0  0  0  0  0  0  0  0  0  0  0
   49.3621    6.4212   17.6561 O   0  0  0  0  0  0  0  0  0  0  0  0
   49.9199    7.0973   15.3386 O   0  0  0  0  0  0  0  0  0  0  0  0
   48.0590    5.5360   15.7924 O   0  0  0  0  0  0  0  0  0  0  0  0
   47.9221    7.9979   16.4126 O   0  0  0  0  0  0  0  0  0  0  0  0
   49.5442    8.3766   14.9856 C   0  0  0  0  0  0  0  0  0  0  0  0
   50.8747    8.6321   14.6147 C   0  0  0  0  0  0  0  0  0  0  0  0
   48.5910    8.1672   13.9756 C   0  0  0  0  0  0  0  0  0  0  0  0
   48.5425    6.8157   18.3277 N   0  0  0  0  0  0  0  0  0  0  0  0
   48.9636    8.2114   12.6354 C   0  0  0  0  0  0  0  0  0  0  0  0
   51.2256    8.6762   13.2658 C   0  0  0  0  0  0  0  0  0  0  0  0
   50.2800    8.4641   12.2695 C   0  0  0  0  0  0  0  0  0  0  0  0
   49.1627    8.2932   16.4456 C   0  0  2  0  0  0  0  0  0  0  0  0
   48.2475    5.4831   18.8923 C   0  0  0  0  0  0  0  0  0  0  0  0
   49.0070    6.8272   16.9253 C   0  0  0  0  0  0  0  0  0  0  0  0
   47.9960    7.9954   11.6983 O   0  0  0  0  0  0  0  0  0  0  0  0
   52.5093    8.9258   12.8756 O   0  0  0  0  0  0  0  0  0  0  0  0
   47.9350    8.9932   16.6702 O   0  0  0  0  0  0  0  0  0  0  0  0
   47.0974    4.7878   18.1458 C   0  0  0  0  0  0  0  0  0  0  0  0
   49.4889    4.5762   18.9082 C   0  0  0  0  0  0  0  0  0  0  0  0
   47.8011    5.7255   20.3474 C   0  0  0  0  0  0  0  0  0  0  0  0
   50.1137   10.0634   16.0338 H   0  0  0  0  0  0  0  0  0  0  0  0
   50.0144    6.1952   14.1375 H   0  0  0  0  0  0  0  0  0  0  0  0
   49.6637    5.1519   16.6435 H   0  0  0  0  0  0  0  0  0  0  0  0
   48.4616    9.6341   12.0895 H   0  0  0  0  0  0  0  0  0  0  0  0
   51.4544    8.2010   16.9061 H   0  0  0  0  0  0  0  0  0  0  0  0
   50.3333    6.7638   18.4394 H   0  0  0  0  0  0  0  0  0  0  0  0
   49.0744    7.8112   17.7537 H   0  0  0  0  0  0  0  0  0  0  0  0
   49.0955    6.1760   12.0967 H   0  0  0  0  0  0  0  0  0  0  0  0
   48.5988   11.5735   13.2488 H   0  0  0  0  0  0  0  0  0  0  0  0
   52.0919    6.0662   16.9094 H   0  0  0  0  0  0  0  0  0  0  0  0
   46.6654    6.6083   18.2253 H   0  0  0  0  0  0  0  0  0  0  0  0
   46.6510    5.4845   19.5891 H   0  0  0  0  0  0  0  0  0  0  0  0
   47.8621    6.7633   19.5245 H   0  0  0  0  0  0  0  0  0  0  0  0
   46.7109    4.5265   16.6900 H   0  0  0  0  0  0  0  0  0  0  0  0
   46.7727    3.4770   18.1116 H   0  0  0  0  0  0  0  0  0  0  0  0
   48.0115    3.3361   16.8593 H   0  0  0  0  0  0  0  0  0  0  0  0
   49.8629    3.6952   18.6117 H   0  0  0  0  0  0  0  0  0  0  0  0
   48.5831    3.7432   19.8289 H   0  0  0  0  0  0  0  0  0  0  0  0
   49.7583    5.0541   19.7417 H   0  0  0  0  0  0  0  0  0  0  0  0
   49.5965    5.4703   17.6348 H   0  0  0  0  0  0  0  0  0  0  0  0
   50.1323    8.0445   15.4711 H   0  0  0  0  0  0  0  0  0  0  0  0
   51.6257    8.7958   15.3818 H   0  0  0  0  0  0  0  0  0  0  0  0
   47.5514    7.9768   14.2345 H   0  0  0  0  0  0  0  0  0  0  0  0
   49.2495    7.2704   18.9090 H   0  0  0  0  0  0  0  0  0  0  0  0
   50.5836    8.5019   11.2293 H   0  0  0  0  0  0  0  0  0  0  0  0
   49.9212    8.7999   17.0549 H   0  0  0  0  0  0  0  0  0  0  0  0
   48.2666    6.3301   16.2901 H   0  0  0  0  0  0  0  0  0  0  0  0
   49.9640    6.3055   16.8183 H   0  0  0  0  0  0  0  0  0  0  0  0
   48.3935    8.0974   10.8181 H   0  0  0  0  0  0  0  0  0  0  0  0
   53.0433    9.1161   13.6640 H   0  0  0  0  0  0  0  0  0  0  0  0
   47.5542    8.5675   17.4647 H   0  0  0  0  0  0  0  0  0  0  0  0
   46.7847    3.8773   18.6708 H   0  0  0  0  0  0  0  0  0  0  0  0
   46.2198    5.4402   18.0701 H   0  0  0  0  0  0  0  0  0  0  0  0
   47.3849    4.4879   17.1326 H   0  0  0  0  0  0  0  0  0  0  0  0
   50.3349    5.0666   19.4036 H   0  0  0  0  0  0  0  0  0  0  0  0
   49.8050    4.2975   17.8973 H   0  0  0  0  0  0  0  0  0  0  0  0
   49.2860    3.6451   19.4502 H   0  0  0  0  0  0  0  0  0  0  0  0
   47.5503    4.7822   20.8467 H   0  0  0  0  0  0  0  0  0  0  0  0
   48.5911    6.2074   20.9359 H   0  0  0  0  0  0  0  0  0  0  0  0
   46.9129    6.3674   20.3915 H   0  0  0  0  0  0  0  0  0  0  0  0
  2  1  2  0
  3  1  1  0
  4 10  1  0
  5  3  2  0
  6  2  1  0
  7  5  1  0
  8  1  1  0
  9  4  1  0
 10  8  1  0
 11  5  1  0
 12  6  1  0
 13  8  1  0
 14  9  1  0
 15  9  1  0
 16  9  1  0
  6  7  2  0
 18 17  1  0
 19 17  1  0
 20 17  2  0
 21 17  2  0
 23 22  2  0
 24 22  1  0
 25 31  1  0
 26 24  2  0
 27 23  1  0
 28 26  1  0
 29 22  1  0
 30 25  1  0
 31 29  1  0
 32 26  1  0
 33 27  1  0
 34 29  1  0
 35 30  1  0
 36 30  1  0
 37 30  1  0
 27 28  2  0
  2 38  1  0
  3 39  1  0
  4 40  1  0
  7 41  1  0
  8 42  1  1
 10 43  1  0
 10 44  1  0
 11 45  1  0
 12 46  1  0
 13 47  1  0
 14 48  1  0
 14 49  1  0
 14 50  1  0
 15 51  1  0
 15 52  1  0
 15 53  1  0
 16 54  1  0
 16 55  1  0
 16 56  1  0
 18 57  1  0
 19 58  1  0
 23 59  1  0
 24 60  1  0
 25 61  1  0
 28 62  1  0
 29 63  1  1
 31 64  1  0
 31 65  1  0
 32 66  1  0
 33 67  1  0
 34 68  1  0
 35 69  1  0
 35 70  1  0
 35 71  1  0
 36 72  1  0
 36 73  1  0
 36 74  1  0
 37 75  1  0
 37 76  1  0
 37 77  1  0
M  END
> <Uni-Dock RESULT> 
ENERGY=   -4.343  LOWER_BOUND=    3.739  UPPER_BOUND=    5.287
INTER + INTRA:          -4.343
INTER:                  -4.343
INTRA:                   0.000
UNBOUND:                 0.000

$$$$

     RDKit          3D

 77 76  0  0  0  0  0  0  0  0999 V2000
   48.7668   13.0255   18.8177 C   0  0  0  0  0  0  0  0  0  0  0  0
   49.3702   11.7611   18.9200 C   0  0  0  0  0  0  0  0  0  0  0  0
   47.4692   13.1927   19.3265 C   0  0  0  0  0  0  0  0  0  0  0  0
   47.9244   14.6707   16.2666 N   0  0  0  0  0  0  0  0  0  0  0  0
   46.8086   12.1216   19.9262 C   0  0  0  0  0  0  0  0  0  0  0  0
   48.6931   10.7044   19.5232 C   0  0  0  0  0  0  0  0  0  0  0  0
   47.4112   10.8742   20.0314 C   0  0  0  0  0  0  0  0  0  0  0  0
   49.5107   14.1588   18.1446 C   0  0  1  0  0  0  0  0  0  0  0  0
   47.6841   15.0562   14.8694 C   0  0  0  0  0  0  0  0  0  0  0  0
   49.2823   14.2237   16.6089 C   0  0  0  0  0  0  0  0  0  0  0  0
   45.5473   12.2619   20.4288 O   0  0  0  0  0  0  0  0  0  0  0  0
   49.3322    9.5010   19.5952 O   0  0  0  0  0  0  0  0  0  0  0  0
   49.1496   15.4153   18.7389 O   0  0  0  0  0  0  0  0  0  0  0  0
   48.1341   13.9712   13.8783 C   0  0  0  0  0  0  0  0  0  0  0  0
   46.1610   15.2407   14.7337 C   0  0  0  0  0  0  0  0  0  0  0  0
   48.3681   16.3920   14.5335 C   0  0  0  0  0  0  0  0  0  0  0  0
   47.7701   13.4816   16.8754 S   0  0  0  0  0  0  0  0  0  0  0  0
   48.7981   14.4885   16.1664 O   0  0  0  0  0  0  0  0  0  0  0  0
   48.1531   13.6854   18.4199 O   0  0  0  0  0  0  0  0  0  0  0  0
   46.4534   14.0247   16.6586 O   0  0  0  0  0  0  0  0  0  0  0  0
   48.1482   12.1334   16.5365 O   0  0  0  0  0  0  0  0  0  0  0  0
   48.4644   12.3700   18.6940 C   0  0  0  0  0  0  0  0  0  0  0  0
   49.1591   12.8041   19.8350 C   0  0  0  0  0  0  0  0  0  0  0  0
   47.2068   11.7671   18.8590 C   0  0  0  0  0  0  0  0  0  0  0  0
   48.9453   13.8884   15.2195 N   0  0  0  0  0  0  0  0  0  0  0  0
   46.6637   11.6072   20.1305 C   0  0  0  0  0  0  0  0  0  0  0  0
   48.5985   12.6304   21.1000 C   0  0  0  0  0  0  0  0  0  0  0  0
   47.3516   12.0371   21.2585 C   0  0  0  0  0  0  0  0  0  0  0  0
   49.0498   12.5856   17.3174 C   0  0  2  0  0  0  0  0  0  0  0  0
   48.3414   14.9307   14.3647 C   0  0  0  0  0  0  0  0  0  0  0  0
   48.4000   13.7899   16.5890 C   0  0  0  0  0  0  0  0  0  0  0  0
   45.4365   11.0196   20.2292 O   0  0  0  0  0  0  0  0  0  0  0  0
   49.2516   13.0389   22.2265 O   0  0  0  0  0  0  0  0  0  0  0  0
   48.8766   11.4079   16.5233 O   0  0  0  0  0  0  0  0  0  0  0  0
   46.8458   14.6730   14.1191 C   0  0  0  0  0  0  0  0  0  0  0  0
   48.5444   16.3403   14.9439 C   0  0  0  0  0  0  0  0  0  0  0  0
   49.0735   14.8491   13.0108 C   0  0  0  0  0  0  0  0  0  0  0  0
   50.3709   11.5906   18.5309 H   0  0  0  0  0  0  0  0  0  0  0  0
   46.9889   14.1638   19.2452 H   0  0  0  0  0  0  0  0  0  0  0  0
   47.6525   15.4204   16.9059 H   0  0  0  0  0  0  0  0  0  0  0  0
   46.8720   10.0607   20.5028 H   0  0  0  0  0  0  0  0  0  0  0  0
   50.5832   14.0286   18.3367 H   0  0  0  0  0  0  0  0  0  0  0  0
   50.0101   14.9392   16.2115 H   0  0  0  0  0  0  0  0  0  0  0  0
   49.4866   13.2434   16.1651 H   0  0  0  0  0  0  0  0  0  0  0  0
   45.2581   13.1748   20.2628 H   0  0  0  0  0  0  0  0  0  0  0  0
   48.7396    8.8696   20.0365 H   0  0  0  0  0  0  0  0  0  0  0  0
   49.7277   16.0858   18.3390 H   0  0  0  0  0  0  0  0  0  0  0  0
   47.6877   13.0001   14.1213 H   0  0  0  0  0  0  0  0  0  0  0  0
   47.8314   14.2252   12.8557 H   0  0  0  0  0  0  0  0  0  0  0  0
   49.2230   13.8509   13.8706 H   0  0  0  0  0  0  0  0  0  0  0  0
   45.6238   14.3129   14.9642 H   0  0  0  0  0  0  0  0  0  0  0  0
   45.8877   15.5346   13.7135 H   0  0  0  0  0  0  0  0  0  0  0  0
   45.7879   16.0193   15.4100 H   0  0  0  0  0  0  0  0  0  0  0  0
   48.0811   17.1770   15.2428 H   0  0  0  0  0  0  0  0  0  0  0  0
   48.0837   16.7355   13.5319 H   0  0  0  0  0  0  0  0  0  0  0  0
   49.4599   16.3104   14.5481 H   0  0  0  0  0  0  0  0  0  0  0  0
   48.3753   15.3721   16.1549 H   0  0  0  0  0  0  0  0  0  0  0  0
   48.8956   13.0770   18.6160 H   0  0  0  0  0  0  0  0  0  0  0  0
   50.1326   13.2732   19.7269 H   0  0  0  0  0  0  0  0  0  0  0  0
   46.6512   11.4128   17.9931 H   0  0  0  0  0  0  0  0  0  0  0  0
   49.9518   14.0551   15.2806 H   0  0  0  0  0  0  0  0  0  0  0  0
   46.9404   11.9183   22.2547 H   0  0  0  0  0  0  0  0  0  0  0  0
   50.1321   12.7458   17.3975 H   0  0  0  0  0  0  0  0  0  0  0  0
   47.3186   13.6257   16.5418 H   0  0  0  0  0  0  0  0  0  0  0  0
   48.5886   14.7055   17.1597 H   0  0  0  0  0  0  0  0  0  0  0  0
   45.2096   10.9401   21.1701 H   0  0  0  0  0  0  0  0  0  0  0  0
   50.1280   13.3730   21.9748 H   0  0  0  0  0  0  0  0  0  0  0  0
   48.8776   11.7343   15.6008 H   0  0  0  0  0  0  0  0  0  0  0  0
   46.4507   15.3582   13.3598 H   0  0  0  0  0  0  0  0  0  0  0  0
   46.6712   13.6516   13.7615 H   0  0  0  0  0  0  0  0  0  0  0  0
   46.2476   14.8219   15.0241 H   0  0  0  0  0  0  0  0  0  0  0  0
   49.6011   16.5335   15.1623 H   0  0  0  0  0  0  0  0  0  0  0  0
   47.9760   16.4885   15.8684 H   0  0  0  0  0  0  0  0  0  0  0  0
   48.2104   17.1065   14.2344 H   0  0  0  0  0  0  0  0  0  0  0  0
   48.6800   15.5882   12.3030 H   0  0  0  0  0  0  0  0  0  0  0  0
   50.1474   15.0412   13.1216 H   0  0  0  0  0  0  0  0  0  0  0  0
   48.9567   13.8597   12.5521 H   0  0  0  0  0  0  0  0  0  0  0  0
  2  1  2  0
  3  1  1  0
  4 10  1  0
  5  3  2  0
  6  2  1  0
  7  5  1  0
  8  1  1  0
  9  4  1  0
 10  8  1  0
 11  5  1  0
 12  6  1  0
 13  8  1  0
 14  9  1  0
 15  9  1  0
 16  9  1  0
  6  7  2  0
 18 17  1  0
 19 17  1  0
 20 17  2  0
 21 17  2  0
 23 22  2  0
 24 22  1  0
 25 31  1  0
 26 24  2  0
 27 23  1  0
 28 26  1  0
 29 22  1  0
 30 25  1  0
 31 29  1  0
 32 26  1  0
 33 27  1  0
 34 29  1  0
 35 30  1  0
 36 30  1  0
 37 30  1  0
 27 28  2  0
  2 38  1  0
  3 39  1  0
  4 40  1  0
  7 41  1  0
  8 42  1  1
 10 43  1  0
 10 44  1  0
 11 45  1  0
 12 46  1  0
 13 47  1  0
 14 48  1  0
 14 49  1  0
 14 50  1  0
 15 51  1  0
 15 52  1  0
 15 53  1  0
 16 54  1  0
 16 55  1  0
 16 56  1  0
 18 57  1  0
 19 58  1  0
 23 59  1  0
 24 60  1  0
 25 61  1  0
 28 62  1  0
 29 63  1  1
 31 64  1  0
 31 65  1  0
 32 66  1  0
 33 67  1  0
 34 68  1  0
 35 69  1  0
 35 70  1  0
 35 71  1  0
 36 72  1  0
 36 73  1  0
 36 74  1  0
 37 75  1  0
 37 76  1  0
 37 77  1  0
M  END
> <Uni-Dock RESULT> 
ENERGY=   -4.315  LOWER_BOUND=    7.738  UPPER_BOUND=    9.536
INTER + INTRA:          -4.315
INTER:                  -4.315
INTRA:                   0.000
UNBOUND:                 0.000

$$$$
