
     RDKit          3D

 77 76  0  0  0  0  0  0  0  0999 V2000
   45.4515    6.4598   12.8588 C   0  0  0  0  0  0  0  0  0  0  0  0
   46.2498    5.3831   13.2712 C   0  0  0  0  0  0  0  0  0  0  0  0
   44.1229    6.1958   12.4732 C   0  0  0  0  0  0  0  0  0  0  0  0
   47.5948    9.6352   13.4234 N   0  0  0  0  0  0  0  0  0  0  0  0
   43.6192    4.8973   12.5188 C   0  0  0  0  0  0  0  0  0  0  0  0
   45.7255    4.0919   13.3106 C   0  0  0  0  0  0  0  0  0  0  0  0
   44.4118    3.8378   12.9381 C   0  0  0  0  0  0  0  0  0  0  0  0
   45.9528    7.8890   12.7756 C   0  0  1  0  0  0  0  0  0  0  0  0
   48.9514   10.0418   13.8241 C   0  0  0  0  0  0  0  0  0  0  0  0
   47.2958    8.1955   13.4910 C   0  0  0  0  0  0  0  0  0  0  0  0
   42.3351    4.6222   12.1505 O   0  0  0  0  0  0  0  0  0  0  0  0
   46.5518    3.0883   13.7260 O   0  0  0  0  0  0  0  0  0  0  0  0
   46.0918    8.2404   11.3890 O   0  0  0  0  0  0  0  0  0  0  0  0
   48.9322   11.5807   13.8902 C   0  0  0  0  0  0  0  0  0  0  0  0
   49.3397    9.4999   15.2090 C   0  0  0  0  0  0  0  0  0  0  0  0
   49.9968    9.6132   12.7807 C   0  0  0  0  0  0  0  0  0  0  0  0
   46.9515    8.0278   13.0970 S   0  0  0  0  0  0  0  0  0  0  0  0
   46.0947    6.6722   13.1350 O   0  0  0  0  0  0  0  0  0  0  0  0
   48.0641    7.7232   14.2117 O   0  0  0  0  0  0  0  0  0  0  0  0
   47.6462    8.0893   11.8362 O   0  0  0  0  0  0  0  0  0  0  0  0
   46.0863    9.0684   13.5908 O   0  0  0  0  0  0  0  0  0  0  0  0
   45.6847    6.9525   11.8882 C   0  0  0  0  0  0  0  0  0  0  0  0
   45.9323    6.6482   10.5415 C   0  0  0  0  0  0  0  0  0  0  0  0
   45.0452    5.9937   12.6923 C   0  0  0  0  0  0  0  0  0  0  0  0
   47.7752    9.4823   13.8619 N   0  0  0  0  0  0  0  0  0  0  0  0
   44.6640    4.7691   12.1476 C   0  0  0  0  0  0  0  0  0  0  0  0
   45.5423    5.4185   10.0176 C   0  0  0  0  0  0  0  0  0  0  0  0
   44.9074    4.4716   10.8121 C   0  0  0  0  0  0  0  0  0  0  0  0
   46.1180    8.2862   12.4575 C   0  0  2  0  0  0  0  0  0  0  0  0
   48.7967    9.4958   14.9220 C   0  0  0  0  0  0  0  0  0  0  0  0
   47.3525    8.1559   13.3835 C   0  0  0  0  0  0  0  0  0  0  0  0
   44.0390    3.8216   12.9040 O   0  0  0  0  0  0  0  0  0  0  0  0
   45.8051    5.1797    8.7010 O   0  0  0  0  0  0  0  0  0  0  0  0
   45.0278    8.8595   13.1949 O   0  0  0  0  0  0  0  0  0  0  0  0
   49.2260   10.9669   15.0797 C   0  0  0  0  0  0  0  0  0  0  0  0
   48.2221    9.0107   16.2638 C   0  0  0  0  0  0  0  0  0  0  0  0
   50.0352    8.6650   14.5511 C   0  0  0  0  0  0  0  0  0  0  0  0
   47.2858    5.5214   13.5682 H   0  0  0  0  0  0  0  0  0  0  0  0
   43.4956    7.0183   12.1360 H   0  0  0  0  0  0  0  0  0  0  0  0
   47.4024    9.9477   12.4662 H   0  0  0  0  0  0  0  0  0  0  0  0
   43.9955    2.8373   12.9638 H   0  0  0  0  0  0  0  0  0  0  0  0
   45.1831    8.5455   13.2019 H   0  0  0  0  0  0  0  0  0  0  0  0
   48.0914    7.6295   12.9953 H   0  0  0  0  0  0  0  0  0  0  0  0
   47.2303    7.8792   14.5378 H   0  0  0  0  0  0  0  0  0  0  0  0
   41.9047    5.4499   11.8787 H   0  0  0  0  0  0  0  0  0  0  0  0
   46.0495    2.2561   13.7229 H   0  0  0  0  0  0  0  0  0  0  0  0
   46.3177    7.4259   10.9075 H   0  0  0  0  0  0  0  0  0  0  0  0
   48.6788   12.0222   12.9188 H   0  0  0  0  0  0  0  0  0  0  0  0
   49.9115   11.9759   14.1839 H   0  0  0  0  0  0  0  0  0  0  0  0
   48.1991   11.9400   14.6225 H   0  0  0  0  0  0  0  0  0  0  0  0
   50.2990    9.9172   15.5381 H   0  0  0  0  0  0  0  0  0  0  0  0
   49.4488    8.4096   15.2054 H   0  0  0  0  0  0  0  0  0  0  0  0
   48.5904    9.7631   15.9650 H   0  0  0  0  0  0  0  0  0  0  0  0
   50.9834   10.0258   13.0236 H   0  0  0  0  0  0  0  0  0  0  0  0
   49.7304    9.9701   11.7791 H   0  0  0  0  0  0  0  0  0  0  0  0
   50.1052    8.5250   12.7301 H   0  0  0  0  0  0  0  0  0  0  0  0
   45.4000    6.7893   13.8153 H   0  0  0  0  0  0  0  0  0  0  0  0
   48.8002    7.2573   13.7637 H   0  0  0  0  0  0  0  0  0  0  0  0
   46.4313    7.3642    9.8923 H   0  0  0  0  0  0  0  0  0  0  0  0
   44.8514    6.2188   13.7382 H   0  0  0  0  0  0  0  0  0  0  0  0
   46.9345    9.9730   14.1827 H   0  0  0  0  0  0  0  0  0  0  0  0
   44.5993    3.5104   10.4155 H   0  0  0  0  0  0  0  0  0  0  0  0
   46.3445    8.9835   11.6411 H   0  0  0  0  0  0  0  0  0  0  0  0
   47.0882    7.5177   14.2331 H   0  0  0  0  0  0  0  0  0  0  0  0
   48.1674    7.6772   12.8294 H   0  0  0  0  0  0  0  0  0  0  0  0
   43.9278    4.1660   13.8060 H   0  0  0  0  0  0  0  0  0  0  0  0
   45.4816    4.2909    8.4782 H   0  0  0  0  0  0  0  0  0  0  0  0
   44.2476    8.7931   12.6175 H   0  0  0  0  0  0  0  0  0  0  0  0
   49.9890   11.0748   15.8594 H   0  0  0  0  0  0  0  0  0  0  0  0
   48.3798   11.6062   15.3573 H   0  0  0  0  0  0  0  0  0  0  0  0
   49.6505   11.3611   14.1486 H   0  0  0  0  0  0  0  0  0  0  0  0
   48.9545    9.1350   17.0706 H   0  0  0  0  0  0  0  0  0  0  0  0
   47.9516    7.9506   16.2364 H   0  0  0  0  0  0  0  0  0  0  0  0
   47.3273    9.5782   16.5440 H   0  0  0  0  0  0  0  0  0  0  0  0
   50.8357    8.8048   15.2878 H   0  0  0  0  0  0  0  0  0  0  0  0
   49.8130    7.5933   14.5177 H   0  0  0  0  0  0  0  0  0  0  0  0
   50.4340    8.9593   13.5732 H   0  0  0  0  0  0  0  0  0  0  0  0
  2  1  2  0
  3  1  1  0
  4 10  1  0
  5  3  2  0
  6  2  1  0
  7  5  1  0
  8  1  1  0
  9  4  1  0
 10  8  1  0
 11  5  1  0
 12  6  1  0
 13  8  1  0
 14  9  1  0
 15  9  1  0
 16  9  1  0
  6  7  2  0
 18 17  1  0
 19 17  1  0
 20 17  2  0
 21 17  2  0
 23 22  2  0
 24 22  1  0
 25 31  1  0
 26 24  2  0
 27 23  1  0
 28 26  1  0
 29 22  1  0
 30 25  1  0
 31 29  1  0
 32 26  1  0
 33 27  1  0
 34 29  1  0
 35 30  1  0
 36 30  1  0
 37 30  1  0
 27 28  2  0
  2 38  1  0
  3 39  1  0
  4 40  1  0
  7 41  1  0
  8 42  1  6
 10 43  1  0
 10 44  1  0
 11 45  1  0
 12 46  1  0
 13 47  1  0
 14 48  1  0
 14 49  1  0
 14 50  1  0
 15 51  1  0
 15 52  1  0
 15 53  1  0
 16 54  1  0
 16 55  1  0
 16 56  1  0
 18 57  1  0
 19 58  1  0
 23 59  1  0
 24 60  1  0
 25 61  1  0
 28 62  1  0
 29 63  1  6
 31 64  1  0
 31 65  1  0
 32 66  1  0
 33 67  1  0
 34 68  1  0
 35 69  1  0
 35 70  1  0
 35 71  1  0
 36 72  1  0
 36 73  1  0
 36 74  1  0
 37 75  1  0
 37 76  1  0
 37 77  1  0
M  END
> <Uni-Dock RESULT> 
ENERGY=   -5.809  LOWER_BOUND=    0.000  UPPER_BOUND=    0.000
INTER + INTRA:          -5.809
INTER:                  -5.809
INTRA:                   0.000
UNBOUND:                 0.000

$$$$

     RDKit          3D

 77 76  0  0  0  0  0  0  0  0999 V2000
   40.6139   10.8054   10.5245 C   0  0  0  0  0  0  0  0  0  0  0  0
   39.8241   11.7008    9.7889 C   0  0  0  0  0  0  0  0  0  0  0  0
   39.9661    9.7984   11.2660 C   0  0  0  0  0  0  0  0  0  0  0  0
   44.2841   11.6747    9.6470 N   0  0  0  0  0  0  0  0  0  0  0  0
   38.5767    9.6930   11.2500 C   0  0  0  0  0  0  0  0  0  0  0  0
   38.4355   11.5766    9.7856 C   0  0  0  0  0  0  0  0  0  0  0  0
   37.8016   10.5761   10.5112 C   0  0  0  0  0  0  0  0  0  0  0  0
   42.1274   10.8838   10.5894 C   0  0  1  0  0  0  0  0  0  0  0  0
   45.0764   12.6622    8.8965 C   0  0  0  0  0  0  0  0  0  0  0  0
   42.8208   11.7875    9.5349 C   0  0  0  0  0  0  0  0  0  0  0  0
   37.9315    8.7239   11.9606 O   0  0  0  0  0  0  0  0  0  0  0  0
   37.7238   12.4757    9.0458 O   0  0  0  0  0  0  0  0  0  0  0  0
   42.5013   11.3502   11.8963 O   0  0  0  0  0  0  0  0  0  0  0  0
   46.5402   12.1910    8.9875 C   0  0  0  0  0  0  0  0  0  0  0  0
   44.6774   12.7276    7.4136 C   0  0  0  0  0  0  0  0  0  0  0  0
   44.9758   14.0603    9.5293 C   0  0  0  0  0  0  0  0  0  0  0  0
   42.5574   11.6476    9.9964 S   0  0  0  0  0  0  0  0  0  0  0  0
   41.0086   11.2407   10.0888 O   0  0  0  0  0  0  0  0  0  0  0  0
   42.5997   12.3879    8.5739 O   0  0  0  0  0  0  0  0  0  0  0  0
   42.8200   12.6590   10.9884 O   0  0  0  0  0  0  0  0  0  0  0  0
   43.2949   10.4147    9.8893 O   0  0  0  0  0  0  0  0  0  0  0  0
   41.1516   11.1856   11.4220 C   0  0  0  0  0  0  0  0  0  0  0  0
   40.9318   11.9222   12.5954 C   0  0  0  0  0  0  0  0  0  0  0  0
   40.0478   10.6213   10.7602 C   0  0  0  0  0  0  0  0  0  0  0  0
   44.1927   11.7422    9.1620 N   0  0  0  0  0  0  0  0  0  0  0  0
   38.7641   10.7930   11.2744 C   0  0  0  0  0  0  0  0  0  0  0  0
   39.6407   12.0807   13.0918 C   0  0  0  0  0  0  0  0  0  0  0  0
   38.5495   11.5203   12.4389 C   0  0  0  0  0  0  0  0  0  0  0  0
   42.5550   11.0225   10.8794 C   0  0  2  0  0  0  0  0  0  0  0  0
   44.5114   12.3278    7.8494 C   0  0  0  0  0  0  0  0  0  0  0  0
   42.7996   11.8841    9.6159 C   0  0  0  0  0  0  0  0  0  0  0  0
   37.6752   10.2537   10.6545 O   0  0  0  0  0  0  0  0  0  0  0  0
   39.4880   12.8031   14.2383 O   0  0  0  0  0  0  0  0  0  0  0  0
   42.7800    9.6401   10.5642 O   0  0  0  0  0  0  0  0  0  0  0  0
   46.0440   12.2529    7.7116 C   0  0  0  0  0  0  0  0  0  0  0  0
   43.8803   11.5187    6.7036 C   0  0  0  0  0  0  0  0  0  0  0  0
   44.0856   13.8009    7.7474 C   0  0  0  0  0  0  0  0  0  0  0  0
   40.2647   12.5062    9.2076 H   0  0  0  0  0  0  0  0  0  0  0  0
   40.5643    9.1056   11.8542 H   0  0  0  0  0  0  0  0  0  0  0  0
   44.5232   11.7158   10.6430 H   0  0  0  0  0  0  0  0  0  0  0  0
   36.7227   10.4723   10.5164 H   0  0  0  0  0  0  0  0  0  0  0  0
   42.5263    9.8669   10.4806 H   0  0  0  0  0  0  0  0  0  0  0  0
   42.5158   12.8244    9.7104 H   0  0  0  0  0  0  0  0  0  0  0  0
   42.5015   11.4855    8.5314 H   0  0  0  0  0  0  0  0  0  0  0  0
   38.5933    8.1873   12.4279 H   0  0  0  0  0  0  0  0  0  0  0  0
   36.7799   12.2558    9.1204 H   0  0  0  0  0  0  0  0  0  0  0  0
   41.7897   11.9365   12.2066 H   0  0  0  0  0  0  0  0  0  0  0  0
   46.8844   12.1451   10.0278 H   0  0  0  0  0  0  0  0  0  0  0  0
   47.2093   12.8739    8.4513 H   0  0  0  0  0  0  0  0  0  0  0  0
   46.6669   11.1939    8.5487 H   0  0  0  0  0  0  0  0  0  0  0  0
   45.3617   13.3748    6.8520 H   0  0  0  0  0  0  0  0  0  0  0  0
   43.6688   13.1342    7.2794 H   0  0  0  0  0  0  0  0  0  0  0  0
   44.7075   11.7353    6.9481 H   0  0  0  0  0  0  0  0  0  0  0  0
   45.6635   14.7609    9.0407 H   0  0  0  0  0  0  0  0  0  0  0  0
   45.2352   14.0360   10.5941 H   0  0  0  0  0  0  0  0  0  0  0  0
   43.9688   14.4807    9.4400 H   0  0  0  0  0  0  0  0  0  0  0  0
   40.9153   10.3630    9.6645 H   0  0  0  0  0  0  0  0  0  0  0  0
   42.3728   13.3277    8.7318 H   0  0  0  0  0  0  0  0  0  0  0  0
   41.7624   12.3784   13.1293 H   0  0  0  0  0  0  0  0  0  0  0  0
   40.2073   10.0510    9.8485 H   0  0  0  0  0  0  0  0  0  0  0  0
   44.4120   10.7410    9.1587 H   0  0  0  0  0  0  0  0  0  0  0  0
   37.5394   11.6372   12.8158 H   0  0  0  0  0  0  0  0  0  0  0  0
   43.2865   11.2902   11.6524 H   0  0  0  0  0  0  0  0  0  0  0  0
   42.1135   11.5550    8.8285 H   0  0  0  0  0  0  0  0  0  0  0  0
   42.5836   12.9323    9.8494 H   0  0  0  0  0  0  0  0  0  0  0  0
   37.9729    9.7704    9.8657 H   0  0  0  0  0  0  0  0  0  0  0  0
   38.5427   12.8307   14.4619 H   0  0  0  0  0  0  0  0  0  0  0  0
   42.4834    9.1350   11.3411 H   0  0  0  0  0  0  0  0  0  0  0  0
   46.3755   12.6667    6.7520 H   0  0  0  0  0  0  0  0  0  0  0  0
   46.4035   11.2186    7.7652 H   0  0  0  0  0  0  0  0  0  0  0  0
   46.5446   12.8216    8.5044 H   0  0  0  0  0  0  0  0  0  0  0  0
   44.2185   11.8915    5.7292 H   0  0  0  0  0  0  0  0  0  0  0  0
   42.7877   11.5806    6.7094 H   0  0  0  0  0  0  0  0  0  0  0  0
   44.1568   10.4597    6.7625 H   0  0  0  0  0  0  0  0  0  0  0  0
   44.4586   14.2533    6.8205 H   0  0  0  0  0  0  0  0  0  0  0  0
   42.9962   13.9116    7.7432 H   0  0  0  0  0  0  0  0  0  0  0  0
   44.4831   14.3892    8.5829 H   0  0  0  0  0  0  0  0  0  0  0  0
  2  1  2  0
  3  1  1  0
  4 10  1  0
  5  3  2  0
  6  2  1  0
  7  5  1  0
  8  1  1  0
  9  4  1  0
 10  8  1  0
 11  5  1  0
 12  6  1  0
 13  8  1  0
 14  9  1  0
 15  9  1  0
 16  9  1  0
  6  7  2  0
 18 17  1  0
 19 17  1  0
 20 17  2  0
 21 17  2  0
 23 22  2  0
 24 22  1  0
 25 31  1  0
 26 24  2  0
 27 23  1  0
 28 26  1  0
 29 22  1  0
 30 25  1  0
 31 29  1  0
 32 26  1  0
 33 27  1  0
 34 29  1  0
 35 30  1  0
 36 30  1  0
 37 30  1  0
 27 28  2  0
  2 38  1  0
  3 39  1  0
  4 40  1  0
  7 41  1  0
  8 42  1  6
 10 43  1  0
 10 44  1  0
 11 45  1  0
 12 46  1  0
 13 47  1  0
 14 48  1  0
 14 49  1  0
 14 50  1  0
 15 51  1  0
 15 52  1  0
 15 53  1  0
 16 54  1  0
 16 55  1  0
 16 56  1  0
 18 57  1  0
 19 58  1  0
 23 59  1  0
 24 60  1  0
 25 61  1  0
 28 62  1  0
 29 63  1  6
 31 64  1  0
 31 65  1  0
 32 66  1  0
 33 67  1  0
 34 68  1  0
 35 69  1  0
 35 70  1  0
 35 71  1  0
 36 72  1  0
 36 73  1  0
 36 74  1  0
 37 75  1  0
 37 76  1  0
 37 77  1  0
M  END
> <Uni-Dock RESULT> 
ENERGY=   -5.542  LOWER_BOUND=    6.329  UPPER_BOUND=    8.009
INTER + INTRA:          -5.542
INTER:                  -5.542
INTRA:                   0.000
UNBOUND:                 0.000

$$$$

     RDKit          3D

 77 76  0  0  0  0  0  0  0  0999 V2000
   43.8597   11.4349   11.0974 C   0  0  0  0  0  0  0  0  0  0  0  0
   43.8339   12.8047   11.3967 C   0  0  0  0  0  0  0  0  0  0  0  0
   45.1022   10.7720   11.1129 C   0  0  0  0  0  0  0  0  0  0  0  0
   40.1558   10.3719   10.7148 N   0  0  0  0  0  0  0  0  0  0  0  0
   46.2680   11.4646   11.4341 C   0  0  0  0  0  0  0  0  0  0  0  0
   45.0119   13.4782   11.7169 C   0  0  0  0  0  0  0  0  0  0  0  0
   46.2337   12.8181   11.7399 C   0  0  0  0  0  0  0  0  0  0  0  0
   42.6245   10.6364   10.7263 C   0  0  1  0  0  0  0  0  0  0  0  0
   38.7996   10.9434   10.6904 C   0  0  0  0  0  0  0  0  0  0  0  0
   41.2538   11.3041   11.0178 C   0  0  0  0  0  0  0  0  0  0  0  0
   47.4801   10.8397   11.4557 O   0  0  0  0  0  0  0  0  0  0  0  0
   44.9192   14.8091   12.0036 O   0  0  0  0  0  0  0  0  0  0  0  0
   42.6866   10.3317    9.3232 O   0  0  0  0  0  0  0  0  0  0  0  0
   37.8353    9.7463   10.5896 C   0  0  0  0  0  0  0  0  0  0  0  0
   38.4714   11.7263   11.9718 C   0  0  0  0  0  0  0  0  0  0  0  0
   38.5908   11.8407    9.4590 C   0  0  0  0  0  0  0  0  0  0  0  0
   41.7190   11.1837   10.7514 S   0  0  0  0  0  0  0  0  0  0  0  0
   43.1807   11.6981   11.1661 O   0  0  0  0  0  0  0  0  0  0  0  0
   40.7878   12.2141   11.5540 O   0  0  0  0  0  0  0  0  0  0  0  0
   41.5209   11.4628    9.3518 O   0  0  0  0  0  0  0  0  0  0  0  0
   41.5660    9.8783   11.3411 O   0  0  0  0  0  0  0  0  0  0  0  0
   43.6499   11.1160   10.0516 C   0  0  0  0  0  0  0  0  0  0  0  0
   44.0306   11.3902    8.7297 C   0  0  0  0  0  0  0  0  0  0  0  0
   44.4935   11.5262   11.0980 C   0  0  0  0  0  0  0  0  0  0  0  0
   39.9981   10.6413   11.1030 N   0  0  0  0  0  0  0  0  0  0  0  0
   45.6866   12.1873   10.8133 C   0  0  0  0  0  0  0  0  0  0  0  0
   45.2276   12.0515    8.4679 C   0  0  0  0  0  0  0  0  0  0  0  0
   46.0630   12.4546    9.5025 C   0  0  0  0  0  0  0  0  0  0  0  0
   42.3438   10.4053   10.3339 C   0  0  2  0  0  0  0  0  0  0  0  0
   38.9502   11.3638   11.8428 C   0  0  0  0  0  0  0  0  0  0  0  0
   41.2668   11.3610   10.9041 C   0  0  0  0  0  0  0  0  0  0  0  0
   46.5258   12.5937   11.8089 O   0  0  0  0  0  0  0  0  0  0  0  0
   45.5479   12.2872    7.1635 O   0  0  0  0  0  0  0  0  0  0  0  0
   42.5795    9.3414   11.2685 O   0  0  0  0  0  0  0  0  0  0  0  0
   37.6750   10.5086   11.7170 C   0  0  0  0  0  0  0  0  0  0  0  0
   39.3024   11.4947   13.3343 C   0  0  0  0  0  0  0  0  0  0  0  0
   38.6654   12.7517   11.2476 C   0  0  0  0  0  0  0  0  0  0  0  0
   42.9082   13.3736   11.3885 H   0  0  0  0  0  0  0  0  0  0  0  0
   45.1408    9.7127   10.8676 H   0  0  0  0  0  0  0  0  0  0  0  0
   40.3658    9.9265    9.8157 H   0  0  0  0  0  0  0  0  0  0  0  0
   47.1552   13.3331   11.9859 H   0  0  0  0  0  0  0  0  0  0  0  0
   42.6600    9.6824   11.2682 H   0  0  0  0  0  0  0  0  0  0  0  0
   41.1622   12.1984   10.3926 H   0  0  0  0  0  0  0  0  0  0  0  0
   41.2100   11.5984   12.0721 H   0  0  0  0  0  0  0  0  0  0  0  0
   47.3535    9.9057   11.2196 H   0  0  0  0  0  0  0  0  0  0  0  0
   45.8065   15.1376   12.2267 H   0  0  0  0  0  0  0  0  0  0  0  0
   43.1625   11.0620    8.8914 H   0  0  0  0  0  0  0  0  0  0  0  0
   38.0133    9.1615    9.6790 H   0  0  0  0  0  0  0  0  0  0  0  0
   36.7916   10.0806   10.5650 H   0  0  0  0  0  0  0  0  0  0  0  0
   37.9449    9.0717   11.4473 H   0  0  0  0  0  0  0  0  0  0  0  0
   37.4188   12.0338   11.9841 H   0  0  0  0  0  0  0  0  0  0  0  0
   39.0728   12.6379   12.0589 H   0  0  0  0  0  0  0  0  0  0  0  0
   38.6462   11.1178   12.8670 H   0  0  0  0  0  0  0  0  0  0  0  0
   37.5450   12.1616    9.3820 H   0  0  0  0  0  0  0  0  0  0  0  0
   38.8395   11.3106    8.5323 H   0  0  0  0  0  0  0  0  0  0  0  0
   39.2045   12.7463    9.5012 H   0  0  0  0  0  0  0  0  0  0  0  0
   43.4276   11.2305   11.9904 H   0  0  0  0  0  0  0  0  0  0  0  0
   40.6640   12.9977   10.9793 H   0  0  0  0  0  0  0  0  0  0  0  0
   43.3983   11.0931    7.8960 H   0  0  0  0  0  0  0  0  0  0  0  0
   44.2060   11.3210   12.1262 H   0  0  0  0  0  0  0  0  0  0  0  0
   40.2180    9.7619   11.5812 H   0  0  0  0  0  0  0  0  0  0  0  0
   46.9975   12.9705    9.3111 H   0  0  0  0  0  0  0  0  0  0  0  0
   41.9686    9.9372    9.4151 H   0  0  0  0  0  0  0  0  0  0  0  0
   41.6236   11.7625   11.8583 H   0  0  0  0  0  0  0  0  0  0  0  0
   41.1227   12.1947   10.2083 H   0  0  0  0  0  0  0  0  0  0  0  0
   46.1432   12.3356   12.6642 H   0  0  0  0  0  0  0  0  0  0  0  0
   46.4006   12.7526    7.1347 H   0  0  0  0  0  0  0  0  0  0  0  0
   43.3508    8.8531   10.9320 H   0  0  0  0  0  0  0  0  0  0  0  0
   36.8345   10.9715   12.2473 H   0  0  0  0  0  0  0  0  0  0  0  0
   37.8181    9.5069   12.1390 H   0  0  0  0  0  0  0  0  0  0  0  0
   37.3758   10.3894   10.6688 H   0  0  0  0  0  0  0  0  0  0  0  0
   38.4665   11.9280   13.8969 H   0  0  0  0  0  0  0  0  0  0  0  0
   40.1690   12.1429   13.4971 H   0  0  0  0  0  0  0  0  0  0  0  0
   39.5251   10.5184   13.7797 H   0  0  0  0  0  0  0  0  0  0  0  0
   37.7895   13.2097   11.7231 H   0  0  0  0  0  0  0  0  0  0  0  0
   39.5057   13.4386   11.3931 H   0  0  0  0  0  0  0  0  0  0  0  0
   38.4603   12.6896   10.1724 H   0  0  0  0  0  0  0  0  0  0  0  0
  2  1  2  0
  3  1  1  0
  4 10  1  0
  5  3  2  0
  6  2  1  0
  7  5  1  0
  8  1  1  0
  9  4  1  0
 10  8  1  0
 11  5  1  0
 12  6  1  0
 13  8  1  0
 14  9  1  0
 15  9  1  0
 16  9  1  0
  6  7  2  0
 18 17  1  0
 19 17  1  0
 20 17  2  0
 21 17  2  0
 23 22  2  0
 24 22  1  0
 25 31  1  0
 26 24  2  0
 27 23  1  0
 28 26  1  0
 29 22  1  0
 30 25  1  0
 31 29  1  0
 32 26  1  0
 33 27  1  0
 34 29  1  0
 35 30  1  0
 36 30  1  0
 37 30  1  0
 27 28  2  0
  2 38  1  0
  3 39  1  0
  4 40  1  0
  7 41  1  0
  8 42  1  6
 10 43  1  0
 10 44  1  0
 11 45  1  0
 12 46  1  0
 13 47  1  0
 14 48  1  0
 14 49  1  0
 14 50  1  0
 15 51  1  0
 15 52  1  0
 15 53  1  0
 16 54  1  0
 16 55  1  0
 16 56  1  0
 18 57  1  0
 19 58  1  0
 23 59  1  0
 24 60  1  0
 25 61  1  0
 28 62  1  0
 29 63  1  6
 31 64  1  0
 31 65  1  0
 32 66  1  0
 33 67  1  0
 34 68  1  0
 35 69  1  0
 35 70  1  0
 35 71  1  0
 36 72  1  0
 36 73  1  0
 36 74  1  0
 37 75  1  0
 37 76  1  0
 37 77  1  0
M  END
> <Uni-Dock RESULT> 
ENERGY=   -5.351  LOWER_BOUND=    5.768  UPPER_BOUND=    8.293
INTER + INTRA:          -5.351
INTER:                  -5.351
INTRA:                   0.000
UNBOUND:                 0.000

$$$$

     RDKit          3D

 77 76  0  0  0  0  0  0  0  0999 V2000
   47.9066    8.7877   12.0339 C   0  0  0  0  0  0  0  0  0  0  0  0
   48.9433    7.8676   11.8212 C   0  0  0  0  0  0  0  0  0  0  0  0
   48.2221   10.1603   12.0320 C   0  0  0  0  0  0  0  0  0  0  0  0
   44.6538    6.6917   12.1813 N   0  0  0  0  0  0  0  0  0  0  0  0
   49.5307   10.5836   11.8082 C   0  0  0  0  0  0  0  0  0  0  0  0
   50.2455    8.3127   11.5978 C   0  0  0  0  0  0  0  0  0  0  0  0
   50.5501    9.6678   11.5877 C   0  0  0  0  0  0  0  0  0  0  0  0
   46.4690    8.3817   12.2976 C   0  0  1  0  0  0  0  0  0  0  0  0
   44.1945    5.2933   12.1810 C   0  0  0  0  0  0  0  0  0  0  0  0
   46.0970    6.9069   11.9878 C   0  0  0  0  0  0  0  0  0  0  0  0
   49.8554   11.9083   11.8014 O   0  0  0  0  0  0  0  0  0  0  0  0
   51.2083    7.3677   11.3922 O   0  0  0  0  0  0  0  0  0  0  0  0
   46.1718    8.6393   13.6799 O   0  0  0  0  0  0  0  0  0  0  0  0
   42.6553    5.3512   12.1622 C   0  0  0  0  0  0  0  0  0  0  0  0
   44.6679    4.5221   10.9386 C   0  0  0  0  0  0  0  0  0  0  0  0
   44.6376    4.5568   13.4564 C   0  0  0  0  0  0  0  0  0  0  0  0
   46.2902    7.3391   12.2667 S   0  0  0  0  0  0  0  0  0  0  0  0
   47.6656    8.1020   11.9515 O   0  0  0  0  0  0  0  0  0  0  0  0
   46.5181    5.9541   11.4901 O   0  0  0  0  0  0  0  0  0  0  0  0
   46.2622    7.0174   13.6709 O   0  0  0  0  0  0  0  0  0  0  0  0
   45.2536    8.0751   11.5889 O   0  0  0  0  0  0  0  0  0  0  0  0
   47.4484    8.8465   13.0468 C   0  0  0  0  0  0  0  0  0  0  0  0
   47.8015    8.9644   14.3992 C   0  0  0  0  0  0  0  0  0  0  0  0
   48.3900    9.2063   12.0675 C   0  0  0  0  0  0  0  0  0  0  0  0
   44.7835    6.3930   11.8043 N   0  0  0  0  0  0  0  0  0  0  0  0
   49.6459    9.6757   12.4469 C   0  0  0  0  0  0  0  0  0  0  0  0
   49.0619    9.4364   14.7559 C   0  0  0  0  0  0  0  0  0  0  0  0
   49.9918    9.7947   13.7876 C   0  0  0  0  0  0  0  0  0  0  0  0
   46.0811    8.3245   12.6615 C   0  0  2  0  0  0  0  0  0  0  0  0
   44.6986    5.1223   11.0656 C   0  0  0  0  0  0  0  0  0  0  0  0
   46.1395    6.8802   12.1053 C   0  0  0  0  0  0  0  0  0  0  0  0
   50.5778   10.0350   11.5178 O   0  0  0  0  0  0  0  0  0  0  0  0
   49.3478    9.5338   16.0857 O   0  0  0  0  0  0  0  0  0  0  0  0
   45.5073    9.1928   11.6727 O   0  0  0  0  0  0  0  0  0  0  0  0
   43.2111    4.7215   11.0794 C   0  0  0  0  0  0  0  0  0  0  0  0
   45.1429    5.2907    9.6028 C   0  0  0  0  0  0  0  0  0  0  0  0
   45.5102    4.0018   11.7344 C   0  0  0  0  0  0  0  0  0  0  0  0
   48.7649    6.7958   11.8240 H   0  0  0  0  0  0  0  0  0  0  0  0
   47.4315   10.8860   12.2111 H   0  0  0  0  0  0  0  0  0  0  0  0
   44.3866    7.1493   13.0589 H   0  0  0  0  0  0  0  0  0  0  0  0
   51.5595   10.0237   11.4166 H   0  0  0  0  0  0  0  0  0  0  0  0
   45.8164    9.0300   11.6983 H   0  0  0  0  0  0  0  0  0  0  0  0
   46.6614    6.2562   12.6638 H   0  0  0  0  0  0  0  0  0  0  0  0
   46.3713    6.6727   10.9534 H   0  0  0  0  0  0  0  0  0  0  0  0
   49.0516   12.4271   11.9717 H   0  0  0  0  0  0  0  0  0  0  0  0
   52.0532    7.8203   11.2306 H   0  0  0  0  0  0  0  0  0  0  0  0
   46.9991    8.5231   14.1781 H   0  0  0  0  0  0  0  0  0  0  0  0
   42.2613    5.8761   13.0409 H   0  0  0  0  0  0  0  0  0  0  0  0
   42.2220    4.3443   12.1610 H   0  0  0  0  0  0  0  0  0  0  0  0
   42.2859    5.8696   11.2691 H   0  0  0  0  0  0  0  0  0  0  0  0
   44.2115    3.5258   10.8985 H   0  0  0  0  0  0  0  0  0  0  0  0
   45.7540    4.3776   10.9366 H   0  0  0  0  0  0  0  0  0  0  0  0
   44.3939    5.0462   10.0152 H   0  0  0  0  0  0  0  0  0  0  0  0
   44.1887    3.5575   13.5065 H   0  0  0  0  0  0  0  0  0  0  0  0
   44.3298    5.0994   14.3578 H   0  0  0  0  0  0  0  0  0  0  0  0
   45.7237    4.4258   13.4994 H   0  0  0  0  0  0  0  0  0  0  0  0
   47.5392    8.5886   11.1111 H   0  0  0  0  0  0  0  0  0  0  0  0
   46.9821    5.3513   12.1072 H   0  0  0  0  0  0  0  0  0  0  0  0
   47.0998    8.6884   15.1831 H   0  0  0  0  0  0  0  0  0  0  0  0
   48.1271    9.1158   11.0165 H   0  0  0  0  0  0  0  0  0  0  0  0
   44.3027    7.1320   11.2816 H   0  0  0  0  0  0  0  0  0  0  0  0
   50.9766   10.1633   14.0532 H   0  0  0  0  0  0  0  0  0  0  0  0
   45.4123    8.3554   13.5309 H   0  0  0  0  0  0  0  0  0  0  0  0
   46.7489    6.8788   11.1955 H   0  0  0  0  0  0  0  0  0  0  0  0
   46.6185    6.2301   12.8456 H   0  0  0  0  0  0  0  0  0  0  0  0
   50.1995    9.9087   10.6316 H   0  0  0  0  0  0  0  0  0  0  0  0
   50.2536    9.8725   16.1824 H   0  0  0  0  0  0  0  0  0  0  0  0
   45.6186   10.0979   12.0119 H   0  0  0  0  0  0  0  0  0  0  0  0
   43.0504    3.7793   10.5424 H   0  0  0  0  0  0  0  0  0  0  0  0
   42.5839    5.4831   10.6015 H   0  0  0  0  0  0  0  0  0  0  0  0
   42.8445    4.5819   12.1035 H   0  0  0  0  0  0  0  0  0  0  0  0
   44.9655    4.3713    9.0319 H   0  0  0  0  0  0  0  0  0  0  0  0
   46.2102    5.5187    9.5206 H   0  0  0  0  0  0  0  0  0  0  0  0
   44.5887    6.0957    9.1067 H   0  0  0  0  0  0  0  0  0  0  0  0
   45.3185    3.0365   11.2501 H   0  0  0  0  0  0  0  0  0  0  0  0
   46.5880    4.1846   11.6707 H   0  0  0  0  0  0  0  0  0  0  0  0
   45.2460    3.8960   12.7932 H   0  0  0  0  0  0  0  0  0  0  0  0
  2  1  2  0
  3  1  1  0
  4 10  1  0
  5  3  2  0
  6  2  1  0
  7  5  1  0
  8  1  1  0
  9  4  1  0
 10  8  1  0
 11  5  1  0
 12  6  1  0
 13  8  1  0
 14  9  1  0
 15  9  1  0
 16  9  1  0
  6  7  2  0
 18 17  1  0
 19 17  1  0
 20 17  2  0
 21 17  2  0
 23 22  2  0
 24 22  1  0
 25 31  1  0
 26 24  2  0
 27 23  1  0
 28 26  1  0
 29 22  1  0
 30 25  1  0
 31 29  1  0
 32 26  1  0
 33 27  1  0
 34 29  1  0
 35 30  1  0
 36 30  1  0
 37 30  1  0
 27 28  2  0
  2 38  1  0
  3 39  1  0
  4 40  1  0
  7 41  1  0
  8 42  1  6
 10 43  1  0
 10 44  1  0
 11 45  1  0
 12 46  1  0
 13 47  1  0
 14 48  1  0
 14 49  1  0
 14 50  1  0
 15 51  1  0
 15 52  1  0
 15 53  1  0
 16 54  1  0
 16 55  1  0
 16 56  1  0
 18 57  1  0
 19 58  1  0
 23 59  1  0
 24 60  1  0
 25 61  1  0
 28 62  1  0
 29 63  1  6
 31 64  1  0
 31 65  1  0
 32 66  1  0
 33 67  1  0
 34 68  1  0
 35 69  1  0
 35 70  1  0
 35 71  1  0
 36 72  1  0
 36 73  1  0
 36 74  1  0
 37 75  1  0
 37 76  1  0
 37 77  1  0
M  END
> <Uni-Dock RESULT> 
ENERGY=   -5.341  LOWER_BOUND=    1.906  UPPER_BOUND=    6.120
INTER + INTRA:          -5.341
INTER:                  -5.341
INTRA:                   0.000
UNBOUND:                 0.000

$$$$

     RDKit          3D

 77 76  0  0  0  0  0  0  0  0999 V2000
   45.6607    5.1194   11.8320 C   0  0  0  0  0  0  0  0  0  0  0  0
   45.7527    5.3747   10.4561 C   0  0  0  0  0  0  0  0  0  0  0  0
   44.9694    3.9664   12.2517 C   0  0  0  0  0  0  0  0  0  0  0  0
   47.8061    7.8452   13.5533 N   0  0  0  0  0  0  0  0  0  0  0  0
   44.4085    3.0996   11.3158 C   0  0  0  0  0  0  0  0  0  0  0  0
   45.1855    4.4935    9.5366 C   0  0  0  0  0  0  0  0  0  0  0  0
   44.5126    3.3527    9.9551 C   0  0  0  0  0  0  0  0  0  0  0  0
   46.2386    6.0363   12.8932 C   0  0  1  0  0  0  0  0  0  0  0  0
   48.5721    9.0627   13.2413 C   0  0  0  0  0  0  0  0  0  0  0  0
   47.2464    7.1118   12.4063 C   0  0  0  0  0  0  0  0  0  0  0  0
   43.7366    1.9775   11.7028 O   0  0  0  0  0  0  0  0  0  0  0  0
   45.3140    4.7954    8.2120 O   0  0  0  0  0  0  0  0  0  0  0  0
   45.1521    6.7053   13.5545 O   0  0  0  0  0  0  0  0  0  0  0  0
   49.2338    9.4990   14.5621 C   0  0  0  0  0  0  0  0  0  0  0  0
   49.6773    8.8089   12.2037 C   0  0  0  0  0  0  0  0  0  0  0  0
   47.6515   10.1972   12.7609 C   0  0  0  0  0  0  0  0  0  0  0  0
   46.7631    6.8747   12.5166 S   0  0  0  0  0  0  0  0  0  0  0  0
   46.1093    5.6756   11.6755 O   0  0  0  0  0  0  0  0  0  0  0  0
   47.8489    7.4294   11.4742 O   0  0  0  0  0  0  0  0  0  0  0  0
   45.7762    7.9137   12.6664 O   0  0  0  0  0  0  0  0  0  0  0  0
   47.4616    6.2635   13.6184 O   0  0  0  0  0  0  0  0  0  0  0  0
   45.0217    5.7858   12.4540 C   0  0  0  0  0  0  0  0  0  0  0  0
   43.7326    6.3377   12.4920 C   0  0  0  0  0  0  0  0  0  0  0  0
   45.2538    4.6633   11.6410 C   0  0  0  0  0  0  0  0  0  0  0  0
   48.1737    7.8223   13.2179 N   0  0  0  0  0  0  0  0  0  0  0  0
   44.2120    4.1148   10.8957 C   0  0  0  0  0  0  0  0  0  0  0  0
   42.7061    5.7730   11.7396 C   0  0  0  0  0  0  0  0  0  0  0  0
   42.9351    4.6614   10.9379 C   0  0  0  0  0  0  0  0  0  0  0  0
   46.1379    6.4071   13.2656 C   0  0  2  0  0  0  0  0  0  0  0  0
   49.3189    8.4103   12.5037 C   0  0  0  0  0  0  0  0  0  0  0  0
   47.1442    7.1843   12.3812 C   0  0  0  0  0  0  0  0  0  0  0  0
   44.4082    3.0237   10.1009 O   0  0  0  0  0  0  0  0  0  0  0  0
   41.4727    6.3493   11.8192 O   0  0  0  0  0  0  0  0  0  0  0  0
   46.8316    5.3732   13.9804 O   0  0  0  0  0  0  0  0  0  0  0  0
   50.1174    9.1997   13.5584 C   0  0  0  0  0  0  0  0  0  0  0  0
   50.2338    7.3231   11.9149 C   0  0  0  0  0  0  0  0  0  0  0  0
   48.8811    9.3829   11.3972 C   0  0  0  0  0  0  0  0  0  0  0  0
   46.2618    6.2541   10.0714 H   0  0  0  0  0  0  0  0  0  0  0  0
   44.8759    3.7627   13.3164 H   0  0  0  0  0  0  0  0  0  0  0  0
   47.0315    8.0697   14.1861 H   0  0  0  0  0  0  0  0  0  0  0  0
   44.0669    2.6624    9.2481 H   0  0  0  0  0  0  0  0  0  0  0  0
   46.7423    5.4136   13.6440 H   0  0  0  0  0  0  0  0  0  0  0  0
   46.7204    7.8074   11.7442 H   0  0  0  0  0  0  0  0  0  0  0  0
   48.0537    6.6264   11.8471 H   0  0  0  0  0  0  0  0  0  0  0  0
   43.7396    1.9317   12.6735 H   0  0  0  0  0  0  0  0  0  0  0  0
   44.8931    4.0889    7.6938 H   0  0  0  0  0  0  0  0  0  0  0  0
   44.4382    6.8084   12.9018 H   0  0  0  0  0  0  0  0  0  0  0  0
   48.4862    9.7131   15.3355 H   0  0  0  0  0  0  0  0  0  0  0  0
   49.8308   10.4079   14.4237 H   0  0  0  0  0  0  0  0  0  0  0  0
   49.9030    8.7214   14.9497 H   0  0  0  0  0  0  0  0  0  0  0  0
   50.3113    9.6954   12.0820 H   0  0  0  0  0  0  0  0  0  0  0  0
   49.2646    8.5719   11.2168 H   0  0  0  0  0  0  0  0  0  0  0  0
   50.3271    7.9796   12.5075 H   0  0  0  0  0  0  0  0  0  0  0  0
   48.2109   11.1339   12.6498 H   0  0  0  0  0  0  0  0  0  0  0  0
   46.8410   10.3829   13.4752 H   0  0  0  0  0  0  0  0  0  0  0  0
   47.1972    9.9750   11.7900 H   0  0  0  0  0  0  0  0  0  0  0  0
   46.6432    4.8742   11.8533 H   0  0  0  0  0  0  0  0  0  0  0  0
   47.3945    8.0876   10.9085 H   0  0  0  0  0  0  0  0  0  0  0  0
   43.5193    7.2105   13.1049 H   0  0  0  0  0  0  0  0  0  0  0  0
   46.2501    4.2299   11.6024 H   0  0  0  0  0  0  0  0  0  0  0  0
   48.5043    7.1179   13.8850 H   0  0  0  0  0  0  0  0  0  0  0  0
   42.1437    4.2131   10.3473 H   0  0  0  0  0  0  0  0  0  0  0  0
   45.7173    7.0820   14.0216 H   0  0  0  0  0  0  0  0  0  0  0  0
   47.6112    6.4831   11.6817 H   0  0  0  0  0  0  0  0  0  0  0  0
   46.6034    7.9425   11.8044 H   0  0  0  0  0  0  0  0  0  0  0  0
   45.3368    2.7465   10.1752 H   0  0  0  0  0  0  0  0  0  0  0  0
   40.8637    5.8548   11.2456 H   0  0  0  0  0  0  0  0  0  0  0  0
   46.1441    4.8337   14.4081 H   0  0  0  0  0  0  0  0  0  0  0  0
   51.0005    9.6730   13.1133 H   0  0  0  0  0  0  0  0  0  0  0  0
   50.4667    8.5498   14.3693 H   0  0  0  0  0  0  0  0  0  0  0  0
   49.5099    9.9951   14.0065 H   0  0  0  0  0  0  0  0  0  0  0  0
   51.1422    7.7654   11.4882 H   0  0  0  0  0  0  0  0  0  0  0  0
   49.7431    6.7621   11.1135 H   0  0  0  0  0  0  0  0  0  0  0  0
   50.5483    6.6066   12.6822 H   0  0  0  0  0  0  0  0  0  0  0  0
   49.7446    9.9131   10.9775 H   0  0  0  0  0  0  0  0  0  0  0  0
   48.3892    8.8634   10.5682 H   0  0  0  0  0  0  0  0  0  0  0  0
   48.1874   10.1391   11.7831 H   0  0  0  0  0  0  0  0  0  0  0  0
  2  1  2  0
  3  1  1  0
  4 10  1  0
  5  3  2  0
  6  2  1  0
  7  5  1  0
  8  1  1  0
  9  4  1  0
 10  8  1  0
 11  5  1  0
 12  6  1  0
 13  8  1  0
 14  9  1  0
 15  9  1  0
 16  9  1  0
  6  7  2  0
 18 17  1  0
 19 17  1  0
 20 17  2  0
 21 17  2  0
 23 22  2  0
 24 22  1  0
 25 31  1  0
 26 24  2  0
 27 23  1  0
 28 26  1  0
 29 22  1  0
 30 25  1  0
 31 29  1  0
 32 26  1  0
 33 27  1  0
 34 29  1  0
 35 30  1  0
 36 30  1  0
 37 30  1  0
 27 28  2  0
  2 38  1  0
  3 39  1  0
  4 40  1  0
  7 41  1  0
  8 42  1  6
 10 43  1  0
 10 44  1  0
 11 45  1  0
 12 46  1  0
 13 47  1  0
 14 48  1  0
 14 49  1  0
 14 50  1  0
 15 51  1  0
 15 52  1  0
 15 53  1  0
 16 54  1  0
 16 55  1  0
 16 56  1  0
 18 57  1  0
 19 58  1  0
 23 59  1  0
 24 60  1  0
 25 61  1  0
 28 62  1  0
 29 63  1  6
 31 64  1  0
 31 65  1  0
 32 66  1  0
 33 67  1  0
 34 68  1  0
 35 69  1  0
 35 70  1  0
 35 71  1  0
 36 72  1  0
 36 73  1  0
 36 74  1  0
 37 75  1  0
 37 76  1  0
 37 77  1  0
M  END
> <Uni-Dock RESULT> 
ENERGY=   -5.172  LOWER_BOUND=    1.425  UPPER_BOUND=    2.854
INTER + INTRA:          -5.172
INTER:                  -5.172
INTRA:                   0.000
UNBOUND:                 0.000

$$$$

     RDKit          3D

 77 76  0  0  0  0  0  0  0  0999 V2000
   48.0207    7.6214   14.5009 C   0  0  0  0  0  0  0  0  0  0  0  0
   47.5340    6.5060   13.8040 C   0  0  0  0  0  0  0  0  0  0  0  0
   47.7659    8.9016   13.9721 C   0  0  0  0  0  0  0  0  0  0  0  0
   49.5642    6.2289   17.7680 N   0  0  0  0  0  0  0  0  0  0  0  0
   47.0347    9.0466   12.7948 C   0  0  0  0  0  0  0  0  0  0  0  0
   46.8034    6.6736   12.6284 C   0  0  0  0  0  0  0  0  0  0  0  0
   46.5468    7.9386   12.1157 C   0  0  0  0  0  0  0  0  0  0  0  0
   48.8344    7.5205   15.7770 C   0  0  1  0  0  0  0  0  0  0  0  0
   49.8725    4.9524   18.4327 C   0  0  0  0  0  0  0  0  0  0  0  0
   48.8322    6.1437   16.4938 C   0  0  0  0  0  0  0  0  0  0  0  0
   46.7768   10.2779   12.2680 O   0  0  0  0  0  0  0  0  0  0  0  0
   46.3530    5.5489   12.0003 O   0  0  0  0  0  0  0  0  0  0  0  0
   50.1959    7.8676   15.4748 O   0  0  0  0  0  0  0  0  0  0  0  0
   50.4163    5.3190   19.8265 C   0  0  0  0  0  0  0  0  0  0  0  0
   48.6266    4.0704   18.6128 C   0  0  0  0  0  0  0  0  0  0  0  0
   50.9616    4.1741   17.6754 C   0  0  0  0  0  0  0  0  0  0  0  0
   48.9757    6.5350   16.1358 S   0  0  0  0  0  0  0  0  0  0  0  0
   48.1017    6.9965   14.8724 O   0  0  0  0  0  0  0  0  0  0  0  0
   48.3121    5.1133   16.4699 O   0  0  0  0  0  0  0  0  0  0  0  0
   50.3160    6.2611   15.6835 O   0  0  0  0  0  0  0  0  0  0  0  0
   48.6577    7.4475   17.2042 O   0  0  0  0  0  0  0  0  0  0  0  0
   49.1198    7.7970   14.5206 C   0  0  0  0  0  0  0  0  0  0  0  0
   50.2281    7.8753   13.6643 C   0  0  0  0  0  0  0  0  0  0  0  0
   47.8320    7.9346   13.9752 C   0  0  0  0  0  0  0  0  0  0  0  0
   49.1978    5.9008   17.8468 N   0  0  0  0  0  0  0  0  0  0  0  0
   47.6733    8.1504   12.6078 C   0  0  0  0  0  0  0  0  0  0  0  0
   50.0465    8.0922   12.3010 C   0  0  0  0  0  0  0  0  0  0  0  0
   48.7731    8.2310   11.7623 C   0  0  0  0  0  0  0  0  0  0  0  0
   49.3195    7.5519   16.0006 C   0  0  2  0  0  0  0  0  0  0  0  0
   48.6729    4.6551   18.4303 C   0  0  0  0  0  0  0  0  0  0  0  0
   48.9279    6.1120   16.4152 C   0  0  0  0  0  0  0  0  0  0  0  0
   46.4354    8.2908   12.0522 O   0  0  0  0  0  0  0  0  0  0  0  0
   51.1606    8.1635   11.5179 O   0  0  0  0  0  0  0  0  0  0  0  0
   48.5303    8.4929   16.7441 O   0  0  0  0  0  0  0  0  0  0  0  0
   49.2736    4.5630   19.8459 C   0  0  0  0  0  0  0  0  0  0  0  0
   47.1403    4.6934   18.5542 C   0  0  0  0  0  0  0  0  0  0  0  0
   49.1038    3.4112   17.6375 C   0  0  0  0  0  0  0  0  0  0  0  0
   47.7091    5.4926   14.1547 H   0  0  0  0  0  0  0  0  0  0  0  0
   48.1502    9.7762   14.4929 H   0  0  0  0  0  0  0  0  0  0  0  0
   50.4281    6.7530   17.5953 H   0  0  0  0  0  0  0  0  0  0  0  0
   45.9812    8.0792   11.2018 H   0  0  0  0  0  0  0  0  0  0  0  0
   48.4563    8.2717   16.4826 H   0  0  0  0  0  0  0  0  0  0  0  0
   49.3140    5.4097   15.8395 H   0  0  0  0  0  0  0  0  0  0  0  0
   47.7984    5.8329   16.6803 H   0  0  0  0  0  0  0  0  0  0  0  0
   47.1786   10.9523   12.8407 H   0  0  0  0  0  0  0  0  0  0  0  0
   45.8472    5.8176   11.2149 H   0  0  0  0  0  0  0  0  0  0  0  0
   50.3633    7.5995   14.5548 H   0  0  0  0  0  0  0  0  0  0  0  0
   51.3213    5.9346   19.7565 H   0  0  0  0  0  0  0  0  0  0  0  0
   50.6753    4.4205   20.3986 H   0  0  0  0  0  0  0  0  0  0  0  0
   49.6753    5.8786   20.4100 H   0  0  0  0  0  0  0  0  0  0  0  0
   48.8571    3.1859   19.2187 H   0  0  0  0  0  0  0  0  0  0  0  0
   48.2391    3.7099   17.6534 H   0  0  0  0  0  0  0  0  0  0  0  0
   47.8218    4.6156   19.1202 H   0  0  0  0  0  0  0  0  0  0  0  0
   51.2729    3.2874   18.2407 H   0  0  0  0  0  0  0  0  0  0  0  0
   51.8540    4.7902   17.5154 H   0  0  0  0  0  0  0  0  0  0  0  0
   50.6143    3.8279   16.6966 H   0  0  0  0  0  0  0  0  0  0  0  0
   47.3229    7.4773   15.2209 H   0  0  0  0  0  0  0  0  0  0  0  0
   48.7717    4.4450   15.9206 H   0  0  0  0  0  0  0  0  0  0  0  0
   51.2387    7.7664   14.0515 H   0  0  0  0  0  0  0  0  0  0  0  0
   46.9663    7.8725   14.6301 H   0  0  0  0  0  0  0  0  0  0  0  0
   48.8180    6.7081   18.3512 H   0  0  0  0  0  0  0  0  0  0  0  0
   48.6192    8.4000   10.7022 H   0  0  0  0  0  0  0  0  0  0  0  0
   50.3663    7.7390   16.2711 H   0  0  0  0  0  0  0  0  0  0  0  0
   47.8626    5.9647   16.2089 H   0  0  0  0  0  0  0  0  0  0  0  0
   49.5004    5.3975   15.8138 H   0  0  0  0  0  0  0  0  0  0  0  0
   45.7681    8.2211   12.7554 H   0  0  0  0  0  0  0  0  0  0  0  0
   50.8825    8.3149   10.5991 H   0  0  0  0  0  0  0  0  0  0  0  0
   48.7125    9.3652   16.3536 H   0  0  0  0  0  0  0  0  0  0  0  0
   48.9303    3.6593   20.3631 H   0  0  0  0  0  0  0  0  0  0  0  0
   48.9869    5.4232   20.4622 H   0  0  0  0  0  0  0  0  0  0  0  0
   50.3691    4.5262   19.8134 H   0  0  0  0  0  0  0  0  0  0  0  0
   46.7696    3.8146   19.0954 H   0  0  0  0  0  0  0  0  0  0  0  0
   46.6485    4.6993   17.5765 H   0  0  0  0  0  0  0  0  0  0  0  0
   46.8056    5.5809   19.1035 H   0  0  0  0  0  0  0  0  0  0  0  0
   48.8231    2.4925   18.1669 H   0  0  0  0  0  0  0  0  0  0  0  0
   48.6298    3.3711   16.6512 H   0  0  0  0  0  0  0  0  0  0  0  0
   50.1903    3.3876   17.4928 H   0  0  0  0  0  0  0  0  0  0  0  0
  2  1  2  0
  3  1  1  0
  4 10  1  0
  5  3  2  0
  6  2  1  0
  7  5  1  0
  8  1  1  0
  9  4  1  0
 10  8  1  0
 11  5  1  0
 12  6  1  0
 13  8  1  0
 14  9  1  0
 15  9  1  0
 16  9  1  0
  6  7  2  0
 18 17  1  0
 19 17  1  0
 20 17  2  0
 21 17  2  0
 23 22  2  0
 24 22  1  0
 25 31  1  0
 26 24  2  0
 27 23  1  0
 28 26  1  0
 29 22  1  0
 30 25  1  0
 31 29  1  0
 32 26  1  0
 33 27  1  0
 34 29  1  0
 35 30  1  0
 36 30  1  0
 37 30  1  0
 27 28  2  0
  2 38  1  0
  3 39  1  0
  4 40  1  0
  7 41  1  0
  8 42  1  6
 10 43  1  0
 10 44  1  0
 11 45  1  0
 12 46  1  0
 13 47  1  0
 14 48  1  0
 14 49  1  0
 14 50  1  0
 15 51  1  0
 15 52  1  0
 15 53  1  0
 16 54  1  0
 16 55  1  0
 16 56  1  0
 18 57  1  0
 19 58  1  0
 23 59  1  0
 24 60  1  0
 25 61  1  0
 28 62  1  0
 29 63  1  6
 31 64  1  0
 31 65  1  0
 32 66  1  0
 33 67  1  0
 34 68  1  0
 35 69  1  0
 35 70  1  0
 35 71  1  0
 36 72  1  0
 36 73  1  0
 36 74  1  0
 37 75  1  0
 37 76  1  0
 37 77  1  0
M  END
> <Uni-Dock RESULT> 
ENERGY=   -4.872  LOWER_BOUND=    3.342  UPPER_BOUND=    5.291
INTER + INTRA:          -4.872
INTER:                  -4.872
INTRA:                   0.000
UNBOUND:                 0.000

$$$$

     RDKit          3D

 77 76  0  0  0  0  0  0  0  0999 V2000
   47.7721   11.7532   19.1997 C   0  0  0  0  0  0  0  0  0  0  0  0
   49.0124   11.3520   18.6826 C   0  0  0  0  0  0  0  0  0  0  0  0
   47.0201   12.6967   18.4731 C   0  0  0  0  0  0  0  0  0  0  0  0
   47.1811    9.5602   22.3360 N   0  0  0  0  0  0  0  0  0  0  0  0
   47.4976   13.2008   17.2649 C   0  0  0  0  0  0  0  0  0  0  0  0
   49.4707   11.8678   17.4711 C   0  0  0  0  0  0  0  0  0  0  0  0
   48.7213   12.7913   16.7535 C   0  0  0  0  0  0  0  0  0  0  0  0
   47.2121   11.2488   20.5161 C   0  0  1  0  0  0  0  0  0  0  0  0
   47.8577    8.5547   23.1714 C   0  0  0  0  0  0  0  0  0  0  0  0
   47.8997    9.9993   21.1288 C   0  0  0  0  0  0  0  0  0  0  0  0
   46.7833   14.1140   16.5465 O   0  0  0  0  0  0  0  0  0  0  0  0
   50.6829   11.4336   17.0192 O   0  0  0  0  0  0  0  0  0  0  0  0
   47.2810   12.3159   21.4763 O   0  0  0  0  0  0  0  0  0  0  0  0
   46.8197    8.1008   24.2152 C   0  0  0  0  0  0  0  0  0  0  0  0
   48.3039    7.3263   22.3625 C   0  0  0  0  0  0  0  0  0  0  0  0
   49.0610    9.1598   23.9138 C   0  0  0  0  0  0  0  0  0  0  0  0
   47.8122   10.5276   21.0057 S   0  0  0  0  0  0  0  0  0  0  0  0
   48.0676   11.1958   19.5699 O   0  0  0  0  0  0  0  0  0  0  0  0
   48.6754    9.1814   20.8797 O   0  0  0  0  0  0  0  0  0  0  0  0
   48.4645   11.3362   22.0040 O   0  0  0  0  0  0  0  0  0  0  0  0
   46.4170   10.1710   21.0447 O   0  0  0  0  0  0  0  0  0  0  0  0
   47.7581   12.3806   20.1192 C   0  0  0  0  0  0  0  0  0  0  0  0
   48.3337   13.5409   20.6576 C   0  0  0  0  0  0  0  0  0  0  0  0
   47.8031   12.1854   18.7282 C   0  0  0  0  0  0  0  0  0  0  0  0
   47.3525    9.1432   22.1242 N   0  0  0  0  0  0  0  0  0  0  0  0
   48.4065   13.1381   17.9096 C   0  0  0  0  0  0  0  0  0  0  0  0
   48.9310   14.4801   19.8211 C   0  0  0  0  0  0  0  0  0  0  0  0
   48.9729   14.2884   18.4454 C   0  0  0  0  0  0  0  0  0  0  0  0
   47.1177   11.3568   21.0315 C   0  0  2  0  0  0  0  0  0  0  0  0
   47.9466    7.7982   22.1982 C   0  0  0  0  0  0  0  0  0  0  0  0
   47.9830   10.0811   21.1809 C   0  0  0  0  0  0  0  0  0  0  0  0
   48.4615   12.9759   16.5563 O   0  0  0  0  0  0  0  0  0  0  0  0
   49.4703   15.5907   20.4001 O   0  0  0  0  0  0  0  0  0  0  0  0
   45.8296   11.0000   20.5076 O   0  0  0  0  0  0  0  0  0  0  0  0
   47.2715    7.1007   23.3944 C   0  0  0  0  0  0  0  0  0  0  0  0
   47.6506    6.9813   20.9290 C   0  0  0  0  0  0  0  0  0  0  0  0
   49.4616    7.8413   22.4523 C   0  0  0  0  0  0  0  0  0  0  0  0
   49.6438   10.6373   19.2032 H   0  0  0  0  0  0  0  0  0  0  0  0
   46.0629   13.0297   18.8689 H   0  0  0  0  0  0  0  0  0  0  0  0
   46.9697   10.3948   22.8924 H   0  0  0  0  0  0  0  0  0  0  0  0
   49.0696   13.1993   15.8117 H   0  0  0  0  0  0  0  0  0  0  0  0
   46.1502   11.0137   20.3669 H   0  0  0  0  0  0  0  0  0  0  0  0
   48.9309   10.2612   21.3876 H   0  0  0  0  0  0  0  0  0  0  0  0
   47.9104    9.1913   20.3892 H   0  0  0  0  0  0  0  0  0  0  0  0
   45.9588   14.3089   17.0223 H   0  0  0  0  0  0  0  0  0  0  0  0
   50.8611   11.8574   16.1628 H   0  0  0  0  0  0  0  0  0  0  0  0
   48.0534   12.8605   21.2457 H   0  0  0  0  0  0  0  0  0  0  0  0
   46.4803    8.9387   24.8361 H   0  0  0  0  0  0  0  0  0  0  0  0
   47.2405    7.3445   24.8878 H   0  0  0  0  0  0  0  0  0  0  0  0
   45.9371    7.6606   23.7357 H   0  0  0  0  0  0  0  0  0  0  0  0
   48.6901    6.5412   23.0236 H   0  0  0  0  0  0  0  0  0  0  0  0
   49.1035    7.5715   21.6547 H   0  0  0  0  0  0  0  0  0  0  0  0
   47.4692    6.8971   21.7956 H   0  0  0  0  0  0  0  0  0  0  0  0
   49.4828    8.4404   24.6260 H   0  0  0  0  0  0  0  0  0  0  0  0
   48.7720   10.0516   24.4819 H   0  0  0  0  0  0  0  0  0  0  0  0
   49.8655    9.4459   23.2287 H   0  0  0  0  0  0  0  0  0  0  0  0
   47.3804   10.8492   18.9644 H   0  0  0  0  0  0  0  0  0  0  0  0
   49.5899    9.3992   21.1550 H   0  0  0  0  0  0  0  0  0  0  0  0
   48.3229   13.7207   21.7303 H   0  0  0  0  0  0  0  0  0  0  0  0
   47.3624   11.2879   18.3013 H   0  0  0  0  0  0  0  0  0  0  0  0
   46.3625    9.0725   21.8683 H   0  0  0  0  0  0  0  0  0  0  0  0
   49.4355   15.0126   17.7839 H   0  0  0  0  0  0  0  0  0  0  0  0
   46.9418   11.7980   22.0207 H   0  0  0  0  0  0  0  0  0  0  0  0
   48.0872    9.6105   20.1977 H   0  0  0  0  0  0  0  0  0  0  0  0
   48.9792   10.3634   21.5385 H   0  0  0  0  0  0  0  0  0  0  0  0
   48.0237   12.1398   16.3243 H   0  0  0  0  0  0  0  0  0  0  0  0
   49.8491   16.1498   19.7012 H   0  0  0  0  0  0  0  0  0  0  0  0
   45.3797   11.8385   20.3047 H   0  0  0  0  0  0  0  0  0  0  0  0
   47.6525    6.0810   23.5243 H   0  0  0  0  0  0  0  0  0  0  0  0
   46.1856    7.0312   23.2602 H   0  0  0  0  0  0  0  0  0  0  0  0
   47.4580    7.6420   24.3297 H   0  0  0  0  0  0  0  0  0  0  0  0
   47.9942    5.9458   21.0414 H   0  0  0  0  0  0  0  0  0  0  0  0
   48.1535    7.3926   20.0483 H   0  0  0  0  0  0  0  0  0  0  0  0
   46.5758    6.9479   20.7166 H   0  0  0  0  0  0  0  0  0  0  0  0
   49.8554    6.8358   22.6446 H   0  0  0  0  0  0  0  0  0  0  0  0
   50.0087    8.2414   21.5922 H   0  0  0  0  0  0  0  0  0  0  0  0
   49.7016    8.4603   23.3248 H   0  0  0  0  0  0  0  0  0  0  0  0
  2  1  2  0
  3  1  1  0
  4 10  1  0
  5  3  2  0
  6  2  1  0
  7  5  1  0
  8  1  1  0
  9  4  1  0
 10  8  1  0
 11  5  1  0
 12  6  1  0
 13  8  1  0
 14  9  1  0
 15  9  1  0
 16  9  1  0
  6  7  2  0
 18 17  1  0
 19 17  1  0
 20 17  2  0
 21 17  2  0
 23 22  2  0
 24 22  1  0
 25 31  1  0
 26 24  2  0
 27 23  1  0
 28 26  1  0
 29 22  1  0
 30 25  1  0
 31 29  1  0
 32 26  1  0
 33 27  1  0
 34 29  1  0
 35 30  1  0
 36 30  1  0
 37 30  1  0
 27 28  2  0
  2 38  1  0
  3 39  1  0
  4 40  1  0
  7 41  1  0
  8 42  1  6
 10 43  1  0
 10 44  1  0
 11 45  1  0
 12 46  1  0
 13 47  1  0
 14 48  1  0
 14 49  1  0
 14 50  1  0
 15 51  1  0
 15 52  1  0
 15 53  1  0
 16 54  1  0
 16 55  1  0
 16 56  1  0
 18 57  1  0
 19 58  1  0
 23 59  1  0
 24 60  1  0
 25 61  1  0
 28 62  1  0
 29 63  1  6
 31 64  1  0
 31 65  1  0
 32 66  1  0
 33 67  1  0
 34 68  1  0
 35 69  1  0
 35 70  1  0
 35 71  1  0
 36 72  1  0
 36 73  1  0
 36 74  1  0
 37 75  1  0
 37 76  1  0
 37 77  1  0
M  END
> <Uni-Dock RESULT> 
ENERGY=   -4.817  LOWER_BOUND=    7.719  UPPER_BOUND=    9.807
INTER + INTRA:          -4.817
INTER:                  -4.817
INTRA:                   0.000
UNBOUND:                 0.000

$$$$

     RDKit          3D

 77 76  0  0  0  0  0  0  0  0999 V2000
   47.7734   11.7527   19.2024 C   0  0  0  0  0  0  0  0  0  0  0  0
   49.0138   11.3510   18.6860 C   0  0  0  0  0  0  0  0  0  0  0  0
   47.0217   12.6956   18.4748 C   0  0  0  0  0  0  0  0  0  0  0  0
   47.1812    9.5621   22.3403 N   0  0  0  0  0  0  0  0  0  0  0  0
   47.4996   13.1987   17.2664 C   0  0  0  0  0  0  0  0  0  0  0  0
   49.4726   11.8658   17.4743 C   0  0  0  0  0  0  0  0  0  0  0  0
   48.7235   12.7887   16.7558 C   0  0  0  0  0  0  0  0  0  0  0  0
   47.2129   11.2493   20.5190 C   0  0  1  0  0  0  0  0  0  0  0  0
   47.8575    8.5573   23.1766 C   0  0  0  0  0  0  0  0  0  0  0  0
   47.9002   10.0003   21.1330 C   0  0  0  0  0  0  0  0  0  0  0  0
   46.7857   14.1114   16.5470 O   0  0  0  0  0  0  0  0  0  0  0  0
   50.6850   11.4312   17.0232 O   0  0  0  0  0  0  0  0  0  0  0  0
   47.2816   12.3172   21.4784 O   0  0  0  0  0  0  0  0  0  0  0  0
   46.8191    8.1043   24.2204 C   0  0  0  0  0  0  0  0  0  0  0  0
   48.3039    7.3282   22.3689 C   0  0  0  0  0  0  0  0  0  0  0  0
   49.0606    9.1629   23.9190 C   0  0  0  0  0  0  0  0  0  0  0  0
   47.8128   10.5285   21.0094 S   0  0  0  0  0  0  0  0  0  0  0  0
   48.0687   11.1956   19.5732 O   0  0  0  0  0  0  0  0  0  0  0  0
   48.6760    9.1821   20.8847 O   0  0  0  0  0  0  0  0  0  0  0  0
   48.4648   11.3378   22.0073 O   0  0  0  0  0  0  0  0  0  0  0  0
   46.4176   10.1720   21.0482 O   0  0  0  0  0  0  0  0  0  0  0  0
   47.7592   12.3808   20.1214 C   0  0  0  0  0  0  0  0  0  0  0  0
   48.3346   13.5415   20.6591 C   0  0  0  0  0  0  0  0  0  0  0  0
   47.8046   12.1845   18.7306 C   0  0  0  0  0  0  0  0  0  0  0  0
   47.3527    9.1449   22.1288 N   0  0  0  0  0  0  0  0  0  0  0  0
   48.4083   13.1365   17.9115 C   0  0  0  0  0  0  0  0  0  0  0  0
   48.9322   14.4800   19.8220 C   0  0  0  0  0  0  0  0  0  0  0  0
   48.9746   14.2872   18.4466 C   0  0  0  0  0  0  0  0  0  0  0  0
   47.1184   11.3577   21.0343 C   0  0  2  0  0  0  0  0  0  0  0  0
   47.9467    7.8000   22.2041 C   0  0  0  0  0  0  0  0  0  0  0  0
   47.9836   10.0821   21.1850 C   0  0  0  0  0  0  0  0  0  0  0  0
   48.4638   12.9732   16.5583 O   0  0  0  0  0  0  0  0  0  0  0  0
   49.4715   15.5910   20.4004 O   0  0  0  0  0  0  0  0  0  0  0  0
   45.8304   11.0006   20.5102 O   0  0  0  0  0  0  0  0  0  0  0  0
   47.2711    7.1035   23.4007 C   0  0  0  0  0  0  0  0  0  0  0  0
   47.6510    6.9821   20.9354 C   0  0  0  0  0  0  0  0  0  0  0  0
   49.4616    7.8432   22.4587 C   0  0  0  0  0  0  0  0  0  0  0  0
   49.6450   10.6366   19.2074 H   0  0  0  0  0  0  0  0  0  0  0  0
   46.0644   13.0290   18.8701 H   0  0  0  0  0  0  0  0  0  0  0  0
   46.9697   10.3972   22.8959 H   0  0  0  0  0  0  0  0  0  0  0  0
   49.0722   13.1960   15.8137 H   0  0  0  0  0  0  0  0  0  0  0  0
   46.1511   11.0141   20.3697 H   0  0  0  0  0  0  0  0  0  0  0  0
   48.9314   10.2623   21.3919 H   0  0  0  0  0  0  0  0  0  0  0  0
   47.9111    9.1916   20.3940 H   0  0  0  0  0  0  0  0  0  0  0  0
   45.9610   14.3067   17.0224 H   0  0  0  0  0  0  0  0  0  0  0  0
   50.8634   11.8543   16.1664 H   0  0  0  0  0  0  0  0  0  0  0  0
   48.0541   12.8615   21.2476 H   0  0  0  0  0  0  0  0  0  0  0  0
   46.4795    8.9426   24.8406 H   0  0  0  0  0  0  0  0  0  0  0  0
   47.2396    7.3484   24.8938 H   0  0  0  0  0  0  0  0  0  0  0  0
   45.9366    7.6637   23.7410 H   0  0  0  0  0  0  0  0  0  0  0  0
   48.6898    6.5436   23.0307 H   0  0  0  0  0  0  0  0  0  0  0  0
   49.1038    7.5729   21.6612 H   0  0  0  0  0  0  0  0  0  0  0  0
   47.4694    6.8986   21.8020 H   0  0  0  0  0  0  0  0  0  0  0  0
   49.4821    8.4440   24.6319 H   0  0  0  0  0  0  0  0  0  0  0  0
   48.7714   10.0551   24.4863 H   0  0  0  0  0  0  0  0  0  0  0  0
   49.8653    9.4484   23.2339 H   0  0  0  0  0  0  0  0  0  0  0  0
   47.3817   10.8485   18.9677 H   0  0  0  0  0  0  0  0  0  0  0  0
   49.5904    9.4001   21.1602 H   0  0  0  0  0  0  0  0  0  0  0  0
   48.3235   13.7221   21.7317 H   0  0  0  0  0  0  0  0  0  0  0  0
   47.3639   11.2867   18.3043 H   0  0  0  0  0  0  0  0  0  0  0  0
   46.3628    9.0742   21.8727 H   0  0  0  0  0  0  0  0  0  0  0  0
   49.4375   15.0108   17.7846 H   0  0  0  0  0  0  0  0  0  0  0  0
   46.9422   11.7997   22.0231 H   0  0  0  0  0  0  0  0  0  0  0  0
   48.0881    9.6107   20.2022 H   0  0  0  0  0  0  0  0  0  0  0  0
   48.9796   10.3646   21.5428 H   0  0  0  0  0  0  0  0  0  0  0  0
   48.0260   12.1370   16.3268 H   0  0  0  0  0  0  0  0  0  0  0  0
   49.8505   16.1495   19.7012 H   0  0  0  0  0  0  0  0  0  0  0  0
   45.3806   11.8390   20.3066 H   0  0  0  0  0  0  0  0  0  0  0  0
   47.6520    6.0838   23.5314 H   0  0  0  0  0  0  0  0  0  0  0  0
   46.1853    7.0339   23.2661 H   0  0  0  0  0  0  0  0  0  0  0  0
   47.4573    7.6455   24.3356 H   0  0  0  0  0  0  0  0  0  0  0  0
   47.9946    5.9467   21.0487 H   0  0  0  0  0  0  0  0  0  0  0  0
   48.1543    7.3927   20.0546 H   0  0  0  0  0  0  0  0  0  0  0  0
   46.5764    6.9486   20.7228 H   0  0  0  0  0  0  0  0  0  0  0  0
   49.8553    6.8379   22.6519 H   0  0  0  0  0  0  0  0  0  0  0  0
   50.0090    8.2426   21.5985 H   0  0  0  0  0  0  0  0  0  0  0  0
   49.7014    8.4629   23.3308 H   0  0  0  0  0  0  0  0  0  0  0  0
  2  1  2  0
  3  1  1  0
  4 10  1  0
  5  3  2  0
  6  2  1  0
  7  5  1  0
  8  1  1  0
  9  4  1  0
 10  8  1  0
 11  5  1  0
 12  6  1  0
 13  8  1  0
 14  9  1  0
 15  9  1  0
 16  9  1  0
  6  7  2  0
 18 17  1  0
 19 17  1  0
 20 17  2  0
 21 17  2  0
 23 22  2  0
 24 22  1  0
 25 31  1  0
 26 24  2  0
 27 23  1  0
 28 26  1  0
 29 22  1  0
 30 25  1  0
 31 29  1  0
 32 26  1  0
 33 27  1  0
 34 29  1  0
 35 30  1  0
 36 30  1  0
 37 30  1  0
 27 28  2  0
  2 38  1  0
  3 39  1  0
  4 40  1  0
  7 41  1  0
  8 42  1  6
 10 43  1  0
 10 44  1  0
 11 45  1  0
 12 46  1  0
 13 47  1  0
 14 48  1  0
 14 49  1  0
 14 50  1  0
 15 51  1  0
 15 52  1  0
 15 53  1  0
 16 54  1  0
 16 55  1  0
 16 56  1  0
 18 57  1  0
 19 58  1  0
 23 59  1  0
 24 60  1  0
 25 61  1  0
 28 62  1  0
 29 63  1  6
 31 64  1  0
 31 65  1  0
 32 66  1  0
 33 67  1  0
 34 68  1  0
 35 69  1  0
 35 70  1  0
 35 71  1  0
 36 72  1  0
 36 73  1  0
 36 74  1  0
 37 75  1  0
 37 76  1  0
 37 77  1  0
M  END
> <Uni-Dock RESULT> 
ENERGY=   -4.815  LOWER_BOUND=    7.721  UPPER_BOUND=    9.809
INTER + INTRA:          -4.815
INTER:                  -4.815
INTRA:                   0.000
UNBOUND:                 0.000

$$$$

     RDKit          3D

 77 76  0  0  0  0  0  0  0  0999 V2000
   48.1508   10.6683   19.8550 C   0  0  0  0  0  0  0  0  0  0  0  0
   46.7501   10.6186   19.8083 C   0  0  0  0  0  0  0  0  0  0  0  0
   48.7629   11.8772   20.2391 C   0  0  0  0  0  0  0  0  0  0  0  0
   49.3563    7.0630   19.1173 N   0  0  0  0  0  0  0  0  0  0  0  0
   47.9879   12.9847   20.5774 C   0  0  0  0  0  0  0  0  0  0  0  0
   45.9936   11.7380   20.1522 C   0  0  0  0  0  0  0  0  0  0  0  0
   46.6017   12.9253   20.5393 C   0  0  0  0  0  0  0  0  0  0  0  0
   49.0420    9.4987   19.4827 C   0  0  1  0  0  0  0  0  0  0  0  0
   48.8375    5.7419   18.7275 C   0  0  0  0  0  0  0  0  0  0  0  0
   48.3546    8.1116   19.3693 C   0  0  0  0  0  0  0  0  0  0  0  0
   48.5624   14.1634   20.9529 O   0  0  0  0  0  0  0  0  0  0  0  0
   44.6350   11.6239   20.0915 O   0  0  0  0  0  0  0  0  0  0  0  0
   49.6725    9.7919   18.2249 O   0  0  0  0  0  0  0  0  0  0  0  0
   50.0450    4.7858   18.7550 C   0  0  0  0  0  0  0  0  0  0  0  0
   47.7779    5.2164   19.7091 C   0  0  0  0  0  0  0  0  0  0  0  0
   48.2662    5.7624   17.2998 C   0  0  0  0  0  0  0  0  0  0  0  0
   48.5250    8.6129   19.2222 S   0  0  0  0  0  0  0  0  0  0  0  0
   47.8939    9.9927   19.7427 O   0  0  0  0  0  0  0  0  0  0  0  0
   47.3532    7.5791   19.5848 O   0  0  0  0  0  0  0  0  0  0  0  0
   48.5937    8.6604   17.7838 O   0  0  0  0  0  0  0  0  0  0  0  0
   49.6542    8.3368   20.0731 O   0  0  0  0  0  0  0  0  0  0  0  0
   48.7154   10.6327   18.8962 C   0  0  0  0  0  0  0  0  0  0  0  0
   48.7575   11.2373   17.6312 C   0  0  0  0  0  0  0  0  0  0  0  0
   48.0480   11.2945   19.9409 C   0  0  0  0  0  0  0  0  0  0  0  0
   49.0053    6.8471   19.3972 N   0  0  0  0  0  0  0  0  0  0  0  0
   47.4480   12.5312   19.7121 C   0  0  0  0  0  0  0  0  0  0  0  0
   48.1518   12.4739   17.4250 C   0  0  0  0  0  0  0  0  0  0  0  0
   47.4942   13.1295   18.4587 C   0  0  0  0  0  0  0  0  0  0  0  0
   49.3666    9.2842   19.1155 C   0  0  2  0  0  0  0  0  0  0  0  0
   48.1500    5.7031   19.7538 C   0  0  0  0  0  0  0  0  0  0  0  0
   48.3262    8.1448   19.2491 C   0  0  0  0  0  0  0  0  0  0  0  0
   46.7965   13.1971   20.7085 O   0  0  0  0  0  0  0  0  0  0  0  0
   48.2284   13.0153   16.1757 O   0  0  0  0  0  0  0  0  0  0  0  0
   50.1702    9.3374   20.3040 O   0  0  0  0  0  0  0  0  0  0  0  0
   49.0385    4.4514   19.6228 C   0  0  0  0  0  0  0  0  0  0  0  0
   47.6579    5.7997   21.2078 C   0  0  0  0  0  0  0  0  0  0  0  0
   46.9518    5.5502   18.8038 C   0  0  0  0  0  0  0  0  0  0  0  0
   46.2204    9.7189   19.5074 H   0  0  0  0  0  0  0  0  0  0  0  0
   49.8490   11.9363   20.2651 H   0  0  0  0  0  0  0  0  0  0  0  0
   49.9994    7.4138   18.4002 H   0  0  0  0  0  0  0  0  0  0  0  0
   46.0224   13.8015   20.8069 H   0  0  0  0  0  0  0  0  0  0  0  0
   49.8375    9.4233   20.2355 H   0  0  0  0  0  0  0  0  0  0  0  0
   47.6383    8.1447   18.5417 H   0  0  0  0  0  0  0  0  0  0  0  0
   47.8174    7.8954   20.2992 H   0  0  0  0  0  0  0  0  0  0  0  0
   49.5283   14.0605   20.9298 H   0  0  0  0  0  0  0  0  0  0  0  0
   44.2431   12.4666   20.3761 H   0  0  0  0  0  0  0  0  0  0  0  0
   49.0566   10.3482   17.7176 H   0  0  0  0  0  0  0  0  0  0  0  0
   50.8267    5.1043   18.0548 H   0  0  0  0  0  0  0  0  0  0  0  0
   49.7495    3.7680   18.4747 H   0  0  0  0  0  0  0  0  0  0  0  0
   50.4919    4.7352   19.7552 H   0  0  0  0  0  0  0  0  0  0  0  0
   47.4998    4.1831   19.4690 H   0  0  0  0  0  0  0  0  0  0  0  0
   46.8588    5.8119   19.6757 H   0  0  0  0  0  0  0  0  0  0  0  0
   48.1502    5.2251   20.7405 H   0  0  0  0  0  0  0  0  0  0  0  0
   47.9963    4.7512   16.9723 H   0  0  0  0  0  0  0  0  0  0  0  0
   48.9972    6.1543   16.5831 H   0  0  0  0  0  0  0  0  0  0  0  0
   47.3634    6.3774   17.2268 H   0  0  0  0  0  0  0  0  0  0  0  0
   48.1449   10.0872   20.6846 H   0  0  0  0  0  0  0  0  0  0  0  0
   46.7330    7.5697   18.8266 H   0  0  0  0  0  0  0  0  0  0  0  0
   49.2596   10.7500   16.7984 H   0  0  0  0  0  0  0  0  0  0  0  0
   48.0072   10.8328   20.9244 H   0  0  0  0  0  0  0  0  0  0  0  0
   49.7395    6.9657   20.1024 H   0  0  0  0  0  0  0  0  0  0  0  0
   47.0185   14.0927   18.3102 H   0  0  0  0  0  0  0  0  0  0  0  0
   50.0494    9.0612   18.2859 H   0  0  0  0  0  0  0  0  0  0  0  0
   47.7000    8.3423   20.1254 H   0  0  0  0  0  0  0  0  0  0  0  0
   47.6869    8.1369   18.3597 H   0  0  0  0  0  0  0  0  0  0  0  0
   46.8506   12.6700   21.5232 H   0  0  0  0  0  0  0  0  0  0  0  0
   47.7646   13.8694   16.1808 H   0  0  0  0  0  0  0  0  0  0  0  0
   50.7077   10.1450   20.2298 H   0  0  0  0  0  0  0  0  0  0  0  0
   48.4808    3.5422   19.8765 H   0  0  0  0  0  0  0  0  0  0  0  0
   49.9066    4.5014   20.2906 H   0  0  0  0  0  0  0  0  0  0  0  0
   49.4120    4.3320   18.5987 H   0  0  0  0  0  0  0  0  0  0  0  0
   47.1211    4.8891   21.5003 H   0  0  0  0  0  0  0  0  0  0  0  0
   46.9705    6.6386   21.3547 H   0  0  0  0  0  0  0  0  0  0  0  0
   48.4939    5.9248   21.9054 H   0  0  0  0  0  0  0  0  0  0  0  0
   46.4128    4.6154   19.0003 H   0  0  0  0  0  0  0  0  0  0  0  0
   46.2316    6.3668   18.9204 H   0  0  0  0  0  0  0  0  0  0  0  0
   47.2742    5.5292   17.7561 H   0  0  0  0  0  0  0  0  0  0  0  0
  2  1  2  0
  3  1  1  0
  4 10  1  0
  5  3  2  0
  6  2  1  0
  7  5  1  0
  8  1  1  0
  9  4  1  0
 10  8  1  0
 11  5  1  0
 12  6  1  0
 13  8  1  0
 14  9  1  0
 15  9  1  0
 16  9  1  0
  6  7  2  0
 18 17  1  0
 19 17  1  0
 20 17  2  0
 21 17  2  0
 23 22  2  0
 24 22  1  0
 25 31  1  0
 26 24  2  0
 27 23  1  0
 28 26  1  0
 29 22  1  0
 30 25  1  0
 31 29  1  0
 32 26  1  0
 33 27  1  0
 34 29  1  0
 35 30  1  0
 36 30  1  0
 37 30  1  0
 27 28  2  0
  2 38  1  0
  3 39  1  0
  4 40  1  0
  7 41  1  0
  8 42  1  6
 10 43  1  0
 10 44  1  0
 11 45  1  0
 12 46  1  0
 13 47  1  0
 14 48  1  0
 14 49  1  0
 14 50  1  0
 15 51  1  0
 15 52  1  0
 15 53  1  0
 16 54  1  0
 16 55  1  0
 16 56  1  0
 18 57  1  0
 19 58  1  0
 23 59  1  0
 24 60  1  0
 25 61  1  0
 28 62  1  0
 29 63  1  6
 31 64  1  0
 31 65  1  0
 32 66  1  0
 33 67  1  0
 34 68  1  0
 35 69  1  0
 35 70  1  0
 35 71  1  0
 36 72  1  0
 36 73  1  0
 36 74  1  0
 37 75  1  0
 37 76  1  0
 37 77  1  0
M  END
> <Uni-Dock RESULT> 
ENERGY=   -4.736  LOWER_BOUND=    5.942  UPPER_BOUND=    8.808
INTER + INTRA:          -4.736
INTER:                  -4.736
INTRA:                   0.000
UNBOUND:                 0.000

$$$$
