
     RDKit          3D

 77 76  0  0  0  0  0  0  0  0999 V2000
   47.8096   11.0864   19.7198 C   0  0  0  0  0  0  0  0  0  0  0  0
   47.3557   11.6506   18.5134 C   0  0  0  0  0  0  0  0  0  0  0  0
   48.4520   11.9314   20.6369 C   0  0  0  0  0  0  0  0  0  0  0  0
   47.6330    7.6213   21.4374 N   0  0  0  0  0  0  0  0  0  0  0  0
   48.6171   13.2876   20.3554 C   0  0  0  0  0  0  0  0  0  0  0  0
   47.5288   13.0066   18.2479 C   0  0  0  0  0  0  0  0  0  0  0  0
   48.1595   13.8393   19.1642 C   0  0  0  0  0  0  0  0  0  0  0  0
   47.6234    9.6003   19.9462 C   0  0  1  0  0  0  0  0  0  0  0  0
   47.8894    6.9739   22.7402 C   0  0  0  0  0  0  0  0  0  0  0  0
   47.9872    9.0548   21.3541 C   0  0  0  0  0  0  0  0  0  0  0  0
   49.2514   14.0489   21.2944 O   0  0  0  0  0  0  0  0  0  0  0  0
   47.0622   13.4836   17.0579 O   0  0  0  0  0  0  0  0  0  0  0  0
   46.2535    9.2605   19.6849 O   0  0  0  0  0  0  0  0  0  0  0  0
   47.1034    7.6384   23.8818 C   0  0  0  0  0  0  0  0  0  0  0  0
   49.3884    6.9489   23.0796 C   0  0  0  0  0  0  0  0  0  0  0  0
   47.3978    5.5204   22.5967 C   0  0  0  0  0  0  0  0  0  0  0  0
   48.2057    9.4673   20.7141 S   0  0  0  0  0  0  0  0  0  0  0  0
   47.9201    8.5725   22.0144 O   0  0  0  0  0  0  0  0  0  0  0  0
   47.3264   10.7697   21.0364 O   0  0  0  0  0  0  0  0  0  0  0  0
   47.6028    8.7746   19.6040 O   0  0  0  0  0  0  0  0  0  0  0  0
   49.5834    9.8878   20.7461 O   0  0  0  0  0  0  0  0  0  0  0  0
   47.7585    7.7611   21.7907 C   0  0  0  0  0  0  0  0  0  0  0  0
   47.5907    7.0408   20.5962 C   0  0  0  0  0  0  0  0  0  0  0  0
   48.2368    7.0817   22.9226 C   0  0  0  0  0  0  0  0  0  0  0  0
   48.4077   11.5233   21.4381 N   0  0  0  0  0  0  0  0  0  0  0  0
   48.5321    5.7212   22.8497 C   0  0  0  0  0  0  0  0  0  0  0  0
   47.8943    5.6830   20.5441 C   0  0  0  0  0  0  0  0  0  0  0  0
   48.3673    5.0132   21.6657 C   0  0  0  0  0  0  0  0  0  0  0  0
   47.4482    9.2421   21.8196 C   0  0  2  0  0  0  0  0  0  0  0  0
   47.8215   12.3281   20.3456 C   0  0  0  0  0  0  0  0  0  0  0  0
   48.5784   10.0792   21.1680 C   0  0  0  0  0  0  0  0  0  0  0  0
   48.9942    5.0396   23.9379 O   0  0  0  0  0  0  0  0  0  0  0  0
   47.7118    5.0375   19.3562 O   0  0  0  0  0  0  0  0  0  0  0  0
   47.2660    9.7025   23.1656 O   0  0  0  0  0  0  0  0  0  0  0  0
   47.5819   13.7300   20.9391 C   0  0  0  0  0  0  0  0  0  0  0  0
   46.4762   11.7800   19.8468 C   0  0  0  0  0  0  0  0  0  0  0  0
   48.8023   12.4633   19.1674 C   0  0  0  0  0  0  0  0  0  0  0  0
   46.8515   11.0245   17.7790 H   0  0  0  0  0  0  0  0  0  0  0  0
   48.8325   11.5605   21.5838 H   0  0  0  0  0  0  0  0  0  0  0  0
   48.1475    7.1161   20.7121 H   0  0  0  0  0  0  0  0  0  0  0  0
   48.2957   14.8925   18.9519 H   0  0  0  0  0  0  0  0  0  0  0  0
   48.2339    9.0723   19.2021 H   0  0  0  0  0  0  0  0  0  0  0  0
   49.0550    9.2079   21.5415 H   0  0  0  0  0  0  0  0  0  0  0  0
   47.4090    9.6120   22.0990 H   0  0  0  0  0  0  0  0  0  0  0  0
   49.2696   14.9717   20.9894 H   0  0  0  0  0  0  0  0  0  0  0  0
   47.1795   14.4471   17.0370 H   0  0  0  0  0  0  0  0  0  0  0  0
   46.1050    8.4360   20.1913 H   0  0  0  0  0  0  0  0  0  0  0  0
   46.0369    7.7128   23.6396 H   0  0  0  0  0  0  0  0  0  0  0  0
   47.1902    7.0556   24.8066 H   0  0  0  0  0  0  0  0  0  0  0  0
   47.4720    8.6450   24.1050 H   0  0  0  0  0  0  0  0  0  0  0  0
   49.5768    6.3441   23.9748 H   0  0  0  0  0  0  0  0  0  0  0  0
   49.9753    6.5151   22.2611 H   0  0  0  0  0  0  0  0  0  0  0  0
   49.7795    7.9519   23.2811 H   0  0  0  0  0  0  0  0  0  0  0  0
   47.5411    4.9601   23.5279 H   0  0  0  0  0  0  0  0  0  0  0  0
   47.9411    4.9887   21.8067 H   0  0  0  0  0  0  0  0  0  0  0  0
   46.3297    5.4817   22.3518 H   0  0  0  0  0  0  0  0  0  0  0  0
   47.1053    8.0581   21.8369 H   0  0  0  0  0  0  0  0  0  0  0  0
   47.8773   11.3600   21.5912 H   0  0  0  0  0  0  0  0  0  0  0  0
   47.2206    7.5335   19.7000 H   0  0  0  0  0  0  0  0  0  0  0  0
   48.3724    7.6256   23.8539 H   0  0  0  0  0  0  0  0  0  0  0  0
   49.3282   11.9136   21.6566 H   0  0  0  0  0  0  0  0  0  0  0  0
   48.6067    3.9560   21.6399 H   0  0  0  0  0  0  0  0  0  0  0  0
   46.4940    9.4090   21.3089 H   0  0  0  0  0  0  0  0  0  0  0  0
   48.6918    9.8455   20.1045 H   0  0  0  0  0  0  0  0  0  0  0  0
   49.5267    9.7902   21.6412 H   0  0  0  0  0  0  0  0  0  0  0  0
   48.9969    5.6473   24.6971 H   0  0  0  0  0  0  0  0  0  0  0  0
   47.9271    4.0985   19.4835 H   0  0  0  0  0  0  0  0  0  0  0  0
   47.3824   10.6727   23.0898 H   0  0  0  0  0  0  0  0  0  0  0  0
   47.1496   14.4069   20.1928 H   0  0  0  0  0  0  0  0  0  0  0  0
   46.8895   13.6900   21.7887 H   0  0  0  0  0  0  0  0  0  0  0  0
   48.5161   14.1838   21.2908 H   0  0  0  0  0  0  0  0  0  0  0  0
   45.7631   11.6638   20.6712 H   0  0  0  0  0  0  0  0  0  0  0  0
   46.5865   10.8107   19.3481 H   0  0  0  0  0  0  0  0  0  0  0  0
   46.0219   12.4630   19.1192 H   0  0  0  0  0  0  0  0  0  0  0  0
   48.4149   13.1603   18.4149 H   0  0  0  0  0  0  0  0  0  0  0  0
   49.7752   12.8458   19.4986 H   0  0  0  0  0  0  0  0  0  0  0  0
   48.9739   11.5073   18.6623 H   0  0  0  0  0  0  0  0  0  0  0  0
  2  1  2  0
  3  1  1  0
  4 10  1  0
  5  3  2  0
  6  2  1  0
  7  5  1  0
  8  1  1  0
  9  4  1  0
 10  8  1  0
 11  5  1  0
 12  6  1  0
 13  8  1  0
 14  9  1  0
 15  9  1  0
 16  9  1  0
  6  7  2  0
 18 17  1  0
 19 17  1  0
 20 17  2  0
 21 17  2  0
 23 22  2  0
 24 22  1  0
 25 31  1  0
 26 24  2  0
 27 23  1  0
 28 26  1  0
 29 22  1  0
 30 25  1  0
 31 29  1  0
 32 26  1  0
 33 27  1  0
 34 29  1  0
 35 30  1  0
 36 30  1  0
 37 30  1  0
 27 28  2  0
  2 38  1  0
  3 39  1  0
  4 40  1  0
  7 41  1  0
  8 42  1  6
 10 43  1  0
 10 44  1  0
 11 45  1  0
 12 46  1  0
 13 47  1  0
 14 48  1  0
 14 49  1  0
 14 50  1  0
 15 51  1  0
 15 52  1  0
 15 53  1  0
 16 54  1  0
 16 55  1  0
 16 56  1  0
 18 57  1  0
 19 58  1  0
 23 59  1  0
 24 60  1  0
 25 61  1  0
 28 62  1  0
 29 63  1  6
 31 64  1  0
 31 65  1  0
 32 66  1  0
 33 67  1  0
 34 68  1  0
 35 69  1  0
 35 70  1  0
 35 71  1  0
 36 72  1  0
 36 73  1  0
 36 74  1  0
 37 75  1  0
 37 76  1  0
 37 77  1  0
M  END
> <Uni-Dock RESULT> 
ENERGY=   -5.139  LOWER_BOUND=    0.000  UPPER_BOUND=    0.000
INTER + INTRA:          -5.139
INTER:                  -5.139
INTRA:                   0.000
UNBOUND:                 0.000

$$$$

     RDKit          3D

 77 76  0  0  0  0  0  0  0  0999 V2000
   48.0057    7.7656   12.8417 C   0  0  0  0  0  0  0  0  0  0  0  0
   48.8014    8.8376   12.3974 C   0  0  0  0  0  0  0  0  0  0  0  0
   48.0930    7.4017   14.1937 C   0  0  0  0  0  0  0  0  0  0  0  0
   45.3062    5.4524   11.3088 N   0  0  0  0  0  0  0  0  0  0  0  0
   48.9354    8.0967   15.0615 C   0  0  0  0  0  0  0  0  0  0  0  0
   49.6374    9.5208   13.2771 C   0  0  0  0  0  0  0  0  0  0  0  0
   49.7133    9.1595   14.6167 C   0  0  0  0  0  0  0  0  0  0  0  0
   47.1364    7.0368   11.8379 C   0  0  1  0  0  0  0  0  0  0  0  0
   44.2922    4.4544   11.7066 C   0  0  0  0  0  0  0  0  0  0  0  0
   46.1547    5.9738   12.4021 C   0  0  0  0  0  0  0  0  0  0  0  0
   48.9689    7.6867   16.3631 O   0  0  0  0  0  0  0  0  0  0  0  0
   50.3789   10.5503   12.7754 O   0  0  0  0  0  0  0  0  0  0  0  0
   46.3651    8.0017   11.1069 O   0  0  0  0  0  0  0  0  0  0  0  0
   43.3006    5.0158   12.7382 C   0  0  0  0  0  0  0  0  0  0  0  0
   44.9386    3.1680   12.2455 C   0  0  0  0  0  0  0  0  0  0  0  0
   43.5113    4.1074   10.4243 C   0  0  0  0  0  0  0  0  0  0  0  0
   46.8960    6.2492   12.3559 S   0  0  0  0  0  0  0  0  0  0  0  0
   45.4612    5.5374   12.4441 O   0  0  0  0  0  0  0  0  0  0  0  0
   46.6758    7.5091   13.3241 O   0  0  0  0  0  0  0  0  0  0  0  0
   47.0278    6.7313   11.0047 O   0  0  0  0  0  0  0  0  0  0  0  0
   47.8639    5.4014   13.0042 O   0  0  0  0  0  0  0  0  0  0  0  0
   45.1921    5.3069   11.6637 C   0  0  0  0  0  0  0  0  0  0  0  0
   45.6303    5.4688   10.3387 C   0  0  0  0  0  0  0  0  0  0  0  0
   44.4159    4.1807   11.9812 C   0  0  0  0  0  0  0  0  0  0  0  0
   47.3452    6.9382   14.3845 N   0  0  0  0  0  0  0  0  0  0  0  0
   44.0920    3.2525   10.9927 C   0  0  0  0  0  0  0  0  0  0  0  0
   45.2979    4.5284    9.3673 C   0  0  0  0  0  0  0  0  0  0  0  0
   44.5296    3.4150    9.6842 C   0  0  0  0  0  0  0  0  0  0  0  0
   45.5865    6.3264   12.7105 C   0  0  2  0  0  0  0  0  0  0  0  0
   48.0805    8.2007   14.1603 C   0  0  0  0  0  0  0  0  0  0  0  0
   47.0502    6.1303   13.1814 C   0  0  0  0  0  0  0  0  0  0  0  0
   43.3357    2.1528   11.2773 O   0  0  0  0  0  0  0  0  0  0  0  0
   45.7529    4.7392    8.0986 O   0  0  0  0  0  0  0  0  0  0  0  0
   44.7296    6.2425   13.8575 O   0  0  0  0  0  0  0  0  0  0  0  0
   48.0930    8.9264   15.5198 C   0  0  0  0  0  0  0  0  0  0  0  0
   47.4044    9.1185   13.1308 C   0  0  0  0  0  0  0  0  0  0  0  0
   49.5371    7.9289   13.7442 C   0  0  0  0  0  0  0  0  0  0  0  0
   48.7580    9.1482   11.3547 H   0  0  0  0  0  0  0  0  0  0  0  0
   47.5119    6.5800   14.6013 H   0  0  0  0  0  0  0  0  0  0  0  0
   45.9116    5.0397   10.5953 H   0  0  0  0  0  0  0  0  0  0  0  0
   50.3679    9.6910   15.2964 H   0  0  0  0  0  0  0  0  0  0  0  0
   47.8029    6.5445   11.1176 H   0  0  0  0  0  0  0  0  0  0  0  0
   46.7220    5.1677   12.8787 H   0  0  0  0  0  0  0  0  0  0  0  0
   45.5187    6.4564   13.1521 H   0  0  0  0  0  0  0  0  0  0  0  0
   49.5647    8.2717   16.8607 H   0  0  0  0  0  0  0  0  0  0  0  0
   50.8530   10.9815   13.5047 H   0  0  0  0  0  0  0  0  0  0  0  0
   45.5916    7.4992   10.7792 H   0  0  0  0  0  0  0  0  0  0  0  0
   42.8641    5.9615   12.3964 H   0  0  0  0  0  0  0  0  0  0  0  0
   42.4744    4.3150   12.9073 H   0  0  0  0  0  0  0  0  0  0  0  0
   43.7722    5.1913   13.7107 H   0  0  0  0  0  0  0  0  0  0  0  0
   44.1845    2.3876   12.4029 H   0  0  0  0  0  0  0  0  0  0  0  0
   45.6808    2.7703   11.5430 H   0  0  0  0  0  0  0  0  0  0  0  0
   45.4372    3.3319   13.2068 H   0  0  0  0  0  0  0  0  0  0  0  0
   42.7233    3.3728   10.6270 H   0  0  0  0  0  0  0  0  0  0  0  0
   44.1681    3.6809    9.6569 H   0  0  0  0  0  0  0  0  0  0  0  0
   43.0300    4.9948    9.9964 H   0  0  0  0  0  0  0  0  0  0  0  0
   44.8914    5.9525   11.7635 H   0  0  0  0  0  0  0  0  0  0  0  0
   46.8572    7.2061   14.2379 H   0  0  0  0  0  0  0  0  0  0  0  0
   46.2316    6.3298   10.0558 H   0  0  0  0  0  0  0  0  0  0  0  0
   44.0700    4.0414   13.0022 H   0  0  0  0  0  0  0  0  0  0  0  0
   47.8992    6.3613   15.0230 H   0  0  0  0  0  0  0  0  0  0  0  0
   44.2623    2.6753    8.9377 H   0  0  0  0  0  0  0  0  0  0  0  0
   45.4407    7.3287   12.2942 H   0  0  0  0  0  0  0  0  0  0  0  0
   47.7616    6.2895   12.3646 H   0  0  0  0  0  0  0  0  0  0  0  0
   47.1691    5.0804   13.4820 H   0  0  0  0  0  0  0  0  0  0  0  0
   43.0560    2.2101   12.2069 H   0  0  0  0  0  0  0  0  0  0  0  0
   45.4128    4.0278    7.5309 H   0  0  0  0  0  0  0  0  0  0  0  0
   45.2440    6.6971   14.5571 H   0  0  0  0  0  0  0  0  0  0  0  0
   48.6276    9.8812   15.4537 H   0  0  0  0  0  0  0  0  0  0  0  0
   47.0748    9.1416   15.8659 H   0  0  0  0  0  0  0  0  0  0  0  0
   48.5883    8.3262   16.2924 H   0  0  0  0  0  0  0  0  0  0  0  0
   46.3606    9.3178   13.3998 H   0  0  0  0  0  0  0  0  0  0  0  0
   47.4243    8.6903   12.1225 H   0  0  0  0  0  0  0  0  0  0  0  0
   47.9156   10.0870   13.0759 H   0  0  0  0  0  0  0  0  0  0  0  0
   50.1110    8.8621   13.6995 H   0  0  0  0  0  0  0  0  0  0  0  0
   50.0408    7.2681   14.4599 H   0  0  0  0  0  0  0  0  0  0  0  0
   49.6032    7.4628   12.7558 H   0  0  0  0  0  0  0  0  0  0  0  0
  2  1  2  0
  3  1  1  0
  4 10  1  0
  5  3  2  0
  6  2  1  0
  7  5  1  0
  8  1  1  0
  9  4  1  0
 10  8  1  0
 11  5  1  0
 12  6  1  0
 13  8  1  0
 14  9  1  0
 15  9  1  0
 16  9  1  0
  6  7  2  0
 18 17  1  0
 19 17  1  0
 20 17  2  0
 21 17  2  0
 23 22  2  0
 24 22  1  0
 25 31  1  0
 26 24  2  0
 27 23  1  0
 28 26  1  0
 29 22  1  0
 30 25  1  0
 31 29  1  0
 32 26  1  0
 33 27  1  0
 34 29  1  0
 35 30  1  0
 36 30  1  0
 37 30  1  0
 27 28  2  0
  2 38  1  0
  3 39  1  0
  4 40  1  0
  7 41  1  0
  8 42  1  6
 10 43  1  0
 10 44  1  0
 11 45  1  0
 12 46  1  0
 13 47  1  0
 14 48  1  0
 14 49  1  0
 14 50  1  0
 15 51  1  0
 15 52  1  0
 15 53  1  0
 16 54  1  0
 16 55  1  0
 16 56  1  0
 18 57  1  0
 19 58  1  0
 23 59  1  0
 24 60  1  0
 25 61  1  0
 28 62  1  0
 29 63  1  6
 31 64  1  0
 31 65  1  0
 32 66  1  0
 33 67  1  0
 34 68  1  0
 35 69  1  0
 35 70  1  0
 35 71  1  0
 36 72  1  0
 36 73  1  0
 36 74  1  0
 37 75  1  0
 37 76  1  0
 37 77  1  0
M  END
> <Uni-Dock RESULT> 
ENERGY=   -5.085  LOWER_BOUND=    8.192  UPPER_BOUND=    9.748
INTER + INTRA:          -5.085
INTER:                  -5.085
INTRA:                   0.000
UNBOUND:                 0.000

$$$$

     RDKit          3D

 77 76  0  0  0  0  0  0  0  0999 V2000
   49.3817    5.4992   18.5262 C   0  0  0  0  0  0  0  0  0  0  0  0
   50.4870    4.7124   18.1535 C   0  0  0  0  0  0  0  0  0  0  0  0
   48.0997    4.9840   18.2837 C   0  0  0  0  0  0  0  0  0  0  0  0
   48.8256    8.8831   20.3228 N   0  0  0  0  0  0  0  0  0  0  0  0
   47.9399    3.7256   17.7032 C   0  0  0  0  0  0  0  0  0  0  0  0
   50.3099    3.4582   17.5748 C   0  0  0  0  0  0  0  0  0  0  0  0
   49.0370    2.9510   17.3441 C   0  0  0  0  0  0  0  0  0  0  0  0
   49.6290    6.8688   19.1242 C   0  0  1  0  0  0  0  0  0  0  0  0
   47.7506    9.6964   20.9272 C   0  0  0  0  0  0  0  0  0  0  0  0
   48.3902    7.6287   19.6716 C   0  0  0  0  0  0  0  0  0  0  0  0
   46.6630    3.2892   17.4970 O   0  0  0  0  0  0  0  0  0  0  0  0
   51.4279    2.7515   17.2401 O   0  0  0  0  0  0  0  0  0  0  0  0
   50.5745    6.7415   20.1966 O   0  0  0  0  0  0  0  0  0  0  0  0
   46.9905    8.9305   22.0217 C   0  0  0  0  0  0  0  0  0  0  0  0
   46.7646   10.2161   19.8685 C   0  0  0  0  0  0  0  0  0  0  0  0
   48.4482   10.9061   21.5791 C   0  0  0  0  0  0  0  0  0  0  0  0
   48.7342    7.2464   19.0691 S   0  0  0  0  0  0  0  0  0  0  0  0
   47.9743    8.1258   20.1748 O   0  0  0  0  0  0  0  0  0  0  0  0
   48.5635    5.7717   19.6767 O   0  0  0  0  0  0  0  0  0  0  0  0
   50.1257    7.6118   19.1457 O   0  0  0  0  0  0  0  0  0  0  0  0
   47.9610    7.2784   17.8537 O   0  0  0  0  0  0  0  0  0  0  0  0
   48.4329    8.8226   20.3711 C   0  0  0  0  0  0  0  0  0  0  0  0
   49.6988    9.3410   20.0503 C   0  0  0  0  0  0  0  0  0  0  0  0
   47.4069    9.7191   20.7106 C   0  0  0  0  0  0  0  0  0  0  0  0
   47.5357    5.4310   18.8246 N   0  0  0  0  0  0  0  0  0  0  0  0
   47.6532   11.0911   20.7277 C   0  0  0  0  0  0  0  0  0  0  0  0
   49.9228   10.7150   20.0708 C   0  0  0  0  0  0  0  0  0  0  0  0
   48.9057   11.5997   20.4072 C   0  0  0  0  0  0  0  0  0  0  0  0
   48.2026    7.3277   20.3170 C   0  0  2  0  0  0  0  0  0  0  0  0
   48.5492    4.3862   18.5671 C   0  0  0  0  0  0  0  0  0  0  0  0
   48.0281    6.8252   18.8612 C   0  0  0  0  0  0  0  0  0  0  0  0
   46.6725   11.9805   21.0584 O   0  0  0  0  0  0  0  0  0  0  0  0
   51.1721   11.1587   19.7491 O   0  0  0  0  0  0  0  0  0  0  0  0
   47.0338    6.9610   21.0629 O   0  0  0  0  0  0  0  0  0  0  0  0
   47.8241    3.0406   18.7641 C   0  0  0  0  0  0  0  0  0  0  0  0
   49.7345    4.4416   19.5423 C   0  0  0  0  0  0  0  0  0  0  0  0
   49.0593    4.4525   17.1167 C   0  0  0  0  0  0  0  0  0  0  0  0
   51.4968    5.0803   18.3282 H   0  0  0  0  0  0  0  0  0  0  0  0
   47.2037    5.5410   18.5404 H   0  0  0  0  0  0  0  0  0  0  0  0
   49.3211    9.4531   19.6332 H   0  0  0  0  0  0  0  0  0  0  0  0
   48.9039    1.9768   16.8900 H   0  0  0  0  0  0  0  0  0  0  0  0
   50.1009    7.4883   18.3504 H   0  0  0  0  0  0  0  0  0  0  0  0
   47.6935    7.8321   18.8519 H   0  0  0  0  0  0  0  0  0  0  0  0
   47.8955    6.9916   20.4127 H   0  0  0  0  0  0  0  0  0  0  0  0
   46.6949    2.3933   17.1214 H   0  0  0  0  0  0  0  0  0  0  0  0
   51.1621    1.8742   16.9204 H   0  0  0  0  0  0  0  0  0  0  0  0
   50.4091    7.5228   20.7627 H   0  0  0  0  0  0  0  0  0  0  0  0
   47.6792    8.5071   22.7621 H   0  0  0  0  0  0  0  0  0  0  0  0
   46.3013    9.5948   22.5565 H   0  0  0  0  0  0  0  0  0  0  0  0
   46.3889    8.1129   21.6110 H   0  0  0  0  0  0  0  0  0  0  0  0
   46.0583   10.9301   20.3089 H   0  0  0  0  0  0  0  0  0  0  0  0
   47.2885   10.7322   19.0551 H   0  0  0  0  0  0  0  0  0  0  0  0
   46.1718    9.4069   19.4288 H   0  0  0  0  0  0  0  0  0  0  0  0
   47.7217   11.5674   22.0656 H   0  0  0  0  0  0  0  0  0  0  0  0
   48.9915   11.5040   20.8380 H   0  0  0  0  0  0  0  0  0  0  0  0
   49.1667   10.5891   22.3442 H   0  0  0  0  0  0  0  0  0  0  0  0
   48.6296    8.3435   20.8699 H   0  0  0  0  0  0  0  0  0  0  0  0
   47.6931    5.4354   19.3783 H   0  0  0  0  0  0  0  0  0  0  0  0
   50.5178    8.6767   19.7844 H   0  0  0  0  0  0  0  0  0  0  0  0
   46.4220    9.3331   20.9606 H   0  0  0  0  0  0  0  0  0  0  0  0
   46.8255    5.3672   18.0905 H   0  0  0  0  0  0  0  0  0  0  0  0
   49.0662   12.6719   20.4283 H   0  0  0  0  0  0  0  0  0  0  0  0
   49.0450    6.8268   20.8053 H   0  0  0  0  0  0  0  0  0  0  0  0
   48.9351    6.9825   18.2686 H   0  0  0  0  0  0  0  0  0  0  0  0
   47.2493    7.4365   18.3853 H   0  0  0  0  0  0  0  0  0  0  0  0
   45.8812   11.4769   21.3153 H   0  0  0  0  0  0  0  0  0  0  0  0
   51.1856   12.1257   19.8434 H   0  0  0  0  0  0  0  0  0  0  0  0
   46.8134    6.0720   20.7141 H   0  0  0  0  0  0  0  0  0  0  0  0
   48.5011    2.1968   18.5867 H   0  0  0  0  0  0  0  0  0  0  0  0
   47.4356    2.9431   19.7850 H   0  0  0  0  0  0  0  0  0  0  0  0
   46.9789    2.9334   18.0737 H   0  0  0  0  0  0  0  0  0  0  0  0
   49.3953    4.4073   20.5840 H   0  0  0  0  0  0  0  0  0  0  0  0
   50.3371    5.3465   19.4061 H   0  0  0  0  0  0  0  0  0  0  0  0
   50.4046    3.5869   19.3913 H   0  0  0  0  0  0  0  0  0  0  0  0
   49.7158    3.6028   16.8945 H   0  0  0  0  0  0  0  0  0  0  0  0
   48.2304    4.4228   16.3994 H   0  0  0  0  0  0  0  0  0  0  0  0
   49.6353    5.3632   16.9237 H   0  0  0  0  0  0  0  0  0  0  0  0
  2  1  2  0
  3  1  1  0
  4 10  1  0
  5  3  2  0
  6  2  1  0
  7  5  1  0
  8  1  1  0
  9  4  1  0
 10  8  1  0
 11  5  1  0
 12  6  1  0
 13  8  1  0
 14  9  1  0
 15  9  1  0
 16  9  1  0
  6  7  2  0
 18 17  1  0
 19 17  1  0
 20 17  2  0
 21 17  2  0
 23 22  2  0
 24 22  1  0
 25 31  1  0
 26 24  2  0
 27 23  1  0
 28 26  1  0
 29 22  1  0
 30 25  1  0
 31 29  1  0
 32 26  1  0
 33 27  1  0
 34 29  1  0
 35 30  1  0
 36 30  1  0
 37 30  1  0
 27 28  2  0
  2 38  1  0
  3 39  1  0
  4 40  1  0
  7 41  1  0
  8 42  1  6
 10 43  1  0
 10 44  1  0
 11 45  1  0
 12 46  1  0
 13 47  1  0
 14 48  1  0
 14 49  1  0
 14 50  1  0
 15 51  1  0
 15 52  1  0
 15 53  1  0
 16 54  1  0
 16 55  1  0
 16 56  1  0
 18 57  1  0
 19 58  1  0
 23 59  1  0
 24 60  1  0
 25 61  1  0
 28 62  1  0
 29 63  1  6
 31 64  1  0
 31 65  1  0
 32 66  1  0
 33 67  1  0
 34 68  1  0
 35 69  1  0
 35 70  1  0
 35 71  1  0
 36 72  1  0
 36 73  1  0
 36 74  1  0
 37 75  1  0
 37 76  1  0
 37 77  1  0
M  END
> <Uni-Dock RESULT> 
ENERGY=   -4.620  LOWER_BOUND=    2.495  UPPER_BOUND=    6.517
INTER + INTRA:          -4.620
INTER:                  -4.620
INTRA:                   0.000
UNBOUND:                 0.000

$$$$

     RDKit          3D

 77 76  0  0  0  0  0  0  0  0999 V2000
   49.8741    8.9634   15.0315 C   0  0  0  0  0  0  0  0  0  0  0  0
   50.2581   10.0392   15.8529 C   0  0  0  0  0  0  0  0  0  0  0  0
   50.8361    7.9840   14.7428 C   0  0  0  0  0  0  0  0  0  0  0  0
   46.6101    7.7540   13.3367 N   0  0  0  0  0  0  0  0  0  0  0  0
   52.1240    8.0789   15.2701 C   0  0  0  0  0  0  0  0  0  0  0  0
   51.5483   10.1188   16.3710 C   0  0  0  0  0  0  0  0  0  0  0  0
   52.4941    9.1412   16.0868 C   0  0  0  0  0  0  0  0  0  0  0  0
   48.4677    8.9400   14.4693 C   0  0  1  0  0  0  0  0  0  0  0  0
   46.0497    6.5803   12.6362 C   0  0  0  0  0  0  0  0  0  0  0  0
   48.0382    7.6560   13.7084 C   0  0  0  0  0  0  0  0  0  0  0  0
   53.0071    7.0895   14.9463 O   0  0  0  0  0  0  0  0  0  0  0  0
   51.8488   11.1901   17.1605 O   0  0  0  0  0  0  0  0  0  0  0  0
   47.5369    9.1458   15.5424 O   0  0  0  0  0  0  0  0  0  0  0  0
   46.1474    5.3002   13.4813 C   0  0  0  0  0  0  0  0  0  0  0  0
   46.7172    6.3595   11.2692 C   0  0  0  0  0  0  0  0  0  0  0  0
   44.5589    6.8949   12.4055 C   0  0  0  0  0  0  0  0  0  0  0  0
   48.5615    8.2443   13.7958 S   0  0  0  0  0  0  0  0  0  0  0  0
   47.5250    7.0688   13.4535 O   0  0  0  0  0  0  0  0  0  0  0  0
   49.2454    7.6741   15.1300 O   0  0  0  0  0  0  0  0  0  0  0  0
   47.7689    9.3950   14.1469 O   0  0  0  0  0  0  0  0  0  0  0  0
   49.5873    8.2538   12.7841 O   0  0  0  0  0  0  0  0  0  0  0  0
   46.7601    7.3944   13.2453 C   0  0  0  0  0  0  0  0  0  0  0  0
   46.1603    8.6645   13.2146 C   0  0  0  0  0  0  0  0  0  0  0  0
   46.2940    6.4104   12.3586 C   0  0  0  0  0  0  0  0  0  0  0  0
   50.3856    7.2488   14.4838 N   0  0  0  0  0  0  0  0  0  0  0  0
   45.2560    6.7000   11.4743 C   0  0  0  0  0  0  0  0  0  0  0  0
   45.1266    8.9337   12.3215 C   0  0  0  0  0  0  0  0  0  0  0  0
   44.6673    7.9581   11.4453 C   0  0  0  0  0  0  0  0  0  0  0  0
   47.9001    7.1300   14.2050 C   0  0  2  0  0  0  0  0  0  0  0  0
   50.9057    8.1680   15.5181 C   0  0  0  0  0  0  0  0  0  0  0  0
   49.2328    7.7358   13.6956 C   0  0  0  0  0  0  0  0  0  0  0  0
   44.7842    5.7582   10.6066 O   0  0  0  0  0  0  0  0  0  0  0  0
   44.5843   10.1854   12.3377 O   0  0  0  0  0  0  0  0  0  0  0  0
   48.0912    5.7219   14.3998 O   0  0  0  0  0  0  0  0  0  0  0  0
   51.9591    7.3629   16.3037 C   0  0  0  0  0  0  0  0  0  0  0  0
   49.8266    8.6399   16.5040 C   0  0  0  0  0  0  0  0  0  0  0  0
   51.6024    9.3836   14.8813 C   0  0  0  0  0  0  0  0  0  0  0  0
   49.5368   10.8169   16.0988 H   0  0  0  0  0  0  0  0  0  0  0  0
   50.6089    7.1310   14.1105 H   0  0  0  0  0  0  0  0  0  0  0  0
   46.4829    8.5803   12.7478 H   0  0  0  0  0  0  0  0  0  0  0  0
   53.4975    9.2093   16.4885 H   0  0  0  0  0  0  0  0  0  0  0  0
   48.3685    9.7953   13.7882 H   0  0  0  0  0  0  0  0  0  0  0  0
   48.6677    7.5277   12.8219 H   0  0  0  0  0  0  0  0  0  0  0  0
   48.1784    6.7980   14.3748 H   0  0  0  0  0  0  0  0  0  0  0  0
   53.8485    7.2589   15.4026 H   0  0  0  0  0  0  0  0  0  0  0  0
   52.7474   11.0808   17.5112 H   0  0  0  0  0  0  0  0  0  0  0  0
   46.7002    8.7538   15.2192 H   0  0  0  0  0  0  0  0  0  0  0  0
   45.7219    5.4499   14.4804 H   0  0  0  0  0  0  0  0  0  0  0  0
   45.5964    4.4778   13.0096 H   0  0  0  0  0  0  0  0  0  0  0  0
   47.1821    4.9623   13.6000 H   0  0  0  0  0  0  0  0  0  0  0  0
   46.1985    5.5770   10.7024 H   0  0  0  0  0  0  0  0  0  0  0  0
   46.6957    7.2729   10.6628 H   0  0  0  0  0  0  0  0  0  0  0  0
   47.7616    6.0451   11.3695 H   0  0  0  0  0  0  0  0  0  0  0  0
   44.0539    6.0671   11.8940 H   0  0  0  0  0  0  0  0  0  0  0  0
   44.4282    7.7910   11.7875 H   0  0  0  0  0  0  0  0  0  0  0  0
   44.0342    7.0634   13.3534 H   0  0  0  0  0  0  0  0  0  0  0  0
   46.7010    7.2580   13.9488 H   0  0  0  0  0  0  0  0  0  0  0  0
   49.9744    7.0822   14.8506 H   0  0  0  0  0  0  0  0  0  0  0  0
   46.4940    9.4507   13.8880 H   0  0  0  0  0  0  0  0  0  0  0  0
   46.7485    5.4231   12.3702 H   0  0  0  0  0  0  0  0  0  0  0  0
   51.1485    7.0449   13.8327 H   0  0  0  0  0  0  0  0  0  0  0  0
   43.8626    8.1533   10.7454 H   0  0  0  0  0  0  0  0  0  0  0  0
   47.6337    7.5396   15.1849 H   0  0  0  0  0  0  0  0  0  0  0  0
   49.1805    8.8273   13.6292 H   0  0  0  0  0  0  0  0  0  0  0  0
   49.3932    7.3803   12.6686 H   0  0  0  0  0  0  0  0  0  0  0  0
   45.2462    4.9218   10.7871 H   0  0  0  0  0  0  0  0  0  0  0  0
   43.8572   10.2107   11.6937 H   0  0  0  0  0  0  0  0  0  0  0  0
   49.0003    5.6657   14.7617 H   0  0  0  0  0  0  0  0  0  0  0  0
   52.4099    7.9701   17.0974 H   0  0  0  0  0  0  0  0  0  0  0  0
   51.5140    6.4792   16.7766 H   0  0  0  0  0  0  0  0  0  0  0  0
   52.7717    7.0194   15.6524 H   0  0  0  0  0  0  0  0  0  0  0  0
   49.3074    7.7905   16.9628 H   0  0  0  0  0  0  0  0  0  0  0  0
   49.0798    9.2797   16.0211 H   0  0  0  0  0  0  0  0  0  0  0  0
   50.2705    9.2262   17.3174 H   0  0  0  0  0  0  0  0  0  0  0  0
   52.0929    9.9973   15.6462 H   0  0  0  0  0  0  0  0  0  0  0  0
   52.3733    9.0733   14.1658 H   0  0  0  0  0  0  0  0  0  0  0  0
   50.8972   10.0322   14.3519 H   0  0  0  0  0  0  0  0  0  0  0  0
  2  1  2  0
  3  1  1  0
  4 10  1  0
  5  3  2  0
  6  2  1  0
  7  5  1  0
  8  1  1  0
  9  4  1  0
 10  8  1  0
 11  5  1  0
 12  6  1  0
 13  8  1  0
 14  9  1  0
 15  9  1  0
 16  9  1  0
  6  7  2  0
 18 17  1  0
 19 17  1  0
 20 17  2  0
 21 17  2  0
 23 22  2  0
 24 22  1  0
 25 31  1  0
 26 24  2  0
 27 23  1  0
 28 26  1  0
 29 22  1  0
 30 25  1  0
 31 29  1  0
 32 26  1  0
 33 27  1  0
 34 29  1  0
 35 30  1  0
 36 30  1  0
 37 30  1  0
 27 28  2  0
  2 38  1  0
  3 39  1  0
  4 40  1  0
  7 41  1  0
  8 42  1  6
 10 43  1  0
 10 44  1  0
 11 45  1  0
 12 46  1  0
 13 47  1  0
 14 48  1  0
 14 49  1  0
 14 50  1  0
 15 51  1  0
 15 52  1  0
 15 53  1  0
 16 54  1  0
 16 55  1  0
 16 56  1  0
 18 57  1  0
 19 58  1  0
 23 59  1  0
 24 60  1  0
 25 61  1  0
 28 62  1  0
 29 63  1  6
 31 64  1  0
 31 65  1  0
 32 66  1  0
 33 67  1  0
 34 68  1  0
 35 69  1  0
 35 70  1  0
 35 71  1  0
 36 72  1  0
 36 73  1  0
 36 74  1  0
 37 75  1  0
 37 76  1  0
 37 77  1  0
M  END
> <Uni-Dock RESULT> 
ENERGY=   -4.527  LOWER_BOUND=    6.609  UPPER_BOUND=    8.509
INTER + INTRA:          -4.527
INTER:                  -4.527
INTRA:                   0.000
UNBOUND:                 0.000

$$$$

     RDKit          3D

 77 76  0  0  0  0  0  0  0  0999 V2000
   47.9339    5.7374   17.8573 C   0  0  0  0  0  0  0  0  0  0  0  0
   47.7650    5.4396   16.4925 C   0  0  0  0  0  0  0  0  0  0  0  0
   48.0663    4.6637   18.7503 C   0  0  0  0  0  0  0  0  0  0  0  0
   48.3317    8.9359   20.0019 N   0  0  0  0  0  0  0  0  0  0  0  0
   48.0426    3.3487   18.2857 C   0  0  0  0  0  0  0  0  0  0  0  0
   47.7434    4.1209   16.0454 C   0  0  0  0  0  0  0  0  0  0  0  0
   47.8824    3.0624   16.9348 C   0  0  0  0  0  0  0  0  0  0  0  0
   47.9200    7.1875   18.2951 C   0  0  1  0  0  0  0  0  0  0  0  0
   48.6984    9.3610   21.3683 C   0  0  0  0  0  0  0  0  0  0  0  0
   48.2750    7.4749   19.7794 C   0  0  0  0  0  0  0  0  0  0  0  0
   48.1770    2.3552   19.2122 O   0  0  0  0  0  0  0  0  0  0  0  0
   47.5767    3.9083   14.7081 O   0  0  0  0  0  0  0  0  0  0  0  0
   48.8356    7.9276   17.4739 O   0  0  0  0  0  0  0  0  0  0  0  0
   50.0872    8.8478   21.7815 C   0  0  0  0  0  0  0  0  0  0  0  0
   47.6482    8.9247   22.4026 C   0  0  0  0  0  0  0  0  0  0  0  0
   48.7415   10.9011   21.3373 C   0  0  0  0  0  0  0  0  0  0  0  0
   47.8310    7.0774   19.2575 S   0  0  0  0  0  0  0  0  0  0  0  0
   48.5924    7.8938   20.4095 O   0  0  0  0  0  0  0  0  0  0  0  0
   48.9784    6.0575   18.7921 O   0  0  0  0  0  0  0  0  0  0  0  0
   47.5919    8.0122   18.1877 O   0  0  0  0  0  0  0  0  0  0  0  0
   46.8010    6.2791   19.8720 O   0  0  0  0  0  0  0  0  0  0  0  0
   48.4466    8.7344   20.3280 C   0  0  0  0  0  0  0  0  0  0  0  0
   47.8000    9.5786   19.4097 C   0  0  0  0  0  0  0  0  0  0  0  0
   48.5330    9.1420   21.6689 C   0  0  0  0  0  0  0  0  0  0  0  0
   48.4553    4.9925   19.4926 N   0  0  0  0  0  0  0  0  0  0  0  0
   47.9874   10.3617   22.0663 C   0  0  0  0  0  0  0  0  0  0  0  0
   47.2594   10.7915   19.8282 C   0  0  0  0  0  0  0  0  0  0  0  0
   47.3465   11.1924   21.1556 C   0  0  0  0  0  0  0  0  0  0  0  0
   49.0042    7.4080   19.8585 C   0  0  2  0  0  0  0  0  0  0  0  0
   48.5029    4.4925   18.1024 C   0  0  0  0  0  0  0  0  0  0  0  0
   47.8893    6.3456   19.6823 C   0  0  0  0  0  0  0  0  0  0  0  0
   48.0632   10.7801   23.3631 O   0  0  0  0  0  0  0  0  0  0  0  0
   46.6430   11.5680   18.8911 O   0  0  0  0  0  0  0  0  0  0  0  0
   49.9687    6.8981   20.7893 O   0  0  0  0  0  0  0  0  0  0  0  0
   49.2916    3.1697   18.1588 C   0  0  0  0  0  0  0  0  0  0  0  0
   49.2299    5.4460   17.1425 C   0  0  0  0  0  0  0  0  0  0  0  0
   47.0900    4.1905   17.5721 C   0  0  0  0  0  0  0  0  0  0  0  0
   47.6605    6.2482   15.7709 H   0  0  0  0  0  0  0  0  0  0  0  0
   48.1930    4.8221   19.8170 H   0  0  0  0  0  0  0  0  0  0  0  0
   47.4209    9.3368   19.7660 H   0  0  0  0  0  0  0  0  0  0  0  0
   47.8609    2.0383   16.5831 H   0  0  0  0  0  0  0  0  0  0  0  0
   46.9158    7.5843   18.0963 H   0  0  0  0  0  0  0  0  0  0  0  0
   47.5309    7.0061   20.4314 H   0  0  0  0  0  0  0  0  0  0  0  0
   49.2588    7.0409   19.9882 H   0  0  0  0  0  0  0  0  0  0  0  0
   48.1770    1.4977   18.7544 H   0  0  0  0  0  0  0  0  0  0  0  0
   47.6565    2.9577   14.5279 H   0  0  0  0  0  0  0  0  0  0  0  0
   49.0701    8.7102   18.0132 H   0  0  0  0  0  0  0  0  0  0  0  0
   50.8450    9.1043   21.0320 H   0  0  0  0  0  0  0  0  0  0  0  0
   50.4015    9.2942   22.7323 H   0  0  0  0  0  0  0  0  0  0  0  0
   50.1010    7.7618   21.9205 H   0  0  0  0  0  0  0  0  0  0  0  0
   47.8591    9.3658   23.3842 H   0  0  0  0  0  0  0  0  0  0  0  0
   46.6417    9.2452   22.1083 H   0  0  0  0  0  0  0  0  0  0  0  0
   47.6313    7.8376   22.5355 H   0  0  0  0  0  0  0  0  0  0  0  0
   49.0174   11.3094   22.3165 H   0  0  0  0  0  0  0  0  0  0  0  0
   47.7670   11.3249   21.0677 H   0  0  0  0  0  0  0  0  0  0  0  0
   49.4771   11.2662   20.6108 H   0  0  0  0  0  0  0  0  0  0  0  0
   49.0645    8.6339   19.9742 H   0  0  0  0  0  0  0  0  0  0  0  0
   48.9408    5.2861   19.3948 H   0  0  0  0  0  0  0  0  0  0  0  0
   47.7158    9.2965   18.3627 H   0  0  0  0  0  0  0  0  0  0  0  0
   49.0298    8.4993   22.3911 H   0  0  0  0  0  0  0  0  0  0  0  0
   47.8947    4.3367   20.0431 H   0  0  0  0  0  0  0  0  0  0  0  0
   46.9310   12.1346   21.4953 H   0  0  0  0  0  0  0  0  0  0  0  0
   49.5430    7.5687   18.9189 H   0  0  0  0  0  0  0  0  0  0  0  0
   47.1775    6.6333   18.9019 H   0  0  0  0  0  0  0  0  0  0  0  0
   47.3112    6.3066   20.6156 H   0  0  0  0  0  0  0  0  0  0  0  0
   48.5884   10.1303   23.8607 H   0  0  0  0  0  0  0  0  0  0  0  0
   46.3529   12.3903   19.3199 H   0  0  0  0  0  0  0  0  0  0  0  0
   50.0209    5.9462   20.5613 H   0  0  0  0  0  0  0  0  0  0  0  0
   49.3749    2.7162   17.1642 H   0  0  0  0  0  0  0  0  0  0  0  0
   50.3093    3.3284   18.5354 H   0  0  0  0  0  0  0  0  0  0  0  0
   48.8039    2.4374   18.8132 H   0  0  0  0  0  0  0  0  0  0  0  0
   50.2361    5.6856   17.5052 H   0  0  0  0  0  0  0  0  0  0  0  0
   48.6822    6.3845   17.0019 H   0  0  0  0  0  0  0  0  0  0  0  0
   49.3424    4.9912   16.1511 H   0  0  0  0  0  0  0  0  0  0  0  0
   47.1371    3.7054   16.5899 H   0  0  0  0  0  0  0  0  0  0  0  0
   46.5458    3.5170   18.2448 H   0  0  0  0  0  0  0  0  0  0  0  0
   46.4914    5.0994   17.4536 H   0  0  0  0  0  0  0  0  0  0  0  0
  2  1  2  0
  3  1  1  0
  4 10  1  0
  5  3  2  0
  6  2  1  0
  7  5  1  0
  8  1  1  0
  9  4  1  0
 10  8  1  0
 11  5  1  0
 12  6  1  0
 13  8  1  0
 14  9  1  0
 15  9  1  0
 16  9  1  0
  6  7  2  0
 18 17  1  0
 19 17  1  0
 20 17  2  0
 21 17  2  0
 23 22  2  0
 24 22  1  0
 25 31  1  0
 26 24  2  0
 27 23  1  0
 28 26  1  0
 29 22  1  0
 30 25  1  0
 31 29  1  0
 32 26  1  0
 33 27  1  0
 34 29  1  0
 35 30  1  0
 36 30  1  0
 37 30  1  0
 27 28  2  0
  2 38  1  0
  3 39  1  0
  4 40  1  0
  7 41  1  0
  8 42  1  6
 10 43  1  0
 10 44  1  0
 11 45  1  0
 12 46  1  0
 13 47  1  0
 14 48  1  0
 14 49  1  0
 14 50  1  0
 15 51  1  0
 15 52  1  0
 15 53  1  0
 16 54  1  0
 16 55  1  0
 16 56  1  0
 18 57  1  0
 19 58  1  0
 23 59  1  0
 24 60  1  0
 25 61  1  0
 28 62  1  0
 29 63  1  6
 31 64  1  0
 31 65  1  0
 32 66  1  0
 33 67  1  0
 34 68  1  0
 35 69  1  0
 35 70  1  0
 35 71  1  0
 36 72  1  0
 36 73  1  0
 36 74  1  0
 37 75  1  0
 37 76  1  0
 37 77  1  0
M  END
> <Uni-Dock RESULT> 
ENERGY=   -4.525  LOWER_BOUND=    2.535  UPPER_BOUND=    6.228
INTER + INTRA:          -4.525
INTER:                  -4.525
INTRA:                   0.000
UNBOUND:                 0.000

$$$$

     RDKit          3D

 77 76  0  0  0  0  0  0  0  0999 V2000
   45.5174    6.5200   12.6485 C   0  0  0  0  0  0  0  0  0  0  0  0
   44.1627    6.7654   12.3581 C   0  0  0  0  0  0  0  0  0  0  0  0
   45.9437    5.1846   12.7039 C   0  0  0  0  0  0  0  0  0  0  0  0
   48.6943    8.6561   13.2245 N   0  0  0  0  0  0  0  0  0  0  0  0
   45.0463    4.1439   12.4641 C   0  0  0  0  0  0  0  0  0  0  0  0
   43.2799    5.7146   12.1215 C   0  0  0  0  0  0  0  0  0  0  0  0
   43.7107    4.3945   12.1709 C   0  0  0  0  0  0  0  0  0  0  0  0
   46.4290    7.6971   12.9276 C   0  0  1  0  0  0  0  0  0  0  0  0
   50.1609    8.5206   13.3396 C   0  0  0  0  0  0  0  0  0  0  0  0
   47.9440    7.3901   13.0780 C   0  0  0  0  0  0  0  0  0  0  0  0
   45.5320    2.8701   12.5352 O   0  0  0  0  0  0  0  0  0  0  0  0
   41.9813    6.0286   11.8452 O   0  0  0  0  0  0  0  0  0  0  0  0
   46.2790    8.6588   11.8728 O   0  0  0  0  0  0  0  0  0  0  0  0
   50.7781    7.8399   12.1074 C   0  0  0  0  0  0  0  0  0  0  0  0
   50.5655    7.7643   14.6153 C   0  0  0  0  0  0  0  0  0  0  0  0
   50.7148    9.9559   13.4274 C   0  0  0  0  0  0  0  0  0  0  0  0
   47.1997    7.2352   13.3006 S   0  0  0  0  0  0  0  0  0  0  0  0
   48.7499    7.5286   13.0107 O   0  0  0  0  0  0  0  0  0  0  0  0
   46.7862    6.4258   11.9788 O   0  0  0  0  0  0  0  0  0  0  0  0
   46.5337    8.5125   13.2789 O   0  0  0  0  0  0  0  0  0  0  0  0
   47.1112    6.3016   14.3944 O   0  0  0  0  0  0  0  0  0  0  0  0
   48.9415    8.3424   13.1989 C   0  0  0  0  0  0  0  0  0  0  0  0
   48.2437    9.4934   13.6017 C   0  0  0  0  0  0  0  0  0  0  0  0
   50.2894    8.2105   13.5697 C   0  0  0  0  0  0  0  0  0  0  0  0
   46.8373    5.1947   12.5955 N   0  0  0  0  0  0  0  0  0  0  0  0
   50.9102    9.2088   14.3189 C   0  0  0  0  0  0  0  0  0  0  0  0
   48.8820   10.4773   14.3520 C   0  0  0  0  0  0  0  0  0  0  0  0
   50.2158   10.3442   14.7174 C   0  0  0  0  0  0  0  0  0  0  0  0
   48.2223    7.2721   12.4065 C   0  0  2  0  0  0  0  0  0  0  0  0
   45.4554    5.2550   12.0743 C   0  0  0  0  0  0  0  0  0  0  0  0
   47.3195    6.3956   13.3116 C   0  0  0  0  0  0  0  0  0  0  0  0
   52.2201    9.1039   14.6871 O   0  0  0  0  0  0  0  0  0  0  0  0
   48.1525   11.5717   14.7143 O   0  0  0  0  0  0  0  0  0  0  0  0
   49.1563    6.4143   11.7367 O   0  0  0  0  0  0  0  0  0  0  0  0
   45.2706    3.9812   11.2266 C   0  0  0  0  0  0  0  0  0  0  0  0
   45.2024    6.4734   11.1740 C   0  0  0  0  0  0  0  0  0  0  0  0
   44.4279    5.2265   13.2198 C   0  0  0  0  0  0  0  0  0  0  0  0
   43.7973    7.7897   12.3057 H   0  0  0  0  0  0  0  0  0  0  0  0
   46.9734    4.9240   12.9292 H   0  0  0  0  0  0  0  0  0  0  0  0
   48.3439    9.1489   14.0493 H   0  0  0  0  0  0  0  0  0  0  0  0
   43.0199    3.5803   11.9902 H   0  0  0  0  0  0  0  0  0  0  0  0
   46.0794    8.1754   13.8519 H   0  0  0  0  0  0  0  0  0  0  0  0
   48.1013    6.7370   13.9425 H   0  0  0  0  0  0  0  0  0  0  0  0
   48.2821    6.8743   12.1728 H   0  0  0  0  0  0  0  0  0  0  0  0
   44.8167    2.2494   12.3162 H   0  0  0  0  0  0  0  0  0  0  0  0
   41.4995    5.2140   11.6285 H   0  0  0  0  0  0  0  0  0  0  0  0
   47.1130    9.1711   11.8883 H   0  0  0  0  0  0  0  0  0  0  0  0
   50.4619    8.3328   11.1807 H   0  0  0  0  0  0  0  0  0  0  0  0
   51.8731    7.8829   12.1450 H   0  0  0  0  0  0  0  0  0  0  0  0
   50.5039    6.7820   12.0399 H   0  0  0  0  0  0  0  0  0  0  0  0
   51.6522    7.7945   14.7598 H   0  0  0  0  0  0  0  0  0  0  0  0
   50.1036    8.2082   15.5053 H   0  0  0  0  0  0  0  0  0  0  0  0
   50.2757    6.7089   14.5750 H   0  0  0  0  0  0  0  0  0  0  0  0
   51.8082    9.9543   13.5068 H   0  0  0  0  0  0  0  0  0  0  0  0
   50.3229   10.4849   14.3040 H   0  0  0  0  0  0  0  0  0  0  0  0
   50.4515   10.5415   12.5386 H   0  0  0  0  0  0  0  0  0  0  0  0
   48.7941    8.3607   12.4953 H   0  0  0  0  0  0  0  0  0  0  0  0
   47.0159    5.4858   12.1321 H   0  0  0  0  0  0  0  0  0  0  0  0
   47.1992    9.6305   13.3312 H   0  0  0  0  0  0  0  0  0  0  0  0
   50.8423    7.3253   13.2660 H   0  0  0  0  0  0  0  0  0  0  0  0
   46.8962    4.4003   13.2381 H   0  0  0  0  0  0  0  0  0  0  0  0
   50.7258   11.1029   15.3006 H   0  0  0  0  0  0  0  0  0  0  0  0
   47.6347    7.7560   11.6194 H   0  0  0  0  0  0  0  0  0  0  0  0
   46.5160    6.9820   13.7689 H   0  0  0  0  0  0  0  0  0  0  0  0
   47.9339    6.0281   14.1447 H   0  0  0  0  0  0  0  0  0  0  0  0
   52.5835    8.2959   14.2861 H   0  0  0  0  0  0  0  0  0  0  0  0
   48.7363   12.1812   15.1957 H   0  0  0  0  0  0  0  0  0  0  0  0
   48.6236    5.6177   11.5311 H   0  0  0  0  0  0  0  0  0  0  0  0
   44.2625    3.9339   10.7985 H   0  0  0  0  0  0  0  0  0  0  0  0
   45.9844    3.9494   10.3946 H   0  0  0  0  0  0  0  0  0  0  0  0
   45.4153    3.0741   11.8256 H   0  0  0  0  0  0  0  0  0  0  0  0
   45.9301    6.5220   10.3557 H   0  0  0  0  0  0  0  0  0  0  0  0
   45.2496    7.4146   11.7330 H   0  0  0  0  0  0  0  0  0  0  0  0
   44.2060    6.4225   10.7191 H   0  0  0  0  0  0  0  0  0  0  0  0
   43.4074    5.1465   12.8269 H   0  0  0  0  0  0  0  0  0  0  0  0
   44.5921    4.3689   13.8831 H   0  0  0  0  0  0  0  0  0  0  0  0
   44.4671    6.1337   13.8312 H   0  0  0  0  0  0  0  0  0  0  0  0
  2  1  2  0
  3  1  1  0
  4 10  1  0
  5  3  2  0
  6  2  1  0
  7  5  1  0
  8  1  1  0
  9  4  1  0
 10  8  1  0
 11  5  1  0
 12  6  1  0
 13  8  1  0
 14  9  1  0
 15  9  1  0
 16  9  1  0
  6  7  2  0
 18 17  1  0
 19 17  1  0
 20 17  2  0
 21 17  2  0
 23 22  2  0
 24 22  1  0
 25 31  1  0
 26 24  2  0
 27 23  1  0
 28 26  1  0
 29 22  1  0
 30 25  1  0
 31 29  1  0
 32 26  1  0
 33 27  1  0
 34 29  1  0
 35 30  1  0
 36 30  1  0
 37 30  1  0
 27 28  2  0
  2 38  1  0
  3 39  1  0
  4 40  1  0
  7 41  1  0
  8 42  1  6
 10 43  1  0
 10 44  1  0
 11 45  1  0
 12 46  1  0
 13 47  1  0
 14 48  1  0
 14 49  1  0
 14 50  1  0
 15 51  1  0
 15 52  1  0
 15 53  1  0
 16 54  1  0
 16 55  1  0
 16 56  1  0
 18 57  1  0
 19 58  1  0
 23 59  1  0
 24 60  1  0
 25 61  1  0
 28 62  1  0
 29 63  1  6
 31 64  1  0
 31 65  1  0
 32 66  1  0
 33 67  1  0
 34 68  1  0
 35 69  1  0
 35 70  1  0
 35 71  1  0
 36 72  1  0
 36 73  1  0
 36 74  1  0
 37 75  1  0
 37 76  1  0
 37 77  1  0
M  END
> <Uni-Dock RESULT> 
ENERGY=   -4.428  LOWER_BOUND=    7.495  UPPER_BOUND=    9.934
INTER + INTRA:          -4.428
INTER:                  -4.428
INTRA:                   0.000
UNBOUND:                 0.000

$$$$

     RDKit          3D

 77 76  0  0  0  0  0  0  0  0999 V2000
   48.3708   10.7907   20.2063 C   0  0  0  0  0  0  0  0  0  0  0  0
   48.8750   11.7545   21.0989 C   0  0  0  0  0  0  0  0  0  0  0  0
   47.5170   11.2290   19.1832 C   0  0  0  0  0  0  0  0  0  0  0  0
   48.8350    6.9915   19.6247 N   0  0  0  0  0  0  0  0  0  0  0  0
   47.1966   12.5809   19.0581 C   0  0  0  0  0  0  0  0  0  0  0  0
   48.5449   13.1003   20.9600 C   0  0  0  0  0  0  0  0  0  0  0  0
   47.7043   13.5283   19.9397 C   0  0  0  0  0  0  0  0  0  0  0  0
   48.7364    9.3363   20.4196 C   0  0  1  0  0  0  0  0  0  0  0  0
   48.5261    5.9374   18.6369 C   0  0  0  0  0  0  0  0  0  0  0  0
   48.2955    8.3340   19.3183 C   0  0  0  0  0  0  0  0  0  0  0  0
   46.3599   12.9339   18.0389 O   0  0  0  0  0  0  0  0  0  0  0  0
   49.0718   13.9780   21.8619 O   0  0  0  0  0  0  0  0  0  0  0  0
   50.1610    9.2333   20.5615 O   0  0  0  0  0  0  0  0  0  0  0  0
   49.0770    6.2717   17.2415 C   0  0  0  0  0  0  0  0  0  0  0  0
   47.0166    5.6592   18.5528 C   0  0  0  0  0  0  0  0  0  0  0  0
   49.2292    4.6625   19.1417 C   0  0  0  0  0  0  0  0  0  0  0  0
   48.0952    8.9074   19.8268 S   0  0  0  0  0  0  0  0  0  0  0  0
   48.3542    7.6736   18.8349 O   0  0  0  0  0  0  0  0  0  0  0  0
   48.7416   10.1154   18.9924 O   0  0  0  0  0  0  0  0  0  0  0  0
   48.9108    8.6709   20.9907 O   0  0  0  0  0  0  0  0  0  0  0  0
   46.6776    9.1595   19.8771 O   0  0  0  0  0  0  0  0  0  0  0  0
   48.6521    6.9972   19.2688 C   0  0  0  0  0  0  0  0  0  0  0  0
   49.0531    6.7198   20.5865 C   0  0  0  0  0  0  0  0  0  0  0  0
   48.1486    5.9465   18.4851 C   0  0  0  0  0  0  0  0  0  0  0  0
   47.5270   10.5909   18.5482 N   0  0  0  0  0  0  0  0  0  0  0  0
   48.0567    4.6601   19.0145 C   0  0  0  0  0  0  0  0  0  0  0  0
   48.9503    5.4284   21.0966 C   0  0  0  0  0  0  0  0  0  0  0  0
   48.4518    4.3906   20.3189 C   0  0  0  0  0  0  0  0  0  0  0  0
   48.7469    8.4128   18.7418 C   0  0  2  0  0  0  0  0  0  0  0  0
   48.1146   11.7574   19.2402 C   0  0  0  0  0  0  0  0  0  0  0  0
   47.5917    9.3014   19.2696 C   0  0  0  0  0  0  0  0  0  0  0  0
   47.5744    3.6230   18.2701 O   0  0  0  0  0  0  0  0  0  0  0  0
   49.3545    5.2207   22.3829 O   0  0  0  0  0  0  0  0  0  0  0  0
   48.7094    8.4305   17.3082 O   0  0  0  0  0  0  0  0  0  0  0  0
   48.0870   12.9099   18.2173 C   0  0  0  0  0  0  0  0  0  0  0  0
   49.5711   11.5322   19.6726 C   0  0  0  0  0  0  0  0  0  0  0  0
   47.2642   12.1691   20.4550 C   0  0  0  0  0  0  0  0  0  0  0  0
   49.5416   11.4502   21.9042 H   0  0  0  0  0  0  0  0  0  0  0  0
   47.0874   10.5378   18.4643 H   0  0  0  0  0  0  0  0  0  0  0  0
   48.4817    6.6993   20.5388 H   0  0  0  0  0  0  0  0  0  0  0  0
   47.4470   14.5754   19.8379 H   0  0  0  0  0  0  0  0  0  0  0  0
   48.2938    9.0195   21.3731 H   0  0  0  0  0  0  0  0  0  0  0  0
   47.2025    8.3143   19.2572 H   0  0  0  0  0  0  0  0  0  0  0  0
   48.7020    8.6749   18.3600 H   0  0  0  0  0  0  0  0  0  0  0  0
   46.2475   13.8994   18.0461 H   0  0  0  0  0  0  0  0  0  0  0  0
   48.8240   14.8807   21.6048 H   0  0  0  0  0  0  0  0  0  0  0  0
   50.3651    8.3081   20.3152 H   0  0  0  0  0  0  0  0  0  0  0  0
   50.1432    6.5232   17.2847 H   0  0  0  0  0  0  0  0  0  0  0  0
   48.9686    5.4167   16.5636 H   0  0  0  0  0  0  0  0  0  0  0  0
   48.5484    7.1121   16.7798 H   0  0  0  0  0  0  0  0  0  0  0  0
   46.8146    4.7831   17.9249 H   0  0  0  0  0  0  0  0  0  0  0  0
   46.5925    5.4575   19.5437 H   0  0  0  0  0  0  0  0  0  0  0  0
   46.4688    6.5011   18.1160 H   0  0  0  0  0  0  0  0  0  0  0  0
   49.0613    3.8210   18.4595 H   0  0  0  0  0  0  0  0  0  0  0  0
   48.8586    4.3634   20.1292 H   0  0  0  0  0  0  0  0  0  0  0  0
   50.3130    4.8083   19.2219 H   0  0  0  0  0  0  0  0  0  0  0  0
   49.2479    7.3254   19.0355 H   0  0  0  0  0  0  0  0  0  0  0  0
   48.0543   10.4392   18.3738 H   0  0  0  0  0  0  0  0  0  0  0  0
   49.4496    7.5082   21.2220 H   0  0  0  0  0  0  0  0  0  0  0  0
   47.8337    6.1457   17.4640 H   0  0  0  0  0  0  0  0  0  0  0  0
   46.5422   10.7989   18.3630 H   0  0  0  0  0  0  0  0  0  0  0  0
   48.3672    3.3800   20.7028 H   0  0  0  0  0  0  0  0  0  0  0  0
   49.7199    8.8268   19.0261 H   0  0  0  0  0  0  0  0  0  0  0  0
   47.6332    9.4127   20.3579 H   0  0  0  0  0  0  0  0  0  0  0  0
   46.6458    8.7849   19.0569 H   0  0  0  0  0  0  0  0  0  0  0  0
   47.4008    3.9506   17.3711 H   0  0  0  0  0  0  0  0  0  0  0  0
   49.2598    4.2745   22.5830 H   0  0  0  0  0  0  0  0  0  0  0  0
   48.4677    9.3574   17.1003 H   0  0  0  0  0  0  0  0  0  0  0  0
   48.5020   13.8295   18.6462 H   0  0  0  0  0  0  0  0  0  0  0  0
   48.6776   12.6657   17.3260 H   0  0  0  0  0  0  0  0  0  0  0  0
   47.0648   13.1334   17.8895 H   0  0  0  0  0  0  0  0  0  0  0  0
   50.1955   11.2265   18.8251 H   0  0  0  0  0  0  0  0  0  0  0  0
   49.6546   10.7694   20.4545 H   0  0  0  0  0  0  0  0  0  0  0  0
   50.0047   12.4538   20.0788 H   0  0  0  0  0  0  0  0  0  0  0  0
   47.6329   13.1054   20.8904 H   0  0  0  0  0  0  0  0  0  0  0  0
   46.2162   12.3284   20.1741 H   0  0  0  0  0  0  0  0  0  0  0  0
   47.2863   11.4148   21.2481 H   0  0  0  0  0  0  0  0  0  0  0  0
  2  1  2  0
  3  1  1  0
  4 10  1  0
  5  3  2  0
  6  2  1  0
  7  5  1  0
  8  1  1  0
  9  4  1  0
 10  8  1  0
 11  5  1  0
 12  6  1  0
 13  8  1  0
 14  9  1  0
 15  9  1  0
 16  9  1  0
  6  7  2  0
 18 17  1  0
 19 17  1  0
 20 17  2  0
 21 17  2  0
 23 22  2  0
 24 22  1  0
 25 31  1  0
 26 24  2  0
 27 23  1  0
 28 26  1  0
 29 22  1  0
 30 25  1  0
 31 29  1  0
 32 26  1  0
 33 27  1  0
 34 29  1  0
 35 30  1  0
 36 30  1  0
 37 30  1  0
 27 28  2  0
  2 38  1  0
  3 39  1  0
  4 40  1  0
  7 41  1  0
  8 42  1  6
 10 43  1  0
 10 44  1  0
 11 45  1  0
 12 46  1  0
 13 47  1  0
 14 48  1  0
 14 49  1  0
 14 50  1  0
 15 51  1  0
 15 52  1  0
 15 53  1  0
 16 54  1  0
 16 55  1  0
 16 56  1  0
 18 57  1  0
 19 58  1  0
 23 59  1  0
 24 60  1  0
 25 61  1  0
 28 62  1  0
 29 63  1  6
 31 64  1  0
 31 65  1  0
 32 66  1  0
 33 67  1  0
 34 68  1  0
 35 69  1  0
 35 70  1  0
 35 71  1  0
 36 72  1  0
 36 73  1  0
 36 74  1  0
 37 75  1  0
 37 76  1  0
 37 77  1  0
M  END
> <Uni-Dock RESULT> 
ENERGY=   -4.383  LOWER_BOUND=    1.689  UPPER_BOUND=    3.422
INTER + INTRA:          -4.383
INTER:                  -4.383
INTRA:                   0.000
UNBOUND:                 0.000

$$$$

     RDKit          3D

 77 76  0  0  0  0  0  0  0  0999 V2000
   48.1064    6.7500   19.2713 C   0  0  0  0  0  0  0  0  0  0  0  0
   47.3533    5.8128   18.5405 C   0  0  0  0  0  0  0  0  0  0  0  0
   49.2363    6.2868   19.9616 C   0  0  0  0  0  0  0  0  0  0  0  0
   48.0355   10.5798   19.8332 N   0  0  0  0  0  0  0  0  0  0  0  0
   49.5979    4.9407   19.9063 C   0  0  0  0  0  0  0  0  0  0  0  0
   47.7280    4.4723   18.4960 C   0  0  0  0  0  0  0  0  0  0  0  0
   48.8528    4.0217   19.1763 C   0  0  0  0  0  0  0  0  0  0  0  0
   47.6385    8.1902   19.3118 C   0  0  1  0  0  0  0  0  0  0  0  0
   48.8560   11.6703   20.3988 C   0  0  0  0  0  0  0  0  0  0  0  0
   48.5872    9.2165   19.9890 C   0  0  0  0  0  0  0  0  0  0  0  0
   50.7091    4.5622   20.6030 O   0  0  0  0  0  0  0  0  0  0  0  0
   46.9504    3.6212   17.7664 O   0  0  0  0  0  0  0  0  0  0  0  0
   47.3967    8.6361   17.9691 O   0  0  0  0  0  0  0  0  0  0  0  0
   50.2516   11.7372   19.7582 C   0  0  0  0  0  0  0  0  0  0  0  0
   48.9843   11.5543   21.9263 C   0  0  0  0  0  0  0  0  0  0  0  0
   48.1099   12.9780   20.0702 C   0  0  0  0  0  0  0  0  0  0  0  0
   48.1913    8.5320   20.0357 S   0  0  0  0  0  0  0  0  0  0  0  0
   48.9528    9.9423   20.1022 O   0  0  0  0  0  0  0  0  0  0  0  0
   49.1703    7.6975   19.0774 O   0  0  0  0  0  0  0  0  0  0  0  0
   46.9578    8.7694   19.3303 O   0  0  0  0  0  0  0  0  0  0  0  0
   48.2677    7.9132   21.3346 O   0  0  0  0  0  0  0  0  0  0  0  0
   48.3979   10.5879   20.0028 C   0  0  0  0  0  0  0  0  0  0  0  0
   47.0311   10.7292   19.7099 C   0  0  0  0  0  0  0  0  0  0  0  0
   49.0296   11.5891   20.7578 C   0  0  0  0  0  0  0  0  0  0  0  0
   49.7577    7.0048   20.1136 N   0  0  0  0  0  0  0  0  0  0  0  0
   48.3052   12.6956   21.1986 C   0  0  0  0  0  0  0  0  0  0  0  0
   46.3254   11.8409   20.1623 C   0  0  0  0  0  0  0  0  0  0  0  0
   46.9531   12.8302   20.9091 C   0  0  0  0  0  0  0  0  0  0  0  0
   49.1408    9.3590   19.5246 C   0  0  2  0  0  0  0  0  0  0  0  0
   49.2301    5.9313   19.2451 C   0  0  0  0  0  0  0  0  0  0  0  0
   48.8343    8.1222   20.4072 C   0  0  0  0  0  0  0  0  0  0  0  0
   48.8991   13.6827   21.9302 O   0  0  0  0  0  0  0  0  0  0  0  0
   45.0005   11.9224   19.8472 O   0  0  0  0  0  0  0  0  0  0  0  0
   50.5580    9.5793   19.5351 O   0  0  0  0  0  0  0  0  0  0  0  0
   50.4260    5.0058   18.9482 C   0  0  0  0  0  0  0  0  0  0  0  0
   48.6803    6.4515   17.9086 C   0  0  0  0  0  0  0  0  0  0  0  0
   48.1512    5.1088   19.9718 C   0  0  0  0  0  0  0  0  0  0  0  0
   46.4708    6.1373   17.9915 H   0  0  0  0  0  0  0  0  0  0  0  0
   49.8581    6.9547   20.5501 H   0  0  0  0  0  0  0  0  0  0  0  0
   47.1089   10.6075   20.2651 H   0  0  0  0  0  0  0  0  0  0  0  0
   49.1382    2.9776   19.1422 H   0  0  0  0  0  0  0  0  0  0  0  0
   46.6746    8.2112   19.8369 H   0  0  0  0  0  0  0  0  0  0  0  0
   48.7098    8.9600   21.0462 H   0  0  0  0  0  0  0  0  0  0  0  0
   49.5620    9.1641   19.4921 H   0  0  0  0  0  0  0  0  0  0  0  0
   50.8653    3.6145   20.4528 H   0  0  0  0  0  0  0  0  0  0  0  0
   47.3649    2.7433   17.7597 H   0  0  0  0  0  0  0  0  0  0  0  0
   47.4771    9.6105   18.0166 H   0  0  0  0  0  0  0  0  0  0  0  0
   50.1859   11.7696   18.6644 H   0  0  0  0  0  0  0  0  0  0  0  0
   50.7872   12.6375   20.0818 H   0  0  0  0  0  0  0  0  0  0  0  0
   50.8743   10.8803   20.0356 H   0  0  0  0  0  0  0  0  0  0  0  0
   49.4728   12.4417   22.3463 H   0  0  0  0  0  0  0  0  0  0  0  0
   48.0010   11.4644   22.4032 H   0  0  0  0  0  0  0  0  0  0  0  0
   49.5838   10.6868   22.2222 H   0  0  0  0  0  0  0  0  0  0  0  0
   48.6555   13.8508   20.4474 H   0  0  0  0  0  0  0  0  0  0  0  0
   47.1110   12.9951   20.5218 H   0  0  0  0  0  0  0  0  0  0  0  0
   47.9897   13.1090   18.9883 H   0  0  0  0  0  0  0  0  0  0  0  0
   48.6451   10.4721   19.3375 H   0  0  0  0  0  0  0  0  0  0  0  0
   49.8732    7.3167   19.6437 H   0  0  0  0  0  0  0  0  0  0  0  0
   46.5091    9.9746   19.1260 H   0  0  0  0  0  0  0  0  0  0  0  0
   50.0866   11.4935   20.9929 H   0  0  0  0  0  0  0  0  0  0  0  0
   50.0329    6.5817   21.0039 H   0  0  0  0  0  0  0  0  0  0  0  0
   46.4162   13.7017   21.2668 H   0  0  0  0  0  0  0  0  0  0  0  0
   48.8695    9.1712   18.4805 H   0  0  0  0  0  0  0  0  0  0  0  0
   47.7779    7.8398   20.3532 H   0  0  0  0  0  0  0  0  0  0  0  0
   49.0167    8.4020   21.4536 H   0  0  0  0  0  0  0  0  0  0  0  0
   49.8481   13.4810   21.9966 H   0  0  0  0  0  0  0  0  0  0  0  0
   44.6558   12.7617   20.1948 H   0  0  0  0  0  0  0  0  0  0  0  0
   50.9274    8.6716   19.5167 H   0  0  0  0  0  0  0  0  0  0  0  0
   50.1278    4.1671   18.3083 H   0  0  0  0  0  0  0  0  0  0  0  0
   51.2289    5.5456   18.4317 H   0  0  0  0  0  0  0  0  0  0  0  0
   50.8464    4.5827   19.8684 H   0  0  0  0  0  0  0  0  0  0  0  0
   49.4280    7.0511   17.3767 H   0  0  0  0  0  0  0  0  0  0  0  0
   47.7815    7.0632   18.0439 H   0  0  0  0  0  0  0  0  0  0  0  0
   48.4036    5.6197   17.2500 H   0  0  0  0  0  0  0  0  0  0  0  0
   47.8521    4.2410   19.3722 H   0  0  0  0  0  0  0  0  0  0  0  0
   48.5165    4.7319   20.9346 H   0  0  0  0  0  0  0  0  0  0  0  0
   47.2464    5.6944   20.1641 H   0  0  0  0  0  0  0  0  0  0  0  0
  2  1  2  0
  3  1  1  0
  4 10  1  0
  5  3  2  0
  6  2  1  0
  7  5  1  0
  8  1  1  0
  9  4  1  0
 10  8  1  0
 11  5  1  0
 12  6  1  0
 13  8  1  0
 14  9  1  0
 15  9  1  0
 16  9  1  0
  6  7  2  0
 18 17  1  0
 19 17  1  0
 20 17  2  0
 21 17  2  0
 23 22  2  0
 24 22  1  0
 25 31  1  0
 26 24  2  0
 27 23  1  0
 28 26  1  0
 29 22  1  0
 30 25  1  0
 31 29  1  0
 32 26  1  0
 33 27  1  0
 34 29  1  0
 35 30  1  0
 36 30  1  0
 37 30  1  0
 27 28  2  0
  2 38  1  0
  3 39  1  0
  4 40  1  0
  7 41  1  0
  8 42  1  6
 10 43  1  0
 10 44  1  0
 11 45  1  0
 12 46  1  0
 13 47  1  0
 14 48  1  0
 14 49  1  0
 14 50  1  0
 15 51  1  0
 15 52  1  0
 15 53  1  0
 16 54  1  0
 16 55  1  0
 16 56  1  0
 18 57  1  0
 19 58  1  0
 23 59  1  0
 24 60  1  0
 25 61  1  0
 28 62  1  0
 29 63  1  6
 31 64  1  0
 31 65  1  0
 32 66  1  0
 33 67  1  0
 34 68  1  0
 35 69  1  0
 35 70  1  0
 35 71  1  0
 36 72  1  0
 36 73  1  0
 36 74  1  0
 37 75  1  0
 37 76  1  0
 37 77  1  0
M  END
> <Uni-Dock RESULT> 
ENERGY=   -4.368  LOWER_BOUND=    2.001  UPPER_BOUND=    6.047
INTER + INTRA:          -4.368
INTER:                  -4.368
INTRA:                   0.000
UNBOUND:                 0.000

$$$$

     RDKit          3D

 77 76  0  0  0  0  0  0  0  0999 V2000
   48.8430    7.8139   21.9591 C   0  0  0  0  0  0  0  0  0  0  0  0
   49.4523    7.1670   23.0501 C   0  0  0  0  0  0  0  0  0  0  0  0
   48.2897    7.0132   20.9489 C   0  0  0  0  0  0  0  0  0  0  0  0
   48.0516   11.4664   20.9491 N   0  0  0  0  0  0  0  0  0  0  0  0
   48.3373    5.6221   21.0415 C   0  0  0  0  0  0  0  0  0  0  0  0
   49.4914    5.7771   23.1269 C   0  0  0  0  0  0  0  0  0  0  0  0
   48.9348    4.9901   22.1260 C   0  0  0  0  0  0  0  0  0  0  0  0
   48.8542    9.3278   21.9091 C   0  0  1  0  0  0  0  0  0  0  0  0
   47.2713   12.2384   19.9604 C   0  0  0  0  0  0  0  0  0  0  0  0
   48.0285    9.9977   20.7772 C   0  0  0  0  0  0  0  0  0  0  0  0
   47.7787    4.9077   20.0212 O   0  0  0  0  0  0  0  0  0  0  0  0
   50.0979    5.2197   24.2145 O   0  0  0  0  0  0  0  0  0  0  0  0
   48.3731    9.8357   23.1624 O   0  0  0  0  0  0  0  0  0  0  0  0
   45.7804   11.8653   19.9802 C   0  0  0  0  0  0  0  0  0  0  0  0
   47.8341   12.0781   18.5389 C   0  0  0  0  0  0  0  0  0  0  0  0
   47.4053   13.7169   20.3738 C   0  0  0  0  0  0  0  0  0  0  0  0
   48.5839    9.4729   20.9859 S   0  0  0  0  0  0  0  0  0  0  0  0
   47.5545   10.5702   20.4296 O   0  0  0  0  0  0  0  0  0  0  0  0
   47.5751    8.3781   21.5833 O   0  0  0  0  0  0  0  0  0  0  0  0
   49.2844   10.0921   22.0820 O   0  0  0  0  0  0  0  0  0  0  0  0
   49.2384    8.8535   19.8618 O   0  0  0  0  0  0  0  0  0  0  0  0
   47.8079   11.3586   20.6506 C   0  0  0  0  0  0  0  0  0  0  0  0
   48.8235   11.9261   21.4382 C   0  0  0  0  0  0  0  0  0  0  0  0
   47.2952   12.1043   19.5769 C   0  0  0  0  0  0  0  0  0  0  0  0
   47.6999    7.5288   20.5055 N   0  0  0  0  0  0  0  0  0  0  0  0
   47.7903   13.3801   19.3111 C   0  0  0  0  0  0  0  0  0  0  0  0
   49.3058   13.2009   21.1537 C   0  0  0  0  0  0  0  0  0  0  0  0
   48.7966   13.9366   20.0907 C   0  0  0  0  0  0  0  0  0  0  0  0
   47.3160    9.9611   20.9599 C   0  0  2  0  0  0  0  0  0  0  0  0
   48.0958    6.6824   21.6508 C   0  0  0  0  0  0  0  0  0  0  0  0
   48.3017    8.8787   20.4506 C   0  0  0  0  0  0  0  0  0  0  0  0
   47.3044   14.1245   18.2757 O   0  0  0  0  0  0  0  0  0  0  0  0
   50.2929   13.6985   21.9532 O   0  0  0  0  0  0  0  0  0  0  0  0
   46.0358    9.7226   20.3588 O   0  0  0  0  0  0  0  0  0  0  0  0
   47.2030    5.4285   21.5744 C   0  0  0  0  0  0  0  0  0  0  0  0
   47.8617    7.3581   23.0102 C   0  0  0  0  0  0  0  0  0  0  0  0
   49.5644    6.2380   21.5317 C   0  0  0  0  0  0  0  0  0  0  0  0
   49.8909    7.7571   23.8531 H   0  0  0  0  0  0  0  0  0  0  0  0
   47.8105    7.4468   20.0764 H   0  0  0  0  0  0  0  0  0  0  0  0
   49.0238   11.7825   20.9201 H   0  0  0  0  0  0  0  0  0  0  0  0
   48.9711    3.9095   22.1878 H   0  0  0  0  0  0  0  0  0  0  0  0
   49.8995    9.6487   21.8112 H   0  0  0  0  0  0  0  0  0  0  0  0
   48.4389    9.7089   19.8042 H   0  0  0  0  0  0  0  0  0  0  0  0
   46.9945    9.6434   20.8495 H   0  0  0  0  0  0  0  0  0  0  0  0
   47.8503    3.9602   20.2263 H   0  0  0  0  0  0  0  0  0  0  0  0
   49.9871    4.2559   24.1775 H   0  0  0  0  0  0  0  0  0  0  0  0
   48.0468   10.7346   22.9530 H   0  0  0  0  0  0  0  0  0  0  0  0
   45.3693   11.9238   20.9947 H   0  0  0  0  0  0  0  0  0  0  0  0
   45.1984   12.5484   19.3501 H   0  0  0  0  0  0  0  0  0  0  0  0
   45.6032   10.8539   19.5998 H   0  0  0  0  0  0  0  0  0  0  0  0
   47.3368   12.7632   17.8418 H   0  0  0  0  0  0  0  0  0  0  0  0
   48.9075   12.3003   18.5077 H   0  0  0  0  0  0  0  0  0  0  0  0
   47.6876   11.0638   18.1524 H   0  0  0  0  0  0  0  0  0  0  0  0
   46.8450   14.3703   19.6950 H   0  0  0  0  0  0  0  0  0  0  0  0
   48.4511   14.0456   20.3571 H   0  0  0  0  0  0  0  0  0  0  0  0
   47.0182   13.8860   21.3856 H   0  0  0  0  0  0  0  0  0  0  0  0
   47.3487   11.1749   21.1726 H   0  0  0  0  0  0  0  0  0  0  0  0
   47.3146    7.7913   20.8433 H   0  0  0  0  0  0  0  0  0  0  0  0
   49.2431   11.3787   22.2790 H   0  0  0  0  0  0  0  0  0  0  0  0
   46.5096   11.6783   18.9582 H   0  0  0  0  0  0  0  0  0  0  0  0
   47.9561    7.0348   19.6466 H   0  0  0  0  0  0  0  0  0  0  0  0
   49.1619   14.9307   19.8584 H   0  0  0  0  0  0  0  0  0  0  0  0
   47.1655    9.8752   22.0411 H   0  0  0  0  0  0  0  0  0  0  0  0
   49.2702    8.9447   20.9568 H   0  0  0  0  0  0  0  0  0  0  0  0
   48.5037    9.0800   19.3897 H   0  0  0  0  0  0  0  0  0  0  0  0
   46.5713   13.6330   17.8674 H   0  0  0  0  0  0  0  0  0  0  0  0
   50.4974   14.6015   21.6584 H   0  0  0  0  0  0  0  0  0  0  0  0
   45.9674    8.7448   20.3544 H   0  0  0  0  0  0  0  0  0  0  0  0
   47.4302    4.7310   22.3891 H   0  0  0  0  0  0  0  0  0  0  0  0
   46.1408    5.6905   21.6510 H   0  0  0  0  0  0  0  0  0  0  0  0
   47.3465    4.8885   20.6309 H   0  0  0  0  0  0  0  0  0  0  0  0
   46.8236    7.6943   23.1143 H   0  0  0  0  0  0  0  0  0  0  0  0
   48.5196    8.2214   23.1590 H   0  0  0  0  0  0  0  0  0  0  0  0
   48.0605    6.6604   23.8324 H   0  0  0  0  0  0  0  0  0  0  0  0
   49.8175    5.5129   22.3142 H   0  0  0  0  0  0  0  0  0  0  0  0
   49.7601    5.7590   20.5649 H   0  0  0  0  0  0  0  0  0  0  0  0
   50.2587    7.0780   21.6347 H   0  0  0  0  0  0  0  0  0  0  0  0
  2  1  2  0
  3  1  1  0
  4 10  1  0
  5  3  2  0
  6  2  1  0
  7  5  1  0
  8  1  1  0
  9  4  1  0
 10  8  1  0
 11  5  1  0
 12  6  1  0
 13  8  1  0
 14  9  1  0
 15  9  1  0
 16  9  1  0
  6  7  2  0
 18 17  1  0
 19 17  1  0
 20 17  2  0
 21 17  2  0
 23 22  2  0
 24 22  1  0
 25 31  1  0
 26 24  2  0
 27 23  1  0
 28 26  1  0
 29 22  1  0
 30 25  1  0
 31 29  1  0
 32 26  1  0
 33 27  1  0
 34 29  1  0
 35 30  1  0
 36 30  1  0
 37 30  1  0
 27 28  2  0
  2 38  1  0
  3 39  1  0
  4 40  1  0
  7 41  1  0
  8 42  1  6
 10 43  1  0
 10 44  1  0
 11 45  1  0
 12 46  1  0
 13 47  1  0
 14 48  1  0
 14 49  1  0
 14 50  1  0
 15 51  1  0
 15 52  1  0
 15 53  1  0
 16 54  1  0
 16 55  1  0
 16 56  1  0
 18 57  1  0
 19 58  1  0
 23 59  1  0
 24 60  1  0
 25 61  1  0
 28 62  1  0
 29 63  1  6
 31 64  1  0
 31 65  1  0
 32 66  1  0
 33 67  1  0
 34 68  1  0
 35 69  1  0
 35 70  1  0
 35 71  1  0
 36 72  1  0
 36 73  1  0
 36 74  1  0
 37 75  1  0
 37 76  1  0
 37 77  1  0
M  END
> <Uni-Dock RESULT> 
ENERGY=   -4.362  LOWER_BOUND=    0.942  UPPER_BOUND=    6.349
INTER + INTRA:          -4.362
INTER:                  -4.362
INTRA:                   0.000
UNBOUND:                 0.000

$$$$
