
     RDKit          3D

 77 76  0  0  0  0  0  0  0  0999 V2000
   47.1133    8.0488   12.7454 C   0  0  0  0  0  0  0  0  0  0  0  0
   48.0147    7.8498   11.6869 C   0  0  0  0  0  0  0  0  0  0  0  0
   47.5938    7.9626   14.0633 C   0  0  0  0  0  0  0  0  0  0  0  0
   45.0677    6.0219   11.5438 N   0  0  0  0  0  0  0  0  0  0  0  0
   48.9391    7.6798   14.3007 C   0  0  0  0  0  0  0  0  0  0  0  0
   49.3508    7.5553   11.9478 C   0  0  0  0  0  0  0  0  0  0  0  0
   49.8243    7.4692   13.2510 C   0  0  0  0  0  0  0  0  0  0  0  0
   45.6480    8.3056   12.4558 C   0  0  1  0  0  0  0  0  0  0  0  0
   44.3234    4.7502   11.6426 C   0  0  0  0  0  0  0  0  0  0  0  0
   44.7832    7.0205   12.5863 C   0  0  0  0  0  0  0  0  0  0  0  0
   49.4292    7.6029   15.5735 O   0  0  0  0  0  0  0  0  0  0  0  0
   50.1751    7.3450   10.8788 O   0  0  0  0  0  0  0  0  0  0  0  0
   45.1716    9.2892   13.3799 O   0  0  0  0  0  0  0  0  0  0  0  0
   42.8085    4.9709   11.4836 C   0  0  0  0  0  0  0  0  0  0  0  0
   44.8102    3.8742   10.4716 C   0  0  0  0  0  0  0  0  0  0  0  0
   44.6130    4.0064   12.9574 C   0  0  0  0  0  0  0  0  0  0  0  0
   45.8143    6.5734   12.6267 S   0  0  0  0  0  0  0  0  0  0  0  0
   45.7264    5.9254   11.1617 O   0  0  0  0  0  0  0  0  0  0  0  0
   47.2971    6.1495   13.0672 O   0  0  0  0  0  0  0  0  0  0  0  0
   44.8742    5.8522   13.4457 O   0  0  0  0  0  0  0  0  0  0  0  0
   45.8250    8.0074   12.4906 O   0  0  0  0  0  0  0  0  0  0  0  0
   47.3870    7.6993   12.7661 C   0  0  0  0  0  0  0  0  0  0  0  0
   48.6643    7.3450   12.3008 C   0  0  0  0  0  0  0  0  0  0  0  0
   47.2718    8.7819   13.6549 C   0  0  0  0  0  0  0  0  0  0  0  0
   45.0536    4.6305   12.4468 N   0  0  0  0  0  0  0  0  0  0  0  0
   48.4117    9.4650   14.0746 C   0  0  0  0  0  0  0  0  0  0  0  0
   49.7889    8.0456   12.7298 C   0  0  0  0  0  0  0  0  0  0  0  0
   49.6736    9.1051   13.6201 C   0  0  0  0  0  0  0  0  0  0  0  0
   46.1395    6.9733   12.2941 C   0  0  2  0  0  0  0  0  0  0  0  0
   44.1610    4.4703   11.2876 C   0  0  0  0  0  0  0  0  0  0  0  0
   46.2851    5.4243   12.3135 C   0  0  0  0  0  0  0  0  0  0  0  0
   48.3296   10.5156   14.9419 O   0  0  0  0  0  0  0  0  0  0  0  0
   50.9993    7.6595   12.2372 O   0  0  0  0  0  0  0  0  0  0  0  0
   45.8270    7.4316   10.9775 O   0  0  0  0  0  0  0  0  0  0  0  0
   43.1073    5.5885   11.2357 C   0  0  0  0  0  0  0  0  0  0  0  0
   44.8792    4.3524    9.9339 C   0  0  0  0  0  0  0  0  0  0  0  0
   43.4178    3.1402   11.5387 C   0  0  0  0  0  0  0  0  0  0  0  0
   47.6771    7.9063   10.6538 H   0  0  0  0  0  0  0  0  0  0  0  0
   46.9060    8.1250   14.8910 H   0  0  0  0  0  0  0  0  0  0  0  0
   46.0702    5.8171   11.5569 H   0  0  0  0  0  0  0  0  0  0  0  0
   50.8647    7.2551   13.4676 H   0  0  0  0  0  0  0  0  0  0  0  0
   45.5342    8.7340   11.4536 H   0  0  0  0  0  0  0  0  0  0  0  0
   44.9398    6.6005   13.5860 H   0  0  0  0  0  0  0  0  0  0  0  0
   43.7316    7.3225   12.5352 H   0  0  0  0  0  0  0  0  0  0  0  0
   48.7026    7.7979   16.1891 H   0  0  0  0  0  0  0  0  0  0  0  0
   51.0036    6.9578   11.2078 H   0  0  0  0  0  0  0  0  0  0  0  0
   44.2800    9.5449   13.0817 H   0  0  0  0  0  0  0  0  0  0  0  0
   42.5850    5.5103   10.5530 H   0  0  0  0  0  0  0  0  0  0  0  0
   42.2753    4.0146   11.4473 H   0  0  0  0  0  0  0  0  0  0  0  0
   42.3791    5.5433   12.3156 H   0  0  0  0  0  0  0  0  0  0  0  0
   45.8886    3.6937   10.5243 H   0  0  0  0  0  0  0  0  0  0  0  0
   44.3120    2.8991   10.4740 H   0  0  0  0  0  0  0  0  0  0  0  0
   44.5978    4.3459    9.5066 H   0  0  0  0  0  0  0  0  0  0  0  0
   44.1855    2.9983   12.9393 H   0  0  0  0  0  0  0  0  0  0  0  0
   44.1814    4.5221   13.8231 H   0  0  0  0  0  0  0  0  0  0  0  0
   45.6914    3.9037   13.1268 H   0  0  0  0  0  0  0  0  0  0  0  0
   45.4486    4.9914   11.2791 H   0  0  0  0  0  0  0  0  0  0  0  0
   47.8984    6.8712   12.7855 H   0  0  0  0  0  0  0  0  0  0  0  0
   48.7971    6.5242   11.5986 H   0  0  0  0  0  0  0  0  0  0  0  0
   46.2891    9.0870   14.0122 H   0  0  0  0  0  0  0  0  0  0  0  0
   44.5193    4.9476   13.2540 H   0  0  0  0  0  0  0  0  0  0  0  0
   50.5421    9.6587   13.9614 H   0  0  0  0  0  0  0  0  0  0  0  0
   45.3009    7.2538   12.9409 H   0  0  0  0  0  0  0  0  0  0  0  0
   46.8800    5.1544   13.1952 H   0  0  0  0  0  0  0  0  0  0  0  0
   46.8694    5.0803   11.4510 H   0  0  0  0  0  0  0  0  0  0  0  0
   47.3937   10.6851   15.1457 H   0  0  0  0  0  0  0  0  0  0  0  0
   51.6811    8.2602   12.5881 H   0  0  0  0  0  0  0  0  0  0  0  0
   46.5970    7.9089   10.6237 H   0  0  0  0  0  0  0  0  0  0  0  0
   42.5557    5.6654   12.1793 H   0  0  0  0  0  0  0  0  0  0  0  0
   43.5476    6.5661   11.0310 H   0  0  0  0  0  0  0  0  0  0  0  0
   42.3715    5.3955   10.4462 H   0  0  0  0  0  0  0  0  0  0  0  0
   45.6297    3.5541    9.9511 H   0  0  0  0  0  0  0  0  0  0  0  0
   44.1664    4.1126    9.1354 H   0  0  0  0  0  0  0  0  0  0  0  0
   45.3804    5.2815    9.6437 H   0  0  0  0  0  0  0  0  0  0  0  0
   42.6937    2.9365   10.7406 H   0  0  0  0  0  0  0  0  0  0  0  0
   42.8663    3.1540   12.4881 H   0  0  0  0  0  0  0  0  0  0  0  0
   44.1161    2.2937   11.5690 H   0  0  0  0  0  0  0  0  0  0  0  0
  2  1  2  0
  3  1  1  0
  4 10  1  0
  5  3  2  0
  6  2  1  0
  7  5  1  0
  8  1  1  0
  9  4  1  0
 10  8  1  0
 11  5  1  0
 12  6  1  0
 13  8  1  0
 14  9  1  0
 15  9  1  0
 16  9  1  0
  6  7  2  0
 18 17  1  0
 19 17  1  0
 20 17  2  0
 21 17  2  0
 23 22  2  0
 24 22  1  0
 25 31  1  0
 26 24  2  0
 27 23  1  0
 28 26  1  0
 29 22  1  0
 30 25  1  0
 31 29  1  0
 32 26  1  0
 33 27  1  0
 34 29  1  0
 35 30  1  0
 36 30  1  0
 37 30  1  0
 27 28  2  0
  2 38  1  0
  3 39  1  0
  4 40  1  0
  7 41  1  0
  8 42  1  6
 10 43  1  0
 10 44  1  0
 11 45  1  0
 12 46  1  0
 13 47  1  0
 14 48  1  0
 14 49  1  0
 14 50  1  0
 15 51  1  0
 15 52  1  0
 15 53  1  0
 16 54  1  0
 16 55  1  0
 16 56  1  0
 18 57  1  0
 19 58  1  0
 23 59  1  0
 24 60  1  0
 25 61  1  0
 28 62  1  0
 29 63  1  1
 31 64  1  0
 31 65  1  0
 32 66  1  0
 33 67  1  0
 34 68  1  0
 35 69  1  0
 35 70  1  0
 35 71  1  0
 36 72  1  0
 36 73  1  0
 36 74  1  0
 37 75  1  0
 37 76  1  0
 37 77  1  0
M  END
> <Uni-Dock RESULT> 
ENERGY=   -6.235  LOWER_BOUND=    0.000  UPPER_BOUND=    0.000
INTER + INTRA:          -6.235
INTER:                  -6.235
INTRA:                   0.000
UNBOUND:                 0.000

$$$$

     RDKit          3D

 77 76  0  0  0  0  0  0  0  0999 V2000
   45.7325    5.4282   12.4896 C   0  0  0  0  0  0  0  0  0  0  0  0
   46.0769    5.1534   11.1560 C   0  0  0  0  0  0  0  0  0  0  0  0
   44.3828    5.6671   12.8002 C   0  0  0  0  0  0  0  0  0  0  0  0
   47.9483    7.6111   12.7385 N   0  0  0  0  0  0  0  0  0  0  0  0
   43.4166    5.6336   11.7944 C   0  0  0  0  0  0  0  0  0  0  0  0
   45.0973    5.1384   10.1661 C   0  0  0  0  0  0  0  0  0  0  0  0
   43.7636    5.3759   10.4743 C   0  0  0  0  0  0  0  0  0  0  0  0
   46.8114    5.5061   13.5511 C   0  0  1  0  0  0  0  0  0  0  0  0
   48.3314    9.0233   12.9382 C   0  0  0  0  0  0  0  0  0  0  0  0
   47.2390    6.9691   13.8564 C   0  0  0  0  0  0  0  0  0  0  0  0
   42.0979    5.8517   12.0765 O   0  0  0  0  0  0  0  0  0  0  0  0
   45.4952    4.8921    8.8826 O   0  0  0  0  0  0  0  0  0  0  0  0
   46.3103    4.9027   14.7483 O   0  0  0  0  0  0  0  0  0  0  0  0
   49.3337    9.1761   14.0962 C   0  0  0  0  0  0  0  0  0  0  0  0
   49.0249    9.4696   11.6361 C   0  0  0  0  0  0  0  0  0  0  0  0
   47.1116    9.9302   13.1731 C   0  0  0  0  0  0  0  0  0  0  0  0
   46.6196    7.1299   12.9317 S   0  0  0  0  0  0  0  0  0  0  0  0
   47.8800    7.4483   11.9915 O   0  0  0  0  0  0  0  0  0  0  0  0
   45.4118    7.2372   11.8817 O   0  0  0  0  0  0  0  0  0  0  0  0
   46.5159    8.2296   13.8561 O   0  0  0  0  0  0  0  0  0  0  0  0
   46.6880    5.7481   13.3328 O   0  0  0  0  0  0  0  0  0  0  0  0
   45.5658    5.6903   12.1718 C   0  0  0  0  0  0  0  0  0  0  0  0
   45.2131    5.5911   10.8156 C   0  0  0  0  0  0  0  0  0  0  0  0
   44.8815    4.8921   13.1044 C   0  0  0  0  0  0  0  0  0  0  0  0
   47.2562    9.1183   12.7678 N   0  0  0  0  0  0  0  0  0  0  0  0
   43.8615    4.0422   12.6808 C   0  0  0  0  0  0  0  0  0  0  0  0
   44.1940    4.7307   10.4146 C   0  0  0  0  0  0  0  0  0  0  0  0
   43.5090    3.9546   11.3404 C   0  0  0  0  0  0  0  0  0  0  0  0
   46.6918    6.5974   12.6359 C   0  0  2  0  0  0  0  0  0  0  0  0
   48.7218    9.2529   12.7780 C   0  0  0  0  0  0  0  0  0  0  0  0
   46.6307    8.0216   12.0125 C   0  0  0  0  0  0  0  0  0  0  0  0
   43.1763    3.2609   13.5654 O   0  0  0  0  0  0  0  0  0  0  0  0
   43.9031    4.6729    9.0846 O   0  0  0  0  0  0  0  0  0  0  0  0
   47.9336    5.9648   12.3216 O   0  0  0  0  0  0  0  0  0  0  0  0
   49.3467    8.4638   13.9398 C   0  0  0  0  0  0  0  0  0  0  0  0
   49.4108    8.8861   11.4539 C   0  0  0  0  0  0  0  0  0  0  0  0
   48.9818   10.7524   13.0392 C   0  0  0  0  0  0  0  0  0  0  0  0
   47.1125    4.9664   10.8787 H   0  0  0  0  0  0  0  0  0  0  0  0
   44.1035    5.8711   13.8321 H   0  0  0  0  0  0  0  0  0  0  0  0
   47.3615    7.5455   11.9027 H   0  0  0  0  0  0  0  0  0  0  0  0
   42.9894    5.3529    9.7158 H   0  0  0  0  0  0  0  0  0  0  0  0
   47.6828    4.9174   13.2429 H   0  0  0  0  0  0  0  0  0  0  0  0
   46.3447    7.5383   14.1331 H   0  0  0  0  0  0  0  0  0  0  0  0
   47.8827    6.9479   14.7424 H   0  0  0  0  0  0  0  0  0  0  0  0
   42.0129    5.9896   13.0349 H   0  0  0  0  0  0  0  0  0  0  0  0
   44.7567    5.1114    8.2901 H   0  0  0  0  0  0  0  0  0  0  0  0
   47.0636    4.8304   15.3618 H   0  0  0  0  0  0  0  0  0  0  0  0
   50.2075    8.5269   13.9487 H   0  0  0  0  0  0  0  0  0  0  0  0
   49.6965   10.2074   14.1663 H   0  0  0  0  0  0  0  0  0  0  0  0
   48.8906    8.9279   15.0690 H   0  0  0  0  0  0  0  0  0  0  0  0
   48.3613    9.3698   10.7712 H   0  0  0  0  0  0  0  0  0  0  0  0
   49.3365   10.5178   11.6937 H   0  0  0  0  0  0  0  0  0  0  0  0
   49.9221    8.8738   11.4386 H   0  0  0  0  0  0  0  0  0  0  0  0
   47.3996   10.9867   13.1539 H   0  0  0  0  0  0  0  0  0  0  0  0
   46.6438    9.7432   14.1466 H   0  0  0  0  0  0  0  0  0  0  0  0
   46.3510    9.7823   12.3974 H   0  0  0  0  0  0  0  0  0  0  0  0
   47.9690    8.4250   11.9547 H   0  0  0  0  0  0  0  0  0  0  0  0
   45.2744    6.3407   11.5087 H   0  0  0  0  0  0  0  0  0  0  0  0
   45.7287    6.1783   10.0582 H   0  0  0  0  0  0  0  0  0  0  0  0
   45.1525    4.9376   14.1584 H   0  0  0  0  0  0  0  0  0  0  0  0
   46.9006    9.1324   13.7223 H   0  0  0  0  0  0  0  0  0  0  0  0
   42.7136    3.2804   11.0403 H   0  0  0  0  0  0  0  0  0  0  0  0
   46.6442    6.6907   13.7265 H   0  0  0  0  0  0  0  0  0  0  0  0
   45.5746    8.3100   11.9377 H   0  0  0  0  0  0  0  0  0  0  0  0
   47.0030    8.0080   10.9806 H   0  0  0  0  0  0  0  0  0  0  0  0
   43.5486    3.3890   14.4548 H   0  0  0  0  0  0  0  0  0  0  0  0
   43.2069    4.0052    8.9498 H   0  0  0  0  0  0  0  0  0  0  0  0
   47.7632    5.2389   11.6971 H   0  0  0  0  0  0  0  0  0  0  0  0
   48.8962    8.7376   14.9003 H   0  0  0  0  0  0  0  0  0  0  0  0
   49.2335    7.3849   13.8187 H   0  0  0  0  0  0  0  0  0  0  0  0
   50.4211    8.6676   14.0172 H   0  0  0  0  0  0  0  0  0  0  0  0
   48.9818    9.4456   10.6150 H   0  0  0  0  0  0  0  0  0  0  0  0
   50.4804    9.1261   11.4930 H   0  0  0  0  0  0  0  0  0  0  0  0
   49.3331    7.8186   11.2233 H   0  0  0  0  0  0  0  0  0  0  0  0
   50.0567   10.9615   13.0993 H   0  0  0  0  0  0  0  0  0  0  0  0
   48.5280   11.0870   13.9815 H   0  0  0  0  0  0  0  0  0  0  0  0
   48.5736   11.3738   12.2315 H   0  0  0  0  0  0  0  0  0  0  0  0
  2  1  2  0
  3  1  1  0
  4 10  1  0
  5  3  2  0
  6  2  1  0
  7  5  1  0
  8  1  1  0
  9  4  1  0
 10  8  1  0
 11  5  1  0
 12  6  1  0
 13  8  1  0
 14  9  1  0
 15  9  1  0
 16  9  1  0
  6  7  2  0
 18 17  1  0
 19 17  1  0
 20 17  2  0
 21 17  2  0
 23 22  2  0
 24 22  1  0
 25 31  1  0
 26 24  2  0
 27 23  1  0
 28 26  1  0
 29 22  1  0
 30 25  1  0
 31 29  1  0
 32 26  1  0
 33 27  1  0
 34 29  1  0
 35 30  1  0
 36 30  1  0
 37 30  1  0
 27 28  2  0
  2 38  1  0
  3 39  1  0
  4 40  1  0
  7 41  1  0
  8 42  1  6
 10 43  1  0
 10 44  1  0
 11 45  1  0
 12 46  1  0
 13 47  1  0
 14 48  1  0
 14 49  1  0
 14 50  1  0
 15 51  1  0
 15 52  1  0
 15 53  1  0
 16 54  1  0
 16 55  1  0
 16 56  1  0
 18 57  1  0
 19 58  1  0
 23 59  1  0
 24 60  1  0
 25 61  1  0
 28 62  1  0
 29 63  1  1
 31 64  1  0
 31 65  1  0
 32 66  1  0
 33 67  1  0
 34 68  1  0
 35 69  1  0
 35 70  1  0
 35 71  1  0
 36 72  1  0
 36 73  1  0
 36 74  1  0
 37 75  1  0
 37 76  1  0
 37 77  1  0
M  END
> <Uni-Dock RESULT> 
ENERGY=   -5.454  LOWER_BOUND=    1.714  UPPER_BOUND=    5.634
INTER + INTRA:          -5.454
INTER:                  -5.454
INTRA:                   0.000
UNBOUND:                 0.000

$$$$

     RDKit          3D

 77 76  0  0  0  0  0  0  0  0999 V2000
   45.7956    7.0399   12.6608 C   0  0  0  0  0  0  0  0  0  0  0  0
   46.0659    5.9695   13.5291 C   0  0  0  0  0  0  0  0  0  0  0  0
   45.3941    6.7536   11.3448 C   0  0  0  0  0  0  0  0  0  0  0  0
   48.4984    8.4388   13.3495 N   0  0  0  0  0  0  0  0  0  0  0  0
   45.2755    5.4296   10.9215 C   0  0  0  0  0  0  0  0  0  0  0  0
   45.9538    4.6557   13.0807 C   0  0  0  0  0  0  0  0  0  0  0  0
   45.5580    4.3740   11.7791 C   0  0  0  0  0  0  0  0  0  0  0  0
   45.9810    8.4672   13.1356 C   0  0  1  0  0  0  0  0  0  0  0  0
   49.8291    8.9212   12.9282 C   0  0  0  0  0  0  0  0  0  0  0  0
   47.3436    9.0684   12.6901 C   0  0  0  0  0  0  0  0  0  0  0  0
   44.8759    5.1292    9.6503 O   0  0  0  0  0  0  0  0  0  0  0  0
   46.2557    3.6561   13.9617 O   0  0  0  0  0  0  0  0  0  0  0  0
   44.9182    9.2621   12.5999 O   0  0  0  0  0  0  0  0  0  0  0  0
   50.0232   10.4088   13.2722 C   0  0  0  0  0  0  0  0  0  0  0  0
   50.8583    8.1009   13.7302 C   0  0  0  0  0  0  0  0  0  0  0  0
   50.0855    8.6884   11.4296 C   0  0  0  0  0  0  0  0  0  0  0  0
   47.5067    7.9867   12.4295 S   0  0  0  0  0  0  0  0  0  0  0  0
   48.5409    7.7246   13.6277 O   0  0  0  0  0  0  0  0  0  0  0  0
   47.4305    6.5316   11.7589 O   0  0  0  0  0  0  0  0  0  0  0  0
   48.1692    8.8757   11.5100 O   0  0  0  0  0  0  0  0  0  0  0  0
   46.2074    8.2415   12.9967 O   0  0  0  0  0  0  0  0  0  0  0  0
   46.0509    6.7083   12.5115 C   0  0  0  0  0  0  0  0  0  0  0  0
   46.2117    5.3313   12.7384 C   0  0  0  0  0  0  0  0  0  0  0  0
   44.8213    7.1678   12.0097 C   0  0  0  0  0  0  0  0  0  0  0  0
   49.5441    8.3100   12.0684 N   0  0  0  0  0  0  0  0  0  0  0  0
   43.8006    6.2622   11.7262 C   0  0  0  0  0  0  0  0  0  0  0  0
   45.1757    4.4453   12.4528 C   0  0  0  0  0  0  0  0  0  0  0  0
   43.9671    4.9006   11.9424 C   0  0  0  0  0  0  0  0  0  0  0  0
   47.1514    7.7018   12.8403 C   0  0  2  0  0  0  0  0  0  0  0  0
   50.2271    8.9700   13.1927 C   0  0  0  0  0  0  0  0  0  0  0  0
   48.5538    7.2553   12.3357 C   0  0  0  0  0  0  0  0  0  0  0  0
   42.5989    6.6800   11.2322 O   0  0  0  0  0  0  0  0  0  0  0  0
   45.3893    3.1227   12.7015 O   0  0  0  0  0  0  0  0  0  0  0  0
   47.1667    7.8996   14.2552 O   0  0  0  0  0  0  0  0  0  0  0  0
   49.4477   10.2054   13.6716 C   0  0  0  0  0  0  0  0  0  0  0  0
   50.5477    8.0492   14.3808 C   0  0  0  0  0  0  0  0  0  0  0  0
   51.5692    9.4624   12.6090 C   0  0  0  0  0  0  0  0  0  0  0  0
   46.3817    6.1538   14.5541 H   0  0  0  0  0  0  0  0  0  0  0  0
   45.1723    7.5755   10.6666 H   0  0  0  0  0  0  0  0  0  0  0  0
   48.4504    7.4289   13.1913 H   0  0  0  0  0  0  0  0  0  0  0  0
   45.4529    3.3559   11.4219 H   0  0  0  0  0  0  0  0  0  0  0  0
   45.8895    8.5134   14.2267 H   0  0  0  0  0  0  0  0  0  0  0  0
   47.4179    8.9820   11.6005 H   0  0  0  0  0  0  0  0  0  0  0  0
   47.3232   10.1395   12.9183 H   0  0  0  0  0  0  0  0  0  0  0  0
   44.6923    5.9635    9.1864 H   0  0  0  0  0  0  0  0  0  0  0  0
   46.3299    2.8255   13.4625 H   0  0  0  0  0  0  0  0  0  0  0  0
   44.9728   10.1321   13.0349 H   0  0  0  0  0  0  0  0  0  0  0  0
   49.8341   10.5941   14.3384 H   0  0  0  0  0  0  0  0  0  0  0  0
   51.0487   10.7294   13.0581 H   0  0  0  0  0  0  0  0  0  0  0  0
   49.3581   11.0626   12.6939 H   0  0  0  0  0  0  0  0  0  0  0  0
   50.7588    7.0282   13.5356 H   0  0  0  0  0  0  0  0  0  0  0  0
   51.8823    8.3897   13.4707 H   0  0  0  0  0  0  0  0  0  0  0  0
   50.7393    8.2568   14.8074 H   0  0  0  0  0  0  0  0  0  0  0  0
   51.1292    8.8991   11.1735 H   0  0  0  0  0  0  0  0  0  0  0  0
   49.4642    9.3381   10.8023 H   0  0  0  0  0  0  0  0  0  0  0  0
   49.8809    7.6488   11.1481 H   0  0  0  0  0  0  0  0  0  0  0  0
   49.4426    7.8252   13.2535 H   0  0  0  0  0  0  0  0  0  0  0  0
   46.6965    6.0510   12.1973 H   0  0  0  0  0  0  0  0  0  0  0  0
   47.1413    4.9347   13.1421 H   0  0  0  0  0  0  0  0  0  0  0  0
   44.6674    8.2336   11.8457 H   0  0  0  0  0  0  0  0  0  0  0  0
   49.1481    9.0109   11.4443 H   0  0  0  0  0  0  0  0  0  0  0  0
   43.1525    4.2204   11.7162 H   0  0  0  0  0  0  0  0  0  0  0  0
   46.9057    8.6662   12.3824 H   0  0  0  0  0  0  0  0  0  0  0  0
   48.4188    6.7566   11.3676 H   0  0  0  0  0  0  0  0  0  0  0  0
   48.9787    6.4924   12.9999 H   0  0  0  0  0  0  0  0  0  0  0  0
   42.6035    7.6506   11.1684 H   0  0  0  0  0  0  0  0  0  0  0  0
   44.5720    2.6342   12.4961 H   0  0  0  0  0  0  0  0  0  0  0  0
   46.6409    7.1961   14.6730 H   0  0  0  0  0  0  0  0  0  0  0  0
   49.2412   10.8955   12.8460 H   0  0  0  0  0  0  0  0  0  0  0  0
   48.4917    9.9431   14.1285 H   0  0  0  0  0  0  0  0  0  0  0  0
   50.0209   10.7621   14.4222 H   0  0  0  0  0  0  0  0  0  0  0  0
   51.1100    7.1659   14.0579 H   0  0  0  0  0  0  0  0  0  0  0  0
   51.1615    8.5729   15.1238 H   0  0  0  0  0  0  0  0  0  0  0  0
   49.6465    7.7054   14.8990 H   0  0  0  0  0  0  0  0  0  0  0  0
   52.1521   10.0043   13.3636 H   0  0  0  0  0  0  0  0  0  0  0  0
   51.4198   10.1407   11.7585 H   0  0  0  0  0  0  0  0  0  0  0  0
   52.1851    8.6220   12.2632 H   0  0  0  0  0  0  0  0  0  0  0  0
  2  1  2  0
  3  1  1  0
  4 10  1  0
  5  3  2  0
  6  2  1  0
  7  5  1  0
  8  1  1  0
  9  4  1  0
 10  8  1  0
 11  5  1  0
 12  6  1  0
 13  8  1  0
 14  9  1  0
 15  9  1  0
 16  9  1  0
  6  7  2  0
 18 17  1  0
 19 17  1  0
 20 17  2  0
 21 17  2  0
 23 22  2  0
 24 22  1  0
 25 31  1  0
 26 24  2  0
 27 23  1  0
 28 26  1  0
 29 22  1  0
 30 25  1  0
 31 29  1  0
 32 26  1  0
 33 27  1  0
 34 29  1  0
 35 30  1  0
 36 30  1  0
 37 30  1  0
 27 28  2  0
  2 38  1  0
  3 39  1  0
  4 40  1  0
  7 41  1  0
  8 42  1  6
 10 43  1  0
 10 44  1  0
 11 45  1  0
 12 46  1  0
 13 47  1  0
 14 48  1  0
 14 49  1  0
 14 50  1  0
 15 51  1  0
 15 52  1  0
 15 53  1  0
 16 54  1  0
 16 55  1  0
 16 56  1  0
 18 57  1  0
 19 58  1  0
 23 59  1  0
 24 60  1  0
 25 61  1  0
 28 62  1  0
 29 63  1  1
 31 64  1  0
 31 65  1  0
 32 66  1  0
 33 67  1  0
 34 68  1  0
 35 69  1  0
 35 70  1  0
 35 71  1  0
 36 72  1  0
 36 73  1  0
 36 74  1  0
 37 75  1  0
 37 76  1  0
 37 77  1  0
M  END
> <Uni-Dock RESULT> 
ENERGY=   -5.440  LOWER_BOUND=    1.853  UPPER_BOUND=    5.609
INTER + INTRA:          -5.440
INTER:                  -5.440
INTRA:                   0.000
UNBOUND:                 0.000

$$$$

     RDKit          3D

 77 76  0  0  0  0  0  0  0  0999 V2000
   47.8716    7.3128   13.2883 C   0  0  0  0  0  0  0  0  0  0  0  0
   47.3354    8.5738   12.9802 C   0  0  0  0  0  0  0  0  0  0  0  0
   49.0903    6.9375   12.6975 C   0  0  0  0  0  0  0  0  0  0  0  0
   45.1692    5.8794   12.6727 N   0  0  0  0  0  0  0  0  0  0  0  0
   49.7405    7.8070   11.8216 C   0  0  0  0  0  0  0  0  0  0  0  0
   47.9953    9.4200   12.0923 C   0  0  0  0  0  0  0  0  0  0  0  0
   49.1994    9.0473   11.5081 C   0  0  0  0  0  0  0  0  0  0  0  0
   47.1169    6.3710   14.2052 C   0  0  1  0  0  0  0  0  0  0  0  0
   44.3847    4.9319   11.8556 C   0  0  0  0  0  0  0  0  0  0  0  0
   46.2998    5.3068   13.4202 C   0  0  0  0  0  0  0  0  0  0  0  0
   50.9315    7.4666   11.2454 O   0  0  0  0  0  0  0  0  0  0  0  0
   47.4126   10.6229   11.8096 O   0  0  0  0  0  0  0  0  0  0  0  0
   48.0640    5.7086   15.0493 O   0  0  0  0  0  0  0  0  0  0  0  0
   43.6970    3.8691   12.7312 C   0  0  0  0  0  0  0  0  0  0  0  0
   43.2916    5.7661   11.1593 C   0  0  0  0  0  0  0  0  0  0  0  0
   45.2385    4.2510   10.7725 C   0  0  0  0  0  0  0  0  0  0  0  0
   46.5875    5.9978   12.5810 S   0  0  0  0  0  0  0  0  0  0  0  0
   45.1093    6.5936   12.3979 O   0  0  0  0  0  0  0  0  0  0  0  0
   47.3987    6.8296   11.4752 O   0  0  0  0  0  0  0  0  0  0  0  0
   46.5250    4.6223   12.1584 O   0  0  0  0  0  0  0  0  0  0  0  0
   47.0943    6.4217   13.8611 O   0  0  0  0  0  0  0  0  0  0  0  0
   47.8577    7.4361   12.8616 C   0  0  0  0  0  0  0  0  0  0  0  0
   47.8895    8.6273   12.1177 C   0  0  0  0  0  0  0  0  0  0  0  0
   48.9750    7.1037   13.6467 C   0  0  0  0  0  0  0  0  0  0  0  0
   45.2888    5.0342   11.2505 N   0  0  0  0  0  0  0  0  0  0  0  0
   50.0924    7.9366   13.6589 C   0  0  0  0  0  0  0  0  0  0  0  0
   49.0151    9.4470   12.1495 C   0  0  0  0  0  0  0  0  0  0  0  0
   50.1237    9.1083   12.9141 C   0  0  0  0  0  0  0  0  0  0  0  0
   46.6340    6.5368   12.8702 C   0  0  2  0  0  0  0  0  0  0  0  0
   43.9131    4.9350   11.7641 C   0  0  0  0  0  0  0  0  0  0  0  0
   46.0532    6.2752   11.4506 C   0  0  0  0  0  0  0  0  0  0  0  0
   51.1933    7.6351   14.4069 O   0  0  0  0  0  0  0  0  0  0  0  0
   48.9827   10.5929   11.4129 O   0  0  0  0  0  0  0  0  0  0  0  0
   45.6473    7.1329   13.7141 O   0  0  0  0  0  0  0  0  0  0  0  0
   43.8919    4.3913   13.2018 C   0  0  0  0  0  0  0  0  0  0  0  0
   43.0975    6.2346   11.6743 C   0  0  0  0  0  0  0  0  0  0  0  0
   43.2252    3.8894   10.8597 C   0  0  0  0  0  0  0  0  0  0  0  0
   46.3922    8.8964   13.4170 H   0  0  0  0  0  0  0  0  0  0  0  0
   49.5199    5.9666   12.9373 H   0  0  0  0  0  0  0  0  0  0  0  0
   45.5260    6.6203   12.0637 H   0  0  0  0  0  0  0  0  0  0  0  0
   49.7304    9.7024   10.8268 H   0  0  0  0  0  0  0  0  0  0  0  0
   46.4533    6.9422   14.8642 H   0  0  0  0  0  0  0  0  0  0  0  0
   46.9834    4.7730   12.7509 H   0  0  0  0  0  0  0  0  0  0  0  0
   45.9328    4.5712   14.1441 H   0  0  0  0  0  0  0  0  0  0  0  0
   51.1896    6.5913   11.5801 H   0  0  0  0  0  0  0  0  0  0  0  0
   47.8677   11.0057   11.0408 H   0  0  0  0  0  0  0  0  0  0  0  0
   47.5501    5.2273   15.7227 H   0  0  0  0  0  0  0  0  0  0  0  0
   43.0901    4.3393   13.5170 H   0  0  0  0  0  0  0  0  0  0  0  0
   43.0306    3.2395   12.1316 H   0  0  0  0  0  0  0  0  0  0  0  0
   44.4162    3.1981   13.2179 H   0  0  0  0  0  0  0  0  0  0  0  0
   43.7231    6.5509   10.5298 H   0  0  0  0  0  0  0  0  0  0  0  0
   42.6631    5.1381   10.5192 H   0  0  0  0  0  0  0  0  0  0  0  0
   42.6334    6.2483   11.8893 H   0  0  0  0  0  0  0  0  0  0  0  0
   44.6103    3.6828   10.0783 H   0  0  0  0  0  0  0  0  0  0  0  0
   45.9594    3.5461   11.2026 H   0  0  0  0  0  0  0  0  0  0  0  0
   45.7958    4.9889   10.1835 H   0  0  0  0  0  0  0  0  0  0  0  0
   44.6850    6.0863   11.6727 H   0  0  0  0  0  0  0  0  0  0  0  0
   47.7419    7.6357   11.9159 H   0  0  0  0  0  0  0  0  0  0  0  0
   47.0395    8.9312   11.5099 H   0  0  0  0  0  0  0  0  0  0  0  0
   48.9639    6.1953   14.2476 H   0  0  0  0  0  0  0  0  0  0  0  0
   45.8342    4.2334   11.5647 H   0  0  0  0  0  0  0  0  0  0  0  0
   51.0063    9.7387   12.9472 H   0  0  0  0  0  0  0  0  0  0  0  0
   46.9048    5.5752   13.3199 H   0  0  0  0  0  0  0  0  0  0  0  0
   46.8965    6.1912   10.7535 H   0  0  0  0  0  0  0  0  0  0  0  0
   45.4740    7.1403   11.1046 H   0  0  0  0  0  0  0  0  0  0  0  0
   51.0227    6.8176   14.9055 H   0  0  0  0  0  0  0  0  0  0  0  0
   49.8121   11.0806   11.5644 H   0  0  0  0  0  0  0  0  0  0  0  0
   45.9022    8.0556   13.8864 H   0  0  0  0  0  0  0  0  0  0  0  0
   44.4362    3.4437   13.2815 H   0  0  0  0  0  0  0  0  0  0  0  0
   44.3357    5.0869   13.9164 H   0  0  0  0  0  0  0  0  0  0  0  0
   42.8640    4.2022   13.5329 H   0  0  0  0  0  0  0  0  0  0  0  0
   43.0961    6.6326   10.6534 H   0  0  0  0  0  0  0  0  0  0  0  0
   42.0525    6.0578   11.9569 H   0  0  0  0  0  0  0  0  0  0  0  0
   43.4790    7.0150   12.3408 H   0  0  0  0  0  0  0  0  0  0  0  0
   42.1910    3.7119   11.1784 H   0  0  0  0  0  0  0  0  0  0  0  0
   43.7473    2.9236   10.8827 H   0  0  0  0  0  0  0  0  0  0  0  0
   43.1912    4.2271    9.8156 H   0  0  0  0  0  0  0  0  0  0  0  0
  2  1  2  0
  3  1  1  0
  4 10  1  0
  5  3  2  0
  6  2  1  0
  7  5  1  0
  8  1  1  0
  9  4  1  0
 10  8  1  0
 11  5  1  0
 12  6  1  0
 13  8  1  0
 14  9  1  0
 15  9  1  0
 16  9  1  0
  6  7  2  0
 18 17  1  0
 19 17  1  0
 20 17  2  0
 21 17  2  0
 23 22  2  0
 24 22  1  0
 25 31  1  0
 26 24  2  0
 27 23  1  0
 28 26  1  0
 29 22  1  0
 30 25  1  0
 31 29  1  0
 32 26  1  0
 33 27  1  0
 34 29  1  0
 35 30  1  0
 36 30  1  0
 37 30  1  0
 27 28  2  0
  2 38  1  0
  3 39  1  0
  4 40  1  0
  7 41  1  0
  8 42  1  6
 10 43  1  0
 10 44  1  0
 11 45  1  0
 12 46  1  0
 13 47  1  0
 14 48  1  0
 14 49  1  0
 14 50  1  0
 15 51  1  0
 15 52  1  0
 15 53  1  0
 16 54  1  0
 16 55  1  0
 16 56  1  0
 18 57  1  0
 19 58  1  0
 23 59  1  0
 24 60  1  0
 25 61  1  0
 28 62  1  0
 29 63  1  1
 31 64  1  0
 31 65  1  0
 32 66  1  0
 33 67  1  0
 34 68  1  0
 35 69  1  0
 35 70  1  0
 35 71  1  0
 36 72  1  0
 36 73  1  0
 36 74  1  0
 37 75  1  0
 37 76  1  0
 37 77  1  0
M  END
> <Uni-Dock RESULT> 
ENERGY=   -4.962  LOWER_BOUND=    1.361  UPPER_BOUND=    2.423
INTER + INTRA:          -4.962
INTER:                  -4.962
INTRA:                   0.000
UNBOUND:                 0.000

$$$$

     RDKit          3D

 77 76  0  0  0  0  0  0  0  0999 V2000
   49.2367    5.1420   17.8662 C   0  0  0  0  0  0  0  0  0  0  0  0
   48.7317    5.5924   16.6354 C   0  0  0  0  0  0  0  0  0  0  0  0
   48.7097    3.9619   18.4181 C   0  0  0  0  0  0  0  0  0  0  0  0
   48.8688    7.9479   19.1809 N   0  0  0  0  0  0  0  0  0  0  0  0
   47.7031    3.2651   17.7493 C   0  0  0  0  0  0  0  0  0  0  0  0
   47.7171    4.8878   15.9921 C   0  0  0  0  0  0  0  0  0  0  0  0
   47.1962    3.7219   16.5394 C   0  0  0  0  0  0  0  0  0  0  0  0
   50.2956    5.9475   18.5921 C   0  0  1  0  0  0  0  0  0  0  0  0
   48.2174    8.8095   20.1879 C   0  0  0  0  0  0  0  0  0  0  0  0
   49.6947    6.8495   19.7065 C   0  0  0  0  0  0  0  0  0  0  0  0
   47.1851    2.1099   18.2625 O   0  0  0  0  0  0  0  0  0  0  0  0
   47.2467    5.3882   14.8111 O   0  0  0  0  0  0  0  0  0  0  0  0
   51.2320    5.0371   19.1774 O   0  0  0  0  0  0  0  0  0  0  0  0
   49.2548    9.5574   21.0444 C   0  0  0  0  0  0  0  0  0  0  0  0
   47.3998    9.8513   19.3993 C   0  0  0  0  0  0  0  0  0  0  0  0
   47.2549    8.0223   21.0932 C   0  0  0  0  0  0  0  0  0  0  0  0
   48.7544    6.5263   19.1813 S   0  0  0  0  0  0  0  0  0  0  0  0
   48.4830    7.9613   18.5175 O   0  0  0  0  0  0  0  0  0  0  0  0
   47.5264    5.6750   18.5980 O   0  0  0  0  0  0  0  0  0  0  0  0
   48.5586    6.6921   20.5986 O   0  0  0  0  0  0  0  0  0  0  0  0
   49.9479    5.9717   18.5957 O   0  0  0  0  0  0  0  0  0  0  0  0
   48.7958    5.1536   17.8121 C   0  0  0  0  0  0  0  0  0  0  0  0
   47.8700    5.0489   16.7607 C   0  0  0  0  0  0  0  0  0  0  0  0
   49.6202    4.0509   18.0942 C   0  0  0  0  0  0  0  0  0  0  0  0
   47.6005    7.9097   20.2493 N   0  0  0  0  0  0  0  0  0  0  0  0
   49.4945    2.8774   17.3530 C   0  0  0  0  0  0  0  0  0  0  0  0
   47.7657    3.8679   16.0299 C   0  0  0  0  0  0  0  0  0  0  0  0
   48.5709    2.7745   16.3209 C   0  0  0  0  0  0  0  0  0  0  0  0
   48.9530    6.4375   18.6078 C   0  0  2  0  0  0  0  0  0  0  0  0
   48.1282    9.2810   20.1655 C   0  0  0  0  0  0  0  0  0  0  0  0
   47.5960    7.0565   19.0507 C   0  0  0  0  0  0  0  0  0  0  0  0
   50.2774    1.7894   17.6094 O   0  0  0  0  0  0  0  0  0  0  0  0
   46.8545    3.8303   15.0174 O   0  0  0  0  0  0  0  0  0  0  0  0
   49.6935    7.3668   17.8146 O   0  0  0  0  0  0  0  0  0  0  0  0
   49.6347    9.3190   20.4691 C   0  0  0  0  0  0  0  0  0  0  0  0
   47.8335   10.0040   18.8416 C   0  0  0  0  0  0  0  0  0  0  0  0
   47.4060   10.0546   21.2900 C   0  0  0  0  0  0  0  0  0  0  0  0
   49.1142    6.5037   16.1798 H   0  0  0  0  0  0  0  0  0  0  0  0
   49.1009    3.5984   19.3665 H   0  0  0  0  0  0  0  0  0  0  0  0
   48.1474    7.5488   18.5748 H   0  0  0  0  0  0  0  0  0  0  0  0
   46.4167    3.1562   16.0419 H   0  0  0  0  0  0  0  0  0  0  0  0
   50.8565    6.5591   17.8764 H   0  0  0  0  0  0  0  0  0  0  0  0
   49.1176    6.2154   20.3885 H   0  0  0  0  0  0  0  0  0  0  0  0
   50.5287    7.2566   20.2884 H   0  0  0  0  0  0  0  0  0  0  0  0
   47.6552    1.9094   19.0893 H   0  0  0  0  0  0  0  0  0  0  0  0
   46.4249    4.9188   14.5901 H   0  0  0  0  0  0  0  0  0  0  0  0
   51.9757    5.5735   19.5064 H   0  0  0  0  0  0  0  0  0  0  0  0
   49.9569   10.1177   20.4119 H   0  0  0  0  0  0  0  0  0  0  0  0
   48.7665   10.2755   21.7122 H   0  0  0  0  0  0  0  0  0  0  0  0
   49.8405    8.8802   21.6789 H   0  0  0  0  0  0  0  0  0  0  0  0
   46.6509    9.3749   18.7586 H   0  0  0  0  0  0  0  0  0  0  0  0
   46.8712   10.5321   20.0746 H   0  0  0  0  0  0  0  0  0  0  0  0
   48.0451   10.4628   18.7602 H   0  0  0  0  0  0  0  0  0  0  0  0
   46.6632    8.6994   21.7183 H   0  0  0  0  0  0  0  0  0  0  0  0
   47.7902    7.3466   21.7703 H   0  0  0  0  0  0  0  0  0  0  0  0
   46.5530    7.4231   20.5012 H   0  0  0  0  0  0  0  0  0  0  0  0
   47.8503    8.4312   19.1024 H   0  0  0  0  0  0  0  0  0  0  0  0
   47.8307    5.2692   17.7587 H   0  0  0  0  0  0  0  0  0  0  0  0
   47.2241    5.8843   16.4976 H   0  0  0  0  0  0  0  0  0  0  0  0
   50.3593    4.1171   18.8915 H   0  0  0  0  0  0  0  0  0  0  0  0
   48.0375    7.4175   21.0267 H   0  0  0  0  0  0  0  0  0  0  0  0
   48.4993    1.8493   15.7587 H   0  0  0  0  0  0  0  0  0  0  0  0
   49.5505    6.2286   19.5020 H   0  0  0  0  0  0  0  0  0  0  0  0
   46.9185    6.2318   19.3058 H   0  0  0  0  0  0  0  0  0  0  0  0
   47.1175    7.5784   18.2126 H   0  0  0  0  0  0  0  0  0  0  0  0
   50.9016    2.0099   18.3222 H   0  0  0  0  0  0  0  0  0  0  0  0
   46.9229    2.9663   14.5728 H   0  0  0  0  0  0  0  0  0  0  0  0
   49.7144    7.0448   16.8972 H   0  0  0  0  0  0  0  0  0  0  0  0
   49.8637    8.8419   21.4285 H   0  0  0  0  0  0  0  0  0  0  0  0
   50.2267    8.8166   19.7019 H   0  0  0  0  0  0  0  0  0  0  0  0
   49.9954   10.3526   20.5280 H   0  0  0  0  0  0  0  0  0  0  0  0
   46.7619    9.9927   18.6131 H   0  0  0  0  0  0  0  0  0  0  0  0
   48.1444   11.0546   18.8950 H   0  0  0  0  0  0  0  0  0  0  0  0
   48.3646    9.5585   17.9941 H   0  0  0  0  0  0  0  0  0  0  0  0
   47.7527   11.0939   21.3391 H   0  0  0  0  0  0  0  0  0  0  0  0
   47.5821    9.6017   22.2748 H   0  0  0  0  0  0  0  0  0  0  0  0
   46.3213   10.0803   21.1222 H   0  0  0  0  0  0  0  0  0  0  0  0
  2  1  2  0
  3  1  1  0
  4 10  1  0
  5  3  2  0
  6  2  1  0
  7  5  1  0
  8  1  1  0
  9  4  1  0
 10  8  1  0
 11  5  1  0
 12  6  1  0
 13  8  1  0
 14  9  1  0
 15  9  1  0
 16  9  1  0
  6  7  2  0
 18 17  1  0
 19 17  1  0
 20 17  2  0
 21 17  2  0
 23 22  2  0
 24 22  1  0
 25 31  1  0
 26 24  2  0
 27 23  1  0
 28 26  1  0
 29 22  1  0
 30 25  1  0
 31 29  1  0
 32 26  1  0
 33 27  1  0
 34 29  1  0
 35 30  1  0
 36 30  1  0
 37 30  1  0
 27 28  2  0
  2 38  1  0
  3 39  1  0
  4 40  1  0
  7 41  1  0
  8 42  1  6
 10 43  1  0
 10 44  1  0
 11 45  1  0
 12 46  1  0
 13 47  1  0
 14 48  1  0
 14 49  1  0
 14 50  1  0
 15 51  1  0
 15 52  1  0
 15 53  1  0
 16 54  1  0
 16 55  1  0
 16 56  1  0
 18 57  1  0
 19 58  1  0
 23 59  1  0
 24 60  1  0
 25 61  1  0
 28 62  1  0
 29 63  1  1
 31 64  1  0
 31 65  1  0
 32 66  1  0
 33 67  1  0
 34 68  1  0
 35 69  1  0
 35 70  1  0
 35 71  1  0
 36 72  1  0
 36 73  1  0
 36 74  1  0
 37 75  1  0
 37 76  1  0
 37 77  1  0
M  END
> <Uni-Dock RESULT> 
ENERGY=   -4.754  LOWER_BOUND=    5.379  UPPER_BOUND=    8.153
INTER + INTRA:          -4.754
INTER:                  -4.754
INTRA:                   0.000
UNBOUND:                 0.000

$$$$

     RDKit          3D

 77 76  0  0  0  0  0  0  0  0999 V2000
   41.8600   11.5455   10.7184 C   0  0  0  0  0  0  0  0  0  0  0  0
   42.7398   10.7992   11.5195 C   0  0  0  0  0  0  0  0  0  0  0  0
   42.3967   12.5088    9.8472 C   0  0  0  0  0  0  0  0  0  0  0  0
   40.0617   12.2746   13.1621 N   0  0  0  0  0  0  0  0  0  0  0  0
   43.7757   12.7125    9.7928 C   0  0  0  0  0  0  0  0  0  0  0  0
   44.1120   11.0290   11.4583 C   0  0  0  0  0  0  0  0  0  0  0  0
   44.6412   11.9824   10.5974 C   0  0  0  0  0  0  0  0  0  0  0  0
   40.3636   11.3353   10.8360 C   0  0  1  0  0  0  0  0  0  0  0  0
   39.4993   13.2906   14.0743 C   0  0  0  0  0  0  0  0  0  0  0  0
   39.6849   12.3980   11.7452 C   0  0  0  0  0  0  0  0  0  0  0  0
   44.3189   13.6356    8.9449 O   0  0  0  0  0  0  0  0  0  0  0  0
   44.9166   10.2918   12.2803 O   0  0  0  0  0  0  0  0  0  0  0  0
   39.7943   11.4051    9.5248 O   0  0  0  0  0  0  0  0  0  0  0  0
   37.9636   13.2061   14.1327 C   0  0  0  0  0  0  0  0  0  0  0  0
   40.0552   12.9668   15.4749 C   0  0  0  0  0  0  0  0  0  0  0  0
   39.9351   14.7167   13.6976 C   0  0  0  0  0  0  0  0  0  0  0  0
   40.7674   12.6056   11.9677 S   0  0  0  0  0  0  0  0  0  0  0  0
   40.7127   11.9821   13.4449 O   0  0  0  0  0  0  0  0  0  0  0  0
   42.3092   13.0363   11.8674 O   0  0  0  0  0  0  0  0  0  0  0  0
   39.9640   13.8006   12.0024 O   0  0  0  0  0  0  0  0  0  0  0  0
   40.5803   11.5403   11.0163 O   0  0  0  0  0  0  0  0  0  0  0  0
   42.1787   11.7631   10.9386 C   0  0  0  0  0  0  0  0  0  0  0  0
   43.4737   11.5099   11.4206 C   0  0  0  0  0  0  0  0  0  0  0  0
   41.9524   11.6977    9.5531 C   0  0  0  0  0  0  0  0  0  0  0  0
   40.2684   13.8716   13.5596 N   0  0  0  0  0  0  0  0  0  0  0  0
   43.0051   11.4092    8.6866 C   0  0  0  0  0  0  0  0  0  0  0  0
   44.5093   11.2183   10.5362 C   0  0  0  0  0  0  0  0  0  0  0  0
   44.2860   11.1694    9.1664 C   0  0  0  0  0  0  0  0  0  0  0  0
   41.0233   12.0551   11.8798 C   0  0  2  0  0  0  0  0  0  0  0  0
   39.3627   13.2389   14.5319 C   0  0  0  0  0  0  0  0  0  0  0  0
   41.3763   13.0939   12.9831 C   0  0  0  0  0  0  0  0  0  0  0  0
   42.8151   11.3456    7.3366 O   0  0  0  0  0  0  0  0  0  0  0  0
   45.7413   10.9743   11.0648 O   0  0  0  0  0  0  0  0  0  0  0  0
   40.6031   10.8224   12.4672 O   0  0  0  0  0  0  0  0  0  0  0  0
   38.1672   12.5741   13.8306 C   0  0  0  0  0  0  0  0  0  0  0  0
   40.0392   12.2443   15.4887 C   0  0  0  0  0  0  0  0  0  0  0  0
   38.8149   14.4053   15.3827 C   0  0  0  0  0  0  0  0  0  0  0  0
   42.3592   10.0468   12.2076 H   0  0  0  0  0  0  0  0  0  0  0  0
   41.7247   13.0857    9.2146 H   0  0  0  0  0  0  0  0  0  0  0  0
   41.0824   12.3027   13.2290 H   0  0  0  0  0  0  0  0  0  0  0  0
   45.7083   12.1610   10.5296 H   0  0  0  0  0  0  0  0  0  0  0  0
   40.1559   10.3288   11.2162 H   0  0  0  0  0  0  0  0  0  0  0  0
   39.9337   13.3920   11.3575 H   0  0  0  0  0  0  0  0  0  0  0  0
   38.6010   12.2824   11.6370 H   0  0  0  0  0  0  0  0  0  0  0  0
   43.5962   14.0403    8.4361 H   0  0  0  0  0  0  0  0  0  0  0  0
   45.8013   10.6942   12.2772 H   0  0  0  0  0  0  0  0  0  0  0  0
   38.8660   11.1213    9.6072 H   0  0  0  0  0  0  0  0  0  0  0  0
   37.6349   12.1902   14.3913 H   0  0  0  0  0  0  0  0  0  0  0  0
   37.5627   13.8862   14.8922 H   0  0  0  0  0  0  0  0  0  0  0  0
   37.4925   13.4797   13.1801 H   0  0  0  0  0  0  0  0  0  0  0  0
   41.1493   12.9986   15.4916 H   0  0  0  0  0  0  0  0  0  0  0  0
   39.6929   13.6838   16.2191 H   0  0  0  0  0  0  0  0  0  0  0  0
   39.7454   11.9701   15.8054 H   0  0  0  0  0  0  0  0  0  0  0  0
   39.6466   15.4325   14.4746 H   0  0  0  0  0  0  0  0  0  0  0  0
   39.4708   15.0534   12.7634 H   0  0  0  0  0  0  0  0  0  0  0  0
   41.0231   14.7814   13.5781 H   0  0  0  0  0  0  0  0  0  0  0  0
   40.5675   12.7292   14.0647 H   0  0  0  0  0  0  0  0  0  0  0  0
   42.7971   12.2736   11.4906 H   0  0  0  0  0  0  0  0  0  0  0  0
   43.6892   11.5335   12.4871 H   0  0  0  0  0  0  0  0  0  0  0  0
   40.9517   11.8701    9.1590 H   0  0  0  0  0  0  0  0  0  0  0  0
   39.7269   14.3113   12.8172 H   0  0  0  0  0  0  0  0  0  0  0  0
   45.0844   10.9430    8.4674 H   0  0  0  0  0  0  0  0  0  0  0  0
   40.1794   12.4384   11.2958 H   0  0  0  0  0  0  0  0  0  0  0  0
   42.0346   13.8487   12.5347 H   0  0  0  0  0  0  0  0  0  0  0  0
   41.9688   12.6260   13.7791 H   0  0  0  0  0  0  0  0  0  0  0  0
   41.8732   11.4916    7.1426 H   0  0  0  0  0  0  0  0  0  0  0  0
   46.3488   10.7455   10.3386 H   0  0  0  0  0  0  0  0  0  0  0  0
   41.2882   10.1514   12.3051 H   0  0  0  0  0  0  0  0  0  0  0  0
   37.6460   13.2770   13.1713 H   0  0  0  0  0  0  0  0  0  0  0  0
   38.4642   11.7146   13.2268 H   0  0  0  0  0  0  0  0  0  0  0  0
   37.4350   12.2148   14.5632 H   0  0  0  0  0  0  0  0  0  0  0  0
   40.8902   12.7046   16.0031 H   0  0  0  0  0  0  0  0  0  0  0  0
   39.3357   11.9072   16.2598 H   0  0  0  0  0  0  0  0  0  0  0  0
   40.3998   11.3477   14.9741 H   0  0  0  0  0  0  0  0  0  0  0  0
   38.0954   14.0456   16.1282 H   0  0  0  0  0  0  0  0  0  0  0  0
   38.3025   15.1551   14.7653 H   0  0  0  0  0  0  0  0  0  0  0  0
   39.6213   14.9140   15.9270 H   0  0  0  0  0  0  0  0  0  0  0  0
  2  1  2  0
  3  1  1  0
  4 10  1  0
  5  3  2  0
  6  2  1  0
  7  5  1  0
  8  1  1  0
  9  4  1  0
 10  8  1  0
 11  5  1  0
 12  6  1  0
 13  8  1  0
 14  9  1  0
 15  9  1  0
 16  9  1  0
  6  7  2  0
 18 17  1  0
 19 17  1  0
 20 17  2  0
 21 17  2  0
 23 22  2  0
 24 22  1  0
 25 31  1  0
 26 24  2  0
 27 23  1  0
 28 26  1  0
 29 22  1  0
 30 25  1  0
 31 29  1  0
 32 26  1  0
 33 27  1  0
 34 29  1  0
 35 30  1  0
 36 30  1  0
 37 30  1  0
 27 28  2  0
  2 38  1  0
  3 39  1  0
  4 40  1  0
  7 41  1  0
  8 42  1  6
 10 43  1  0
 10 44  1  0
 11 45  1  0
 12 46  1  0
 13 47  1  0
 14 48  1  0
 14 49  1  0
 14 50  1  0
 15 51  1  0
 15 52  1  0
 15 53  1  0
 16 54  1  0
 16 55  1  0
 16 56  1  0
 18 57  1  0
 19 58  1  0
 23 59  1  0
 24 60  1  0
 25 61  1  0
 28 62  1  0
 29 63  1  1
 31 64  1  0
 31 65  1  0
 32 66  1  0
 33 67  1  0
 34 68  1  0
 35 69  1  0
 35 70  1  0
 35 71  1  0
 36 72  1  0
 36 73  1  0
 36 74  1  0
 37 75  1  0
 37 76  1  0
 37 77  1  0
M  END
> <Uni-Dock RESULT> 
ENERGY=   -4.692  LOWER_BOUND=    6.452  UPPER_BOUND=    8.476
INTER + INTRA:          -4.692
INTER:                  -4.692
INTRA:                   0.000
UNBOUND:                 0.000

$$$$

     RDKit          3D

 77 76  0  0  0  0  0  0  0  0999 V2000
   48.5837    7.0354   19.2581 C   0  0  0  0  0  0  0  0  0  0  0  0
   47.4572    6.6374   19.9965 C   0  0  0  0  0  0  0  0  0  0  0  0
   49.8570    6.6575   19.7177 C   0  0  0  0  0  0  0  0  0  0  0  0
   47.6211   10.0019   19.1598 N   0  0  0  0  0  0  0  0  0  0  0  0
   49.9850    5.9072   20.8867 C   0  0  0  0  0  0  0  0  0  0  0  0
   47.6097    5.9000   21.1681 C   0  0  0  0  0  0  0  0  0  0  0  0
   48.8690    5.5281   21.6219 C   0  0  0  0  0  0  0  0  0  0  0  0
   48.4149    7.8918   18.0191 C   0  0  1  0  0  0  0  0  0  0  0  0
   47.8196   11.4203   19.5196 C   0  0  0  0  0  0  0  0  0  0  0  0
   48.6558    9.4009   18.3036 C   0  0  0  0  0  0  0  0  0  0  0  0
   51.2122    5.5197   21.3447 O   0  0  0  0  0  0  0  0  0  0  0  0
   46.4798    5.5645   21.8588 O   0  0  0  0  0  0  0  0  0  0  0  0
   49.3487    7.4442   17.0312 O   0  0  0  0  0  0  0  0  0  0  0  0
   47.7861   12.3265   18.2759 C   0  0  0  0  0  0  0  0  0  0  0  0
   46.6360   11.8036   20.4294 C   0  0  0  0  0  0  0  0  0  0  0  0
   49.1248   11.6458   20.3016 C   0  0  0  0  0  0  0  0  0  0  0  0
   48.6193    9.0020   19.3544 S   0  0  0  0  0  0  0  0  0  0  0  0
   47.1863    9.6447   19.6818 O   0  0  0  0  0  0  0  0  0  0  0  0
   48.9417    8.2409   20.7289 O   0  0  0  0  0  0  0  0  0  0  0  0
   49.5365   10.1045   19.2205 O   0  0  0  0  0  0  0  0  0  0  0  0
   48.4426    7.9795   18.3553 O   0  0  0  0  0  0  0  0  0  0  0  0
   48.5905    7.0938   19.6986 C   0  0  0  0  0  0  0  0  0  0  0  0
   48.0266    6.4985   20.8392 C   0  0  0  0  0  0  0  0  0  0  0  0
   49.4551    6.3277   18.8982 C   0  0  0  0  0  0  0  0  0  0  0  0
   48.5606   10.9346   20.1592 N   0  0  0  0  0  0  0  0  0  0  0  0
   49.7552    5.0141   19.2539 C   0  0  0  0  0  0  0  0  0  0  0  0
   48.3368    5.1822   21.1723 C   0  0  0  0  0  0  0  0  0  0  0  0
   49.2036    4.4325   20.3880 C   0  0  0  0  0  0  0  0  0  0  0  0
   48.2488    8.5170   19.2936 C   0  0  2  0  0  0  0  0  0  0  0  0
   47.4880   11.7619   19.5838 C   0  0  0  0  0  0  0  0  0  0  0  0
   48.2990    9.5227   20.4797 C   0  0  0  0  0  0  0  0  0  0  0  0
   50.5965    4.2495   18.4987 O   0  0  0  0  0  0  0  0  0  0  0  0
   47.7523    4.6581   22.2861 O   0  0  0  0  0  0  0  0  0  0  0  0
   46.9518    8.5119   18.6945 O   0  0  0  0  0  0  0  0  0  0  0  0
   47.4960   11.6972   18.0480 C   0  0  0  0  0  0  0  0  0  0  0  0
   46.0811   11.4569   20.1222 C   0  0  0  0  0  0  0  0  0  0  0  0
   47.8397   13.2091   19.9917 C   0  0  0  0  0  0  0  0  0  0  0  0
   46.4560    6.9144   19.6720 H   0  0  0  0  0  0  0  0  0  0  0  0
   50.7362    6.9520   19.1476 H   0  0  0  0  0  0  0  0  0  0  0  0
   47.5531    9.4517   20.0199 H   0  0  0  0  0  0  0  0  0  0  0  0
   49.0007    4.9419   22.5243 H   0  0  0  0  0  0  0  0  0  0  0  0
   47.4146    7.7449   17.5963 H   0  0  0  0  0  0  0  0  0  0  0  0
   49.6496    9.5123   18.7510 H   0  0  0  0  0  0  0  0  0  0  0  0
   48.6874    9.9187   17.3389 H   0  0  0  0  0  0  0  0  0  0  0  0
   51.8826    5.8348   20.7153 H   0  0  0  0  0  0  0  0  0  0  0  0
   46.7466    5.2402   22.7353 H   0  0  0  0  0  0  0  0  0  0  0  0
   49.1216    7.9040   16.2028 H   0  0  0  0  0  0  0  0  0  0  0  0
   46.8636   12.1706   17.7002 H   0  0  0  0  0  0  0  0  0  0  0  0
   47.8230   13.3837   18.5608 H   0  0  0  0  0  0  0  0  0  0  0  0
   48.6358   12.1480   17.6047 H   0  0  0  0  0  0  0  0  0  0  0  0
   46.6002   11.1801   21.3285 H   0  0  0  0  0  0  0  0  0  0  0  0
   46.7089   12.8469   20.7541 H   0  0  0  0  0  0  0  0  0  0  0  0
   45.6801   11.6912   19.9075 H   0  0  0  0  0  0  0  0  0  0  0  0
   49.1722   12.6652   20.6989 H   0  0  0  0  0  0  0  0  0  0  0  0
   50.0097   11.5066   19.6698 H   0  0  0  0  0  0  0  0  0  0  0  0
   49.2031   10.9573   21.1513 H   0  0  0  0  0  0  0  0  0  0  0  0
   47.3535   10.4962   20.1402 H   0  0  0  0  0  0  0  0  0  0  0  0
   48.5888    7.3299   20.6430 H   0  0  0  0  0  0  0  0  0  0  0  0
   47.3389    7.0501   21.4773 H   0  0  0  0  0  0  0  0  0  0  0  0
   49.8874    6.7624   17.9980 H   0  0  0  0  0  0  0  0  0  0  0  0
   49.4018   11.0135   19.5901 H   0  0  0  0  0  0  0  0  0  0  0  0
   49.4528    3.4062   20.6368 H   0  0  0  0  0  0  0  0  0  0  0  0
   48.9575    8.8462   18.5258 H   0  0  0  0  0  0  0  0  0  0  0  0
   49.1332    9.2321   21.1308 H   0  0  0  0  0  0  0  0  0  0  0  0
   47.3992    9.4328   21.1010 H   0  0  0  0  0  0  0  0  0  0  0  0
   50.8756    4.7613   17.7201 H   0  0  0  0  0  0  0  0  0  0  0  0
   48.0259    3.7270   22.3689 H   0  0  0  0  0  0  0  0  0  0  0  0
   46.5194    7.6646   18.8968 H   0  0  0  0  0  0  0  0  0  0  0  0
   48.4813   11.9490   17.6400 H   0  0  0  0  0  0  0  0  0  0  0  0
   47.2266   10.7087   17.6716 H   0  0  0  0  0  0  0  0  0  0  0  0
   46.7789   12.4095   17.6232 H   0  0  0  0  0  0  0  0  0  0  0  0
   46.0557   11.5058   21.2166 H   0  0  0  0  0  0  0  0  0  0  0  0
   45.3544   12.1873   19.7462 H   0  0  0  0  0  0  0  0  0  0  0  0
   45.7226   10.4676   19.8196 H   0  0  0  0  0  0  0  0  0  0  0  0
   47.1133   13.9216   19.5825 H   0  0  0  0  0  0  0  0  0  0  0  0
   48.8326   13.5056   19.6281 H   0  0  0  0  0  0  0  0  0  0  0  0
   47.8333   13.3278   21.0831 H   0  0  0  0  0  0  0  0  0  0  0  0
  2  1  2  0
  3  1  1  0
  4 10  1  0
  5  3  2  0
  6  2  1  0
  7  5  1  0
  8  1  1  0
  9  4  1  0
 10  8  1  0
 11  5  1  0
 12  6  1  0
 13  8  1  0
 14  9  1  0
 15  9  1  0
 16  9  1  0
  6  7  2  0
 18 17  1  0
 19 17  1  0
 20 17  2  0
 21 17  2  0
 23 22  2  0
 24 22  1  0
 25 31  1  0
 26 24  2  0
 27 23  1  0
 28 26  1  0
 29 22  1  0
 30 25  1  0
 31 29  1  0
 32 26  1  0
 33 27  1  0
 34 29  1  0
 35 30  1  0
 36 30  1  0
 37 30  1  0
 27 28  2  0
  2 38  1  0
  3 39  1  0
  4 40  1  0
  7 41  1  0
  8 42  1  6
 10 43  1  0
 10 44  1  0
 11 45  1  0
 12 46  1  0
 13 47  1  0
 14 48  1  0
 14 49  1  0
 14 50  1  0
 15 51  1  0
 15 52  1  0
 15 53  1  0
 16 54  1  0
 16 55  1  0
 16 56  1  0
 18 57  1  0
 19 58  1  0
 23 59  1  0
 24 60  1  0
 25 61  1  0
 28 62  1  0
 29 63  1  1
 31 64  1  0
 31 65  1  0
 32 66  1  0
 33 67  1  0
 34 68  1  0
 35 69  1  0
 35 70  1  0
 35 71  1  0
 36 72  1  0
 36 73  1  0
 36 74  1  0
 37 75  1  0
 37 76  1  0
 37 77  1  0
M  END
> <Uni-Dock RESULT> 
ENERGY=   -4.657  LOWER_BOUND=    6.635  UPPER_BOUND=    9.096
INTER + INTRA:          -4.657
INTER:                  -4.657
INTRA:                   0.000
UNBOUND:                 0.000

$$$$

     RDKit          3D

 77 76  0  0  0  0  0  0  0  0999 V2000
   48.7838    8.0461   13.6012 C   0  0  0  0  0  0  0  0  0  0  0  0
   48.6017    7.5060   14.8849 C   0  0  0  0  0  0  0  0  0  0  0  0
   48.9052    9.4400   13.4691 C   0  0  0  0  0  0  0  0  0  0  0  0
   46.3760    6.4306   12.4483 N   0  0  0  0  0  0  0  0  0  0  0  0
   48.8395   10.2584   14.5969 C   0  0  0  0  0  0  0  0  0  0  0  0
   48.5256    8.3434   15.9952 C   0  0  0  0  0  0  0  0  0  0  0  0
   48.6446    9.7212   15.8630 C   0  0  0  0  0  0  0  0  0  0  0  0
   48.8019    7.1349   12.3903 C   0  0  1  0  0  0  0  0  0  0  0  0
   45.0307    6.4055   11.8399 C   0  0  0  0  0  0  0  0  0  0  0  0
   47.4298    7.0900   11.6611 C   0  0  0  0  0  0  0  0  0  0  0  0
   48.9666   11.6145   14.4920 O   0  0  0  0  0  0  0  0  0  0  0  0
   48.3205    7.7634   17.2150 O   0  0  0  0  0  0  0  0  0  0  0  0
   49.8016    7.6104   11.4832 O   0  0  0  0  0  0  0  0  0  0  0  0
   45.0200    5.5961   10.5309 C   0  0  0  0  0  0  0  0  0  0  0  0
   44.1123    5.6966   12.8546 C   0  0  0  0  0  0  0  0  0  0  0  0
   44.4776    7.8189   11.5907 C   0  0  0  0  0  0  0  0  0  0  0  0
   47.1376    7.6262   12.6054 S   0  0  0  0  0  0  0  0  0  0  0  0
   46.3324    6.3787   13.2129 O   0  0  0  0  0  0  0  0  0  0  0  0
   46.9735    8.7059   13.7801 O   0  0  0  0  0  0  0  0  0  0  0  0
   46.3830    8.0786   11.4649 O   0  0  0  0  0  0  0  0  0  0  0  0
   48.5366    7.2863   12.5583 O   0  0  0  0  0  0  0  0  0  0  0  0
   48.4801    8.2332   13.8662 C   0  0  0  0  0  0  0  0  0  0  0  0
   48.2601    8.4053   15.2430 C   0  0  0  0  0  0  0  0  0  0  0  0
   49.6238    8.8126   13.2906 C   0  0  0  0  0  0  0  0  0  0  0  0
   45.0996    7.4490   12.1569 N   0  0  0  0  0  0  0  0  0  0  0  0
   50.4998    9.5585   14.0772 C   0  0  0  0  0  0  0  0  0  0  0  0
   49.1520    9.1504   16.0105 C   0  0  0  0  0  0  0  0  0  0  0  0
   50.2732    9.7348   15.4360 C   0  0  0  0  0  0  0  0  0  0  0  0
   47.5415    7.4023   13.0091 C   0  0  2  0  0  0  0  0  0  0  0  0
   44.6949    6.0633   11.8703 C   0  0  0  0  0  0  0  0  0  0  0  0
   46.0388    7.7209   13.2563 C   0  0  0  0  0  0  0  0  0  0  0  0
   51.6143   10.1375   13.5434 O   0  0  0  0  0  0  0  0  0  0  0  0
   48.8886    9.2750   17.3416 O   0  0  0  0  0  0  0  0  0  0  0  0
   47.8100    6.0220   13.2616 O   0  0  0  0  0  0  0  0  0  0  0  0
   45.6435    5.4031   10.8567 C   0  0  0  0  0  0  0  0  0  0  0  0
   44.5358    5.1698   13.1107 C   0  0  0  0  0  0  0  0  0  0  0  0
   43.3083    6.1841   11.2017 C   0  0  0  0  0  0  0  0  0  0  0  0
   48.5011    6.4314   15.0245 H   0  0  0  0  0  0  0  0  0  0  0  0
   49.0568    9.8684   12.4800 H   0  0  0  0  0  0  0  0  0  0  0  0
   46.3156    6.8929   13.3593 H   0  0  0  0  0  0  0  0  0  0  0  0
   48.6017   10.3830   16.7206 H   0  0  0  0  0  0  0  0  0  0  0  0
   49.1018    6.1236   12.6875 H   0  0  0  0  0  0  0  0  0  0  0  0
   47.1437    8.1155   11.4027 H   0  0  0  0  0  0  0  0  0  0  0  0
   47.5751    6.5580   10.7147 H   0  0  0  0  0  0  0  0  0  0  0  0
   49.1224   11.8318   13.5575 H   0  0  0  0  0  0  0  0  0  0  0  0
   48.0894    8.4642   17.8476 H   0  0  0  0  0  0  0  0  0  0  0  0
   49.8974    6.9313   10.7913 H   0  0  0  0  0  0  0  0  0  0  0  0
   45.4215    4.5859   10.6896 H   0  0  0  0  0  0  0  0  0  0  0  0
   44.0002    5.4893   10.1450 H   0  0  0  0  0  0  0  0  0  0  0  0
   45.6116    6.0726    9.7389 H   0  0  0  0  0  0  0  0  0  0  0  0
   44.0905    6.2223   13.8146 H   0  0  0  0  0  0  0  0  0  0  0  0
   43.0830    5.6420   12.4849 H   0  0  0  0  0  0  0  0  0  0  0  0
   44.4450    4.6708   13.0436 H   0  0  0  0  0  0  0  0  0  0  0  0
   43.4236    7.7807   11.2960 H   0  0  0  0  0  0  0  0  0  0  0  0
   45.0167    8.3335   10.7868 H   0  0  0  0  0  0  0  0  0  0  0  0
   44.5448    8.4370   12.4938 H   0  0  0  0  0  0  0  0  0  0  0  0
   45.3865    6.5127   12.9881 H   0  0  0  0  0  0  0  0  0  0  0  0
   47.7381    8.5928   14.3837 H   0  0  0  0  0  0  0  0  0  0  0  0
   47.3963    7.9596   15.7324 H   0  0  0  0  0  0  0  0  0  0  0  0
   49.8251    8.6747   12.2291 H   0  0  0  0  0  0  0  0  0  0  0  0
   45.4227    7.8992   11.3022 H   0  0  0  0  0  0  0  0  0  0  0  0
   50.9755   10.3171   16.0233 H   0  0  0  0  0  0  0  0  0  0  0  0
   47.7691    7.5874   11.9535 H   0  0  0  0  0  0  0  0  0  0  0  0
   45.9491    8.8006   13.4305 H   0  0  0  0  0  0  0  0  0  0  0  0
   45.6903    7.2463   14.1820 H   0  0  0  0  0  0  0  0  0  0  0  0
   51.6723    9.9027   12.6012 H   0  0  0  0  0  0  0  0  0  0  0  0
   49.6122    9.7806   17.7533 H   0  0  0  0  0  0  0  0  0  0  0  0
   48.3499    5.9528   14.0676 H   0  0  0  0  0  0  0  0  0  0  0  0
   45.7421    6.0054    9.9467 H   0  0  0  0  0  0  0  0  0  0  0  0
   46.6457    5.2520   11.2618 H   0  0  0  0  0  0  0  0  0  0  0  0
   45.2675    4.4189   10.5534 H   0  0  0  0  0  0  0  0  0  0  0  0
   43.8563    5.6226   13.8415 H   0  0  0  0  0  0  0  0  0  0  0  0
   44.1160    4.1945   12.8358 H   0  0  0  0  0  0  0  0  0  0  0  0
   45.4898    4.9751   13.6115 H   0  0  0  0  0  0  0  0  0  0  0  0
   42.9224    5.1987   10.9135 H   0  0  0  0  0  0  0  0  0  0  0  0
   43.3453    6.8015   10.2944 H   0  0  0  0  0  0  0  0  0  0  0  0
   42.5753    6.6344   11.8838 H   0  0  0  0  0  0  0  0  0  0  0  0
  2  1  2  0
  3  1  1  0
  4 10  1  0
  5  3  2  0
  6  2  1  0
  7  5  1  0
  8  1  1  0
  9  4  1  0
 10  8  1  0
 11  5  1  0
 12  6  1  0
 13  8  1  0
 14  9  1  0
 15  9  1  0
 16  9  1  0
  6  7  2  0
 18 17  1  0
 19 17  1  0
 20 17  2  0
 21 17  2  0
 23 22  2  0
 24 22  1  0
 25 31  1  0
 26 24  2  0
 27 23  1  0
 28 26  1  0
 29 22  1  0
 30 25  1  0
 31 29  1  0
 32 26  1  0
 33 27  1  0
 34 29  1  0
 35 30  1  0
 36 30  1  0
 37 30  1  0
 27 28  2  0
  2 38  1  0
  3 39  1  0
  4 40  1  0
  7 41  1  0
  8 42  1  6
 10 43  1  0
 10 44  1  0
 11 45  1  0
 12 46  1  0
 13 47  1  0
 14 48  1  0
 14 49  1  0
 14 50  1  0
 15 51  1  0
 15 52  1  0
 15 53  1  0
 16 54  1  0
 16 55  1  0
 16 56  1  0
 18 57  1  0
 19 58  1  0
 23 59  1  0
 24 60  1  0
 25 61  1  0
 28 62  1  0
 29 63  1  1
 31 64  1  0
 31 65  1  0
 32 66  1  0
 33 67  1  0
 34 68  1  0
 35 69  1  0
 35 70  1  0
 35 71  1  0
 36 72  1  0
 36 73  1  0
 36 74  1  0
 37 75  1  0
 37 76  1  0
 37 77  1  0
M  END
> <Uni-Dock RESULT> 
ENERGY=   -4.526  LOWER_BOUND=    1.419  UPPER_BOUND=    3.203
INTER + INTRA:          -4.526
INTER:                  -4.526
INTRA:                   0.000
UNBOUND:                 0.000

$$$$

     RDKit          3D

 77 76  0  0  0  0  0  0  0  0999 V2000
   49.3774    8.2740   14.9273 C   0  0  0  0  0  0  0  0  0  0  0  0
   48.0261    8.6352   14.7993 C   0  0  0  0  0  0  0  0  0  0  0  0
   50.0536    7.7875   13.7954 C   0  0  0  0  0  0  0  0  0  0  0  0
   48.7964    6.5250   17.4452 N   0  0  0  0  0  0  0  0  0  0  0  0
   49.3834    7.6663   12.5779 C   0  0  0  0  0  0  0  0  0  0  0  0
   47.3736    8.4930   13.5772 C   0  0  0  0  0  0  0  0  0  0  0  0
   48.0429    8.0108   12.4593 C   0  0  0  0  0  0  0  0  0  0  0  0
   50.0641    8.3709   16.2748 C   0  0  1  0  0  0  0  0  0  0  0  0
   48.7674    5.2020   18.1007 C   0  0  0  0  0  0  0  0  0  0  0  0
   50.1188    7.0036   17.0125 C   0  0  0  0  0  0  0  0  0  0  0  0
   50.0249    7.2065   11.4630 O   0  0  0  0  0  0  0  0  0  0  0  0
   46.0521    8.8348   13.5194 O   0  0  0  0  0  0  0  0  0  0  0  0
   51.3977    8.8475   16.0679 O   0  0  0  0  0  0  0  0  0  0  0  0
   49.5631    5.2091   19.4182 C   0  0  0  0  0  0  0  0  0  0  0  0
   47.2889    4.9169   18.4300 C   0  0  0  0  0  0  0  0  0  0  0  0
   49.2830    4.0838   17.1790 C   0  0  0  0  0  0  0  0  0  0  0  0
   49.4087    6.7527   16.1774 S   0  0  0  0  0  0  0  0  0  0  0  0
   48.1173    6.6886   17.1270 O   0  0  0  0  0  0  0  0  0  0  0  0
   48.7571    6.4503   14.7433 O   0  0  0  0  0  0  0  0  0  0  0  0
   50.2373    5.6331   16.5443 O   0  0  0  0  0  0  0  0  0  0  0  0
   49.8745    8.1151   16.1331 O   0  0  0  0  0  0  0  0  0  0  0  0
   49.1042    7.9929   14.7180 C   0  0  0  0  0  0  0  0  0  0  0  0
   47.9240    8.0552   13.9585 C   0  0  0  0  0  0  0  0  0  0  0  0
   50.2545    8.6335   14.2264 C   0  0  0  0  0  0  0  0  0  0  0  0
   48.9153    4.9170   17.0562 N   0  0  0  0  0  0  0  0  0  0  0  0
   50.2159    9.2929   12.9993 C   0  0  0  0  0  0  0  0  0  0  0  0
   47.9075    8.7246   12.7373 C   0  0  0  0  0  0  0  0  0  0  0  0
   49.0497    9.3435   12.2468 C   0  0  0  0  0  0  0  0  0  0  0  0
   49.1458    7.2957   16.0664 C   0  0  2  0  0  0  0  0  0  0  0  0
   48.4823    5.0506   18.4565 C   0  0  0  0  0  0  0  0  0  0  0  0
   48.4629    5.8976   16.0571 C   0  0  0  0  0  0  0  0  0  0  0  0
   51.3194    9.9178   12.4950 O   0  0  0  0  0  0  0  0  0  0  0  0
   46.7309    8.7569   12.0508 O   0  0  0  0  0  0  0  0  0  0  0  0
   48.5274    8.1499   17.0303 O   0  0  0  0  0  0  0  0  0  0  0  0
   49.4638    5.9152   19.2641 C   0  0  0  0  0  0  0  0  0  0  0  0
   47.0454    5.5645   18.6393 C   0  0  0  0  0  0  0  0  0  0  0  0
   48.5417    3.6181   19.0297 C   0  0  0  0  0  0  0  0  0  0  0  0
   47.4703    9.0130   15.6553 H   0  0  0  0  0  0  0  0  0  0  0  0
   51.1037    7.5142   13.8809 H   0  0  0  0  0  0  0  0  0  0  0  0
   48.1784    6.5008   16.6300 H   0  0  0  0  0  0  0  0  0  0  0  0
   47.5507    7.9090   11.4988 H   0  0  0  0  0  0  0  0  0  0  0  0
   49.5576    9.1145   16.9004 H   0  0  0  0  0  0  0  0  0  0  0  0
   50.6036    6.2757   16.3526 H   0  0  0  0  0  0  0  0  0  0  0  0
   50.7742    7.1226   17.8820 H   0  0  0  0  0  0  0  0  0  0  0  0
   50.9525    7.0351   11.6975 H   0  0  0  0  0  0  0  0  0  0  0  0
   45.6892    8.4977   12.6831 H   0  0  0  0  0  0  0  0  0  0  0  0
   51.7651    9.0424   16.9489 H   0  0  0  0  0  0  0  0  0  0  0  0
   49.2134    6.0093   20.0848 H   0  0  0  0  0  0  0  0  0  0  0  0
   49.4452    4.2596   19.9517 H   0  0  0  0  0  0  0  0  0  0  0  0
   50.6391    5.3520   19.2568 H   0  0  0  0  0  0  0  0  0  0  0  0
   46.6685    4.9129   17.5281 H   0  0  0  0  0  0  0  0  0  0  0  0
   47.1731    3.9417   18.9145 H   0  0  0  0  0  0  0  0  0  0  0  0
   46.8808    5.6698   19.1122 H   0  0  0  0  0  0  0  0  0  0  0  0
   49.1004    3.0979   17.6195 H   0  0  0  0  0  0  0  0  0  0  0  0
   50.3624    4.1621   17.0048 H   0  0  0  0  0  0  0  0  0  0  0  0
   48.7798    4.1077   16.2052 H   0  0  0  0  0  0  0  0  0  0  0  0
   47.9826    5.7453   17.3622 H   0  0  0  0  0  0  0  0  0  0  0  0
   48.5097    7.3147   14.3516 H   0  0  0  0  0  0  0  0  0  0  0  0
   47.0062    7.5876   14.3100 H   0  0  0  0  0  0  0  0  0  0  0  0
   51.1750    8.6155   14.8084 H   0  0  0  0  0  0  0  0  0  0  0  0
   49.9283    4.8183   17.0150 H   0  0  0  0  0  0  0  0  0  0  0  0
   49.0494    9.8682   11.2971 H   0  0  0  0  0  0  0  0  0  0  0  0
   50.1915    7.1721   16.3687 H   0  0  0  0  0  0  0  0  0  0  0  0
   48.6818    5.4239   15.0918 H   0  0  0  0  0  0  0  0  0  0  0  0
   47.3712    6.0006   16.0906 H   0  0  0  0  0  0  0  0  0  0  0  0
   52.0470    9.8405   13.1359 H   0  0  0  0  0  0  0  0  0  0  0  0
   46.8581    9.2898   11.2455 H   0  0  0  0  0  0  0  0  0  0  0  0
   48.0373    8.8458   16.5598 H   0  0  0  0  0  0  0  0  0  0  0  0
   50.4910    5.5437   19.1790 H   0  0  0  0  0  0  0  0  0  0  0  0
   49.4629    6.9579   18.9413 H   0  0  0  0  0  0  0  0  0  0  0  0
   49.2051    5.9082   20.3295 H   0  0  0  0  0  0  0  0  0  0  0  0
   46.3309    4.9544   18.0753 H   0  0  0  0  0  0  0  0  0  0  0  0
   46.7488    5.5220   19.6945 H   0  0  0  0  0  0  0  0  0  0  0  0
   46.9289    6.6048   18.3184 H   0  0  0  0  0  0  0  0  0  0  0  0
   48.2660    3.6064   20.0911 H   0  0  0  0  0  0  0  0  0  0  0  0
   49.5481    3.1866   18.9461 H   0  0  0  0  0  0  0  0  0  0  0  0
   47.8462    2.9502   18.5049 H   0  0  0  0  0  0  0  0  0  0  0  0
  2  1  2  0
  3  1  1  0
  4 10  1  0
  5  3  2  0
  6  2  1  0
  7  5  1  0
  8  1  1  0
  9  4  1  0
 10  8  1  0
 11  5  1  0
 12  6  1  0
 13  8  1  0
 14  9  1  0
 15  9  1  0
 16  9  1  0
  6  7  2  0
 18 17  1  0
 19 17  1  0
 20 17  2  0
 21 17  2  0
 23 22  2  0
 24 22  1  0
 25 31  1  0
 26 24  2  0
 27 23  1  0
 28 26  1  0
 29 22  1  0
 30 25  1  0
 31 29  1  0
 32 26  1  0
 33 27  1  0
 34 29  1  0
 35 30  1  0
 36 30  1  0
 37 30  1  0
 27 28  2  0
  2 38  1  0
  3 39  1  0
  4 40  1  0
  7 41  1  0
  8 42  1  6
 10 43  1  0
 10 44  1  0
 11 45  1  0
 12 46  1  0
 13 47  1  0
 14 48  1  0
 14 49  1  0
 14 50  1  0
 15 51  1  0
 15 52  1  0
 15 53  1  0
 16 54  1  0
 16 55  1  0
 16 56  1  0
 18 57  1  0
 19 58  1  0
 23 59  1  0
 24 60  1  0
 25 61  1  0
 28 62  1  0
 29 63  1  1
 31 64  1  0
 31 65  1  0
 32 66  1  0
 33 67  1  0
 34 68  1  0
 35 69  1  0
 35 70  1  0
 35 71  1  0
 36 72  1  0
 36 73  1  0
 36 74  1  0
 37 75  1  0
 37 76  1  0
 37 77  1  0
M  END
> <Uni-Dock RESULT> 
ENERGY=   -4.505  LOWER_BOUND=    3.473  UPPER_BOUND=    5.722
INTER + INTRA:          -4.505
INTER:                  -4.505
INTRA:                   0.000
UNBOUND:                 0.000

$$$$
