
     RDKit          3D

 27 29  0  0  0  0  0  0  0  0999 V2000
   45.3147    4.4843    8.4422 N   0  0  0  0  0  0  0  0  0  0  0  0
   45.9366    3.4230    7.8963 C   0  0  0  0  0  0  0  0  0  0  0  0
   44.5633    4.3140    9.5455 C   0  0  0  0  0  0  0  0  0  0  0  0
   44.3956    3.0580   10.1551 C   0  0  0  0  0  0  0  0  0  0  0  0
   45.8282    2.1286    8.4346 C   0  0  0  0  0  0  0  0  0  0  0  0
   46.7141    3.5973    6.7571 C   0  0  0  0  0  0  0  0  0  0  0  0
   43.9210    5.4094   10.1113 C   0  0  0  0  0  0  0  0  0  0  0  0
   45.0426    1.9592    9.5797 C   0  0  0  0  0  0  0  0  0  0  0  0
   43.5872    2.9289   11.2954 C   0  0  0  0  0  0  0  0  0  0  0  0
   46.4826    1.0504    7.8183 C   0  0  0  0  0  0  0  0  0  0  0  0
   47.4210    2.5445    6.1649 C   0  0  0  0  0  0  0  0  0  0  0  0
   43.1602    5.3088   11.2818 C   0  0  0  0  0  0  0  0  0  0  0  0
   48.0978    2.7387    4.9547 N   0  0  0  0  0  0  0  0  0  0  0  0
   42.4372    6.4113   11.7529 N   0  0  0  0  0  0  0  0  0  0  0  0
   47.2569    1.2596    6.6773 C   0  0  0  0  0  0  0  0  0  0  0  0
   42.9584    4.0486   11.8397 C   0  0  0  0  0  0  0  0  0  0  0  0
   46.7688    4.5938    6.3261 H   0  0  0  0  0  0  0  0  0  0  0  0
   44.0276    6.3723    9.6182 H   0  0  0  0  0  0  0  0  0  0  0  0
   44.9309    0.9716   10.0202 H   0  0  0  0  0  0  0  0  0  0  0  0
   43.4309    1.9572   11.7574 H   0  0  0  0  0  0  0  0  0  0  0  0
   46.3826    0.0422    8.2125 H   0  0  0  0  0  0  0  0  0  0  0  0
   48.8214    2.0518    4.7685 H   0  0  0  0  0  0  0  0  0  0  0  0
   48.4230    3.6906    4.8132 H   0  0  0  0  0  0  0  0  0  0  0  0
   42.8478    7.3077   11.5087 H   0  0  0  0  0  0  0  0  0  0  0  0
   42.1879    6.3557   12.7353 H   0  0  0  0  0  0  0  0  0  0  0  0
   47.7302    0.4099    6.1927 H   0  0  0  0  0  0  0  0  0  0  0  0
   42.3096    3.9267   12.7029 H   0  0  0  0  0  0  0  0  0  0  0  0
  2  1  2  0
  3  1  1  0
  4  3  2  0
  5  2  1  0
  6  2  1  0
  7  3  1  0
  8  4  1  0
  9  4  1  0
 10  5  1  0
 11  6  2  0
 12  7  2  0
 13 11  1  0
 14 12  1  0
 15 11  1  0
 16 12  1  0
  5  8  2  0
  9 16  2  0
 10 15  2  0
  6 17  1  0
  7 18  1  0
  8 19  1  0
  9 20  1  0
 10 21  1  0
 13 22  1  0
 13 23  1  0
 14 24  1  0
 14 25  1  0
 15 26  1  0
 16 27  1  0
M  END
> <Uni-Dock RESULT> 
ENERGY=   -6.963  LOWER_BOUND=    0.000  UPPER_BOUND=    0.000
INTER + INTRA:          -6.963
INTER:                  -6.963
INTRA:                   0.000
UNBOUND:                 0.000

$$$$

     RDKit          3D

 27 29  0  0  0  0  0  0  0  0999 V2000
   44.9389    2.5176   10.0557 N   0  0  0  0  0  0  0  0  0  0  0  0
   44.5450    3.6544   10.6585 C   0  0  0  0  0  0  0  0  0  0  0  0
   45.6171    2.5859    8.8954 C   0  0  0  0  0  0  0  0  0  0  0  0
   45.9301    3.8098    8.2779 C   0  0  0  0  0  0  0  0  0  0  0  0
   44.8117    4.9244   10.1171 C   0  0  0  0  0  0  0  0  0  0  0  0
   43.8451    3.5857   11.8577 C   0  0  0  0  0  0  0  0  0  0  0  0
   46.0257    1.4125    8.2718 C   0  0  0  0  0  0  0  0  0  0  0  0
   45.5143    4.9869    8.9091 C   0  0  0  0  0  0  0  0  0  0  0  0
   46.6249    3.8279    7.0583 C   0  0  0  0  0  0  0  0  0  0  0  0
   44.3645    6.0808   10.7755 C   0  0  0  0  0  0  0  0  0  0  0  0
   43.4442    4.7297   12.5572 C   0  0  0  0  0  0  0  0  0  0  0  0
   46.7706    1.4145    7.0870 C   0  0  0  0  0  0  0  0  0  0  0  0
   42.6427    4.6164   13.6995 N   0  0  0  0  0  0  0  0  0  0  0  0
   47.0621    0.2119    6.4321 N   0  0  0  0  0  0  0  0  0  0  0  0
   43.6667    5.9772   11.9786 C   0  0  0  0  0  0  0  0  0  0  0  0
   47.0227    2.6325    6.4599 C   0  0  0  0  0  0  0  0  0  0  0  0
   43.6133    2.6010   12.2558 H   0  0  0  0  0  0  0  0  0  0  0  0
   45.7535    0.4682    8.7364 H   0  0  0  0  0  0  0  0  0  0  0  0
   45.7333    5.9515    8.4577 H   0  0  0  0  0  0  0  0  0  0  0  0
   46.8478    4.7686    6.5609 H   0  0  0  0  0  0  0  0  0  0  0  0
   44.5434    7.0652   10.3504 H   0  0  0  0  0  0  0  0  0  0  0  0
   42.6671    5.4294   14.3067 H   0  0  0  0  0  0  0  0  0  0  0  0
   42.7749    3.7484   14.2106 H   0  0  0  0  0  0  0  0  0  0  0  0
   47.1276   -0.5895    7.0529 H   0  0  0  0  0  0  0  0  0  0  0  0
   47.8462    0.2679    5.7900 H   0  0  0  0  0  0  0  0  0  0  0  0
   43.2984    6.8797   12.4590 H   0  0  0  0  0  0  0  0  0  0  0  0
   47.5305    2.6620    5.4996 H   0  0  0  0  0  0  0  0  0  0  0  0
  2  1  2  0
  3  1  1  0
  4  3  2  0
  5  2  1  0
  6  2  1  0
  7  3  1  0
  8  4  1  0
  9  4  1  0
 10  5  1  0
 11  6  2  0
 12  7  2  0
 13 11  1  0
 14 12  1  0
 15 11  1  0
 16 12  1  0
  5  8  2  0
  9 16  2  0
 10 15  2  0
  6 17  1  0
  7 18  1  0
  8 19  1  0
  9 20  1  0
 10 21  1  0
 13 22  1  0
 13 23  1  0
 14 24  1  0
 14 25  1  0
 15 26  1  0
 16 27  1  0
M  END
> <Uni-Dock RESULT> 
ENERGY=   -5.300  LOWER_BOUND=    1.434  UPPER_BOUND=    6.068
INTER + INTRA:          -5.300
INTER:                  -5.300
INTRA:                   0.000
UNBOUND:                 0.000

$$$$

     RDKit          3D

 27 29  0  0  0  0  0  0  0  0999 V2000
   43.4116    7.0560   11.1675 N   0  0  0  0  0  0  0  0  0  0  0  0
   44.0445    8.2232   11.3869 C   0  0  0  0  0  0  0  0  0  0  0  0
   43.9315    5.9190   11.6654 C   0  0  0  0  0  0  0  0  0  0  0  0
   45.1243    5.8998   12.4095 C   0  0  0  0  0  0  0  0  0  0  0  0
   45.2423    8.3035   12.1190 C   0  0  0  0  0  0  0  0  0  0  0  0
   43.5084    9.3989   10.8741 C   0  0  0  0  0  0  0  0  0  0  0  0
   43.2784    4.7125   11.4405 C   0  0  0  0  0  0  0  0  0  0  0  0
   45.7780    7.1168   12.6305 C   0  0  0  0  0  0  0  0  0  0  0  0
   45.6354    4.6851   12.8932 C   0  0  0  0  0  0  0  0  0  0  0  0
   45.8738    9.5432   12.3061 C   0  0  0  0  0  0  0  0  0  0  0  0
   44.0929   10.6500   11.1018 C   0  0  0  0  0  0  0  0  0  0  0  0
   43.7421    3.5010   11.9659 C   0  0  0  0  0  0  0  0  0  0  0  0
   43.5861   11.7932   10.4722 N   0  0  0  0  0  0  0  0  0  0  0  0
   43.1200    2.2953   11.6202 N   0  0  0  0  0  0  0  0  0  0  0  0
   45.3083   10.7046   11.7802 C   0  0  0  0  0  0  0  0  0  0  0  0
   44.9543    3.4921   12.6520 C   0  0  0  0  0  0  0  0  0  0  0  0
   42.5997    9.3277   10.2817 H   0  0  0  0  0  0  0  0  0  0  0  0
   42.3740    4.7282   10.8376 H   0  0  0  0  0  0  0  0  0  0  0  0
   46.7060    7.1396   13.1964 H   0  0  0  0  0  0  0  0  0  0  0  0
   46.5707    4.6581   13.4467 H   0  0  0  0  0  0  0  0  0  0  0  0
   46.8137    9.6106   12.8481 H   0  0  0  0  0  0  0  0  0  0  0  0
   43.8455   12.6651   10.9224 H   0  0  0  0  0  0  0  0  0  0  0  0
   42.5921   11.7444   10.2685 H   0  0  0  0  0  0  0  0  0  0  0  0
   42.1331    2.3899   11.3991 H   0  0  0  0  0  0  0  0  0  0  0  0
   43.2993    1.5345   12.2678 H   0  0  0  0  0  0  0  0  0  0  0  0
   45.8262   11.6518   11.9051 H   0  0  0  0  0  0  0  0  0  0  0  0
   45.3799    2.5564   13.0046 H   0  0  0  0  0  0  0  0  0  0  0  0
  2  1  2  0
  3  1  1  0
  4  3  2  0
  5  2  1  0
  6  2  1  0
  7  3  1  0
  8  4  1  0
  9  4  1  0
 10  5  1  0
 11  6  2  0
 12  7  2  0
 13 11  1  0
 14 12  1  0
 15 11  1  0
 16 12  1  0
  5  8  2  0
  9 16  2  0
 10 15  2  0
  6 17  1  0
  7 18  1  0
  8 19  1  0
  9 20  1  0
 10 21  1  0
 13 22  1  0
 13 23  1  0
 14 24  1  0
 14 25  1  0
 15 26  1  0
 16 27  1  0
M  END
> <Uni-Dock RESULT> 
ENERGY=   -4.461  LOWER_BOUND=    4.413  UPPER_BOUND=    6.669
INTER + INTRA:          -4.461
INTER:                  -4.461
INTRA:                   0.000
UNBOUND:                 0.000

$$$$

     RDKit          3D

 27 29  0  0  0  0  0  0  0  0999 V2000
   43.4025    7.0118   11.1382 N   0  0  0  0  0  0  0  0  0  0  0  0
   43.9455    5.8773   11.6167 C   0  0  0  0  0  0  0  0  0  0  0  0
   44.0188    8.1863   11.3659 C   0  0  0  0  0  0  0  0  0  0  0  0
   45.2174    8.2779   12.0953 C   0  0  0  0  0  0  0  0  0  0  0  0
   45.1410    5.8692   12.3569 C   0  0  0  0  0  0  0  0  0  0  0  0
   43.3107    4.6630   11.3815 C   0  0  0  0  0  0  0  0  0  0  0  0
   43.4596    9.3592   10.8716 C   0  0  0  0  0  0  0  0  0  0  0  0
   45.7738    7.0944   12.5921 C   0  0  0  0  0  0  0  0  0  0  0  0
   45.8128    9.5290   12.3207 C   0  0  0  0  0  0  0  0  0  0  0  0
   45.6585    4.6609   12.8494 C   0  0  0  0  0  0  0  0  0  0  0  0
   43.8439    3.4434   11.8140 C   0  0  0  0  0  0  0  0  0  0  0  0
   44.0712   10.6073   11.0360 C   0  0  0  0  0  0  0  0  0  0  0  0
   43.1164    2.2575   11.6573 N   0  0  0  0  0  0  0  0  0  0  0  0
   43.4183   11.7752   10.6236 N   0  0  0  0  0  0  0  0  0  0  0  0
   44.9980    3.4593   12.5939 C   0  0  0  0  0  0  0  0  0  0  0  0
   45.2273   10.6868   11.8088 C   0  0  0  0  0  0  0  0  0  0  0  0
   42.3702    4.6778   10.8365 H   0  0  0  0  0  0  0  0  0  0  0  0
   42.5165    9.2868   10.3360 H   0  0  0  0  0  0  0  0  0  0  0  0
   46.6967    7.1274   13.1657 H   0  0  0  0  0  0  0  0  0  0  0  0
   46.7253    9.6116   12.9060 H   0  0  0  0  0  0  0  0  0  0  0  0
   46.5679    4.6487   13.4449 H   0  0  0  0  0  0  0  0  0  0  0  0
   43.6815    1.4152   11.6953 H   0  0  0  0  0  0  0  0  0  0  0  0
   42.4854    2.2638   10.8612 H   0  0  0  0  0  0  0  0  0  0  0  0
   42.7828   11.6378    9.8432 H   0  0  0  0  0  0  0  0  0  0  0  0
   44.0354   12.5689   10.4839 H   0  0  0  0  0  0  0  0  0  0  0  0
   45.3933    2.5364   13.0099 H   0  0  0  0  0  0  0  0  0  0  0  0
   45.6825   11.6507   12.0200 H   0  0  0  0  0  0  0  0  0  0  0  0
  2  1  2  0
  3  1  1  0
  4  3  2  0
  5  2  1  0
  6  2  1  0
  7  3  1  0
  8  4  1  0
  9  4  1  0
 10  5  1  0
 11  6  2  0
 12  7  2  0
 13 11  1  0
 14 12  1  0
 15 11  1  0
 16 12  1  0
  5  8  2  0
  9 16  2  0
 10 15  2  0
  6 17  1  0
  7 18  1  0
  8 19  1  0
  9 20  1  0
 10 21  1  0
 13 22  1  0
 13 23  1  0
 14 24  1  0
 14 25  1  0
 15 26  1  0
 16 27  1  0
M  END
> <Uni-Dock RESULT> 
ENERGY=   -4.427  LOWER_BOUND=    4.314  UPPER_BOUND=    5.948
INTER + INTRA:          -4.427
INTER:                  -4.427
INTRA:                   0.000
UNBOUND:                 0.000

$$$$

     RDKit          3D

 27 29  0  0  0  0  0  0  0  0999 V2000
   46.6827    5.2120   13.1884 N   0  0  0  0  0  0  0  0  0  0  0  0
   45.4498    5.0545   12.6727 C   0  0  0  0  0  0  0  0  0  0  0  0
   47.1750    6.4532   13.3562 C   0  0  0  0  0  0  0  0  0  0  0  0
   46.4476    7.6045   13.0064 C   0  0  0  0  0  0  0  0  0  0  0  0
   44.6479    6.1455   12.2934 C   0  0  0  0  0  0  0  0  0  0  0  0
   44.9394    3.7730   12.4996 C   0  0  0  0  0  0  0  0  0  0  0  0
   48.4481    6.6177   13.8897 C   0  0  0  0  0  0  0  0  0  0  0  0
   45.1680    7.4323   12.4679 C   0  0  0  0  0  0  0  0  0  0  0  0
   47.0119    8.8775   13.1849 C   0  0  0  0  0  0  0  0  0  0  0  0
   43.3745    5.9286   11.7438 C   0  0  0  0  0  0  0  0  0  0  0  0
   43.6493    3.5410   12.0090 C   0  0  0  0  0  0  0  0  0  0  0  0
   49.0018    7.8805   14.1296 C   0  0  0  0  0  0  0  0  0  0  0  0
   43.2176    2.2361   11.7420 N   0  0  0  0  0  0  0  0  0  0  0  0
   50.3288    8.0014   14.5595 N   0  0  0  0  0  0  0  0  0  0  0  0
   42.8910    4.6301   11.5855 C   0  0  0  0  0  0  0  0  0  0  0  0
   48.2911    9.0081   13.7250 C   0  0  0  0  0  0  0  0  0  0  0  0
   45.5753    2.9320   12.7643 H   0  0  0  0  0  0  0  0  0  0  0  0
   49.0190    5.7240   14.1286 H   0  0  0  0  0  0  0  0  0  0  0  0
   44.5788    8.2996   12.1802 H   0  0  0  0  0  0  0  0  0  0  0  0
   46.4669    9.7717   12.8925 H   0  0  0  0  0  0  0  0  0  0  0  0
   42.7589    6.7654   11.4235 H   0  0  0  0  0  0  0  0  0  0  0  0
   42.2087    2.1321   11.7026 H   0  0  0  0  0  0  0  0  0  0  0  0
   43.6563    1.5299   12.3258 H   0  0  0  0  0  0  0  0  0  0  0  0
   50.6601    7.2082   15.1006 H   0  0  0  0  0  0  0  0  0  0  0  0
   50.5423    8.8885   15.0043 H   0  0  0  0  0  0  0  0  0  0  0  0
   41.9171    4.4774   11.1281 H   0  0  0  0  0  0  0  0  0  0  0  0
   48.7268    9.9984   13.8262 H   0  0  0  0  0  0  0  0  0  0  0  0
  2  1  2  0
  3  1  1  0
  4  3  2  0
  5  2  1  0
  6  2  1  0
  7  3  1  0
  8  4  1  0
  9  4  1  0
 10  5  1  0
 11  6  2  0
 12  7  2  0
 13 11  1  0
 14 12  1  0
 15 11  1  0
 16 12  1  0
  5  8  2  0
  9 16  2  0
 10 15  2  0
  6 17  1  0
  7 18  1  0
  8 19  1  0
  9 20  1  0
 10 21  1  0
 13 22  1  0
 13 23  1  0
 14 24  1  0
 14 25  1  0
 15 26  1  0
 16 27  1  0
M  END
> <Uni-Dock RESULT> 
ENERGY=   -4.382  LOWER_BOUND=    4.612  UPPER_BOUND=    6.635
INTER + INTRA:          -4.382
INTER:                  -4.382
INTRA:                   0.000
UNBOUND:                 0.000

$$$$

     RDKit          3D

 27 29  0  0  0  0  0  0  0  0999 V2000
   46.7045    5.1876   13.1546 N   0  0  0  0  0  0  0  0  0  0  0  0
   47.1842    6.4310   13.3413 C   0  0  0  0  0  0  0  0  0  0  0  0
   45.4755    5.0254   12.6308 C   0  0  0  0  0  0  0  0  0  0  0  0
   44.6615    6.1140   12.2711 C   0  0  0  0  0  0  0  0  0  0  0  0
   46.4439    7.5803   13.0122 C   0  0  0  0  0  0  0  0  0  0  0  0
   48.4539    6.6003   13.8814 C   0  0  0  0  0  0  0  0  0  0  0  0
   44.9788    3.7416   12.4365 C   0  0  0  0  0  0  0  0  0  0  0  0
   45.1660    7.4033   12.4712 C   0  0  0  0  0  0  0  0  0  0  0  0
   43.3793    5.8930   11.7440 C   0  0  0  0  0  0  0  0  0  0  0  0
   46.9816    8.8564   13.2419 C   0  0  0  0  0  0  0  0  0  0  0  0
   49.0285    7.8638   14.0614 C   0  0  0  0  0  0  0  0  0  0  0  0
   43.7274    3.5029   11.8572 C   0  0  0  0  0  0  0  0  0  0  0  0
   50.2603    7.9947   14.7140 N   0  0  0  0  0  0  0  0  0  0  0  0
   43.2174    2.2009   11.7855 N   0  0  0  0  0  0  0  0  0  0  0  0
   48.2598    8.9917   13.7833 C   0  0  0  0  0  0  0  0  0  0  0  0
   42.9117    4.5920   11.5595 C   0  0  0  0  0  0  0  0  0  0  0  0
   49.0095    5.7097   14.1640 H   0  0  0  0  0  0  0  0  0  0  0  0
   45.5989    2.9041   12.7458 H   0  0  0  0  0  0  0  0  0  0  0  0
   44.5623    8.2691   12.2104 H   0  0  0  0  0  0  0  0  0  0  0  0
   42.7332    6.7290   11.4880 H   0  0  0  0  0  0  0  0  0  0  0  0
   46.4057    9.7500   13.0150 H   0  0  0  0  0  0  0  0  0  0  0  0
   50.7412    8.8678   14.5227 H   0  0  0  0  0  0  0  0  0  0  0  0
   50.8687    7.1878   14.6105 H   0  0  0  0  0  0  0  0  0  0  0  0
   43.9321    1.4816   11.7263 H   0  0  0  0  0  0  0  0  0  0  0  0
   42.4876    2.0782   11.0908 H   0  0  0  0  0  0  0  0  0  0  0  0
   48.6489    9.9859   13.9859 H   0  0  0  0  0  0  0  0  0  0  0  0
   41.9045    4.4378   11.1815 H   0  0  0  0  0  0  0  0  0  0  0  0
  2  1  2  0
  3  1  1  0
  4  3  2  0
  5  2  1  0
  6  2  1  0
  7  3  1  0
  8  4  1  0
  9  4  1  0
 10  5  1  0
 11  6  2  0
 12  7  2  0
 13 11  1  0
 14 12  1  0
 15 11  1  0
 16 12  1  0
  5  8  2  0
  9 16  2  0
 10 15  2  0
  6 17  1  0
  7 18  1  0
  8 19  1  0
  9 20  1  0
 10 21  1  0
 13 22  1  0
 13 23  1  0
 14 24  1  0
 14 25  1  0
 15 26  1  0
 16 27  1  0
M  END
> <Uni-Dock RESULT> 
ENERGY=   -4.356  LOWER_BOUND=    4.608  UPPER_BOUND=    6.639
INTER + INTRA:          -4.356
INTER:                  -4.356
INTRA:                   0.000
UNBOUND:                 0.000

$$$$

     RDKit          3D

 27 29  0  0  0  0  0  0  0  0999 V2000
   44.4145    7.8578   12.0440 N   0  0  0  0  0  0  0  0  0  0  0  0
   45.2318    8.9267   12.0653 C   0  0  0  0  0  0  0  0  0  0  0  0
   44.8811    6.6613   12.4460 C   0  0  0  0  0  0  0  0  0  0  0  0
   46.2035    6.4794   12.8877 C   0  0  0  0  0  0  0  0  0  0  0  0
   46.5694    8.8425   12.4906 C   0  0  0  0  0  0  0  0  0  0  0  0
   44.7511   10.1637   11.6513 C   0  0  0  0  0  0  0  0  0  0  0  0
   44.0378    5.5563   12.4255 C   0  0  0  0  0  0  0  0  0  0  0  0
   47.0479    7.5947   12.9038 C   0  0  0  0  0  0  0  0  0  0  0  0
   46.6479    5.2071   13.2808 C   0  0  0  0  0  0  0  0  0  0  0  0
   47.3874    9.9832   12.4783 C   0  0  0  0  0  0  0  0  0  0  0  0
   45.5352   11.3224   11.6891 C   0  0  0  0  0  0  0  0  0  0  0  0
   44.4470    4.2939   12.8701 C   0  0  0  0  0  0  0  0  0  0  0  0
   45.0505   12.5228   11.1559 N   0  0  0  0  0  0  0  0  0  0  0  0
   43.6046    3.1850   12.7250 N   0  0  0  0  0  0  0  0  0  0  0  0
   46.8735   11.2101   12.0590 C   0  0  0  0  0  0  0  0  0  0  0  0
   45.7756    4.1193   13.2505 C   0  0  0  0  0  0  0  0  0  0  0  0
   43.7261   10.2172   11.2931 H   0  0  0  0  0  0  0  0  0  0  0  0
   43.0260    5.6954   12.0530 H   0  0  0  0  0  0  0  0  0  0  0  0
   48.0787    7.4904   13.2335 H   0  0  0  0  0  0  0  0  0  0  0  0
   47.6761    5.0524   13.5984 H   0  0  0  0  0  0  0  0  0  0  0  0
   48.4299    9.9215   12.7803 H   0  0  0  0  0  0  0  0  0  0  0  0
   45.5243   13.3517   11.5002 H   0  0  0  0  0  0  0  0  0  0  0  0
   44.0393   12.6116   11.1945 H   0  0  0  0  0  0  0  0  0  0  0  0
   42.6153    3.4149   12.7399 H   0  0  0  0  0  0  0  0  0  0  0  0
   43.8300    2.4089   13.3391 H   0  0  0  0  0  0  0  0  0  0  0  0
   47.5282   12.0768   12.0237 H   0  0  0  0  0  0  0  0  0  0  0  0
   46.1438    3.1348   13.5264 H   0  0  0  0  0  0  0  0  0  0  0  0
  2  1  2  0
  3  1  1  0
  4  3  2  0
  5  2  1  0
  6  2  1  0
  7  3  1  0
  8  4  1  0
  9  4  1  0
 10  5  1  0
 11  6  2  0
 12  7  2  0
 13 11  1  0
 14 12  1  0
 15 11  1  0
 16 12  1  0
  5  8  2  0
  9 16  2  0
 10 15  2  0
  6 17  1  0
  7 18  1  0
  8 19  1  0
  9 20  1  0
 10 21  1  0
 13 22  1  0
 13 23  1  0
 14 24  1  0
 14 25  1  0
 15 26  1  0
 16 27  1  0
M  END
> <Uni-Dock RESULT> 
ENERGY=   -4.000  LOWER_BOUND=    5.042  UPPER_BOUND=    7.187
INTER + INTRA:          -4.000
INTER:                  -4.000
INTRA:                   0.000
UNBOUND:                 0.000

$$$$

     RDKit          3D

 27 29  0  0  0  0  0  0  0  0999 V2000
   44.5328    8.0104   12.1317 N   0  0  0  0  0  0  0  0  0  0  0  0
   44.9811    6.7985   12.5076 C   0  0  0  0  0  0  0  0  0  0  0  0
   45.3788    9.0570   12.1321 C   0  0  0  0  0  0  0  0  0  0  0  0
   46.7254    8.9356   12.5179 C   0  0  0  0  0  0  0  0  0  0  0  0
   46.3106    6.5796   12.9097 C   0  0  0  0  0  0  0  0  0  0  0  0
   44.1087    5.7161   12.5068 C   0  0  0  0  0  0  0  0  0  0  0  0
   44.9175   10.3094   11.7431 C   0  0  0  0  0  0  0  0  0  0  0  0
   47.1829    7.6732   12.9105 C   0  0  0  0  0  0  0  0  0  0  0  0
   47.5642   10.0612   12.5177 C   0  0  0  0  0  0  0  0  0  0  0  0
   46.7257    5.2997   13.3095 C   0  0  0  0  0  0  0  0  0  0  0  0
   44.5210    4.4221   12.8451 C   0  0  0  0  0  0  0  0  0  0  0  0
   45.7548   11.4291   11.6801 C   0  0  0  0  0  0  0  0  0  0  0  0
   43.5863    3.3843   12.9429 N   0  0  0  0  0  0  0  0  0  0  0  0
   45.2255   12.6936   11.3949 N   0  0  0  0  0  0  0  0  0  0  0  0
   45.8258    4.2342   13.2951 C   0  0  0  0  0  0  0  0  0  0  0  0
   47.0706   11.3034   12.1196 C   0  0  0  0  0  0  0  0  0  0  0  0
   43.0741    5.8967   12.2261 H   0  0  0  0  0  0  0  0  0  0  0  0
   43.8680   10.4047   11.4765 H   0  0  0  0  0  0  0  0  0  0  0  0
   48.2166    7.5428   13.2211 H   0  0  0  0  0  0  0  0  0  0  0  0
   48.5995    9.9815   12.8399 H   0  0  0  0  0  0  0  0  0  0  0  0
   47.7447    5.1273   13.6469 H   0  0  0  0  0  0  0  0  0  0  0  0
   43.9885    2.4549   12.8738 H   0  0  0  0  0  0  0  0  0  0  0  0
   42.7773    3.5009   12.3397 H   0  0  0  0  0  0  0  0  0  0  0  0
   44.3918   12.6696   10.8152 H   0  0  0  0  0  0  0  0  0  0  0  0
   45.9096   13.3644   11.0598 H   0  0  0  0  0  0  0  0  0  0  0  0
   46.1535    3.2568   13.6389 H   0  0  0  0  0  0  0  0  0  0  0  0
   47.7234   12.1715   12.1565 H   0  0  0  0  0  0  0  0  0  0  0  0
  2  1  2  0
  3  1  1  0
  4  3  2  0
  5  2  1  0
  6  2  1  0
  7  3  1  0
  8  4  1  0
  9  4  1  0
 10  5  1  0
 11  6  2  0
 12  7  2  0
 13 11  1  0
 14 12  1  0
 15 11  1  0
 16 12  1  0
  5  8  2  0
  9 16  2  0
 10 15  2  0
  6 17  1  0
  7 18  1  0
  8 19  1  0
  9 20  1  0
 10 21  1  0
 13 22  1  0
 13 23  1  0
 14 24  1  0
 14 25  1  0
 15 26  1  0
 16 27  1  0
M  END
> <Uni-Dock RESULT> 
ENERGY=   -3.993  LOWER_BOUND=    5.115  UPPER_BOUND=    6.936
INTER + INTRA:          -3.993
INTER:                  -3.993
INTRA:                   0.000
UNBOUND:                 0.000

$$$$
