
     RDKit          3D

 27 29  0  0  0  0  0  0  0  0999 V2000
   45.2936    4.4775    8.4289 N   0  0  0  0  0  0  0  0  0  0  0  0
   44.5526    4.3050    9.5389 C   0  0  0  0  0  0  0  0  0  0  0  0
   45.9129    3.4178    7.8768 C   0  0  0  0  0  0  0  0  0  0  0  0
   45.8183    2.1242    8.4198 C   0  0  0  0  0  0  0  0  0  0  0  0
   44.3952    3.0487   10.1507 C   0  0  0  0  0  0  0  0  0  0  0  0
   43.9109    5.3982   10.1096 C   0  0  0  0  0  0  0  0  0  0  0  0
   46.6801    3.5946    6.7311 C   0  0  0  0  0  0  0  0  0  0  0  0
   45.0441    1.9527    9.5722 C   0  0  0  0  0  0  0  0  0  0  0  0
   46.4976    1.0540    7.8167 C   0  0  0  0  0  0  0  0  0  0  0  0
   43.5972    2.9172   11.2981 C   0  0  0  0  0  0  0  0  0  0  0  0
   43.1604    5.2954   11.2863 C   0  0  0  0  0  0  0  0  0  0  0  0
   47.3152    2.5287    6.0838 C   0  0  0  0  0  0  0  0  0  0  0  0
   42.4369    6.3954   11.7629 N   0  0  0  0  0  0  0  0  0  0  0  0
   48.1708    2.7667    5.0012 N   0  0  0  0  0  0  0  0  0  0  0  0
   42.9681    4.0346   11.8467 C   0  0  0  0  0  0  0  0  0  0  0  0
   47.2579    1.2648    6.6667 C   0  0  0  0  0  0  0  0  0  0  0  0
   44.0103    6.3614    9.6154 H   0  0  0  0  0  0  0  0  0  0  0  0
   46.7755    4.6017    6.3331 H   0  0  0  0  0  0  0  0  0  0  0  0
   44.9466    0.9663   10.0190 H   0  0  0  0  0  0  0  0  0  0  0  0
   46.4503    0.0556    8.2444 H   0  0  0  0  0  0  0  0  0  0  0  0
   43.4497    1.9454   11.7626 H   0  0  0  0  0  0  0  0  0  0  0  0
   42.1973    6.3392   12.7477 H   0  0  0  0  0  0  0  0  0  0  0  0
   42.8438    7.2929   11.5157 H   0  0  0  0  0  0  0  0  0  0  0  0
   48.3249    1.9571    4.4085 H   0  0  0  0  0  0  0  0  0  0  0  0
   47.9348    3.5971    4.4659 H   0  0  0  0  0  0  0  0  0  0  0  0
   42.3274    3.9109   12.7156 H   0  0  0  0  0  0  0  0  0  0  0  0
   47.8041    0.4328    6.2305 H   0  0  0  0  0  0  0  0  0  0  0  0
  2  1  2  0
  3  1  1  0
  4  3  2  0
  5  2  1  0
  6  2  1  0
  7  3  1  0
  8  4  1  0
  9  4  1  0
 10  5  1  0
 11  6  2  0
 12  7  2  0
 13 11  1  0
 14 12  1  0
 15 11  1  0
 16 12  1  0
  5  8  2  0
  9 16  2  0
 10 15  2  0
  6 17  1  0
  7 18  1  0
  8 19  1  0
  9 20  1  0
 10 21  1  0
 13 22  1  0
 13 23  1  0
 14 24  1  0
 14 25  1  0
 15 26  1  0
 16 27  1  0
M  END
> <Uni-Dock RESULT> 
ENERGY=   -6.946  LOWER_BOUND=    0.000  UPPER_BOUND=    0.000
INTER + INTRA:          -6.946
INTER:                  -6.946
INTRA:                   0.000
UNBOUND:                 0.000

$$$$

     RDKit          3D

 27 29  0  0  0  0  0  0  0  0999 V2000
   45.2937    4.4778    8.4294 N   0  0  0  0  0  0  0  0  0  0  0  0
   45.9128    3.4182    7.8774 C   0  0  0  0  0  0  0  0  0  0  0  0
   44.5526    4.3053    9.5395 C   0  0  0  0  0  0  0  0  0  0  0  0
   44.3949    3.0490   10.1511 C   0  0  0  0  0  0  0  0  0  0  0  0
   45.8180    2.1245    8.4202 C   0  0  0  0  0  0  0  0  0  0  0  0
   46.6801    3.5949    6.7317 C   0  0  0  0  0  0  0  0  0  0  0  0
   43.9109    5.3987   10.1101 C   0  0  0  0  0  0  0  0  0  0  0  0
   45.0438    1.9530    9.5727 C   0  0  0  0  0  0  0  0  0  0  0  0
   43.5968    2.9176   11.2984 C   0  0  0  0  0  0  0  0  0  0  0  0
   46.4972    1.0542    7.8170 C   0  0  0  0  0  0  0  0  0  0  0  0
   47.3151    2.5289    6.0842 C   0  0  0  0  0  0  0  0  0  0  0  0
   43.1603    5.2957   11.2867 C   0  0  0  0  0  0  0  0  0  0  0  0
   48.1708    2.7669    5.0017 N   0  0  0  0  0  0  0  0  0  0  0  0
   42.4369    6.3959   11.7633 N   0  0  0  0  0  0  0  0  0  0  0  0
   47.2576    1.2650    6.6671 C   0  0  0  0  0  0  0  0  0  0  0  0
   42.9678    4.0350   11.8470 C   0  0  0  0  0  0  0  0  0  0  0  0
   46.7756    4.6020    6.3337 H   0  0  0  0  0  0  0  0  0  0  0  0
   44.0104    6.3618    9.6159 H   0  0  0  0  0  0  0  0  0  0  0  0
   44.9461    0.9666   10.0192 H   0  0  0  0  0  0  0  0  0  0  0  0
   43.4492    1.9457   11.7628 H   0  0  0  0  0  0  0  0  0  0  0  0
   46.4498    0.0558    8.2447 H   0  0  0  0  0  0  0  0  0  0  0  0
   48.3249    1.9573    4.4090 H   0  0  0  0  0  0  0  0  0  0  0  0
   47.9349    3.5975    4.4665 H   0  0  0  0  0  0  0  0  0  0  0  0
   42.1973    6.3396   12.7481 H   0  0  0  0  0  0  0  0  0  0  0  0
   42.8439    7.2932   11.5162 H   0  0  0  0  0  0  0  0  0  0  0  0
   47.8038    0.4330    6.2309 H   0  0  0  0  0  0  0  0  0  0  0  0
   42.3271    3.9113   12.7159 H   0  0  0  0  0  0  0  0  0  0  0  0
  2  1  2  0
  3  1  1  0
  4  3  2  0
  5  2  1  0
  6  2  1  0
  7  3  1  0
  8  4  1  0
  9  4  1  0
 10  5  1  0
 11  6  2  0
 12  7  2  0
 13 11  1  0
 14 12  1  0
 15 11  1  0
 16 12  1  0
  5  8  2  0
  9 16  2  0
 10 15  2  0
  6 17  1  0
  7 18  1  0
  8 19  1  0
  9 20  1  0
 10 21  1  0
 13 22  1  0
 13 23  1  0
 14 24  1  0
 14 25  1  0
 15 26  1  0
 16 27  1  0
M  END
> <Uni-Dock RESULT> 
ENERGY=   -6.946  LOWER_BOUND=    0.001  UPPER_BOUND=    5.638
INTER + INTRA:          -6.946
INTER:                  -6.946
INTRA:                   0.000
UNBOUND:                 0.000

$$$$

     RDKit          3D

 27 29  0  0  0  0  0  0  0  0999 V2000
   44.8942    2.5143   10.0295 N   0  0  0  0  0  0  0  0  0  0  0  0
   44.4948    3.6569   10.6174 C   0  0  0  0  0  0  0  0  0  0  0  0
   45.5950    2.5718    8.8820 C   0  0  0  0  0  0  0  0  0  0  0  0
   45.9282    3.7902    8.2643 C   0  0  0  0  0  0  0  0  0  0  0  0
   44.7850    4.9224   10.0773 C   0  0  0  0  0  0  0  0  0  0  0  0
   43.7722    3.5994   11.8037 C   0  0  0  0  0  0  0  0  0  0  0  0
   46.0069    1.3922    8.2724 C   0  0  0  0  0  0  0  0  0  0  0  0
   45.5116    4.9736    8.8830 C   0  0  0  0  0  0  0  0  0  0  0  0
   46.6461    3.7971    7.0580 C   0  0  0  0  0  0  0  0  0  0  0  0
   44.3609    6.0861   10.7379 C   0  0  0  0  0  0  0  0  0  0  0  0
   43.2911    4.7473   12.4436 C   0  0  0  0  0  0  0  0  0  0  0  0
   46.7738    1.3829    7.1017 C   0  0  0  0  0  0  0  0  0  0  0  0
   42.6687    4.6522   13.6943 N   0  0  0  0  0  0  0  0  0  0  0  0
   47.0690    0.1746    6.4587 N   0  0  0  0  0  0  0  0  0  0  0  0
   43.6362    5.9936   11.9259 C   0  0  0  0  0  0  0  0  0  0  0  0
   47.0460    2.5958    6.4731 C   0  0  0  0  0  0  0  0  0  0  0  0
   43.5772    2.6201   12.2336 H   0  0  0  0  0  0  0  0  0  0  0  0
   45.7201    0.4523    8.7372 H   0  0  0  0  0  0  0  0  0  0  0  0
   45.7528    5.9345    8.4351 H   0  0  0  0  0  0  0  0  0  0  0  0
   46.8859    4.7336    6.5607 H   0  0  0  0  0  0  0  0  0  0  0  0
   44.6028    7.0688   10.3406 H   0  0  0  0  0  0  0  0  0  0  0  0
   42.0833    5.4479   13.9279 H   0  0  0  0  0  0  0  0  0  0  0  0
   42.1964    3.7666   13.8517 H   0  0  0  0  0  0  0  0  0  0  0  0
   47.8662    0.2223    5.8320 H   0  0  0  0  0  0  0  0  0  0  0  0
   47.1188   -0.6230    7.0858 H   0  0  0  0  0  0  0  0  0  0  0  0
   43.3436    6.9038   12.4424 H   0  0  0  0  0  0  0  0  0  0  0  0
   47.5725    2.6166    5.5226 H   0  0  0  0  0  0  0  0  0  0  0  0
  2  1  2  0
  3  1  1  0
  4  3  2  0
  5  2  1  0
  6  2  1  0
  7  3  1  0
  8  4  1  0
  9  4  1  0
 10  5  1  0
 11  6  2  0
 12  7  2  0
 13 11  1  0
 14 12  1  0
 15 11  1  0
 16 12  1  0
  5  8  2  0
  9 16  2  0
 10 15  2  0
  6 17  1  0
  7 18  1  0
  8 19  1  0
  9 20  1  0
 10 21  1  0
 13 22  1  0
 13 23  1  0
 14 24  1  0
 14 25  1  0
 15 26  1  0
 16 27  1  0
M  END
> <Uni-Dock RESULT> 
ENERGY=   -5.418  LOWER_BOUND=    1.428  UPPER_BOUND=    2.325
INTER + INTRA:          -5.418
INTER:                  -5.418
INTRA:                   0.000
UNBOUND:                 0.000

$$$$

     RDKit          3D

 27 29  0  0  0  0  0  0  0  0999 V2000
   44.8948    2.5140   10.0295 N   0  0  0  0  0  0  0  0  0  0  0  0
   45.5955    2.5716    8.8821 C   0  0  0  0  0  0  0  0  0  0  0  0
   44.4952    3.6567   10.6175 C   0  0  0  0  0  0  0  0  0  0  0  0
   44.7852    4.9221   10.0772 C   0  0  0  0  0  0  0  0  0  0  0  0
   45.9285    3.7900    8.2642 C   0  0  0  0  0  0  0  0  0  0  0  0
   46.0076    1.3921    8.2725 C   0  0  0  0  0  0  0  0  0  0  0  0
   43.7728    3.5991   11.8038 C   0  0  0  0  0  0  0  0  0  0  0  0
   45.5116    4.9734    8.8829 C   0  0  0  0  0  0  0  0  0  0  0  0
   44.3610    6.0858   10.7378 C   0  0  0  0  0  0  0  0  0  0  0  0
   46.6463    3.7969    7.0578 C   0  0  0  0  0  0  0  0  0  0  0  0
   46.7744    1.3827    7.1018 C   0  0  0  0  0  0  0  0  0  0  0  0
   43.2916    4.7470   12.4437 C   0  0  0  0  0  0  0  0  0  0  0  0
   47.0699    0.1745    6.4588 N   0  0  0  0  0  0  0  0  0  0  0  0
   42.6693    4.6518   13.6944 N   0  0  0  0  0  0  0  0  0  0  0  0
   47.0464    2.5956    6.4730 C   0  0  0  0  0  0  0  0  0  0  0  0
   43.6364    5.9933   11.9259 C   0  0  0  0  0  0  0  0  0  0  0  0
   45.7211    0.4521    8.7374 H   0  0  0  0  0  0  0  0  0  0  0  0
   43.5780    2.6198   12.2338 H   0  0  0  0  0  0  0  0  0  0  0  0
   45.7527    5.9342    8.4349 H   0  0  0  0  0  0  0  0  0  0  0  0
   44.6027    7.0684   10.3403 H   0  0  0  0  0  0  0  0  0  0  0  0
   46.8859    4.7334    6.5604 H   0  0  0  0  0  0  0  0  0  0  0  0
   47.8669    0.2222    5.8320 H   0  0  0  0  0  0  0  0  0  0  0  0
   47.1198   -0.6231    7.0860 H   0  0  0  0  0  0  0  0  0  0  0  0
   42.0837    5.4474   13.9279 H   0  0  0  0  0  0  0  0  0  0  0  0
   42.1972    3.7662   13.8520 H   0  0  0  0  0  0  0  0  0  0  0  0
   47.5727    2.6164    5.5225 H   0  0  0  0  0  0  0  0  0  0  0  0
   43.3435    6.9035   12.4423 H   0  0  0  0  0  0  0  0  0  0  0  0
  2  1  2  0
  3  1  1  0
  4  3  2  0
  5  2  1  0
  6  2  1  0
  7  3  1  0
  8  4  1  0
  9  4  1  0
 10  5  1  0
 11  6  2  0
 12  7  2  0
 13 11  1  0
 14 12  1  0
 15 11  1  0
 16 12  1  0
  5  8  2  0
  9 16  2  0
 10 15  2  0
  6 17  1  0
  7 18  1  0
  8 19  1  0
  9 20  1  0
 10 21  1  0
 13 22  1  0
 13 23  1  0
 14 24  1  0
 14 25  1  0
 15 26  1  0
 16 27  1  0
M  END
> <Uni-Dock RESULT> 
ENERGY=   -5.417  LOWER_BOUND=    1.428  UPPER_BOUND=    6.067
INTER + INTRA:          -5.417
INTER:                  -5.417
INTRA:                   0.000
UNBOUND:                 0.000

$$$$

     RDKit          3D

 27 29  0  0  0  0  0  0  0  0999 V2000
   43.3836    7.0481   11.1633 N   0  0  0  0  0  0  0  0  0  0  0  0
   43.9133    5.9149   11.6595 C   0  0  0  0  0  0  0  0  0  0  0  0
   44.0138    8.2187   11.3727 C   0  0  0  0  0  0  0  0  0  0  0  0
   45.2148    8.3072   12.0987 C   0  0  0  0  0  0  0  0  0  0  0  0
   45.1126    5.9034   12.3935 C   0  0  0  0  0  0  0  0  0  0  0  0
   43.2645    4.7047   11.4428 C   0  0  0  0  0  0  0  0  0  0  0  0
   43.4671    9.3905   10.8623 C   0  0  0  0  0  0  0  0  0  0  0  0
   45.7602    7.1245   12.6090 C   0  0  0  0  0  0  0  0  0  0  0  0
   45.8247    9.5546   12.3049 C   0  0  0  0  0  0  0  0  0  0  0  0
   45.6338    4.6923   12.8754 C   0  0  0  0  0  0  0  0  0  0  0  0
   43.7389    3.4966   11.9664 C   0  0  0  0  0  0  0  0  0  0  0  0
   44.0929   10.6338   11.0080 C   0  0  0  0  0  0  0  0  0  0  0  0
   43.1199    2.2870   11.6285 N   0  0  0  0  0  0  0  0  0  0  0  0
   43.4523   11.8031   10.5798 N   0  0  0  0  0  0  0  0  0  0  0  0
   44.9572    3.4953   12.6420 C   0  0  0  0  0  0  0  0  0  0  0  0
   45.2511   10.7115   11.7779 C   0  0  0  0  0  0  0  0  0  0  0  0
   42.3543    4.7147   10.8484 H   0  0  0  0  0  0  0  0  0  0  0  0
   42.5226    9.3210   10.3286 H   0  0  0  0  0  0  0  0  0  0  0  0
   46.6887    7.1543   13.1738 H   0  0  0  0  0  0  0  0  0  0  0  0
   46.7398    9.6351   12.8865 H   0  0  0  0  0  0  0  0  0  0  0  0
   46.5734    4.6713   13.4220 H   0  0  0  0  0  0  0  0  0  0  0  0
   43.3085    1.5292   12.2770 H   0  0  0  0  0  0  0  0  0  0  0  0
   42.1302    2.3769   11.4177 H   0  0  0  0  0  0  0  0  0  0  0  0
   44.0788   12.5870   10.4269 H   0  0  0  0  0  0  0  0  0  0  0  0
   42.8156   11.6609    9.8011 H   0  0  0  0  0  0  0  0  0  0  0  0
   45.3902    2.5626   12.9931 H   0  0  0  0  0  0  0  0  0  0  0  0
   45.7177   11.6731   11.9740 H   0  0  0  0  0  0  0  0  0  0  0  0
  2  1  2  0
  3  1  1  0
  4  3  2  0
  5  2  1  0
  6  2  1  0
  7  3  1  0
  8  4  1  0
  9  4  1  0
 10  5  1  0
 11  6  2  0
 12  7  2  0
 13 11  1  0
 14 12  1  0
 15 11  1  0
 16 12  1  0
  5  8  2  0
  9 16  2  0
 10 15  2  0
  6 17  1  0
  7 18  1  0
  8 19  1  0
  9 20  1  0
 10 21  1  0
 13 22  1  0
 13 23  1  0
 14 24  1  0
 14 25  1  0
 15 26  1  0
 16 27  1  0
M  END
> <Uni-Dock RESULT> 
ENERGY=   -4.454  LOWER_BOUND=    4.421  UPPER_BOUND=    6.679
INTER + INTRA:          -4.454
INTER:                  -4.454
INTRA:                   0.000
UNBOUND:                 0.000

$$$$

     RDKit          3D

 27 29  0  0  0  0  0  0  0  0999 V2000
   46.7012    5.1921   13.1596 N   0  0  0  0  0  0  0  0  0  0  0  0
   45.4736    5.0288   12.6331 C   0  0  0  0  0  0  0  0  0  0  0  0
   47.1783    6.4361   13.3494 C   0  0  0  0  0  0  0  0  0  0  0  0
   46.4395    7.5846   13.0142 C   0  0  0  0  0  0  0  0  0  0  0  0
   44.6591    6.1166   12.2717 C   0  0  0  0  0  0  0  0  0  0  0  0
   44.9785    3.7446   12.4379 C   0  0  0  0  0  0  0  0  0  0  0  0
   48.4471    6.6066   13.8915 C   0  0  0  0  0  0  0  0  0  0  0  0
   45.1632    7.4064   12.4698 C   0  0  0  0  0  0  0  0  0  0  0  0
   46.9884    8.8608   13.2153 C   0  0  0  0  0  0  0  0  0  0  0  0
   43.3782    5.8943   11.7422 C   0  0  0  0  0  0  0  0  0  0  0  0
   43.7282    3.5045   11.8566 C   0  0  0  0  0  0  0  0  0  0  0  0
   48.9853    7.8717   14.1535 C   0  0  0  0  0  0  0  0  0  0  0  0
   43.2197    2.2020   11.7840 N   0  0  0  0  0  0  0  0  0  0  0  0
   50.3090    8.0007   14.5915 N   0  0  0  0  0  0  0  0  0  0  0  0
   42.9119    4.5929   11.5574 C   0  0  0  0  0  0  0  0  0  0  0  0
   48.2638    8.9974   13.7629 C   0  0  0  0  0  0  0  0  0  0  0  0
   45.5992    2.9075   12.7476 H   0  0  0  0  0  0  0  0  0  0  0  0
   49.0266    5.7157   14.1201 H   0  0  0  0  0  0  0  0  0  0  0  0
   44.5624    8.2715   12.2003 H   0  0  0  0  0  0  0  0  0  0  0  0
   46.4341    9.7532   12.9354 H   0  0  0  0  0  0  0  0  0  0  0  0
   42.7322    6.7297   11.4838 H   0  0  0  0  0  0  0  0  0  0  0  0
   42.4919    2.0790   11.0872 H   0  0  0  0  0  0  0  0  0  0  0  0
   43.9360    1.4841   11.7243 H   0  0  0  0  0  0  0  0  0  0  0  0
   50.5093    8.8830   15.0519 H   0  0  0  0  0  0  0  0  0  0  0  0
   50.6452    7.2032   15.1234 H   0  0  0  0  0  0  0  0  0  0  0  0
   41.9058    4.4376   11.1774 H   0  0  0  0  0  0  0  0  0  0  0  0
   48.6877    9.9909   13.8820 H   0  0  0  0  0  0  0  0  0  0  0  0
  2  1  2  0
  3  1  1  0
  4  3  2  0
  5  2  1  0
  6  2  1  0
  7  3  1  0
  8  4  1  0
  9  4  1  0
 10  5  1  0
 11  6  2  0
 12  7  2  0
 13 11  1  0
 14 12  1  0
 15 11  1  0
 16 12  1  0
  5  8  2  0
  9 16  2  0
 10 15  2  0
  6 17  1  0
  7 18  1  0
  8 19  1  0
  9 20  1  0
 10 21  1  0
 13 22  1  0
 13 23  1  0
 14 24  1  0
 14 25  1  0
 15 26  1  0
 16 27  1  0
M  END
> <Uni-Dock RESULT> 
ENERGY=   -4.358  LOWER_BOUND=    4.613  UPPER_BOUND=    6.643
INTER + INTRA:          -4.358
INTER:                  -4.358
INTRA:                   0.000
UNBOUND:                 0.000

$$$$

     RDKit          3D

 27 29  0  0  0  0  0  0  0  0999 V2000
   46.7011    5.1924   13.1598 N   0  0  0  0  0  0  0  0  0  0  0  0
   47.1784    6.4362   13.3497 C   0  0  0  0  0  0  0  0  0  0  0  0
   45.4733    5.0292   12.6334 C   0  0  0  0  0  0  0  0  0  0  0  0
   44.6591    6.1172   12.2721 C   0  0  0  0  0  0  0  0  0  0  0  0
   46.4398    7.5848   13.0146 C   0  0  0  0  0  0  0  0  0  0  0  0
   48.4471    6.6064   13.8919 C   0  0  0  0  0  0  0  0  0  0  0  0
   44.9781    3.7450   12.4382 C   0  0  0  0  0  0  0  0  0  0  0  0
   45.1635    7.4069   12.4702 C   0  0  0  0  0  0  0  0  0  0  0  0
   43.3781    5.8951   11.7427 C   0  0  0  0  0  0  0  0  0  0  0  0
   46.9889    8.8609   13.2158 C   0  0  0  0  0  0  0  0  0  0  0  0
   48.9857    7.8714   14.1539 C   0  0  0  0  0  0  0  0  0  0  0  0
   43.7277    3.5054   11.8570 C   0  0  0  0  0  0  0  0  0  0  0  0
   50.3093    8.0002   14.5919 N   0  0  0  0  0  0  0  0  0  0  0  0
   43.2189    2.2028   11.7844 N   0  0  0  0  0  0  0  0  0  0  0  0
   48.2643    8.9972   13.7634 C   0  0  0  0  0  0  0  0  0  0  0  0
   42.9115    4.5938   11.5579 C   0  0  0  0  0  0  0  0  0  0  0  0
   49.0265    5.7154   14.1204 H   0  0  0  0  0  0  0  0  0  0  0  0
   45.5986    2.9079   12.7478 H   0  0  0  0  0  0  0  0  0  0  0  0
   44.5627    8.2721   12.2008 H   0  0  0  0  0  0  0  0  0  0  0  0
   42.7323    6.7307   11.4843 H   0  0  0  0  0  0  0  0  0  0  0  0
   46.4348    9.7535   12.9360 H   0  0  0  0  0  0  0  0  0  0  0  0
   50.5099    8.8824   15.0523 H   0  0  0  0  0  0  0  0  0  0  0  0
   50.6455    7.2026   15.1237 H   0  0  0  0  0  0  0  0  0  0  0  0
   42.4911    2.0801   11.0875 H   0  0  0  0  0  0  0  0  0  0  0  0
   43.9351    1.4849   11.7245 H   0  0  0  0  0  0  0  0  0  0  0  0
   48.6884    9.9906   13.8824 H   0  0  0  0  0  0  0  0  0  0  0  0
   41.9054    4.4387   11.1777 H   0  0  0  0  0  0  0  0  0  0  0  0
  2  1  2  0
  3  1  1  0
  4  3  2  0
  5  2  1  0
  6  2  1  0
  7  3  1  0
  8  4  1  0
  9  4  1  0
 10  5  1  0
 11  6  2  0
 12  7  2  0
 13 11  1  0
 14 12  1  0
 15 11  1  0
 16 12  1  0
  5  8  2  0
  9 16  2  0
 10 15  2  0
  6 17  1  0
  7 18  1  0
  8 19  1  0
  9 20  1  0
 10 21  1  0
 13 22  1  0
 13 23  1  0
 14 24  1  0
 14 25  1  0
 15 26  1  0
 16 27  1  0
M  END
> <Uni-Dock RESULT> 
ENERGY=   -4.358  LOWER_BOUND=    4.613  UPPER_BOUND=    6.614
INTER + INTRA:          -4.358
INTER:                  -4.358
INTRA:                   0.000
UNBOUND:                 0.000

$$$$

     RDKit          3D

 27 29  0  0  0  0  0  0  0  0999 V2000
   44.4545    7.8934   12.1025 N   0  0  0  0  0  0  0  0  0  0  0  0
   44.9134    6.6879   12.4860 C   0  0  0  0  0  0  0  0  0  0  0  0
   45.2876    8.9504   12.1105 C   0  0  0  0  0  0  0  0  0  0  0  0
   46.6317    8.8460   12.5102 C   0  0  0  0  0  0  0  0  0  0  0  0
   46.2428    6.4848   12.8970 C   0  0  0  0  0  0  0  0  0  0  0  0
   44.0547    5.5947   12.4767 C   0  0  0  0  0  0  0  0  0  0  0  0
   44.8147   10.1968   11.7162 C   0  0  0  0  0  0  0  0  0  0  0  0
   47.1017    7.5890   12.9050 C   0  0  0  0  0  0  0  0  0  0  0  0
   47.4562    9.9820   12.5178 C   0  0  0  0  0  0  0  0  0  0  0  0
   46.6781    5.2038   13.2714 C   0  0  0  0  0  0  0  0  0  0  0  0
   44.4564    4.3236   12.9031 C   0  0  0  0  0  0  0  0  0  0  0  0
   45.6385   11.3268   11.6615 C   0  0  0  0  0  0  0  0  0  0  0  0
   43.5958    3.2273   12.7690 N   0  0  0  0  0  0  0  0  0  0  0  0
   45.0962   12.5845   11.3702 N   0  0  0  0  0  0  0  0  0  0  0  0
   45.7907    4.1281   13.2524 C   0  0  0  0  0  0  0  0  0  0  0  0
   46.9511   11.2179   12.1146 C   0  0  0  0  0  0  0  0  0  0  0  0
   43.0367    5.7504   12.1287 H   0  0  0  0  0  0  0  0  0  0  0  0
   43.7670   10.2787   11.4380 H   0  0  0  0  0  0  0  0  0  0  0  0
   48.1359    7.4700   13.2186 H   0  0  0  0  0  0  0  0  0  0  0  0
   48.4895    9.9150   12.8493 H   0  0  0  0  0  0  0  0  0  0  0  0
   47.7106    5.0332   13.5661 H   0  0  0  0  0  0  0  0  0  0  0  0
   43.8241    2.4444   13.3735 H   0  0  0  0  0  0  0  0  0  0  0  0
   42.6105    3.4713   12.8096 H   0  0  0  0  0  0  0  0  0  0  0  0
   45.7757   13.2630   11.0409 H   0  0  0  0  0  0  0  0  0  0  0  0
   44.2699   12.5490   10.7803 H   0  0  0  0  0  0  0  0  0  0  0  0
   46.1512    3.1368   13.5134 H   0  0  0  0  0  0  0  0  0  0  0  0
   47.5927   12.0940   12.1573 H   0  0  0  0  0  0  0  0  0  0  0  0
  2  1  2  0
  3  1  1  0
  4  3  2  0
  5  2  1  0
  6  2  1  0
  7  3  1  0
  8  4  1  0
  9  4  1  0
 10  5  1  0
 11  6  2  0
 12  7  2  0
 13 11  1  0
 14 12  1  0
 15 11  1  0
 16 12  1  0
  5  8  2  0
  9 16  2  0
 10 15  2  0
  6 17  1  0
  7 18  1  0
  8 19  1  0
  9 20  1  0
 10 21  1  0
 13 22  1  0
 13 23  1  0
 14 24  1  0
 14 25  1  0
 15 26  1  0
 16 27  1  0
M  END
> <Uni-Dock RESULT> 
ENERGY=   -4.011  LOWER_BOUND=    5.079  UPPER_BOUND=    7.223
INTER + INTRA:          -4.011
INTER:                  -4.011
INTRA:                   0.000
UNBOUND:                 0.000

$$$$

     RDKit          3D

 27 29  0  0  0  0  0  0  0  0999 V2000
   44.4410    7.3568   11.7665 N   0  0  0  0  0  0  0  0  0  0  0  0
   45.4856    6.9062   12.4853 C   0  0  0  0  0  0  0  0  0  0  0  0
   44.3352    8.6735   11.5091 C   0  0  0  0  0  0  0  0  0  0  0  0
   45.2804    9.6081   11.9678 C   0  0  0  0  0  0  0  0  0  0  0  0
   46.4832    7.7639   12.9817 C   0  0  0  0  0  0  0  0  0  0  0  0
   45.5973    5.5461   12.7506 C   0  0  0  0  0  0  0  0  0  0  0  0
   43.2557    9.1409   10.7682 C   0  0  0  0  0  0  0  0  0  0  0  0
   46.3647    9.1314   12.7121 C   0  0  0  0  0  0  0  0  0  0  0  0
   45.1162   10.9737   11.6879 C   0  0  0  0  0  0  0  0  0  0  0  0
   47.5630    7.2427   13.7119 C   0  0  0  0  0  0  0  0  0  0  0  0
   46.6351    5.0176   13.5267 C   0  0  0  0  0  0  0  0  0  0  0  0
   43.1086   10.4909   10.4299 C   0  0  0  0  0  0  0  0  0  0  0  0
   46.7746    3.6321   13.6731 N   0  0  0  0  0  0  0  0  0  0  0  0
   41.9495   10.9360    9.7824 N   0  0  0  0  0  0  0  0  0  0  0  0
   47.6446    5.8731   13.9621 C   0  0  0  0  0  0  0  0  0  0  0  0
   44.0226   11.4099   10.9402 C   0  0  0  0  0  0  0  0  0  0  0  0
   44.8405    4.8836   12.3384 H   0  0  0  0  0  0  0  0  0  0  0  0
   42.5114    8.4187   10.4424 H   0  0  0  0  0  0  0  0  0  0  0  0
   47.1162    9.8247   13.0816 H   0  0  0  0  0  0  0  0  0  0  0  0
   45.8287   11.7057   12.0601 H   0  0  0  0  0  0  0  0  0  0  0  0
   48.3517    7.8956   14.0776 H   0  0  0  0  0  0  0  0  0  0  0  0
   47.3259    3.3535   14.4786 H   0  0  0  0  0  0  0  0  0  0  0  0
   45.8982    3.1222   13.6105 H   0  0  0  0  0  0  0  0  0  0  0  0
   42.0580   11.8231    9.3011 H   0  0  0  0  0  0  0  0  0  0  0  0
   41.5094   10.2314    9.1977 H   0  0  0  0  0  0  0  0  0  0  0  0
   48.5034    5.4812   14.5003 H   0  0  0  0  0  0  0  0  0  0  0  0
   43.8921   12.4735   10.7598 H   0  0  0  0  0  0  0  0  0  0  0  0
  2  1  2  0
  3  1  1  0
  4  3  2  0
  5  2  1  0
  6  2  1  0
  7  3  1  0
  8  4  1  0
  9  4  1  0
 10  5  1  0
 11  6  2  0
 12  7  2  0
 13 11  1  0
 14 12  1  0
 15 11  1  0
 16 12  1  0
  5  8  2  0
  9 16  2  0
 10 15  2  0
  6 17  1  0
  7 18  1  0
  8 19  1  0
  9 20  1  0
 10 21  1  0
 13 22  1  0
 13 23  1  0
 14 24  1  0
 14 25  1  0
 15 26  1  0
 16 27  1  0
M  END
> <Uni-Dock RESULT> 
ENERGY=   -3.952  LOWER_BOUND=    5.331  UPPER_BOUND=    7.531
INTER + INTRA:          -3.952
INTER:                  -3.952
INTRA:                   0.000
UNBOUND:                 0.000

$$$$
