
     RDKit          3D

 27 29  0  0  0  0  0  0  0  0999 V2000
   45.3302    4.4759    8.4388 N   0  0  0  0  0  0  0  0  0  0  0  0
   45.9494    3.4142    7.8909 C   0  0  0  0  0  0  0  0  0  0  0  0
   44.5705    4.3037    9.5361 C   0  0  0  0  0  0  0  0  0  0  0  0
   44.3973    3.0465   10.1415 C   0  0  0  0  0  0  0  0  0  0  0  0
   45.8316    2.1177    8.4223 C   0  0  0  0  0  0  0  0  0  0  0  0
   46.7334    3.5900    6.7563 C   0  0  0  0  0  0  0  0  0  0  0  0
   43.9314    5.3999   10.1043 C   0  0  0  0  0  0  0  0  0  0  0  0
   45.0421    1.9474    9.5645 C   0  0  0  0  0  0  0  0  0  0  0  0
   43.6082    2.9215   11.2958 C   0  0  0  0  0  0  0  0  0  0  0  0
   46.4834    1.0392    7.8037 C   0  0  0  0  0  0  0  0  0  0  0  0
   47.4373    2.5365    6.1621 C   0  0  0  0  0  0  0  0  0  0  0  0
   43.0941    5.2828   11.2196 C   0  0  0  0  0  0  0  0  0  0  0  0
   48.1211    2.7333    4.9562 N   0  0  0  0  0  0  0  0  0  0  0  0
   42.5630    6.4261   11.8290 N   0  0  0  0  0  0  0  0  0  0  0  0
   47.2639    1.2499    6.6673 C   0  0  0  0  0  0  0  0  0  0  0  0
   42.9793    4.0410   11.8401 C   0  0  0  0  0  0  0  0  0  0  0  0
   46.7961    4.5886    6.3312 H   0  0  0  0  0  0  0  0  0  0  0  0
   44.0935    6.3745    9.6510 H   0  0  0  0  0  0  0  0  0  0  0  0
   44.9296    0.9595   10.0042 H   0  0  0  0  0  0  0  0  0  0  0  0
   43.4897    1.9576   11.7847 H   0  0  0  0  0  0  0  0  0  0  0  0
   46.3772    0.0298    8.1933 H   0  0  0  0  0  0  0  0  0  0  0  0
   48.8425    2.0434    4.7711 H   0  0  0  0  0  0  0  0  0  0  0  0
   48.4532    3.6839    4.8227 H   0  0  0  0  0  0  0  0  0  0  0  0
   42.4281    7.2060   11.1921 H   0  0  0  0  0  0  0  0  0  0  0  0
   41.7429    6.2488   12.4001 H   0  0  0  0  0  0  0  0  0  0  0  0
   47.7354    0.4001    6.1811 H   0  0  0  0  0  0  0  0  0  0  0  0
   42.3988    3.9336   12.7524 H   0  0  0  0  0  0  0  0  0  0  0  0
  2  1  2  0
  3  1  1  0
  4  3  2  0
  5  2  1  0
  6  2  1  0
  7  3  1  0
  8  4  1  0
  9  4  1  0
 10  5  1  0
 11  6  2  0
 12  7  2  0
 13 11  1  0
 14 12  1  0
 15 11  1  0
 16 12  1  0
  5  8  2  0
  9 16  2  0
 10 15  2  0
  6 17  1  0
  7 18  1  0
  8 19  1  0
  9 20  1  0
 10 21  1  0
 13 22  1  0
 13 23  1  0
 14 24  1  0
 14 25  1  0
 15 26  1  0
 16 27  1  0
M  END
> <Uni-Dock RESULT> 
ENERGY=   -6.905  LOWER_BOUND=    0.000  UPPER_BOUND=    0.000
INTER + INTRA:          -6.905
INTER:                  -6.905
INTRA:                   0.000
UNBOUND:                 0.000

$$$$

     RDKit          3D

 27 29  0  0  0  0  0  0  0  0999 V2000
   45.3298    4.4755    8.4387 N   0  0  0  0  0  0  0  0  0  0  0  0
   44.5700    4.3033    9.5359 C   0  0  0  0  0  0  0  0  0  0  0  0
   45.9490    3.4138    7.8908 C   0  0  0  0  0  0  0  0  0  0  0  0
   45.8313    2.1174    8.4222 C   0  0  0  0  0  0  0  0  0  0  0  0
   44.3969    3.0461   10.1414 C   0  0  0  0  0  0  0  0  0  0  0  0
   43.9309    5.3994   10.1043 C   0  0  0  0  0  0  0  0  0  0  0  0
   46.7331    3.5898    6.7563 C   0  0  0  0  0  0  0  0  0  0  0  0
   45.0418    1.9470    9.5644 C   0  0  0  0  0  0  0  0  0  0  0  0
   46.4833    1.0389    7.8038 C   0  0  0  0  0  0  0  0  0  0  0  0
   43.6079    2.9209   11.2958 C   0  0  0  0  0  0  0  0  0  0  0  0
   43.0935    5.2824   11.2195 C   0  0  0  0  0  0  0  0  0  0  0  0
   47.4371    2.5362    6.1622 C   0  0  0  0  0  0  0  0  0  0  0  0
   42.5624    6.4256   11.8288 N   0  0  0  0  0  0  0  0  0  0  0  0
   48.1209    2.7330    4.9563 N   0  0  0  0  0  0  0  0  0  0  0  0
   42.9789    4.0404   11.8400 C   0  0  0  0  0  0  0  0  0  0  0  0
   47.2638    1.2496    6.6673 C   0  0  0  0  0  0  0  0  0  0  0  0
   44.0929    6.3740    9.6510 H   0  0  0  0  0  0  0  0  0  0  0  0
   46.7958    4.5883    6.3312 H   0  0  0  0  0  0  0  0  0  0  0  0
   44.9293    0.9591   10.0042 H   0  0  0  0  0  0  0  0  0  0  0  0
   46.3771    0.0294    8.1933 H   0  0  0  0  0  0  0  0  0  0  0  0
   43.4893    1.9571   11.7847 H   0  0  0  0  0  0  0  0  0  0  0  0
   41.7421    6.2481   12.4000 H   0  0  0  0  0  0  0  0  0  0  0  0
   42.4274    7.2054   11.1920 H   0  0  0  0  0  0  0  0  0  0  0  0
   48.4530    3.6838    4.8227 H   0  0  0  0  0  0  0  0  0  0  0  0
   48.8423    2.0434    4.7712 H   0  0  0  0  0  0  0  0  0  0  0  0
   42.3983    3.9331   12.7523 H   0  0  0  0  0  0  0  0  0  0  0  0
   47.7353    0.3999    6.1812 H   0  0  0  0  0  0  0  0  0  0  0  0
  2  1  2  0
  3  1  1  0
  4  3  2  0
  5  2  1  0
  6  2  1  0
  7  3  1  0
  8  4  1  0
  9  4  1  0
 10  5  1  0
 11  6  2  0
 12  7  2  0
 13 11  1  0
 14 12  1  0
 15 11  1  0
 16 12  1  0
  5  8  2  0
  9 16  2  0
 10 15  2  0
  6 17  1  0
  7 18  1  0
  8 19  1  0
  9 20  1  0
 10 21  1  0
 13 22  1  0
 13 23  1  0
 14 24  1  0
 14 25  1  0
 15 26  1  0
 16 27  1  0
M  END
> <Uni-Dock RESULT> 
ENERGY=   -6.899  LOWER_BOUND=    0.001  UPPER_BOUND=    5.638
INTER + INTRA:          -6.899
INTER:                  -6.899
INTRA:                   0.000
UNBOUND:                 0.000

$$$$

     RDKit          3D

 27 29  0  0  0  0  0  0  0  0999 V2000
   43.4297    7.0200   11.1425 N   0  0  0  0  0  0  0  0  0  0  0  0
   44.0483    8.1912   11.3799 C   0  0  0  0  0  0  0  0  0  0  0  0
   43.9632    5.8819   11.6232 C   0  0  0  0  0  0  0  0  0  0  0  0
   45.1521    5.8666   12.3736 C   0  0  0  0  0  0  0  0  0  0  0  0
   45.2438    8.2751   12.1154 C   0  0  0  0  0  0  0  0  0  0  0  0
   43.4995    9.3678   10.8826 C   0  0  0  0  0  0  0  0  0  0  0  0
   43.3244    4.6712   11.3802 C   0  0  0  0  0  0  0  0  0  0  0  0
   45.7906    7.0879   12.6139 C   0  0  0  0  0  0  0  0  0  0  0  0
   45.6594    4.6547   12.8681 C   0  0  0  0  0  0  0  0  0  0  0  0
   45.8604    9.5193   12.3212 C   0  0  0  0  0  0  0  0  0  0  0  0
   44.0692   10.6222   11.1288 C   0  0  0  0  0  0  0  0  0  0  0  0
   43.8477    3.4483   11.8152 C   0  0  0  0  0  0  0  0  0  0  0  0
   43.5501   11.7681   10.5143 N   0  0  0  0  0  0  0  0  0  0  0  0
   43.1156    2.2663   11.6499 N   0  0  0  0  0  0  0  0  0  0  0  0
   45.2827   10.6813   11.8101 C   0  0  0  0  0  0  0  0  0  0  0  0
   44.9950    3.4570   12.6052 C   0  0  0  0  0  0  0  0  0  0  0  0
   42.5922    9.2944   10.2883 H   0  0  0  0  0  0  0  0  0  0  0  0
   42.3892    4.6917   10.8263 H   0  0  0  0  0  0  0  0  0  0  0  0
   46.7130    7.1145   13.1887 H   0  0  0  0  0  0  0  0  0  0  0  0
   46.5643    4.6369   13.4705 H   0  0  0  0  0  0  0  0  0  0  0  0
   46.7980    9.5901   12.8671 H   0  0  0  0  0  0  0  0  0  0  0  0
   43.7984   12.6362   10.9783 H   0  0  0  0  0  0  0  0  0  0  0  0
   42.5566   11.7106   10.3101 H   0  0  0  0  0  0  0  0  0  0  0  0
   42.4931    2.2774   10.8471 H   0  0  0  0  0  0  0  0  0  0  0  0
   43.6769    1.4215   11.6905 H   0  0  0  0  0  0  0  0  0  0  0  0
   45.7891   11.6326   11.9498 H   0  0  0  0  0  0  0  0  0  0  0  0
   45.3823    2.5314   13.0225 H   0  0  0  0  0  0  0  0  0  0  0  0
  2  1  2  0
  3  1  1  0
  4  3  2  0
  5  2  1  0
  6  2  1  0
  7  3  1  0
  8  4  1  0
  9  4  1  0
 10  5  1  0
 11  6  2  0
 12  7  2  0
 13 11  1  0
 14 12  1  0
 15 11  1  0
 16 12  1  0
  5  8  2  0
  9 16  2  0
 10 15  2  0
  6 17  1  0
  7 18  1  0
  8 19  1  0
  9 20  1  0
 10 21  1  0
 13 22  1  0
 13 23  1  0
 14 24  1  0
 14 25  1  0
 15 26  1  0
 16 27  1  0
M  END
> <Uni-Dock RESULT> 
ENERGY=   -4.438  LOWER_BOUND=    4.323  UPPER_BOUND=    6.670
INTER + INTRA:          -4.438
INTER:                  -4.438
INTRA:                   0.000
UNBOUND:                 0.000

$$$$

     RDKit          3D

 27 29  0  0  0  0  0  0  0  0999 V2000
   43.4324    7.0182   11.1424 N   0  0  0  0  0  0  0  0  0  0  0  0
   43.9653    5.8797   11.6229 C   0  0  0  0  0  0  0  0  0  0  0  0
   44.0516    8.1891   11.3802 C   0  0  0  0  0  0  0  0  0  0  0  0
   45.2469    8.2722   12.1159 C   0  0  0  0  0  0  0  0  0  0  0  0
   45.1542    5.8638   12.3735 C   0  0  0  0  0  0  0  0  0  0  0  0
   43.3261    4.6693   11.3797 C   0  0  0  0  0  0  0  0  0  0  0  0
   43.5032    9.3659   10.8831 C   0  0  0  0  0  0  0  0  0  0  0  0
   45.7932    7.0847   12.6142 C   0  0  0  0  0  0  0  0  0  0  0  0
   45.8639    9.5162   12.3222 C   0  0  0  0  0  0  0  0  0  0  0  0
   45.6609    4.6515   12.8679 C   0  0  0  0  0  0  0  0  0  0  0  0
   43.8488    3.4461   11.8144 C   0  0  0  0  0  0  0  0  0  0  0  0
   44.0734   10.6200   11.1297 C   0  0  0  0  0  0  0  0  0  0  0  0
   43.1162    2.2644   11.6487 N   0  0  0  0  0  0  0  0  0  0  0  0
   43.5549   11.7664   10.5154 N   0  0  0  0  0  0  0  0  0  0  0  0
   44.9960    3.4541   12.6045 C   0  0  0  0  0  0  0  0  0  0  0  0
   45.2869   10.6786   11.8112 C   0  0  0  0  0  0  0  0  0  0  0  0
   42.3911    4.6903   10.8256 H   0  0  0  0  0  0  0  0  0  0  0  0
   42.5960    9.2930   10.2886 H   0  0  0  0  0  0  0  0  0  0  0  0
   46.7155    7.1107   13.1892 H   0  0  0  0  0  0  0  0  0  0  0  0
   46.8015    9.5864   12.8682 H   0  0  0  0  0  0  0  0  0  0  0  0
   46.5657    4.6332   13.4704 H   0  0  0  0  0  0  0  0  0  0  0  0
   43.6773    1.4194   11.6892 H   0  0  0  0  0  0  0  0  0  0  0  0
   42.4940    2.2760   10.8459 H   0  0  0  0  0  0  0  0  0  0  0  0
   42.5614   11.7093   10.3110 H   0  0  0  0  0  0  0  0  0  0  0  0
   43.8034   12.6342   10.9795 H   0  0  0  0  0  0  0  0  0  0  0  0
   45.3829    2.5283   13.0217 H   0  0  0  0  0  0  0  0  0  0  0  0
   45.7937   11.6296   11.9512 H   0  0  0  0  0  0  0  0  0  0  0  0
  2  1  2  0
  3  1  1  0
  4  3  2  0
  5  2  1  0
  6  2  1  0
  7  3  1  0
  8  4  1  0
  9  4  1  0
 10  5  1  0
 11  6  2  0
 12  7  2  0
 13 11  1  0
 14 12  1  0
 15 11  1  0
 16 12  1  0
  5  8  2  0
  9 16  2  0
 10 15  2  0
  6 17  1  0
  7 18  1  0
  8 19  1  0
  9 20  1  0
 10 21  1  0
 13 22  1  0
 13 23  1  0
 14 24  1  0
 14 25  1  0
 15 26  1  0
 16 27  1  0
M  END
> <Uni-Dock RESULT> 
ENERGY=   -4.436  LOWER_BOUND=    4.321  UPPER_BOUND=    5.964
INTER + INTRA:          -4.436
INTER:                  -4.436
INTRA:                   0.000
UNBOUND:                 0.000

$$$$

     RDKit          3D

 27 29  0  0  0  0  0  0  0  0999 V2000
   46.6861    5.2072   13.1830 N   0  0  0  0  0  0  0  0  0  0  0  0
   45.4520    5.0507   12.6699 C   0  0  0  0  0  0  0  0  0  0  0  0
   47.1807    6.4478   13.3475 C   0  0  0  0  0  0  0  0  0  0  0  0
   46.4517    7.6000   13.0037 C   0  0  0  0  0  0  0  0  0  0  0  0
   44.6504    6.1424   12.2920 C   0  0  0  0  0  0  0  0  0  0  0  0
   44.9402    3.7696   12.4977 C   0  0  0  0  0  0  0  0  0  0  0  0
   48.4549    6.6112   13.8790 C   0  0  0  0  0  0  0  0  0  0  0  0
   45.1706    7.4289   12.4685 C   0  0  0  0  0  0  0  0  0  0  0  0
   47.0050    8.8734   13.2107 C   0  0  0  0  0  0  0  0  0  0  0  0
   43.3758    5.9265   11.7448 C   0  0  0  0  0  0  0  0  0  0  0  0
   43.6492    3.5386   12.0092 C   0  0  0  0  0  0  0  0  0  0  0  0
   49.0442    7.8707   14.0368 C   0  0  0  0  0  0  0  0  0  0  0  0
   43.2161    2.2340   11.7430 N   0  0  0  0  0  0  0  0  0  0  0  0
   50.2806    7.9979   14.6816 N   0  0  0  0  0  0  0  0  0  0  0  0
   42.8911    4.6283   11.5868 C   0  0  0  0  0  0  0  0  0  0  0  0
   48.2869    9.0028   13.7447 C   0  0  0  0  0  0  0  0  0  0  0  0
   45.5756    2.9282   12.7622 H   0  0  0  0  0  0  0  0  0  0  0  0
   49.0020    5.7188   14.1722 H   0  0  0  0  0  0  0  0  0  0  0  0
   44.5785    8.2969   12.1893 H   0  0  0  0  0  0  0  0  0  0  0  0
   46.4383    9.7699   12.9713 H   0  0  0  0  0  0  0  0  0  0  0  0
   42.7597    6.7640   11.4267 H   0  0  0  0  0  0  0  0  0  0  0  0
   42.2068    2.1315   11.7063 H   0  0  0  0  0  0  0  0  0  0  0  0
   43.6543    1.5284   12.3278 H   0  0  0  0  0  0  0  0  0  0  0  0
   50.8795    7.1829   14.5859 H   0  0  0  0  0  0  0  0  0  0  0  0
   50.7701    8.8624   14.4734 H   0  0  0  0  0  0  0  0  0  0  0  0
   41.9162    4.4766   11.1316 H   0  0  0  0  0  0  0  0  0  0  0  0
   48.6881    9.9956   13.9294 H   0  0  0  0  0  0  0  0  0  0  0  0
  2  1  2  0
  3  1  1  0
  4  3  2  0
  5  2  1  0
  6  2  1  0
  7  3  1  0
  8  4  1  0
  9  4  1  0
 10  5  1  0
 11  6  2  0
 12  7  2  0
 13 11  1  0
 14 12  1  0
 15 11  1  0
 16 12  1  0
  5  8  2  0
  9 16  2  0
 10 15  2  0
  6 17  1  0
  7 18  1  0
  8 19  1  0
  9 20  1  0
 10 21  1  0
 13 22  1  0
 13 23  1  0
 14 24  1  0
 14 25  1  0
 15 26  1  0
 16 27  1  0
M  END
> <Uni-Dock RESULT> 
ENERGY=   -4.379  LOWER_BOUND=    4.606  UPPER_BOUND=    6.634
INTER + INTRA:          -4.379
INTER:                  -4.379
INTRA:                   0.000
UNBOUND:                 0.000

$$$$

     RDKit          3D

 27 29  0  0  0  0  0  0  0  0999 V2000
   46.6861    5.2070   13.1831 N   0  0  0  0  0  0  0  0  0  0  0  0
   47.1807    6.4477   13.3476 C   0  0  0  0  0  0  0  0  0  0  0  0
   45.4520    5.0506   12.6698 C   0  0  0  0  0  0  0  0  0  0  0  0
   44.6504    6.1423   12.2920 C   0  0  0  0  0  0  0  0  0  0  0  0
   46.4517    7.5999   13.0038 C   0  0  0  0  0  0  0  0  0  0  0  0
   48.4548    6.6112   13.8792 C   0  0  0  0  0  0  0  0  0  0  0  0
   44.9402    3.7695   12.4978 C   0  0  0  0  0  0  0  0  0  0  0  0
   45.1706    7.4288   12.4685 C   0  0  0  0  0  0  0  0  0  0  0  0
   43.3758    5.9264   11.7448 C   0  0  0  0  0  0  0  0  0  0  0  0
   47.0049    8.8734   13.2109 C   0  0  0  0  0  0  0  0  0  0  0  0
   49.0442    7.8707   14.0370 C   0  0  0  0  0  0  0  0  0  0  0  0
   43.6493    3.5387   12.0091 C   0  0  0  0  0  0  0  0  0  0  0  0
   50.2805    7.9978   14.6819 N   0  0  0  0  0  0  0  0  0  0  0  0
   43.2161    2.2340   11.7430 N   0  0  0  0  0  0  0  0  0  0  0  0
   48.2868    9.0027   13.7448 C   0  0  0  0  0  0  0  0  0  0  0  0
   42.8912    4.6283   11.5868 C   0  0  0  0  0  0  0  0  0  0  0  0
   49.0020    5.7188   14.1723 H   0  0  0  0  0  0  0  0  0  0  0  0
   45.5757    2.9281   12.7622 H   0  0  0  0  0  0  0  0  0  0  0  0
   44.5786    8.2969   12.1894 H   0  0  0  0  0  0  0  0  0  0  0  0
   42.7598    6.7639   11.4267 H   0  0  0  0  0  0  0  0  0  0  0  0
   46.4383    9.7698   12.9714 H   0  0  0  0  0  0  0  0  0  0  0  0
   50.7700    8.8624   14.4735 H   0  0  0  0  0  0  0  0  0  0  0  0
   50.8794    7.1829   14.5861 H   0  0  0  0  0  0  0  0  0  0  0  0
   43.6544    1.5283   12.3278 H   0  0  0  0  0  0  0  0  0  0  0  0
   42.2069    2.1314   11.7062 H   0  0  0  0  0  0  0  0  0  0  0  0
   48.6881    9.9955   13.9296 H   0  0  0  0  0  0  0  0  0  0  0  0
   41.9162    4.4765   11.1315 H   0  0  0  0  0  0  0  0  0  0  0  0
  2  1  2  0
  3  1  1  0
  4  3  2  0
  5  2  1  0
  6  2  1  0
  7  3  1  0
  8  4  1  0
  9  4  1  0
 10  5  1  0
 11  6  2  0
 12  7  2  0
 13 11  1  0
 14 12  1  0
 15 11  1  0
 16 12  1  0
  5  8  2  0
  9 16  2  0
 10 15  2  0
  6 17  1  0
  7 18  1  0
  8 19  1  0
  9 20  1  0
 10 21  1  0
 13 22  1  0
 13 23  1  0
 14 24  1  0
 14 25  1  0
 15 26  1  0
 16 27  1  0
M  END
> <Uni-Dock RESULT> 
ENERGY=   -4.379  LOWER_BOUND=    4.606  UPPER_BOUND=    6.646
INTER + INTRA:          -4.379
INTER:                  -4.379
INTRA:                   0.000
UNBOUND:                 0.000

$$$$

     RDKit          3D

 27 29  0  0  0  0  0  0  0  0999 V2000
   46.3900    6.2805   13.3032 N   0  0  0  0  0  0  0  0  0  0  0  0
   46.7111    7.5734   13.1130 C   0  0  0  0  0  0  0  0  0  0  0  0
   45.2657    5.7908   12.7490 C   0  0  0  0  0  0  0  0  0  0  0  0
   44.4048    6.5827   11.9688 C   0  0  0  0  0  0  0  0  0  0  0  0
   45.9100    8.4436   12.3527 C   0  0  0  0  0  0  0  0  0  0  0  0
   47.8714    8.0814   13.6862 C   0  0  0  0  0  0  0  0  0  0  0  0
   44.9333    4.4549   12.9432 C   0  0  0  0  0  0  0  0  0  0  0  0
   44.7442    7.9263   11.7779 C   0  0  0  0  0  0  0  0  0  0  0  0
   43.2523    6.0206   11.3976 C   0  0  0  0  0  0  0  0  0  0  0  0
   46.2791    9.7891   12.1980 C   0  0  0  0  0  0  0  0  0  0  0  0
   48.2846    9.4045   13.4929 C   0  0  0  0  0  0  0  0  0  0  0  0
   43.7583    3.8938   12.4304 C   0  0  0  0  0  0  0  0  0  0  0  0
   49.3960    9.9065   14.1807 N   0  0  0  0  0  0  0  0  0  0  0  0
   43.5190    2.5194   12.5509 N   0  0  0  0  0  0  0  0  0  0  0  0
   47.4505   10.2669   12.7849 C   0  0  0  0  0  0  0  0  0  0  0  0
   42.9466    4.6770   11.6130 C   0  0  0  0  0  0  0  0  0  0  0  0
   48.4710    7.4128   14.2986 H   0  0  0  0  0  0  0  0  0  0  0  0
   45.6180    3.8391   13.5211 H   0  0  0  0  0  0  0  0  0  0  0  0
   44.1013    8.5693   11.1820 H   0  0  0  0  0  0  0  0  0  0  0  0
   42.5947    6.6195   10.7722 H   0  0  0  0  0  0  0  0  0  0  0  0
   45.6523   10.4747   11.6330 H   0  0  0  0  0  0  0  0  0  0  0  0
   49.8073   10.7325   13.7575 H   0  0  0  0  0  0  0  0  0  0  0  0
   50.0919    9.2019   14.4067 H   0  0  0  0  0  0  0  0  0  0  0  0
   43.9495    2.0977   13.3688 H   0  0  0  0  0  0  0  0  0  0  0  0
   42.5434    2.2579   12.4510 H   0  0  0  0  0  0  0  0  0  0  0  0
   47.7056   11.3183   12.6834 H   0  0  0  0  0  0  0  0  0  0  0  0
   42.0686    4.2486   11.1372 H   0  0  0  0  0  0  0  0  0  0  0  0
  2  1  2  0
  3  1  1  0
  4  3  2  0
  5  2  1  0
  6  2  1  0
  7  3  1  0
  8  4  1  0
  9  4  1  0
 10  5  1  0
 11  6  2  0
 12  7  2  0
 13 11  1  0
 14 12  1  0
 15 11  1  0
 16 12  1  0
  5  8  2  0
  9 16  2  0
 10 15  2  0
  6 17  1  0
  7 18  1  0
  8 19  1  0
  9 20  1  0
 10 21  1  0
 13 22  1  0
 13 23  1  0
 14 24  1  0
 14 25  1  0
 15 26  1  0
 16 27  1  0
M  END
> <Uni-Dock RESULT> 
ENERGY=   -4.045  LOWER_BOUND=    4.896  UPPER_BOUND=    6.905
INTER + INTRA:          -4.045
INTER:                  -4.045
INTRA:                   0.000
UNBOUND:                 0.000

$$$$

     RDKit          3D

 27 29  0  0  0  0  0  0  0  0999 V2000
   44.5003    8.0282   12.0817 N   0  0  0  0  0  0  0  0  0  0  0  0
   44.9523    6.8255   12.4819 C   0  0  0  0  0  0  0  0  0  0  0  0
   45.3356    9.0832   12.0877 C   0  0  0  0  0  0  0  0  0  0  0  0
   46.6766    8.9787   12.4973 C   0  0  0  0  0  0  0  0  0  0  0  0
   46.2754    6.6246   12.9134 C   0  0  0  0  0  0  0  0  0  0  0  0
   44.0902    5.7348   12.4779 C   0  0  0  0  0  0  0  0  0  0  0  0
   44.8706   10.3260   11.6730 C   0  0  0  0  0  0  0  0  0  0  0  0
   47.1382    7.7257   12.9144 C   0  0  0  0  0  0  0  0  0  0  0  0
   47.5134   10.1055   12.4691 C   0  0  0  0  0  0  0  0  0  0  0  0
   46.6943    5.3539   13.3381 C   0  0  0  0  0  0  0  0  0  0  0  0
   44.5075    4.4495   12.8416 C   0  0  0  0  0  0  0  0  0  0  0  0
   45.6746   11.4713   11.6948 C   0  0  0  0  0  0  0  0  0  0  0  0
   43.5806    3.4041   12.9340 N   0  0  0  0  0  0  0  0  0  0  0  0
   45.2034   12.6770   11.1610 N   0  0  0  0  0  0  0  0  0  0  0  0
   45.8047    4.2799   13.3202 C   0  0  0  0  0  0  0  0  0  0  0  0
   47.0153   11.3385   12.0489 C   0  0  0  0  0  0  0  0  0  0  0  0
   43.0602    5.9018   12.1731 H   0  0  0  0  0  0  0  0  0  0  0  0
   43.8421   10.3950   11.3278 H   0  0  0  0  0  0  0  0  0  0  0  0
   48.1688    7.6075   13.2398 H   0  0  0  0  0  0  0  0  0  0  0  0
   48.5581   10.0279   12.7600 H   0  0  0  0  0  0  0  0  0  0  0  0
   47.7083    5.1954   13.6971 H   0  0  0  0  0  0  0  0  0  0  0  0
   43.9935    2.4780   12.8844 H   0  0  0  0  0  0  0  0  0  0  0  0
   42.7842    3.5050   12.3115 H   0  0  0  0  0  0  0  0  0  0  0  0
   44.1944   12.7831   11.2135 H   0  0  0  0  0  0  0  0  0  0  0  0
   45.6952   13.4993   11.4962 H   0  0  0  0  0  0  0  0  0  0  0  0
   46.1346    3.3101   13.6828 H   0  0  0  0  0  0  0  0  0  0  0  0
   47.6839   12.1938   12.0015 H   0  0  0  0  0  0  0  0  0  0  0  0
  2  1  2  0
  3  1  1  0
  4  3  2  0
  5  2  1  0
  6  2  1  0
  7  3  1  0
  8  4  1  0
  9  4  1  0
 10  5  1  0
 11  6  2  0
 12  7  2  0
 13 11  1  0
 14 12  1  0
 15 11  1  0
 16 12  1  0
  5  8  2  0
  9 16  2  0
 10 15  2  0
  6 17  1  0
  7 18  1  0
  8 19  1  0
  9 20  1  0
 10 21  1  0
 13 22  1  0
 13 23  1  0
 14 24  1  0
 14 25  1  0
 15 26  1  0
 16 27  1  0
M  END
> <Uni-Dock RESULT> 
ENERGY=   -3.977  LOWER_BOUND=    5.130  UPPER_BOUND=    6.954
INTER + INTRA:          -3.977
INTER:                  -3.977
INTRA:                   0.000
UNBOUND:                 0.000

$$$$

     RDKit          3D

 27 29  0  0  0  0  0  0  0  0999 V2000
   44.4767    7.4198   11.7722 N   0  0  0  0  0  0  0  0  0  0  0  0
   45.5309    6.9801   12.4836 C   0  0  0  0  0  0  0  0  0  0  0  0
   44.3540    8.7356   11.5179 C   0  0  0  0  0  0  0  0  0  0  0  0
   45.2939    9.6796   11.9679 C   0  0  0  0  0  0  0  0  0  0  0  0
   46.5189    7.8489   12.9797 C   0  0  0  0  0  0  0  0  0  0  0  0
   45.6583    5.6213   12.7487 C   0  0  0  0  0  0  0  0  0  0  0  0
   43.2663    9.1913   10.7817 C   0  0  0  0  0  0  0  0  0  0  0  0
   46.3855    9.2149   12.7090 C   0  0  0  0  0  0  0  0  0  0  0  0
   45.1305   11.0398   11.6617 C   0  0  0  0  0  0  0  0  0  0  0  0
   47.5909    7.3432   13.7319 C   0  0  0  0  0  0  0  0  0  0  0  0
   46.7512    5.0938   13.4459 C   0  0  0  0  0  0  0  0  0  0  0  0
   43.0572   10.5498   10.5183 C   0  0  0  0  0  0  0  0  0  0  0  0
   46.7827    3.7372   13.7907 N   0  0  0  0  0  0  0  0  0  0  0  0
   42.0140   10.9551    9.6769 N   0  0  0  0  0  0  0  0  0  0  0  0
   47.6902    5.9741   13.9787 C   0  0  0  0  0  0  0  0  0  0  0  0
   44.0270   11.4646   10.9222 C   0  0  0  0  0  0  0  0  0  0  0  0
   44.8759    4.9575   12.3898 H   0  0  0  0  0  0  0  0  0  0  0  0
   42.5592    8.4543   10.4096 H   0  0  0  0  0  0  0  0  0  0  0  0
   47.1313    9.9162   13.0750 H   0  0  0  0  0  0  0  0  0  0  0  0
   45.8657   11.7730   11.9841 H   0  0  0  0  0  0  0  0  0  0  0  0
   48.3454    8.0109   14.1406 H   0  0  0  0  0  0  0  0  0  0  0  0
   47.7118    3.3826   13.9947 H   0  0  0  0  0  0  0  0  0  0  0  0
   46.2739    3.1379   13.1475 H   0  0  0  0  0  0  0  0  0  0  0  0
   41.2164   10.3259    9.6790 H   0  0  0  0  0  0  0  0  0  0  0  0
   41.7396   11.9253    9.7941 H   0  0  0  0  0  0  0  0  0  0  0  0
   48.5078    5.6020   14.5901 H   0  0  0  0  0  0  0  0  0  0  0  0
   43.9319   12.5161   10.6654 H   0  0  0  0  0  0  0  0  0  0  0  0
  2  1  2  0
  3  1  1  0
  4  3  2  0
  5  2  1  0
  6  2  1  0
  7  3  1  0
  8  4  1  0
  9  4  1  0
 10  5  1  0
 11  6  2  0
 12  7  2  0
 13 11  1  0
 14 12  1  0
 15 11  1  0
 16 12  1  0
  5  8  2  0
  9 16  2  0
 10 15  2  0
  6 17  1  0
  7 18  1  0
  8 19  1  0
  9 20  1  0
 10 21  1  0
 13 22  1  0
 13 23  1  0
 14 24  1  0
 14 25  1  0
 15 26  1  0
 16 27  1  0
M  END
> <Uni-Dock RESULT> 
ENERGY=   -3.907  LOWER_BOUND=    5.380  UPPER_BOUND=    6.952
INTER + INTRA:          -3.907
INTER:                  -3.907
INTRA:                   0.000
UNBOUND:                 0.000

$$$$
