
     RDKit          3D

 27 29  0  0  0  0  0  0  0  0999 V2000
   45.2936    4.4778    8.4294 N   0  0  0  0  0  0  0  0  0  0  0  0
   44.5525    4.3053    9.5394 C   0  0  0  0  0  0  0  0  0  0  0  0
   45.9127    3.4182    7.8773 C   0  0  0  0  0  0  0  0  0  0  0  0
   45.8181    2.1245    8.4202 C   0  0  0  0  0  0  0  0  0  0  0  0
   44.3949    3.0490   10.1511 C   0  0  0  0  0  0  0  0  0  0  0  0
   43.9109    5.3986   10.1100 C   0  0  0  0  0  0  0  0  0  0  0  0
   46.6801    3.5949    6.7317 C   0  0  0  0  0  0  0  0  0  0  0  0
   45.0438    1.9530    9.5727 C   0  0  0  0  0  0  0  0  0  0  0  0
   46.4972    1.0542    7.8170 C   0  0  0  0  0  0  0  0  0  0  0  0
   43.5968    2.9175   11.2984 C   0  0  0  0  0  0  0  0  0  0  0  0
   43.1603    5.2956   11.2868 C   0  0  0  0  0  0  0  0  0  0  0  0
   47.3150    2.5290    6.0843 C   0  0  0  0  0  0  0  0  0  0  0  0
   42.4369    6.3957   11.7634 N   0  0  0  0  0  0  0  0  0  0  0  0
   48.1708    2.7669    5.0018 N   0  0  0  0  0  0  0  0  0  0  0  0
   42.9679    4.0349   11.8470 C   0  0  0  0  0  0  0  0  0  0  0  0
   47.2576    1.2652    6.6671 C   0  0  0  0  0  0  0  0  0  0  0  0
   44.0103    6.3617    9.6160 H   0  0  0  0  0  0  0  0  0  0  0  0
   46.7755    4.6021    6.3338 H   0  0  0  0  0  0  0  0  0  0  0  0
   44.9461    0.9666   10.0193 H   0  0  0  0  0  0  0  0  0  0  0  0
   46.4499    0.0558    8.2447 H   0  0  0  0  0  0  0  0  0  0  0  0
   43.4492    1.9456   11.7629 H   0  0  0  0  0  0  0  0  0  0  0  0
   42.1972    6.3394   12.7482 H   0  0  0  0  0  0  0  0  0  0  0  0
   42.8438    7.2932   11.5164 H   0  0  0  0  0  0  0  0  0  0  0  0
   47.9348    3.5975    4.4665 H   0  0  0  0  0  0  0  0  0  0  0  0
   48.3249    1.9574    4.4090 H   0  0  0  0  0  0  0  0  0  0  0  0
   42.3271    3.9111   12.7159 H   0  0  0  0  0  0  0  0  0  0  0  0
   47.8039    0.4331    6.2308 H   0  0  0  0  0  0  0  0  0  0  0  0
  2  1  2  0
  3  1  1  0
  4  3  2  0
  5  2  1  0
  6  2  1  0
  7  3  1  0
  8  4  1  0
  9  4  1  0
 10  5  1  0
 11  6  2  0
 12  7  2  0
 13 11  1  0
 14 12  1  0
 15 11  1  0
 16 12  1  0
  5  8  2  0
  9 16  2  0
 10 15  2  0
  6 17  1  0
  7 18  1  0
  8 19  1  0
  9 20  1  0
 10 21  1  0
 13 22  1  0
 13 23  1  0
 14 24  1  0
 14 25  1  0
 15 26  1  0
 16 27  1  0
M  END
> <Uni-Dock RESULT> 
ENERGY=   -6.945  LOWER_BOUND=    0.000  UPPER_BOUND=    0.000
INTER + INTRA:          -6.945
INTER:                  -6.945
INTRA:                   0.000
UNBOUND:                 0.000

$$$$

     RDKit          3D

 27 29  0  0  0  0  0  0  0  0999 V2000
   44.8943    2.5143   10.0281 N   0  0  0  0  0  0  0  0  0  0  0  0
   44.4951    3.6576   10.6150 C   0  0  0  0  0  0  0  0  0  0  0  0
   45.5951    2.5705    8.8806 C   0  0  0  0  0  0  0  0  0  0  0  0
   45.9286    3.7883    8.2616 C   0  0  0  0  0  0  0  0  0  0  0  0
   44.7856    4.9225   10.0736 C   0  0  0  0  0  0  0  0  0  0  0  0
   43.7726    3.6014   11.8013 C   0  0  0  0  0  0  0  0  0  0  0  0
   46.0068    1.3903    8.2722 C   0  0  0  0  0  0  0  0  0  0  0  0
   45.5121    4.9724    8.8792 C   0  0  0  0  0  0  0  0  0  0  0  0
   46.6464    3.7938    7.0553 C   0  0  0  0  0  0  0  0  0  0  0  0
   44.3618    6.0870   10.7330 C   0  0  0  0  0  0  0  0  0  0  0  0
   43.2917    4.7501   12.4400 C   0  0  0  0  0  0  0  0  0  0  0  0
   46.7736    1.3797    7.1015 C   0  0  0  0  0  0  0  0  0  0  0  0
   42.6693    4.6564   13.6908 N   0  0  0  0  0  0  0  0  0  0  0  0
   47.0687    0.1707    6.4597 N   0  0  0  0  0  0  0  0  0  0  0  0
   43.6370    5.9958   11.9211 C   0  0  0  0  0  0  0  0  0  0  0  0
   47.0461    2.5918    6.4717 C   0  0  0  0  0  0  0  0  0  0  0  0
   43.5775    2.6227   12.2321 H   0  0  0  0  0  0  0  0  0  0  0  0
   45.7198    0.4509    8.7380 H   0  0  0  0  0  0  0  0  0  0  0  0
   45.7535    5.9327    8.4303 H   0  0  0  0  0  0  0  0  0  0  0  0
   46.8864    4.7298    6.5570 H   0  0  0  0  0  0  0  0  0  0  0  0
   44.6039    7.0692   10.3347 H   0  0  0  0  0  0  0  0  0  0  0  0
   42.0840    5.4524   13.9236 H   0  0  0  0  0  0  0  0  0  0  0  0
   42.1968    3.7711   13.8493 H   0  0  0  0  0  0  0  0  0  0  0  0
   47.1183   -0.6264    7.0877 H   0  0  0  0  0  0  0  0  0  0  0  0
   47.8658    0.2175    5.8328 H   0  0  0  0  0  0  0  0  0  0  0  0
   43.3446    6.9066   12.4366 H   0  0  0  0  0  0  0  0  0  0  0  0
   47.5725    2.6115    5.5211 H   0  0  0  0  0  0  0  0  0  0  0  0
  2  1  2  0
  3  1  1  0
  4  3  2  0
  5  2  1  0
  6  2  1  0
  7  3  1  0
  8  4  1  0
  9  4  1  0
 10  5  1  0
 11  6  2  0
 12  7  2  0
 13 11  1  0
 14 12  1  0
 15 11  1  0
 16 12  1  0
  5  8  2  0
  9 16  2  0
 10 15  2  0
  6 17  1  0
  7 18  1  0
  8 19  1  0
  9 20  1  0
 10 21  1  0
 13 22  1  0
 13 23  1  0
 14 24  1  0
 14 25  1  0
 15 26  1  0
 16 27  1  0
M  END
> <Uni-Dock RESULT> 
ENERGY=   -5.427  LOWER_BOUND=    1.427  UPPER_BOUND=    2.324
INTER + INTRA:          -5.427
INTER:                  -5.427
INTRA:                   0.000
UNBOUND:                 0.000

$$$$

     RDKit          3D

 27 29  0  0  0  0  0  0  0  0999 V2000
   43.3878    7.0475   11.1645 N   0  0  0  0  0  0  0  0  0  0  0  0
   44.0189    8.2174   11.3743 C   0  0  0  0  0  0  0  0  0  0  0  0
   43.9163    5.9137   11.6606 C   0  0  0  0  0  0  0  0  0  0  0  0
   45.1154    5.9009   12.3950 C   0  0  0  0  0  0  0  0  0  0  0  0
   45.2196    8.3048   12.1008 C   0  0  0  0  0  0  0  0  0  0  0  0
   43.4733    9.3899   10.8640 C   0  0  0  0  0  0  0  0  0  0  0  0
   43.2666    4.7040   11.4432 C   0  0  0  0  0  0  0  0  0  0  0  0
   45.7640    7.1215   12.6110 C   0  0  0  0  0  0  0  0  0  0  0  0
   45.6354    4.6894   12.8769 C   0  0  0  0  0  0  0  0  0  0  0  0
   45.8306    9.5516   12.3075 C   0  0  0  0  0  0  0  0  0  0  0  0
   44.1002   10.6326   11.0101 C   0  0  0  0  0  0  0  0  0  0  0  0
   43.7400    3.4955   11.9668 C   0  0  0  0  0  0  0  0  0  0  0  0
   43.4608   11.8025   10.5820 N   0  0  0  0  0  0  0  0  0  0  0  0
   43.1200    2.2864   11.6283 N   0  0  0  0  0  0  0  0  0  0  0  0
   45.2581   10.7091   11.7805 C   0  0  0  0  0  0  0  0  0  0  0  0
   44.9578    3.4931   12.6428 C   0  0  0  0  0  0  0  0  0  0  0  0
   42.5291    9.3212   10.3299 H   0  0  0  0  0  0  0  0  0  0  0  0
   42.3567    4.7150   10.8485 H   0  0  0  0  0  0  0  0  0  0  0  0
   46.6923    7.1504   13.1761 H   0  0  0  0  0  0  0  0  0  0  0  0
   46.5748    4.6675   13.4237 H   0  0  0  0  0  0  0  0  0  0  0  0
   46.7455    9.6313   12.8895 H   0  0  0  0  0  0  0  0  0  0  0  0
   44.0880   12.5859   10.4296 H   0  0  0  0  0  0  0  0  0  0  0  0
   42.8241   11.6612    9.8031 H   0  0  0  0  0  0  0  0  0  0  0  0
   42.1304    2.3773   11.4172 H   0  0  0  0  0  0  0  0  0  0  0  0
   43.3077    1.5283   12.2767 H   0  0  0  0  0  0  0  0  0  0  0  0
   45.7255   11.6703   11.9770 H   0  0  0  0  0  0  0  0  0  0  0  0
   45.3900    2.5598   12.9939 H   0  0  0  0  0  0  0  0  0  0  0  0
  2  1  2  0
  3  1  1  0
  4  3  2  0
  5  2  1  0
  6  2  1  0
  7  3  1  0
  8  4  1  0
  9  4  1  0
 10  5  1  0
 11  6  2  0
 12  7  2  0
 13 11  1  0
 14 12  1  0
 15 11  1  0
 16 12  1  0
  5  8  2  0
  9 16  2  0
 10 15  2  0
  6 17  1  0
  7 18  1  0
  8 19  1  0
  9 20  1  0
 10 21  1  0
 13 22  1  0
 13 23  1  0
 14 24  1  0
 14 25  1  0
 15 26  1  0
 16 27  1  0
M  END
> <Uni-Dock RESULT> 
ENERGY=   -4.458  LOWER_BOUND=    4.420  UPPER_BOUND=    6.003
INTER + INTRA:          -4.458
INTER:                  -4.458
INTRA:                   0.000
UNBOUND:                 0.000

$$$$

     RDKit          3D

 27 29  0  0  0  0  0  0  0  0999 V2000
   43.3879    7.0475   11.1645 N   0  0  0  0  0  0  0  0  0  0  0  0
   43.9164    5.9137   11.6605 C   0  0  0  0  0  0  0  0  0  0  0  0
   44.0190    8.2174   11.3743 C   0  0  0  0  0  0  0  0  0  0  0  0
   45.2197    8.3048   12.1009 C   0  0  0  0  0  0  0  0  0  0  0  0
   45.1154    5.9009   12.3950 C   0  0  0  0  0  0  0  0  0  0  0  0
   43.2666    4.7040   11.4432 C   0  0  0  0  0  0  0  0  0  0  0  0
   43.4735    9.3899   10.8640 C   0  0  0  0  0  0  0  0  0  0  0  0
   45.7640    7.1214   12.6111 C   0  0  0  0  0  0  0  0  0  0  0  0
   45.8307    9.5516   12.3076 C   0  0  0  0  0  0  0  0  0  0  0  0
   45.6354    4.6894   12.8769 C   0  0  0  0  0  0  0  0  0  0  0  0
   43.7399    3.4955   11.9668 C   0  0  0  0  0  0  0  0  0  0  0  0
   44.1003   10.6326   11.0102 C   0  0  0  0  0  0  0  0  0  0  0  0
   43.1200    2.2865   11.6283 N   0  0  0  0  0  0  0  0  0  0  0  0
   43.4610   11.8025   10.5820 N   0  0  0  0  0  0  0  0  0  0  0  0
   44.9578    3.4930   12.6428 C   0  0  0  0  0  0  0  0  0  0  0  0
   45.2582   10.7090   11.7806 C   0  0  0  0  0  0  0  0  0  0  0  0
   42.3568    4.7150   10.8485 H   0  0  0  0  0  0  0  0  0  0  0  0
   42.5292    9.3211   10.3299 H   0  0  0  0  0  0  0  0  0  0  0  0
   46.6923    7.1503   13.1763 H   0  0  0  0  0  0  0  0  0  0  0  0
   46.7456    9.6312   12.8896 H   0  0  0  0  0  0  0  0  0  0  0  0
   46.5748    4.6674   13.4238 H   0  0  0  0  0  0  0  0  0  0  0  0
   43.3076    1.5284   12.2768 H   0  0  0  0  0  0  0  0  0  0  0  0
   42.1304    2.3772   11.4172 H   0  0  0  0  0  0  0  0  0  0  0  0
   42.8243   11.6611    9.8030 H   0  0  0  0  0  0  0  0  0  0  0  0
   44.0882   12.5860   10.4297 H   0  0  0  0  0  0  0  0  0  0  0  0
   45.3900    2.5598   12.9940 H   0  0  0  0  0  0  0  0  0  0  0  0
   45.7256   11.6703   11.9771 H   0  0  0  0  0  0  0  0  0  0  0  0
  2  1  2  0
  3  1  1  0
  4  3  2  0
  5  2  1  0
  6  2  1  0
  7  3  1  0
  8  4  1  0
  9  4  1  0
 10  5  1  0
 11  6  2  0
 12  7  2  0
 13 11  1  0
 14 12  1  0
 15 11  1  0
 16 12  1  0
  5  8  2  0
  9 16  2  0
 10 15  2  0
  6 17  1  0
  7 18  1  0
  8 19  1  0
  9 20  1  0
 10 21  1  0
 13 22  1  0
 13 23  1  0
 14 24  1  0
 14 25  1  0
 15 26  1  0
 16 27  1  0
M  END
> <Uni-Dock RESULT> 
ENERGY=   -4.458  LOWER_BOUND=    4.420  UPPER_BOUND=    6.677
INTER + INTRA:          -4.458
INTER:                  -4.458
INTRA:                   0.000
UNBOUND:                 0.000

$$$$

     RDKit          3D

 27 29  0  0  0  0  0  0  0  0999 V2000
   46.7010    5.1923   13.1598 N   0  0  0  0  0  0  0  0  0  0  0  0
   47.1784    6.4361   13.3496 C   0  0  0  0  0  0  0  0  0  0  0  0
   45.4733    5.0291   12.6335 C   0  0  0  0  0  0  0  0  0  0  0  0
   44.6589    6.1171   12.2722 C   0  0  0  0  0  0  0  0  0  0  0  0
   46.4398    7.5847   13.0144 C   0  0  0  0  0  0  0  0  0  0  0  0
   48.4472    6.6063   13.8917 C   0  0  0  0  0  0  0  0  0  0  0  0
   44.9779    3.7450   12.4383 C   0  0  0  0  0  0  0  0  0  0  0  0
   45.1634    7.4069   12.4703 C   0  0  0  0  0  0  0  0  0  0  0  0
   43.3780    5.8951   11.7428 C   0  0  0  0  0  0  0  0  0  0  0  0
   46.9889    8.8608   13.2156 C   0  0  0  0  0  0  0  0  0  0  0  0
   48.9857    7.8713   14.1536 C   0  0  0  0  0  0  0  0  0  0  0  0
   43.7276    3.5053   11.8572 C   0  0  0  0  0  0  0  0  0  0  0  0
   50.3094    8.0001   14.5915 N   0  0  0  0  0  0  0  0  0  0  0  0
   43.2187    2.2028   11.7847 N   0  0  0  0  0  0  0  0  0  0  0  0
   48.2644    8.9971   13.7631 C   0  0  0  0  0  0  0  0  0  0  0  0
   42.9115    4.5938   11.5581 C   0  0  0  0  0  0  0  0  0  0  0  0
   49.0265    5.7153   14.1201 H   0  0  0  0  0  0  0  0  0  0  0  0
   45.5986    2.9079   12.7480 H   0  0  0  0  0  0  0  0  0  0  0  0
   44.5627    8.2720   12.2009 H   0  0  0  0  0  0  0  0  0  0  0  0
   42.7321    6.7306   11.4845 H   0  0  0  0  0  0  0  0  0  0  0  0
   46.4349    9.7535   12.9358 H   0  0  0  0  0  0  0  0  0  0  0  0
   50.5100    8.8823   15.0519 H   0  0  0  0  0  0  0  0  0  0  0  0
   50.6457    7.2026   15.1234 H   0  0  0  0  0  0  0  0  0  0  0  0
   43.9350    1.4848   11.7248 H   0  0  0  0  0  0  0  0  0  0  0  0
   42.4908    2.0800   11.0879 H   0  0  0  0  0  0  0  0  0  0  0  0
   48.6885    9.9906   13.8821 H   0  0  0  0  0  0  0  0  0  0  0  0
   41.9052    4.4386   11.1781 H   0  0  0  0  0  0  0  0  0  0  0  0
  2  1  2  0
  3  1  1  0
  4  3  2  0
  5  2  1  0
  6  2  1  0
  7  3  1  0
  8  4  1  0
  9  4  1  0
 10  5  1  0
 11  6  2  0
 12  7  2  0
 13 11  1  0
 14 12  1  0
 15 11  1  0
 16 12  1  0
  5  8  2  0
  9 16  2  0
 10 15  2  0
  6 17  1  0
  7 18  1  0
  8 19  1  0
  9 20  1  0
 10 21  1  0
 13 22  1  0
 13 23  1  0
 14 24  1  0
 14 25  1  0
 15 26  1  0
 16 27  1  0
M  END
> <Uni-Dock RESULT> 
ENERGY=   -4.357  LOWER_BOUND=    4.613  UPPER_BOUND=    6.614
INTER + INTRA:          -4.357
INTER:                  -4.357
INTRA:                   0.000
UNBOUND:                 0.000

$$$$

     RDKit          3D

 27 29  0  0  0  0  0  0  0  0999 V2000
   46.7012    5.1923   13.1597 N   0  0  0  0  0  0  0  0  0  0  0  0
   45.4734    5.0292   12.6334 C   0  0  0  0  0  0  0  0  0  0  0  0
   47.1785    6.4361   13.3495 C   0  0  0  0  0  0  0  0  0  0  0  0
   46.4398    7.5848   13.0143 C   0  0  0  0  0  0  0  0  0  0  0  0
   44.6590    6.1171   12.2721 C   0  0  0  0  0  0  0  0  0  0  0  0
   44.9781    3.7449   12.4383 C   0  0  0  0  0  0  0  0  0  0  0  0
   48.4473    6.6065   13.8915 C   0  0  0  0  0  0  0  0  0  0  0  0
   45.1634    7.4068   12.4701 C   0  0  0  0  0  0  0  0  0  0  0  0
   46.9888    8.8609   13.2155 C   0  0  0  0  0  0  0  0  0  0  0  0
   43.3781    5.8950   11.7428 C   0  0  0  0  0  0  0  0  0  0  0  0
   43.7278    3.5052   11.8570 C   0  0  0  0  0  0  0  0  0  0  0  0
   48.9857    7.8714   14.1534 C   0  0  0  0  0  0  0  0  0  0  0  0
   43.2190    2.2027   11.7846 N   0  0  0  0  0  0  0  0  0  0  0  0
   50.3094    8.0003   14.5913 N   0  0  0  0  0  0  0  0  0  0  0  0
   42.9116    4.5937   11.5580 C   0  0  0  0  0  0  0  0  0  0  0  0
   48.2643    8.9972   13.7629 C   0  0  0  0  0  0  0  0  0  0  0  0
   45.5987    2.9079   12.7479 H   0  0  0  0  0  0  0  0  0  0  0  0
   49.0266    5.7154   14.1199 H   0  0  0  0  0  0  0  0  0  0  0  0
   44.5626    8.2719   12.2007 H   0  0  0  0  0  0  0  0  0  0  0  0
   46.4347    9.7535   12.9356 H   0  0  0  0  0  0  0  0  0  0  0  0
   42.7321    6.7305   11.4844 H   0  0  0  0  0  0  0  0  0  0  0  0
   42.4911    2.0799   11.0878 H   0  0  0  0  0  0  0  0  0  0  0  0
   43.9351    1.4846   11.7247 H   0  0  0  0  0  0  0  0  0  0  0  0
   50.6457    7.2027   15.1232 H   0  0  0  0  0  0  0  0  0  0  0  0
   50.5100    8.8826   15.0516 H   0  0  0  0  0  0  0  0  0  0  0  0
   41.9053    4.4385   11.1780 H   0  0  0  0  0  0  0  0  0  0  0  0
   48.6885    9.9907   13.8819 H   0  0  0  0  0  0  0  0  0  0  0  0
  2  1  2  0
  3  1  1  0
  4  3  2  0
  5  2  1  0
  6  2  1  0
  7  3  1  0
  8  4  1  0
  9  4  1  0
 10  5  1  0
 11  6  2  0
 12  7  2  0
 13 11  1  0
 14 12  1  0
 15 11  1  0
 16 12  1  0
  5  8  2  0
  9 16  2  0
 10 15  2  0
  6 17  1  0
  7 18  1  0
  8 19  1  0
  9 20  1  0
 10 21  1  0
 13 22  1  0
 13 23  1  0
 14 24  1  0
 14 25  1  0
 15 26  1  0
 16 27  1  0
M  END
> <Uni-Dock RESULT> 
ENERGY=   -4.357  LOWER_BOUND=    4.613  UPPER_BOUND=    6.643
INTER + INTRA:          -4.357
INTER:                  -4.357
INTRA:                   0.000
UNBOUND:                 0.000

$$$$

     RDKit          3D

 27 29  0  0  0  0  0  0  0  0999 V2000
   51.2171    4.0494   18.7668 N   0  0  0  0  0  0  0  0  0  0  0  0
   52.0877    3.0759   18.4423 C   0  0  0  0  0  0  0  0  0  0  0  0
   49.9459    3.9705   18.3324 C   0  0  0  0  0  0  0  0  0  0  0  0
   49.4858    2.9021   17.5423 C   0  0  0  0  0  0  0  0  0  0  0  0
   51.7187    1.9662   17.6614 C   0  0  0  0  0  0  0  0  0  0  0  0
   53.4009    3.1550   18.8918 C   0  0  0  0  0  0  0  0  0  0  0  0
   49.0457    4.9762   18.6652 C   0  0  0  0  0  0  0  0  0  0  0  0
   50.3962    1.8928   17.2114 C   0  0  0  0  0  0  0  0  0  0  0  0
   48.1542    2.8741   17.0991 C   0  0  0  0  0  0  0  0  0  0  0  0
   52.6596    0.9677   17.3644 C   0  0  0  0  0  0  0  0  0  0  0  0
   54.3660    2.1989   18.5555 C   0  0  0  0  0  0  0  0  0  0  0  0
   47.7006    4.9339   18.2814 C   0  0  0  0  0  0  0  0  0  0  0  0
   55.6450    2.2544   19.1226 N   0  0  0  0  0  0  0  0  0  0  0  0
   46.8566    6.0212   18.5386 N   0  0  0  0  0  0  0  0  0  0  0  0
   53.9698    1.0781   17.8295 C   0  0  0  0  0  0  0  0  0  0  0  0
   47.2759    3.8983   17.4522 C   0  0  0  0  0  0  0  0  0  0  0  0
   53.6732    3.9985   19.5209 H   0  0  0  0  0  0  0  0  0  0  0  0
   49.4141    5.8155   19.2498 H   0  0  0  0  0  0  0  0  0  0  0  0
   50.0755    1.0503   16.6038 H   0  0  0  0  0  0  0  0  0  0  0  0
   47.7970    2.0649   16.4670 H   0  0  0  0  0  0  0  0  0  0  0  0
   52.3762    0.0940   16.7827 H   0  0  0  0  0  0  0  0  0  0  0  0
   56.3521    1.7451   18.6021 H   0  0  0  0  0  0  0  0  0  0  0  0
   55.9466    3.1939   19.3647 H   0  0  0  0  0  0  0  0  0  0  0  0
   47.1170    6.5577   19.3610 H   0  0  0  0  0  0  0  0  0  0  0  0
   45.8680    5.7911   18.5257 H   0  0  0  0  0  0  0  0  0  0  0  0
   54.6776    0.2808   17.6188 H   0  0  0  0  0  0  0  0  0  0  0  0
   46.2572    3.8792   17.0741 H   0  0  0  0  0  0  0  0  0  0  0  0
  2  1  2  0
  3  1  1  0
  4  3  2  0
  5  2  1  0
  6  2  1  0
  7  3  1  0
  8  4  1  0
  9  4  1  0
 10  5  1  0
 11  6  2  0
 12  7  2  0
 13 11  1  0
 14 12  1  0
 15 11  1  0
 16 12  1  0
  5  8  2  0
  9 16  2  0
 10 15  2  0
  6 17  1  0
  7 18  1  0
  8 19  1  0
  9 20  1  0
 10 21  1  0
 13 22  1  0
 13 23  1  0
 14 24  1  0
 14 25  1  0
 15 26  1  0
 16 27  1  0
M  END
> <Uni-Dock RESULT> 
ENERGY=   -4.042  LOWER_BOUND=   10.440  UPPER_BOUND=   12.018
INTER + INTRA:          -4.042
INTER:                  -4.042
INTRA:                   0.000
UNBOUND:                 0.000

$$$$

     RDKit          3D

 27 29  0  0  0  0  0  0  0  0999 V2000
   44.4535    7.8899   12.0943 N   0  0  0  0  0  0  0  0  0  0  0  0
   44.9126    6.6854   12.4809 C   0  0  0  0  0  0  0  0  0  0  0  0
   45.2851    8.9479   12.1040 C   0  0  0  0  0  0  0  0  0  0  0  0
   46.6279    8.8458   12.5087 C   0  0  0  0  0  0  0  0  0  0  0  0
   46.2407    6.4845   12.8968 C   0  0  0  0  0  0  0  0  0  0  0  0
   44.0554    5.5910   12.4697 C   0  0  0  0  0  0  0  0  0  0  0  0
   44.8120   10.1932   11.7066 C   0  0  0  0  0  0  0  0  0  0  0  0
   47.0982    7.5897   12.9067 C   0  0  0  0  0  0  0  0  0  0  0  0
   47.4510    9.9828   12.5179 C   0  0  0  0  0  0  0  0  0  0  0  0
   46.6764    5.2046   13.2743 C   0  0  0  0  0  0  0  0  0  0  0  0
   44.4572    4.3210   12.8991 C   0  0  0  0  0  0  0  0  0  0  0  0
   45.6345   11.3242   11.6534 C   0  0  0  0  0  0  0  0  0  0  0  0
   43.5986    3.2234   12.7632 N   0  0  0  0  0  0  0  0  0  0  0  0
   45.0917   12.5809   11.3587 N   0  0  0  0  0  0  0  0  0  0  0  0
   45.7904    4.1277   13.2534 C   0  0  0  0  0  0  0  0  0  0  0  0
   46.9456   11.2175   12.1114 C   0  0  0  0  0  0  0  0  0  0  0  0
   43.0385    5.7450   12.1179 H   0  0  0  0  0  0  0  0  0  0  0  0
   43.7652   10.2733   11.4245 H   0  0  0  0  0  0  0  0  0  0  0  0
   48.1313    7.4725   13.2241 H   0  0  0  0  0  0  0  0  0  0  0  0
   48.4831    9.9177   12.8533 H   0  0  0  0  0  0  0  0  0  0  0  0
   47.7081    5.0355   13.5730 H   0  0  0  0  0  0  0  0  0  0  0  0
   43.8256    2.4415   13.3694 H   0  0  0  0  0  0  0  0  0  0  0  0
   42.6127    3.4660   12.7999 H   0  0  0  0  0  0  0  0  0  0  0  0
   44.2675   12.5436   10.7659 H   0  0  0  0  0  0  0  0  0  0  0  0
   45.7715   13.2599   11.0312 H   0  0  0  0  0  0  0  0  0  0  0  0
   46.1514    3.1371   13.5170 H   0  0  0  0  0  0  0  0  0  0  0  0
   47.5859   12.0946   12.1554 H   0  0  0  0  0  0  0  0  0  0  0  0
  2  1  2  0
  3  1  1  0
  4  3  2  0
  5  2  1  0
  6  2  1  0
  7  3  1  0
  8  4  1  0
  9  4  1  0
 10  5  1  0
 11  6  2  0
 12  7  2  0
 13 11  1  0
 14 12  1  0
 15 11  1  0
 16 12  1  0
  5  8  2  0
  9 16  2  0
 10 15  2  0
  6 17  1  0
  7 18  1  0
  8 19  1  0
  9 20  1  0
 10 21  1  0
 13 22  1  0
 13 23  1  0
 14 24  1  0
 14 25  1  0
 15 26  1  0
 16 27  1  0
M  END
> <Uni-Dock RESULT> 
ENERGY=   -4.011  LOWER_BOUND=    5.075  UPPER_BOUND=    7.220
INTER + INTRA:          -4.011
INTER:                  -4.011
INTRA:                   0.000
UNBOUND:                 0.000

$$$$
