
     RDKit          3D

 27 29  0  0  0  0  0  0  0  0999 V2000
   45.3301    4.4761    8.4392 N   0  0  0  0  0  0  0  0  0  0  0  0
   45.9490    3.4141    7.8913 C   0  0  0  0  0  0  0  0  0  0  0  0
   44.5700    4.3042    9.5363 C   0  0  0  0  0  0  0  0  0  0  0  0
   44.3961    3.0470   10.1417 C   0  0  0  0  0  0  0  0  0  0  0  0
   45.8306    2.1176    8.4226 C   0  0  0  0  0  0  0  0  0  0  0  0
   46.7333    3.5897    6.7570 C   0  0  0  0  0  0  0  0  0  0  0  0
   43.9313    5.4005   10.1044 C   0  0  0  0  0  0  0  0  0  0  0  0
   45.0407    1.9476    9.5646 C   0  0  0  0  0  0  0  0  0  0  0  0
   43.6069    2.9222   11.2958 C   0  0  0  0  0  0  0  0  0  0  0  0
   46.4821    1.0389    7.8042 C   0  0  0  0  0  0  0  0  0  0  0  0
   47.4369    2.5359    6.1630 C   0  0  0  0  0  0  0  0  0  0  0  0
   43.0936    5.2838   11.2195 C   0  0  0  0  0  0  0  0  0  0  0  0
   48.1211    2.7324    4.9572 N   0  0  0  0  0  0  0  0  0  0  0  0
   42.5629    6.4273   11.8288 N   0  0  0  0  0  0  0  0  0  0  0  0
   47.2629    1.2494    6.6680 C   0  0  0  0  0  0  0  0  0  0  0  0
   42.9782    4.0420   11.8399 C   0  0  0  0  0  0  0  0  0  0  0  0
   46.7965    4.5883    6.3319 H   0  0  0  0  0  0  0  0  0  0  0  0
   44.0938    6.3751    9.6513 H   0  0  0  0  0  0  0  0  0  0  0  0
   44.9276    0.9597   10.0044 H   0  0  0  0  0  0  0  0  0  0  0  0
   43.4878    1.9584   11.7846 H   0  0  0  0  0  0  0  0  0  0  0  0
   46.3753    0.0295    8.1937 H   0  0  0  0  0  0  0  0  0  0  0  0
   48.4536    3.6830    4.8238 H   0  0  0  0  0  0  0  0  0  0  0  0
   48.8422    2.0423    4.7722 H   0  0  0  0  0  0  0  0  0  0  0  0
   41.7425    6.2501   12.3997 H   0  0  0  0  0  0  0  0  0  0  0  0
   42.4284    7.2072   11.1920 H   0  0  0  0  0  0  0  0  0  0  0  0
   47.7341    0.3993    6.1818 H   0  0  0  0  0  0  0  0  0  0  0  0
   42.3974    3.9348   12.7521 H   0  0  0  0  0  0  0  0  0  0  0  0
  2  1  2  0
  3  1  1  0
  4  3  2  0
  5  2  1  0
  6  2  1  0
  7  3  1  0
  8  4  1  0
  9  4  1  0
 10  5  1  0
 11  6  2  0
 12  7  2  0
 13 11  1  0
 14 12  1  0
 15 11  1  0
 16 12  1  0
  5  8  2  0
  9 16  2  0
 10 15  2  0
  6 17  1  0
  7 18  1  0
  8 19  1  0
  9 20  1  0
 10 21  1  0
 13 22  1  0
 13 23  1  0
 14 24  1  0
 14 25  1  0
 15 26  1  0
 16 27  1  0
M  END
> <Uni-Dock RESULT> 
ENERGY=   -6.906  LOWER_BOUND=    0.000  UPPER_BOUND=    0.000
INTER + INTRA:          -6.906
INTER:                  -6.906
INTRA:                   0.000
UNBOUND:                 0.000

$$$$

     RDKit          3D

 27 29  0  0  0  0  0  0  0  0999 V2000
   44.9345    2.5294   10.0744 N   0  0  0  0  0  0  0  0  0  0  0  0
   45.5974    2.6257    8.9073 C   0  0  0  0  0  0  0  0  0  0  0  0
   44.5399    3.6512   10.7045 C   0  0  0  0  0  0  0  0  0  0  0  0
   44.7925    4.9337   10.1863 C   0  0  0  0  0  0  0  0  0  0  0  0
   45.9001    3.8641    8.3140 C   0  0  0  0  0  0  0  0  0  0  0  0
   46.0071    1.4680    8.2559 C   0  0  0  0  0  0  0  0  0  0  0  0
   43.8536    3.5534   11.9095 C   0  0  0  0  0  0  0  0  0  0  0  0
   45.4843    5.0255    8.9738 C   0  0  0  0  0  0  0  0  0  0  0  0
   44.3449    6.0734   10.8728 C   0  0  0  0  0  0  0  0  0  0  0  0
   46.6094    3.9126    7.1036 C   0  0  0  0  0  0  0  0  0  0  0  0
   46.6627    1.4967    7.0199 C   0  0  0  0  0  0  0  0  0  0  0  0
   43.4525    4.6803   12.6362 C   0  0  0  0  0  0  0  0  0  0  0  0
   47.1597    0.3159    6.4547 N   0  0  0  0  0  0  0  0  0  0  0  0
   42.6641    4.5382   13.7845 N   0  0  0  0  0  0  0  0  0  0  0  0
   47.0047    2.7322    6.4748 C   0  0  0  0  0  0  0  0  0  0  0  0
   43.6603    5.9406   12.0807 C   0  0  0  0  0  0  0  0  0  0  0  0
   45.7982    0.5143    8.7340 H   0  0  0  0  0  0  0  0  0  0  0  0
   43.6334    2.5593   12.2904 H   0  0  0  0  0  0  0  0  0  0  0  0
   45.6991    6.0007    8.5439 H   0  0  0  0  0  0  0  0  0  0  0  0
   44.5138    7.0675   10.4664 H   0  0  0  0  0  0  0  0  0  0  0  0
   46.8696    4.8663    6.6510 H   0  0  0  0  0  0  0  0  0  0  0  0
   46.6380   -0.5157    6.7156 H   0  0  0  0  0  0  0  0  0  0  0  0
   47.3216    0.3711    5.4541 H   0  0  0  0  0  0  0  0  0  0  0  0
   42.6909    5.3390   14.4077 H   0  0  0  0  0  0  0  0  0  0  0  0
   42.8096    3.6616   14.2768 H   0  0  0  0  0  0  0  0  0  0  0  0
   47.5815    2.7869    5.5554 H   0  0  0  0  0  0  0  0  0  0  0  0
   43.2917    6.8307   12.5834 H   0  0  0  0  0  0  0  0  0  0  0  0
  2  1  2  0
  3  1  1  0
  4  3  2  0
  5  2  1  0
  6  2  1  0
  7  3  1  0
  8  4  1  0
  9  4  1  0
 10  5  1  0
 11  6  2  0
 12  7  2  0
 13 11  1  0
 14 12  1  0
 15 11  1  0
 16 12  1  0
  5  8  2  0
  9 16  2  0
 10 15  2  0
  6 17  1  0
  7 18  1  0
  8 19  1  0
  9 20  1  0
 10 21  1  0
 13 22  1  0
 13 23  1  0
 14 24  1  0
 14 25  1  0
 15 26  1  0
 16 27  1  0
M  END
> <Uni-Dock RESULT> 
ENERGY=   -5.205  LOWER_BOUND=    1.449  UPPER_BOUND=    2.347
INTER + INTRA:          -5.205
INTER:                  -5.205
INTRA:                   0.000
UNBOUND:                 0.000

$$$$

     RDKit          3D

 27 29  0  0  0  0  0  0  0  0999 V2000
   43.4291    7.0196   11.1423 N   0  0  0  0  0  0  0  0  0  0  0  0
   44.0474    8.1911   11.3796 C   0  0  0  0  0  0  0  0  0  0  0  0
   43.9628    5.8817   11.6232 C   0  0  0  0  0  0  0  0  0  0  0  0
   45.1518    5.8668   12.3737 C   0  0  0  0  0  0  0  0  0  0  0  0
   45.2428    8.2754   12.1153 C   0  0  0  0  0  0  0  0  0  0  0  0
   43.4982    9.3673   10.8821 C   0  0  0  0  0  0  0  0  0  0  0  0
   43.3245    4.6708   11.3803 C   0  0  0  0  0  0  0  0  0  0  0  0
   45.7899    7.0884   12.6139 C   0  0  0  0  0  0  0  0  0  0  0  0
   45.6593    4.6551   12.8685 C   0  0  0  0  0  0  0  0  0  0  0  0
   45.8589    9.5198   12.3210 C   0  0  0  0  0  0  0  0  0  0  0  0
   44.0675   10.6218   11.1282 C   0  0  0  0  0  0  0  0  0  0  0  0
   43.8481    3.4480   11.8154 C   0  0  0  0  0  0  0  0  0  0  0  0
   43.5481   11.7677   10.5136 N   0  0  0  0  0  0  0  0  0  0  0  0
   43.1163    2.2658   11.6503 N   0  0  0  0  0  0  0  0  0  0  0  0
   45.2810   10.6815   11.8097 C   0  0  0  0  0  0  0  0  0  0  0  0
   44.9953    3.4572   12.6055 C   0  0  0  0  0  0  0  0  0  0  0  0
   42.5910    9.2936   10.2877 H   0  0  0  0  0  0  0  0  0  0  0  0
   42.3893    4.6908   10.8263 H   0  0  0  0  0  0  0  0  0  0  0  0
   46.7122    7.1152   13.1888 H   0  0  0  0  0  0  0  0  0  0  0  0
   46.5642    4.6377   13.4709 H   0  0  0  0  0  0  0  0  0  0  0  0
   46.7965    9.5909   12.8669 H   0  0  0  0  0  0  0  0  0  0  0  0
   42.5547   11.7098   10.3093 H   0  0  0  0  0  0  0  0  0  0  0  0
   43.7962   12.6358   10.9775 H   0  0  0  0  0  0  0  0  0  0  0  0
   43.6780    1.4212   11.6910 H   0  0  0  0  0  0  0  0  0  0  0  0
   42.4940    2.2766   10.8474 H   0  0  0  0  0  0  0  0  0  0  0  0
   45.7871   11.6329   11.9493 H   0  0  0  0  0  0  0  0  0  0  0  0
   45.3829    2.5318   13.0230 H   0  0  0  0  0  0  0  0  0  0  0  0
  2  1  2  0
  3  1  1  0
  4  3  2  0
  5  2  1  0
  6  2  1  0
  7  3  1  0
  8  4  1  0
  9  4  1  0
 10  5  1  0
 11  6  2  0
 12  7  2  0
 13 11  1  0
 14 12  1  0
 15 11  1  0
 16 12  1  0
  5  8  2  0
  9 16  2  0
 10 15  2  0
  6 17  1  0
  7 18  1  0
  8 19  1  0
  9 20  1  0
 10 21  1  0
 13 22  1  0
 13 23  1  0
 14 24  1  0
 14 25  1  0
 15 26  1  0
 16 27  1  0
M  END
> <Uni-Dock RESULT> 
ENERGY=   -4.439  LOWER_BOUND=    4.322  UPPER_BOUND=    6.670
INTER + INTRA:          -4.439
INTER:                  -4.439
INTRA:                   0.000
UNBOUND:                 0.000

$$$$

     RDKit          3D

 27 29  0  0  0  0  0  0  0  0999 V2000
   43.4327    7.0201   11.1426 N   0  0  0  0  0  0  0  0  0  0  0  0
   43.9655    5.8817   11.6233 C   0  0  0  0  0  0  0  0  0  0  0  0
   44.0518    8.1911   11.3802 C   0  0  0  0  0  0  0  0  0  0  0  0
   45.2471    8.2744   12.1162 C   0  0  0  0  0  0  0  0  0  0  0  0
   45.1543    5.8658   12.3741 C   0  0  0  0  0  0  0  0  0  0  0  0
   43.3263    4.6714   11.3802 C   0  0  0  0  0  0  0  0  0  0  0  0
   43.5035    9.3678   10.8829 C   0  0  0  0  0  0  0  0  0  0  0  0
   45.7933    7.0868   12.6147 C   0  0  0  0  0  0  0  0  0  0  0  0
   45.8641    9.5183   12.3222 C   0  0  0  0  0  0  0  0  0  0  0  0
   45.6609    4.6537   12.8687 C   0  0  0  0  0  0  0  0  0  0  0  0
   43.8489    3.4482   11.8152 C   0  0  0  0  0  0  0  0  0  0  0  0
   44.0737   10.6220   11.1294 C   0  0  0  0  0  0  0  0  0  0  0  0
   43.1163    2.2665   11.6497 N   0  0  0  0  0  0  0  0  0  0  0  0
   43.5553   11.7682   10.5148 N   0  0  0  0  0  0  0  0  0  0  0  0
   44.9960    3.4563   12.6055 C   0  0  0  0  0  0  0  0  0  0  0  0
   45.2871   10.6806   11.8110 C   0  0  0  0  0  0  0  0  0  0  0  0
   42.3913    4.6922   10.8261 H   0  0  0  0  0  0  0  0  0  0  0  0
   42.5964    9.2949   10.2883 H   0  0  0  0  0  0  0  0  0  0  0  0
   46.7155    7.1129   13.1897 H   0  0  0  0  0  0  0  0  0  0  0  0
   46.8016    9.5886   12.8683 H   0  0  0  0  0  0  0  0  0  0  0  0
   46.5656    4.6355   13.4714 H   0  0  0  0  0  0  0  0  0  0  0  0
   42.4942    2.2779   10.8467 H   0  0  0  0  0  0  0  0  0  0  0  0
   43.6774    1.4215   11.6904 H   0  0  0  0  0  0  0  0  0  0  0  0
   43.8038   12.6361   10.9790 H   0  0  0  0  0  0  0  0  0  0  0  0
   42.5619   11.7111   10.3103 H   0  0  0  0  0  0  0  0  0  0  0  0
   45.3828    2.5305   13.0229 H   0  0  0  0  0  0  0  0  0  0  0  0
   45.7939   11.6316   11.9509 H   0  0  0  0  0  0  0  0  0  0  0  0
  2  1  2  0
  3  1  1  0
  4  3  2  0
  5  2  1  0
  6  2  1  0
  7  3  1  0
  8  4  1  0
  9  4  1  0
 10  5  1  0
 11  6  2  0
 12  7  2  0
 13 11  1  0
 14 12  1  0
 15 11  1  0
 16 12  1  0
  5  8  2  0
  9 16  2  0
 10 15  2  0
  6 17  1  0
  7 18  1  0
  8 19  1  0
  9 20  1  0
 10 21  1  0
 13 22  1  0
 13 23  1  0
 14 24  1  0
 14 25  1  0
 15 26  1  0
 16 27  1  0
M  END
> <Uni-Dock RESULT> 
ENERGY=   -4.436  LOWER_BOUND=    4.322  UPPER_BOUND=    5.965
INTER + INTRA:          -4.436
INTER:                  -4.436
INTRA:                   0.000
UNBOUND:                 0.000

$$$$

     RDKit          3D

 27 29  0  0  0  0  0  0  0  0999 V2000
   46.6865    5.2070   13.1820 N   0  0  0  0  0  0  0  0  0  0  0  0
   45.4522    5.0505   12.6693 C   0  0  0  0  0  0  0  0  0  0  0  0
   47.1810    6.4477   13.3466 C   0  0  0  0  0  0  0  0  0  0  0  0
   46.4517    7.6000   13.0034 C   0  0  0  0  0  0  0  0  0  0  0  0
   44.6502    6.1422   12.2921 C   0  0  0  0  0  0  0  0  0  0  0  0
   44.9405    3.7694   12.4971 C   0  0  0  0  0  0  0  0  0  0  0  0
   48.4553    6.6112   13.8776 C   0  0  0  0  0  0  0  0  0  0  0  0
   45.1704    7.4288   12.4687 C   0  0  0  0  0  0  0  0  0  0  0  0
   47.0048    8.8734   13.2106 C   0  0  0  0  0  0  0  0  0  0  0  0
   43.3754    5.9263   11.7454 C   0  0  0  0  0  0  0  0  0  0  0  0
   43.6494    3.5385   12.0090 C   0  0  0  0  0  0  0  0  0  0  0  0
   49.0447    7.8708   14.0354 C   0  0  0  0  0  0  0  0  0  0  0  0
   43.2162    2.2339   11.7428 N   0  0  0  0  0  0  0  0  0  0  0  0
   50.2812    7.9979   14.6798 N   0  0  0  0  0  0  0  0  0  0  0  0
   42.8909    4.6282   11.5873 C   0  0  0  0  0  0  0  0  0  0  0  0
   48.2870    9.0027   13.7439 C   0  0  0  0  0  0  0  0  0  0  0  0
   45.5762    2.9281   12.7610 H   0  0  0  0  0  0  0  0  0  0  0  0
   49.0028    5.7188   14.1703 H   0  0  0  0  0  0  0  0  0  0  0  0
   44.5781    8.2968   12.1900 H   0  0  0  0  0  0  0  0  0  0  0  0
   46.4380    9.7698   12.9716 H   0  0  0  0  0  0  0  0  0  0  0  0
   42.7592    6.7638   11.4278 H   0  0  0  0  0  0  0  0  0  0  0  0
   43.6549    1.5281   12.3271 H   0  0  0  0  0  0  0  0  0  0  0  0
   42.2070    2.1312   11.7064 H   0  0  0  0  0  0  0  0  0  0  0  0
   50.7705    8.8625   14.4714 H   0  0  0  0  0  0  0  0  0  0  0  0
   50.8803    7.1831   14.5836 H   0  0  0  0  0  0  0  0  0  0  0  0
   41.9158    4.4764   11.1324 H   0  0  0  0  0  0  0  0  0  0  0  0
   48.6883    9.9956   13.9288 H   0  0  0  0  0  0  0  0  0  0  0  0
  2  1  2  0
  3  1  1  0
  4  3  2  0
  5  2  1  0
  6  2  1  0
  7  3  1  0
  8  4  1  0
  9  4  1  0
 10  5  1  0
 11  6  2  0
 12  7  2  0
 13 11  1  0
 14 12  1  0
 15 11  1  0
 16 12  1  0
  5  8  2  0
  9 16  2  0
 10 15  2  0
  6 17  1  0
  7 18  1  0
  8 19  1  0
  9 20  1  0
 10 21  1  0
 13 22  1  0
 13 23  1  0
 14 24  1  0
 14 25  1  0
 15 26  1  0
 16 27  1  0
M  END
> <Uni-Dock RESULT> 
ENERGY=   -4.379  LOWER_BOUND=    4.606  UPPER_BOUND=    6.633
INTER + INTRA:          -4.379
INTER:                  -4.379
INTRA:                   0.000
UNBOUND:                 0.000

$$$$

     RDKit          3D

 27 29  0  0  0  0  0  0  0  0999 V2000
   46.6866    5.2071   13.1820 N   0  0  0  0  0  0  0  0  0  0  0  0
   47.1811    6.4478   13.3467 C   0  0  0  0  0  0  0  0  0  0  0  0
   45.4522    5.0506   12.6693 C   0  0  0  0  0  0  0  0  0  0  0  0
   44.6502    6.1423   12.2921 C   0  0  0  0  0  0  0  0  0  0  0  0
   46.4518    7.6000   13.0034 C   0  0  0  0  0  0  0  0  0  0  0  0
   48.4554    6.6113   13.8777 C   0  0  0  0  0  0  0  0  0  0  0  0
   44.9405    3.7695   12.4972 C   0  0  0  0  0  0  0  0  0  0  0  0
   45.1704    7.4289   12.4687 C   0  0  0  0  0  0  0  0  0  0  0  0
   43.3755    5.9264   11.7454 C   0  0  0  0  0  0  0  0  0  0  0  0
   47.0049    8.8735   13.2105 C   0  0  0  0  0  0  0  0  0  0  0  0
   49.0446    7.8708   14.0356 C   0  0  0  0  0  0  0  0  0  0  0  0
   43.6493    3.5385   12.0091 C   0  0  0  0  0  0  0  0  0  0  0  0
   50.2812    7.9980   14.6799 N   0  0  0  0  0  0  0  0  0  0  0  0
   43.2163    2.2339   11.7428 N   0  0  0  0  0  0  0  0  0  0  0  0
   48.2870    9.0028   13.7439 C   0  0  0  0  0  0  0  0  0  0  0  0
   42.8910    4.6281   11.5873 C   0  0  0  0  0  0  0  0  0  0  0  0
   49.0027    5.7188   14.1705 H   0  0  0  0  0  0  0  0  0  0  0  0
   45.5762    2.9281   12.7611 H   0  0  0  0  0  0  0  0  0  0  0  0
   44.5781    8.2969   12.1899 H   0  0  0  0  0  0  0  0  0  0  0  0
   42.7593    6.7638   11.4277 H   0  0  0  0  0  0  0  0  0  0  0  0
   46.4380    9.7699   12.9715 H   0  0  0  0  0  0  0  0  0  0  0  0
   50.8802    7.1832   14.5837 H   0  0  0  0  0  0  0  0  0  0  0  0
   50.7705    8.8626   14.4716 H   0  0  0  0  0  0  0  0  0  0  0  0
   42.2070    2.1312   11.7065 H   0  0  0  0  0  0  0  0  0  0  0  0
   43.6548    1.5281   12.3272 H   0  0  0  0  0  0  0  0  0  0  0  0
   48.6882    9.9957   13.9288 H   0  0  0  0  0  0  0  0  0  0  0  0
   41.9158    4.4764   11.1324 H   0  0  0  0  0  0  0  0  0  0  0  0
  2  1  2  0
  3  1  1  0
  4  3  2  0
  5  2  1  0
  6  2  1  0
  7  3  1  0
  8  4  1  0
  9  4  1  0
 10  5  1  0
 11  6  2  0
 12  7  2  0
 13 11  1  0
 14 12  1  0
 15 11  1  0
 16 12  1  0
  5  8  2  0
  9 16  2  0
 10 15  2  0
  6 17  1  0
  7 18  1  0
  8 19  1  0
  9 20  1  0
 10 21  1  0
 13 22  1  0
 13 23  1  0
 14 24  1  0
 14 25  1  0
 15 26  1  0
 16 27  1  0
M  END
> <Uni-Dock RESULT> 
ENERGY=   -4.379  LOWER_BOUND=    4.606  UPPER_BOUND=    6.646
INTER + INTRA:          -4.379
INTER:                  -4.379
INTRA:                   0.000
UNBOUND:                 0.000

$$$$

     RDKit          3D

 27 29  0  0  0  0  0  0  0  0999 V2000
   51.2089    4.0556   18.7522 N   0  0  0  0  0  0  0  0  0  0  0  0
   49.9440    3.9675   18.3016 C   0  0  0  0  0  0  0  0  0  0  0  0
   52.0873    3.0820   18.4495 C   0  0  0  0  0  0  0  0  0  0  0  0
   51.7343    1.9656   17.6710 C   0  0  0  0  0  0  0  0  0  0  0  0
   49.4970    2.8867   17.5209 C   0  0  0  0  0  0  0  0  0  0  0  0
   49.0349    4.9715   18.6148 C   0  0  0  0  0  0  0  0  0  0  0  0
   53.3949    3.1724   18.9129 C   0  0  0  0  0  0  0  0  0  0  0  0
   50.4167    1.8800   17.2084 C   0  0  0  0  0  0  0  0  0  0  0  0
   52.6918    0.9850   17.3678 C   0  0  0  0  0  0  0  0  0  0  0  0
   48.1624    2.8318   17.0893 C   0  0  0  0  0  0  0  0  0  0  0  0
   47.7173    4.9619   18.1433 C   0  0  0  0  0  0  0  0  0  0  0  0
   54.3458    2.1747   18.6698 C   0  0  0  0  0  0  0  0  0  0  0  0
   46.8036    5.9307   18.5760 N   0  0  0  0  0  0  0  0  0  0  0  0
   55.6792    2.3590   19.0551 N   0  0  0  0  0  0  0  0  0  0  0  0
   47.2759    3.8565   17.4195 C   0  0  0  0  0  0  0  0  0  0  0  0
   53.9951    1.1047   17.8498 C   0  0  0  0  0  0  0  0  0  0  0  0
   49.3768    5.7890   19.2444 H   0  0  0  0  0  0  0  0  0  0  0  0
   53.6712    4.0525   19.4881 H   0  0  0  0  0  0  0  0  0  0  0  0
   50.1073    1.0301   16.6053 H   0  0  0  0  0  0  0  0  0  0  0  0
   52.4338    0.1316   16.7455 H   0  0  0  0  0  0  0  0  0  0  0  0
   47.8022    1.9874   16.5068 H   0  0  0  0  0  0  0  0  0  0  0  0
   47.2318    6.8185   18.8216 H   0  0  0  0  0  0  0  0  0  0  0  0
   46.0008    6.0458   17.9655 H   0  0  0  0  0  0  0  0  0  0  0  0
   56.2103    1.4977   19.1362 H   0  0  0  0  0  0  0  0  0  0  0  0
   55.7932    2.9600   19.8661 H   0  0  0  0  0  0  0  0  0  0  0  0
   46.2380    3.7834   17.1058 H   0  0  0  0  0  0  0  0  0  0  0  0
   54.7330    0.3543   17.5792 H   0  0  0  0  0  0  0  0  0  0  0  0
  2  1  2  0
  3  1  1  0
  4  3  2  0
  5  2  1  0
  6  2  1  0
  7  3  1  0
  8  4  1  0
  9  4  1  0
 10  5  1  0
 11  6  2  0
 12  7  2  0
 13 11  1  0
 14 12  1  0
 15 11  1  0
 16 12  1  0
  5  8  2  0
  9 16  2  0
 10 15  2  0
  6 17  1  0
  7 18  1  0
  8 19  1  0
  9 20  1  0
 10 21  1  0
 13 22  1  0
 13 23  1  0
 14 24  1  0
 14 25  1  0
 15 26  1  0
 16 27  1  0
M  END
> <Uni-Dock RESULT> 
ENERGY=   -4.067  LOWER_BOUND=   10.419  UPPER_BOUND=   11.996
INTER + INTRA:          -4.067
INTER:                  -4.067
INTRA:                   0.000
UNBOUND:                 0.000

$$$$

     RDKit          3D

 27 29  0  0  0  0  0  0  0  0999 V2000
   51.2066    4.0528   18.7556 N   0  0  0  0  0  0  0  0  0  0  0  0
   52.0858    3.0800   18.4525 C   0  0  0  0  0  0  0  0  0  0  0  0
   49.9423    3.9650   18.3030 C   0  0  0  0  0  0  0  0  0  0  0  0
   49.4968    2.8854   17.5199 C   0  0  0  0  0  0  0  0  0  0  0  0
   51.7341    1.9647   17.6716 C   0  0  0  0  0  0  0  0  0  0  0  0
   53.3926    3.1700   18.9179 C   0  0  0  0  0  0  0  0  0  0  0  0
   49.0325    4.9682   18.6165 C   0  0  0  0  0  0  0  0  0  0  0  0
   50.4174    1.8795   17.2070 C   0  0  0  0  0  0  0  0  0  0  0  0
   48.1628    2.8308   17.0863 C   0  0  0  0  0  0  0  0  0  0  0  0
   52.6924    0.9849   17.3682 C   0  0  0  0  0  0  0  0  0  0  0  0
   54.3442    2.1731   18.6744 C   0  0  0  0  0  0  0  0  0  0  0  0
   47.7155    4.9591   18.1430 C   0  0  0  0  0  0  0  0  0  0  0  0
   55.6770    2.3571   19.0620 N   0  0  0  0  0  0  0  0  0  0  0  0
   46.8009    5.9268   18.5762 N   0  0  0  0  0  0  0  0  0  0  0  0
   53.9949    1.1043   17.8522 C   0  0  0  0  0  0  0  0  0  0  0  0
   47.2755    3.8548   17.4169 C   0  0  0  0  0  0  0  0  0  0  0  0
   53.6677    4.0493   19.4948 H   0  0  0  0  0  0  0  0  0  0  0  0
   49.3732    5.7849   19.2479 H   0  0  0  0  0  0  0  0  0  0  0  0
   50.1090    1.0305   16.6021 H   0  0  0  0  0  0  0  0  0  0  0  0
   47.8038    1.9873   16.5019 H   0  0  0  0  0  0  0  0  0  0  0  0
   52.4356    0.1325   16.7441 H   0  0  0  0  0  0  0  0  0  0  0  0
   55.7896    2.9568   19.8742 H   0  0  0  0  0  0  0  0  0  0  0  0
   56.2083    1.4958   19.1424 H   0  0  0  0  0  0  0  0  0  0  0  0
   45.9990    6.0428   17.9647 H   0  0  0  0  0  0  0  0  0  0  0  0
   47.2285    6.8144   18.8238 H   0  0  0  0  0  0  0  0  0  0  0  0
   54.7335    0.3546   17.5813 H   0  0  0  0  0  0  0  0  0  0  0  0
   46.2382    3.7818   17.1015 H   0  0  0  0  0  0  0  0  0  0  0  0
  2  1  2  0
  3  1  1  0
  4  3  2  0
  5  2  1  0
  6  2  1  0
  7  3  1  0
  8  4  1  0
  9  4  1  0
 10  5  1  0
 11  6  2  0
 12  7  2  0
 13 11  1  0
 14 12  1  0
 15 11  1  0
 16 12  1  0
  5  8  2  0
  9 16  2  0
 10 15  2  0
  6 17  1  0
  7 18  1  0
  8 19  1  0
  9 20  1  0
 10 21  1  0
 13 22  1  0
 13 23  1  0
 14 24  1  0
 14 25  1  0
 15 26  1  0
 16 27  1  0
M  END
> <Uni-Dock RESULT> 
ENERGY=   -4.067  LOWER_BOUND=   10.420  UPPER_BOUND=   11.106
INTER + INTRA:          -4.067
INTER:                  -4.067
INTRA:                   0.000
UNBOUND:                 0.000

$$$$

     RDKit          3D

 27 29  0  0  0  0  0  0  0  0999 V2000
   44.4943    7.9989   12.0778 N   0  0  0  0  0  0  0  0  0  0  0  0
   45.3231    9.0590   12.0856 C   0  0  0  0  0  0  0  0  0  0  0  0
   44.9529    6.7988   12.4783 C   0  0  0  0  0  0  0  0  0  0  0  0
   46.2766    6.6057   12.9119 C   0  0  0  0  0  0  0  0  0  0  0  0
   46.6642    8.9625   12.4974 C   0  0  0  0  0  0  0  0  0  0  0  0
   44.8514   10.2991   11.6706 C   0  0  0  0  0  0  0  0  0  0  0  0
   44.0975    5.7030   12.4722 C   0  0  0  0  0  0  0  0  0  0  0  0
   47.1327    7.7121   12.9148 C   0  0  0  0  0  0  0  0  0  0  0  0
   46.7024    5.3374   13.3367 C   0  0  0  0  0  0  0  0  0  0  0  0
   47.4941   10.0943   12.4711 C   0  0  0  0  0  0  0  0  0  0  0  0
   45.6483   11.4493   11.6943 C   0  0  0  0  0  0  0  0  0  0  0  0
   44.5220    4.4199   12.8361 C   0  0  0  0  0  0  0  0  0  0  0  0
   45.1707   12.6523   11.1603 N   0  0  0  0  0  0  0  0  0  0  0  0
   43.6014    3.3689   12.9265 N   0  0  0  0  0  0  0  0  0  0  0  0
   46.9892   11.3244   12.0506 C   0  0  0  0  0  0  0  0  0  0  0  0
   45.8194    4.2580   13.3168 C   0  0  0  0  0  0  0  0  0  0  0  0
   43.8231   10.3620   11.3237 H   0  0  0  0  0  0  0  0  0  0  0  0
   43.0670    5.8637   12.1659 H   0  0  0  0  0  0  0  0  0  0  0  0
   48.1634    7.6001   13.2418 H   0  0  0  0  0  0  0  0  0  0  0  0
   47.7167    5.1850   13.6973 H   0  0  0  0  0  0  0  0  0  0  0  0
   48.5388   10.0229   12.7637 H   0  0  0  0  0  0  0  0  0  0  0  0
   44.1611   12.7522   11.2111 H   0  0  0  0  0  0  0  0  0  0  0  0
   45.6570   13.4774   11.4966 H   0  0  0  0  0  0  0  0  0  0  0  0
   44.0199    2.4455   12.8771 H   0  0  0  0  0  0  0  0  0  0  0  0
   42.8053    3.4652   12.3028 H   0  0  0  0  0  0  0  0  0  0  0  0
   47.6527   12.1838   12.0046 H   0  0  0  0  0  0  0  0  0  0  0  0
   46.1546    3.2901   13.6796 H   0  0  0  0  0  0  0  0  0  0  0  0
  2  1  2  0
  3  1  1  0
  4  3  2  0
  5  2  1  0
  6  2  1  0
  7  3  1  0
  8  4  1  0
  9  4  1  0
 10  5  1  0
 11  6  2  0
 12  7  2  0
 13 11  1  0
 14 12  1  0
 15 11  1  0
 16 12  1  0
  5  8  2  0
  9 16  2  0
 10 15  2  0
  6 17  1  0
  7 18  1  0
  8 19  1  0
  9 20  1  0
 10 21  1  0
 13 22  1  0
 13 23  1  0
 14 24  1  0
 14 25  1  0
 15 26  1  0
 16 27  1  0
M  END
> <Uni-Dock RESULT> 
ENERGY=   -3.978  LOWER_BOUND=    5.114  UPPER_BOUND=    7.278
INTER + INTRA:          -3.978
INTER:                  -3.978
INTRA:                   0.000
UNBOUND:                 0.000

$$$$
