
     RDKit          3D

 27 29  0  0  0  0  0  0  0  0999 V2000
   45.3285    4.4761    8.4389 N   0  0  0  0  0  0  0  0  0  0  0  0
   45.9485    3.4151    7.8905 C   0  0  0  0  0  0  0  0  0  0  0  0
   44.5691    4.3028    9.5362 C   0  0  0  0  0  0  0  0  0  0  0  0
   44.3971    3.0453   10.1413 C   0  0  0  0  0  0  0  0  0  0  0  0
   45.8320    2.1183    8.4215 C   0  0  0  0  0  0  0  0  0  0  0  0
   46.7321    3.5919    6.7558 C   0  0  0  0  0  0  0  0  0  0  0  0
   43.9292    5.3982   10.1050 C   0  0  0  0  0  0  0  0  0  0  0  0
   45.0429    1.9468    9.5638 C   0  0  0  0  0  0  0  0  0  0  0  0
   43.6085    2.9191   11.2958 C   0  0  0  0  0  0  0  0  0  0  0  0
   46.4847    1.0405    7.8026 C   0  0  0  0  0  0  0  0  0  0  0  0
   47.4369    2.5392    6.1613 C   0  0  0  0  0  0  0  0  0  0  0  0
   43.0921    5.2801   11.2204 C   0  0  0  0  0  0  0  0  0  0  0  0
   48.1203    2.7369    4.9552 N   0  0  0  0  0  0  0  0  0  0  0  0
   42.5602    6.4227   11.8301 N   0  0  0  0  0  0  0  0  0  0  0  0
   47.2648    1.2523    6.6660 C   0  0  0  0  0  0  0  0  0  0  0  0
   42.9786    4.0378   11.8404 C   0  0  0  0  0  0  0  0  0  0  0  0
   46.7939    4.5906    6.3310 H   0  0  0  0  0  0  0  0  0  0  0  0
   44.0902    6.3731    9.6520 H   0  0  0  0  0  0  0  0  0  0  0  0
   44.9313    0.9588   10.0033 H   0  0  0  0  0  0  0  0  0  0  0  0
   43.4909    1.9550   11.7844 H   0  0  0  0  0  0  0  0  0  0  0  0
   46.3794    0.0309    8.1918 H   0  0  0  0  0  0  0  0  0  0  0  0
   48.4516    3.6879    4.8220 H   0  0  0  0  0  0  0  0  0  0  0  0
   48.8423    2.0478    4.7698 H   0  0  0  0  0  0  0  0  0  0  0  0
   42.4244    7.2027   11.1935 H   0  0  0  0  0  0  0  0  0  0  0  0
   41.7402    6.2444   12.4014 H   0  0  0  0  0  0  0  0  0  0  0  0
   47.7369    0.4030    6.1794 H   0  0  0  0  0  0  0  0  0  0  0  0
   42.3984    3.9298   12.7529 H   0  0  0  0  0  0  0  0  0  0  0  0
  2  1  2  0
  3  1  1  0
  4  3  2  0
  5  2  1  0
  6  2  1  0
  7  3  1  0
  8  4  1  0
  9  4  1  0
 10  5  1  0
 11  6  2  0
 12  7  2  0
 13 11  1  0
 14 12  1  0
 15 11  1  0
 16 12  1  0
  5  8  2  0
  9 16  2  0
 10 15  2  0
  6 17  1  0
  7 18  1  0
  8 19  1  0
  9 20  1  0
 10 21  1  0
 13 22  1  0
 13 23  1  0
 14 24  1  0
 14 25  1  0
 15 26  1  0
 16 27  1  0
M  END
> <Uni-Dock RESULT> 
ENERGY=   -6.899  LOWER_BOUND=    0.000  UPPER_BOUND=    0.000
INTER + INTRA:          -6.899
INTER:                  -6.899
INTRA:                   0.000
UNBOUND:                 0.000

$$$$

     RDKit          3D

 27 29  0  0  0  0  0  0  0  0999 V2000
   45.3302    4.4759    8.4387 N   0  0  0  0  0  0  0  0  0  0  0  0
   44.5704    4.3037    9.5360 C   0  0  0  0  0  0  0  0  0  0  0  0
   45.9494    3.4142    7.8908 C   0  0  0  0  0  0  0  0  0  0  0  0
   45.8317    2.1177    8.4222 C   0  0  0  0  0  0  0  0  0  0  0  0
   44.3973    3.0465   10.1415 C   0  0  0  0  0  0  0  0  0  0  0  0
   43.9314    5.3998   10.1043 C   0  0  0  0  0  0  0  0  0  0  0  0
   46.7333    3.5900    6.7562 C   0  0  0  0  0  0  0  0  0  0  0  0
   45.0421    1.9473    9.5645 C   0  0  0  0  0  0  0  0  0  0  0  0
   46.4834    1.0392    7.8038 C   0  0  0  0  0  0  0  0  0  0  0  0
   43.6083    2.9213   11.2958 C   0  0  0  0  0  0  0  0  0  0  0  0
   43.0940    5.2828   11.2195 C   0  0  0  0  0  0  0  0  0  0  0  0
   47.4373    2.5364    6.1621 C   0  0  0  0  0  0  0  0  0  0  0  0
   42.5630    6.4261   11.8289 N   0  0  0  0  0  0  0  0  0  0  0  0
   48.1210    2.7332    4.9562 N   0  0  0  0  0  0  0  0  0  0  0  0
   42.9794    4.0409   11.8400 C   0  0  0  0  0  0  0  0  0  0  0  0
   47.2640    1.2499    6.6673 C   0  0  0  0  0  0  0  0  0  0  0  0
   44.0934    6.3745    9.6510 H   0  0  0  0  0  0  0  0  0  0  0  0
   46.7961    4.5885    6.3311 H   0  0  0  0  0  0  0  0  0  0  0  0
   44.9296    0.9595   10.0042 H   0  0  0  0  0  0  0  0  0  0  0  0
   46.3772    0.0297    8.1933 H   0  0  0  0  0  0  0  0  0  0  0  0
   43.4897    1.9576   11.7848 H   0  0  0  0  0  0  0  0  0  0  0  0
   42.4279    7.2059   11.1920 H   0  0  0  0  0  0  0  0  0  0  0  0
   41.7427    6.2486   12.4001 H   0  0  0  0  0  0  0  0  0  0  0  0
   48.4532    3.6840    4.8226 H   0  0  0  0  0  0  0  0  0  0  0  0
   48.8425    2.0435    4.7711 H   0  0  0  0  0  0  0  0  0  0  0  0
   42.3988    3.9336   12.7524 H   0  0  0  0  0  0  0  0  0  0  0  0
   47.7354    0.4001    6.1810 H   0  0  0  0  0  0  0  0  0  0  0  0
  2  1  2  0
  3  1  1  0
  4  3  2  0
  5  2  1  0
  6  2  1  0
  7  3  1  0
  8  4  1  0
  9  4  1  0
 10  5  1  0
 11  6  2  0
 12  7  2  0
 13 11  1  0
 14 12  1  0
 15 11  1  0
 16 12  1  0
  5  8  2  0
  9 16  2  0
 10 15  2  0
  6 17  1  0
  7 18  1  0
  8 19  1  0
  9 20  1  0
 10 21  1  0
 13 22  1  0
 13 23  1  0
 14 24  1  0
 14 25  1  0
 15 26  1  0
 16 27  1  0
M  END
> <Uni-Dock RESULT> 
ENERGY=   -6.899  LOWER_BOUND=    0.003  UPPER_BOUND=    5.638
INTER + INTRA:          -6.899
INTER:                  -6.899
INTRA:                   0.000
UNBOUND:                 0.000

$$$$

     RDKit          3D

 27 29  0  0  0  0  0  0  0  0999 V2000
   43.4325    7.0193   11.1425 N   0  0  0  0  0  0  0  0  0  0  0  0
   43.9653    5.8808   11.6232 C   0  0  0  0  0  0  0  0  0  0  0  0
   44.0516    8.1901   11.3804 C   0  0  0  0  0  0  0  0  0  0  0  0
   45.2467    8.2734   12.1165 C   0  0  0  0  0  0  0  0  0  0  0  0
   45.1539    5.8649   12.3742 C   0  0  0  0  0  0  0  0  0  0  0  0
   43.3261    4.6704   11.3798 C   0  0  0  0  0  0  0  0  0  0  0  0
   43.5034    9.3670   10.8831 C   0  0  0  0  0  0  0  0  0  0  0  0
   45.7929    7.0858   12.6150 C   0  0  0  0  0  0  0  0  0  0  0  0
   45.8638    9.5173   12.3228 C   0  0  0  0  0  0  0  0  0  0  0  0
   45.6605    4.6527   12.8688 C   0  0  0  0  0  0  0  0  0  0  0  0
   43.8487    3.4472   11.8148 C   0  0  0  0  0  0  0  0  0  0  0  0
   44.0735   10.6211   11.1298 C   0  0  0  0  0  0  0  0  0  0  0  0
   43.1161    2.2655   11.6490 N   0  0  0  0  0  0  0  0  0  0  0  0
   43.5552   11.7674   10.5152 N   0  0  0  0  0  0  0  0  0  0  0  0
   44.9957    3.4553   12.6053 C   0  0  0  0  0  0  0  0  0  0  0  0
   45.2868   10.6796   11.8117 C   0  0  0  0  0  0  0  0  0  0  0  0
   42.3912    4.6914   10.8255 H   0  0  0  0  0  0  0  0  0  0  0  0
   42.5964    9.2941   10.2883 H   0  0  0  0  0  0  0  0  0  0  0  0
   46.7150    7.1119   13.1902 H   0  0  0  0  0  0  0  0  0  0  0  0
   46.8011    9.5876   12.8690 H   0  0  0  0  0  0  0  0  0  0  0  0
   46.5651    4.6344   13.4716 H   0  0  0  0  0  0  0  0  0  0  0  0
   42.4942    2.2771   10.8459 H   0  0  0  0  0  0  0  0  0  0  0  0
   43.6772    1.4205   11.6897 H   0  0  0  0  0  0  0  0  0  0  0  0
   42.5617   11.7103   10.3105 H   0  0  0  0  0  0  0  0  0  0  0  0
   43.8036   12.6353   10.9795 H   0  0  0  0  0  0  0  0  0  0  0  0
   45.3824    2.5294   13.0227 H   0  0  0  0  0  0  0  0  0  0  0  0
   45.7935   11.6307   11.9516 H   0  0  0  0  0  0  0  0  0  0  0  0
  2  1  2  0
  3  1  1  0
  4  3  2  0
  5  2  1  0
  6  2  1  0
  7  3  1  0
  8  4  1  0
  9  4  1  0
 10  5  1  0
 11  6  2  0
 12  7  2  0
 13 11  1  0
 14 12  1  0
 15 11  1  0
 16 12  1  0
  5  8  2  0
  9 16  2  0
 10 15  2  0
  6 17  1  0
  7 18  1  0
  8 19  1  0
  9 20  1  0
 10 21  1  0
 13 22  1  0
 13 23  1  0
 14 24  1  0
 14 25  1  0
 15 26  1  0
 16 27  1  0
M  END
> <Uni-Dock RESULT> 
ENERGY=   -4.437  LOWER_BOUND=    4.322  UPPER_BOUND=    5.966
INTER + INTRA:          -4.437
INTER:                  -4.437
INTRA:                   0.000
UNBOUND:                 0.000

$$$$

     RDKit          3D

 27 29  0  0  0  0  0  0  0  0999 V2000
   43.4327    7.0257   11.1410 N   0  0  0  0  0  0  0  0  0  0  0  0
   44.0522    8.1966   11.3779 C   0  0  0  0  0  0  0  0  0  0  0  0
   43.9656    5.8874   11.6218 C   0  0  0  0  0  0  0  0  0  0  0  0
   45.1549    5.8715   12.3718 C   0  0  0  0  0  0  0  0  0  0  0  0
   45.2479    8.2799   12.1131 C   0  0  0  0  0  0  0  0  0  0  0  0
   43.5039    9.3734   10.8805 C   0  0  0  0  0  0  0  0  0  0  0  0
   43.3260    4.6770   11.3794 C   0  0  0  0  0  0  0  0  0  0  0  0
   45.7942    7.0925   12.6116 C   0  0  0  0  0  0  0  0  0  0  0  0
   45.6615    4.6595   12.8666 C   0  0  0  0  0  0  0  0  0  0  0  0
   45.8654    9.5237   12.3185 C   0  0  0  0  0  0  0  0  0  0  0  0
   44.0745   10.6274   11.1263 C   0  0  0  0  0  0  0  0  0  0  0  0
   43.8487    3.4539   11.8145 C   0  0  0  0  0  0  0  0  0  0  0  0
   43.5559   11.7737   10.5116 N   0  0  0  0  0  0  0  0  0  0  0  0
   43.1158    2.2723   11.6497 N   0  0  0  0  0  0  0  0  0  0  0  0
   45.2883   10.6860   11.8072 C   0  0  0  0  0  0  0  0  0  0  0  0
   44.9963    3.4621   12.6041 C   0  0  0  0  0  0  0  0  0  0  0  0
   42.5964    9.3004   10.2865 H   0  0  0  0  0  0  0  0  0  0  0  0
   42.3907    4.6979   10.8258 H   0  0  0  0  0  0  0  0  0  0  0  0
   46.7168    7.1186   13.1862 H   0  0  0  0  0  0  0  0  0  0  0  0
   46.5666    4.6412   13.4687 H   0  0  0  0  0  0  0  0  0  0  0  0
   46.8032    9.5941   12.8639 H   0  0  0  0  0  0  0  0  0  0  0  0
   42.5624   11.7166   10.3078 H   0  0  0  0  0  0  0  0  0  0  0  0
   43.8049   12.6417   10.9754 H   0  0  0  0  0  0  0  0  0  0  0  0
   42.4931    2.2836   10.8471 H   0  0  0  0  0  0  0  0  0  0  0  0
   43.6767    1.4272   11.6903 H   0  0  0  0  0  0  0  0  0  0  0  0
   45.7954   11.6371   11.9464 H   0  0  0  0  0  0  0  0  0  0  0  0
   45.3831    2.5364   13.0215 H   0  0  0  0  0  0  0  0  0  0  0  0
  2  1  2  0
  3  1  1  0
  4  3  2  0
  5  2  1  0
  6  2  1  0
  7  3  1  0
  8  4  1  0
  9  4  1  0
 10  5  1  0
 11  6  2  0
 12  7  2  0
 13 11  1  0
 14 12  1  0
 15 11  1  0
 16 12  1  0
  5  8  2  0
  9 16  2  0
 10 15  2  0
  6 17  1  0
  7 18  1  0
  8 19  1  0
  9 20  1  0
 10 21  1  0
 13 22  1  0
 13 23  1  0
 14 24  1  0
 14 25  1  0
 15 26  1  0
 16 27  1  0
M  END
> <Uni-Dock RESULT> 
ENERGY=   -4.433  LOWER_BOUND=    4.323  UPPER_BOUND=    6.670
INTER + INTRA:          -4.433
INTER:                  -4.433
INTRA:                   0.000
UNBOUND:                 0.000

$$$$

     RDKit          3D

 27 29  0  0  0  0  0  0  0  0999 V2000
   46.6861    5.2070   13.1831 N   0  0  0  0  0  0  0  0  0  0  0  0
   47.1807    6.4477   13.3475 C   0  0  0  0  0  0  0  0  0  0  0  0
   45.4520    5.0507   12.6699 C   0  0  0  0  0  0  0  0  0  0  0  0
   44.6503    6.1423   12.2920 C   0  0  0  0  0  0  0  0  0  0  0  0
   46.4517    7.6000   13.0037 C   0  0  0  0  0  0  0  0  0  0  0  0
   48.4548    6.6112   13.8792 C   0  0  0  0  0  0  0  0  0  0  0  0
   44.9402    3.7696   12.4977 C   0  0  0  0  0  0  0  0  0  0  0  0
   45.1706    7.4289   12.4685 C   0  0  0  0  0  0  0  0  0  0  0  0
   43.3758    5.9265   11.7447 C   0  0  0  0  0  0  0  0  0  0  0  0
   47.0048    8.8735   13.2107 C   0  0  0  0  0  0  0  0  0  0  0  0
   49.0441    7.8707   14.0369 C   0  0  0  0  0  0  0  0  0  0  0  0
   43.6492    3.5386   12.0091 C   0  0  0  0  0  0  0  0  0  0  0  0
   50.2805    7.9979   14.6818 N   0  0  0  0  0  0  0  0  0  0  0  0
   43.2161    2.2340   11.7430 N   0  0  0  0  0  0  0  0  0  0  0  0
   48.2868    9.0027   13.7447 C   0  0  0  0  0  0  0  0  0  0  0  0
   42.8912    4.6283   11.5868 C   0  0  0  0  0  0  0  0  0  0  0  0
   49.0019    5.7188   14.1723 H   0  0  0  0  0  0  0  0  0  0  0  0
   45.5756    2.9282   12.7622 H   0  0  0  0  0  0  0  0  0  0  0  0
   44.5785    8.2969   12.1893 H   0  0  0  0  0  0  0  0  0  0  0  0
   42.7598    6.7639   11.4265 H   0  0  0  0  0  0  0  0  0  0  0  0
   46.4382    9.7699   12.9713 H   0  0  0  0  0  0  0  0  0  0  0  0
   50.8794    7.1830   14.5860 H   0  0  0  0  0  0  0  0  0  0  0  0
   50.7700    8.8625   14.4734 H   0  0  0  0  0  0  0  0  0  0  0  0
   43.6544    1.5283   12.3278 H   0  0  0  0  0  0  0  0  0  0  0  0
   42.2068    2.1314   11.7063 H   0  0  0  0  0  0  0  0  0  0  0  0
   48.6881    9.9956   13.9295 H   0  0  0  0  0  0  0  0  0  0  0  0
   41.9163    4.4765   11.1314 H   0  0  0  0  0  0  0  0  0  0  0  0
  2  1  2  0
  3  1  1  0
  4  3  2  0
  5  2  1  0
  6  2  1  0
  7  3  1  0
  8  4  1  0
  9  4  1  0
 10  5  1  0
 11  6  2  0
 12  7  2  0
 13 11  1  0
 14 12  1  0
 15 11  1  0
 16 12  1  0
  5  8  2  0
  9 16  2  0
 10 15  2  0
  6 17  1  0
  7 18  1  0
  8 19  1  0
  9 20  1  0
 10 21  1  0
 13 22  1  0
 13 23  1  0
 14 24  1  0
 14 25  1  0
 15 26  1  0
 16 27  1  0
M  END
> <Uni-Dock RESULT> 
ENERGY=   -4.379  LOWER_BOUND=    4.606  UPPER_BOUND=    6.646
INTER + INTRA:          -4.379
INTER:                  -4.379
INTRA:                   0.000
UNBOUND:                 0.000

$$$$

     RDKit          3D

 27 29  0  0  0  0  0  0  0  0999 V2000
   51.2077    4.0538   18.7523 N   0  0  0  0  0  0  0  0  0  0  0  0
   52.0862    3.0805   18.4488 C   0  0  0  0  0  0  0  0  0  0  0  0
   49.9428    3.9658   18.3017 C   0  0  0  0  0  0  0  0  0  0  0  0
   49.4958    2.8856   17.5202 C   0  0  0  0  0  0  0  0  0  0  0  0
   51.7332    1.9647   17.6694 C   0  0  0  0  0  0  0  0  0  0  0  0
   53.3939    3.1706   18.9121 C   0  0  0  0  0  0  0  0  0  0  0  0
   49.0335    4.9695   18.6157 C   0  0  0  0  0  0  0  0  0  0  0  0
   50.4157    1.8793   17.2068 C   0  0  0  0  0  0  0  0  0  0  0  0
   48.1612    2.8308   17.0887 C   0  0  0  0  0  0  0  0  0  0  0  0
   52.6908    0.9843   17.3653 C   0  0  0  0  0  0  0  0  0  0  0  0
   54.3448    2.1733   18.6681 C   0  0  0  0  0  0  0  0  0  0  0  0
   47.7158    4.9601   18.1443 C   0  0  0  0  0  0  0  0  0  0  0  0
   55.6783    2.3574   19.0534 N   0  0  0  0  0  0  0  0  0  0  0  0
   46.8022    5.9284   18.5780 N   0  0  0  0  0  0  0  0  0  0  0  0
   53.9941    1.1039   17.8472 C   0  0  0  0  0  0  0  0  0  0  0  0
   47.2746    3.8552   17.4197 C   0  0  0  0  0  0  0  0  0  0  0  0
   53.6700    4.0504   19.4878 H   0  0  0  0  0  0  0  0  0  0  0  0
   49.3754    5.7866   19.2459 H   0  0  0  0  0  0  0  0  0  0  0  0
   50.1063    1.0298   16.6031 H   0  0  0  0  0  0  0  0  0  0  0  0
   47.8011    1.9869   16.5056 H   0  0  0  0  0  0  0  0  0  0  0  0
   52.4330    0.1315   16.7424 H   0  0  0  0  0  0  0  0  0  0  0  0
   55.7922    2.9578   19.8649 H   0  0  0  0  0  0  0  0  0  0  0  0
   56.2095    1.4961   19.1338 H   0  0  0  0  0  0  0  0  0  0  0  0
   47.2303    6.8162   18.8242 H   0  0  0  0  0  0  0  0  0  0  0  0
   45.9993    6.0440   17.9676 H   0  0  0  0  0  0  0  0  0  0  0  0
   54.7322    0.3538   17.5759 H   0  0  0  0  0  0  0  0  0  0  0  0
   46.2367    3.7822   17.1061 H   0  0  0  0  0  0  0  0  0  0  0  0
  2  1  2  0
  3  1  1  0
  4  3  2  0
  5  2  1  0
  6  2  1  0
  7  3  1  0
  8  4  1  0
  9  4  1  0
 10  5  1  0
 11  6  2  0
 12  7  2  0
 13 11  1  0
 14 12  1  0
 15 11  1  0
 16 12  1  0
  5  8  2  0
  9 16  2  0
 10 15  2  0
  6 17  1  0
  7 18  1  0
  8 19  1  0
  9 20  1  0
 10 21  1  0
 13 22  1  0
 13 23  1  0
 14 24  1  0
 14 25  1  0
 15 26  1  0
 16 27  1  0
M  END
> <Uni-Dock RESULT> 
ENERGY=   -4.068  LOWER_BOUND=   10.417  UPPER_BOUND=   11.105
INTER + INTRA:          -4.068
INTER:                  -4.068
INTRA:                   0.000
UNBOUND:                 0.000

$$$$

     RDKit          3D

 27 29  0  0  0  0  0  0  0  0999 V2000
   51.2066    4.0527   18.7560 N   0  0  0  0  0  0  0  0  0  0  0  0
   49.9423    3.9650   18.3033 C   0  0  0  0  0  0  0  0  0  0  0  0
   52.0856    3.0799   18.4529 C   0  0  0  0  0  0  0  0  0  0  0  0
   51.7341    1.9647   17.6720 C   0  0  0  0  0  0  0  0  0  0  0  0
   49.4968    2.8855   17.5201 C   0  0  0  0  0  0  0  0  0  0  0  0
   49.0324    4.9683   18.6169 C   0  0  0  0  0  0  0  0  0  0  0  0
   53.3925    3.1698   18.9184 C   0  0  0  0  0  0  0  0  0  0  0  0
   50.4173    1.8796   17.2072 C   0  0  0  0  0  0  0  0  0  0  0  0
   52.6923    0.9848   17.3684 C   0  0  0  0  0  0  0  0  0  0  0  0
   48.1629    2.8309   17.0863 C   0  0  0  0  0  0  0  0  0  0  0  0
   47.7155    4.9591   18.1433 C   0  0  0  0  0  0  0  0  0  0  0  0
   54.3441    2.1728   18.6749 C   0  0  0  0  0  0  0  0  0  0  0  0
   46.8009    5.9269   18.5764 N   0  0  0  0  0  0  0  0  0  0  0  0
   55.6769    2.3567   19.0626 N   0  0  0  0  0  0  0  0  0  0  0  0
   47.2756    3.8549   17.4171 C   0  0  0  0  0  0  0  0  0  0  0  0
   53.9948    1.1041   17.8525 C   0  0  0  0  0  0  0  0  0  0  0  0
   49.3732    5.7847   19.2484 H   0  0  0  0  0  0  0  0  0  0  0  0
   53.6676    4.0490   19.4955 H   0  0  0  0  0  0  0  0  0  0  0  0
   50.1090    1.0306   16.6021 H   0  0  0  0  0  0  0  0  0  0  0  0
   52.4355    0.1325   16.7442 H   0  0  0  0  0  0  0  0  0  0  0  0
   47.8037    1.9875   16.5019 H   0  0  0  0  0  0  0  0  0  0  0  0
   47.2286    6.8144   18.8241 H   0  0  0  0  0  0  0  0  0  0  0  0
   45.9990    6.0429   17.9649 H   0  0  0  0  0  0  0  0  0  0  0  0
   55.7894    2.9565   19.8749 H   0  0  0  0  0  0  0  0  0  0  0  0
   56.2081    1.4954   19.1431 H   0  0  0  0  0  0  0  0  0  0  0  0
   46.2382    3.7820   17.1015 H   0  0  0  0  0  0  0  0  0  0  0  0
   54.7334    0.3545   17.5817 H   0  0  0  0  0  0  0  0  0  0  0  0
  2  1  2  0
  3  1  1  0
  4  3  2  0
  5  2  1  0
  6  2  1  0
  7  3  1  0
  8  4  1  0
  9  4  1  0
 10  5  1  0
 11  6  2  0
 12  7  2  0
 13 11  1  0
 14 12  1  0
 15 11  1  0
 16 12  1  0
  5  8  2  0
  9 16  2  0
 10 15  2  0
  6 17  1  0
  7 18  1  0
  8 19  1  0
  9 20  1  0
 10 21  1  0
 13 22  1  0
 13 23  1  0
 14 24  1  0
 14 25  1  0
 15 26  1  0
 16 27  1  0
M  END
> <Uni-Dock RESULT> 
ENERGY=   -4.067  LOWER_BOUND=   10.419  UPPER_BOUND=   11.997
INTER + INTRA:          -4.067
INTER:                  -4.067
INTRA:                   0.000
UNBOUND:                 0.000

$$$$

     RDKit          3D

 27 29  0  0  0  0  0  0  0  0999 V2000
   44.5058    8.0181   12.0748 N   0  0  0  0  0  0  0  0  0  0  0  0
   45.3376    9.0759   12.0837 C   0  0  0  0  0  0  0  0  0  0  0  0
   44.9603    6.8171   12.4773 C   0  0  0  0  0  0  0  0  0  0  0  0
   46.2824    6.6207   12.9138 C   0  0  0  0  0  0  0  0  0  0  0  0
   46.6775    8.9760   12.4984 C   0  0  0  0  0  0  0  0  0  0  0  0
   44.8702   10.3171   11.6666 C   0  0  0  0  0  0  0  0  0  0  0  0
   44.1019    5.7236   12.4704 C   0  0  0  0  0  0  0  0  0  0  0  0
   47.1416    7.7248   12.9177 C   0  0  0  0  0  0  0  0  0  0  0  0
   46.7040    5.3516   13.3406 C   0  0  0  0  0  0  0  0  0  0  0  0
   47.5106   10.1055   12.4729 C   0  0  0  0  0  0  0  0  0  0  0  0
   45.6702   11.4650   11.6911 C   0  0  0  0  0  0  0  0  0  0  0  0
   44.5220    4.4398   12.8361 C   0  0  0  0  0  0  0  0  0  0  0  0
   45.1971   12.6690   11.1550 N   0  0  0  0  0  0  0  0  0  0  0  0
   43.5983    3.3914   12.9255 N   0  0  0  0  0  0  0  0  0  0  0  0
   47.0100   11.3367   12.0503 C   0  0  0  0  0  0  0  0  0  0  0  0
   45.8180    4.2747   13.3197 C   0  0  0  0  0  0  0  0  0  0  0  0
   43.8428   10.3825   11.3175 H   0  0  0  0  0  0  0  0  0  0  0  0
   43.0724    5.8870   12.1617 H   0  0  0  0  0  0  0  0  0  0  0  0
   48.1714    7.6101   13.2470 H   0  0  0  0  0  0  0  0  0  0  0  0
   47.7170    5.1967   13.7035 H   0  0  0  0  0  0  0  0  0  0  0  0
   48.5544   10.0315   12.7677 H   0  0  0  0  0  0  0  0  0  0  0  0
   44.1877   12.7717   11.2037 H   0  0  0  0  0  0  0  0  0  0  0  0
   45.6850   13.4930   11.4918 H   0  0  0  0  0  0  0  0  0  0  0  0
   42.8038    3.4894   12.2999 H   0  0  0  0  0  0  0  0  0  0  0  0
   44.0144    2.4667   12.8777 H   0  0  0  0  0  0  0  0  0  0  0  0
   47.6760   12.1943   12.0050 H   0  0  0  0  0  0  0  0  0  0  0  0
   46.1496    3.3061   13.6841 H   0  0  0  0  0  0  0  0  0  0  0  0
  2  1  2  0
  3  1  1  0
  4  3  2  0
  5  2  1  0
  6  2  1  0
  7  3  1  0
  8  4  1  0
  9  4  1  0
 10  5  1  0
 11  6  2  0
 12  7  2  0
 13 11  1  0
 14 12  1  0
 15 11  1  0
 16 12  1  0
  5  8  2  0
  9 16  2  0
 10 15  2  0
  6 17  1  0
  7 18  1  0
  8 19  1  0
  9 20  1  0
 10 21  1  0
 13 22  1  0
 13 23  1  0
 14 24  1  0
 14 25  1  0
 15 26  1  0
 16 27  1  0
M  END
> <Uni-Dock RESULT> 
ENERGY=   -3.977  LOWER_BOUND=    5.121  UPPER_BOUND=    7.285
INTER + INTRA:          -3.977
INTER:                  -3.977
INTRA:                   0.000
UNBOUND:                 0.000

$$$$

     RDKit          3D

 27 29  0  0  0  0  0  0  0  0999 V2000
   44.4847    7.9911   12.0809 N   0  0  0  0  0  0  0  0  0  0  0  0
   44.9448    6.7907   12.4787 C   0  0  0  0  0  0  0  0  0  0  0  0
   45.3133    9.0514   12.0881 C   0  0  0  0  0  0  0  0  0  0  0  0
   46.6554    8.9548   12.4963 C   0  0  0  0  0  0  0  0  0  0  0  0
   46.2696    6.5974   12.9086 C   0  0  0  0  0  0  0  0  0  0  0  0
   44.0897    5.6945   12.4735 C   0  0  0  0  0  0  0  0  0  0  0  0
   44.8401   10.2920   11.6759 C   0  0  0  0  0  0  0  0  0  0  0  0
   47.1254    7.7040   12.9108 C   0  0  0  0  0  0  0  0  0  0  0  0
   47.4850   10.0869   12.4692 C   0  0  0  0  0  0  0  0  0  0  0  0
   46.6971    5.3287   13.3306 C   0  0  0  0  0  0  0  0  0  0  0  0
   44.5156    4.4112   12.8345 C   0  0  0  0  0  0  0  0  0  0  0  0
   45.6367   11.4424   11.6990 C   0  0  0  0  0  0  0  0  0  0  0  0
   43.5954    3.3597   12.9260 N   0  0  0  0  0  0  0  0  0  0  0  0
   45.1574   12.6459   11.1678 N   0  0  0  0  0  0  0  0  0  0  0  0
   45.8142    4.2491   13.3117 C   0  0  0  0  0  0  0  0  0  0  0  0
   46.9786   11.3174   12.0517 C   0  0  0  0  0  0  0  0  0  0  0  0
   43.0583    5.8554   12.1700 H   0  0  0  0  0  0  0  0  0  0  0  0
   43.8109   10.3551   11.3318 H   0  0  0  0  0  0  0  0  0  0  0  0
   48.1570    7.5919   13.2350 H   0  0  0  0  0  0  0  0  0  0  0  0
   48.5304   10.0154   12.7590 H   0  0  0  0  0  0  0  0  0  0  0  0
   47.7122    5.1760   13.6885 H   0  0  0  0  0  0  0  0  0  0  0  0
   42.7978    3.4567   12.3044 H   0  0  0  0  0  0  0  0  0  0  0  0
   44.0142    2.4364   12.8743 H   0  0  0  0  0  0  0  0  0  0  0  0
   44.1478   12.7455   11.2214 H   0  0  0  0  0  0  0  0  0  0  0  0
   45.6443   13.4708   11.5041 H   0  0  0  0  0  0  0  0  0  0  0  0
   46.1507    3.2807   13.6723 H   0  0  0  0  0  0  0  0  0  0  0  0
   47.6417   12.1771   12.0051 H   0  0  0  0  0  0  0  0  0  0  0  0
  2  1  2  0
  3  1  1  0
  4  3  2  0
  5  2  1  0
  6  2  1  0
  7  3  1  0
  8  4  1  0
  9  4  1  0
 10  5  1  0
 11  6  2  0
 12  7  2  0
 13 11  1  0
 14 12  1  0
 15 11  1  0
 16 12  1  0
  5  8  2  0
  9 16  2  0
 10 15  2  0
  6 17  1  0
  7 18  1  0
  8 19  1  0
  9 20  1  0
 10 21  1  0
 13 22  1  0
 13 23  1  0
 14 24  1  0
 14 25  1  0
 15 26  1  0
 16 27  1  0
M  END
> <Uni-Dock RESULT> 
ENERGY=   -3.975  LOWER_BOUND=    5.113  UPPER_BOUND=    6.928
INTER + INTRA:          -3.975
INTER:                  -3.975
INTRA:                   0.000
UNBOUND:                 0.000

$$$$
