
     RDKit          3D

 27 29  0  0  0  0  0  0  0  0999 V2000
   44.9387    2.5176   10.0558 N   0  0  0  0  0  0  0  0  0  0  0  0
   44.5448    3.6546   10.6585 C   0  0  0  0  0  0  0  0  0  0  0  0
   45.6170    2.5859    8.8955 C   0  0  0  0  0  0  0  0  0  0  0  0
   45.9301    3.8097    8.2779 C   0  0  0  0  0  0  0  0  0  0  0  0
   44.8117    4.9245   10.1170 C   0  0  0  0  0  0  0  0  0  0  0  0
   43.8449    3.5859   11.8577 C   0  0  0  0  0  0  0  0  0  0  0  0
   46.0256    1.4124    8.2720 C   0  0  0  0  0  0  0  0  0  0  0  0
   45.5144    4.9869    8.9090 C   0  0  0  0  0  0  0  0  0  0  0  0
   46.6250    3.8277    7.0583 C   0  0  0  0  0  0  0  0  0  0  0  0
   44.3645    6.0809   10.7753 C   0  0  0  0  0  0  0  0  0  0  0  0
   43.4440    4.7300   12.5570 C   0  0  0  0  0  0  0  0  0  0  0  0
   46.7706    1.4143    7.0872 C   0  0  0  0  0  0  0  0  0  0  0  0
   42.6425    4.6168   13.6993 N   0  0  0  0  0  0  0  0  0  0  0  0
   47.0620    0.2116    6.4324 N   0  0  0  0  0  0  0  0  0  0  0  0
   43.6665    5.9774   11.9783 C   0  0  0  0  0  0  0  0  0  0  0  0
   47.0227    2.6323    6.4600 C   0  0  0  0  0  0  0  0  0  0  0  0
   43.6131    2.6012   12.2557 H   0  0  0  0  0  0  0  0  0  0  0  0
   45.7533    0.4681    8.7367 H   0  0  0  0  0  0  0  0  0  0  0  0
   45.7333    5.9514    8.4575 H   0  0  0  0  0  0  0  0  0  0  0  0
   46.8479    4.7684    6.5609 H   0  0  0  0  0  0  0  0  0  0  0  0
   44.5434    7.0653   10.3501 H   0  0  0  0  0  0  0  0  0  0  0  0
   42.6670    5.4299   14.3064 H   0  0  0  0  0  0  0  0  0  0  0  0
   42.7745    3.7489   14.2105 H   0  0  0  0  0  0  0  0  0  0  0  0
   47.8462    0.2675    5.7903 H   0  0  0  0  0  0  0  0  0  0  0  0
   47.1274   -0.5898    7.0532 H   0  0  0  0  0  0  0  0  0  0  0  0
   43.2984    6.8800   12.4587 H   0  0  0  0  0  0  0  0  0  0  0  0
   47.5305    2.6615    5.4998 H   0  0  0  0  0  0  0  0  0  0  0  0
  2  1  2  0
  3  1  1  0
  4  3  2  0
  5  2  1  0
  6  2  1  0
  7  3  1  0
  8  4  1  0
  9  4  1  0
 10  5  1  0
 11  6  2  0
 12  7  2  0
 13 11  1  0
 14 12  1  0
 15 11  1  0
 16 12  1  0
  5  8  2  0
  9 16  2  0
 10 15  2  0
  6 17  1  0
  7 18  1  0
  8 19  1  0
  9 20  1  0
 10 21  1  0
 13 22  1  0
 13 23  1  0
 14 24  1  0
 14 25  1  0
 15 26  1  0
 16 27  1  0
M  END
> <Uni-Dock RESULT> 
ENERGY=   -5.300  LOWER_BOUND=    0.000  UPPER_BOUND=    0.000
INTER + INTRA:          -5.300
INTER:                  -5.300
INTRA:                   0.000
UNBOUND:                 0.000

$$$$

     RDKit          3D

 27 29  0  0  0  0  0  0  0  0999 V2000
   43.4144    7.0578   11.1676 N   0  0  0  0  0  0  0  0  0  0  0  0
   44.0479    8.2246   11.3873 C   0  0  0  0  0  0  0  0  0  0  0  0
   43.9335    5.9204   11.6657 C   0  0  0  0  0  0  0  0  0  0  0  0
   45.1261    5.9005   12.4102 C   0  0  0  0  0  0  0  0  0  0  0  0
   45.2455    8.3041   12.1199 C   0  0  0  0  0  0  0  0  0  0  0  0
   43.5126    9.4006   10.8744 C   0  0  0  0  0  0  0  0  0  0  0  0
   43.2798    4.7142   11.4405 C   0  0  0  0  0  0  0  0  0  0  0  0
   45.7803    7.1170   12.6315 C   0  0  0  0  0  0  0  0  0  0  0  0
   45.6363    4.6855   12.8940 C   0  0  0  0  0  0  0  0  0  0  0  0
   45.8775    9.5435   12.3073 C   0  0  0  0  0  0  0  0  0  0  0  0
   44.0978   10.6514   11.1024 C   0  0  0  0  0  0  0  0  0  0  0  0
   43.7427    3.5024   11.9659 C   0  0  0  0  0  0  0  0  0  0  0  0
   43.5918   11.7949   10.4727 N   0  0  0  0  0  0  0  0  0  0  0  0
   43.1200    2.2971   11.6199 N   0  0  0  0  0  0  0  0  0  0  0  0
   45.3130   10.7052   11.7812 C   0  0  0  0  0  0  0  0  0  0  0  0
   44.9547    3.4929   12.6524 C   0  0  0  0  0  0  0  0  0  0  0  0
   42.6040    9.3299   10.2817 H   0  0  0  0  0  0  0  0  0  0  0  0
   42.3756    4.7306   10.8373 H   0  0  0  0  0  0  0  0  0  0  0  0
   46.7082    7.1394   13.1976 H   0  0  0  0  0  0  0  0  0  0  0  0
   46.5714    4.6579   13.4478 H   0  0  0  0  0  0  0  0  0  0  0  0
   46.8174    9.6103   12.8496 H   0  0  0  0  0  0  0  0  0  0  0  0
   43.8516   12.6666   10.9232 H   0  0  0  0  0  0  0  0  0  0  0  0
   42.5978   11.7467   10.2687 H   0  0  0  0  0  0  0  0  0  0  0  0
   43.2987    1.5363   12.2675 H   0  0  0  0  0  0  0  0  0  0  0  0
   42.1332    2.3923   11.3985 H   0  0  0  0  0  0  0  0  0  0  0  0
   45.8314   11.6521   11.9065 H   0  0  0  0  0  0  0  0  0  0  0  0
   45.3796    2.5569   13.0050 H   0  0  0  0  0  0  0  0  0  0  0  0
  2  1  2  0
  3  1  1  0
  4  3  2  0
  5  2  1  0
  6  2  1  0
  7  3  1  0
  8  4  1  0
  9  4  1  0
 10  5  1  0
 11  6  2  0
 12  7  2  0
 13 11  1  0
 14 12  1  0
 15 11  1  0
 16 12  1  0
  5  8  2  0
  9 16  2  0
 10 15  2  0
  6 17  1  0
  7 18  1  0
  8 19  1  0
  9 20  1  0
 10 21  1  0
 13 22  1  0
 13 23  1  0
 14 24  1  0
 14 25  1  0
 15 26  1  0
 16 27  1  0
M  END
> <Uni-Dock RESULT> 
ENERGY=   -4.463  LOWER_BOUND=    3.935  UPPER_BOUND=    5.548
INTER + INTRA:          -4.463
INTER:                  -4.463
INTRA:                   0.000
UNBOUND:                 0.000

$$$$

     RDKit          3D

 27 29  0  0  0  0  0  0  0  0999 V2000
   43.4058    7.0105   11.1389 N   0  0  0  0  0  0  0  0  0  0  0  0
   43.9478    5.8754   11.6175 C   0  0  0  0  0  0  0  0  0  0  0  0
   44.0227    8.1845   11.3672 C   0  0  0  0  0  0  0  0  0  0  0  0
   45.2210    8.2752   12.0974 C   0  0  0  0  0  0  0  0  0  0  0  0
   45.1428    5.8666   12.3585 C   0  0  0  0  0  0  0  0  0  0  0  0
   43.3124    4.6617   11.3817 C   0  0  0  0  0  0  0  0  0  0  0  0
   43.4648    9.3579   10.8727 C   0  0  0  0  0  0  0  0  0  0  0  0
   45.7763    7.0914   12.5943 C   0  0  0  0  0  0  0  0  0  0  0  0
   45.8170    9.5260   12.3235 C   0  0  0  0  0  0  0  0  0  0  0  0
   45.6592    4.6578   12.8511 C   0  0  0  0  0  0  0  0  0  0  0  0
   43.8446    3.4416   11.8143 C   0  0  0  0  0  0  0  0  0  0  0  0
   44.0769   10.6056   11.0378 C   0  0  0  0  0  0  0  0  0  0  0  0
   43.1164    2.2563   11.6569 N   0  0  0  0  0  0  0  0  0  0  0  0
   43.4250   11.7739   10.6253 N   0  0  0  0  0  0  0  0  0  0  0  0
   44.9982    3.4567   12.5949 C   0  0  0  0  0  0  0  0  0  0  0  0
   45.2326   10.6842   11.8115 C   0  0  0  0  0  0  0  0  0  0  0  0
   42.3723    4.6772   10.8361 H   0  0  0  0  0  0  0  0  0  0  0  0
   42.5218    9.2862   10.3365 H   0  0  0  0  0  0  0  0  0  0  0  0
   46.6988    7.1237   13.1687 H   0  0  0  0  0  0  0  0  0  0  0  0
   46.7292    9.6078   12.9094 H   0  0  0  0  0  0  0  0  0  0  0  0
   46.5682    4.6450   13.4473 H   0  0  0  0  0  0  0  0  0  0  0  0
   43.6810    1.4136   11.6950 H   0  0  0  0  0  0  0  0  0  0  0  0
   42.4859    2.2631   10.8605 H   0  0  0  0  0  0  0  0  0  0  0  0
   44.0427   12.5673   10.4861 H   0  0  0  0  0  0  0  0  0  0  0  0
   42.7899   11.6372    9.8444 H   0  0  0  0  0  0  0  0  0  0  0  0
   45.3926    2.5335   13.0110 H   0  0  0  0  0  0  0  0  0  0  0  0
   45.6881   11.6478   12.0231 H   0  0  0  0  0  0  0  0  0  0  0  0
  2  1  2  0
  3  1  1  0
  4  3  2  0
  5  2  1  0
  6  2  1  0
  7  3  1  0
  8  4  1  0
  9  4  1  0
 10  5  1  0
 11  6  2  0
 12  7  2  0
 13 11  1  0
 14 12  1  0
 15 11  1  0
 16 12  1  0
  5  8  2  0
  9 16  2  0
 10 15  2  0
  6 17  1  0
  7 18  1  0
  8 19  1  0
  9 20  1  0
 10 21  1  0
 13 22  1  0
 13 23  1  0
 14 24  1  0
 14 25  1  0
 15 26  1  0
 16 27  1  0
M  END
> <Uni-Dock RESULT> 
ENERGY=   -4.434  LOWER_BOUND=    3.853  UPPER_BOUND=    6.449
INTER + INTRA:          -4.434
INTER:                  -4.434
INTRA:                   0.000
UNBOUND:                 0.000

$$$$

     RDKit          3D

 27 29  0  0  0  0  0  0  0  0999 V2000
   46.6817    5.2120   13.1913 N   0  0  0  0  0  0  0  0  0  0  0  0
   45.4492    5.0547   12.6741 C   0  0  0  0  0  0  0  0  0  0  0  0
   47.1742    6.4531   13.3589 C   0  0  0  0  0  0  0  0  0  0  0  0
   46.4478    7.6046   13.0073 C   0  0  0  0  0  0  0  0  0  0  0  0
   44.6484    6.1459   12.2931 C   0  0  0  0  0  0  0  0  0  0  0  0
   44.9385    3.7734   12.5013 C   0  0  0  0  0  0  0  0  0  0  0  0
   48.4468    6.6175   13.8940 C   0  0  0  0  0  0  0  0  0  0  0  0
   45.1689    7.4327   12.4674 C   0  0  0  0  0  0  0  0  0  0  0  0
   47.0125    8.8774   13.1857 C   0  0  0  0  0  0  0  0  0  0  0  0
   43.3756    5.9292   11.7421 C   0  0  0  0  0  0  0  0  0  0  0  0
   43.6489    3.5416   12.0092 C   0  0  0  0  0  0  0  0  0  0  0  0
   49.0008    7.8802   14.1336 C   0  0  0  0  0  0  0  0  0  0  0  0
   43.2170    2.2368   11.7426 N   0  0  0  0  0  0  0  0  0  0  0  0
   50.3273    8.0008   14.5651 N   0  0  0  0  0  0  0  0  0  0  0  0
   42.8917    4.6307   11.5840 C   0  0  0  0  0  0  0  0  0  0  0  0
   48.2910    9.0078   13.7273 C   0  0  0  0  0  0  0  0  0  0  0  0
   45.5738    2.9323   12.7674 H   0  0  0  0  0  0  0  0  0  0  0  0
   49.0169    5.7236   14.1342 H   0  0  0  0  0  0  0  0  0  0  0  0
   44.5805    8.3000   12.1782 H   0  0  0  0  0  0  0  0  0  0  0  0
   46.4683    9.7716   12.8920 H   0  0  0  0  0  0  0  0  0  0  0  0
   42.7608    6.7661   11.4203 H   0  0  0  0  0  0  0  0  0  0  0  0
   42.2080    2.1332   11.7020 H   0  0  0  0  0  0  0  0  0  0  0  0
   43.6546    1.5308   12.3274 H   0  0  0  0  0  0  0  0  0  0  0  0
   50.5405    8.8881   15.0096 H   0  0  0  0  0  0  0  0  0  0  0  0
   50.6575    7.2078   15.1073 H   0  0  0  0  0  0  0  0  0  0  0  0
   41.9183    4.4783   11.1255 H   0  0  0  0  0  0  0  0  0  0  0  0
   48.7272    9.9979   13.8283 H   0  0  0  0  0  0  0  0  0  0  0  0
  2  1  2  0
  3  1  1  0
  4  3  2  0
  5  2  1  0
  6  2  1  0
  7  3  1  0
  8  4  1  0
  9  4  1  0
 10  5  1  0
 11  6  2  0
 12  7  2  0
 13 11  1  0
 14 12  1  0
 15 11  1  0
 16 12  1  0
  5  8  2  0
  9 16  2  0
 10 15  2  0
  6 17  1  0
  7 18  1  0
  8 19  1  0
  9 20  1  0
 10 21  1  0
 13 22  1  0
 13 23  1  0
 14 24  1  0
 14 25  1  0
 15 26  1  0
 16 27  1  0
M  END
> <Uni-Dock RESULT> 
ENERGY=   -4.382  LOWER_BOUND=    4.018  UPPER_BOUND=    6.128
INTER + INTRA:          -4.382
INTER:                  -4.382
INTRA:                   0.000
UNBOUND:                 0.000

$$$$

     RDKit          3D

 27 29  0  0  0  0  0  0  0  0999 V2000
   46.7047    5.1876   13.1546 N   0  0  0  0  0  0  0  0  0  0  0  0
   47.1844    6.4310   13.3413 C   0  0  0  0  0  0  0  0  0  0  0  0
   45.4757    5.0255   12.6309 C   0  0  0  0  0  0  0  0  0  0  0  0
   44.6616    6.1140   12.2712 C   0  0  0  0  0  0  0  0  0  0  0  0
   46.4440    7.5802   13.0123 C   0  0  0  0  0  0  0  0  0  0  0  0
   48.4542    6.6003   13.8813 C   0  0  0  0  0  0  0  0  0  0  0  0
   44.9790    3.7417   12.4364 C   0  0  0  0  0  0  0  0  0  0  0  0
   45.1661    7.4033   12.4713 C   0  0  0  0  0  0  0  0  0  0  0  0
   43.3793    5.8930   11.7443 C   0  0  0  0  0  0  0  0  0  0  0  0
   46.9818    8.8564   13.2420 C   0  0  0  0  0  0  0  0  0  0  0  0
   49.0287    7.8637   14.0614 C   0  0  0  0  0  0  0  0  0  0  0  0
   43.7274    3.5029   11.8573 C   0  0  0  0  0  0  0  0  0  0  0  0
   50.2605    7.9946   14.7139 N   0  0  0  0  0  0  0  0  0  0  0  0
   43.2175    2.2010   11.7856 N   0  0  0  0  0  0  0  0  0  0  0  0
   48.2600    8.9916   13.7834 C   0  0  0  0  0  0  0  0  0  0  0  0
   42.9117    4.5921   11.5597 C   0  0  0  0  0  0  0  0  0  0  0  0
   49.0097    5.7096   14.1638 H   0  0  0  0  0  0  0  0  0  0  0  0
   45.5991    2.9040   12.7458 H   0  0  0  0  0  0  0  0  0  0  0  0
   44.5624    8.2691   12.2107 H   0  0  0  0  0  0  0  0  0  0  0  0
   42.7333    6.7291   11.4883 H   0  0  0  0  0  0  0  0  0  0  0  0
   46.4057    9.7500   13.0153 H   0  0  0  0  0  0  0  0  0  0  0  0
   50.7414    8.8678   14.5225 H   0  0  0  0  0  0  0  0  0  0  0  0
   50.8690    7.1878   14.6103 H   0  0  0  0  0  0  0  0  0  0  0  0
   42.4877    2.0783   11.0909 H   0  0  0  0  0  0  0  0  0  0  0  0
   43.9322    1.4816   11.7262 H   0  0  0  0  0  0  0  0  0  0  0  0
   48.6491    9.9859   13.9859 H   0  0  0  0  0  0  0  0  0  0  0  0
   41.9046    4.4378   11.1818 H   0  0  0  0  0  0  0  0  0  0  0  0
  2  1  2  0
  3  1  1  0
  4  3  2  0
  5  2  1  0
  6  2  1  0
  7  3  1  0
  8  4  1  0
  9  4  1  0
 10  5  1  0
 11  6  2  0
 12  7  2  0
 13 11  1  0
 14 12  1  0
 15 11  1  0
 16 12  1  0
  5  8  2  0
  9 16  2  0
 10 15  2  0
  6 17  1  0
  7 18  1  0
  8 19  1  0
  9 20  1  0
 10 21  1  0
 13 22  1  0
 13 23  1  0
 14 24  1  0
 14 25  1  0
 15 26  1  0
 16 27  1  0
M  END
> <Uni-Dock RESULT> 
ENERGY=   -4.355  LOWER_BOUND=    3.952  UPPER_BOUND=    5.672
INTER + INTRA:          -4.355
INTER:                  -4.355
INTRA:                   0.000
UNBOUND:                 0.000

$$$$

     RDKit          3D

 27 29  0  0  0  0  0  0  0  0999 V2000
   51.1945    4.0579   18.7543 N   0  0  0  0  0  0  0  0  0  0  0  0
   49.9304    3.9677   18.3015 C   0  0  0  0  0  0  0  0  0  0  0  0
   52.0775    3.0905   18.4451 C   0  0  0  0  0  0  0  0  0  0  0  0
   51.7282    1.9749   17.6637 C   0  0  0  0  0  0  0  0  0  0  0  0
   49.4885    2.8899   17.5140 C   0  0  0  0  0  0  0  0  0  0  0  0
   49.0172    4.9667   18.6192 C   0  0  0  0  0  0  0  0  0  0  0  0
   53.3840    3.1826   18.9112 C   0  0  0  0  0  0  0  0  0  0  0  0
   50.4115    1.8868   17.1996 C   0  0  0  0  0  0  0  0  0  0  0  0
   52.6814    0.9834   17.3828 C   0  0  0  0  0  0  0  0  0  0  0  0
   48.1547    2.8328   17.0800 C   0  0  0  0  0  0  0  0  0  0  0  0
   47.7003    4.9553   18.1454 C   0  0  0  0  0  0  0  0  0  0  0  0
   54.3617    2.2338   18.5908 C   0  0  0  0  0  0  0  0  0  0  0  0
   46.7826    5.9181   18.5824 N   0  0  0  0  0  0  0  0  0  0  0  0
   55.6326    2.3025   19.1742 N   0  0  0  0  0  0  0  0  0  0  0  0
   47.2641    3.8527   17.4145 C   0  0  0  0  0  0  0  0  0  0  0  0
   53.9846    1.1070   17.8638 C   0  0  0  0  0  0  0  0  0  0  0  0
   49.3551    5.7813   19.2549 H   0  0  0  0  0  0  0  0  0  0  0  0
   53.6407    4.0303   19.5414 H   0  0  0  0  0  0  0  0  0  0  0  0
   50.1038    1.0353   16.5978 H   0  0  0  0  0  0  0  0  0  0  0  0
   52.4128    0.1046   16.8018 H   0  0  0  0  0  0  0  0  0  0  0  0
   47.7981    1.9899   16.4933 H   0  0  0  0  0  0  0  0  0  0  0  0
   45.9798    6.0340   17.9722 H   0  0  0  0  0  0  0  0  0  0  0  0
   47.2066    6.8058   18.8358 H   0  0  0  0  0  0  0  0  0  0  0  0
   56.3510    1.7968   18.6657 H   0  0  0  0  0  0  0  0  0  0  0  0
   55.9230    3.2447   19.4187 H   0  0  0  0  0  0  0  0  0  0  0  0
   46.2270    3.7774   17.0990 H   0  0  0  0  0  0  0  0  0  0  0  0
   54.7018    0.3151   17.6657 H   0  0  0  0  0  0  0  0  0  0  0  0
  2  1  2  0
  3  1  1  0
  4  3  2  0
  5  2  1  0
  6  2  1  0
  7  3  1  0
  8  4  1  0
  9  4  1  0
 10  5  1  0
 11  6  2  0
 12  7  2  0
 13 11  1  0
 14 12  1  0
 15 11  1  0
 16 12  1  0
  5  8  2  0
  9 16  2  0
 10 15  2  0
  6 17  1  0
  7 18  1  0
  8 19  1  0
  9 20  1  0
 10 21  1  0
 13 22  1  0
 13 23  1  0
 14 24  1  0
 14 25  1  0
 15 26  1  0
 16 27  1  0
M  END
> <Uni-Dock RESULT> 
ENERGY=   -4.103  LOWER_BOUND=    9.763  UPPER_BOUND=   10.775
INTER + INTRA:          -4.103
INTER:                  -4.103
INTRA:                   0.000
UNBOUND:                 0.000

$$$$

     RDKit          3D

 27 29  0  0  0  0  0  0  0  0999 V2000
   44.5350    8.0113   12.1281 N   0  0  0  0  0  0  0  0  0  0  0  0
   44.9808    6.7991   12.5065 C   0  0  0  0  0  0  0  0  0  0  0  0
   45.3821    9.0569   12.1305 C   0  0  0  0  0  0  0  0  0  0  0  0
   46.7273    8.9345   12.5210 C   0  0  0  0  0  0  0  0  0  0  0  0
   46.3088    6.5793   12.9132 C   0  0  0  0  0  0  0  0  0  0  0  0
   44.1073    5.7176   12.5036 C   0  0  0  0  0  0  0  0  0  0  0  0
   44.9235   10.3096   11.7389 C   0  0  0  0  0  0  0  0  0  0  0  0
   47.1822    7.6720   12.9160 C   0  0  0  0  0  0  0  0  0  0  0  0
   47.5672   10.0594   12.5227 C   0  0  0  0  0  0  0  0  0  0  0  0
   46.7213    5.2992   13.3154 C   0  0  0  0  0  0  0  0  0  0  0  0
   44.5172    4.4235   12.8443 C   0  0  0  0  0  0  0  0  0  0  0  0
   45.7621   11.4284   11.6779 C   0  0  0  0  0  0  0  0  0  0  0  0
   43.5812    3.3868   12.9397 N   0  0  0  0  0  0  0  0  0  0  0  0
   45.2350   12.6931   11.3900 N   0  0  0  0  0  0  0  0  0  0  0  0
   45.8203    4.2347   13.2988 C   0  0  0  0  0  0  0  0  0  0  0  0
   47.0763   11.3017   12.1220 C   0  0  0  0  0  0  0  0  0  0  0  0
   43.0739    5.8991   12.2192 H   0  0  0  0  0  0  0  0  0  0  0  0
   43.8749   10.4058   11.4687 H   0  0  0  0  0  0  0  0  0  0  0  0
   48.2147    7.5408   13.2303 H   0  0  0  0  0  0  0  0  0  0  0  0
   48.6013    9.9788   12.8484 H   0  0  0  0  0  0  0  0  0  0  0  0
   47.7389    5.1262   13.6565 H   0  0  0  0  0  0  0  0  0  0  0  0
   43.9827    2.4569   12.8727 H   0  0  0  0  0  0  0  0  0  0  0  0
   42.7742    3.5037   12.3338 H   0  0  0  0  0  0  0  0  0  0  0  0
   45.9209   13.3630   11.0566 H   0  0  0  0  0  0  0  0  0  0  0  0
   44.4032   12.6696   10.8074 H   0  0  0  0  0  0  0  0  0  0  0  0
   46.1460    3.2572   13.6444 H   0  0  0  0  0  0  0  0  0  0  0  0
   47.7297   12.1691   12.1605 H   0  0  0  0  0  0  0  0  0  0  0  0
  2  1  2  0
  3  1  1  0
  4  3  2  0
  5  2  1  0
  6  2  1  0
  7  3  1  0
  8  4  1  0
  9  4  1  0
 10  5  1  0
 11  6  2  0
 12  7  2  0
 13 11  1  0
 14 12  1  0
 15 11  1  0
 16 12  1  0
  5  8  2  0
  9 16  2  0
 10 15  2  0
  6 17  1  0
  7 18  1  0
  8 19  1  0
  9 20  1  0
 10 21  1  0
 13 22  1  0
 13 23  1  0
 14 24  1  0
 14 25  1  0
 15 26  1  0
 16 27  1  0
M  END
> <Uni-Dock RESULT> 
ENERGY=   -3.990  LOWER_BOUND=    4.505  UPPER_BOUND=    7.031
INTER + INTRA:          -3.990
INTER:                  -3.990
INTRA:                   0.000
UNBOUND:                 0.000

$$$$

     RDKit          3D

 27 29  0  0  0  0  0  0  0  0999 V2000
   46.2962    7.7973   12.9109 N   0  0  0  0  0  0  0  0  0  0  0  0
   45.9686    6.4925   12.8734 C   0  0  0  0  0  0  0  0  0  0  0  0
   45.5387    8.6879   12.2445 C   0  0  0  0  0  0  0  0  0  0  0  0
   44.4095    8.3062   11.4986 C   0  0  0  0  0  0  0  0  0  0  0  0
   44.8580    6.0161   12.1545 C   0  0  0  0  0  0  0  0  0  0  0  0
   46.7494    5.5713   13.5620 C   0  0  0  0  0  0  0  0  0  0  0  0
   45.8750   10.0363   12.2830 C   0  0  0  0  0  0  0  0  0  0  0  0
   44.0776    6.9478   11.4618 C   0  0  0  0  0  0  0  0  0  0  0  0
   43.6613    9.2714   10.8064 C   0  0  0  0  0  0  0  0  0  0  0  0
   44.5676    4.6429   12.1322 C   0  0  0  0  0  0  0  0  0  0  0  0
   46.4398    4.2069   13.5991 C   0  0  0  0  0  0  0  0  0  0  0  0
   45.1059   11.0181   11.6480 C   0  0  0  0  0  0  0  0  0  0  0  0
   47.3148    3.2988   14.2071 N   0  0  0  0  0  0  0  0  0  0  0  0
   45.5428   12.3479   11.6151 N   0  0  0  0  0  0  0  0  0  0  0  0
   45.3700    3.7449   12.8358 C   0  0  0  0  0  0  0  0  0  0  0  0
   44.0244   10.6166   10.8675 C   0  0  0  0  0  0  0  0  0  0  0  0
   47.6252    5.9404   14.0898 H   0  0  0  0  0  0  0  0  0  0  0  0
   46.7671   10.3225   12.8345 H   0  0  0  0  0  0  0  0  0  0  0  0
   43.2147    6.6150   10.8902 H   0  0  0  0  0  0  0  0  0  0  0  0
   42.8026    8.9816   10.2059 H   0  0  0  0  0  0  0  0  0  0  0  0
   43.7266    4.2632   11.5574 H   0  0  0  0  0  0  0  0  0  0  0  0
   46.8836    2.4179   14.4689 H   0  0  0  0  0  0  0  0  0  0  0  0
   47.8645    3.6991   14.9618 H   0  0  0  0  0  0  0  0  0  0  0  0
   44.8070   13.0225   11.4312 H   0  0  0  0  0  0  0  0  0  0  0  0
   46.1192   12.6117   12.4089 H   0  0  0  0  0  0  0  0  0  0  0  0
   45.1517    2.6817   12.7817 H   0  0  0  0  0  0  0  0  0  0  0  0
   43.4549   11.3473   10.2995 H   0  0  0  0  0  0  0  0  0  0  0  0
  2  1  2  0
  3  1  1  0
  4  3  2  0
  5  2  1  0
  6  2  1  0
  7  3  1  0
  8  4  1  0
  9  4  1  0
 10  5  1  0
 11  6  2  0
 12  7  2  0
 13 11  1  0
 14 12  1  0
 15 11  1  0
 16 12  1  0
  5  8  2  0
  9 16  2  0
 10 15  2  0
  6 17  1  0
  7 18  1  0
  8 19  1  0
  9 20  1  0
 10 21  1  0
 13 22  1  0
 13 23  1  0
 14 24  1  0
 14 25  1  0
 15 26  1  0
 16 27  1  0
M  END
> <Uni-Dock RESULT> 
ENERGY=   -3.859  LOWER_BOUND=    4.438  UPPER_BOUND=    6.807
INTER + INTRA:          -3.859
INTER:                  -3.859
INTRA:                   0.000
UNBOUND:                 0.000

$$$$

     RDKit          3D

 27 29  0  0  0  0  0  0  0  0999 V2000
   52.0120    3.7556   18.3826 N   0  0  0  0  0  0  0  0  0  0  0  0
   52.8829    2.7298   18.4017 C   0  0  0  0  0  0  0  0  0  0  0  0
   50.7895    3.5743   17.8501 C   0  0  0  0  0  0  0  0  0  0  0  0
   50.3821    2.3449   17.3025 C   0  0  0  0  0  0  0  0  0  0  0  0
   52.5658    1.4639   17.8779 C   0  0  0  0  0  0  0  0  0  0  0  0
   54.1459    2.9150   18.9524 C   0  0  0  0  0  0  0  0  0  0  0  0
   49.8882    4.6327   17.8304 C   0  0  0  0  0  0  0  0  0  0  0  0
   51.2942    1.2845   17.3232 C   0  0  0  0  0  0  0  0  0  0  0  0
   49.1017    2.2110   16.7429 C   0  0  0  0  0  0  0  0  0  0  0  0
   53.5152    0.4303   17.9059 C   0  0  0  0  0  0  0  0  0  0  0  0
   55.0826    1.8790   19.0422 C   0  0  0  0  0  0  0  0  0  0  0  0
   48.5877    4.4994   17.3306 C   0  0  0  0  0  0  0  0  0  0  0  0
   56.3812    2.1366   19.4976 N   0  0  0  0  0  0  0  0  0  0  0  0
   47.7524    5.6179   17.2238 N   0  0  0  0  0  0  0  0  0  0  0  0
   54.7730    0.6484   18.4677 C   0  0  0  0  0  0  0  0  0  0  0  0
   48.2205    3.2920   16.7410 C   0  0  0  0  0  0  0  0  0  0  0  0
   54.3975    3.9041   19.3269 H   0  0  0  0  0  0  0  0  0  0  0  0
   50.2189    5.5898   18.2257 H   0  0  0  0  0  0  0  0  0  0  0  0
   51.0162    0.3210   16.9032 H   0  0  0  0  0  0  0  0  0  0  0  0
   48.7883    1.2718   16.2937 H   0  0  0  0  0  0  0  0  0  0  0  0
   53.2876   -0.5434   17.4793 H   0  0  0  0  0  0  0  0  0  0  0  0
   56.8762    1.3144   19.8285 H   0  0  0  0  0  0  0  0  0  0  0  0
   56.4422    2.9128   20.1500 H   0  0  0  0  0  0  0  0  0  0  0  0
   46.7642    5.3941   17.1638 H   0  0  0  0  0  0  0  0  0  0  0  0
   47.9437    6.3416   17.9106 H   0  0  0  0  0  0  0  0  0  0  0  0
   55.5082   -0.1517   18.4520 H   0  0  0  0  0  0  0  0  0  0  0  0
   47.2452    3.1821   16.2746 H   0  0  0  0  0  0  0  0  0  0  0  0
  2  1  2  0
  3  1  1  0
  4  3  2  0
  5  2  1  0
  6  2  1  0
  7  3  1  0
  8  4  1  0
  9  4  1  0
 10  5  1  0
 11  6  2  0
 12  7  2  0
 13 11  1  0
 14 12  1  0
 15 11  1  0
 16 12  1  0
  5  8  2  0
  9 16  2  0
 10 15  2  0
  6 17  1  0
  7 18  1  0
  8 19  1  0
  9 20  1  0
 10 21  1  0
 13 22  1  0
 13 23  1  0
 14 24  1  0
 14 25  1  0
 15 26  1  0
 16 27  1  0
M  END
> <Uni-Dock RESULT> 
ENERGY=   -3.857  LOWER_BOUND=   10.381  UPPER_BOUND=   11.819
INTER + INTRA:          -3.857
INTER:                  -3.857
INTRA:                   0.000
UNBOUND:                 0.000

$$$$
