
     RDKit          3D

 27 29  0  0  0  0  0  0  0  0999 V2000
   45.2936    4.4779    8.4295 N   0  0  0  0  0  0  0  0  0  0  0  0
   44.5525    4.3054    9.5395 C   0  0  0  0  0  0  0  0  0  0  0  0
   45.9128    3.4182    7.8774 C   0  0  0  0  0  0  0  0  0  0  0  0
   45.8181    2.1245    8.4203 C   0  0  0  0  0  0  0  0  0  0  0  0
   44.3948    3.0490   10.1511 C   0  0  0  0  0  0  0  0  0  0  0  0
   43.9108    5.3986   10.1101 C   0  0  0  0  0  0  0  0  0  0  0  0
   46.6802    3.5950    6.7318 C   0  0  0  0  0  0  0  0  0  0  0  0
   45.0437    1.9530    9.5727 C   0  0  0  0  0  0  0  0  0  0  0  0
   46.4972    1.0543    7.8171 C   0  0  0  0  0  0  0  0  0  0  0  0
   43.5968    2.9176   11.2984 C   0  0  0  0  0  0  0  0  0  0  0  0
   43.1602    5.2958   11.2869 C   0  0  0  0  0  0  0  0  0  0  0  0
   47.3151    2.5290    6.0843 C   0  0  0  0  0  0  0  0  0  0  0  0
   42.4369    6.3958   11.7635 N   0  0  0  0  0  0  0  0  0  0  0  0
   48.1709    2.7670    5.0020 N   0  0  0  0  0  0  0  0  0  0  0  0
   42.9678    4.0349   11.8470 C   0  0  0  0  0  0  0  0  0  0  0  0
   47.2577    1.2651    6.6671 C   0  0  0  0  0  0  0  0  0  0  0  0
   44.0103    6.3618    9.6160 H   0  0  0  0  0  0  0  0  0  0  0  0
   46.7756    4.6021    6.3338 H   0  0  0  0  0  0  0  0  0  0  0  0
   44.9461    0.9666   10.0193 H   0  0  0  0  0  0  0  0  0  0  0  0
   46.4498    0.0558    8.2448 H   0  0  0  0  0  0  0  0  0  0  0  0
   43.4491    1.9457   11.7628 H   0  0  0  0  0  0  0  0  0  0  0  0
   42.1972    6.3395   12.7481 H   0  0  0  0  0  0  0  0  0  0  0  0
   42.8438    7.2932   11.5164 H   0  0  0  0  0  0  0  0  0  0  0  0
   48.3250    1.9575    4.4091 H   0  0  0  0  0  0  0  0  0  0  0  0
   47.9350    3.5975    4.4666 H   0  0  0  0  0  0  0  0  0  0  0  0
   42.3270    3.9113   12.7159 H   0  0  0  0  0  0  0  0  0  0  0  0
   47.8039    0.4331    6.2309 H   0  0  0  0  0  0  0  0  0  0  0  0
  2  1  2  0
  3  1  1  0
  4  3  2  0
  5  2  1  0
  6  2  1  0
  7  3  1  0
  8  4  1  0
  9  4  1  0
 10  5  1  0
 11  6  2  0
 12  7  2  0
 13 11  1  0
 14 12  1  0
 15 11  1  0
 16 12  1  0
  5  8  2  0
  9 16  2  0
 10 15  2  0
  6 17  1  0
  7 18  1  0
  8 19  1  0
  9 20  1  0
 10 21  1  0
 13 22  1  0
 13 23  1  0
 14 24  1  0
 14 25  1  0
 15 26  1  0
 16 27  1  0
M  END
> <Uni-Dock RESULT> 
ENERGY=   -6.947  LOWER_BOUND=    0.000  UPPER_BOUND=    0.000
INTER + INTRA:          -6.947
INTER:                  -6.947
INTRA:                   0.000
UNBOUND:                 0.000

$$$$

     RDKit          3D

 27 29  0  0  0  0  0  0  0  0999 V2000
   45.2937    4.4769    8.4284 N   0  0  0  0  0  0  0  0  0  0  0  0
   45.9130    3.4173    7.8765 C   0  0  0  0  0  0  0  0  0  0  0  0
   44.5527    4.3044    9.5385 C   0  0  0  0  0  0  0  0  0  0  0  0
   44.3954    3.0482   10.1504 C   0  0  0  0  0  0  0  0  0  0  0  0
   45.8186    2.1236    8.4196 C   0  0  0  0  0  0  0  0  0  0  0  0
   46.6803    3.5940    6.7308 C   0  0  0  0  0  0  0  0  0  0  0  0
   43.9108    5.3976   10.1090 C   0  0  0  0  0  0  0  0  0  0  0  0
   45.0444    1.9521    9.5720 C   0  0  0  0  0  0  0  0  0  0  0  0
   43.5973    2.9167   11.2978 C   0  0  0  0  0  0  0  0  0  0  0  0
   46.4980    1.0535    7.8165 C   0  0  0  0  0  0  0  0  0  0  0  0
   47.3154    2.5281    6.0833 C   0  0  0  0  0  0  0  0  0  0  0  0
   43.1603    5.2947   11.2857 C   0  0  0  0  0  0  0  0  0  0  0  0
   48.1710    2.7660    5.0009 N   0  0  0  0  0  0  0  0  0  0  0  0
   42.4368    6.3947   11.7622 N   0  0  0  0  0  0  0  0  0  0  0  0
   47.2582    1.2642    6.6665 C   0  0  0  0  0  0  0  0  0  0  0  0
   42.9682    4.0340   11.8462 C   0  0  0  0  0  0  0  0  0  0  0  0
   46.7755    4.6011    6.3326 H   0  0  0  0  0  0  0  0  0  0  0  0
   44.0101    6.3607    9.6147 H   0  0  0  0  0  0  0  0  0  0  0  0
   44.9470    0.9658   10.0188 H   0  0  0  0  0  0  0  0  0  0  0  0
   43.4500    1.9448   11.7624 H   0  0  0  0  0  0  0  0  0  0  0  0
   46.4508    0.0551    8.2444 H   0  0  0  0  0  0  0  0  0  0  0  0
   48.3252    1.9565    4.4083 H   0  0  0  0  0  0  0  0  0  0  0  0
   47.9349    3.5964    4.4655 H   0  0  0  0  0  0  0  0  0  0  0  0
   42.1970    6.3386   12.7470 H   0  0  0  0  0  0  0  0  0  0  0  0
   42.8435    7.2922   11.5151 H   0  0  0  0  0  0  0  0  0  0  0  0
   47.8046    0.4323    6.2304 H   0  0  0  0  0  0  0  0  0  0  0  0
   42.3275    3.9104   12.7152 H   0  0  0  0  0  0  0  0  0  0  0  0
  2  1  2  0
  3  1  1  0
  4  3  2  0
  5  2  1  0
  6  2  1  0
  7  3  1  0
  8  4  1  0
  9  4  1  0
 10  5  1  0
 11  6  2  0
 12  7  2  0
 13 11  1  0
 14 12  1  0
 15 11  1  0
 16 12  1  0
  5  8  2  0
  9 16  2  0
 10 15  2  0
  6 17  1  0
  7 18  1  0
  8 19  1  0
  9 20  1  0
 10 21  1  0
 13 22  1  0
 13 23  1  0
 14 24  1  0
 14 25  1  0
 15 26  1  0
 16 27  1  0
M  END
> <Uni-Dock RESULT> 
ENERGY=   -6.943  LOWER_BOUND=    0.001  UPPER_BOUND=    5.638
INTER + INTRA:          -6.943
INTER:                  -6.943
INTRA:                   0.000
UNBOUND:                 0.000

$$$$

     RDKit          3D

 27 29  0  0  0  0  0  0  0  0999 V2000
   44.8952    2.5141   10.0289 N   0  0  0  0  0  0  0  0  0  0  0  0
   44.4955    3.6572   10.6158 C   0  0  0  0  0  0  0  0  0  0  0  0
   45.5959    2.5707    8.8814 C   0  0  0  0  0  0  0  0  0  0  0  0
   45.9290    3.7887    8.2625 C   0  0  0  0  0  0  0  0  0  0  0  0
   44.7854    4.9222   10.0746 C   0  0  0  0  0  0  0  0  0  0  0  0
   43.7730    3.6005   11.8022 C   0  0  0  0  0  0  0  0  0  0  0  0
   46.0082    1.3908    8.2728 C   0  0  0  0  0  0  0  0  0  0  0  0
   45.5120    4.9726    8.8803 C   0  0  0  0  0  0  0  0  0  0  0  0
   46.6468    3.7947    7.0562 C   0  0  0  0  0  0  0  0  0  0  0  0
   44.3611    6.0864   10.7342 C   0  0  0  0  0  0  0  0  0  0  0  0
   43.2915    4.7488   12.4410 C   0  0  0  0  0  0  0  0  0  0  0  0
   46.7751    1.3806    7.1022 C   0  0  0  0  0  0  0  0  0  0  0  0
   42.6691    4.6547   13.6917 N   0  0  0  0  0  0  0  0  0  0  0  0
   47.0706    0.1719    6.4602 N   0  0  0  0  0  0  0  0  0  0  0  0
   43.6364    5.9948   11.9222 C   0  0  0  0  0  0  0  0  0  0  0  0
   47.0471    2.5930    6.4724 C   0  0  0  0  0  0  0  0  0  0  0  0
   43.5782    2.6215   12.2329 H   0  0  0  0  0  0  0  0  0  0  0  0
   45.7216    0.4512    8.7384 H   0  0  0  0  0  0  0  0  0  0  0  0
   45.7530    5.9331    8.4315 H   0  0  0  0  0  0  0  0  0  0  0  0
   46.8865    4.7309    6.5582 H   0  0  0  0  0  0  0  0  0  0  0  0
   44.6028    7.0688   10.3360 H   0  0  0  0  0  0  0  0  0  0  0  0
   42.0836    5.4504   13.9246 H   0  0  0  0  0  0  0  0  0  0  0  0
   42.1971    3.7692   13.8500 H   0  0  0  0  0  0  0  0  0  0  0  0
   47.8677    0.2191    5.8334 H   0  0  0  0  0  0  0  0  0  0  0  0
   47.1207   -0.6252    7.0880 H   0  0  0  0  0  0  0  0  0  0  0  0
   43.3434    6.9054   12.4380 H   0  0  0  0  0  0  0  0  0  0  0  0
   47.5735    2.6130    5.5220 H   0  0  0  0  0  0  0  0  0  0  0  0
  2  1  2  0
  3  1  1  0
  4  3  2  0
  5  2  1  0
  6  2  1  0
  7  3  1  0
  8  4  1  0
  9  4  1  0
 10  5  1  0
 11  6  2  0
 12  7  2  0
 13 11  1  0
 14 12  1  0
 15 11  1  0
 16 12  1  0
  5  8  2  0
  9 16  2  0
 10 15  2  0
  6 17  1  0
  7 18  1  0
  8 19  1  0
  9 20  1  0
 10 21  1  0
 13 22  1  0
 13 23  1  0
 14 24  1  0
 14 25  1  0
 15 26  1  0
 16 27  1  0
M  END
> <Uni-Dock RESULT> 
ENERGY=   -5.419  LOWER_BOUND=    1.427  UPPER_BOUND=    2.324
INTER + INTRA:          -5.419
INTER:                  -5.419
INTRA:                   0.000
UNBOUND:                 0.000

$$$$

     RDKit          3D

 27 29  0  0  0  0  0  0  0  0999 V2000
   43.3884    7.0475   11.1646 N   0  0  0  0  0  0  0  0  0  0  0  0
   43.9171    5.9136   11.6603 C   0  0  0  0  0  0  0  0  0  0  0  0
   44.0195    8.2174   11.3744 C   0  0  0  0  0  0  0  0  0  0  0  0
   45.2206    8.3047   12.1004 C   0  0  0  0  0  0  0  0  0  0  0  0
   45.1165    5.9008   12.3943 C   0  0  0  0  0  0  0  0  0  0  0  0
   43.2673    4.7040   11.4431 C   0  0  0  0  0  0  0  0  0  0  0  0
   43.4739    9.3899   10.8645 C   0  0  0  0  0  0  0  0  0  0  0  0
   45.7651    7.1213   12.6102 C   0  0  0  0  0  0  0  0  0  0  0  0
   45.8317    9.5515   12.3070 C   0  0  0  0  0  0  0  0  0  0  0  0
   45.6366    4.6891   12.8758 C   0  0  0  0  0  0  0  0  0  0  0  0
   43.7407    3.4954   11.9664 C   0  0  0  0  0  0  0  0  0  0  0  0
   44.1007   10.6327   11.0105 C   0  0  0  0  0  0  0  0  0  0  0  0
   43.1207    2.2864   11.6280 N   0  0  0  0  0  0  0  0  0  0  0  0
   43.4611   11.8025   10.5827 N   0  0  0  0  0  0  0  0  0  0  0  0
   44.9590    3.4928   12.6419 C   0  0  0  0  0  0  0  0  0  0  0  0
   45.2590   10.7090   11.7804 C   0  0  0  0  0  0  0  0  0  0  0  0
   42.3571    4.7150   10.8487 H   0  0  0  0  0  0  0  0  0  0  0  0
   42.5293    9.3213   10.3307 H   0  0  0  0  0  0  0  0  0  0  0  0
   46.6936    7.1501   13.1750 H   0  0  0  0  0  0  0  0  0  0  0  0
   46.7468    9.6309   12.8886 H   0  0  0  0  0  0  0  0  0  0  0  0
   46.5762    4.6672   13.4223 H   0  0  0  0  0  0  0  0  0  0  0  0
   43.3086    1.5283   12.2762 H   0  0  0  0  0  0  0  0  0  0  0  0
   42.1311    2.3772   11.4173 H   0  0  0  0  0  0  0  0  0  0  0  0
   44.0882   12.5861   10.4302 H   0  0  0  0  0  0  0  0  0  0  0  0
   42.8242   11.6613    9.8040 H   0  0  0  0  0  0  0  0  0  0  0  0
   45.3913    2.5595   12.9927 H   0  0  0  0  0  0  0  0  0  0  0  0
   45.7264   11.6702   11.9768 H   0  0  0  0  0  0  0  0  0  0  0  0
  2  1  2  0
  3  1  1  0
  4  3  2  0
  5  2  1  0
  6  2  1  0
  7  3  1  0
  8  4  1  0
  9  4  1  0
 10  5  1  0
 11  6  2  0
 12  7  2  0
 13 11  1  0
 14 12  1  0
 15 11  1  0
 16 12  1  0
  5  8  2  0
  9 16  2  0
 10 15  2  0
  6 17  1  0
  7 18  1  0
  8 19  1  0
  9 20  1  0
 10 21  1  0
 13 22  1  0
 13 23  1  0
 14 24  1  0
 14 25  1  0
 15 26  1  0
 16 27  1  0
M  END
> <Uni-Dock RESULT> 
ENERGY=   -4.457  LOWER_BOUND=    4.419  UPPER_BOUND=    6.677
INTER + INTRA:          -4.457
INTER:                  -4.457
INTRA:                   0.000
UNBOUND:                 0.000

$$$$

     RDKit          3D

 27 29  0  0  0  0  0  0  0  0999 V2000
   43.3840    7.0486   11.1633 N   0  0  0  0  0  0  0  0  0  0  0  0
   44.0143    8.2190   11.3727 C   0  0  0  0  0  0  0  0  0  0  0  0
   43.9136    5.9152   11.6595 C   0  0  0  0  0  0  0  0  0  0  0  0
   45.1129    5.9036   12.3936 C   0  0  0  0  0  0  0  0  0  0  0  0
   45.2152    8.3075   12.0988 C   0  0  0  0  0  0  0  0  0  0  0  0
   43.4677    9.3909   10.8623 C   0  0  0  0  0  0  0  0  0  0  0  0
   43.2648    4.7051   11.4427 C   0  0  0  0  0  0  0  0  0  0  0  0
   45.7606    7.1247   12.6091 C   0  0  0  0  0  0  0  0  0  0  0  0
   45.6340    4.6925   12.8755 C   0  0  0  0  0  0  0  0  0  0  0  0
   45.8253    9.5548   12.3050 C   0  0  0  0  0  0  0  0  0  0  0  0
   44.0936   10.6342   11.0079 C   0  0  0  0  0  0  0  0  0  0  0  0
   43.7391    3.4970   11.9663 C   0  0  0  0  0  0  0  0  0  0  0  0
   43.4533   11.8035   10.5797 N   0  0  0  0  0  0  0  0  0  0  0  0
   43.1200    2.2875   11.6283 N   0  0  0  0  0  0  0  0  0  0  0  0
   45.2518   10.7117   11.7780 C   0  0  0  0  0  0  0  0  0  0  0  0
   44.9573    3.4956   12.6420 C   0  0  0  0  0  0  0  0  0  0  0  0
   42.5233    9.3214   10.3285 H   0  0  0  0  0  0  0  0  0  0  0  0
   42.3546    4.7152   10.8483 H   0  0  0  0  0  0  0  0  0  0  0  0
   46.6891    7.1544   13.1739 H   0  0  0  0  0  0  0  0  0  0  0  0
   46.5736    4.6715   13.4221 H   0  0  0  0  0  0  0  0  0  0  0  0
   46.7403    9.6352   12.8867 H   0  0  0  0  0  0  0  0  0  0  0  0
   44.0798   12.5873   10.4269 H   0  0  0  0  0  0  0  0  0  0  0  0
   42.8164   11.6614    9.8011 H   0  0  0  0  0  0  0  0  0  0  0  0
   43.3085    1.5295   12.2769 H   0  0  0  0  0  0  0  0  0  0  0  0
   42.1303    2.3773   11.4176 H   0  0  0  0  0  0  0  0  0  0  0  0
   45.7185   11.6733   11.9740 H   0  0  0  0  0  0  0  0  0  0  0  0
   45.3902    2.5628   12.9932 H   0  0  0  0  0  0  0  0  0  0  0  0
  2  1  2  0
  3  1  1  0
  4  3  2  0
  5  2  1  0
  6  2  1  0
  7  3  1  0
  8  4  1  0
  9  4  1  0
 10  5  1  0
 11  6  2  0
 12  7  2  0
 13 11  1  0
 14 12  1  0
 15 11  1  0
 16 12  1  0
  5  8  2  0
  9 16  2  0
 10 15  2  0
  6 17  1  0
  7 18  1  0
  8 19  1  0
  9 20  1  0
 10 21  1  0
 13 22  1  0
 13 23  1  0
 14 24  1  0
 14 25  1  0
 15 26  1  0
 16 27  1  0
M  END
> <Uni-Dock RESULT> 
ENERGY=   -4.457  LOWER_BOUND=    4.420  UPPER_BOUND=    6.003
INTER + INTRA:          -4.457
INTER:                  -4.457
INTRA:                   0.000
UNBOUND:                 0.000

$$$$

     RDKit          3D

 27 29  0  0  0  0  0  0  0  0999 V2000
   46.7012    5.1922   13.1599 N   0  0  0  0  0  0  0  0  0  0  0  0
   45.4734    5.0292   12.6335 C   0  0  0  0  0  0  0  0  0  0  0  0
   47.1786    6.4361   13.3498 C   0  0  0  0  0  0  0  0  0  0  0  0
   46.4400    7.5847   13.0147 C   0  0  0  0  0  0  0  0  0  0  0  0
   44.6592    6.1172   12.2722 C   0  0  0  0  0  0  0  0  0  0  0  0
   44.9781    3.7450   12.4382 C   0  0  0  0  0  0  0  0  0  0  0  0
   48.4473    6.6063   13.8919 C   0  0  0  0  0  0  0  0  0  0  0  0
   45.1636    7.4068   12.4703 C   0  0  0  0  0  0  0  0  0  0  0  0
   46.9891    8.8609   13.2159 C   0  0  0  0  0  0  0  0  0  0  0  0
   43.3782    5.8951   11.7427 C   0  0  0  0  0  0  0  0  0  0  0  0
   43.7278    3.5053   11.8569 C   0  0  0  0  0  0  0  0  0  0  0  0
   48.9858    7.8712   14.1539 C   0  0  0  0  0  0  0  0  0  0  0  0
   43.2189    2.2029   11.7843 N   0  0  0  0  0  0  0  0  0  0  0  0
   50.3095    8.0000   14.5919 N   0  0  0  0  0  0  0  0  0  0  0  0
   42.9117    4.5939   11.5579 C   0  0  0  0  0  0  0  0  0  0  0  0
   48.2645    8.9971   13.7635 C   0  0  0  0  0  0  0  0  0  0  0  0
   45.5986    2.9078   12.7479 H   0  0  0  0  0  0  0  0  0  0  0  0
   49.0266    5.7152   14.1204 H   0  0  0  0  0  0  0  0  0  0  0  0
   44.5629    8.2720   12.2009 H   0  0  0  0  0  0  0  0  0  0  0  0
   46.4349    9.7534   12.9361 H   0  0  0  0  0  0  0  0  0  0  0  0
   42.7324    6.7308   11.4845 H   0  0  0  0  0  0  0  0  0  0  0  0
   42.4912    2.0801   11.0875 H   0  0  0  0  0  0  0  0  0  0  0  0
   43.9351    1.4849   11.7245 H   0  0  0  0  0  0  0  0  0  0  0  0
   50.5101    8.8822   15.0523 H   0  0  0  0  0  0  0  0  0  0  0  0
   50.6457    7.2025   15.1238 H   0  0  0  0  0  0  0  0  0  0  0  0
   41.9055    4.4388   11.1778 H   0  0  0  0  0  0  0  0  0  0  0  0
   48.6886    9.9905   13.8826 H   0  0  0  0  0  0  0  0  0  0  0  0
  2  1  2  0
  3  1  1  0
  4  3  2  0
  5  2  1  0
  6  2  1  0
  7  3  1  0
  8  4  1  0
  9  4  1  0
 10  5  1  0
 11  6  2  0
 12  7  2  0
 13 11  1  0
 14 12  1  0
 15 11  1  0
 16 12  1  0
  5  8  2  0
  9 16  2  0
 10 15  2  0
  6 17  1  0
  7 18  1  0
  8 19  1  0
  9 20  1  0
 10 21  1  0
 13 22  1  0
 13 23  1  0
 14 24  1  0
 14 25  1  0
 15 26  1  0
 16 27  1  0
M  END
> <Uni-Dock RESULT> 
ENERGY=   -4.358  LOWER_BOUND=    4.613  UPPER_BOUND=    6.643
INTER + INTRA:          -4.358
INTER:                  -4.358
INTRA:                   0.000
UNBOUND:                 0.000

$$$$

     RDKit          3D

 27 29  0  0  0  0  0  0  0  0999 V2000
   46.7012    5.1922   13.1591 N   0  0  0  0  0  0  0  0  0  0  0  0
   47.1783    6.4360   13.3489 C   0  0  0  0  0  0  0  0  0  0  0  0
   45.4733    5.0289   12.6330 C   0  0  0  0  0  0  0  0  0  0  0  0
   44.6587    6.1167   12.2720 C   0  0  0  0  0  0  0  0  0  0  0  0
   46.4394    7.5846   13.0140 C   0  0  0  0  0  0  0  0  0  0  0  0
   48.4472    6.6065   13.8907 C   0  0  0  0  0  0  0  0  0  0  0  0
   44.9781    3.7447   12.4379 C   0  0  0  0  0  0  0  0  0  0  0  0
   45.1630    7.4065   12.4700 C   0  0  0  0  0  0  0  0  0  0  0  0
   43.3776    5.8945   11.7429 C   0  0  0  0  0  0  0  0  0  0  0  0
   46.9884    8.8608   13.2152 C   0  0  0  0  0  0  0  0  0  0  0  0
   48.9856    7.8715   14.1527 C   0  0  0  0  0  0  0  0  0  0  0  0
   43.7277    3.5048   11.8569 C   0  0  0  0  0  0  0  0  0  0  0  0
   50.3093    8.0006   14.5904 N   0  0  0  0  0  0  0  0  0  0  0  0
   43.2191    2.2022   11.7844 N   0  0  0  0  0  0  0  0  0  0  0  0
   48.2639    8.9972   13.7624 C   0  0  0  0  0  0  0  0  0  0  0  0
   42.9113    4.5931   11.5581 C   0  0  0  0  0  0  0  0  0  0  0  0
   49.0268    5.7155   14.1190 H   0  0  0  0  0  0  0  0  0  0  0  0
   45.5989    2.9076   12.7473 H   0  0  0  0  0  0  0  0  0  0  0  0
   44.5621    8.2716   12.2008 H   0  0  0  0  0  0  0  0  0  0  0  0
   42.7316    6.7301   11.4847 H   0  0  0  0  0  0  0  0  0  0  0  0
   46.4341    9.7533   12.9355 H   0  0  0  0  0  0  0  0  0  0  0  0
   50.5098    8.8827   15.0507 H   0  0  0  0  0  0  0  0  0  0  0  0
   50.6458    7.2030   15.1220 H   0  0  0  0  0  0  0  0  0  0  0  0
   42.4910    2.0793   11.0878 H   0  0  0  0  0  0  0  0  0  0  0  0
   43.9353    1.4843   11.7243 H   0  0  0  0  0  0  0  0  0  0  0  0
   48.6879    9.9907   13.8814 H   0  0  0  0  0  0  0  0  0  0  0  0
   41.9051    4.4379   11.1782 H   0  0  0  0  0  0  0  0  0  0  0  0
  2  1  2  0
  3  1  1  0
  4  3  2  0
  5  2  1  0
  6  2  1  0
  7  3  1  0
  8  4  1  0
  9  4  1  0
 10  5  1  0
 11  6  2  0
 12  7  2  0
 13 11  1  0
 14 12  1  0
 15 11  1  0
 16 12  1  0
  5  8  2  0
  9 16  2  0
 10 15  2  0
  6 17  1  0
  7 18  1  0
  8 19  1  0
  9 20  1  0
 10 21  1  0
 13 22  1  0
 13 23  1  0
 14 24  1  0
 14 25  1  0
 15 26  1  0
 16 27  1  0
M  END
> <Uni-Dock RESULT> 
ENERGY=   -4.357  LOWER_BOUND=    4.613  UPPER_BOUND=    6.614
INTER + INTRA:          -4.357
INTER:                  -4.357
INTRA:                   0.000
UNBOUND:                 0.000

$$$$

     RDKit          3D

 27 29  0  0  0  0  0  0  0  0999 V2000
   44.4624    7.9186   12.1028 N   0  0  0  0  0  0  0  0  0  0  0  0
   44.9200    6.7129   12.4874 C   0  0  0  0  0  0  0  0  0  0  0  0
   45.2970    8.9742   12.1081 C   0  0  0  0  0  0  0  0  0  0  0  0
   46.6416    8.8683   12.5057 C   0  0  0  0  0  0  0  0  0  0  0  0
   46.2497    6.5083   12.8966 C   0  0  0  0  0  0  0  0  0  0  0  0
   44.0596    5.6210   12.4810 C   0  0  0  0  0  0  0  0  0  0  0  0
   44.8256   10.2208   11.7127 C   0  0  0  0  0  0  0  0  0  0  0  0
   47.1103    7.6111   12.9017 C   0  0  0  0  0  0  0  0  0  0  0  0
   47.4680   10.0030   12.5104 C   0  0  0  0  0  0  0  0  0  0  0  0
   46.6835    5.2272   13.2722 C   0  0  0  0  0  0  0  0  0  0  0  0
   44.4599    4.3499   12.9087 C   0  0  0  0  0  0  0  0  0  0  0  0
   45.6510   11.3495   11.6549 C   0  0  0  0  0  0  0  0  0  0  0  0
   43.5973    3.2548   12.7776 N   0  0  0  0  0  0  0  0  0  0  0  0
   45.1103   12.6075   11.3627 N   0  0  0  0  0  0  0  0  0  0  0  0
   45.7944    4.1529   13.2562 C   0  0  0  0  0  0  0  0  0  0  0  0
   46.9643   11.2391   12.1062 C   0  0  0  0  0  0  0  0  0  0  0  0
   43.0412    5.7778   12.1343 H   0  0  0  0  0  0  0  0  0  0  0  0
   43.7776   10.3039   11.4359 H   0  0  0  0  0  0  0  0  0  0  0  0
   48.1447    7.4909   13.2138 H   0  0  0  0  0  0  0  0  0  0  0  0
   48.5017    9.9348   12.8405 H   0  0  0  0  0  0  0  0  0  0  0  0
   47.7162    5.0553   13.5655 H   0  0  0  0  0  0  0  0  0  0  0  0
   43.8253    2.4725   13.3827 H   0  0  0  0  0  0  0  0  0  0  0  0
   42.6125    3.5003   12.8193 H   0  0  0  0  0  0  0  0  0  0  0  0
   45.7904   13.2846   11.0314 H   0  0  0  0  0  0  0  0  0  0  0  0
   44.2831   12.5725   10.7741 H   0  0  0  0  0  0  0  0  0  0  0  0
   46.1537    3.1613   13.5181 H   0  0  0  0  0  0  0  0  0  0  0  0
   47.6072   12.1142   12.1465 H   0  0  0  0  0  0  0  0  0  0  0  0
  2  1  2  0
  3  1  1  0
  4  3  2  0
  5  2  1  0
  6  2  1  0
  7  3  1  0
  8  4  1  0
  9  4  1  0
 10  5  1  0
 11  6  2  0
 12  7  2  0
 13 11  1  0
 14 12  1  0
 15 11  1  0
 16 12  1  0
  5  8  2  0
  9 16  2  0
 10 15  2  0
  6 17  1  0
  7 18  1  0
  8 19  1  0
  9 20  1  0
 10 21  1  0
 13 22  1  0
 13 23  1  0
 14 24  1  0
 14 25  1  0
 15 26  1  0
 16 27  1  0
M  END
> <Uni-Dock RESULT> 
ENERGY=   -4.009  LOWER_BOUND=    5.089  UPPER_BOUND=    7.235
INTER + INTRA:          -4.009
INTER:                  -4.009
INTRA:                   0.000
UNBOUND:                 0.000

$$$$

     RDKit          3D

 27 29  0  0  0  0  0  0  0  0999 V2000
   44.4583    7.9099   12.1104 N   0  0  0  0  0  0  0  0  0  0  0  0
   45.2935    8.9651   12.1153 C   0  0  0  0  0  0  0  0  0  0  0  0
   44.9162    6.7032   12.4916 C   0  0  0  0  0  0  0  0  0  0  0  0
   46.2469    6.4971   12.8968 C   0  0  0  0  0  0  0  0  0  0  0  0
   46.6391    8.8576   12.5092 C   0  0  0  0  0  0  0  0  0  0  0  0
   44.8216   10.2126   11.7235 C   0  0  0  0  0  0  0  0  0  0  0  0
   44.0552    5.6118   12.4855 C   0  0  0  0  0  0  0  0  0  0  0  0
   47.1082    7.5995   12.9016 C   0  0  0  0  0  0  0  0  0  0  0  0
   46.6811    5.2151   13.2689 C   0  0  0  0  0  0  0  0  0  0  0  0
   47.4661    9.9919   12.5136 C   0  0  0  0  0  0  0  0  0  0  0  0
   45.6475   11.3410   11.6654 C   0  0  0  0  0  0  0  0  0  0  0  0
   44.4560    4.3398   12.9097 C   0  0  0  0  0  0  0  0  0  0  0  0
   45.1068   12.5999   11.3770 N   0  0  0  0  0  0  0  0  0  0  0  0
   43.5925    3.2454   12.7790 N   0  0  0  0  0  0  0  0  0  0  0  0
   46.9620   11.2290   12.1130 C   0  0  0  0  0  0  0  0  0  0  0  0
   45.7913    4.1413   13.2533 C   0  0  0  0  0  0  0  0  0  0  0  0
   43.7729   10.2969   11.4497 H   0  0  0  0  0  0  0  0  0  0  0  0
   43.0360    5.7698   12.1420 H   0  0  0  0  0  0  0  0  0  0  0  0
   48.1434    7.4783   13.2106 H   0  0  0  0  0  0  0  0  0  0  0  0
   47.7146    5.0422   13.5591 H   0  0  0  0  0  0  0  0  0  0  0  0
   48.5006    9.9226   12.8408 H   0  0  0  0  0  0  0  0  0  0  0  0
   45.7862   13.2770   11.0451 H   0  0  0  0  0  0  0  0  0  0  0  0
   44.2779   12.5663   10.7907 H   0  0  0  0  0  0  0  0  0  0  0  0
   43.8217    2.4617   13.3821 H   0  0  0  0  0  0  0  0  0  0  0  0
   42.6079    3.4913   12.8239 H   0  0  0  0  0  0  0  0  0  0  0  0
   47.6055   12.1037   12.1533 H   0  0  0  0  0  0  0  0  0  0  0  0
   46.1508    3.1491   13.5125 H   0  0  0  0  0  0  0  0  0  0  0  0
  2  1  2  0
  3  1  1  0
  4  3  2  0
  5  2  1  0
  6  2  1  0
  7  3  1  0
  8  4  1  0
  9  4  1  0
 10  5  1  0
 11  6  2  0
 12  7  2  0
 13 11  1  0
 14 12  1  0
 15 11  1  0
 16 12  1  0
  5  8  2  0
  9 16  2  0
 10 15  2  0
  6 17  1  0
  7 18  1  0
  8 19  1  0
  9 20  1  0
 10 21  1  0
 13 22  1  0
 13 23  1  0
 14 24  1  0
 14 25  1  0
 15 26  1  0
 16 27  1  0
M  END
> <Uni-Dock RESULT> 
ENERGY=   -4.008  LOWER_BOUND=    5.087  UPPER_BOUND=    6.861
INTER + INTRA:          -4.008
INTER:                  -4.008
INTRA:                   0.000
UNBOUND:                 0.000

$$$$
