
     RDKit          3D

 27 29  0  0  0  0  0  0  0  0999 V2000
   44.9343    2.5297   10.0746 N   0  0  0  0  0  0  0  0  0  0  0  0
   44.5397    3.6514   10.7045 C   0  0  0  0  0  0  0  0  0  0  0  0
   45.5971    2.6259    8.9074 C   0  0  0  0  0  0  0  0  0  0  0  0
   45.8998    3.8643    8.3140 C   0  0  0  0  0  0  0  0  0  0  0  0
   44.7923    4.9339   10.1862 C   0  0  0  0  0  0  0  0  0  0  0  0
   43.8534    3.5537   11.9095 C   0  0  0  0  0  0  0  0  0  0  0  0
   46.0070    1.4681    8.2561 C   0  0  0  0  0  0  0  0  0  0  0  0
   45.4841    5.0257    8.9738 C   0  0  0  0  0  0  0  0  0  0  0  0
   46.6091    3.9127    7.1035 C   0  0  0  0  0  0  0  0  0  0  0  0
   44.3446    6.0736   10.8726 C   0  0  0  0  0  0  0  0  0  0  0  0
   43.4523    4.6807   12.6361 C   0  0  0  0  0  0  0  0  0  0  0  0
   46.6625    1.4967    7.0199 C   0  0  0  0  0  0  0  0  0  0  0  0
   42.6639    4.5386   13.7845 N   0  0  0  0  0  0  0  0  0  0  0  0
   47.1596    0.3160    6.4549 N   0  0  0  0  0  0  0  0  0  0  0  0
   43.6600    5.9410   12.0805 C   0  0  0  0  0  0  0  0  0  0  0  0
   47.0045    2.7323    6.4749 C   0  0  0  0  0  0  0  0  0  0  0  0
   43.6333    2.5596   12.2904 H   0  0  0  0  0  0  0  0  0  0  0  0
   45.7980    0.5144    8.7342 H   0  0  0  0  0  0  0  0  0  0  0  0
   45.6988    6.0008    8.5437 H   0  0  0  0  0  0  0  0  0  0  0  0
   46.8693    4.8663    6.6510 H   0  0  0  0  0  0  0  0  0  0  0  0
   44.5135    7.0678   10.4663 H   0  0  0  0  0  0  0  0  0  0  0  0
   42.8094    3.6620   14.2769 H   0  0  0  0  0  0  0  0  0  0  0  0
   42.6906    5.3395   14.4076 H   0  0  0  0  0  0  0  0  0  0  0  0
   47.3214    0.3711    5.4543 H   0  0  0  0  0  0  0  0  0  0  0  0
   46.6378   -0.5157    6.7158 H   0  0  0  0  0  0  0  0  0  0  0  0
   43.2914    6.8311   12.5832 H   0  0  0  0  0  0  0  0  0  0  0  0
   47.5813    2.7870    5.5555 H   0  0  0  0  0  0  0  0  0  0  0  0
  2  1  2  0
  3  1  1  0
  4  3  2  0
  5  2  1  0
  6  2  1  0
  7  3  1  0
  8  4  1  0
  9  4  1  0
 10  5  1  0
 11  6  2  0
 12  7  2  0
 13 11  1  0
 14 12  1  0
 15 11  1  0
 16 12  1  0
  5  8  2  0
  9 16  2  0
 10 15  2  0
  6 17  1  0
  7 18  1  0
  8 19  1  0
  9 20  1  0
 10 21  1  0
 13 22  1  0
 13 23  1  0
 14 24  1  0
 14 25  1  0
 15 26  1  0
 16 27  1  0
M  END
> <Uni-Dock RESULT> 
ENERGY=   -5.208  LOWER_BOUND=    0.000  UPPER_BOUND=    0.000
INTER + INTRA:          -5.208
INTER:                  -5.208
INTRA:                   0.000
UNBOUND:                 0.000

$$$$

     RDKit          3D

 27 29  0  0  0  0  0  0  0  0999 V2000
   43.4312    7.0204   11.1428 N   0  0  0  0  0  0  0  0  0  0  0  0
   43.9642    5.8820   11.6235 C   0  0  0  0  0  0  0  0  0  0  0  0
   44.0503    8.1914   11.3804 C   0  0  0  0  0  0  0  0  0  0  0  0
   45.2457    8.2747   12.1162 C   0  0  0  0  0  0  0  0  0  0  0  0
   45.1531    5.8662   12.3741 C   0  0  0  0  0  0  0  0  0  0  0  0
   43.3249    4.6717   11.3804 C   0  0  0  0  0  0  0  0  0  0  0  0
   43.5020    9.3681   10.8831 C   0  0  0  0  0  0  0  0  0  0  0  0
   45.7921    7.0872   12.6145 C   0  0  0  0  0  0  0  0  0  0  0  0
   45.8628    9.5186   12.3222 C   0  0  0  0  0  0  0  0  0  0  0  0
   45.6598    4.6541   12.8686 C   0  0  0  0  0  0  0  0  0  0  0  0
   43.8478    3.4484   11.8153 C   0  0  0  0  0  0  0  0  0  0  0  0
   44.0721   10.6223   11.1296 C   0  0  0  0  0  0  0  0  0  0  0  0
   43.1151    2.2667   11.6498 N   0  0  0  0  0  0  0  0  0  0  0  0
   43.5536   11.7686   10.5151 N   0  0  0  0  0  0  0  0  0  0  0  0
   44.9949    3.4566   12.6055 C   0  0  0  0  0  0  0  0  0  0  0  0
   45.2857   10.6808   11.8111 C   0  0  0  0  0  0  0  0  0  0  0  0
   42.3899    4.6925   10.8263 H   0  0  0  0  0  0  0  0  0  0  0  0
   42.5948    9.2952   10.2887 H   0  0  0  0  0  0  0  0  0  0  0  0
   46.7143    7.1134   13.1895 H   0  0  0  0  0  0  0  0  0  0  0  0
   46.8003    9.5890   12.8681 H   0  0  0  0  0  0  0  0  0  0  0  0
   46.5646    4.6358   13.4711 H   0  0  0  0  0  0  0  0  0  0  0  0
   42.4929    2.2782   10.8469 H   0  0  0  0  0  0  0  0  0  0  0  0
   43.6762    1.4217   11.6905 H   0  0  0  0  0  0  0  0  0  0  0  0
   43.8023   12.6364   10.9791 H   0  0  0  0  0  0  0  0  0  0  0  0
   42.5602   11.7114   10.3107 H   0  0  0  0  0  0  0  0  0  0  0  0
   45.3818    2.5309   13.0228 H   0  0  0  0  0  0  0  0  0  0  0  0
   45.7925   11.6319   11.9509 H   0  0  0  0  0  0  0  0  0  0  0  0
  2  1  2  0
  3  1  1  0
  4  3  2  0
  5  2  1  0
  6  2  1  0
  7  3  1  0
  8  4  1  0
  9  4  1  0
 10  5  1  0
 11  6  2  0
 12  7  2  0
 13 11  1  0
 14 12  1  0
 15 11  1  0
 16 12  1  0
  5  8  2  0
  9 16  2  0
 10 15  2  0
  6 17  1  0
  7 18  1  0
  8 19  1  0
  9 20  1  0
 10 21  1  0
 13 22  1  0
 13 23  1  0
 14 24  1  0
 14 25  1  0
 15 26  1  0
 16 27  1  0
M  END
> <Uni-Dock RESULT> 
ENERGY=   -4.437  LOWER_BOUND=    3.829  UPPER_BOUND=    6.393
INTER + INTRA:          -4.437
INTER:                  -4.437
INTRA:                   0.000
UNBOUND:                 0.000

$$$$

     RDKit          3D

 27 29  0  0  0  0  0  0  0  0999 V2000
   43.4329    7.0182   11.1424 N   0  0  0  0  0  0  0  0  0  0  0  0
   44.0522    8.1890   11.3801 C   0  0  0  0  0  0  0  0  0  0  0  0
   43.9657    5.8797   11.6227 C   0  0  0  0  0  0  0  0  0  0  0  0
   45.1547    5.8635   12.3732 C   0  0  0  0  0  0  0  0  0  0  0  0
   45.2476    8.2720   12.1159 C   0  0  0  0  0  0  0  0  0  0  0  0
   43.5039    9.3660   10.8832 C   0  0  0  0  0  0  0  0  0  0  0  0
   43.3263    4.6694   11.3795 C   0  0  0  0  0  0  0  0  0  0  0  0
   45.7938    7.0844   12.6140 C   0  0  0  0  0  0  0  0  0  0  0  0
   45.6613    4.6512   12.8675 C   0  0  0  0  0  0  0  0  0  0  0  0
   45.8648    9.5158   12.3220 C   0  0  0  0  0  0  0  0  0  0  0  0
   44.0743   10.6200   11.1298 C   0  0  0  0  0  0  0  0  0  0  0  0
   43.8490    3.4461   11.8141 C   0  0  0  0  0  0  0  0  0  0  0  0
   43.5558   11.7665   10.5156 N   0  0  0  0  0  0  0  0  0  0  0  0
   43.1162    2.2645   11.6485 N   0  0  0  0  0  0  0  0  0  0  0  0
   45.2879   10.6783   11.8112 C   0  0  0  0  0  0  0  0  0  0  0  0
   44.9963    3.4540   12.6042 C   0  0  0  0  0  0  0  0  0  0  0  0
   42.5966    9.2932   10.2888 H   0  0  0  0  0  0  0  0  0  0  0  0
   42.3912    4.6905   10.8255 H   0  0  0  0  0  0  0  0  0  0  0  0
   46.7162    7.1103   13.1888 H   0  0  0  0  0  0  0  0  0  0  0  0
   46.5661    4.6328   13.4700 H   0  0  0  0  0  0  0  0  0  0  0  0
   46.8024    9.5861   12.8679 H   0  0  0  0  0  0  0  0  0  0  0  0
   42.5623   11.7095   10.3113 H   0  0  0  0  0  0  0  0  0  0  0  0
   43.8046   12.6343   10.9798 H   0  0  0  0  0  0  0  0  0  0  0  0
   43.6772    1.4194   11.6889 H   0  0  0  0  0  0  0  0  0  0  0  0
   42.4939    2.2761   10.8456 H   0  0  0  0  0  0  0  0  0  0  0  0
   45.7948   11.6293   11.9511 H   0  0  0  0  0  0  0  0  0  0  0  0
   45.3831    2.5281   13.0213 H   0  0  0  0  0  0  0  0  0  0  0  0
  2  1  2  0
  3  1  1  0
  4  3  2  0
  5  2  1  0
  6  2  1  0
  7  3  1  0
  8  4  1  0
  9  4  1  0
 10  5  1  0
 11  6  2  0
 12  7  2  0
 13 11  1  0
 14 12  1  0
 15 11  1  0
 16 12  1  0
  5  8  2  0
  9 16  2  0
 10 15  2  0
  6 17  1  0
  7 18  1  0
  8 19  1  0
  9 20  1  0
 10 21  1  0
 13 22  1  0
 13 23  1  0
 14 24  1  0
 14 25  1  0
 15 26  1  0
 16 27  1  0
M  END
> <Uni-Dock RESULT> 
ENERGY=   -4.435  LOWER_BOUND=    3.827  UPPER_BOUND=    5.494
INTER + INTRA:          -4.435
INTER:                  -4.435
INTRA:                   0.000
UNBOUND:                 0.000

$$$$

     RDKit          3D

 27 29  0  0  0  0  0  0  0  0999 V2000
   46.6862    5.2071   13.1831 N   0  0  0  0  0  0  0  0  0  0  0  0
   47.1807    6.4477   13.3476 C   0  0  0  0  0  0  0  0  0  0  0  0
   45.4520    5.0506   12.6699 C   0  0  0  0  0  0  0  0  0  0  0  0
   44.6504    6.1423   12.2921 C   0  0  0  0  0  0  0  0  0  0  0  0
   46.4517    7.5999   13.0038 C   0  0  0  0  0  0  0  0  0  0  0  0
   48.4548    6.6111   13.8792 C   0  0  0  0  0  0  0  0  0  0  0  0
   44.9402    3.7695   12.4977 C   0  0  0  0  0  0  0  0  0  0  0  0
   45.1706    7.4289   12.4686 C   0  0  0  0  0  0  0  0  0  0  0  0
   43.3758    5.9265   11.7449 C   0  0  0  0  0  0  0  0  0  0  0  0
   47.0049    8.8733   13.2109 C   0  0  0  0  0  0  0  0  0  0  0  0
   49.0442    7.8707   14.0369 C   0  0  0  0  0  0  0  0  0  0  0  0
   43.6492    3.5386   12.0092 C   0  0  0  0  0  0  0  0  0  0  0  0
   50.2806    7.9978   14.6818 N   0  0  0  0  0  0  0  0  0  0  0  0
   43.2161    2.2340   11.7430 N   0  0  0  0  0  0  0  0  0  0  0  0
   48.2868    9.0027   13.7449 C   0  0  0  0  0  0  0  0  0  0  0  0
   42.8912    4.6284   11.5869 C   0  0  0  0  0  0  0  0  0  0  0  0
   49.0020    5.7187   14.1723 H   0  0  0  0  0  0  0  0  0  0  0  0
   45.5757    2.9281   12.7622 H   0  0  0  0  0  0  0  0  0  0  0  0
   44.5785    8.2969   12.1895 H   0  0  0  0  0  0  0  0  0  0  0  0
   42.7598    6.7639   11.4267 H   0  0  0  0  0  0  0  0  0  0  0  0
   46.4383    9.7698   12.9715 H   0  0  0  0  0  0  0  0  0  0  0  0
   50.8795    7.1828   14.5861 H   0  0  0  0  0  0  0  0  0  0  0  0
   50.7701    8.8624   14.4736 H   0  0  0  0  0  0  0  0  0  0  0  0
   42.2069    2.1314   11.7062 H   0  0  0  0  0  0  0  0  0  0  0  0
   43.6543    1.5283   12.3277 H   0  0  0  0  0  0  0  0  0  0  0  0
   48.6881    9.9955   13.9297 H   0  0  0  0  0  0  0  0  0  0  0  0
   41.9162    4.4766   11.1315 H   0  0  0  0  0  0  0  0  0  0  0  0
  2  1  2  0
  3  1  1  0
  4  3  2  0
  5  2  1  0
  6  2  1  0
  7  3  1  0
  8  4  1  0
  9  4  1  0
 10  5  1  0
 11  6  2  0
 12  7  2  0
 13 11  1  0
 14 12  1  0
 15 11  1  0
 16 12  1  0
  5  8  2  0
  9 16  2  0
 10 15  2  0
  6 17  1  0
  7 18  1  0
  8 19  1  0
  9 20  1  0
 10 21  1  0
 13 22  1  0
 13 23  1  0
 14 24  1  0
 14 25  1  0
 15 26  1  0
 16 27  1  0
M  END
> <Uni-Dock RESULT> 
ENERGY=   -4.379  LOWER_BOUND=    3.995  UPPER_BOUND=    5.674
INTER + INTRA:          -4.379
INTER:                  -4.379
INTRA:                   0.000
UNBOUND:                 0.000

$$$$

     RDKit          3D

 27 29  0  0  0  0  0  0  0  0999 V2000
   46.6862    5.2071   13.1826 N   0  0  0  0  0  0  0  0  0  0  0  0
   45.4520    5.0506   12.6697 C   0  0  0  0  0  0  0  0  0  0  0  0
   47.1808    6.4478   13.3471 C   0  0  0  0  0  0  0  0  0  0  0  0
   46.4516    7.6000   13.0034 C   0  0  0  0  0  0  0  0  0  0  0  0
   44.6502    6.1423   12.2920 C   0  0  0  0  0  0  0  0  0  0  0  0
   44.9403    3.7695   12.4976 C   0  0  0  0  0  0  0  0  0  0  0  0
   48.4549    6.6113   13.8785 C   0  0  0  0  0  0  0  0  0  0  0  0
   45.1704    7.4289   12.4685 C   0  0  0  0  0  0  0  0  0  0  0  0
   47.0048    8.8735   13.2104 C   0  0  0  0  0  0  0  0  0  0  0  0
   43.3756    5.9264   11.7450 C   0  0  0  0  0  0  0  0  0  0  0  0
   43.6491    3.5385   12.0092 C   0  0  0  0  0  0  0  0  0  0  0  0
   49.0443    7.8708   14.0362 C   0  0  0  0  0  0  0  0  0  0  0  0
   43.2161    2.2339   11.7431 N   0  0  0  0  0  0  0  0  0  0  0  0
   50.2807    7.9981   14.6808 N   0  0  0  0  0  0  0  0  0  0  0  0
   42.8910    4.6282   11.5870 C   0  0  0  0  0  0  0  0  0  0  0  0
   48.2867    9.0028   13.7442 C   0  0  0  0  0  0  0  0  0  0  0  0
   45.5758    2.9282   12.7620 H   0  0  0  0  0  0  0  0  0  0  0  0
   49.0023    5.7189   14.1715 H   0  0  0  0  0  0  0  0  0  0  0  0
   44.5783    8.2968   12.1894 H   0  0  0  0  0  0  0  0  0  0  0  0
   46.4380    9.7698   12.9712 H   0  0  0  0  0  0  0  0  0  0  0  0
   42.7594    6.7637   11.4270 H   0  0  0  0  0  0  0  0  0  0  0  0
   43.6545    1.5282   12.3278 H   0  0  0  0  0  0  0  0  0  0  0  0
   42.2068    2.1312   11.7065 H   0  0  0  0  0  0  0  0  0  0  0  0
   50.7701    8.8626   14.4725 H   0  0  0  0  0  0  0  0  0  0  0  0
   50.8797    7.1832   14.5849 H   0  0  0  0  0  0  0  0  0  0  0  0
   41.9160    4.4764   11.1319 H   0  0  0  0  0  0  0  0  0  0  0  0
   48.6880    9.9957   13.9290 H   0  0  0  0  0  0  0  0  0  0  0  0
  2  1  2  0
  3  1  1  0
  4  3  2  0
  5  2  1  0
  6  2  1  0
  7  3  1  0
  8  4  1  0
  9  4  1  0
 10  5  1  0
 11  6  2  0
 12  7  2  0
 13 11  1  0
 14 12  1  0
 15 11  1  0
 16 12  1  0
  5  8  2  0
  9 16  2  0
 10 15  2  0
  6 17  1  0
  7 18  1  0
  8 19  1  0
  9 20  1  0
 10 21  1  0
 13 22  1  0
 13 23  1  0
 14 24  1  0
 14 25  1  0
 15 26  1  0
 16 27  1  0
M  END
> <Uni-Dock RESULT> 
ENERGY=   -4.379  LOWER_BOUND=    3.995  UPPER_BOUND=    6.087
INTER + INTRA:          -4.379
INTER:                  -4.379
INTRA:                   0.000
UNBOUND:                 0.000

$$$$

     RDKit          3D

 27 29  0  0  0  0  0  0  0  0999 V2000
   46.3981    6.2245   13.2948 N   0  0  0  0  0  0  0  0  0  0  0  0
   45.2684    5.7476   12.7407 C   0  0  0  0  0  0  0  0  0  0  0  0
   46.7292    7.5160   13.1124 C   0  0  0  0  0  0  0  0  0  0  0  0
   45.9328    8.3978   12.3604 C   0  0  0  0  0  0  0  0  0  0  0  0
   44.4115    6.5517   11.9684 C   0  0  0  0  0  0  0  0  0  0  0  0
   44.9258    4.4131   12.9269 C   0  0  0  0  0  0  0  0  0  0  0  0
   47.8951    8.0109   13.6856 C   0  0  0  0  0  0  0  0  0  0  0  0
   44.7612    7.8938   11.7855 C   0  0  0  0  0  0  0  0  0  0  0  0
   46.3122    9.7414   12.2135 C   0  0  0  0  0  0  0  0  0  0  0  0
   43.2530    6.0027   11.3968 C   0  0  0  0  0  0  0  0  0  0  0  0
   43.7447    3.8649   12.4138 C   0  0  0  0  0  0  0  0  0  0  0  0
   48.3184    9.3318   13.4998 C   0  0  0  0  0  0  0  0  0  0  0  0
   43.4948    2.4918   12.5258 N   0  0  0  0  0  0  0  0  0  0  0  0
   49.4358    9.8204   14.1877 N   0  0  0  0  0  0  0  0  0  0  0  0
   42.9370    4.6602   11.6041 C   0  0  0  0  0  0  0  0  0  0  0  0
   47.4892   10.2057   12.8002 C   0  0  0  0  0  0  0  0  0  0  0  0
   45.6071    3.7881   13.4985 H   0  0  0  0  0  0  0  0  0  0  0  0
   48.4911    7.3334   14.2917 H   0  0  0  0  0  0  0  0  0  0  0  0
   44.1218    8.5459   11.1958 H   0  0  0  0  0  0  0  0  0  0  0  0
   45.6894   10.4357   11.6551 H   0  0  0  0  0  0  0  0  0  0  0  0
   42.5984    6.6110   10.7774 H   0  0  0  0  0  0  0  0  0  0  0  0
   43.9242    2.0611   13.3395 H   0  0  0  0  0  0  0  0  0  0  0  0
   42.5167    2.2388   12.4270 H   0  0  0  0  0  0  0  0  0  0  0  0
   49.8524   10.6458   13.7689 H   0  0  0  0  0  0  0  0  0  0  0  0
   50.1267    9.1086   14.4070 H   0  0  0  0  0  0  0  0  0  0  0  0
   42.0543    4.2421   11.1279 H   0  0  0  0  0  0  0  0  0  0  0  0
   47.7523   11.2558   12.7050 H   0  0  0  0  0  0  0  0  0  0  0  0
  2  1  2  0
  3  1  1  0
  4  3  2  0
  5  2  1  0
  6  2  1  0
  7  3  1  0
  8  4  1  0
  9  4  1  0
 10  5  1  0
 11  6  2  0
 12  7  2  0
 13 11  1  0
 14 12  1  0
 15 11  1  0
 16 12  1  0
  5  8  2  0
  9 16  2  0
 10 15  2  0
  6 17  1  0
  7 18  1  0
  8 19  1  0
  9 20  1  0
 10 21  1  0
 13 22  1  0
 13 23  1  0
 14 24  1  0
 14 25  1  0
 15 26  1  0
 16 27  1  0
M  END
> <Uni-Dock RESULT> 
ENERGY=   -4.050  LOWER_BOUND=    4.203  UPPER_BOUND=    6.350
INTER + INTRA:          -4.050
INTER:                  -4.050
INTRA:                   0.000
UNBOUND:                 0.000

$$$$

     RDKit          3D

 27 29  0  0  0  0  0  0  0  0999 V2000
   44.4824    7.9863   12.0838 N   0  0  0  0  0  0  0  0  0  0  0  0
   44.9455    6.7867   12.4801 C   0  0  0  0  0  0  0  0  0  0  0  0
   45.3091    9.0482   12.0892 C   0  0  0  0  0  0  0  0  0  0  0  0
   46.6524    8.9537   12.4941 C   0  0  0  0  0  0  0  0  0  0  0  0
   46.2717    6.5956   12.9067 C   0  0  0  0  0  0  0  0  0  0  0  0
   44.0923    5.6891   12.4767 C   0  0  0  0  0  0  0  0  0  0  0  0
   44.8328   10.2880   11.6784 C   0  0  0  0  0  0  0  0  0  0  0  0
   47.1256    7.7037   12.9071 C   0  0  0  0  0  0  0  0  0  0  0  0
   47.4800   10.0873   12.4653 C   0  0  0  0  0  0  0  0  0  0  0  0
   46.7023    5.3275   13.3274 C   0  0  0  0  0  0  0  0  0  0  0  0
   44.5213    4.4063   12.8364 C   0  0  0  0  0  0  0  0  0  0  0  0
   45.6275   11.4398   11.7000 C   0  0  0  0  0  0  0  0  0  0  0  0
   43.6032    3.3533   12.9298 N   0  0  0  0  0  0  0  0  0  0  0  0
   45.1448   12.6427   11.1702 N   0  0  0  0  0  0  0  0  0  0  0  0
   45.8214    4.2464   13.3104 C   0  0  0  0  0  0  0  0  0  0  0  0
   46.9704   11.3170   12.0493 C   0  0  0  0  0  0  0  0  0  0  0  0
   43.0599    5.8483   12.1757 H   0  0  0  0  0  0  0  0  0  0  0  0
   43.8026   10.3494   11.3369 H   0  0  0  0  0  0  0  0  0  0  0  0
   48.1581    7.5933   13.2288 H   0  0  0  0  0  0  0  0  0  0  0  0
   48.5262   10.0176   12.7525 H   0  0  0  0  0  0  0  0  0  0  0  0
   47.7187    5.1765   13.6827 H   0  0  0  0  0  0  0  0  0  0  0  0
   42.8038    3.4490   12.3102 H   0  0  0  0  0  0  0  0  0  0  0  0
   44.0234    2.4307   12.8770 H   0  0  0  0  0  0  0  0  0  0  0  0
   45.6311   13.4682   11.5054 H   0  0  0  0  0  0  0  0  0  0  0  0
   44.1352   12.7405   11.2263 H   0  0  0  0  0  0  0  0  0  0  0  0
   46.1604    3.2786   13.6699 H   0  0  0  0  0  0  0  0  0  0  0  0
   47.6319   12.1779   12.0013 H   0  0  0  0  0  0  0  0  0  0  0  0
  2  1  2  0
  3  1  1  0
  4  3  2  0
  5  2  1  0
  6  2  1  0
  7  3  1  0
  8  4  1  0
  9  4  1  0
 10  5  1  0
 11  6  2  0
 12  7  2  0
 13 11  1  0
 14 12  1  0
 15 11  1  0
 16 12  1  0
  5  8  2  0
  9 16  2  0
 10 15  2  0
  6 17  1  0
  7 18  1  0
  8 19  1  0
  9 20  1  0
 10 21  1  0
 13 22  1  0
 13 23  1  0
 14 24  1  0
 14 25  1  0
 15 26  1  0
 16 27  1  0
M  END
> <Uni-Dock RESULT> 
ENERGY=   -3.977  LOWER_BOUND=    4.458  UPPER_BOUND=    6.955
INTER + INTRA:          -3.977
INTER:                  -3.977
INTRA:                   0.000
UNBOUND:                 0.000

$$$$

     RDKit          3D

 27 29  0  0  0  0  0  0  0  0999 V2000
   44.4777    7.4195   11.7728 N   0  0  0  0  0  0  0  0  0  0  0  0
   45.5315    6.9797   12.4848 C   0  0  0  0  0  0  0  0  0  0  0  0
   44.3555    8.7352   11.5180 C   0  0  0  0  0  0  0  0  0  0  0  0
   45.2957    9.6792   11.9679 C   0  0  0  0  0  0  0  0  0  0  0  0
   46.5197    7.8485   12.9808 C   0  0  0  0  0  0  0  0  0  0  0  0
   45.6583    5.6210   12.7504 C   0  0  0  0  0  0  0  0  0  0  0  0
   43.2684    9.1911   10.7811 C   0  0  0  0  0  0  0  0  0  0  0  0
   46.3870    9.2144   12.7094 C   0  0  0  0  0  0  0  0  0  0  0  0
   45.1330   11.0393   11.6610 C   0  0  0  0  0  0  0  0  0  0  0  0
   47.5912    7.3426   13.7335 C   0  0  0  0  0  0  0  0  0  0  0  0
   46.7509    5.0935   13.4481 C   0  0  0  0  0  0  0  0  0  0  0  0
   43.0597   10.5496   10.5171 C   0  0  0  0  0  0  0  0  0  0  0  0
   46.7818    3.7369   13.7936 N   0  0  0  0  0  0  0  0  0  0  0  0
   42.0170   10.9550    9.6752 N   0  0  0  0  0  0  0  0  0  0  0  0
   47.6900    5.9736   13.9809 C   0  0  0  0  0  0  0  0  0  0  0  0
   44.0299   11.4641   10.9210 C   0  0  0  0  0  0  0  0  0  0  0  0
   44.8757    4.9574   12.3915 H   0  0  0  0  0  0  0  0  0  0  0  0
   42.5610    8.4542   10.4091 H   0  0  0  0  0  0  0  0  0  0  0  0
   47.1328    9.9155   13.0754 H   0  0  0  0  0  0  0  0  0  0  0  0
   45.8683   11.7723   11.9833 H   0  0  0  0  0  0  0  0  0  0  0  0
   48.3459    8.0101   14.1421 H   0  0  0  0  0  0  0  0  0  0  0  0
   46.2728    3.1375   13.1504 H   0  0  0  0  0  0  0  0  0  0  0  0
   47.7106    3.3820   13.9980 H   0  0  0  0  0  0  0  0  0  0  0  0
   41.7430   11.9254    9.7920 H   0  0  0  0  0  0  0  0  0  0  0  0
   41.2191   10.3261    9.6774 H   0  0  0  0  0  0  0  0  0  0  0  0
   48.5073    5.6015   14.5927 H   0  0  0  0  0  0  0  0  0  0  0  0
   43.9353   12.5157   10.6636 H   0  0  0  0  0  0  0  0  0  0  0  0
  2  1  2  0
  3  1  1  0
  4  3  2  0
  5  2  1  0
  6  2  1  0
  7  3  1  0
  8  4  1  0
  9  4  1  0
 10  5  1  0
 11  6  2  0
 12  7  2  0
 13 11  1  0
 14 12  1  0
 15 11  1  0
 16 12  1  0
  5  8  2  0
  9 16  2  0
 10 15  2  0
  6 17  1  0
  7 18  1  0
  8 19  1  0
  9 20  1  0
 10 21  1  0
 13 22  1  0
 13 23  1  0
 14 24  1  0
 14 25  1  0
 15 26  1  0
 16 27  1  0
M  END
> <Uni-Dock RESULT> 
ENERGY=   -3.909  LOWER_BOUND=    4.844  UPPER_BOUND=    6.956
INTER + INTRA:          -3.909
INTER:                  -3.909
INTRA:                   0.000
UNBOUND:                 0.000

$$$$

     RDKit          3D

 27 29  0  0  0  0  0  0  0  0999 V2000
   44.4766    7.4196   11.7723 N   0  0  0  0  0  0  0  0  0  0  0  0
   44.3539    8.7353   11.5181 C   0  0  0  0  0  0  0  0  0  0  0  0
   45.5309    6.9799   12.4837 C   0  0  0  0  0  0  0  0  0  0  0  0
   46.5189    7.8488   12.9799 C   0  0  0  0  0  0  0  0  0  0  0  0
   45.2938    9.6795   11.9682 C   0  0  0  0  0  0  0  0  0  0  0  0
   43.2663    9.1910   10.7818 C   0  0  0  0  0  0  0  0  0  0  0  0
   45.6583    5.6211   12.7489 C   0  0  0  0  0  0  0  0  0  0  0  0
   46.3855    9.2148   12.7092 C   0  0  0  0  0  0  0  0  0  0  0  0
   47.5909    7.3431   13.7320 C   0  0  0  0  0  0  0  0  0  0  0  0
   45.1304   11.0396   11.6619 C   0  0  0  0  0  0  0  0  0  0  0  0
   43.0570   10.5496   10.5184 C   0  0  0  0  0  0  0  0  0  0  0  0
   46.7513    5.0937   13.4459 C   0  0  0  0  0  0  0  0  0  0  0  0
   42.0138   10.9548    9.6770 N   0  0  0  0  0  0  0  0  0  0  0  0
   46.7829    3.7370   13.7909 N   0  0  0  0  0  0  0  0  0  0  0  0
   44.0269   11.4644   10.9223 C   0  0  0  0  0  0  0  0  0  0  0  0
   47.6902    5.9741   13.9787 C   0  0  0  0  0  0  0  0  0  0  0  0
   42.5592    8.4540   10.4098 H   0  0  0  0  0  0  0  0  0  0  0  0
   44.8759    4.9573   12.3899 H   0  0  0  0  0  0  0  0  0  0  0  0
   47.1312    9.9161   13.0751 H   0  0  0  0  0  0  0  0  0  0  0  0
   48.3453    8.0108   14.1407 H   0  0  0  0  0  0  0  0  0  0  0  0
   45.8655   11.7729   11.9842 H   0  0  0  0  0  0  0  0  0  0  0  0
   41.2162   10.3256    9.6792 H   0  0  0  0  0  0  0  0  0  0  0  0
   41.7394   11.9251    9.7943 H   0  0  0  0  0  0  0  0  0  0  0  0
   47.7119    3.3825   13.9948 H   0  0  0  0  0  0  0  0  0  0  0  0
   46.2741    3.1376   13.1476 H   0  0  0  0  0  0  0  0  0  0  0  0
   43.9318   12.5159   10.6655 H   0  0  0  0  0  0  0  0  0  0  0  0
   48.5079    5.6020   14.5902 H   0  0  0  0  0  0  0  0  0  0  0  0
  2  1  2  0
  3  1  1  0
  4  3  2  0
  5  2  1  0
  6  2  1  0
  7  3  1  0
  8  4  1  0
  9  4  1  0
 10  5  1  0
 11  6  2  0
 12  7  2  0
 13 11  1  0
 14 12  1  0
 15 11  1  0
 16 12  1  0
  5  8  2  0
  9 16  2  0
 10 15  2  0
  6 17  1  0
  7 18  1  0
  8 19  1  0
  9 20  1  0
 10 21  1  0
 13 22  1  0
 13 23  1  0
 14 24  1  0
 14 25  1  0
 15 26  1  0
 16 27  1  0
M  END
> <Uni-Dock RESULT> 
ENERGY=   -3.908  LOWER_BOUND=    4.843  UPPER_BOUND=    6.383
INTER + INTRA:          -3.908
INTER:                  -3.908
INTRA:                   0.000
UNBOUND:                 0.000

$$$$
