
     RDKit          3D

 27 29  0  0  0  0  0  0  0  0999 V2000
   45.3303    4.4763    8.4389 N   0  0  0  0  0  0  0  0  0  0  0  0
   44.5704    4.3043    9.5362 C   0  0  0  0  0  0  0  0  0  0  0  0
   45.9493    3.4145    7.8910 C   0  0  0  0  0  0  0  0  0  0  0  0
   45.8312    2.1179    8.4224 C   0  0  0  0  0  0  0  0  0  0  0  0
   44.3969    3.0471   10.1416 C   0  0  0  0  0  0  0  0  0  0  0  0
   43.9315    5.4004   10.1044 C   0  0  0  0  0  0  0  0  0  0  0  0
   46.7334    3.5902    6.7565 C   0  0  0  0  0  0  0  0  0  0  0  0
   45.0416    1.9478    9.5646 C   0  0  0  0  0  0  0  0  0  0  0  0
   46.4829    1.0394    7.8039 C   0  0  0  0  0  0  0  0  0  0  0  0
   43.6079    2.9222   11.2958 C   0  0  0  0  0  0  0  0  0  0  0  0
   43.0941    5.2836   11.2196 C   0  0  0  0  0  0  0  0  0  0  0  0
   47.4372    2.5365    6.1625 C   0  0  0  0  0  0  0  0  0  0  0  0
   42.5632    6.4270   11.8289 N   0  0  0  0  0  0  0  0  0  0  0  0
   48.1211    2.7331    4.9565 N   0  0  0  0  0  0  0  0  0  0  0  0
   42.9791    4.0418   11.8401 C   0  0  0  0  0  0  0  0  0  0  0  0
   47.2635    1.2500    6.6675 C   0  0  0  0  0  0  0  0  0  0  0  0
   44.0938    6.3751    9.6511 H   0  0  0  0  0  0  0  0  0  0  0  0
   46.7964    4.5888    6.3314 H   0  0  0  0  0  0  0  0  0  0  0  0
   44.9289    0.9600   10.0043 H   0  0  0  0  0  0  0  0  0  0  0  0
   46.3765    0.0300    8.1935 H   0  0  0  0  0  0  0  0  0  0  0  0
   43.4891    1.9583   11.7848 H   0  0  0  0  0  0  0  0  0  0  0  0
   41.7429    6.2498   12.4000 H   0  0  0  0  0  0  0  0  0  0  0  0
   42.4284    7.2069   11.1920 H   0  0  0  0  0  0  0  0  0  0  0  0
   48.4534    3.6837    4.8230 H   0  0  0  0  0  0  0  0  0  0  0  0
   48.8423    2.0432    4.7715 H   0  0  0  0  0  0  0  0  0  0  0  0
   42.3985    3.9345   12.7524 H   0  0  0  0  0  0  0  0  0  0  0  0
   47.7349    0.4001    6.1813 H   0  0  0  0  0  0  0  0  0  0  0  0
  2  1  2  0
  3  1  1  0
  4  3  2  0
  5  2  1  0
  6  2  1  0
  7  3  1  0
  8  4  1  0
  9  4  1  0
 10  5  1  0
 11  6  2  0
 12  7  2  0
 13 11  1  0
 14 12  1  0
 15 11  1  0
 16 12  1  0
  5  8  2  0
  9 16  2  0
 10 15  2  0
  6 17  1  0
  7 18  1  0
  8 19  1  0
  9 20  1  0
 10 21  1  0
 13 22  1  0
 13 23  1  0
 14 24  1  0
 14 25  1  0
 15 26  1  0
 16 27  1  0
M  END
> <Uni-Dock RESULT> 
ENERGY=   -6.907  LOWER_BOUND=    0.000  UPPER_BOUND=    0.000
INTER + INTRA:          -6.907
INTER:                  -6.907
INTRA:                   0.000
UNBOUND:                 0.000

$$$$

     RDKit          3D

 27 29  0  0  0  0  0  0  0  0999 V2000
   43.4298    7.0170   11.1422 N   0  0  0  0  0  0  0  0  0  0  0  0
   44.0483    8.1884   11.3797 C   0  0  0  0  0  0  0  0  0  0  0  0
   43.9634    5.8789   11.6227 C   0  0  0  0  0  0  0  0  0  0  0  0
   45.1525    5.8636   12.3731 C   0  0  0  0  0  0  0  0  0  0  0  0
   45.2437    8.2723   12.1152 C   0  0  0  0  0  0  0  0  0  0  0  0
   43.4993    9.3648   10.8826 C   0  0  0  0  0  0  0  0  0  0  0  0
   43.3247    4.6682   11.3796 C   0  0  0  0  0  0  0  0  0  0  0  0
   45.7908    7.0850   12.6134 C   0  0  0  0  0  0  0  0  0  0  0  0
   45.6599    4.6517   12.8674 C   0  0  0  0  0  0  0  0  0  0  0  0
   45.8602    9.5165   12.3211 C   0  0  0  0  0  0  0  0  0  0  0  0
   44.0688   10.6193   11.1290 C   0  0  0  0  0  0  0  0  0  0  0  0
   43.8483    3.4453   11.8144 C   0  0  0  0  0  0  0  0  0  0  0  0
   43.5495   11.7653   10.5147 N   0  0  0  0  0  0  0  0  0  0  0  0
   43.1163    2.2632   11.6490 N   0  0  0  0  0  0  0  0  0  0  0  0
   45.2824   10.6785   11.8103 C   0  0  0  0  0  0  0  0  0  0  0  0
   44.9956    3.4540   12.6043 C   0  0  0  0  0  0  0  0  0  0  0  0
   42.5919    9.2914   10.2884 H   0  0  0  0  0  0  0  0  0  0  0  0
   42.3895    4.6885   10.8257 H   0  0  0  0  0  0  0  0  0  0  0  0
   46.7132    7.1116   13.1882 H   0  0  0  0  0  0  0  0  0  0  0  0
   46.5648    4.6339   13.4697 H   0  0  0  0  0  0  0  0  0  0  0  0
   46.7978    9.5873   12.8669 H   0  0  0  0  0  0  0  0  0  0  0  0
   43.7977   12.6333   10.9788 H   0  0  0  0  0  0  0  0  0  0  0  0
   42.5560   11.7076   10.3105 H   0  0  0  0  0  0  0  0  0  0  0  0
   42.4938    2.2743   10.8462 H   0  0  0  0  0  0  0  0  0  0  0  0
   43.6778    1.4185   11.6894 H   0  0  0  0  0  0  0  0  0  0  0  0
   45.7887   11.6298   11.9500 H   0  0  0  0  0  0  0  0  0  0  0  0
   45.3830    2.5284   13.0215 H   0  0  0  0  0  0  0  0  0  0  0  0
  2  1  2  0
  3  1  1  0
  4  3  2  0
  5  2  1  0
  6  2  1  0
  7  3  1  0
  8  4  1  0
  9  4  1  0
 10  5  1  0
 11  6  2  0
 12  7  2  0
 13 11  1  0
 14 12  1  0
 15 11  1  0
 16 12  1  0
  5  8  2  0
  9 16  2  0
 10 15  2  0
  6 17  1  0
  7 18  1  0
  8 19  1  0
  9 20  1  0
 10 21  1  0
 13 22  1  0
 13 23  1  0
 14 24  1  0
 14 25  1  0
 15 26  1  0
 16 27  1  0
M  END
> <Uni-Dock RESULT> 
ENERGY=   -4.439  LOWER_BOUND=    4.321  UPPER_BOUND=    5.963
INTER + INTRA:          -4.439
INTER:                  -4.439
INTRA:                   0.000
UNBOUND:                 0.000

$$$$

     RDKit          3D

 27 29  0  0  0  0  0  0  0  0999 V2000
   43.4286    7.0209   11.1420 N   0  0  0  0  0  0  0  0  0  0  0  0
   43.9630    5.8831   11.6224 C   0  0  0  0  0  0  0  0  0  0  0  0
   44.0470    8.1925   11.3787 C   0  0  0  0  0  0  0  0  0  0  0  0
   45.2431    8.2770   12.1132 C   0  0  0  0  0  0  0  0  0  0  0  0
   45.1528    5.8684   12.3716 C   0  0  0  0  0  0  0  0  0  0  0  0
   43.3246    4.6721   11.3802 C   0  0  0  0  0  0  0  0  0  0  0  0
   43.4970    9.3686   10.8818 C   0  0  0  0  0  0  0  0  0  0  0  0
   45.7909    7.0901   12.6112 C   0  0  0  0  0  0  0  0  0  0  0  0
   45.8592    9.5215   12.3182 C   0  0  0  0  0  0  0  0  0  0  0  0
   45.6610    4.6569   12.8659 C   0  0  0  0  0  0  0  0  0  0  0  0
   43.8489    3.4495   11.8148 C   0  0  0  0  0  0  0  0  0  0  0  0
   44.0664   10.6233   11.1274 C   0  0  0  0  0  0  0  0  0  0  0  0
   43.1172    2.2671   11.6503 N   0  0  0  0  0  0  0  0  0  0  0  0
   43.5462   11.7691   10.5131 N   0  0  0  0  0  0  0  0  0  0  0  0
   44.9969    3.4588   12.6037 C   0  0  0  0  0  0  0  0  0  0  0  0
   45.2806   10.6832   11.8075 C   0  0  0  0  0  0  0  0  0  0  0  0
   42.3890    4.6920   10.8271 H   0  0  0  0  0  0  0  0  0  0  0  0
   42.5892    9.2948   10.2883 H   0  0  0  0  0  0  0  0  0  0  0  0
   46.7138    7.1171   13.1852 H   0  0  0  0  0  0  0  0  0  0  0  0
   46.7972    9.5928   12.8632 H   0  0  0  0  0  0  0  0  0  0  0  0
   46.5665    4.6396   13.4675 H   0  0  0  0  0  0  0  0  0  0  0  0
   43.6790    1.4226   11.6905 H   0  0  0  0  0  0  0  0  0  0  0  0
   42.4940    2.2778   10.8481 H   0  0  0  0  0  0  0  0  0  0  0  0
   42.5526   11.7110   10.3099 H   0  0  0  0  0  0  0  0  0  0  0  0
   43.7945   12.6372   10.9768 H   0  0  0  0  0  0  0  0  0  0  0  0
   45.3851    2.5334   13.0208 H   0  0  0  0  0  0  0  0  0  0  0  0
   45.7866   11.6347   11.9466 H   0  0  0  0  0  0  0  0  0  0  0  0
  2  1  2  0
  3  1  1  0
  4  3  2  0
  5  2  1  0
  6  2  1  0
  7  3  1  0
  8  4  1  0
  9  4  1  0
 10  5  1  0
 11  6  2  0
 12  7  2  0
 13 11  1  0
 14 12  1  0
 15 11  1  0
 16 12  1  0
  5  8  2  0
  9 16  2  0
 10 15  2  0
  6 17  1  0
  7 18  1  0
  8 19  1  0
  9 20  1  0
 10 21  1  0
 13 22  1  0
 13 23  1  0
 14 24  1  0
 14 25  1  0
 15 26  1  0
 16 27  1  0
M  END
> <Uni-Dock RESULT> 
ENERGY=   -4.438  LOWER_BOUND=    4.322  UPPER_BOUND=    6.670
INTER + INTRA:          -4.438
INTER:                  -4.438
INTRA:                   0.000
UNBOUND:                 0.000

$$$$

     RDKit          3D

 27 29  0  0  0  0  0  0  0  0999 V2000
   46.6865    5.2075   13.1822 N   0  0  0  0  0  0  0  0  0  0  0  0
   47.1810    6.4482   13.3468 C   0  0  0  0  0  0  0  0  0  0  0  0
   45.4522    5.0509   12.6692 C   0  0  0  0  0  0  0  0  0  0  0  0
   44.6504    6.1427   12.2916 C   0  0  0  0  0  0  0  0  0  0  0  0
   46.4519    7.6003   13.0032 C   0  0  0  0  0  0  0  0  0  0  0  0
   48.4552    6.6117   13.8781 C   0  0  0  0  0  0  0  0  0  0  0  0
   44.9406    3.7698   12.4970 C   0  0  0  0  0  0  0  0  0  0  0  0
   45.1706    7.4292   12.4682 C   0  0  0  0  0  0  0  0  0  0  0  0
   43.3758    5.9267   11.7447 C   0  0  0  0  0  0  0  0  0  0  0  0
   47.0049    8.8738   13.2103 C   0  0  0  0  0  0  0  0  0  0  0  0
   49.0445    7.8712   14.0359 C   0  0  0  0  0  0  0  0  0  0  0  0
   43.6495    3.5389   12.0087 C   0  0  0  0  0  0  0  0  0  0  0  0
   50.2809    7.9984   14.6804 N   0  0  0  0  0  0  0  0  0  0  0  0
   43.2164    2.2342   11.7425 N   0  0  0  0  0  0  0  0  0  0  0  0
   48.2870    9.0032   13.7440 C   0  0  0  0  0  0  0  0  0  0  0  0
   42.8912    4.6285   11.5866 C   0  0  0  0  0  0  0  0  0  0  0  0
   49.0025    5.7192   14.1709 H   0  0  0  0  0  0  0  0  0  0  0  0
   45.5761    2.9284   12.7613 H   0  0  0  0  0  0  0  0  0  0  0  0
   44.5784    8.2972   12.1893 H   0  0  0  0  0  0  0  0  0  0  0  0
   42.7596    6.7641   11.4268 H   0  0  0  0  0  0  0  0  0  0  0  0
   46.4381    9.7702   12.9711 H   0  0  0  0  0  0  0  0  0  0  0  0
   50.7703    8.8629   14.4721 H   0  0  0  0  0  0  0  0  0  0  0  0
   50.8800    7.1835   14.5845 H   0  0  0  0  0  0  0  0  0  0  0  0
   43.6548    1.5285   12.3271 H   0  0  0  0  0  0  0  0  0  0  0  0
   42.2072    2.1316   11.7060 H   0  0  0  0  0  0  0  0  0  0  0  0
   48.6882    9.9961   13.9288 H   0  0  0  0  0  0  0  0  0  0  0  0
   41.9162    4.4766   11.1316 H   0  0  0  0  0  0  0  0  0  0  0  0
  2  1  2  0
  3  1  1  0
  4  3  2  0
  5  2  1  0
  6  2  1  0
  7  3  1  0
  8  4  1  0
  9  4  1  0
 10  5  1  0
 11  6  2  0
 12  7  2  0
 13 11  1  0
 14 12  1  0
 15 11  1  0
 16 12  1  0
  5  8  2  0
  9 16  2  0
 10 15  2  0
  6 17  1  0
  7 18  1  0
  8 19  1  0
  9 20  1  0
 10 21  1  0
 13 22  1  0
 13 23  1  0
 14 24  1  0
 14 25  1  0
 15 26  1  0
 16 27  1  0
M  END
> <Uni-Dock RESULT> 
ENERGY=   -4.380  LOWER_BOUND=    4.606  UPPER_BOUND=    6.633
INTER + INTRA:          -4.380
INTER:                  -4.380
INTRA:                   0.000
UNBOUND:                 0.000

$$$$

     RDKit          3D

 27 29  0  0  0  0  0  0  0  0999 V2000
   46.6861    5.2073   13.1829 N   0  0  0  0  0  0  0  0  0  0  0  0
   45.4520    5.0508   12.6696 C   0  0  0  0  0  0  0  0  0  0  0  0
   47.1806    6.4480   13.3474 C   0  0  0  0  0  0  0  0  0  0  0  0
   46.4516    7.6002   13.0035 C   0  0  0  0  0  0  0  0  0  0  0  0
   44.6503    6.1424   12.2918 C   0  0  0  0  0  0  0  0  0  0  0  0
   44.9403    3.7697   12.4975 C   0  0  0  0  0  0  0  0  0  0  0  0
   48.4548    6.6115   13.8790 C   0  0  0  0  0  0  0  0  0  0  0  0
   45.1705    7.4290   12.4683 C   0  0  0  0  0  0  0  0  0  0  0  0
   47.0048    8.8737   13.2106 C   0  0  0  0  0  0  0  0  0  0  0  0
   43.3758    5.9265   11.7446 C   0  0  0  0  0  0  0  0  0  0  0  0
   43.6493    3.5387   12.0089 C   0  0  0  0  0  0  0  0  0  0  0  0
   49.0441    7.8711   14.0367 C   0  0  0  0  0  0  0  0  0  0  0  0
   43.2162    2.2341   11.7429 N   0  0  0  0  0  0  0  0  0  0  0  0
   50.2804    7.9983   14.6816 N   0  0  0  0  0  0  0  0  0  0  0  0
   42.8912    4.6283   11.5866 C   0  0  0  0  0  0  0  0  0  0  0  0
   48.2866    9.0030   13.7445 C   0  0  0  0  0  0  0  0  0  0  0  0
   45.5758    2.9283   12.7621 H   0  0  0  0  0  0  0  0  0  0  0  0
   49.0021    5.7191   14.1721 H   0  0  0  0  0  0  0  0  0  0  0  0
   44.5784    8.2970   12.1891 H   0  0  0  0  0  0  0  0  0  0  0  0
   46.4381    9.7701   12.9711 H   0  0  0  0  0  0  0  0  0  0  0  0
   42.7597    6.7639   11.4264 H   0  0  0  0  0  0  0  0  0  0  0  0
   42.2070    2.1314   11.7062 H   0  0  0  0  0  0  0  0  0  0  0  0
   43.6545    1.5284   12.3276 H   0  0  0  0  0  0  0  0  0  0  0  0
   50.8794    7.1834   14.5858 H   0  0  0  0  0  0  0  0  0  0  0  0
   50.7698    8.8628   14.4732 H   0  0  0  0  0  0  0  0  0  0  0  0
   41.9162    4.4765   11.1313 H   0  0  0  0  0  0  0  0  0  0  0  0
   48.6879    9.9959   13.9293 H   0  0  0  0  0  0  0  0  0  0  0  0
  2  1  2  0
  3  1  1  0
  4  3  2  0
  5  2  1  0
  6  2  1  0
  7  3  1  0
  8  4  1  0
  9  4  1  0
 10  5  1  0
 11  6  2  0
 12  7  2  0
 13 11  1  0
 14 12  1  0
 15 11  1  0
 16 12  1  0
  5  8  2  0
  9 16  2  0
 10 15  2  0
  6 17  1  0
  7 18  1  0
  8 19  1  0
  9 20  1  0
 10 21  1  0
 13 22  1  0
 13 23  1  0
 14 24  1  0
 14 25  1  0
 15 26  1  0
 16 27  1  0
M  END
> <Uni-Dock RESULT> 
ENERGY=   -4.379  LOWER_BOUND=    4.606  UPPER_BOUND=    6.646
INTER + INTRA:          -4.379
INTER:                  -4.379
INTRA:                   0.000
UNBOUND:                 0.000

$$$$

     RDKit          3D

 27 29  0  0  0  0  0  0  0  0999 V2000
   51.2066    4.0471   18.7626 N   0  0  0  0  0  0  0  0  0  0  0  0
   52.0875    3.0765   18.4578 C   0  0  0  0  0  0  0  0  0  0  0  0
   49.9434    3.9596   18.3069 C   0  0  0  0  0  0  0  0  0  0  0  0
   49.5008    2.8824   17.5188 C   0  0  0  0  0  0  0  0  0  0  0  0
   51.7389    1.9638   17.6721 C   0  0  0  0  0  0  0  0  0  0  0  0
   53.3933    3.1663   18.9263 C   0  0  0  0  0  0  0  0  0  0  0  0
   49.0318    4.9607   18.6222 C   0  0  0  0  0  0  0  0  0  0  0  0
   50.4232    1.8788   17.2043 C   0  0  0  0  0  0  0  0  0  0  0  0
   48.1678    2.8280   17.0822 C   0  0  0  0  0  0  0  0  0  0  0  0
   52.6990    0.9862   17.3670 C   0  0  0  0  0  0  0  0  0  0  0  0
   54.3466    2.1714   18.6812 C   0  0  0  0  0  0  0  0  0  0  0  0
   47.7158    4.9517   18.1459 C   0  0  0  0  0  0  0  0  0  0  0  0
   55.6783    2.3554   19.0724 N   0  0  0  0  0  0  0  0  0  0  0  0
   46.7992    5.9168   18.5806 N   0  0  0  0  0  0  0  0  0  0  0  0
   54.0003    1.1052   17.8542 C   0  0  0  0  0  0  0  0  0  0  0  0
   47.2786    3.8496   17.4147 C   0  0  0  0  0  0  0  0  0  0  0  0
   53.6661    4.0437   19.5072 H   0  0  0  0  0  0  0  0  0  0  0  0
   49.3702    5.7754   19.2574 H   0  0  0  0  0  0  0  0  0  0  0  0
   50.1171    1.0317   16.5955 H   0  0  0  0  0  0  0  0  0  0  0  0
   47.8110    1.9862   16.4938 H   0  0  0  0  0  0  0  0  0  0  0  0
   52.4444    0.1358   16.7392 H   0  0  0  0  0  0  0  0  0  0  0  0
   56.2104    1.4945   19.1508 H   0  0  0  0  0  0  0  0  0  0  0  0
   55.7885    2.9523   19.8870 H   0  0  0  0  0  0  0  0  0  0  0  0
   47.2252    6.8040   18.8325 H   0  0  0  0  0  0  0  0  0  0  0  0
   45.9985    6.0341   17.9678 H   0  0  0  0  0  0  0  0  0  0  0  0
   54.7403    0.3574   17.5822 H   0  0  0  0  0  0  0  0  0  0  0  0
   46.2420    3.7767   17.0968 H   0  0  0  0  0  0  0  0  0  0  0  0
  2  1  2  0
  3  1  1  0
  4  3  2  0
  5  2  1  0
  6  2  1  0
  7  3  1  0
  8  4  1  0
  9  4  1  0
 10  5  1  0
 11  6  2  0
 12  7  2  0
 13 11  1  0
 14 12  1  0
 15 11  1  0
 16 12  1  0
  5  8  2  0
  9 16  2  0
 10 15  2  0
  6 17  1  0
  7 18  1  0
  8 19  1  0
  9 20  1  0
 10 21  1  0
 13 22  1  0
 13 23  1  0
 14 24  1  0
 14 25  1  0
 15 26  1  0
 16 27  1  0
M  END
> <Uni-Dock RESULT> 
ENERGY=   -4.073  LOWER_BOUND=   10.423  UPPER_BOUND=   11.999
INTER + INTRA:          -4.073
INTER:                  -4.073
INTRA:                   0.000
UNBOUND:                 0.000

$$$$

     RDKit          3D

 27 29  0  0  0  0  0  0  0  0999 V2000
   51.2063    4.0527   18.7558 N   0  0  0  0  0  0  0  0  0  0  0  0
   49.9421    3.9650   18.3030 C   0  0  0  0  0  0  0  0  0  0  0  0
   52.0855    3.0799   18.4527 C   0  0  0  0  0  0  0  0  0  0  0  0
   51.7339    1.9647   17.6717 C   0  0  0  0  0  0  0  0  0  0  0  0
   49.4967    2.8855   17.5198 C   0  0  0  0  0  0  0  0  0  0  0  0
   49.0322    4.9682   18.6165 C   0  0  0  0  0  0  0  0  0  0  0  0
   53.3923    3.1698   18.9183 C   0  0  0  0  0  0  0  0  0  0  0  0
   50.4172    1.8796   17.2070 C   0  0  0  0  0  0  0  0  0  0  0  0
   52.6923    0.9849   17.3683 C   0  0  0  0  0  0  0  0  0  0  0  0
   48.1628    2.8309   17.0860 C   0  0  0  0  0  0  0  0  0  0  0  0
   47.7153    4.9591   18.1430 C   0  0  0  0  0  0  0  0  0  0  0  0
   54.3439    2.1729   18.6749 C   0  0  0  0  0  0  0  0  0  0  0  0
   46.8007    5.9268   18.5760 N   0  0  0  0  0  0  0  0  0  0  0  0
   55.6767    2.3568   19.0626 N   0  0  0  0  0  0  0  0  0  0  0  0
   47.2754    3.8549   17.4167 C   0  0  0  0  0  0  0  0  0  0  0  0
   53.9948    1.1042   17.8524 C   0  0  0  0  0  0  0  0  0  0  0  0
   49.3730    5.7848   19.2481 H   0  0  0  0  0  0  0  0  0  0  0  0
   53.6674    4.0491   19.4954 H   0  0  0  0  0  0  0  0  0  0  0  0
   50.1089    1.0307   16.6019 H   0  0  0  0  0  0  0  0  0  0  0  0
   52.4355    0.1325   16.7441 H   0  0  0  0  0  0  0  0  0  0  0  0
   47.8037    1.9874   16.5015 H   0  0  0  0  0  0  0  0  0  0  0  0
   45.9989    6.0429   17.9645 H   0  0  0  0  0  0  0  0  0  0  0  0
   47.2283    6.8144   18.8238 H   0  0  0  0  0  0  0  0  0  0  0  0
   55.7892    2.9565   19.8749 H   0  0  0  0  0  0  0  0  0  0  0  0
   56.2079    1.4956   19.1430 H   0  0  0  0  0  0  0  0  0  0  0  0
   46.2381    3.7819   17.1011 H   0  0  0  0  0  0  0  0  0  0  0  0
   54.7334    0.3545   17.5817 H   0  0  0  0  0  0  0  0  0  0  0  0
  2  1  2  0
  3  1  1  0
  4  3  2  0
  5  2  1  0
  6  2  1  0
  7  3  1  0
  8  4  1  0
  9  4  1  0
 10  5  1  0
 11  6  2  0
 12  7  2  0
 13 11  1  0
 14 12  1  0
 15 11  1  0
 16 12  1  0
  5  8  2  0
  9 16  2  0
 10 15  2  0
  6 17  1  0
  7 18  1  0
  8 19  1  0
  9 20  1  0
 10 21  1  0
 13 22  1  0
 13 23  1  0
 14 24  1  0
 14 25  1  0
 15 26  1  0
 16 27  1  0
M  END
> <Uni-Dock RESULT> 
ENERGY=   -4.066  LOWER_BOUND=   10.419  UPPER_BOUND=   11.106
INTER + INTRA:          -4.066
INTER:                  -4.066
INTRA:                   0.000
UNBOUND:                 0.000

$$$$

     RDKit          3D

 27 29  0  0  0  0  0  0  0  0999 V2000
   44.5006    8.0075   12.0763 N   0  0  0  0  0  0  0  0  0  0  0  0
   44.9578    6.8072   12.4779 C   0  0  0  0  0  0  0  0  0  0  0  0
   45.3303    9.0670   12.0847 C   0  0  0  0  0  0  0  0  0  0  0  0
   46.6708    8.9696   12.4981 C   0  0  0  0  0  0  0  0  0  0  0  0
   46.2808    6.6133   12.9130 C   0  0  0  0  0  0  0  0  0  0  0  0
   44.1016    5.7121   12.4714 C   0  0  0  0  0  0  0  0  0  0  0  0
   44.8599   10.3073   11.6686 C   0  0  0  0  0  0  0  0  0  0  0  0
   47.1377    7.7191   12.9165 C   0  0  0  0  0  0  0  0  0  0  0  0
   47.5016   10.1008   12.4721 C   0  0  0  0  0  0  0  0  0  0  0  0
   46.7052    5.3449   13.3389 C   0  0  0  0  0  0  0  0  0  0  0  0
   44.5246    4.4289   12.8363 C   0  0  0  0  0  0  0  0  0  0  0  0
   45.6578   11.4569   11.6927 C   0  0  0  0  0  0  0  0  0  0  0  0
   43.6031    3.3787   12.9261 N   0  0  0  0  0  0  0  0  0  0  0  0
   45.1818   12.6601   11.1576 N   0  0  0  0  0  0  0  0  0  0  0  0
   45.8213    4.2662   13.3185 C   0  0  0  0  0  0  0  0  0  0  0  0
   46.9981   11.3311   12.0505 C   0  0  0  0  0  0  0  0  0  0  0  0
   43.0715    5.8736   12.1637 H   0  0  0  0  0  0  0  0  0  0  0  0
   43.8320   10.3710   11.3206 H   0  0  0  0  0  0  0  0  0  0  0  0
   48.1680    7.6063   13.2447 H   0  0  0  0  0  0  0  0  0  0  0  0
   48.5459   10.0287   12.7660 H   0  0  0  0  0  0  0  0  0  0  0  0
   47.7190    5.1918   13.7007 H   0  0  0  0  0  0  0  0  0  0  0  0
   44.0209    2.4549   12.8776 H   0  0  0  0  0  0  0  0  0  0  0  0
   42.8078    3.4754   12.3014 H   0  0  0  0  0  0  0  0  0  0  0  0
   44.1721   12.7608   11.2073 H   0  0  0  0  0  0  0  0  0  0  0  0
   45.6683   13.4849   11.4942 H   0  0  0  0  0  0  0  0  0  0  0  0
   46.1554    3.2982   13.6821 H   0  0  0  0  0  0  0  0  0  0  0  0
   47.6623   12.1900   12.0050 H   0  0  0  0  0  0  0  0  0  0  0  0
  2  1  2  0
  3  1  1  0
  4  3  2  0
  5  2  1  0
  6  2  1  0
  7  3  1  0
  8  4  1  0
  9  4  1  0
 10  5  1  0
 11  6  2  0
 12  7  2  0
 13 11  1  0
 14 12  1  0
 15 11  1  0
 16 12  1  0
  5  8  2  0
  9 16  2  0
 10 15  2  0
  6 17  1  0
  7 18  1  0
  8 19  1  0
  9 20  1  0
 10 21  1  0
 13 22  1  0
 13 23  1  0
 14 24  1  0
 14 25  1  0
 15 26  1  0
 16 27  1  0
M  END
> <Uni-Dock RESULT> 
ENERGY=   -3.977  LOWER_BOUND=    5.117  UPPER_BOUND=    7.282
INTER + INTRA:          -3.977
INTER:                  -3.977
INTRA:                   0.000
UNBOUND:                 0.000

$$$$

     RDKit          3D

 27 29  0  0  0  0  0  0  0  0999 V2000
   44.4804    7.9729   12.0845 N   0  0  0  0  0  0  0  0  0  0  0  0
   45.3054    9.0361   12.0891 C   0  0  0  0  0  0  0  0  0  0  0  0
   44.9459    6.7739   12.4804 C   0  0  0  0  0  0  0  0  0  0  0  0
   46.2728    6.5851   12.9057 C   0  0  0  0  0  0  0  0  0  0  0  0
   46.6492    8.9439   12.4926 C   0  0  0  0  0  0  0  0  0  0  0  0
   44.8266   10.2751   11.6789 C   0  0  0  0  0  0  0  0  0  0  0  0
   44.0945    5.6749   12.4778 C   0  0  0  0  0  0  0  0  0  0  0  0
   47.1248    7.6946   12.9051 C   0  0  0  0  0  0  0  0  0  0  0  0
   46.7059    5.3176   13.3259 C   0  0  0  0  0  0  0  0  0  0  0  0
   47.4747   10.0788   12.4630 C   0  0  0  0  0  0  0  0  0  0  0  0
   45.6193   11.4282   11.6995 C   0  0  0  0  0  0  0  0  0  0  0  0
   44.5259    4.3929   12.8370 C   0  0  0  0  0  0  0  0  0  0  0  0
   45.1341   12.6303   11.1703 N   0  0  0  0  0  0  0  0  0  0  0  0
   43.6097    3.3383   12.9314 N   0  0  0  0  0  0  0  0  0  0  0  0
   46.9627   11.3077   12.0475 C   0  0  0  0  0  0  0  0  0  0  0  0
   45.8268    4.2351   13.3097 C   0  0  0  0  0  0  0  0  0  0  0  0
   43.7958   10.3348   11.3384 H   0  0  0  0  0  0  0  0  0  0  0  0
   43.0615    5.8323   12.1779 H   0  0  0  0  0  0  0  0  0  0  0  0
   48.1579    7.5859   13.2257 H   0  0  0  0  0  0  0  0  0  0  0  0
   47.7229    5.1684   13.6801 H   0  0  0  0  0  0  0  0  0  0  0  0
   48.5214   10.0108   12.7492 H   0  0  0  0  0  0  0  0  0  0  0  0
   45.6193   13.4566   11.5051 H   0  0  0  0  0  0  0  0  0  0  0  0
   44.1244   12.7263   11.2274 H   0  0  0  0  0  0  0  0  0  0  0  0
   42.8096    3.4327   12.3126 H   0  0  0  0  0  0  0  0  0  0  0  0
   44.0314    2.4165   12.8781 H   0  0  0  0  0  0  0  0  0  0  0  0
   47.6228   12.1697   11.9989 H   0  0  0  0  0  0  0  0  0  0  0  0
   46.1677    3.2678   13.6689 H   0  0  0  0  0  0  0  0  0  0  0  0
  2  1  2  0
  3  1  1  0
  4  3  2  0
  5  2  1  0
  6  2  1  0
  7  3  1  0
  8  4  1  0
  9  4  1  0
 10  5  1  0
 11  6  2  0
 12  7  2  0
 13 11  1  0
 14 12  1  0
 15 11  1  0
 16 12  1  0
  5  8  2  0
  9 16  2  0
 10 15  2  0
  6 17  1  0
  7 18  1  0
  8 19  1  0
  9 20  1  0
 10 21  1  0
 13 22  1  0
 13 23  1  0
 14 24  1  0
 14 25  1  0
 15 26  1  0
 16 27  1  0
M  END
> <Uni-Dock RESULT> 
ENERGY=   -3.976  LOWER_BOUND=    5.107  UPPER_BOUND=    6.915
INTER + INTRA:          -3.976
INTER:                  -3.976
INTRA:                   0.000
UNBOUND:                 0.000

$$$$
