
     RDKit          3D

 42 46  0  0  0  0  0  0  0  0999 V2000
   29.2726    9.6815   28.0970 C   0  0  0  0  0  0  0  0  0  0  0  0
   30.5020   10.1684   27.4254 C   0  0  0  0  0  0  0  0  0  0  0  0
   30.4757   11.3130   26.6089 C   0  0  0  0  0  0  0  0  0  0  0  0
   31.6415   11.7680   25.9859 C   0  0  0  0  0  0  0  0  0  0  0  0
   32.8629   11.1034   26.1842 C   0  0  0  0  0  0  0  0  0  0  0  0
   32.8871    9.9501   26.9854 C   0  0  0  0  0  0  0  0  0  0  0  0
   31.7221    9.4951   27.6095 C   0  0  0  0  0  0  0  0  0  0  0  0
   29.3694    8.8916   29.0756 O   0  0  0  0  0  0  0  0  0  0  0  0
   27.9724   10.0627   27.6242 N   0  0  0  0  0  0  0  0  0  0  0  0
   26.6925   10.3004   29.7774 C   0  0  0  0  0  0  0  0  0  0  0  0
   26.8189    9.9133   28.4158 N   0  0  0  0  0  0  0  0  0  0  0  0
   25.5047    9.8086   27.8954 C   0  0  0  0  0  0  0  0  0  0  0  0
   24.4431   10.0420   28.9281 C   0  0  2  0  0  0  0  0  0  0  0  0
   23.5010   11.2372   28.5787 C   0  0  1  0  0  0  0  0  0  0  0  0
   22.5302   11.3645   29.8029 C   0  0  1  0  0  0  0  0  0  0  0  0
   23.3383   11.6965   31.0876 C   0  0  1  0  0  0  0  0  0  0  0  0
   24.8652   11.7987   30.7477 C   0  0  1  0  0  0  0  0  0  0  0  0
   25.2651   10.3799   30.2315 C   0  0  2  0  0  0  0  0  0  0  0  0
   22.3133   12.6919   30.5358 C   0  0  0  0  0  0  0  0  0  0  0  0
   24.3715   12.4835   28.4818 C   0  0  0  0  0  0  0  0  0  0  0  0
   25.0704   12.7714   29.5934 C   0  0  0  0  0  0  0  0  0  0  0  0
   25.2648    9.5397   26.6883 O   0  0  0  0  0  0  0  0  0  0  0  0
   27.6756   10.5934   30.5086 O   0  0  0  0  0  0  0  0  0  0  0  0
   34.1091   11.5658   25.4718 C   0  0  0  0  0  0  0  0  0  0  0  0
   34.0848   12.9370   25.2840 F   0  0  0  0  0  0  0  0  0  0  0  0
   35.2384   11.2505   26.2076 F   0  0  0  0  0  0  0  0  0  0  0  0
   34.1860   10.9438   24.2398 F   0  0  0  0  0  0  0  0  0  0  0  0
   29.5600   11.8696   26.4592 H   0  0  0  0  0  0  0  0  0  0  0  0
   31.5878   12.6431   25.3505 H   0  0  0  0  0  0  0  0  0  0  0  0
   33.8075    9.3978   27.1280 H   0  0  0  0  0  0  0  0  0  0  0  0
   31.7742    8.6058   28.2255 H   0  0  0  0  0  0  0  0  0  0  0  0
   27.8592   10.3164   26.6172 H   0  0  0  0  0  0  0  0  0  0  0  0
   23.8556    9.1076   29.0673 H   0  0  0  0  0  0  0  0  0  0  0  0
   22.9381   11.0600   27.6380 H   0  0  0  0  0  0  0  0  0  0  0  0
   21.7786   10.5642   29.9742 H   0  0  0  0  0  0  0  0  0  0  0  0
   23.0241   11.0758   31.9540 H   0  0  0  0  0  0  0  0  0  0  0  0
   25.4549   12.0964   31.6403 H   0  0  0  0  0  0  0  0  0  0  0  0
   25.0873    9.6127   31.0173 H   0  0  0  0  0  0  0  0  0  0  0  0
   21.3706   12.7225   31.1208 H   0  0  0  0  0  0  0  0  0  0  0  0
   22.6957   13.6146   30.0564 H   0  0  0  0  0  0  0  0  0  0  0  0
   24.4241   13.0965   27.5884 H   0  0  0  0  0  0  0  0  0  0  0  0
   25.7263   13.6330   29.6596 H   0  0  0  0  0  0  0  0  0  0  0  0
  4  5  2  0
  5  6  1  0
  6  7  2  0
  2  7  1  0
  1  8  2  0
  1  9  1  0
 10 11  1  0
 11 12  1  0
 13 12  1  0
 14 13  1  0
 14 15  1  0
 16 15  1  0
 17 16  1  0
 17 18  1  0
 18 10  1  0
 18 13  1  0
 15 19  1  0
 16 19  1  0
 20 21  2  0
 14 20  1  0
 17 21  1  0
 12 22  2  0
 10 23  2  0
  9 11  1  0
  5 24  1  0
  1  2  1  0
 24 25  1  0
  2  3  2  0
 24 26  1  0
  3  4  1  0
 24 27  1  0
  3 28  1  0
  4 29  1  0
  6 30  1  0
  7 31  1  0
  9 32  1  0
 13 33  1  1
 14 34  1  6
 15 35  1  1
 16 36  1  1
 17 37  1  1
 18 38  1  1
 19 39  1  0
 19 40  1  0
 20 41  1  0
 21 42  1  0
M  END
> <Uni-Dock RESULT> 
ENERGY=   -4.365  LOWER_BOUND=    0.000  UPPER_BOUND=    0.000
INTER + INTRA:          -4.365
INTER:                  -4.365
INTRA:                   0.000
UNBOUND:                 0.000

$$$$

     RDKit          3D

 42 46  0  0  0  0  0  0  0  0999 V2000
   26.5904    5.8635   32.0183 C   0  0  0  0  0  0  0  0  0  0  0  0
   27.3538    4.6090   31.8118 C   0  0  0  0  0  0  0  0  0  0  0  0
   27.6277    4.1331   30.5173 C   0  0  0  0  0  0  0  0  0  0  0  0
   28.3543    2.9531   30.3332 C   0  0  0  0  0  0  0  0  0  0  0  0
   28.8432    2.2361   31.4376 C   0  0  0  0  0  0  0  0  0  0  0  0
   28.5554    2.7008   32.7314 C   0  0  0  0  0  0  0  0  0  0  0  0
   27.8298    3.8811   32.9163 C   0  0  0  0  0  0  0  0  0  0  0  0
   26.6505    6.4525   33.1321 O   0  0  0  0  0  0  0  0  0  0  0  0
   25.7509    6.3960   30.9833 N   0  0  0  0  0  0  0  0  0  0  0  0
   26.0937    8.8724   31.2675 C   0  0  0  0  0  0  0  0  0  0  0  0
   25.2946    7.7267   31.0056 N   0  0  0  0  0  0  0  0  0  0  0  0
   24.1342    8.1815   30.3306 C   0  0  0  0  0  0  0  0  0  0  0  0
   24.0803    9.6736   30.1942 C   0  0  2  0  0  0  0  0  0  0  0  0
   24.0155   10.1509   28.7088 C   0  0  1  0  0  0  0  0  0  0  0  0
   24.0486   11.7165   28.7801 C   0  0  1  0  0  0  0  0  0  0  0  0
   25.3822   12.1895   29.4216 C   0  0  1  0  0  0  0  0  0  0  0  0
   26.2675   10.9496   29.7910 C   0  0  1  0  0  0  0  0  0  0  0  0
   25.4353   10.1523   30.8449 C   0  0  2  0  0  0  0  0  0  0  0  0
   25.0483   12.5477   27.9704 C   0  0  0  0  0  0  0  0  0  0  0  0
   25.2734    9.6416   28.0169 C   0  0  0  0  0  0  0  0  0  0  0  0
   26.4275   10.0512   28.5712 C   0  0  0  0  0  0  0  0  0  0  0  0
   23.2425    7.4030   29.8996 O   0  0  0  0  0  0  0  0  0  0  0  0
   27.2528    8.8115   31.7572 O   0  0  0  0  0  0  0  0  0  0  0  0
   29.5835    0.9373   31.2388 C   0  0  0  0  0  0  0  0  0  0  0  0
   30.2938    0.9562   30.0510 F   0  0  0  0  0  0  0  0  0  0  0  0
   30.4773    0.7207   32.2734 F   0  0  0  0  0  0  0  0  0  0  0  0
   28.6745   -0.1035   31.2036 F   0  0  0  0  0  0  0  0  0  0  0  0
   27.2955    4.6760   29.6423 H   0  0  0  0  0  0  0  0  0  0  0  0
   28.5368    2.6028   29.3250 H   0  0  0  0  0  0  0  0  0  0  0  0
   28.8899    2.1501   33.6016 H   0  0  0  0  0  0  0  0  0  0  0  0
   27.6287    4.2164   33.9263 H   0  0  0  0  0  0  0  0  0  0  0  0
   25.3476    5.7401   30.2774 H   0  0  0  0  0  0  0  0  0  0  0  0
   23.2111   10.0630   30.7690 H   0  0  0  0  0  0  0  0  0  0  0  0
   23.0968    9.7926   28.1980 H   0  0  0  0  0  0  0  0  0  0  0  0
   23.1684   12.2510   29.1978 H   0  0  0  0  0  0  0  0  0  0  0  0
   25.2238   12.9798   30.1865 H   0  0  0  0  0  0  0  0  0  0  0  0
   27.2523   11.2670   30.1944 H   0  0  0  0  0  0  0  0  0  0  0  0
   25.2393   10.7777   31.7438 H   0  0  0  0  0  0  0  0  0  0  0  0
   24.7366   13.6049   27.8387 H   0  0  0  0  0  0  0  0  0  0  0  0
   25.6154   12.0354   27.1683 H   0  0  0  0  0  0  0  0  0  0  0  0
   25.2453    9.0007   27.1420 H   0  0  0  0  0  0  0  0  0  0  0  0
   27.3957    9.7639   28.1750 H   0  0  0  0  0  0  0  0  0  0  0  0
  4  5  2  0
  5  6  1  0
  6  7  2  0
  2  7  1  0
  1  8  2  0
  1  9  1  0
 10 11  1  0
 11 12  1  0
 13 12  1  0
 14 13  1  0
 14 15  1  0
 16 15  1  0
 17 16  1  0
 17 18  1  0
 18 10  1  0
 18 13  1  0
 15 19  1  0
 16 19  1  0
 20 21  2  0
 14 20  1  0
 17 21  1  0
 12 22  2  0
 10 23  2  0
  9 11  1  0
  5 24  1  0
  1  2  1  0
 24 25  1  0
  2  3  2  0
 24 26  1  0
  3  4  1  0
 24 27  1  0
  3 28  1  0
  4 29  1  0
  6 30  1  0
  7 31  1  0
  9 32  1  0
 13 33  1  1
 14 34  1  6
 15 35  1  1
 16 36  1  1
 17 37  1  1
 18 38  1  1
 19 39  1  0
 19 40  1  0
 20 41  1  0
 21 42  1  0
M  END
> <Uni-Dock RESULT> 
ENERGY=   -4.003  LOWER_BOUND=    6.203  UPPER_BOUND=    7.362
INTER + INTRA:          -4.003
INTER:                  -4.003
INTRA:                   0.000
UNBOUND:                 0.000

$$$$

     RDKit          3D

 42 46  0  0  0  0  0  0  0  0999 V2000
   31.6730   12.3390   23.0622 C   0  0  0  0  0  0  0  0  0  0  0  0
   32.7101   13.3855   23.2316 C   0  0  0  0  0  0  0  0  0  0  0  0
   33.1505   14.1518   22.1379 C   0  0  0  0  0  0  0  0  0  0  0  0
   34.1234   15.1408   22.3094 C   0  0  0  0  0  0  0  0  0  0  0  0
   34.6600   15.4016   23.5810 C   0  0  0  0  0  0  0  0  0  0  0  0
   34.2338   14.6252   24.6711 C   0  0  0  0  0  0  0  0  0  0  0  0
   33.2602   13.6368   24.5006 C   0  0  0  0  0  0  0  0  0  0  0  0
   31.0480   11.9130   24.0716 O   0  0  0  0  0  0  0  0  0  0  0  0
   31.3984   11.7735   21.7722 N   0  0  0  0  0  0  0  0  0  0  0  0
   28.9047   11.4538   21.8721 C   0  0  0  0  0  0  0  0  0  0  0  0
   30.2192   11.0517   21.5113 N   0  0  0  0  0  0  0  0  0  0  0  0
   30.0853   10.0935   20.4755 C   0  0  0  0  0  0  0  0  0  0  0  0
   28.6572    9.7576   20.1663 C   0  0  2  0  0  0  0  0  0  0  0  0
   28.2631   10.0614   18.6862 C   0  0  1  0  0  0  0  0  0  0  0  0
   26.7352    9.7240   18.5919 C   0  0  1  0  0  0  0  0  0  0  0  0
   25.9288   10.6479   19.5457 C   0  0  1  0  0  0  0  0  0  0  0  0
   26.9015   11.6219   20.2959 C   0  0  1  0  0  0  0  0  0  0  0  0
   27.8398   10.6971   21.1347 C   0  0  2  0  0  0  0  0  0  0  0  0
   25.7146   10.7187   18.0308 C   0  0  0  0  0  0  0  0  0  0  0  0
   28.4746   11.5530   18.4609 C   0  0  0  0  0  0  0  0  0  0  0  0
   27.7766   12.3527   19.2855 C   0  0  0  0  0  0  0  0  0  0  0  0
   31.0725    9.5783   19.8865 O   0  0  0  0  0  0  0  0  0  0  0  0
   28.6637   12.3823   22.6886 O   0  0  0  0  0  0  0  0  0  0  0  0
   35.7452   16.4341   23.7557 C   0  0  0  0  0  0  0  0  0  0  0  0
   35.5960   17.4604   22.8390 F   0  0  0  0  0  0  0  0  0  0  0  0
   35.7006   16.9803   25.0268 F   0  0  0  0  0  0  0  0  0  0  0  0
   36.9769   15.8360   23.5655 F   0  0  0  0  0  0  0  0  0  0  0  0
   32.7364   14.0016   21.1497 H   0  0  0  0  0  0  0  0  0  0  0  0
   34.4543   15.7047   21.4462 H   0  0  0  0  0  0  0  0  0  0  0  0
   34.6551   14.7807   25.6563 H   0  0  0  0  0  0  0  0  0  0  0  0
   32.9484   13.0585   25.3616 H   0  0  0  0  0  0  0  0  0  0  0  0
   32.1574   11.7687   21.0546 H   0  0  0  0  0  0  0  0  0  0  0  0
   28.4713    8.6881   20.4097 H   0  0  0  0  0  0  0  0  0  0  0  0
   28.8525    9.4537   17.9674 H   0  0  0  0  0  0  0  0  0  0  0  0
   26.4170    8.6619   18.6670 H   0  0  0  0  0  0  0  0  0  0  0  0
   25.1744   10.0860   20.1371 H   0  0  0  0  0  0  0  0  0  0  0  0
   26.3395   12.3334   20.9371 H   0  0  0  0  0  0  0  0  0  0  0  0
   27.2495   10.0946   21.8600 H   0  0  0  0  0  0  0  0  0  0  0  0
   24.7707   10.2395   17.6971 H   0  0  0  0  0  0  0  0  0  0  0  0
   26.1013   11.6083   17.4955 H   0  0  0  0  0  0  0  0  0  0  0  0
   29.1336   11.9445   17.6933 H   0  0  0  0  0  0  0  0  0  0  0  0
   27.8330   13.4347   19.2299 H   0  0  0  0  0  0  0  0  0  0  0  0
  4  5  2  0
  5  6  1  0
  6  7  2  0
  2  7  1  0
  1  8  2  0
  1  9  1  0
 10 11  1  0
 11 12  1  0
 13 12  1  0
 14 13  1  0
 14 15  1  0
 16 15  1  0
 17 16  1  0
 17 18  1  0
 18 10  1  0
 18 13  1  0
 15 19  1  0
 16 19  1  0
 20 21  2  0
 14 20  1  0
 17 21  1  0
 12 22  2  0
 10 23  2  0
  9 11  1  0
  5 24  1  0
  1  2  1  0
 24 25  1  0
  2  3  2  0
 24 26  1  0
  3  4  1  0
 24 27  1  0
  3 28  1  0
  4 29  1  0
  6 30  1  0
  7 31  1  0
  9 32  1  0
 13 33  1  1
 14 34  1  6
 15 35  1  1
 16 36  1  1
 17 37  1  1
 18 38  1  1
 19 39  1  0
 19 40  1  0
 20 41  1  0
 21 42  1  0
M  END
> <Uni-Dock RESULT> 
ENERGY=   -3.971  LOWER_BOUND=    7.174  UPPER_BOUND=    8.379
INTER + INTRA:          -3.971
INTER:                  -3.971
INTRA:                   0.000
UNBOUND:                 0.000

$$$$

     RDKit          3D

 42 46  0  0  0  0  0  0  0  0999 V2000
   25.7458    3.7317   32.1295 C   0  0  0  0  0  0  0  0  0  0  0  0
   26.9939    3.0093   31.7835 C   0  0  0  0  0  0  0  0  0  0  0  0
   27.7550    3.3767   30.6597 C   0  0  0  0  0  0  0  0  0  0  0  0
   28.9338    2.6940   30.3461 C   0  0  0  0  0  0  0  0  0  0  0  0
   29.3901    1.6454   31.1616 C   0  0  0  0  0  0  0  0  0  0  0  0
   28.6218    1.2660   32.2745 C   0  0  0  0  0  0  0  0  0  0  0  0
   27.4435    1.9488   32.5893 C   0  0  0  0  0  0  0  0  0  0  0  0
   25.2725    3.6336   33.2946 O   0  0  0  0  0  0  0  0  0  0  0  0
   25.0452    4.5080   31.1468 N   0  0  0  0  0  0  0  0  0  0  0  0
   24.2235    6.4512   32.5178 C   0  0  0  0  0  0  0  0  0  0  0  0
   24.0780    5.4650   31.5049 N   0  0  0  0  0  0  0  0  0  0  0  0
   23.0415    5.9089   30.6461 C   0  0  0  0  0  0  0  0  0  0  0  0
   22.3957    7.1793   31.1118 C   0  0  2  0  0  0  0  0  0  0  0  0
   22.5049    8.3390   30.0718 C   0  0  1  0  0  0  0  0  0  0  0  0
   21.8523    9.5800   30.7725 C   0  0  1  0  0  0  0  0  0  0  0  0
   22.6546    9.9494   32.0507 C   0  0  1  0  0  0  0  0  0  0  0  0
   23.8600    8.9631   32.2293 C   0  0  1  0  0  0  0  0  0  0  0  0
   23.2119    7.5535   32.4089 C   0  0  2  0  0  0  0  0  0  0  0  0
   22.5713   10.9285   30.8759 C   0  0  0  0  0  0  0  0  0  0  0  0
   23.9881    8.5998   29.8422 C   0  0  0  0  0  0  0  0  0  0  0  0
   24.6824    8.9200   30.9478 C   0  0  0  0  0  0  0  0  0  0  0  0
   22.7015    5.2879   29.6041 O   0  0  0  0  0  0  0  0  0  0  0  0
   25.1376    6.4250   33.3842 O   0  0  0  0  0  0  0  0  0  0  0  0
   30.6349    0.8774   30.7942 C   0  0  0  0  0  0  0  0  0  0  0  0
   31.5400    1.6963   30.1415 F   0  0  0  0  0  0  0  0  0  0  0  0
   31.2491    0.3709   31.9266 F   0  0  0  0  0  0  0  0  0  0  0  0
   30.2931   -0.1708   29.9603 F   0  0  0  0  0  0  0  0  0  0  0  0
   27.4522    4.2005   30.0269 H   0  0  0  0  0  0  0  0  0  0  0  0
   29.4911    2.9891   29.4657 H   0  0  0  0  0  0  0  0  0  0  0  0
   28.9311    0.4389   32.9011 H   0  0  0  0  0  0  0  0  0  0  0  0
   26.8760    1.6360   33.4571 H   0  0  0  0  0  0  0  0  0  0  0  0
   25.1468    4.2517   30.1393 H   0  0  0  0  0  0  0  0  0  0  0  0
   21.3310    6.9781   31.3639 H   0  0  0  0  0  0  0  0  0  0  0  0
   21.9830    8.0948   29.1224 H   0  0  0  0  0  0  0  0  0  0  0  0
   20.7555    9.5774   30.9509 H   0  0  0  0  0  0  0  0  0  0  0  0
   21.9920   10.1464   32.9207 H   0  0  0  0  0  0  0  0  0  0  0  0
   24.4833    9.2471   33.1034 H   0  0  0  0  0  0  0  0  0  0  0  0
   22.5534    7.5364   33.3053 H   0  0  0  0  0  0  0  0  0  0  0  0
   21.8843   11.7804   31.0610 H   0  0  0  0  0  0  0  0  0  0  0  0
   23.4813   11.0766   30.2616 H   0  0  0  0  0  0  0  0  0  0  0  0
   24.4520    8.5368   28.8636 H   0  0  0  0  0  0  0  0  0  0  0  0
   25.7458    9.1334   30.9237 H   0  0  0  0  0  0  0  0  0  0  0  0
  4  5  2  0
  5  6  1  0
  6  7  2  0
  2  7  1  0
  1  8  2  0
  1  9  1  0
 10 11  1  0
 11 12  1  0
 13 12  1  0
 14 13  1  0
 14 15  1  0
 16 15  1  0
 17 16  1  0
 17 18  1  0
 18 10  1  0
 18 13  1  0
 15 19  1  0
 16 19  1  0
 20 21  2  0
 14 20  1  0
 17 21  1  0
 12 22  2  0
 10 23  2  0
  9 11  1  0
  5 24  1  0
  1  2  1  0
 24 25  1  0
  2  3  2  0
 24 26  1  0
  3  4  1  0
 24 27  1  0
  3 28  1  0
  4 29  1  0
  6 30  1  0
  7 31  1  0
  9 32  1  0
 13 33  1  1
 14 34  1  6
 15 35  1  1
 16 36  1  1
 17 37  1  1
 18 38  1  1
 19 39  1  0
 19 40  1  0
 20 41  1  0
 21 42  1  0
M  END
> <Uni-Dock RESULT> 
ENERGY=   -3.942  LOWER_BOUND=    6.952  UPPER_BOUND=    7.972
INTER + INTRA:          -3.942
INTER:                  -3.942
INTRA:                   0.000
UNBOUND:                 0.000

$$$$

     RDKit          3D

 42 46  0  0  0  0  0  0  0  0999 V2000
   30.6104    7.6550   28.9926 C   0  0  0  0  0  0  0  0  0  0  0  0
   31.5000    8.5557   28.2200 C   0  0  0  0  0  0  0  0  0  0  0  0
   32.8786    8.2983   28.1181 C   0  0  0  0  0  0  0  0  0  0  0  0
   33.7075    9.1495   27.3816 C   0  0  0  0  0  0  0  0  0  0  0  0
   33.1734   10.2625   26.7117 C   0  0  0  0  0  0  0  0  0  0  0  0
   31.7995   10.5305   26.8270 C   0  0  0  0  0  0  0  0  0  0  0  0
   30.9698    9.6793   27.5624 C   0  0  0  0  0  0  0  0  0  0  0  0
   29.3652    7.6904   28.7946 O   0  0  0  0  0  0  0  0  0  0  0  0
   31.1408    6.7725   29.9922 N   0  0  0  0  0  0  0  0  0  0  0  0
   29.6866    4.7393   29.7059 C   0  0  0  0  0  0  0  0  0  0  0  0
   30.4034    5.6829   30.4905 N   0  0  0  0  0  0  0  0  0  0  0  0
   30.6302    5.0789   31.7526 C   0  0  0  0  0  0  0  0  0  0  0  0
   29.9902    3.7293   31.8820 C   0  0  2  0  0  0  0  0  0  0  0  0
   31.0167    2.5905   32.1786 C   0  0  1  0  0  0  0  0  0  0  0  0
   30.1707    1.2709   32.1948 C   0  0  1  0  0  0  0  0  0  0  0  0
   29.5238    1.0392   30.8014 C   0  0  1  0  0  0  0  0  0  0  0  0
   29.9252    2.1988   29.8258 C   0  0  1  0  0  0  0  0  0  0  0  0
   29.3347    3.4950   30.4663 C   0  0  2  0  0  0  0  0  0  0  0  0
   30.5524    0.0485   31.3547 C   0  0  0  0  0  0  0  0  0  0  0  0
   31.9997    2.5562   31.0154 C   0  0  0  0  0  0  0  0  0  0  0  0
   31.4404    2.3551   29.8098 C   0  0  0  0  0  0  0  0  0  0  0  0
   31.2972    5.6318   32.6671 O   0  0  0  0  0  0  0  0  0  0  0  0
   29.4201    4.9118   28.4868 O   0  0  0  0  0  0  0  0  0  0  0  0
   34.0762   11.2075   25.9593 C   0  0  0  0  0  0  0  0  0  0  0  0
   35.1605   10.5300   25.4291 F   0  0  0  0  0  0  0  0  0  0  0  0
   33.3929   11.8115   24.9179 F   0  0  0  0  0  0  0  0  0  0  0  0
   34.5342   12.1841   26.8238 F   0  0  0  0  0  0  0  0  0  0  0  0
   33.3203    7.4325   28.5935 H   0  0  0  0  0  0  0  0  0  0  0  0
   34.7678    8.9348   27.3336 H   0  0  0  0  0  0  0  0  0  0  0  0
   31.3661   11.4005   26.3498 H   0  0  0  0  0  0  0  0  0  0  0  0
   29.9136    9.9099   27.6281 H   0  0  0  0  0  0  0  0  0  0  0  0
   32.0336    7.0324   30.4681 H   0  0  0  0  0  0  0  0  0  0  0  0
   29.2091    3.7685   32.6732 H   0  0  0  0  0  0  0  0  0  0  0  0
   31.5377    2.7441   33.1472 H   0  0  0  0  0  0  0  0  0  0  0  0
   29.4502    1.1084   33.0250 H   0  0  0  0  0  0  0  0  0  0  0  0
   28.4533    0.7515   30.8775 H   0  0  0  0  0  0  0  0  0  0  0  0
   29.5238    2.0206   28.8058 H   0  0  0  0  0  0  0  0  0  0  0  0
   28.2283    3.4197   30.5540 H   0  0  0  0  0  0  0  0  0  0  0  0
   30.1001   -0.8963   31.7218 H   0  0  0  0  0  0  0  0  0  0  0  0
   31.5582    0.0349   30.8903 H   0  0  0  0  0  0  0  0  0  0  0  0
   33.0695    2.6803   31.1453 H   0  0  0  0  0  0  0  0  0  0  0  0
   32.0274    2.3056   28.8987 H   0  0  0  0  0  0  0  0  0  0  0  0
  4  5  2  0
  5  6  1  0
  6  7  2  0
  2  7  1  0
  1  8  2  0
  1  9  1  0
 10 11  1  0
 11 12  1  0
 13 12  1  0
 14 13  1  0
 14 15  1  0
 16 15  1  0
 17 16  1  0
 17 18  1  0
 18 10  1  0
 18 13  1  0
 15 19  1  0
 16 19  1  0
 20 21  2  0
 14 20  1  0
 17 21  1  0
 12 22  2  0
 10 23  2  0
  9 11  1  0
  5 24  1  0
  1  2  1  0
 24 25  1  0
  2  3  2  0
 24 26  1  0
  3  4  1  0
 24 27  1  0
  3 28  1  0
  4 29  1  0
  6 30  1  0
  7 31  1  0
  9 32  1  0
 13 33  1  1
 14 34  1  6
 15 35  1  1
 16 36  1  1
 17 37  1  1
 18 38  1  1
 19 39  1  0
 19 40  1  0
 20 41  1  0
 21 42  1  0
M  END
> <Uni-Dock RESULT> 
ENERGY=   -3.895  LOWER_BOUND=    5.448  UPPER_BOUND=    7.754
INTER + INTRA:          -3.895
INTER:                  -3.895
INTRA:                   0.000
UNBOUND:                 0.000

$$$$

     RDKit          3D

 42 46  0  0  0  0  0  0  0  0999 V2000
   28.3805    8.7548   29.2899 C   0  0  0  0  0  0  0  0  0  0  0  0
   29.7851    8.7593   28.8141 C   0  0  0  0  0  0  0  0  0  0  0  0
   30.2295    9.7108   27.8789 C   0  0  0  0  0  0  0  0  0  0  0  0
   31.5573    9.7110   27.4421 C   0  0  0  0  0  0  0  0  0  0  0  0
   32.4754    8.7759   27.9476 C   0  0  0  0  0  0  0  0  0  0  0  0
   32.0287    7.8140   28.8684 C   0  0  0  0  0  0  0  0  0  0  0  0
   30.7014    7.8138   29.3065 C   0  0  0  0  0  0  0  0  0  0  0  0
   28.0861    8.1463   30.3548 O   0  0  0  0  0  0  0  0  0  0  0  0
   27.3430    9.3977   28.5351 N   0  0  0  0  0  0  0  0  0  0  0  0
   25.8908   10.3426   30.3597 C   0  0  0  0  0  0  0  0  0  0  0  0
   26.0945    9.7115   29.1027 N   0  0  0  0  0  0  0  0  0  0  0  0
   24.9032    9.8908   28.3559 C   0  0  0  0  0  0  0  0  0  0  0  0
   23.8217   10.5816   29.1311 C   0  0  2  0  0  0  0  0  0  0  0  0
   23.3502   11.9151   28.4696 C   0  0  1  0  0  0  0  0  0  0  0  0
   22.2934   12.5127   29.4612 C   0  0  1  0  0  0  0  0  0  0  0  0
   22.9638   12.8183   30.8290 C   0  0  1  0  0  0  0  0  0  0  0  0
   24.4823   12.4320   30.7786 C   0  0  1  0  0  0  0  0  0  0  0  0
   24.5042   10.8921   30.5191 C   0  0  2  0  0  0  0  0  0  0  0  0
   22.3837   13.9517   29.9778 C   0  0  0  0  0  0  0  0  0  0  0  0
   24.5625   12.8345   28.3957 C   0  0  0  0  0  0  0  0  0  0  0  0
   25.1425   13.0996   29.5790 C   0  0  0  0  0  0  0  0  0  0  0  0
   24.7751    9.4996   27.1653 O   0  0  0  0  0  0  0  0  0  0  0  0
   26.7963   10.4691   31.2262 O   0  0  0  0  0  0  0  0  0  0  0  0
   33.8945    8.7456   27.4382 C   0  0  0  0  0  0  0  0  0  0  0  0
   34.3162   10.0170   27.0894 F   0  0  0  0  0  0  0  0  0  0  0  0
   34.7521    8.2570   28.4087 F   0  0  0  0  0  0  0  0  0  0  0  0
   33.9610    7.9280   26.3255 F   0  0  0  0  0  0  0  0  0  0  0  0
   29.5592   10.4669   27.4921 H   0  0  0  0  0  0  0  0  0  0  0  0
   31.8672   10.4461   26.7098 H   0  0  0  0  0  0  0  0  0  0  0  0
   32.7058    7.0595   29.2488 H   0  0  0  0  0  0  0  0  0  0  0  0
   30.3887    7.0625   30.0212 H   0  0  0  0  0  0  0  0  0  0  0  0
   27.4632    9.4990   27.5024 H   0  0  0  0  0  0  0  0  0  0  0  0
   22.9641    9.8854   29.2638 H   0  0  0  0  0  0  0  0  0  0  0  0
   22.9063   11.7455   27.4658 H   0  0  0  0  0  0  0  0  0  0  0  0
   21.3174   11.9943   29.5780 H   0  0  0  0  0  0  0  0  0  0  0  0
   22.3509   12.4653   31.6859 H   0  0  0  0  0  0  0  0  0  0  0  0
   24.9951   12.6999   31.7265 H   0  0  0  0  0  0  0  0  0  0  0  0
   23.9870   10.3490   31.3407 H   0  0  0  0  0  0  0  0  0  0  0  0
   21.4189   14.3422   30.3635 H   0  0  0  0  0  0  0  0  0  0  0  0
   23.0952   14.6367   29.4757 H   0  0  0  0  0  0  0  0  0  0  0  0
   24.9310   13.2486   27.4632 H   0  0  0  0  0  0  0  0  0  0  0  0
   26.0117   13.7427   29.6681 H   0  0  0  0  0  0  0  0  0  0  0  0
  4  5  2  0
  5  6  1  0
  6  7  2  0
  2  7  1  0
  1  8  2  0
  1  9  1  0
 10 11  1  0
 11 12  1  0
 13 12  1  0
 14 13  1  0
 14 15  1  0
 16 15  1  0
 17 16  1  0
 17 18  1  0
 18 10  1  0
 18 13  1  0
 15 19  1  0
 16 19  1  0
 20 21  2  0
 14 20  1  0
 17 21  1  0
 12 22  2  0
 10 23  2  0
  9 11  1  0
  5 24  1  0
  1  2  1  0
 24 25  1  0
  2  3  2  0
 24 26  1  0
  3  4  1  0
 24 27  1  0
  3 28  1  0
  4 29  1  0
  6 30  1  0
  7 31  1  0
  9 32  1  0
 13 33  1  1
 14 34  1  6
 15 35  1  1
 16 36  1  1
 17 37  1  1
 18 38  1  1
 19 39  1  0
 19 40  1  0
 20 41  1  0
 21 42  1  0
M  END
> <Uni-Dock RESULT> 
ENERGY=   -3.857  LOWER_BOUND=    1.615  UPPER_BOUND=    2.031
INTER + INTRA:          -3.857
INTER:                  -3.857
INTRA:                   0.000
UNBOUND:                 0.000

$$$$

     RDKit          3D

 42 46  0  0  0  0  0  0  0  0999 V2000
   28.4998   10.5897   27.2505 C   0  0  0  0  0  0  0  0  0  0  0  0
   27.2660   10.1853   27.9671 C   0  0  0  0  0  0  0  0  0  0  0  0
   27.3238    9.6726   29.2752 C   0  0  0  0  0  0  0  0  0  0  0  0
   26.1543    9.3008   29.9447 C   0  0  0  0  0  0  0  0  0  0  0  0
   24.9004    9.4554   29.3310 C   0  0  0  0  0  0  0  0  0  0  0  0
   24.8426    9.9510   28.0180 C   0  0  0  0  0  0  0  0  0  0  0  0
   26.0114   10.3239   27.3483 C   0  0  0  0  0  0  0  0  0  0  0  0
   28.4164   11.3520   26.2491 O   0  0  0  0  0  0  0  0  0  0  0  0
   29.7845   10.0935   27.6541 N   0  0  0  0  0  0  0  0  0  0  0  0
   31.2546   12.0980   27.2644 C   0  0  0  0  0  0  0  0  0  0  0  0
   30.9824   10.7033   27.2385 N   0  0  0  0  0  0  0  0  0  0  0  0
   32.2348   10.0419   27.1835 C   0  0  0  0  0  0  0  0  0  0  0  0
   33.3947   10.9866   27.0834 C   0  0  2  0  0  0  0  0  0  0  0  0
   34.4049   10.8435   28.2655 C   0  0  1  0  0  0  0  0  0  0  0  0
   35.4814   11.9564   28.0209 C   0  0  1  0  0  0  0  0  0  0  0  0
   34.8147   13.3588   28.0723 C   0  0  1  0  0  0  0  0  0  0  0  0
   33.2795   13.2113   28.3532 C   0  0  1  0  0  0  0  0  0  0  0  0
   32.7163   12.4099   27.1368 C   0  0  2  0  0  0  0  0  0  0  0  0
   35.8730   12.9634   29.1065 C   0  0  0  0  0  0  0  0  0  0  0  0
   33.6410   11.1412   29.5493 C   0  0  0  0  0  0  0  0  0  0  0  0
   33.0646   12.3546   29.5944 C   0  0  0  0  0  0  0  0  0  0  0  0
   32.3493    8.7877   27.2098 O   0  0  0  0  0  0  0  0  0  0  0  0
   30.3648   12.9747   27.4275 O   0  0  0  0  0  0  0  0  0  0  0  0
   23.6443    9.0074   30.0351 C   0  0  0  0  0  0  0  0  0  0  0  0
   23.7721    9.1564   31.4053 F   0  0  0  0  0  0  0  0  0  0  0  0
   22.5568    9.7559   29.6186 F   0  0  0  0  0  0  0  0  0  0  0  0
   23.4115    7.6757   29.7466 F   0  0  0  0  0  0  0  0  0  0  0  0
   28.2688    9.5699   29.7920 H   0  0  0  0  0  0  0  0  0  0  0  0
   26.2309    8.8947   30.9456 H   0  0  0  0  0  0  0  0  0  0  0  0
   23.8927   10.0485   27.5075 H   0  0  0  0  0  0  0  0  0  0  0  0
   25.9335   10.7077   26.3386 H   0  0  0  0  0  0  0  0  0  0  0  0
   29.8353    9.1721   28.1434 H   0  0  0  0  0  0  0  0  0  0  0  0
   33.9083   10.8343   26.1084 H   0  0  0  0  0  0  0  0  0  0  0  0
   34.8702    9.8355   28.2932 H   0  0  0  0  0  0  0  0  0  0  0  0
   36.1722   11.8508   27.1569 H   0  0  0  0  0  0  0  0  0  0  0  0
   35.1445   14.0120   27.2362 H   0  0  0  0  0  0  0  0  0  0  0  0
   32.7941   14.2048   28.4556 H   0  0  0  0  0  0  0  0  0  0  0  0
   32.8913   12.9636   26.1880 H   0  0  0  0  0  0  0  0  0  0  0  0
   36.8601   13.4391   28.9299 H   0  0  0  0  0  0  0  0  0  0  0  0
   35.5338   12.7638   30.1422 H   0  0  0  0  0  0  0  0  0  0  0  0
   33.5679   10.4333   30.3681 H   0  0  0  0  0  0  0  0  0  0  0  0
   32.4938   12.6945   30.4522 H   0  0  0  0  0  0  0  0  0  0  0  0
  4  5  2  0
  5  6  1  0
  6  7  2  0
  2  7  1  0
  1  8  2  0
  1  9  1  0
 10 11  1  0
 11 12  1  0
 13 12  1  0
 14 13  1  0
 14 15  1  0
 16 15  1  0
 17 16  1  0
 17 18  1  0
 18 10  1  0
 18 13  1  0
 15 19  1  0
 16 19  1  0
 20 21  2  0
 14 20  1  0
 17 21  1  0
 12 22  2  0
 10 23  2  0
  9 11  1  0
  5 24  1  0
  1  2  1  0
 24 25  1  0
  2  3  2  0
 24 26  1  0
  3  4  1  0
 24 27  1  0
  3 28  1  0
  4 29  1  0
  6 30  1  0
  7 31  1  0
  9 32  1  0
 13 33  1  1
 14 34  1  6
 15 35  1  1
 16 36  1  1
 17 37  1  1
 18 38  1  1
 19 39  1  0
 19 40  1  0
 20 41  1  0
 21 42  1  0
M  END
> <Uni-Dock RESULT> 
ENERGY=   -3.790  LOWER_BOUND=    4.820  UPPER_BOUND=    8.774
INTER + INTRA:          -3.790
INTER:                  -3.790
INTRA:                   0.000
UNBOUND:                 0.000

$$$$

     RDKit          3D

 42 46  0  0  0  0  0  0  0  0999 V2000
   27.3817   12.0973   26.4485 C   0  0  0  0  0  0  0  0  0  0  0  0
   26.6344   11.2771   27.4326 C   0  0  0  0  0  0  0  0  0  0  0  0
   25.7321   10.2845   27.0109 C   0  0  0  0  0  0  0  0  0  0  0  0
   25.0378    9.5120   27.9465 C   0  0  0  0  0  0  0  0  0  0  0  0
   25.2477    9.6982   29.3227 C   0  0  0  0  0  0  0  0  0  0  0  0
   26.1354   10.7011   29.7455 C   0  0  0  0  0  0  0  0  0  0  0  0
   26.8308   11.4733   28.8106 C   0  0  0  0  0  0  0  0  0  0  0  0
   28.4155   12.7202   26.8149 O   0  0  0  0  0  0  0  0  0  0  0  0
   26.9231   12.2263   25.0949 N   0  0  0  0  0  0  0  0  0  0  0  0
   29.0916   12.2603   23.8192 C   0  0  0  0  0  0  0  0  0  0  0  0
   27.7611   12.6944   24.0662 N   0  0  0  0  0  0  0  0  0  0  0  0
   27.2936   13.2870   22.8665 C   0  0  0  0  0  0  0  0  0  0  0  0
   28.3389   13.3451   21.7933 C   0  0  2  0  0  0  0  0  0  0  0  0
   27.9279   12.5793   20.4959 C   0  0  1  0  0  0  0  0  0  0  0  0
   29.1693   12.6893   19.5451 C   0  0  1  0  0  0  0  0  0  0  0  0
   30.3971   11.9929   20.1941 C   0  0  1  0  0  0  0  0  0  0  0  0
   30.0007   11.4028   21.5913 C   0  0  1  0  0  0  0  0  0  0  0  0
   29.5844   12.6368   22.4533 C   0  0  2  0  0  0  0  0  0  0  0  0
   29.8027   11.4598   18.8871 C   0  0  0  0  0  0  0  0  0  0  0  0
   27.7055   11.1232   20.8838 C   0  0  0  0  0  0  0  0  0  0  0  0
   28.7678   10.5201   21.4448 C   0  0  0  0  0  0  0  0  0  0  0  0
   26.1197   13.7230   22.7295 O   0  0  0  0  0  0  0  0  0  0  0  0
   29.7652   11.5873   24.6440 O   0  0  0  0  0  0  0  0  0  0  0  0
   24.4611    8.8988   30.3309 C   0  0  0  0  0  0  0  0  0  0  0  0
   24.1674    7.6402   29.8353 F   0  0  0  0  0  0  0  0  0  0  0  0
   25.1821    8.7444   31.5025 F   0  0  0  0  0  0  0  0  0  0  0  0
   23.2797    9.5587   30.6129 F   0  0  0  0  0  0  0  0  0  0  0  0
   25.5692   10.0903   25.9590 H   0  0  0  0  0  0  0  0  0  0  0  0
   24.3380    8.7654   27.5924 H   0  0  0  0  0  0  0  0  0  0  0  0
   26.2908   10.8903   30.8002 H   0  0  0  0  0  0  0  0  0  0  0  0
   27.5125   12.2353   29.1680 H   0  0  0  0  0  0  0  0  0  0  0  0
   25.9036   12.1131   24.8976 H   0  0  0  0  0  0  0  0  0  0  0  0
   28.5698   14.4088   21.5638 H   0  0  0  0  0  0  0  0  0  0  0  0
   27.0227   13.0178   20.0250 H   0  0  0  0  0  0  0  0  0  0  0  0
   29.4271   13.6813   19.1156 H   0  0  0  0  0  0  0  0  0  0  0  0
   31.3192   12.6080   20.1161 H   0  0  0  0  0  0  0  0  0  0  0  0
   30.8476   10.8465   22.0457 H   0  0  0  0  0  0  0  0  0  0  0  0
   30.4331   13.3489   22.5534 H   0  0  0  0  0  0  0  0  0  0  0  0
   30.4140   11.7047   17.9936 H   0  0  0  0  0  0  0  0  0  0  0  0
   29.2404   10.5060   18.9267 H   0  0  0  0  0  0  0  0  0  0  0  0
   26.7655   10.6072   20.7188 H   0  0  0  0  0  0  0  0  0  0  0  0
   28.7449    9.4835   21.7642 H   0  0  0  0  0  0  0  0  0  0  0  0
  4  5  2  0
  5  6  1  0
  6  7  2  0
  2  7  1  0
  1  8  2  0
  1  9  1  0
 10 11  1  0
 11 12  1  0
 13 12  1  0
 14 13  1  0
 14 15  1  0
 16 15  1  0
 17 16  1  0
 17 18  1  0
 18 10  1  0
 18 13  1  0
 15 19  1  0
 16 19  1  0
 20 21  2  0
 14 20  1  0
 17 21  1  0
 12 22  2  0
 10 23  2  0
  9 11  1  0
  5 24  1  0
  1  2  1  0
 24 25  1  0
  2  3  2  0
 24 26  1  0
  3  4  1  0
 24 27  1  0
  3 28  1  0
  4 29  1  0
  6 30  1  0
  7 31  1  0
  9 32  1  0
 13 33  1  1
 14 34  1  6
 15 35  1  1
 16 36  1  1
 17 37  1  1
 18 38  1  1
 19 39  1  0
 19 40  1  0
 20 41  1  0
 21 42  1  0
M  END
> <Uni-Dock RESULT> 
ENERGY=   -3.716  LOWER_BOUND=    5.868  UPPER_BOUND=    8.761
INTER + INTRA:          -3.716
INTER:                  -3.716
INTRA:                   0.000
UNBOUND:                 0.000

$$$$

     RDKit          3D

 42 46  0  0  0  0  0  0  0  0999 V2000
   27.4263   13.6275   23.0121 C   0  0  0  0  0  0  0  0  0  0  0  0
   26.1339   14.3276   23.2094 C   0  0  0  0  0  0  0  0  0  0  0  0
   25.3252   14.6768   22.1133 C   0  0  0  0  0  0  0  0  0  0  0  0
   24.1054   15.3303   22.3103 C   0  0  0  0  0  0  0  0  0  0  0  0
   23.6561   15.6278   23.6074 C   0  0  0  0  0  0  0  0  0  0  0  0
   24.4709   15.2953   24.7021 C   0  0  0  0  0  0  0  0  0  0  0  0
   25.6903   14.6409   24.5060 C   0  0  0  0  0  0  0  0  0  0  0  0
   27.9605   13.0223   23.9813 O   0  0  0  0  0  0  0  0  0  0  0  0
   28.0995   13.6627   21.7453 N   0  0  0  0  0  0  0  0  0  0  0  0
   29.0710   11.3454   21.6154 C   0  0  0  0  0  0  0  0  0  0  0  0
   29.1213   12.7521   21.4194 N   0  0  0  0  0  0  0  0  0  0  0  0
   30.1239   12.9952   20.4474 C   0  0  0  0  0  0  0  0  0  0  0  0
   30.8430   11.7509   20.0205 C   0  0  2  0  0  0  0  0  0  0  0  0
   30.7197   11.4666   18.4901 C   0  0  1  0  0  0  0  0  0  0  0  0
   31.4578   10.1019   18.2664 C   0  0  1  0  0  0  0  0  0  0  0  0
   30.7437    8.9764   19.0645 C   0  0  1  0  0  0  0  0  0  0  0  0
   29.5135    9.5661   19.8367 C   0  0  1  0  0  0  0  0  0  0  0  0
   30.1162   10.6090   20.8308 C   0  0  2  0  0  0  0  0  0  0  0  0
   30.7979    8.9294   17.5346 C   0  0  0  0  0  0  0  0  0  0  0  0
   29.2370   11.3054   18.1800 C   0  0  0  0  0  0  0  0  0  0  0  0
   28.6190   10.3313   18.8698 C   0  0  0  0  0  0  0  0  0  0  0  0
   30.3804   14.1446   20.0000 O   0  0  0  0  0  0  0  0  0  0  0  0
   28.2069   10.7764   22.3340 O   0  0  0  0  0  0  0  0  0  0  0  0
   22.3641   16.3773   23.8158 C   0  0  0  0  0  0  0  0  0  0  0  0
   21.4556   16.0728   22.8168 F   0  0  0  0  0  0  0  0  0  0  0  0
   21.7959   16.0433   25.0330 F   0  0  0  0  0  0  0  0  0  0  0  0
   22.6179   17.7359   23.7949 F   0  0  0  0  0  0  0  0  0  0  0  0
   25.6231   14.4346   21.1017 H   0  0  0  0  0  0  0  0  0  0  0  0
   23.5110   15.6006   21.4464 H   0  0  0  0  0  0  0  0  0  0  0  0
   24.1660   15.5434   25.7110 H   0  0  0  0  0  0  0  0  0  0  0  0
   26.2936   14.3930   25.3706 H   0  0  0  0  0  0  0  0  0  0  0  0
   27.9315   14.4750   21.1103 H   0  0  0  0  0  0  0  0  0  0  0  0
   31.9117   11.8241   20.3206 H   0  0  0  0  0  0  0  0  0  0  0  0
   31.1775   12.2741   17.8803 H   0  0  0  0  0  0  0  0  0  0  0  0
   32.5620   10.0660   18.3856 H   0  0  0  0  0  0  0  0  0  0  0  0
   31.4613    8.3315   19.6156 H   0  0  0  0  0  0  0  0  0  0  0  0
   28.9518    8.7667   20.3647 H   0  0  0  0  0  0  0  0  0  0  0  0
   30.8232   10.1164   21.5344 H   0  0  0  0  0  0  0  0  0  0  0  0
   31.5263    8.1893   17.1426 H   0  0  0  0  0  0  0  0  0  0  0  0
   29.8610    9.1297   16.9782 H   0  0  0  0  0  0  0  0  0  0  0  0
   28.7165   11.9241   17.4567 H   0  0  0  0  0  0  0  0  0  0  0  0
   27.5648   10.1089   18.7421 H   0  0  0  0  0  0  0  0  0  0  0  0
  4  5  2  0
  5  6  1  0
  6  7  2  0
  2  7  1  0
  1  8  2  0
  1  9  1  0
 10 11  1  0
 11 12  1  0
 13 12  1  0
 14 13  1  0
 14 15  1  0
 16 15  1  0
 17 16  1  0
 17 18  1  0
 18 10  1  0
 18 13  1  0
 15 19  1  0
 16 19  1  0
 20 21  2  0
 14 20  1  0
 17 21  1  0
 12 22  2  0
 10 23  2  0
  9 11  1  0
  5 24  1  0
  1  2  1  0
 24 25  1  0
  2  3  2  0
 24 26  1  0
  3  4  1  0
 24 27  1  0
  3 28  1  0
  4 29  1  0
  6 30  1  0
  7 31  1  0
  9 32  1  0
 13 33  1  1
 14 34  1  6
 15 35  1  1
 16 36  1  1
 17 37  1  1
 18 38  1  1
 19 39  1  0
 19 40  1  0
 20 41  1  0
 21 42  1  0
M  END
> <Uni-Dock RESULT> 
ENERGY=   -3.697  LOWER_BOUND=    7.619  UPPER_BOUND=   10.893
INTER + INTRA:          -3.697
INTER:                  -3.697
INTRA:                   0.000
UNBOUND:                 0.000

$$$$
