
     RDKit          3D

 42 46  0  0  0  0  0  0  0  0999 V2000
   30.3440    7.7178   28.0467 C   0  0  0  0  0  0  0  0  0  0  0  0
   31.3788    8.6529   27.5422 C   0  0  0  0  0  0  0  0  0  0  0  0
   32.6974    8.2200   27.3169 C   0  0  0  0  0  0  0  0  0  0  0  0
   33.6672    9.1110   26.8479 C   0  0  0  0  0  0  0  0  0  0  0  0
   33.3463   10.4587   26.6167 C   0  0  0  0  0  0  0  0  0  0  0  0
   32.0254   10.8884   26.8247 C   0  0  0  0  0  0  0  0  0  0  0  0
   31.0554    9.9984   27.2946 C   0  0  0  0  0  0  0  0  0  0  0  0
   29.2901    8.1769   28.5658 O   0  0  0  0  0  0  0  0  0  0  0  0
   30.5051    6.2978   27.9158 N   0  0  0  0  0  0  0  0  0  0  0  0
   29.4896    4.0478   28.2829 C   0  0  0  0  0  0  0  0  0  0  0  0
   29.7384    5.3891   28.6681 N   0  0  0  0  0  0  0  0  0  0  0  0
   29.4984    5.4665   30.0667 C   0  0  0  0  0  0  0  0  0  0  0  0
   28.9903    4.1786   30.6440 C   0  0  2  0  0  0  0  0  0  0  0  0
   29.9133    3.6045   31.7654 C   0  0  1  0  0  0  0  0  0  0  0  0
   29.2645    2.2360   32.1706 C   0  0  1  0  0  0  0  0  0  0  0  0
   29.2626    1.2695   30.9543 C   0  0  1  0  0  0  0  0  0  0  0  0
   29.9092    1.9729   29.7116 C   0  0  1  0  0  0  0  0  0  0  0  0
   28.9870    3.1961   29.4097 C   0  0  2  0  0  0  0  0  0  0  0  0
   30.0700    0.9340   32.2118 C   0  0  0  0  0  0  0  0  0  0  0  0
   31.2809    3.3594   31.1408 C   0  0  0  0  0  0  0  0  0  0  0  0
   31.2788    2.5236   30.0881 C   0  0  0  0  0  0  0  0  0  0  0  0
   29.7354    6.4949   30.7545 O   0  0  0  0  0  0  0  0  0  0  0  0
   29.6697    3.6272   27.1092 O   0  0  0  0  0  0  0  0  0  0  0  0
   34.3804   11.4066   26.0633 C   0  0  0  0  0  0  0  0  0  0  0  0
   34.3501   11.3572   24.6823 F   0  0  0  0  0  0  0  0  0  0  0  0
   34.1245   12.7036   26.4739 F   0  0  0  0  0  0  0  0  0  0  0  0
   35.6469   11.0574   26.4996 F   0  0  0  0  0  0  0  0  0  0  0  0
   32.9895    7.1972   27.5150 H   0  0  0  0  0  0  0  0  0  0  0  0
   34.6708    8.7456   26.6689 H   0  0  0  0  0  0  0  0  0  0  0  0
   31.7411   11.9134   26.6219 H   0  0  0  0  0  0  0  0  0  0  0  0
   30.0469   10.3613   27.4503 H   0  0  0  0  0  0  0  0  0  0  0  0
   31.0971    5.9296   27.1380 H   0  0  0  0  0  0  0  0  0  0  0  0
   27.9570    4.3309   31.0269 H   0  0  0  0  0  0  0  0  0  0  0  0
   29.9810    4.2889   32.6373 H   0  0  0  0  0  0  0  0  0  0  0  0
   28.2891    2.2440   32.7029 H   0  0  0  0  0  0  0  0  0  0  0  0
   28.2862    0.7542   30.8284 H   0  0  0  0  0  0  0  0  0  0  0  0
   29.9735    1.2789   28.8470 H   0  0  0  0  0  0  0  0  0  0  0  0
   27.9518    2.8592   29.1806 H   0  0  0  0  0  0  0  0  0  0  0  0
   29.6016    0.1465   32.8383 H   0  0  0  0  0  0  0  0  0  0  0  0
   31.1737    1.0075   32.1515 H   0  0  0  0  0  0  0  0  0  0  0  0
   32.1895    3.8192   31.5149 H   0  0  0  0  0  0  0  0  0  0  0  0
   32.1856    2.2617   29.5532 H   0  0  0  0  0  0  0  0  0  0  0  0
  4  5  2  0
  5  6  1  0
  6  7  2  0
  2  7  1  0
  1  8  2  0
  1  9  1  0
 10 11  1  0
 11 12  1  0
 13 12  1  0
 14 13  1  0
 14 15  1  0
 16 15  1  0
 17 16  1  0
 17 18  1  0
 18 10  1  0
 18 13  1  0
 15 19  1  0
 16 19  1  0
 20 21  2  0
 14 20  1  0
 17 21  1  0
 12 22  2  0
 10 23  2  0
  9 11  1  0
  5 24  1  0
  1  2  1  0
 24 25  1  0
  2  3  2  0
 24 26  1  0
  3  4  1  0
 24 27  1  0
  3 28  1  0
  4 29  1  0
  6 30  1  0
  7 31  1  0
  9 32  1  0
 13 33  1  6
 14 34  1  6
 15 35  1  6
 16 36  1  1
 17 37  1  1
 18 38  1  1
 19 39  1  0
 19 40  1  0
 20 41  1  0
 21 42  1  0
M  END
> <Uni-Dock RESULT> 
ENERGY=   -5.568  LOWER_BOUND=    0.000  UPPER_BOUND=    0.000
INTER + INTRA:          -5.568
INTER:                  -5.568
INTRA:                   0.000
UNBOUND:                 0.000

$$$$

     RDKit          3D

 42 46  0  0  0  0  0  0  0  0999 V2000
   27.9881   12.0154   22.9167 C   0  0  0  0  0  0  0  0  0  0  0  0
   27.0597   13.0570   23.4195 C   0  0  0  0  0  0  0  0  0  0  0  0
   26.2118   13.7554   22.5419 C   0  0  0  0  0  0  0  0  0  0  0  0
   25.3453   14.7403   23.0249 C   0  0  0  0  0  0  0  0  0  0  0  0
   25.3243   15.0651   24.3912 C   0  0  0  0  0  0  0  0  0  0  0  0
   26.1581   14.3562   25.2714 C   0  0  0  0  0  0  0  0  0  0  0  0
   27.0255   13.3720   24.7891 C   0  0  0  0  0  0  0  0  0  0  0  0
   28.9636   11.6543   23.6301 O   0  0  0  0  0  0  0  0  0  0  0  0
   27.7698   11.3821   21.6476 N   0  0  0  0  0  0  0  0  0  0  0  0
   28.5454    9.6483   20.0287 C   0  0  0  0  0  0  0  0  0  0  0  0
   28.7842   10.6614   20.9909 N   0  0  0  0  0  0  0  0  0  0  0  0
   30.1232   11.0990   20.8035 C   0  0  0  0  0  0  0  0  0  0  0  0
   30.8519   10.3154   19.7523 C   0  0  2  0  0  0  0  0  0  0  0  0
   31.3699   11.2031   18.5764 C   0  0  1  0  0  0  0  0  0  0  0  0
   32.0155   10.2006   17.5586 C   0  0  1  0  0  0  0  0  0  0  0  0
   30.9377    9.2150   17.0292 C   0  0  1  0  0  0  0  0  0  0  0  0
   29.5502    9.5383   17.6833 C   0  0  1  0  0  0  0  0  0  0  0  0
   29.7587    9.3132   19.2143 C   0  0  2  0  0  0  0  0  0  0  0  0
   31.6351   10.1891   16.0751 C   0  0  0  0  0  0  0  0  0  0  0  0
   30.1529   11.8654   17.9430 C   0  0  0  0  0  0  0  0  0  0  0  0
   29.2203   11.0123   17.4857 C   0  0  0  0  0  0  0  0  0  0  0  0
   30.6262   12.0746   21.4217 O   0  0  0  0  0  0  0  0  0  0  0  0
   27.4257    9.0890   19.8858 O   0  0  0  0  0  0  0  0  0  0  0  0
   24.3538   16.0922   24.9179 C   0  0  0  0  0  0  0  0  0  0  0  0
   23.1625   15.4694   25.2397 F   0  0  0  0  0  0  0  0  0  0  0  0
   24.8602   16.7088   26.0491 F   0  0  0  0  0  0  0  0  0  0  0  0
   24.1102   17.0678   23.9665 F   0  0  0  0  0  0  0  0  0  0  0  0
   26.2238   13.5554   21.4786 H   0  0  0  0  0  0  0  0  0  0  0  0
   24.6928   15.2511   22.3276 H   0  0  0  0  0  0  0  0  0  0  0  0
   26.1382   14.5612   26.3344 H   0  0  0  0  0  0  0  0  0  0  0  0
   27.6600   12.8465   25.4923 H   0  0  0  0  0  0  0  0  0  0  0  0
   26.7956   11.3279   21.2748 H   0  0  0  0  0  0  0  0  0  0  0  0
   31.6929    9.7616   20.2250 H   0  0  0  0  0  0  0  0  0  0  0  0
   32.1099   11.9562   18.9204 H   0  0  0  0  0  0  0  0  0  0  0  0
   32.9561    9.6820   17.8432 H   0  0  0  0  0  0  0  0  0  0  0  0
   31.2950    8.1628   17.0272 H   0  0  0  0  0  0  0  0  0  0  0  0
   28.7519    8.8843   17.2731 H   0  0  0  0  0  0  0  0  0  0  0  0
   30.0580    8.2614   19.4184 H   0  0  0  0  0  0  0  0  0  0  0  0
   32.3962    9.7035   15.4294 H   0  0  0  0  0  0  0  0  0  0  0  0
   31.0451   11.0425   15.6866 H   0  0  0  0  0  0  0  0  0  0  0  0
   30.0443   12.9419   17.8623 H   0  0  0  0  0  0  0  0  0  0  0  0
   28.3064   11.3521   17.0100 H   0  0  0  0  0  0  0  0  0  0  0  0
  4  5  2  0
  5  6  1  0
  6  7  2  0
  2  7  1  0
  1  8  2  0
  1  9  1  0
 10 11  1  0
 11 12  1  0
 13 12  1  0
 14 13  1  0
 14 15  1  0
 16 15  1  0
 17 16  1  0
 17 18  1  0
 18 10  1  0
 18 13  1  0
 15 19  1  0
 16 19  1  0
 20 21  2  0
 14 20  1  0
 17 21  1  0
 12 22  2  0
 10 23  2  0
  9 11  1  0
  5 24  1  0
  1  2  1  0
 24 25  1  0
  2  3  2  0
 24 26  1  0
  3  4  1  0
 24 27  1  0
  3 28  1  0
  4 29  1  0
  6 30  1  0
  7 31  1  0
  9 32  1  0
 13 33  1  6
 14 34  1  6
 15 35  1  6
 16 36  1  1
 17 37  1  1
 18 38  1  1
 19 39  1  0
 19 40  1  0
 20 41  1  0
 21 42  1  0
M  END
> <Uni-Dock RESULT> 
ENERGY=   -4.189  LOWER_BOUND=   10.001  UPPER_BOUND=   11.814
INTER + INTRA:          -4.189
INTER:                  -4.189
INTRA:                   0.000
UNBOUND:                 0.000

$$$$

     RDKit          3D

 42 46  0  0  0  0  0  0  0  0999 V2000
   29.9781    8.1954   28.4774 C   0  0  0  0  0  0  0  0  0  0  0  0
   29.1621    9.3755   28.1017 C   0  0  0  0  0  0  0  0  0  0  0  0
   27.9114    9.6107   28.6996 C   0  0  0  0  0  0  0  0  0  0  0  0
   27.1468   10.7221   28.3333 C   0  0  0  0  0  0  0  0  0  0  0  0
   27.6043   11.6092   27.3451 C   0  0  0  0  0  0  0  0  0  0  0  0
   28.8612   11.3851   26.7596 C   0  0  0  0  0  0  0  0  0  0  0  0
   29.6259   10.2734   27.1245 C   0  0  0  0  0  0  0  0  0  0  0  0
   30.9031    7.8090   27.7120 O   0  0  0  0  0  0  0  0  0  0  0  0
   29.7583    7.5109   29.7195 N   0  0  0  0  0  0  0  0  0  0  0  0
   30.5002    5.6790   31.2432 C   0  0  0  0  0  0  0  0  0  0  0  0
   30.2564    6.2162   29.9544 N   0  0  0  0  0  0  0  0  0  0  0  0
   30.1547    5.1147   29.0622 C   0  0  0  0  0  0  0  0  0  0  0  0
   30.4194    3.7972   29.7287 C   0  0  2  0  0  0  0  0  0  0  0  0
   29.2155    2.8076   29.6280 C   0  0  1  0  0  0  0  0  0  0  0  0
   29.6527    1.5443   30.4469 C   0  0  1  0  0  0  0  0  0  0  0  0
   29.8844    1.9304   31.9338 C   0  0  1  0  0  0  0  0  0  0  0  0
   29.6076    3.4598   32.1383 C   0  0  1  0  0  0  0  0  0  0  0  0
   30.6559    4.1878   31.2388 C   0  0  2  0  0  0  0  0  0  0  0  0
   28.7754    0.9461   31.5506 C   0  0  0  0  0  0  0  0  0  0  0  0
   28.0269    3.4746   30.3086 C   0  0  0  0  0  0  0  0  0  0  0  0
   28.2280    3.8091   31.5949 C   0  0  0  0  0  0  0  0  0  0  0  0
   29.8277    5.2317   27.8513 O   0  0  0  0  0  0  0  0  0  0  0  0
   30.5823    6.3918   32.2786 O   0  0  0  0  0  0  0  0  0  0  0  0
   26.8017   12.8346   26.9870 C   0  0  0  0  0  0  0  0  0  0  0  0
   27.1627   13.8750   27.8224 F   0  0  0  0  0  0  0  0  0  0  0  0
   27.0373   13.2074   25.6748 F   0  0  0  0  0  0  0  0  0  0  0  0
   25.4466   12.5906   27.1301 F   0  0  0  0  0  0  0  0  0  0  0  0
   27.5117    8.9313   29.4408 H   0  0  0  0  0  0  0  0  0  0  0  0
   26.1943   10.8861   28.8217 H   0  0  0  0  0  0  0  0  0  0  0  0
   29.2546   12.0712   26.0201 H   0  0  0  0  0  0  0  0  0  0  0  0
   30.5886   10.1250   26.6511 H   0  0  0  0  0  0  0  0  0  0  0  0
   29.3491    8.0428   30.5200 H   0  0  0  0  0  0  0  0  0  0  0  0
   31.3369    3.3436   29.2927 H   0  0  0  0  0  0  0  0  0  0  0  0
   28.9845    2.5415   28.5749 H   0  0  0  0  0  0  0  0  0  0  0  0
   30.4681    0.9041   30.0468 H   0  0  0  0  0  0  0  0  0  0  0  0
   30.8252    1.4991   32.3384 H   0  0  0  0  0  0  0  0  0  0  0  0
   29.7083    3.7457   33.2066 H   0  0  0  0  0  0  0  0  0  0  0  0
   31.6905    3.9266   31.5531 H   0  0  0  0  0  0  0  0  0  0  0  0
   29.0235   -0.1098   31.7863 H   0  0  0  0  0  0  0  0  0  0  0  0
   27.7268    1.2961   31.6234 H   0  0  0  0  0  0  0  0  0  0  0  0
   27.0878    3.6642   29.7996 H   0  0  0  0  0  0  0  0  0  0  0  0
   27.4624    4.2876   32.1965 H   0  0  0  0  0  0  0  0  0  0  0  0
  4  5  2  0
  5  6  1  0
  6  7  2  0
  2  7  1  0
  1  8  2  0
  1  9  1  0
 10 11  1  0
 11 12  1  0
 13 12  1  0
 14 13  1  0
 14 15  1  0
 16 15  1  0
 17 16  1  0
 17 18  1  0
 18 10  1  0
 18 13  1  0
 15 19  1  0
 16 19  1  0
 20 21  2  0
 14 20  1  0
 17 21  1  0
 12 22  2  0
 10 23  2  0
  9 11  1  0
  5 24  1  0
  1  2  1  0
 24 25  1  0
  2  3  2  0
 24 26  1  0
  3  4  1  0
 24 27  1  0
  3 28  1  0
  4 29  1  0
  6 30  1  0
  7 31  1  0
  9 32  1  0
 13 33  1  6
 14 34  1  6
 15 35  1  6
 16 36  1  1
 17 37  1  1
 18 38  1  1
 19 39  1  0
 19 40  1  0
 20 41  1  0
 21 42  1  0
M  END
> <Uni-Dock RESULT> 
ENERGY=   -3.879  LOWER_BOUND=    3.301  UPPER_BOUND=    4.474
INTER + INTRA:          -3.879
INTER:                  -3.879
INTRA:                   0.000
UNBOUND:                 0.000

$$$$

     RDKit          3D

 42 46  0  0  0  0  0  0  0  0999 V2000
   27.6988   12.6320   22.4265 C   0  0  0  0  0  0  0  0  0  0  0  0
   26.5506   13.5293   22.7027 C   0  0  0  0  0  0  0  0  0  0  0  0
   25.5751   13.7793   21.7215 C   0  0  0  0  0  0  0  0  0  0  0  0
   24.5004   14.6322   21.9895 C   0  0  0  0  0  0  0  0  0  0  0  0
   24.3900   15.2720   23.2349 C   0  0  0  0  0  0  0  0  0  0  0  0
   25.3543   15.0095   24.2219 C   0  0  0  0  0  0  0  0  0  0  0  0
   26.4297   14.1577   23.9544 C   0  0  0  0  0  0  0  0  0  0  0  0
   28.7229   12.6878   23.1606 O   0  0  0  0  0  0  0  0  0  0  0  0
   27.6459   11.6717   21.3614 N   0  0  0  0  0  0  0  0  0  0  0  0
   28.8166    9.8113   20.1796 C   0  0  0  0  0  0  0  0  0  0  0  0
   28.8059   11.0581   20.8539 N   0  0  0  0  0  0  0  0  0  0  0  0
   30.0108   11.7252   20.5040 C   0  0  0  0  0  0  0  0  0  0  0  0
   30.9116   10.8903   19.6428 C   0  0  2  0  0  0  0  0  0  0  0  0
   31.2255   11.5521   18.2635 C   0  0  1  0  0  0  0  0  0  0  0  0
   32.0953   10.5005   17.4920 C   0  0  1  0  0  0  0  0  0  0  0  0
   31.2783    9.1981   17.2689 C   0  0  1  0  0  0  0  0  0  0  0  0
   29.8464    9.3527   17.8879 C   0  0  1  0  0  0  0  0  0  0  0  0
   30.0836    9.5667   19.4162 C   0  0  2  0  0  0  0  0  0  0  0  0
   31.7444   10.0366   16.0751 C   0  0  0  0  0  0  0  0  0  0  0  0
   29.8963   11.7457   17.5447 C   0  0  0  0  0  0  0  0  0  0  0  0
   29.1895   10.6186   17.3525 C   0  0  0  0  0  0  0  0  0  0  0  0
   30.2697   12.9109   20.8420 O   0  0  0  0  0  0  0  0  0  0  0  0
   27.8568    8.9970   20.2291 O   0  0  0  0  0  0  0  0  0  0  0  0
   23.2040   16.1520   23.5398 C   0  0  0  0  0  0  0  0  0  0  0  0
   22.1837   15.3769   24.0582 F   0  0  0  0  0  0  0  0  0  0  0  0
   23.5427   17.1272   24.4621 F   0  0  0  0  0  0  0  0  0  0  0  0
   22.7539   16.7810   22.3917 F   0  0  0  0  0  0  0  0  0  0  0  0
   25.6447   13.3302   20.7396 H   0  0  0  0  0  0  0  0  0  0  0  0
   23.7561   14.7941   21.2197 H   0  0  0  0  0  0  0  0  0  0  0  0
   25.2758   15.4616   25.2027 H   0  0  0  0  0  0  0  0  0  0  0  0
   27.1598   13.9793   24.7343 H   0  0  0  0  0  0  0  0  0  0  0  0
   26.7143   11.3092   21.0584 H   0  0  0  0  0  0  0  0  0  0  0  0
   31.8519   10.6747   20.1969 H   0  0  0  0  0  0  0  0  0  0  0  0
   31.7692   12.5135   18.3792 H   0  0  0  0  0  0  0  0  0  0  0  0
   33.1265   10.2938   17.8506 H   0  0  0  0  0  0  0  0  0  0  0  0
   31.8674    8.2864   17.5068 H   0  0  0  0  0  0  0  0  0  0  0  0
   29.2240    8.4553   17.6867 H   0  0  0  0  0  0  0  0  0  0  0  0
   30.6137    8.6934   19.8565 H   0  0  0  0  0  0  0  0  0  0  0  0
   32.6039    9.5903   15.5328 H   0  0  0  0  0  0  0  0  0  0  0  0
   30.9789   10.6119   15.5181 H   0  0  0  0  0  0  0  0  0  0  0  0
   29.5447   12.7156   17.2093 H   0  0  0  0  0  0  0  0  0  0  0  0
   28.2274   10.6155   16.8511 H   0  0  0  0  0  0  0  0  0  0  0  0
  4  5  2  0
  5  6  1  0
  6  7  2  0
  2  7  1  0
  1  8  2  0
  1  9  1  0
 10 11  1  0
 11 12  1  0
 13 12  1  0
 14 13  1  0
 14 15  1  0
 16 15  1  0
 17 16  1  0
 17 18  1  0
 18 10  1  0
 18 13  1  0
 15 19  1  0
 16 19  1  0
 20 21  2  0
 14 20  1  0
 17 21  1  0
 12 22  2  0
 10 23  2  0
  9 11  1  0
  5 24  1  0
  1  2  1  0
 24 25  1  0
  2  3  2  0
 24 26  1  0
  3  4  1  0
 24 27  1  0
  3 28  1  0
  4 29  1  0
  6 30  1  0
  7 31  1  0
  9 32  1  0
 13 33  1  6
 14 34  1  6
 15 35  1  6
 16 36  1  1
 17 37  1  1
 18 38  1  1
 19 39  1  0
 19 40  1  0
 20 41  1  0
 21 42  1  0
M  END
> <Uni-Dock RESULT> 
ENERGY=   -3.852  LOWER_BOUND=   10.623  UPPER_BOUND=   12.315
INTER + INTRA:          -3.852
INTER:                  -3.852
INTRA:                   0.000
UNBOUND:                 0.000

$$$$

     RDKit          3D

 42 46  0  0  0  0  0  0  0  0999 V2000
   25.6915    5.7253   31.8237 C   0  0  0  0  0  0  0  0  0  0  0  0
   26.5144    4.4950   31.7284 C   0  0  0  0  0  0  0  0  0  0  0  0
   27.7700    4.5113   31.0959 C   0  0  0  0  0  0  0  0  0  0  0  0
   28.5348    3.3447   31.0052 C   0  0  0  0  0  0  0  0  0  0  0  0
   28.0513    2.1320   31.5233 C   0  0  0  0  0  0  0  0  0  0  0  0
   26.8050    2.1181   32.1708 C   0  0  0  0  0  0  0  0  0  0  0  0
   26.0392    3.2839   32.2610 C   0  0  0  0  0  0  0  0  0  0  0  0
   24.4577    5.6315   32.0683 O   0  0  0  0  0  0  0  0  0  0  0  0
   26.2859    7.0239   31.6827 N   0  0  0  0  0  0  0  0  0  0  0  0
   25.9243    9.4926   31.7359 C   0  0  0  0  0  0  0  0  0  0  0  0
   25.5143    8.1719   31.4249 N   0  0  0  0  0  0  0  0  0  0  0  0
   24.4899    8.2790   30.4458 C   0  0  0  0  0  0  0  0  0  0  0  0
   24.1232    9.7006   30.1377 C   0  0  2  0  0  0  0  0  0  0  0  0
   24.3271   10.0732   28.6349 C   0  0  1  0  0  0  0  0  0  0  0  0
   23.9768   11.5982   28.5388 C   0  0  1  0  0  0  0  0  0  0  0  0
   24.9577   12.4239   29.4161 C   0  0  1  0  0  0  0  0  0  0  0  0
   25.9827   11.4671   30.1170 C   0  0  1  0  0  0  0  0  0  0  0  0
   25.1180   10.5403   31.0288 C   0  0  2  0  0  0  0  0  0  0  0  0
   24.9275   12.6128   27.8966 C   0  0  0  0  0  0  0  0  0  0  0  0
   25.8020    9.8641   28.3158 C   0  0  0  0  0  0  0  0  0  0  0  0
   26.6504   10.5781   29.0755 C   0  0  0  0  0  0  0  0  0  0  0  0
   23.9806    7.2845   29.8641 O   0  0  0  0  0  0  0  0  0  0  0  0
   26.8667    9.7483   32.5318 O   0  0  0  0  0  0  0  0  0  0  0  0
   28.8987    0.8857   31.4692 C   0  0  0  0  0  0  0  0  0  0  0  0
   29.6995    0.8309   32.5946 F   0  0  0  0  0  0  0  0  0  0  0  0
   28.1023   -0.2458   31.4269 F   0  0  0  0  0  0  0  0  0  0  0  0
   29.7033    0.8900   30.3428 F   0  0  0  0  0  0  0  0  0  0  0  0
   28.1605    5.4195   30.6561 H   0  0  0  0  0  0  0  0  0  0  0  0
   29.5047    3.3906   30.5259 H   0  0  0  0  0  0  0  0  0  0  0  0
   26.4226    1.2052   32.6100 H   0  0  0  0  0  0  0  0  0  0  0  0
   25.0799    3.2398   32.7617 H   0  0  0  0  0  0  0  0  0  0  0  0
   27.2949    7.1429   31.9253 H   0  0  0  0  0  0  0  0  0  0  0  0
   23.0702    9.8828   30.4471 H   0  0  0  0  0  0  0  0  0  0  0  0
   23.6768    9.4704   27.9664 H   0  0  0  0  0  0  0  0  0  0  0  0
   22.9204   11.9136   28.6785 H   0  0  0  0  0  0  0  0  0  0  0  0
   24.4322   13.1862   30.0306 H   0  0  0  0  0  0  0  0  0  0  0  0
   26.7318   12.0417   30.7017 H   0  0  0  0  0  0  0  0  0  0  0  0
   24.5587   11.1410   31.7798 H   0  0  0  0  0  0  0  0  0  0  0  0
   24.4229   13.5493   27.5796 H   0  0  0  0  0  0  0  0  0  0  0  0
   25.7820   12.2207   27.3106 H   0  0  0  0  0  0  0  0  0  0  0  0
   26.1457    9.1941   27.5348 H   0  0  0  0  0  0  0  0  0  0  0  0
   27.7267   10.5247   28.9505 H   0  0  0  0  0  0  0  0  0  0  0  0
  4  5  2  0
  5  6  1  0
  6  7  2  0
  2  7  1  0
  1  8  2  0
  1  9  1  0
 10 11  1  0
 11 12  1  0
 13 12  1  0
 14 13  1  0
 14 15  1  0
 16 15  1  0
 17 16  1  0
 17 18  1  0
 18 10  1  0
 18 13  1  0
 15 19  1  0
 16 19  1  0
 20 21  2  0
 14 20  1  0
 17 21  1  0
 12 22  2  0
 10 23  2  0
  9 11  1  0
  5 24  1  0
  1  2  1  0
 24 25  1  0
  2  3  2  0
 24 26  1  0
  3  4  1  0
 24 27  1  0
  3 28  1  0
  4 29  1  0
  6 30  1  0
  7 31  1  0
  9 32  1  0
 13 33  1  6
 14 34  1  6
 15 35  1  6
 16 36  1  1
 17 37  1  1
 18 38  1  1
 19 39  1  0
 19 40  1  0
 20 41  1  0
 21 42  1  0
M  END
> <Uni-Dock RESULT> 
ENERGY=   -3.830  LOWER_BOUND=    6.534  UPPER_BOUND=    9.748
INTER + INTRA:          -3.830
INTER:                  -3.830
INTRA:                   0.000
UNBOUND:                 0.000

$$$$

     RDKit          3D

 42 46  0  0  0  0  0  0  0  0999 V2000
   26.7576   12.5125   26.1844 C   0  0  0  0  0  0  0  0  0  0  0  0
   25.9915   11.7217   27.1781 C   0  0  0  0  0  0  0  0  0  0  0  0
   25.9606   10.3174   27.1170 C   0  0  0  0  0  0  0  0  0  0  0  0
   25.2298    9.5815   28.0542 C   0  0  0  0  0  0  0  0  0  0  0  0
   24.4950   10.2335   29.0581 C   0  0  0  0  0  0  0  0  0  0  0  0
   24.5391   11.6355   29.1308 C   0  0  0  0  0  0  0  0  0  0  0  0
   25.2687   12.3721   28.1934 C   0  0  0  0  0  0  0  0  0  0  0  0
   26.5034   13.7389   26.0354 O   0  0  0  0  0  0  0  0  0  0  0  0
   27.8126   11.9127   25.4184 N   0  0  0  0  0  0  0  0  0  0  0  0
   29.6120   12.2656   23.7255 C   0  0  0  0  0  0  0  0  0  0  0  0
   28.3189   12.5129   24.2509 N   0  0  0  0  0  0  0  0  0  0  0  0
   27.5399   13.0498   23.1905 C   0  0  0  0  0  0  0  0  0  0  0  0
   28.3309   13.2598   21.9334 C   0  0  2  0  0  0  0  0  0  0  0  0
   27.7671   12.4616   20.7151 C   0  0  1  0  0  0  0  0  0  0  0  0
   28.7675   12.7431   19.5414 C   0  0  1  0  0  0  0  0  0  0  0  0
   30.1783   12.2048   19.9067 C   0  0  1  0  0  0  0  0  0  0  0  0
   30.1494   11.5537   21.3324 C   0  0  1  0  0  0  0  0  0  0  0  0
   29.7643   12.7145   22.3031 C   0  0  2  0  0  0  0  0  0  0  0  0
   29.4033   11.6136   18.7254 C   0  0  0  0  0  0  0  0  0  0  0  0
   27.8124   10.9846   21.0854 C   0  0  0  0  0  0  0  0  0  0  0  0
   29.0331   10.5194   21.4020 C   0  0  0  0  0  0  0  0  0  0  0  0
   26.3046   13.2776   23.2848 O   0  0  0  0  0  0  0  0  0  0  0  0
   30.5333   11.7291   24.3964 O   0  0  0  0  0  0  0  0  0  0  0  0
   23.7481    9.4371   30.0982 C   0  0  0  0  0  0  0  0  0  0  0  0
   24.5944    9.1640   31.1564 F   0  0  0  0  0  0  0  0  0  0  0  0
   22.6554   10.1467   30.5661 F   0  0  0  0  0  0  0  0  0  0  0  0
   23.2921    8.2435   29.5657 F   0  0  0  0  0  0  0  0  0  0  0  0
   26.4876    9.7819   26.3382 H   0  0  0  0  0  0  0  0  0  0  0  0
   25.2368    8.5004   27.9916 H   0  0  0  0  0  0  0  0  0  0  0  0
   24.0105   12.1633   29.9148 H   0  0  0  0  0  0  0  0  0  0  0  0
   25.2788   13.4522   28.2729 H   0  0  0  0  0  0  0  0  0  0  0  0
   28.3173   11.0900   25.8178 H   0  0  0  0  0  0  0  0  0  0  0  0
   28.3723   14.3475   21.7038 H   0  0  0  0  0  0  0  0  0  0  0  0
   26.7379   12.7831   20.4494 H   0  0  0  0  0  0  0  0  0  0  0  0
   28.8069   13.7649   19.1064 H   0  0  0  0  0  0  0  0  0  0  0  0
   30.9814   12.9353   19.6693 H   0  0  0  0  0  0  0  0  0  0  0  0
   31.1335   11.1079   21.5892 H   0  0  0  0  0  0  0  0  0  0  0  0
   30.5179   13.5313   22.2554 H   0  0  0  0  0  0  0  0  0  0  0  0
   29.7858   11.9457   17.7378 H   0  0  0  0  0  0  0  0  0  0  0  0
   28.9848   10.5944   18.8409 H   0  0  0  0  0  0  0  0  0  0  0  0
   26.9308   10.3524   21.0915 H   0  0  0  0  0  0  0  0  0  0  0  0
   29.2055    9.4854   21.6815 H   0  0  0  0  0  0  0  0  0  0  0  0
  4  5  2  0
  5  6  1  0
  6  7  2  0
  2  7  1  0
  1  8  2  0
  1  9  1  0
 10 11  1  0
 11 12  1  0
 13 12  1  0
 14 13  1  0
 14 15  1  0
 16 15  1  0
 17 16  1  0
 17 18  1  0
 18 10  1  0
 18 13  1  0
 15 19  1  0
 16 19  1  0
 20 21  2  0
 14 20  1  0
 17 21  1  0
 12 22  2  0
 10 23  2  0
  9 11  1  0
  5 24  1  0
  1  2  1  0
 24 25  1  0
  2  3  2  0
 24 26  1  0
  3  4  1  0
 24 27  1  0
  3 28  1  0
  4 29  1  0
  6 30  1  0
  7 31  1  0
  9 32  1  0
 13 33  1  6
 14 34  1  6
 15 35  1  6
 16 36  1  1
 17 37  1  1
 18 38  1  1
 19 39  1  0
 19 40  1  0
 20 41  1  0
 21 42  1  0
M  END
> <Uni-Dock RESULT> 
ENERGY=   -3.760  LOWER_BOUND=    8.015  UPPER_BOUND=   11.098
INTER + INTRA:          -3.760
INTER:                  -3.760
INTRA:                   0.000
UNBOUND:                 0.000

$$$$

     RDKit          3D

 42 46  0  0  0  0  0  0  0  0999 V2000
   25.2726    9.4457   18.7451 C   0  0  0  0  0  0  0  0  0  0  0  0
   24.1987    8.4667   18.4483 C   0  0  0  0  0  0  0  0  0  0  0  0
   24.4954    7.2201   17.8699 C   0  0  0  0  0  0  0  0  0  0  0  0
   23.4751    6.3071   17.5876 C   0  0  0  0  0  0  0  0  0  0  0  0
   22.1345    6.6294   17.8551 C   0  0  0  0  0  0  0  0  0  0  0  0
   21.8384    7.8673   18.4490 C   0  0  0  0  0  0  0  0  0  0  0  0
   22.8579    8.7811   18.7306 C   0  0  0  0  0  0  0  0  0  0  0  0
   24.9764   10.6579   18.9288 O   0  0  0  0  0  0  0  0  0  0  0  0
   26.6399    9.0273   18.8674 N   0  0  0  0  0  0  0  0  0  0  0  0
   28.9868    9.7126   19.3681 C   0  0  0  0  0  0  0  0  0  0  0  0
   27.7070    9.9422   18.8037 N   0  0  0  0  0  0  0  0  0  0  0  0
   27.8644   10.9651   17.8299 C   0  0  0  0  0  0  0  0  0  0  0  0
   29.2594   11.5145   17.7806 C   0  0  2  0  0  0  0  0  0  0  0  0
   29.9322   11.3514   16.3807 C   0  0  1  0  0  0  0  0  0  0  0  0
   31.3900   11.8997   16.5594 C   0  0  1  0  0  0  0  0  0  0  0  0
   32.1542   11.0426   17.6058 C   0  0  1  0  0  0  0  0  0  0  0  0
   31.2222    9.9048   18.1481 C   0  0  1  0  0  0  0  0  0  0  0  0
   30.0366   10.6456   18.8435 C   0  0  2  0  0  0  0  0  0  0  0  0
   32.6213   11.0872   16.1479 C   0  0  0  0  0  0  0  0  0  0  0  0
   29.9786    9.8598   16.0750 C   0  0  0  0  0  0  0  0  0  0  0  0
   30.6393    9.1184   16.9809 C   0  0  0  0  0  0  0  0  0  0  0  0
   26.9406   11.3344   17.0573 O   0  0  0  0  0  0  0  0  0  0  0  0
   29.2066    8.8177   20.2271 O   0  0  0  0  0  0  0  0  0  0  0  0
   21.0404    5.6243   17.5966 C   0  0  0  0  0  0  0  0  0  0  0  0
   20.8775    4.8310   18.7168 F   0  0  0  0  0  0  0  0  0  0  0  0
   19.8444    6.2637   17.3190 F   0  0  0  0  0  0  0  0  0  0  0  0
   21.3608    4.8197   16.5167 F   0  0  0  0  0  0  0  0  0  0  0  0
   25.5129    6.9501   17.6196 H   0  0  0  0  0  0  0  0  0  0  0  0
   23.7351    5.3485   17.1561 H   0  0  0  0  0  0  0  0  0  0  0  0
   20.8175    8.1286   18.6982 H   0  0  0  0  0  0  0  0  0  0  0  0
   22.5970    9.7296   19.1838 H   0  0  0  0  0  0  0  0  0  0  0  0
   26.8397    8.0446   19.1596 H   0  0  0  0  0  0  0  0  0  0  0  0
   29.2429   12.5844   18.0851 H   0  0  0  0  0  0  0  0  0  0  0  0
   29.3880   11.9117   15.5914 H   0  0  0  0  0  0  0  0  0  0  0  0
   31.5348   12.9894   16.7220 H   0  0  0  0  0  0  0  0  0  0  0  0
   32.7128   11.6684   18.3346 H   0  0  0  0  0  0  0  0  0  0  0  0
   31.7675    9.2423   18.8530 H   0  0  0  0  0  0  0  0  0  0  0  0
   30.4076   11.2845   19.6752 H   0  0  0  0  0  0  0  0  0  0  0  0
   33.5280   11.7090   15.9952 H   0  0  0  0  0  0  0  0  0  0  0  0
   32.4601   10.1844   15.5264 H   0  0  0  0  0  0  0  0  0  0  0  0
   29.5180    9.4252   15.1941 H   0  0  0  0  0  0  0  0  0  0  0  0
   30.7493    8.0436   16.8821 H   0  0  0  0  0  0  0  0  0  0  0  0
  4  5  2  0
  5  6  1  0
  6  7  2  0
  2  7  1  0
  1  8  2  0
  1  9  1  0
 10 11  1  0
 11 12  1  0
 13 12  1  0
 14 13  1  0
 14 15  1  0
 16 15  1  0
 17 16  1  0
 17 18  1  0
 18 10  1  0
 18 13  1  0
 15 19  1  0
 16 19  1  0
 20 21  2  0
 14 20  1  0
 17 21  1  0
 12 22  2  0
 10 23  2  0
  9 11  1  0
  5 24  1  0
  1  2  1  0
 24 25  1  0
  2  3  2  0
 24 26  1  0
  3  4  1  0
 24 27  1  0
  3 28  1  0
  4 29  1  0
  6 30  1  0
  7 31  1  0
  9 32  1  0
 13 33  1  6
 14 34  1  6
 15 35  1  6
 16 36  1  1
 17 37  1  1
 18 38  1  1
 19 39  1  0
 19 40  1  0
 20 41  1  0
 21 42  1  0
M  END
> <Uni-Dock RESULT> 
ENERGY=   -3.723  LOWER_BOUND=   11.984  UPPER_BOUND=   14.471
INTER + INTRA:          -3.723
INTER:                  -3.723
INTRA:                   0.000
UNBOUND:                 0.000

$$$$

     RDKit          3D

 42 46  0  0  0  0  0  0  0  0999 V2000
   28.5235   11.0282   27.7813 C   0  0  0  0  0  0  0  0  0  0  0  0
   29.8539   10.3789   27.6919 C   0  0  0  0  0  0  0  0  0  0  0  0
   30.0429    9.0538   28.1222 C   0  0  0  0  0  0  0  0  0  0  0  0
   31.3025    8.4531   28.0403 C   0  0  0  0  0  0  0  0  0  0  0  0
   32.4052    9.1711   27.5489 C   0  0  0  0  0  0  0  0  0  0  0  0
   32.2142   10.4890   27.1025 C   0  0  0  0  0  0  0  0  0  0  0  0
   30.9553   11.0906   27.1851 C   0  0  0  0  0  0  0  0  0  0  0  0
   28.4396   12.2856   27.7270 O   0  0  0  0  0  0  0  0  0  0  0  0
   27.3254   10.2454   27.8871 N   0  0  0  0  0  0  0  0  0  0  0  0
   24.8325   10.2652   28.0027 C   0  0  0  0  0  0  0  0  0  0  0  0
   26.1063   10.8038   28.3132 N   0  0  0  0  0  0  0  0  0  0  0  0
   25.9315   11.6478   29.4431 C   0  0  0  0  0  0  0  0  0  0  0  0
   24.4978   11.7645   29.8685 C   0  0  2  0  0  0  0  0  0  0  0  0
   24.2547   11.2914   31.3369 C   0  0  1  0  0  0  0  0  0  0  0  0
   22.7067   11.4090   31.5552 C   0  0  1  0  0  0  0  0  0  0  0  0
   21.9597   10.4633   30.5747 C   0  0  1  0  0  0  0  0  0  0  0  0
   22.9935    9.6955   29.6808 C   0  0  1  0  0  0  0  0  0  0  0  0
   23.7377   10.8053   28.8730 C   0  0  2  0  0  0  0  0  0  0  0  0
   21.8690   10.2426   32.0875 C   0  0  0  0  0  0  0  0  0  0  0  0
   24.6745    9.8290   31.4136 C   0  0  0  0  0  0  0  0  0  0  0  0
   24.0284    9.0113   30.5647 C   0  0  0  0  0  0  0  0  0  0  0  0
   26.8875   12.1986   30.0511 O   0  0  0  0  0  0  0  0  0  0  0  0
   24.6497    9.4242   27.0827 O   0  0  0  0  0  0  0  0  0  0  0  0
   33.7520    8.5060   27.4144 C   0  0  0  0  0  0  0  0  0  0  0  0
   33.8362    7.8954   26.1772 F   0  0  0  0  0  0  0  0  0  0  0  0
   34.7706    9.4364   27.5284 F   0  0  0  0  0  0  0  0  0  0  0  0
   33.9266    7.5513   28.4015 F   0  0  0  0  0  0  0  0  0  0  0  0
   29.2242    8.4805   28.5368 H   0  0  0  0  0  0  0  0  0  0  0  0
   31.4148    7.4262   28.3650 H   0  0  0  0  0  0  0  0  0  0  0  0
   33.0386   11.0548   26.6870 H   0  0  0  0  0  0  0  0  0  0  0  0
   30.8410   12.1101   26.8377 H   0  0  0  0  0  0  0  0  0  0  0  0
   27.3230    9.2765   27.4967 H   0  0  0  0  0  0  0  0  0  0  0  0
   24.1602   12.8160   29.7347 H   0  0  0  0  0  0  0  0  0  0  0  0
   24.8105   11.9132   32.0701 H   0  0  0  0  0  0  0  0  0  0  0  0
   22.2481   12.4204   31.5954 H   0  0  0  0  0  0  0  0  0  0  0  0
   21.0967   10.9629   30.0843 H   0  0  0  0  0  0  0  0  0  0  0  0
   22.4840    8.9685   29.0137 H   0  0  0  0  0  0  0  0  0  0  0  0
   23.0212   11.3805   28.2458 H   0  0  0  0  0  0  0  0  0  0  0  0
   20.8978   10.5602   32.5211 H   0  0  0  0  0  0  0  0  0  0  0  0
   22.4067    9.3737   32.5156 H   0  0  0  0  0  0  0  0  0  0  0  0
   25.4335    9.4701   32.1007 H   0  0  0  0  0  0  0  0  0  0  0  0
   24.2296    7.9462   30.5189 H   0  0  0  0  0  0  0  0  0  0  0  0
  4  5  2  0
  5  6  1  0
  6  7  2  0
  2  7  1  0
  1  8  2  0
  1  9  1  0
 10 11  1  0
 11 12  1  0
 13 12  1  0
 14 13  1  0
 14 15  1  0
 16 15  1  0
 17 16  1  0
 17 18  1  0
 18 10  1  0
 18 13  1  0
 15 19  1  0
 16 19  1  0
 20 21  2  0
 14 20  1  0
 17 21  1  0
 12 22  2  0
 10 23  2  0
  9 11  1  0
  5 24  1  0
  1  2  1  0
 24 25  1  0
  2  3  2  0
 24 26  1  0
  3  4  1  0
 24 27  1  0
  3 28  1  0
  4 29  1  0
  6 30  1  0
  7 31  1  0
  9 32  1  0
 13 33  1  6
 14 34  1  6
 15 35  1  6
 16 36  1  1
 17 37  1  1
 18 38  1  1
 19 39  1  0
 19 40  1  0
 20 41  1  0
 21 42  1  0
M  END
> <Uni-Dock RESULT> 
ENERGY=   -3.696  LOWER_BOUND=    5.513  UPPER_BOUND=    7.091
INTER + INTRA:          -3.696
INTER:                  -3.696
INTRA:                   0.000
UNBOUND:                 0.000

$$$$

     RDKit          3D

 42 46  0  0  0  0  0  0  0  0999 V2000
   28.4333   11.5412   26.8407 C   0  0  0  0  0  0  0  0  0  0  0  0
   29.8622   11.1456   26.8820 C   0  0  0  0  0  0  0  0  0  0  0  0
   30.3160   10.1652   27.7818 C   0  0  0  0  0  0  0  0  0  0  0  0
   31.6661    9.8045   27.8177 C   0  0  0  0  0  0  0  0  0  0  0  0
   32.5955   10.4322   26.9722 C   0  0  0  0  0  0  0  0  0  0  0  0
   32.1406   11.3993   26.0608 C   0  0  0  0  0  0  0  0  0  0  0  0
   30.7911   11.7613   26.0250 C   0  0  0  0  0  0  0  0  0  0  0  0
   28.1050   12.6324   26.3000 O   0  0  0  0  0  0  0  0  0  0  0  0
   27.4136   10.6814   27.3701 N   0  0  0  0  0  0  0  0  0  0  0  0
   24.9681   10.3280   27.7210 C   0  0  0  0  0  0  0  0  0  0  0  0
   26.1199   11.1520   27.6607 N   0  0  0  0  0  0  0  0  0  0  0  0
   25.8118   12.3421   28.3736 C   0  0  0  0  0  0  0  0  0  0  0  0
   24.3936   12.3803   28.8609 C   0  0  2  0  0  0  0  0  0  0  0  0
   24.2833   12.5165   30.4128 C   0  0  1  0  0  0  0  0  0  0  0  0
   22.7478   12.4514   30.7225 C   0  0  1  0  0  0  0  0  0  0  0  0
   22.1755   11.0765   30.2801 C   0  0  1  0  0  0  0  0  0  0  0  0
   23.3168   10.1955   29.6648 C   0  0  1  0  0  0  0  0  0  0  0  0
   23.8107   10.9849   28.4114 C   0  0  2  0  0  0  0  0  0  0  0  0
   22.1665   11.4828   31.7567 C   0  0  0  0  0  0  0  0  0  0  0  0
   24.9815   11.3069   31.0212 C   0  0  0  0  0  0  0  0  0  0  0  0
   24.4865   10.1176   30.6376 C   0  0  0  0  0  0  0  0  0  0  0  0
   26.6568   13.2455   28.6120 O   0  0  0  0  0  0  0  0  0  0  0  0
   24.9302    9.1665   27.2348 O   0  0  0  0  0  0  0  0  0  0  0  0
   34.0423   10.0068   26.9769 C   0  0  0  0  0  0  0  0  0  0  0  0
   34.2135    8.9668   26.0826 F   0  0  0  0  0  0  0  0  0  0  0  0
   34.8627   11.0589   26.6075 F   0  0  0  0  0  0  0  0  0  0  0  0
   34.4236    9.5842   28.2387 F   0  0  0  0  0  0  0  0  0  0  0  0
   29.6350    9.6835   28.4709 H   0  0  0  0  0  0  0  0  0  0  0  0
   31.9841    9.0354   28.5105 H   0  0  0  0  0  0  0  0  0  0  0  0
   32.8287   11.8749   25.3731 H   0  0  0  0  0  0  0  0  0  0  0  0
   30.4721   12.5141   25.3146 H   0  0  0  0  0  0  0  0  0  0  0  0
   27.5903    9.6523   27.3993 H   0  0  0  0  0  0  0  0  0  0  0  0
   23.8545   13.2117   28.3554 H   0  0  0  0  0  0  0  0  0  0  0  0
   24.7251   13.4676   30.7779 H   0  0  0  0  0  0  0  0  0  0  0  0
   22.1022   13.2979   30.4039 H   0  0  0  0  0  0  0  0  0  0  0  0
   21.2200   11.1789   29.7220 H   0  0  0  0  0  0  0  0  0  0  0  0
   22.9425    9.1849   29.3971 H   0  0  0  0  0  0  0  0  0  0  0  0
   22.9808   11.1236   27.6837 H   0  0  0  0  0  0  0  0  0  0  0  0
   21.1630   11.7820   32.1246 H   0  0  0  0  0  0  0  0  0  0  0  0
   22.8735   10.9691   32.4377 H   0  0  0  0  0  0  0  0  0  0  0  0
   25.8124   11.3938   31.7133 H   0  0  0  0  0  0  0  0  0  0  0  0
   24.8900    9.1774   30.9986 H   0  0  0  0  0  0  0  0  0  0  0  0
  4  5  2  0
  5  6  1  0
  6  7  2  0
  2  7  1  0
  1  8  2  0
  1  9  1  0
 10 11  1  0
 11 12  1  0
 13 12  1  0
 14 13  1  0
 14 15  1  0
 16 15  1  0
 17 16  1  0
 17 18  1  0
 18 10  1  0
 18 13  1  0
 15 19  1  0
 16 19  1  0
 20 21  2  0
 14 20  1  0
 17 21  1  0
 12 22  2  0
 10 23  2  0
  9 11  1  0
  5 24  1  0
  1  2  1  0
 24 25  1  0
  2  3  2  0
 24 26  1  0
  3  4  1  0
 24 27  1  0
  3 28  1  0
  4 29  1  0
  6 30  1  0
  7 31  1  0
  9 32  1  0
 13 33  1  6
 14 34  1  6
 15 35  1  6
 16 36  1  1
 17 37  1  1
 18 38  1  1
 19 39  1  0
 19 40  1  0
 20 41  1  0
 21 42  1  0
M  END
> <Uni-Dock RESULT> 
ENERGY=   -3.695  LOWER_BOUND=    5.705  UPPER_BOUND=    7.431
INTER + INTRA:          -3.695
INTER:                  -3.695
INTRA:                   0.000
UNBOUND:                 0.000

$$$$
