
     RDKit          3D

 42 46  0  0  0  0  0  0  0  0999 V2000
   31.0911    7.2579   28.7938 C   0  0  0  0  0  0  0  0  0  0  0  0
   31.0790    8.5948   28.1518 C   0  0  0  0  0  0  0  0  0  0  0  0
   32.2469    9.3767   28.1257 C   0  0  0  0  0  0  0  0  0  0  0  0
   32.2440   10.6402   27.5279 C   0  0  0  0  0  0  0  0  0  0  0  0
   31.0666   11.1604   26.9659 C   0  0  0  0  0  0  0  0  0  0  0  0
   29.9031   10.3738   26.9765 C   0  0  0  0  0  0  0  0  0  0  0  0
   29.9054    9.1097   27.5732 C   0  0  0  0  0  0  0  0  0  0  0  0
   32.0194    6.9606   29.5943 O   0  0  0  0  0  0  0  0  0  0  0  0
   30.0857    6.2809   28.4858 N   0  0  0  0  0  0  0  0  0  0  0  0
   29.3105    3.9320   28.8420 C   0  0  0  0  0  0  0  0  0  0  0  0
   29.8763    5.1496   29.2955 N   0  0  0  0  0  0  0  0  0  0  0  0
   29.7887    5.1433   30.7135 C   0  0  0  0  0  0  0  0  0  0  0  0
   29.2477    3.8547   31.2571 C   0  0  2  0  0  0  0  0  0  0  0  0
   30.2825    3.0784   32.1309 C   0  0  1  0  0  0  0  0  0  0  0  0
   29.5626    1.7438   32.5290 C   0  0  1  0  0  0  0  0  0  0  0  0
   29.2337    0.9185   31.2544 C   0  0  1  0  0  0  0  0  0  0  0  0
   29.7278    1.6844   29.9789 C   0  0  1  0  0  0  0  0  0  0  0  0
   28.9145    3.0171   29.9621 C   0  0  2  0  0  0  0  0  0  0  0  0
   30.2063    0.3726   32.3039 C   0  0  0  0  0  0  0  0  0  0  0  0
   31.4809    2.7696   31.2424 C   0  0  0  0  0  0  0  0  0  0  0  0
   31.1967    2.0550   30.1399 C   0  0  0  0  0  0  0  0  0  0  0  0
   30.0666    6.1413   31.4299 O   0  0  0  0  0  0  0  0  0  0  0  0
   29.1502    3.6615   27.6222 O   0  0  0  0  0  0  0  0  0  0  0  0
   31.0760   12.5024   26.2778 C   0  0  0  0  0  0  0  0  0  0  0  0
   29.8309   13.1017   26.3583 F   0  0  0  0  0  0  0  0  0  0  0  0
   31.4072   12.3289   24.9471 F   0  0  0  0  0  0  0  0  0  0  0  0
   32.0011   13.3473   26.8664 F   0  0  0  0  0  0  0  0  0  0  0  0
   33.1693    9.0056   28.5551 H   0  0  0  0  0  0  0  0  0  0  0  0
   33.1645   11.2100   27.5034 H   0  0  0  0  0  0  0  0  0  0  0  0
   28.9885   10.7379   26.5253 H   0  0  0  0  0  0  0  0  0  0  0  0
   28.9818    8.5463   27.5913 H   0  0  0  0  0  0  0  0  0  0  0  0
   29.6093    6.3270   27.5574 H   0  0  0  0  0  0  0  0  0  0  0  0
   28.3211    4.0609   31.8374 H   0  0  0  0  0  0  0  0  0  0  0  0
   30.5813    3.6567   33.0306 H   0  0  0  0  0  0  0  0  0  0  0  0
   28.7042    1.7895   33.2333 H   0  0  0  0  0  0  0  0  0  0  0  0
   28.1973    0.5177   31.2689 H   0  0  0  0  0  0  0  0  0  0  0  0
   29.5580    1.0842   29.0600 H   0  0  0  0  0  0  0  0  0  0  0  0
   27.8232    2.8102   29.8996 H   0  0  0  0  0  0  0  0  0  0  0  0
   31.2831    0.3440   32.0448 H   0  0  0  0  0  0  0  0  0  0  0  0
   29.7683   -0.4282   32.9355 H   0  0  0  0  0  0  0  0  0  0  0  0
   32.4881    3.0962   31.4788 H   0  0  0  0  0  0  0  0  0  0  0  0
   31.9586    1.7645   29.4244 H   0  0  0  0  0  0  0  0  0  0  0  0
  4  5  2  0
  5  6  1  0
  6  7  2  0
  2  7  1  0
  1  8  2  0
  1  9  1  0
 10 11  1  0
 11 12  1  0
 13 12  1  0
 14 13  1  0
 14 15  1  0
 16 15  1  0
 17 16  1  0
 17 18  1  0
 18 10  1  0
 18 13  1  0
 15 19  1  0
 16 19  1  0
 20 21  2  0
 14 20  1  0
 17 21  1  0
 12 22  2  0
 10 23  2  0
  9 11  1  0
  5 24  1  0
  1  2  1  0
 24 25  1  0
  2  3  2  0
 24 26  1  0
  3  4  1  0
 24 27  1  0
  3 28  1  0
  4 29  1  0
  6 30  1  0
  7 31  1  0
  9 32  1  0
 13 33  1  1
 14 34  1  1
 15 35  1  1
 16 36  1  1
 17 37  1  6
 18 38  1  1
 19 39  1  0
 19 40  1  0
 20 41  1  0
 21 42  1  0
M  END
> <Uni-Dock RESULT> 
ENERGY=   -4.045  LOWER_BOUND=    0.000  UPPER_BOUND=    0.000
INTER + INTRA:          -4.045
INTER:                  -4.045
INTRA:                   0.000
UNBOUND:                 0.000

$$$$

     RDKit          3D

 42 46  0  0  0  0  0  0  0  0999 V2000
   29.3164   10.0296   28.2106 C   0  0  0  0  0  0  0  0  0  0  0  0
   30.5303   10.4280   27.4574 C   0  0  0  0  0  0  0  0  0  0  0  0
   31.7604    9.7983   27.7154 C   0  0  0  0  0  0  0  0  0  0  0  0
   32.9111   10.1706   27.0147 C   0  0  0  0  0  0  0  0  0  0  0  0
   32.8624   11.1986   26.0589 C   0  0  0  0  0  0  0  0  0  0  0  0
   31.6311   11.8174   25.7881 C   0  0  0  0  0  0  0  0  0  0  0  0
   30.4796   11.4449   26.4877 C   0  0  0  0  0  0  0  0  0  0  0  0
   29.4366    9.3869   29.2892 O   0  0  0  0  0  0  0  0  0  0  0  0
   28.0047   10.3271   27.7095 N   0  0  0  0  0  0  0  0  0  0  0  0
   25.5467   10.0364   28.0547 C   0  0  0  0  0  0  0  0  0  0  0  0
   26.8633   10.2601   28.5291 N   0  0  0  0  0  0  0  0  0  0  0  0
   26.7449   10.7951   29.8400 C   0  0  0  0  0  0  0  0  0  0  0  0
   25.3258   10.8461   30.3214 C   0  0  2  0  0  0  0  0  0  0  0  0
   25.0657    9.9244   31.5542 C   0  0  1  0  0  0  0  0  0  0  0  0
   23.5313   10.0558   31.8472 C   0  0  1  0  0  0  0  0  0  0  0  0
   22.7134    9.5416   30.6303 C   0  0  1  0  0  0  0  0  0  0  0  0
   23.6847    9.0554   29.4999 C   0  0  1  0  0  0  0  0  0  0  0  0
   24.4961   10.3234   29.0853 C   0  0  2  0  0  0  0  0  0  0  0  0
   22.6205    8.8323   31.9845 C   0  0  0  0  0  0  0  0  0  0  0  0
   25.3858    8.4979   31.1256 C   0  0  0  0  0  0  0  0  0  0  0  0
   24.6780    8.0525   30.0732 C   0  0  0  0  0  0  0  0  0  0  0  0
   27.7213   11.2460   30.4956 O   0  0  0  0  0  0  0  0  0  0  0  0
   25.2958    9.6486   26.8828 O   0  0  0  0  0  0  0  0  0  0  0  0
   34.0931   11.5663   25.2684 C   0  0  0  0  0  0  0  0  0  0  0  0
   34.0508   12.8968   24.8888 F   0  0  0  0  0  0  0  0  0  0  0  0
   34.1589   10.7766   24.1358 F   0  0  0  0  0  0  0  0  0  0  0  0
   35.2364   11.3684   26.0232 F   0  0  0  0  0  0  0  0  0  0  0  0
   31.8312    9.0057   28.4500 H   0  0  0  0  0  0  0  0  0  0  0  0
   33.8394    9.6523   27.2194 H   0  0  0  0  0  0  0  0  0  0  0  0
   31.5586   12.5933   25.0361 H   0  0  0  0  0  0  0  0  0  0  0  0
   29.5558   11.9667   26.2753 H   0  0  0  0  0  0  0  0  0  0  0  0
   27.8750   10.4395   26.6792 H   0  0  0  0  0  0  0  0  0  0  0  0
   25.0548   11.8995   30.5556 H   0  0  0  0  0  0  0  0  0  0  0  0
   25.6698   10.2299   32.4345 H   0  0  0  0  0  0  0  0  0  0  0  0
   23.1427   11.0212   32.2371 H   0  0  0  0  0  0  0  0  0  0  0  0
   21.8824   10.2288   30.3617 H   0  0  0  0  0  0  0  0  0  0  0  0
   23.1214    8.6264   28.6445 H   0  0  0  0  0  0  0  0  0  0  0  0
   23.8160   11.1179   28.7059 H   0  0  0  0  0  0  0  0  0  0  0  0
   23.1014    7.8389   32.0813 H   0  0  0  0  0  0  0  0  0  0  0  0
   21.6768    9.0450   32.5289 H   0  0  0  0  0  0  0  0  0  0  0  0
   26.1247    7.8840   31.6297 H   0  0  0  0  0  0  0  0  0  0  0  0
   24.8056    7.0540   29.6688 H   0  0  0  0  0  0  0  0  0  0  0  0
  4  5  2  0
  5  6  1  0
  6  7  2  0
  2  7  1  0
  1  8  2  0
  1  9  1  0
 10 11  1  0
 11 12  1  0
 13 12  1  0
 14 13  1  0
 14 15  1  0
 16 15  1  0
 17 16  1  0
 17 18  1  0
 18 10  1  0
 18 13  1  0
 15 19  1  0
 16 19  1  0
 20 21  2  0
 14 20  1  0
 17 21  1  0
 12 22  2  0
 10 23  2  0
  9 11  1  0
  5 24  1  0
  1  2  1  0
 24 25  1  0
  2  3  2  0
 24 26  1  0
  3  4  1  0
 24 27  1  0
  3 28  1  0
  4 29  1  0
  6 30  1  0
  7 31  1  0
  9 32  1  0
 13 33  1  1
 14 34  1  1
 15 35  1  1
 16 36  1  1
 17 37  1  6
 18 38  1  1
 19 39  1  0
 19 40  1  0
 20 41  1  0
 21 42  1  0
M  END
> <Uni-Dock RESULT> 
ENERGY=   -4.023  LOWER_BOUND=    5.421  UPPER_BOUND=    6.508
INTER + INTRA:          -4.023
INTER:                  -4.023
INTRA:                   0.000
UNBOUND:                 0.000

$$$$

     RDKit          3D

 42 46  0  0  0  0  0  0  0  0999 V2000
   25.6990    4.5653   31.2770 C   0  0  0  0  0  0  0  0  0  0  0  0
   24.6390    5.5864   31.0937 C   0  0  0  0  0  0  0  0  0  0  0  0
   23.3108    5.1914   30.8571 C   0  0  0  0  0  0  0  0  0  0  0  0
   22.3058    6.1462   30.6776 C   0  0  0  0  0  0  0  0  0  0  0  0
   22.6114    7.5167   30.7050 C   0  0  0  0  0  0  0  0  0  0  0  0
   23.9349    7.9133   30.9575 C   0  0  0  0  0  0  0  0  0  0  0  0
   24.9403    6.9591   31.1383 C   0  0  0  0  0  0  0  0  0  0  0  0
   25.4935    3.3802   30.8973 O   0  0  0  0  0  0  0  0  0  0  0  0
   26.9398    4.8950   31.9187 N   0  0  0  0  0  0  0  0  0  0  0  0
   29.1190    4.0204   32.7741 C   0  0  0  0  0  0  0  0  0  0  0  0
   28.0704    4.0635   31.8217 N   0  0  0  0  0  0  0  0  0  0  0  0
   28.5682    3.4676   30.6318 C   0  0  0  0  0  0  0  0  0  0  0  0
   29.9501    2.9090   30.7951 C   0  0  2  0  0  0  0  0  0  0  0  0
   30.0058    1.3582   30.6256 C   0  0  1  0  0  0  0  0  0  0  0  0
   31.4975    0.9686   30.9101 C   0  0  1  0  0  0  0  0  0  0  0  0
   31.8751    1.3473   32.3689 C   0  0  1  0  0  0  0  0  0  0  0  0
   30.6433    1.9967   33.0890 C   0  0  1  0  0  0  0  0  0  0  0  0
   30.3326    3.2936   32.2768 C   0  0  2  0  0  0  0  0  0  0  0  0
   31.8771   -0.1173   31.9211 C   0  0  0  0  0  0  0  0  0  0  0  0
   29.1050    0.7553   31.6961 C   0  0  0  0  0  0  0  0  0  0  0  0
   29.4318    1.0822   32.9583 C   0  0  0  0  0  0  0  0  0  0  0  0
   27.9428    3.4752   29.5385 O   0  0  0  0  0  0  0  0  0  0  0  0
   29.0343    4.5519   33.9131 O   0  0  0  0  0  0  0  0  0  0  0  0
   21.5192    8.5465   30.5603 C   0  0  0  0  0  0  0  0  0  0  0  0
   22.0162    9.7110   30.0007 F   0  0  0  0  0  0  0  0  0  0  0  0
   20.9965    8.8335   31.8073 F   0  0  0  0  0  0  0  0  0  0  0  0
   20.5058    8.0735   29.7445 F   0  0  0  0  0  0  0  0  0  0  0  0
   23.0444    4.1421   30.8253 H   0  0  0  0  0  0  0  0  0  0  0  0
   21.2882    5.8118   30.5194 H   0  0  0  0  0  0  0  0  0  0  0  0
   24.1939    8.9633   31.0124 H   0  0  0  0  0  0  0  0  0  0  0  0
   25.9541    7.3021   31.2979 H   0  0  0  0  0  0  0  0  0  0  0  0
   26.9568    5.6850   32.6018 H   0  0  0  0  0  0  0  0  0  0  0  0
   30.6354    3.4070   30.0737 H   0  0  0  0  0  0  0  0  0  0  0  0
   29.6958    1.0415   29.6074 H   0  0  0  0  0  0  0  0  0  0  0  0
   32.2779    1.2750   30.1809 H   0  0  0  0  0  0  0  0  0  0  0  0
   32.8599    1.8587   32.4290 H   0  0  0  0  0  0  0  0  0  0  0  0
   30.8722    2.2192   34.1526 H   0  0  0  0  0  0  0  0  0  0  0  0
   31.2054    3.9833   32.2896 H   0  0  0  0  0  0  0  0  0  0  0  0
   31.0699   -0.7745   32.3004 H   0  0  0  0  0  0  0  0  0  0  0  0
   32.8963   -0.5280   31.7638 H   0  0  0  0  0  0  0  0  0  0  0  0
   28.2655    0.1089   31.4629 H   0  0  0  0  0  0  0  0  0  0  0  0
   28.8746    0.7179   33.8149 H   0  0  0  0  0  0  0  0  0  0  0  0
  4  5  2  0
  5  6  1  0
  6  7  2  0
  2  7  1  0
  1  8  2  0
  1  9  1  0
 10 11  1  0
 11 12  1  0
 13 12  1  0
 14 13  1  0
 14 15  1  0
 16 15  1  0
 17 16  1  0
 17 18  1  0
 18 10  1  0
 18 13  1  0
 15 19  1  0
 16 19  1  0
 20 21  2  0
 14 20  1  0
 17 21  1  0
 12 22  2  0
 10 23  2  0
  9 11  1  0
  5 24  1  0
  1  2  1  0
 24 25  1  0
  2  3  2  0
 24 26  1  0
  3  4  1  0
 24 27  1  0
  3 28  1  0
  4 29  1  0
  6 30  1  0
  7 31  1  0
  9 32  1  0
 13 33  1  1
 14 34  1  1
 15 35  1  1
 16 36  1  1
 17 37  1  6
 18 38  1  1
 19 39  1  0
 19 40  1  0
 20 41  1  0
 21 42  1  0
M  END
> <Uni-Dock RESULT> 
ENERGY=   -3.995  LOWER_BOUND=    5.687  UPPER_BOUND=    6.974
INTER + INTRA:          -3.995
INTER:                  -3.995
INTRA:                   0.000
UNBOUND:                 0.000

$$$$

     RDKit          3D

 42 46  0  0  0  0  0  0  0  0999 V2000
   28.0311   12.3329   22.7266 C   0  0  0  0  0  0  0  0  0  0  0  0
   27.4696   12.5894   24.0752 C   0  0  0  0  0  0  0  0  0  0  0  0
   26.9202   13.8458   24.3846 C   0  0  0  0  0  0  0  0  0  0  0  0
   26.3937   14.0989   25.6544 C   0  0  0  0  0  0  0  0  0  0  0  0
   26.4282   13.1095   26.6507 C   0  0  0  0  0  0  0  0  0  0  0  0
   26.9618   11.8485   26.3383 C   0  0  0  0  0  0  0  0  0  0  0  0
   27.4876   11.5942   25.0683 C   0  0  0  0  0  0  0  0  0  0  0  0
   28.3229   13.3059   21.9789 O   0  0  0  0  0  0  0  0  0  0  0  0
   28.2083   10.9935   22.2422 N   0  0  0  0  0  0  0  0  0  0  0  0
   28.8677    9.5713   20.2959 C   0  0  0  0  0  0  0  0  0  0  0  0
   29.0204   10.7070   21.1297 N   0  0  0  0  0  0  0  0  0  0  0  0
   30.3242   11.2203   20.8944 C   0  0  0  0  0  0  0  0  0  0  0  0
   31.0488   10.4896   19.8036 C   0  0  2  0  0  0  0  0  0  0  0  0
   31.3558   11.3893   18.5655 C   0  0  1  0  0  0  0  0  0  0  0  0
   32.0316   10.4337   17.5225 C   0  0  1  0  0  0  0  0  0  0  0  0
   31.0411    9.3078   17.1157 C   0  0  1  0  0  0  0  0  0  0  0  0
   29.6832    9.4888   17.8780 C   0  0  1  0  0  0  0  0  0  0  0  0
   30.0420    9.3469   19.3909 C   0  0  2  0  0  0  0  0  0  0  0  0
   31.5337   10.3213   16.0786 C   0  0  0  0  0  0  0  0  0  0  0  0
   30.0195   11.8792   18.0220 C   0  0  0  0  0  0  0  0  0  0  0  0
   29.1626   10.9054   17.6694 C   0  0  0  0  0  0  0  0  0  0  0  0
   30.8408   12.1418   21.5801 O   0  0  0  0  0  0  0  0  0  0  0  0
   27.8519    8.8271   20.3285 O   0  0  0  0  0  0  0  0  0  0  0  0
   25.8160   13.3666   28.0048 C   0  0  0  0  0  0  0  0  0  0  0  0
   26.4542   12.6194   28.9797 F   0  0  0  0  0  0  0  0  0  0  0  0
   24.4789   13.0173   27.9731 F   0  0  0  0  0  0  0  0  0  0  0  0
   25.9248   14.7039   28.3450 F   0  0  0  0  0  0  0  0  0  0  0  0
   26.8836   14.6308   23.6394 H   0  0  0  0  0  0  0  0  0  0  0  0
   25.9570   15.0689   25.8563 H   0  0  0  0  0  0  0  0  0  0  0  0
   26.9754   11.0579   27.0783 H   0  0  0  0  0  0  0  0  0  0  0  0
   27.9201   10.6214   24.8746 H   0  0  0  0  0  0  0  0  0  0  0  0
   27.5967   10.2373   22.6232 H   0  0  0  0  0  0  0  0  0  0  0  0
   31.9868   10.0537   20.2136 H   0  0  0  0  0  0  0  0  0  0  0  0
   32.0247   12.2369   18.8251 H   0  0  0  0  0  0  0  0  0  0  0  0
   33.0485   10.0411   17.7383 H   0  0  0  0  0  0  0  0  0  0  0  0
   31.5220    8.3061   17.1115 H   0  0  0  0  0  0  0  0  0  0  0  0
   28.9386    8.7303   17.5562 H   0  0  0  0  0  0  0  0  0  0  0  0
   30.4800    8.3454   19.5981 H   0  0  0  0  0  0  0  0  0  0  0  0
   30.8147   11.0839   15.7195 H   0  0  0  0  0  0  0  0  0  0  0  0
   32.2921    9.9056   15.3827 H   0  0  0  0  0  0  0  0  0  0  0  0
   29.7751   12.9315   17.9223 H   0  0  0  0  0  0  0  0  0  0  0  0
   28.1784   11.1169   17.2651 H   0  0  0  0  0  0  0  0  0  0  0  0
  4  5  2  0
  5  6  1  0
  6  7  2  0
  2  7  1  0
  1  8  2  0
  1  9  1  0
 10 11  1  0
 11 12  1  0
 13 12  1  0
 14 13  1  0
 14 15  1  0
 16 15  1  0
 17 16  1  0
 17 18  1  0
 18 10  1  0
 18 13  1  0
 15 19  1  0
 16 19  1  0
 20 21  2  0
 14 20  1  0
 17 21  1  0
 12 22  2  0
 10 23  2  0
  9 11  1  0
  5 24  1  0
  1  2  1  0
 24 25  1  0
  2  3  2  0
 24 26  1  0
  3  4  1  0
 24 27  1  0
  3 28  1  0
  4 29  1  0
  6 30  1  0
  7 31  1  0
  9 32  1  0
 13 33  1  1
 14 34  1  1
 15 35  1  1
 16 36  1  1
 17 37  1  6
 18 38  1  1
 19 39  1  0
 19 40  1  0
 20 41  1  0
 21 42  1  0
M  END
> <Uni-Dock RESULT> 
ENERGY=   -3.959  LOWER_BOUND=    8.747  UPPER_BOUND=   11.217
INTER + INTRA:          -3.959
INTER:                  -3.959
INTRA:                   0.000
UNBOUND:                 0.000

$$$$

     RDKit          3D

 42 46  0  0  0  0  0  0  0  0999 V2000
   28.3871    9.9216   29.0137 C   0  0  0  0  0  0  0  0  0  0  0  0
   29.7415    9.6376   28.4801 C   0  0  0  0  0  0  0  0  0  0  0  0
   30.6224   10.6938   28.1897 C   0  0  0  0  0  0  0  0  0  0  0  0
   31.8987   10.4365   27.6813 C   0  0  0  0  0  0  0  0  0  0  0  0
   32.3129    9.1185   27.4280 C   0  0  0  0  0  0  0  0  0  0  0  0
   31.4402    8.0612   27.7330 C   0  0  0  0  0  0  0  0  0  0  0  0
   30.1639    8.3177   28.2424 C   0  0  0  0  0  0  0  0  0  0  0  0
   27.9023   11.0800   28.8954 O   0  0  0  0  0  0  0  0  0  0  0  0
   27.6361    8.9097   29.7007 N   0  0  0  0  0  0  0  0  0  0  0  0
   25.5510    8.3953   30.9788 C   0  0  0  0  0  0  0  0  0  0  0  0
   26.2535    9.0362   29.9279 N   0  0  0  0  0  0  0  0  0  0  0  0
   25.2849    9.4446   28.9721 C   0  0  0  0  0  0  0  0  0  0  0  0
   23.8786    9.1742   29.4171 C   0  0  2  0  0  0  0  0  0  0  0  0
   23.0403   10.4759   29.6160 C   0  0  1  0  0  0  0  0  0  0  0  0
   21.6497    9.9893   30.1518 C   0  0  1  0  0  0  0  0  0  0  0  0
   21.8298    9.2716   31.5181 C   0  0  1  0  0  0  0  0  0  0  0  0
   23.3443    9.2649   31.9232 C   0  0  1  0  0  0  0  0  0  0  0  0
   24.0626    8.4459   30.8046 C   0  0  2  0  0  0  0  0  0  0  0  0
   21.0186   10.5671   31.4220 C   0  0  0  0  0  0  0  0  0  0  0  0
   23.7410   11.3041   30.6856 C   0  0  0  0  0  0  0  0  0  0  0  0
   23.8965   10.6837   31.8679 C   0  0  0  0  0  0  0  0  0  0  0  0
   25.5814    9.9149   27.8419 O   0  0  0  0  0  0  0  0  0  0  0  0
   26.1276    7.8335   31.9476 O   0  0  0  0  0  0  0  0  0  0  0  0
   33.7072    8.8385   26.9260 C   0  0  0  0  0  0  0  0  0  0  0  0
   33.7320    7.6761   26.1748 F   0  0  0  0  0  0  0  0  0  0  0  0
   34.5590    8.6956   28.0052 F   0  0  0  0  0  0  0  0  0  0  0  0
   34.1582    9.8771   26.1299 F   0  0  0  0  0  0  0  0  0  0  0  0
   30.3305   11.7212   28.3694 H   0  0  0  0  0  0  0  0  0  0  0  0
   32.5632   11.2694   27.4883 H   0  0  0  0  0  0  0  0  0  0  0  0
   31.7437    7.0338   27.5745 H   0  0  0  0  0  0  0  0  0  0  0  0
   29.5073    7.4793   28.4344 H   0  0  0  0  0  0  0  0  0  0  0  0
   28.1538    8.1403   30.1813 H   0  0  0  0  0  0  0  0  0  0  0  0
   23.3849    8.4982   28.6842 H   0  0  0  0  0  0  0  0  0  0  0  0
   22.9283   11.0452   28.6691 H   0  0  0  0  0  0  0  0  0  0  0  0
   20.9804    9.4263   29.4663 H   0  0  0  0  0  0  0  0  0  0  0  0
   21.2581    8.3202   31.5718 H   0  0  0  0  0  0  0  0  0  0  0  0
   23.4888    8.8109   32.9263 H   0  0  0  0  0  0  0  0  0  0  0  0
   23.6621    7.4090   30.7588 H   0  0  0  0  0  0  0  0  0  0  0  0
   21.4642   11.4882   31.8469 H   0  0  0  0  0  0  0  0  0  0  0  0
   19.9221   10.4052   31.4815 H   0  0  0  0  0  0  0  0  0  0  0  0
   24.0867   12.3177   30.5122 H   0  0  0  0  0  0  0  0  0  0  0  0
   24.3762   11.1617   32.7154 H   0  0  0  0  0  0  0  0  0  0  0  0
  4  5  2  0
  5  6  1  0
  6  7  2  0
  2  7  1  0
  1  8  2  0
  1  9  1  0
 10 11  1  0
 11 12  1  0
 13 12  1  0
 14 13  1  0
 14 15  1  0
 16 15  1  0
 17 16  1  0
 17 18  1  0
 18 10  1  0
 18 13  1  0
 15 19  1  0
 16 19  1  0
 20 21  2  0
 14 20  1  0
 17 21  1  0
 12 22  2  0
 10 23  2  0
  9 11  1  0
  5 24  1  0
  1  2  1  0
 24 25  1  0
  2  3  2  0
 24 26  1  0
  3  4  1  0
 24 27  1  0
  3 28  1  0
  4 29  1  0
  6 30  1  0
  7 31  1  0
  9 32  1  0
 13 33  1  1
 14 34  1  1
 15 35  1  1
 16 36  1  1
 17 37  1  6
 18 38  1  1
 19 39  1  0
 19 40  1  0
 20 41  1  0
 21 42  1  0
M  END
> <Uni-Dock RESULT> 
ENERGY=   -3.876  LOWER_BOUND=    5.567  UPPER_BOUND=    7.319
INTER + INTRA:          -3.876
INTER:                  -3.876
INTRA:                   0.000
UNBOUND:                 0.000

$$$$

     RDKit          3D

 42 46  0  0  0  0  0  0  0  0999 V2000
   29.7952    6.4418   29.7410 C   0  0  0  0  0  0  0  0  0  0  0  0
   29.8468    7.7339   29.0146 C   0  0  0  0  0  0  0  0  0  0  0  0
   28.9192    8.7480   29.3097 C   0  0  0  0  0  0  0  0  0  0  0  0
   28.9563    9.9670   28.6267 C   0  0  0  0  0  0  0  0  0  0  0  0
   29.9055   10.1891   27.6156 C   0  0  0  0  0  0  0  0  0  0  0  0
   30.8434    9.1832   27.3308 C   0  0  0  0  0  0  0  0  0  0  0  0
   30.8077    7.9642   28.0142 C   0  0  0  0  0  0  0  0  0  0  0  0
   28.7476    6.1210   30.3659 O   0  0  0  0  0  0  0  0  0  0  0  0
   30.9342    5.5694   29.7793 N   0  0  0  0  0  0  0  0  0  0  0  0
   31.8865    3.4558   30.7128 C   0  0  0  0  0  0  0  0  0  0  0  0
   30.8254    4.2221   30.1694 N   0  0  0  0  0  0  0  0  0  0  0  0
   29.8358    3.3031   29.7280 C   0  0  0  0  0  0  0  0  0  0  0  0
   30.1709    1.8810   30.0653 C   0  0  2  0  0  0  0  0  0  0  0  0
   29.1593    1.2356   31.0638 C   0  0  1  0  0  0  0  0  0  0  0  0
   29.7229   -0.1996   31.3472 C   0  0  1  0  0  0  0  0  0  0  0  0
   31.1217   -0.0971   32.0159 C   0  0  1  0  0  0  0  0  0  0  0  0
   31.5206    1.4085   32.1936 C   0  0  1  0  0  0  0  0  0  0  0  0
   31.5912    1.9861   30.7447 C   0  0  2  0  0  0  0  0  0  0  0  0
   29.9439   -0.7216   32.7699 C   0  0  0  0  0  0  0  0  0  0  0  0
   29.1976    2.0635   32.3421 C   0  0  0  0  0  0  0  0  0  0  0  0
   30.4075    2.1518   32.9212 C   0  0  0  0  0  0  0  0  0  0  0  0
   28.8232    3.6423   29.0602 O   0  0  0  0  0  0  0  0  0  0  0  0
   32.9667    3.9655   31.1132 O   0  0  0  0  0  0  0  0  0  0  0  0
   29.9766   11.5218   26.9132 C   0  0  0  0  0  0  0  0  0  0  0  0
   30.4680   11.3713   25.6279 F   0  0  0  0  0  0  0  0  0  0  0  0
   30.8143   12.3642   27.6199 F   0  0  0  0  0  0  0  0  0  0  0  0
   28.7212   12.0990   26.8311 F   0  0  0  0  0  0  0  0  0  0  0  0
   28.1720    8.6052   30.0805 H   0  0  0  0  0  0  0  0  0  0  0  0
   28.2430   10.7374   28.8915 H   0  0  0  0  0  0  0  0  0  0  0  0
   31.6044    9.3379   26.5760 H   0  0  0  0  0  0  0  0  0  0  0  0
   31.5255    7.2008   27.7447 H   0  0  0  0  0  0  0  0  0  0  0  0
   31.8870    5.9834   29.6702 H   0  0  0  0  0  0  0  0  0  0  0  0
   30.2303    1.2851   29.1276 H   0  0  0  0  0  0  0  0  0  0  0  0
   28.1336    1.1874   30.6410 H   0  0  0  0  0  0  0  0  0  0  0  0
   29.7017   -0.9526   30.5304 H   0  0  0  0  0  0  0  0  0  0  0  0
   31.8573   -0.7947   31.5608 H   0  0  0  0  0  0  0  0  0  0  0  0
   32.4904    1.5061   32.7258 H   0  0  0  0  0  0  0  0  0  0  0  0
   32.3542    1.4444   30.1429 H   0  0  0  0  0  0  0  0  0  0  0  0
   29.5017   -0.1447   33.6061 H   0  0  0  0  0  0  0  0  0  0  0  0
   29.9966   -1.8288   32.8292 H   0  0  0  0  0  0  0  0  0  0  0  0
   28.3185    2.5438   32.7585 H   0  0  0  0  0  0  0  0  0  0  0  0
   30.5729    2.7082   33.8377 H   0  0  0  0  0  0  0  0  0  0  0  0
  4  5  2  0
  5  6  1  0
  6  7  2  0
  2  7  1  0
  1  8  2  0
  1  9  1  0
 10 11  1  0
 11 12  1  0
 13 12  1  0
 14 13  1  0
 14 15  1  0
 16 15  1  0
 17 16  1  0
 17 18  1  0
 18 10  1  0
 18 13  1  0
 15 19  1  0
 16 19  1  0
 20 21  2  0
 14 20  1  0
 17 21  1  0
 12 22  2  0
 10 23  2  0
  9 11  1  0
  5 24  1  0
  1  2  1  0
 24 25  1  0
  2  3  2  0
 24 26  1  0
  3  4  1  0
 24 27  1  0
  3 28  1  0
  4 29  1  0
  6 30  1  0
  7 31  1  0
  9 32  1  0
 13 33  1  1
 14 34  1  1
 15 35  1  1
 16 36  1  1
 17 37  1  6
 18 38  1  1
 19 39  1  0
 19 40  1  0
 20 41  1  0
 21 42  1  0
M  END
> <Uni-Dock RESULT> 
ENERGY=   -3.830  LOWER_BOUND=    1.435  UPPER_BOUND=    2.680
INTER + INTRA:          -3.830
INTER:                  -3.830
INTRA:                   0.000
UNBOUND:                 0.000

$$$$

     RDKit          3D

 42 46  0  0  0  0  0  0  0  0999 V2000
   30.9911    7.8292   28.5825 C   0  0  0  0  0  0  0  0  0  0  0  0
   31.7932    8.8145   27.8174 C   0  0  0  0  0  0  0  0  0  0  0  0
   31.1917    9.9860   27.3256 C   0  0  0  0  0  0  0  0  0  0  0  0
   31.9380   10.9179   26.5987 C   0  0  0  0  0  0  0  0  0  0  0  0
   33.2961   10.6864   26.3255 C   0  0  0  0  0  0  0  0  0  0  0  0
   33.9027    9.5245   26.8299 C   0  0  0  0  0  0  0  0  0  0  0  0
   33.1572    8.5925   27.5579 C   0  0  0  0  0  0  0  0  0  0  0  0
   29.7322    7.8619   28.5105 O   0  0  0  0  0  0  0  0  0  0  0  0
   31.6237    6.8654   29.4374 N   0  0  0  0  0  0  0  0  0  0  0  0
   31.2715    5.0346   31.1016 C   0  0  0  0  0  0  0  0  0  0  0  0
   30.9395    5.7321   29.9134 N   0  0  0  0  0  0  0  0  0  0  0  0
   30.1226    4.8646   29.1396 C   0  0  0  0  0  0  0  0  0  0  0  0
   29.7978    3.5844   29.8496 C   0  0  2  0  0  0  0  0  0  0  0  0
   28.2745    3.4220   30.1492 C   0  0  1  0  0  0  0  0  0  0  0  0
   28.1562    2.0819   30.9542 C   0  0  1  0  0  0  0  0  0  0  0  0
   28.9410    2.1953   32.2904 C   0  0  1  0  0  0  0  0  0  0  0  0
   29.5987    3.6137   32.4058 C   0  0  1  0  0  0  0  0  0  0  0  0
   30.5947    3.7007   31.2064 C   0  0  2  0  0  0  0  0  0  0  0  0
   27.4220    1.9995   32.2957 C   0  0  0  0  0  0  0  0  0  0  0  0
   27.8624    4.5907   31.0353 C   0  0  0  0  0  0  0  0  0  0  0  0
   28.5407    4.6888   32.1917 C   0  0  0  0  0  0  0  0  0  0  0  0
   29.7720    5.1151   27.9560 O   0  0  0  0  0  0  0  0  0  0  0  0
   32.0639    5.4918   31.9676 O   0  0  0  0  0  0  0  0  0  0  0  0
   34.1127   11.7147   25.5837 C   0  0  0  0  0  0  0  0  0  0  0  0
   35.1454   11.1099   24.8881 F   0  0  0  0  0  0  0  0  0  0  0  0
   34.6452   12.6126   26.4898 F   0  0  0  0  0  0  0  0  0  0  0  0
   33.3256   12.4029   24.6765 F   0  0  0  0  0  0  0  0  0  0  0  0
   30.1453   10.1906   27.5155 H   0  0  0  0  0  0  0  0  0  0  0  0
   31.4526   11.8216   26.2520 H   0  0  0  0  0  0  0  0  0  0  0  0
   34.9549    9.3342   26.6588 H   0  0  0  0  0  0  0  0  0  0  0  0
   33.6508    7.6934   27.9024 H   0  0  0  0  0  0  0  0  0  0  0  0
   32.5589    7.0925   29.8434 H   0  0  0  0  0  0  0  0  0  0  0  0
   30.1729    2.7260   29.2493 H   0  0  0  0  0  0  0  0  0  0  0  0
   27.6708    3.3850   29.2179 H   0  0  0  0  0  0  0  0  0  0  0  0
   28.3573    1.1236   30.4287 H   0  0  0  0  0  0  0  0  0  0  0  0
   29.5668    1.2985   32.4878 H   0  0  0  0  0  0  0  0  0  0  0  0
   30.1139    3.7384   33.3816 H   0  0  0  0  0  0  0  0  0  0  0  0
   31.3656    2.9017   31.2775 H   0  0  0  0  0  0  0  0  0  0  0  0
   26.7913    2.8606   32.5928 H   0  0  0  0  0  0  0  0  0  0  0  0
   27.1122    0.9683   32.5651 H   0  0  0  0  0  0  0  0  0  0  0  0
   27.0804    5.2905   30.7601 H   0  0  0  0  0  0  0  0  0  0  0  0
   28.3442    5.4731   32.9150 H   0  0  0  0  0  0  0  0  0  0  0  0
  4  5  2  0
  5  6  1  0
  6  7  2  0
  2  7  1  0
  1  8  2  0
  1  9  1  0
 10 11  1  0
 11 12  1  0
 13 12  1  0
 14 13  1  0
 14 15  1  0
 16 15  1  0
 17 16  1  0
 17 18  1  0
 18 10  1  0
 18 13  1  0
 15 19  1  0
 16 19  1  0
 20 21  2  0
 14 20  1  0
 17 21  1  0
 12 22  2  0
 10 23  2  0
  9 11  1  0
  5 24  1  0
  1  2  1  0
 24 25  1  0
  2  3  2  0
 24 26  1  0
  3  4  1  0
 24 27  1  0
  3 28  1  0
  4 29  1  0
  6 30  1  0
  7 31  1  0
  9 32  1  0
 13 33  1  1
 14 34  1  1
 15 35  1  1
 16 36  1  1
 17 37  1  6
 18 38  1  1
 19 39  1  0
 19 40  1  0
 20 41  1  0
 21 42  1  0
M  END
> <Uni-Dock RESULT> 
ENERGY=   -3.805  LOWER_BOUND=    1.803  UPPER_BOUND=    3.038
INTER + INTRA:          -3.805
INTER:                  -3.805
INTRA:                   0.000
UNBOUND:                 0.000

$$$$

     RDKit          3D

 42 46  0  0  0  0  0  0  0  0999 V2000
   26.0811   13.4831   21.2202 C   0  0  0  0  0  0  0  0  0  0  0  0
   25.2147   14.3125   22.0925 C   0  0  0  0  0  0  0  0  0  0  0  0
   24.0849   14.9569   21.5592 C   0  0  0  0  0  0  0  0  0  0  0  0
   23.2655   15.7452   22.3720 C   0  0  0  0  0  0  0  0  0  0  0  0
   23.5721   15.9273   23.7305 C   0  0  0  0  0  0  0  0  0  0  0  0
   24.6911   15.2711   24.2688 C   0  0  0  0  0  0  0  0  0  0  0  0
   25.5106   14.4817   23.4567 C   0  0  0  0  0  0  0  0  0  0  0  0
   26.0136   13.6174   19.9679 O   0  0  0  0  0  0  0  0  0  0  0  0
   26.9654   12.4993   21.7772 N   0  0  0  0  0  0  0  0  0  0  0  0
   28.5874   10.6637   21.2821 C   0  0  0  0  0  0  0  0  0  0  0  0
   28.0150   11.9352   21.0292 N   0  0  0  0  0  0  0  0  0  0  0  0
   28.9343   12.6474   20.2130 C   0  0  0  0  0  0  0  0  0  0  0  0
   30.1161   11.8181   19.8080 C   0  0  2  0  0  0  0  0  0  0  0  0
   30.1921   11.5745   18.2679 C   0  0  1  0  0  0  0  0  0  0  0  0
   31.4300   10.6346   18.0627 C   0  0  1  0  0  0  0  0  0  0  0  0
   31.1961    9.2833   18.7931 C   0  0  1  0  0  0  0  0  0  0  0  0
   29.7971    9.2925   19.5004 C   0  0  1  0  0  0  0  0  0  0  0  0
   29.8776   10.4460   20.5497 C   0  0  2  0  0  0  0  0  0  0  0  0
   31.3380    9.3282   17.2688 C   0  0  0  0  0  0  0  0  0  0  0  0
   28.9190   10.8417   17.8643 C   0  0  0  0  0  0  0  0  0  0  0  0
   28.7167    9.6722   18.4955 C   0  0  0  0  0  0  0  0  0  0  0  0
   28.8047   13.8664   19.9237 O   0  0  0  0  0  0  0  0  0  0  0  0
   28.0645    9.8164   22.0539 O   0  0  0  0  0  0  0  0  0  0  0  0
   22.6609   16.7376   24.6180 C   0  0  0  0  0  0  0  0  0  0  0  0
   23.3740   17.3136   25.6551 F   0  0  0  0  0  0  0  0  0  0  0  0
   21.6869   15.9108   25.1457 F   0  0  0  0  0  0  0  0  0  0  0  0
   22.0509   17.7505   23.8982 F   0  0  0  0  0  0  0  0  0  0  0  0
   23.8249   14.8401   20.5143 H   0  0  0  0  0  0  0  0  0  0  0  0
   22.3897   16.2110   21.9378 H   0  0  0  0  0  0  0  0  0  0  0  0
   24.9351   15.3706   25.3191 H   0  0  0  0  0  0  0  0  0  0  0  0
   26.3824   14.0183   23.8994 H   0  0  0  0  0  0  0  0  0  0  0  0
   26.7269   12.0769   22.7022 H   0  0  0  0  0  0  0  0  0  0  0  0
   31.0481   12.3027   20.1746 H   0  0  0  0  0  0  0  0  0  0  0  0
   30.3114   12.5236   17.7039 H   0  0  0  0  0  0  0  0  0  0  0  0
   32.4468   11.0424   18.2485 H   0  0  0  0  0  0  0  0  0  0  0  0
   32.0865    8.9600   19.3742 H   0  0  0  0  0  0  0  0  0  0  0  0
   29.5827    8.3130   19.9775 H   0  0  0  0  0  0  0  0  0  0  0  0
   30.6897   10.2518   21.2848 H   0  0  0  0  0  0  0  0  0  0  0  0
   30.4283    9.1569   16.6601 H   0  0  0  0  0  0  0  0  0  0  0  0
   32.3218    8.9627   16.9074 H   0  0  0  0  0  0  0  0  0  0  0  0
   28.2276   11.2281   17.1229 H   0  0  0  0  0  0  0  0  0  0  0  0
   27.8509    9.0489   18.2990 H   0  0  0  0  0  0  0  0  0  0  0  0
  4  5  2  0
  5  6  1  0
  6  7  2  0
  2  7  1  0
  1  8  2  0
  1  9  1  0
 10 11  1  0
 11 12  1  0
 13 12  1  0
 14 13  1  0
 14 15  1  0
 16 15  1  0
 17 16  1  0
 17 18  1  0
 18 10  1  0
 18 13  1  0
 15 19  1  0
 16 19  1  0
 20 21  2  0
 14 20  1  0
 17 21  1  0
 12 22  2  0
 10 23  2  0
  9 11  1  0
  5 24  1  0
  1  2  1  0
 24 25  1  0
  2  3  2  0
 24 26  1  0
  3  4  1  0
 24 27  1  0
  3 28  1  0
  4 29  1  0
  6 30  1  0
  7 31  1  0
  9 32  1  0
 13 33  1  1
 14 34  1  1
 15 35  1  1
 16 36  1  1
 17 37  1  6
 18 38  1  1
 19 39  1  0
 19 40  1  0
 20 41  1  0
 21 42  1  0
M  END
> <Uni-Dock RESULT> 
ENERGY=   -3.748  LOWER_BOUND=   10.374  UPPER_BOUND=   12.274
INTER + INTRA:          -3.748
INTER:                  -3.748
INTRA:                   0.000
UNBOUND:                 0.000

$$$$

     RDKit          3D

 42 46  0  0  0  0  0  0  0  0999 V2000
   28.2023   10.8694   27.4567 C   0  0  0  0  0  0  0  0  0  0  0  0
   27.0463   10.2613   28.1592 C   0  0  0  0  0  0  0  0  0  0  0  0
   25.7607   10.3299   27.5949 C   0  0  0  0  0  0  0  0  0  0  0  0
   24.6641    9.7648   28.2520 C   0  0  0  0  0  0  0  0  0  0  0  0
   24.8247    9.1410   29.5002 C   0  0  0  0  0  0  0  0  0  0  0  0
   26.1110    9.0571   30.0577 C   0  0  0  0  0  0  0  0  0  0  0  0
   27.2084    9.6211   29.4006 C   0  0  0  0  0  0  0  0  0  0  0  0
   28.0004   11.7204   26.5480 O   0  0  0  0  0  0  0  0  0  0  0  0
   29.5468   10.4731   27.7656 N   0  0  0  0  0  0  0  0  0  0  0  0
   31.9613   10.7202   27.1702 C   0  0  0  0  0  0  0  0  0  0  0  0
   30.6574   11.2392   27.3670 N   0  0  0  0  0  0  0  0  0  0  0  0
   30.7884   12.6481   27.4956 C   0  0  0  0  0  0  0  0  0  0  0  0
   32.1942   13.1235   27.2808 C   0  0  2  0  0  0  0  0  0  0  0  0
   32.3432   14.0427   26.0280 C   0  0  1  0  0  0  0  0  0  0  0  0
   33.8755   14.3604   25.9332 C   0  0  1  0  0  0  0  0  0  0  0  0
   34.6764   13.0471   25.7141 C   0  0  1  0  0  0  0  0  0  0  0  0
   33.6955   11.8255   25.6572 C   0  0  1  0  0  0  0  0  0  0  0  0
   33.0066   11.7893   27.0580 C   0  0  2  0  0  0  0  0  0  0  0  0
   34.6741   14.1433   24.6446 C   0  0  0  0  0  0  0  0  0  0  0  0
   31.9126   13.2260   24.8162 C   0  0  0  0  0  0  0  0  0  0  0  0
   32.6057   12.0901   24.6260 C   0  0  0  0  0  0  0  0  0  0  0  0
   29.8383   13.4054   27.8276 O   0  0  0  0  0  0  0  0  0  0  0  0
   32.2073    9.4862   27.1098 O   0  0  0  0  0  0  0  0  0  0  0  0
   23.6503    8.4885   30.1854 C   0  0  0  0  0  0  0  0  0  0  0  0
   23.8162    8.5033   31.5596 F   0  0  0  0  0  0  0  0  0  0  0  0
   23.5453    7.1780   29.7586 F   0  0  0  0  0  0  0  0  0  0  0  0
   22.4757    9.1562   29.8848 F   0  0  0  0  0  0  0  0  0  0  0  0
   25.6036   10.8086   26.6362 H   0  0  0  0  0  0  0  0  0  0  0  0
   23.6898    9.8138   27.7821 H   0  0  0  0  0  0  0  0  0  0  0  0
   26.2687    8.5569   31.0052 H   0  0  0  0  0  0  0  0  0  0  0  0
   28.1786    9.5656   29.8764 H   0  0  0  0  0  0  0  0  0  0  0  0
   29.7114    9.5173   28.1534 H   0  0  0  0  0  0  0  0  0  0  0  0
   32.5487   13.6477   28.1960 H   0  0  0  0  0  0  0  0  0  0  0  0
   31.7458   14.9739   26.1241 H   0  0  0  0  0  0  0  0  0  0  0  0
   34.3356   15.0087   26.7095 H   0  0  0  0  0  0  0  0  0  0  0  0
   35.5698   12.9848   26.3720 H   0  0  0  0  0  0  0  0  0  0  0  0
   34.2411   10.8830   25.4398 H   0  0  0  0  0  0  0  0  0  0  0  0
   33.7617   11.6515   27.8633 H   0  0  0  0  0  0  0  0  0  0  0  0
   34.1074   13.9536   23.7117 H   0  0  0  0  0  0  0  0  0  0  0  0
   35.6187   14.7253   24.6089 H   0  0  0  0  0  0  0  0  0  0  0  0
   31.1113   13.5349   24.1532 H   0  0  0  0  0  0  0  0  0  0  0  0
   32.4030   11.4182   23.7987 H   0  0  0  0  0  0  0  0  0  0  0  0
  4  5  2  0
  5  6  1  0
  6  7  2  0
  2  7  1  0
  1  8  2  0
  1  9  1  0
 10 11  1  0
 11 12  1  0
 13 12  1  0
 14 13  1  0
 14 15  1  0
 16 15  1  0
 17 16  1  0
 17 18  1  0
 18 10  1  0
 18 13  1  0
 15 19  1  0
 16 19  1  0
 20 21  2  0
 14 20  1  0
 17 21  1  0
 12 22  2  0
 10 23  2  0
  9 11  1  0
  5 24  1  0
  1  2  1  0
 24 25  1  0
  2  3  2  0
 24 26  1  0
  3  4  1  0
 24 27  1  0
  3 28  1  0
  4 29  1  0
  6 30  1  0
  7 31  1  0
  9 32  1  0
 13 33  1  1
 14 34  1  1
 15 35  1  1
 16 36  1  1
 17 37  1  6
 18 38  1  1
 19 39  1  0
 19 40  1  0
 20 41  1  0
 21 42  1  0
M  END
> <Uni-Dock RESULT> 
ENERGY=   -3.684  LOWER_BOUND=    6.509  UPPER_BOUND=    9.551
INTER + INTRA:          -3.684
INTER:                  -3.684
INTRA:                   0.000
UNBOUND:                 0.000

$$$$
