
     RDKit          3D

 42 46  0  0  0  0  0  0  0  0999 V2000
   30.7259    7.8267   28.8052 C   0  0  0  0  0  0  0  0  0  0  0  0
   31.6489    8.7145   28.0573 C   0  0  0  0  0  0  0  0  0  0  0  0
   33.0289    8.4486   28.0109 C   0  0  0  0  0  0  0  0  0  0  0  0
   33.8902    9.2872   27.2975 C   0  0  0  0  0  0  0  0  0  0  0  0
   33.3934   10.4167   26.6266 C   0  0  0  0  0  0  0  0  0  0  0  0
   32.0107   10.6624   26.6413 C   0  0  0  0  0  0  0  0  0  0  0  0
   31.1485    9.8239   27.3536 C   0  0  0  0  0  0  0  0  0  0  0  0
   29.4896    7.8637   28.5583 O   0  0  0  0  0  0  0  0  0  0  0  0
   31.2134    6.9557   29.8362 N   0  0  0  0  0  0  0  0  0  0  0  0
   29.7614    4.9249   29.5228 C   0  0  0  0  0  0  0  0  0  0  0  0
   30.4520    5.8764   30.3210 N   0  0  0  0  0  0  0  0  0  0  0  0
   30.6275    5.2893   31.5992 C   0  0  0  0  0  0  0  0  0  0  0  0
   29.9767    3.9443   31.7227 C   0  0  2  0  0  0  0  0  0  0  0  0
   30.9856    2.8056   32.0742 C   0  0  1  0  0  0  0  0  0  0  0  0
   30.1335    1.4899   32.0764 C   0  0  1  0  0  0  0  0  0  0  0  0
   29.5393    1.2414   30.6625 C   0  0  1  0  0  0  0  0  0  0  0  0
   29.9831    2.3853   29.6870 C   0  0  1  0  0  0  0  0  0  0  0  0
   29.3747    3.6930   30.2863 C   0  0  2  0  0  0  0  0  0  0  0  0
   30.5412    0.2542   31.2686 C   0  0  0  0  0  0  0  0  0  0  0  0
   32.0122    2.7508   30.9502 C   0  0  0  0  0  0  0  0  0  0  0  0
   31.4987    2.5350   29.7269 C   0  0  0  0  0  0  0  0  0  0  0  0
   31.2617    5.8522   32.5308 O   0  0  0  0  0  0  0  0  0  0  0  0
   29.5427    5.0812   28.2921 O   0  0  0  0  0  0  0  0  0  0  0  0
   34.3165   11.2920   25.8168 C   0  0  0  0  0  0  0  0  0  0  0  0
   35.5824   11.3164   26.3763 F   0  0  0  0  0  0  0  0  0  0  0  0
   34.4023   10.7948   24.5299 F   0  0  0  0  0  0  0  0  0  0  0  0
   33.8405   12.5909   25.7678 F   0  0  0  0  0  0  0  0  0  0  0  0
   33.4452    7.5797   28.5032 H   0  0  0  0  0  0  0  0  0  0  0  0
   34.9457    9.0477   27.2646 H   0  0  0  0  0  0  0  0  0  0  0  0
   31.5948   11.5029   26.0998 H   0  0  0  0  0  0  0  0  0  0  0  0
   30.0888   10.0471   27.3560 H   0  0  0  0  0  0  0  0  0  0  0  0
   32.0894    7.2174   30.3414 H   0  0  0  0  0  0  0  0  0  0  0  0
   29.1660    3.9980   32.4828 H   0  0  0  0  0  0  0  0  0  0  0  0
   31.4698    2.9707   33.0599 H   0  0  0  0  0  0  0  0  0  0  0  0
   29.3809    1.3421   32.8805 H   0  0  0  0  0  0  0  0  0  0  0  0
   28.4651    0.9592   30.7015 H   0  0  0  0  0  0  0  0  0  0  0  0
   29.6203    2.1945   28.6549 H   0  0  0  0  0  0  0  0  0  0  0  0
   28.2654    3.6236   30.3326 H   0  0  0  0  0  0  0  0  0  0  0  0
   31.5639    0.2299   30.8434 H   0  0  0  0  0  0  0  0  0  0  0  0
   30.0707   -0.6835   31.6312 H   0  0  0  0  0  0  0  0  0  0  0  0
   33.0770    2.8723   31.1194 H   0  0  0  0  0  0  0  0  0  0  0  0
   32.1198    2.4702   28.8398 H   0  0  0  0  0  0  0  0  0  0  0  0
  4  5  2  0
  5  6  1  0
  6  7  2  0
  2  7  1  0
  1  8  2  0
  1  9  1  0
 10 11  1  0
 11 12  1  0
 13 12  1  0
 14 13  1  0
 14 15  1  0
 16 15  1  0
 17 16  1  0
 17 18  1  0
 18 10  1  0
 18 13  1  0
 15 19  1  0
 16 19  1  0
 20 21  2  0
 14 20  1  0
 17 21  1  0
 12 22  2  0
 10 23  2  0
  9 11  1  0
  5 24  1  0
  1  2  1  0
 24 25  1  0
  2  3  2  0
 24 26  1  0
  3  4  1  0
 24 27  1  0
  3 28  1  0
  4 29  1  0
  6 30  1  0
  7 31  1  0
  9 32  1  0
 13 33  1  6
 14 34  1  6
 15 35  1  6
 16 36  1  6
 17 37  1  1
 18 38  1  6
 19 39  1  0
 19 40  1  0
 20 41  1  0
 21 42  1  0
M  END
> <Uni-Dock RESULT> 
ENERGY=   -4.192  LOWER_BOUND=    0.000  UPPER_BOUND=    0.000
INTER + INTRA:          -4.192
INTER:                  -4.192
INTRA:                   0.000
UNBOUND:                 0.000

$$$$

     RDKit          3D

 42 46  0  0  0  0  0  0  0  0999 V2000
   29.0871    9.5602   28.2724 C   0  0  0  0  0  0  0  0  0  0  0  0
   30.3375   10.0295   27.6276 C   0  0  0  0  0  0  0  0  0  0  0  0
   30.3469   11.1811   26.8207 C   0  0  0  0  0  0  0  0  0  0  0  0
   31.5318   11.6197   26.2228 C   0  0  0  0  0  0  0  0  0  0  0  0
   32.7297   10.9099   26.4069 C   0  0  0  0  0  0  0  0  0  0  0  0
   32.7292    9.7810   27.2425 C   0  0  0  0  0  0  0  0  0  0  0  0
   31.5450    9.3421   27.8416 C   0  0  0  0  0  0  0  0  0  0  0  0
   29.1506    8.7628   29.2475 O   0  0  0  0  0  0  0  0  0  0  0  0
   27.8034    9.9669   27.7764 N   0  0  0  0  0  0  0  0  0  0  0  0
   26.4834   10.2102   29.9044 C   0  0  0  0  0  0  0  0  0  0  0  0
   26.6315    9.8308   28.5430 N   0  0  0  0  0  0  0  0  0  0  0  0
   25.3267    9.7518   27.9949 C   0  0  0  0  0  0  0  0  0  0  0  0
   24.2481    9.9955   29.0073 C   0  0  2  0  0  0  0  0  0  0  0  0
   23.3332   11.2088   28.6476 C   0  0  1  0  0  0  0  0  0  0  0  0
   22.3395   11.3436   29.8524 C   0  0  1  0  0  0  0  0  0  0  0  0
   23.1263   11.6528   31.1559 C   0  0  1  0  0  0  0  0  0  0  0  0
   24.6614   11.7318   30.8482 C   0  0  1  0  0  0  0  0  0  0  0  0
   25.0484   10.3102   30.3298 C   0  0  2  0  0  0  0  0  0  0  0  0
   22.1296   12.6690   30.5906 C   0  0  0  0  0  0  0  0  0  0  0  0
   24.2262   12.4410   28.5780 C   0  0  0  0  0  0  0  0  0  0  0  0
   24.9065   12.7093   29.7058 C   0  0  0  0  0  0  0  0  0  0  0  0
   25.1074    9.4956   26.7811 O   0  0  0  0  0  0  0  0  0  0  0  0
   27.4558   10.4816   30.6579 O   0  0  0  0  0  0  0  0  0  0  0  0
   34.0163   11.4122   25.8018 C   0  0  0  0  0  0  0  0  0  0  0  0
   33.7718   12.0652   24.6060 F   0  0  0  0  0  0  0  0  0  0  0  0
   34.6193   12.2925   26.6806 F   0  0  0  0  0  0  0  0  0  0  0  0
   34.8817   10.3612   25.5512 F   0  0  0  0  0  0  0  0  0  0  0  0
   29.4464   11.7614   26.6685 H   0  0  0  0  0  0  0  0  0  0  0  0
   31.5125   12.5199   25.6211 H   0  0  0  0  0  0  0  0  0  0  0  0
   33.6460    9.2376   27.4346 H   0  0  0  0  0  0  0  0  0  0  0  0
   31.5748    8.4610   28.4705 H   0  0  0  0  0  0  0  0  0  0  0  0
   27.7153   10.2312   26.7696 H   0  0  0  0  0  0  0  0  0  0  0  0
   23.6423    9.0701   29.1273 H   0  0  0  0  0  0  0  0  0  0  0  0
   22.7871   11.0477   27.6941 H   0  0  0  0  0  0  0  0  0  0  0  0
   21.5713   10.5547   30.0022 H   0  0  0  0  0  0  0  0  0  0  0  0
   22.7840   11.0311   32.0111 H   0  0  0  0  0  0  0  0  0  0  0  0
   25.2374   12.0133   31.7550 H   0  0  0  0  0  0  0  0  0  0  0  0
   24.8417    9.5405   31.1059 H   0  0  0  0  0  0  0  0  0  0  0  0
   22.5370   13.5886   30.1263 H   0  0  0  0  0  0  0  0  0  0  0  0
   21.1756   12.7112   31.1564 H   0  0  0  0  0  0  0  0  0  0  0  0
   24.3073   13.0594   27.6903 H   0  0  0  0  0  0  0  0  0  0  0  0
   25.5751   13.5593   29.7920 H   0  0  0  0  0  0  0  0  0  0  0  0
  4  5  2  0
  5  6  1  0
  6  7  2  0
  2  7  1  0
  1  8  2  0
  1  9  1  0
 10 11  1  0
 11 12  1  0
 13 12  1  0
 14 13  1  0
 14 15  1  0
 16 15  1  0
 17 16  1  0
 17 18  1  0
 18 10  1  0
 18 13  1  0
 15 19  1  0
 16 19  1  0
 20 21  2  0
 14 20  1  0
 17 21  1  0
 12 22  2  0
 10 23  2  0
  9 11  1  0
  5 24  1  0
  1  2  1  0
 24 25  1  0
  2  3  2  0
 24 26  1  0
  3  4  1  0
 24 27  1  0
  3 28  1  0
  4 29  1  0
  6 30  1  0
  7 31  1  0
  9 32  1  0
 13 33  1  6
 14 34  1  6
 15 35  1  6
 16 36  1  6
 17 37  1  1
 18 38  1  6
 19 39  1  0
 19 40  1  0
 20 41  1  0
 21 42  1  0
M  END
> <Uni-Dock RESULT> 
ENERGY=   -4.169  LOWER_BOUND=    5.278  UPPER_BOUND=    7.665
INTER + INTRA:          -4.169
INTER:                  -4.169
INTRA:                   0.000
UNBOUND:                 0.000

$$$$

     RDKit          3D

 42 46  0  0  0  0  0  0  0  0999 V2000
   26.9126    5.7842   31.8964 C   0  0  0  0  0  0  0  0  0  0  0  0
   27.7543    4.5955   31.6162 C   0  0  0  0  0  0  0  0  0  0  0  0
   28.0220    4.1941   30.2955 C   0  0  0  0  0  0  0  0  0  0  0  0
   28.8222    3.0765   30.0413 C   0  0  0  0  0  0  0  0  0  0  0  0
   29.3608    2.3282   31.1008 C   0  0  0  0  0  0  0  0  0  0  0  0
   29.1249    2.7499   32.4195 C   0  0  0  0  0  0  0  0  0  0  0  0
   28.3256    3.8678   32.6747 C   0  0  0  0  0  0  0  0  0  0  0  0
   26.9662    6.3316   33.0313 O   0  0  0  0  0  0  0  0  0  0  0  0
   26.0061    6.2958   30.9086 N   0  0  0  0  0  0  0  0  0  0  0  0
   26.1802    8.7771   31.2870 C   0  0  0  0  0  0  0  0  0  0  0  0
   25.4570    7.5879   30.9998 N   0  0  0  0  0  0  0  0  0  0  0  0
   24.2467    7.9842   30.3774 C   0  0  0  0  0  0  0  0  0  0  0  0
   24.0826    9.4727   30.3053 C   0  0  2  0  0  0  0  0  0  0  0  0
   23.9378   10.0029   28.8437 C   0  0  1  0  0  0  0  0  0  0  0  0
   23.8616   11.5626   28.9798 C   0  0  1  0  0  0  0  0  0  0  0  0
   25.1775   12.1050   29.6028 C   0  0  1  0  0  0  0  0  0  0  0  0
   26.1597   10.9187   29.8947 C   0  0  1  0  0  0  0  0  0  0  0  0
   25.4196   10.0218   30.9373 C   0  0  2  0  0  0  0  0  0  0  0  0
   24.7738   12.4956   28.1779 C   0  0  0  0  0  0  0  0  0  0  0  0
   25.2067    9.6139   28.0960 C   0  0  0  0  0  0  0  0  0  0  0  0
   26.3453   10.0835   28.6342 C   0  0  0  0  0  0  0  0  0  0  0  0
   23.3997    7.1609   29.9394 O   0  0  0  0  0  0  0  0  0  0  0  0
   27.3553    8.7809   31.7408 O   0  0  0  0  0  0  0  0  0  0  0  0
   30.2641    1.1527   30.8244 C   0  0  0  0  0  0  0  0  0  0  0  0
   29.9039    0.5267   29.6435 F   0  0  0  0  0  0  0  0  0  0  0  0
   31.5690    1.5965   30.7190 F   0  0  0  0  0  0  0  0  0  0  0  0
   30.1846    0.2239   31.8476 F   0  0  0  0  0  0  0  0  0  0  0  0
   27.6363    4.7548   29.4543 H   0  0  0  0  0  0  0  0  0  0  0  0
   29.0260    2.8014   29.0139 H   0  0  0  0  0  0  0  0  0  0  0  0
   29.5603    2.2157   33.2547 H   0  0  0  0  0  0  0  0  0  0  0  0
   28.1520    4.1603   33.7029 H   0  0  0  0  0  0  0  0  0  0  0  0
   25.6298    5.6417   30.1863 H   0  0  0  0  0  0  0  0  0  0  0  0
   23.2061    9.7748   30.9203 H   0  0  0  0  0  0  0  0  0  0  0  0
   23.0315    9.5996   28.3445 H   0  0  0  0  0  0  0  0  0  0  0  0
   22.9590   12.0150   29.4441 H   0  0  0  0  0  0  0  0  0  0  0  0
   24.9869   12.8507   30.4044 H   0  0  0  0  0  0  0  0  0  0  0  0
   27.1315   11.2902   30.2832 H   0  0  0  0  0  0  0  0  0  0  0  0
   25.2076   10.5951   31.8668 H   0  0  0  0  0  0  0  0  0  0  0  0
   25.3508   12.0582   27.3395 H   0  0  0  0  0  0  0  0  0  0  0  0
   24.3839   13.5319   28.0995 H   0  0  0  0  0  0  0  0  0  0  0  0
   25.1970    9.0080   27.1961 H   0  0  0  0  0  0  0  0  0  0  0  0
   27.3187    9.8832   28.1992 H   0  0  0  0  0  0  0  0  0  0  0  0
  4  5  2  0
  5  6  1  0
  6  7  2  0
  2  7  1  0
  1  8  2  0
  1  9  1  0
 10 11  1  0
 11 12  1  0
 13 12  1  0
 14 13  1  0
 14 15  1  0
 16 15  1  0
 17 16  1  0
 17 18  1  0
 18 10  1  0
 18 13  1  0
 15 19  1  0
 16 19  1  0
 20 21  2  0
 14 20  1  0
 17 21  1  0
 12 22  2  0
 10 23  2  0
  9 11  1  0
  5 24  1  0
  1  2  1  0
 24 25  1  0
  2  3  2  0
 24 26  1  0
  3  4  1  0
 24 27  1  0
  3 28  1  0
  4 29  1  0
  6 30  1  0
  7 31  1  0
  9 32  1  0
 13 33  1  6
 14 34  1  6
 15 35  1  6
 16 36  1  6
 17 37  1  1
 18 38  1  6
 19 39  1  0
 19 40  1  0
 20 41  1  0
 21 42  1  0
M  END
> <Uni-Dock RESULT> 
ENERGY=   -3.911  LOWER_BOUND=    6.277  UPPER_BOUND=    9.361
INTER + INTRA:          -3.911
INTER:                  -3.911
INTRA:                   0.000
UNBOUND:                 0.000

$$$$

     RDKit          3D

 42 46  0  0  0  0  0  0  0  0999 V2000
   28.3553    8.7890   29.1974 C   0  0  0  0  0  0  0  0  0  0  0  0
   29.7505    8.8154   28.6949 C   0  0  0  0  0  0  0  0  0  0  0  0
   30.1716    9.7983   27.7818 C   0  0  0  0  0  0  0  0  0  0  0  0
   31.4906    9.8194   27.3191 C   0  0  0  0  0  0  0  0  0  0  0  0
   32.4132    8.8512   27.7480 C   0  0  0  0  0  0  0  0  0  0  0  0
   32.0036    7.8916   28.6883 C   0  0  0  0  0  0  0  0  0  0  0  0
   30.6853    7.8703   29.1523 C   0  0  0  0  0  0  0  0  0  0  0  0
   28.0844    8.1483   30.2495 O   0  0  0  0  0  0  0  0  0  0  0  0
   27.3003    9.4469   28.4808 N   0  0  0  0  0  0  0  0  0  0  0  0
   25.8749   10.3271   30.3581 C   0  0  0  0  0  0  0  0  0  0  0  0
   26.0601    9.7347   29.0797 N   0  0  0  0  0  0  0  0  0  0  0  0
   24.8544    9.9275   28.3597 C   0  0  0  0  0  0  0  0  0  0  0  0
   23.7825   10.5875   29.1741 C   0  0  2  0  0  0  0  0  0  0  0  0
   23.2905   11.9366   28.5607 C   0  0  1  0  0  0  0  0  0  0  0  0
   22.2477   12.4972   29.5881 C   0  0  1  0  0  0  0  0  0  0  0  0
   22.9407   12.7672   30.9522 C   0  0  1  0  0  0  0  0  0  0  0  0
   24.4604   12.3933   30.8635 C   0  0  1  0  0  0  0  0  0  0  0  0
   24.4878   10.8618   30.5583 C   0  0  2  0  0  0  0  0  0  0  0  0
   22.3379   13.9210   30.1453 C   0  0  0  0  0  0  0  0  0  0  0  0
   24.4952   12.8662   28.4926 C   0  0  0  0  0  0  0  0  0  0  0  0
   25.0946   13.1006   29.6726 C   0  0  0  0  0  0  0  0  0  0  0  0
   24.7076    9.5705   27.1605 O   0  0  0  0  0  0  0  0  0  0  0  0
   26.7949   10.4346   31.2118 O   0  0  0  0  0  0  0  0  0  0  0  0
   33.8477    8.9051   27.2864 C   0  0  0  0  0  0  0  0  0  0  0  0
   33.9299    9.4249   26.0061 F   0  0  0  0  0  0  0  0  0  0  0  0
   34.5725    9.7090   28.1462 F   0  0  0  0  0  0  0  0  0  0  0  0
   34.4056    7.6383   27.2752 F   0  0  0  0  0  0  0  0  0  0  0  0
   29.4928   10.5688   27.4409 H   0  0  0  0  0  0  0  0  0  0  0  0
   31.7912   10.5989   26.6301 H   0  0  0  0  0  0  0  0  0  0  0  0
   32.7040    7.1577   29.0670 H   0  0  0  0  0  0  0  0  0  0  0  0
   30.3970    7.1100   29.8676 H   0  0  0  0  0  0  0  0  0  0  0  0
   27.4017    9.5810   27.4499 H   0  0  0  0  0  0  0  0  0  0  0  0
   22.9321    9.8816   29.3013 H   0  0  0  0  0  0  0  0  0  0  0  0
   22.8299   11.7934   27.5604 H   0  0  0  0  0  0  0  0  0  0  0  0
   21.2774   11.9688   29.7069 H   0  0  0  0  0  0  0  0  0  0  0  0
   22.3454   12.3847   31.8091 H   0  0  0  0  0  0  0  0  0  0  0  0
   24.9884   12.6369   31.8097 H   0  0  0  0  0  0  0  0  0  0  0  0
   23.9890   10.2911   31.3725 H   0  0  0  0  0  0  0  0  0  0  0  0
   23.0357   14.6254   29.6511 H   0  0  0  0  0  0  0  0  0  0  0  0
   21.3777   14.2931   30.5594 H   0  0  0  0  0  0  0  0  0  0  0  0
   24.8442   13.3101   27.5662 H   0  0  0  0  0  0  0  0  0  0  0  0
   25.9610   13.7469   29.7653 H   0  0  0  0  0  0  0  0  0  0  0  0
  4  5  2  0
  5  6  1  0
  6  7  2  0
  2  7  1  0
  1  8  2  0
  1  9  1  0
 10 11  1  0
 11 12  1  0
 13 12  1  0
 14 13  1  0
 14 15  1  0
 16 15  1  0
 17 16  1  0
 17 18  1  0
 18 10  1  0
 18 13  1  0
 15 19  1  0
 16 19  1  0
 20 21  2  0
 14 20  1  0
 17 21  1  0
 12 22  2  0
 10 23  2  0
  9 11  1  0
  5 24  1  0
  1  2  1  0
 24 25  1  0
  2  3  2  0
 24 26  1  0
  3  4  1  0
 24 27  1  0
  3 28  1  0
  4 29  1  0
  6 30  1  0
  7 31  1  0
  9 32  1  0
 13 33  1  6
 14 34  1  6
 15 35  1  6
 16 36  1  6
 17 37  1  1
 18 38  1  6
 19 39  1  0
 19 40  1  0
 20 41  1  0
 21 42  1  0
M  END
> <Uni-Dock RESULT> 
ENERGY=   -3.840  LOWER_BOUND=    5.612  UPPER_BOUND=    8.168
INTER + INTRA:          -3.840
INTER:                  -3.840
INTRA:                   0.000
UNBOUND:                 0.000

$$$$

     RDKit          3D

 42 46  0  0  0  0  0  0  0  0999 V2000
   25.2191    3.5449   31.8267 C   0  0  0  0  0  0  0  0  0  0  0  0
   26.5967    3.1034   31.4997 C   0  0  0  0  0  0  0  0  0  0  0  0
   27.3910    3.8254   30.5915 C   0  0  0  0  0  0  0  0  0  0  0  0
   28.6909    3.4054   30.2950 C   0  0  0  0  0  0  0  0  0  0  0  0
   29.2201    2.2478   30.8887 C   0  0  0  0  0  0  0  0  0  0  0  0
   28.4412    1.5469   31.8240 C   0  0  0  0  0  0  0  0  0  0  0  0
   27.1417    1.9666   32.1219 C   0  0  0  0  0  0  0  0  0  0  0  0
   24.6589    3.1151   32.8718 O   0  0  0  0  0  0  0  0  0  0  0  0
   24.4973    4.4215   30.9492 N   0  0  0  0  0  0  0  0  0  0  0  0
   23.2344    5.8588   32.5830 C   0  0  0  0  0  0  0  0  0  0  0  0
   23.3540    5.1234   31.3729 N   0  0  0  0  0  0  0  0  0  0  0  0
   22.3459    5.6037   30.4998 C   0  0  0  0  0  0  0  0  0  0  0  0
   21.4555    6.6280   31.1367 C   0  0  2  0  0  0  0  0  0  0  0  0
   21.4699    8.0003   30.3919 C   0  0  1  0  0  0  0  0  0  0  0  0
   20.5548    8.9410   31.2492 C   0  0  1  0  0  0  0  0  0  0  0  0
   21.1569    9.1136   32.6710 C   0  0  1  0  0  0  0  0  0  0  0  0
   22.4868    8.2926   32.7920 C   0  0  1  0  0  0  0  0  0  0  0  0
   22.0686    6.8028   32.5798 C   0  0  2  0  0  0  0  0  0  0  0  0
   21.0255   10.3162   31.7317 C   0  0  0  0  0  0  0  0  0  0  0  0
   22.9039    8.5132   30.4206 C   0  0  0  0  0  0  0  0  0  0  0  0
   23.4250    8.6634   31.6505 C   0  0  0  0  0  0  0  0  0  0  0  0
   22.2166    5.1991   29.3137 O   0  0  0  0  0  0  0  0  0  0  0  0
   24.0520    5.7620   33.5364 O   0  0  0  0  0  0  0  0  0  0  0  0
   30.6394    1.8242   30.6056 C   0  0  0  0  0  0  0  0  0  0  0  0
   31.0065    2.1752   29.3179 F   0  0  0  0  0  0  0  0  0  0  0  0
   31.4876    2.4476   31.5015 F   0  0  0  0  0  0  0  0  0  0  0  0
   30.7753    0.4528   30.7351 F   0  0  0  0  0  0  0  0  0  0  0  0
   27.0222    4.7300   30.1263 H   0  0  0  0  0  0  0  0  0  0  0  0
   29.2858    3.9913   29.6054 H   0  0  0  0  0  0  0  0  0  0  0  0
   28.8380    0.6740   32.3272 H   0  0  0  0  0  0  0  0  0  0  0  0
   26.5618    1.3977   32.8380 H   0  0  0  0  0  0  0  0  0  0  0  0
   24.7381    4.4236   29.9327 H   0  0  0  0  0  0  0  0  0  0  0  0
   20.4199    6.2261   31.1977 H   0  0  0  0  0  0  0  0  0  0  0  0
   21.0903    7.9114   29.3520 H   0  0  0  0  0  0  0  0  0  0  0  0
   19.4617    8.7428   31.2768 H   0  0  0  0  0  0  0  0  0  0  0  0
   20.3897    9.0087   33.4680 H   0  0  0  0  0  0  0  0  0  0  0  0
   22.9667    8.4515   33.7809 H   0  0  0  0  0  0  0  0  0  0  0  0
   21.3385    6.4863   33.3571 H   0  0  0  0  0  0  0  0  0  0  0  0
   21.9531   10.7291   31.2885 H   0  0  0  0  0  0  0  0  0  0  0  0
   20.1915   10.9968   32.0023 H   0  0  0  0  0  0  0  0  0  0  0  0
   23.4643    8.7443   29.5208 H   0  0  0  0  0  0  0  0  0  0  0  0
   24.4352    9.0241   31.8128 H   0  0  0  0  0  0  0  0  0  0  0  0
  4  5  2  0
  5  6  1  0
  6  7  2  0
  2  7  1  0
  1  8  2  0
  1  9  1  0
 10 11  1  0
 11 12  1  0
 13 12  1  0
 14 13  1  0
 14 15  1  0
 16 15  1  0
 17 16  1  0
 17 18  1  0
 18 10  1  0
 18 13  1  0
 15 19  1  0
 16 19  1  0
 20 21  2  0
 14 20  1  0
 17 21  1  0
 12 22  2  0
 10 23  2  0
  9 11  1  0
  5 24  1  0
  1  2  1  0
 24 25  1  0
  2  3  2  0
 24 26  1  0
  3  4  1  0
 24 27  1  0
  3 28  1  0
  4 29  1  0
  6 30  1  0
  7 31  1  0
  9 32  1  0
 13 33  1  6
 14 34  1  6
 15 35  1  6
 16 36  1  6
 17 37  1  1
 18 38  1  6
 19 39  1  0
 19 40  1  0
 20 41  1  0
 21 42  1  0
M  END
> <Uni-Dock RESULT> 
ENERGY=   -3.837  LOWER_BOUND=    7.482  UPPER_BOUND=    9.891
INTER + INTRA:          -3.837
INTER:                  -3.837
INTRA:                   0.000
UNBOUND:                 0.000

$$$$

     RDKit          3D

 42 46  0  0  0  0  0  0  0  0999 V2000
   29.9382    9.6493   27.6652 C   0  0  0  0  0  0  0  0  0  0  0  0
   31.2197   10.3208   27.3388 C   0  0  0  0  0  0  0  0  0  0  0  0
   31.2835   11.7157   27.1733 C   0  0  0  0  0  0  0  0  0  0  0  0
   32.4973   12.3405   26.8727 C   0  0  0  0  0  0  0  0  0  0  0  0
   33.6705   11.5839   26.7176 C   0  0  0  0  0  0  0  0  0  0  0  0
   33.6152   10.1951   26.9193 C   0  0  0  0  0  0  0  0  0  0  0  0
   32.4021    9.5696   27.2209 C   0  0  0  0  0  0  0  0  0  0  0  0
   29.9510    8.4841   28.1477 O   0  0  0  0  0  0  0  0  0  0  0  0
   28.6814   10.2895   27.4007 N   0  0  0  0  0  0  0  0  0  0  0  0
   27.3020    9.5473   29.3697 C   0  0  0  0  0  0  0  0  0  0  0  0
   27.4830    9.8510   27.9933 N   0  0  0  0  0  0  0  0  0  0  0  0
   26.1944   10.0888   27.4528 C   0  0  0  0  0  0  0  0  0  0  0  0
   25.0911    9.8651   28.4430 C   0  0  2  0  0  0  0  0  0  0  0  0
   24.2190   11.1374   28.6861 C   0  0  1  0  0  0  0  0  0  0  0  0
   23.1918   10.7237   29.7956 C   0  0  1  0  0  0  0  0  0  0  0  0
   23.9450   10.3509   31.1023 C   0  0  1  0  0  0  0  0  0  0  0  0
   25.4904   10.5088   30.8926 C   0  0  1  0  0  0  0  0  0  0  0  0
   25.8574    9.4876   29.7693 C   0  0  2  0  0  0  0  0  0  0  0  0
   22.9925   11.5498   31.0697 C   0  0  0  0  0  0  0  0  0  0  0  0
   25.1446   12.2221   29.2219 C   0  0  0  0  0  0  0  0  0  0  0  0
   25.7959   11.9002   30.3528 C   0  0  0  0  0  0  0  0  0  0  0  0
   26.0068   10.4448   26.2590 O   0  0  0  0  0  0  0  0  0  0  0  0
   28.2569    9.3941   30.1769 O   0  0  0  0  0  0  0  0  0  0  0  0
   34.9877   12.2644   26.4424 C   0  0  0  0  0  0  0  0  0  0  0  0
   34.7973   13.4135   25.6944 F   0  0  0  0  0  0  0  0  0  0  0  0
   35.5850   12.6019   27.6424 F   0  0  0  0  0  0  0  0  0  0  0  0
   35.8336   11.4253   25.7378 F   0  0  0  0  0  0  0  0  0  0  0  0
   30.4032   12.3321   27.2998 H   0  0  0  0  0  0  0  0  0  0  0  0
   32.5196   13.4181   26.7685 H   0  0  0  0  0  0  0  0  0  0  0  0
   34.5114    9.5918   26.8457 H   0  0  0  0  0  0  0  0  0  0  0  0
   32.3899    8.4955   27.3582 H   0  0  0  0  0  0  0  0  0  0  0  0
   28.6316   11.0012   26.6377 H   0  0  0  0  0  0  0  0  0  0  0  0
   24.4587    9.0160   28.1013 H   0  0  0  0  0  0  0  0  0  0  0  0
   23.6991   11.4662   27.7616 H   0  0  0  0  0  0  0  0  0  0  0  0
   22.3996    9.9868   29.5422 H   0  0  0  0  0  0  0  0  0  0  0  0
   23.5605    9.4121   31.5560 H   0  0  0  0  0  0  0  0  0  0  0  0
   26.0447   10.3069   31.8335 H   0  0  0  0  0  0  0  0  0  0  0  0
   25.6070    8.4509   30.0854 H   0  0  0  0  0  0  0  0  0  0  0  0
   23.4374   12.5638   31.1023 H   0  0  0  0  0  0  0  0  0  0  0  0
   22.0227   11.3551   31.5732 H   0  0  0  0  0  0  0  0  0  0  0  0
   25.2692   13.1831   28.7340 H   0  0  0  0  0  0  0  0  0  0  0  0
   26.4828   12.5832   30.8414 H   0  0  0  0  0  0  0  0  0  0  0  0
  4  5  2  0
  5  6  1  0
  6  7  2  0
  2  7  1  0
  1  8  2  0
  1  9  1  0
 10 11  1  0
 11 12  1  0
 13 12  1  0
 14 13  1  0
 14 15  1  0
 16 15  1  0
 17 16  1  0
 17 18  1  0
 18 10  1  0
 18 13  1  0
 15 19  1  0
 16 19  1  0
 20 21  2  0
 14 20  1  0
 17 21  1  0
 12 22  2  0
 10 23  2  0
  9 11  1  0
  5 24  1  0
  1  2  1  0
 24 25  1  0
  2  3  2  0
 24 26  1  0
  3  4  1  0
 24 27  1  0
  3 28  1  0
  4 29  1  0
  6 30  1  0
  7 31  1  0
  9 32  1  0
 13 33  1  6
 14 34  1  6
 15 35  1  6
 16 36  1  6
 17 37  1  1
 18 38  1  6
 19 39  1  0
 19 40  1  0
 20 41  1  0
 21 42  1  0
M  END
> <Uni-Dock RESULT> 
ENERGY=   -3.837  LOWER_BOUND=    5.280  UPPER_BOUND=    7.069
INTER + INTRA:          -3.837
INTER:                  -3.837
INTRA:                   0.000
UNBOUND:                 0.000

$$$$

     RDKit          3D

 42 46  0  0  0  0  0  0  0  0999 V2000
   31.6705   12.4227   22.7853 C   0  0  0  0  0  0  0  0  0  0  0  0
   32.7233   13.4645   22.8636 C   0  0  0  0  0  0  0  0  0  0  0  0
   33.1561   14.1432   21.7107 C   0  0  0  0  0  0  0  0  0  0  0  0
   34.1439   15.1286   21.7955 C   0  0  0  0  0  0  0  0  0  0  0  0
   34.7302   15.4474   23.0314 C   0  0  0  0  0  0  0  0  0  0  0  0
   34.2724   14.7965   24.1887 C   0  0  0  0  0  0  0  0  0  0  0  0
   33.2840   13.8117   24.1051 C   0  0  0  0  0  0  0  0  0  0  0  0
   31.0536   12.0810   23.8309 O   0  0  0  0  0  0  0  0  0  0  0  0
   31.3723   11.7668   21.5442 N   0  0  0  0  0  0  0  0  0  0  0  0
   28.8769   11.4848   21.6984 C   0  0  0  0  0  0  0  0  0  0  0  0
   30.1820   11.0416   21.3524 N   0  0  0  0  0  0  0  0  0  0  0  0
   30.0240   10.0109   20.3922 C   0  0  0  0  0  0  0  0  0  0  0  0
   28.5885    9.6701   20.1264 C   0  0  2  0  0  0  0  0  0  0  0  0
   28.1783    9.8680   18.6328 C   0  0  1  0  0  0  0  0  0  0  0  0
   26.6457    9.5427   18.5825 C   0  0  1  0  0  0  0  0  0  0  0  0
   25.8621   10.5443   19.4750 C   0  0  1  0  0  0  0  0  0  0  0  0
   26.8551   11.5595   20.1388 C   0  0  1  0  0  0  0  0  0  0  0  0
   27.7942   10.6884   21.0325 C   0  0  2  0  0  0  0  0  0  0  0  0
   25.6288   10.5051   17.9619 C   0  0  0  0  0  0  0  0  0  0  0  0
   28.4031   11.3362   18.2949 C   0  0  0  0  0  0  0  0  0  0  0  0
   27.7247   12.2031   19.0663 C   0  0  0  0  0  0  0  0  0  0  0  0
   30.9978    9.4419   19.8310 O   0  0  0  0  0  0  0  0  0  0  0  0
   28.6567   12.4741   22.4465 O   0  0  0  0  0  0  0  0  0  0  0  0
   35.7598   16.5448   23.1284 C   0  0  0  0  0  0  0  0  0  0  0  0
   36.5063   16.6188   21.9650 F   0  0  0  0  0  0  0  0  0  0  0  0
   35.1194   17.7531   23.3301 F   0  0  0  0  0  0  0  0  0  0  0  0
   36.6253   16.3113   24.1831 F   0  0  0  0  0  0  0  0  0  0  0  0
   32.7169   13.9346   20.7441 H   0  0  0  0  0  0  0  0  0  0  0  0
   34.4447   15.6472   20.8937 H   0  0  0  0  0  0  0  0  0  0  0  0
   34.6778   15.0505   25.1602 H   0  0  0  0  0  0  0  0  0  0  0  0
   32.9612   13.3192   25.0139 H   0  0  0  0  0  0  0  0  0  0  0  0
   32.1211   11.7012   20.8188 H   0  0  0  0  0  0  0  0  0  0  0  0
   28.3942    8.6237   20.4507 H   0  0  0  0  0  0  0  0  0  0  0  0
   28.7516    9.2018   17.9539 H   0  0  0  0  0  0  0  0  0  0  0  0
   26.3169    8.4929   18.7401 H   0  0  0  0  0  0  0  0  0  0  0  0
   25.1093   10.0365   20.1157 H   0  0  0  0  0  0  0  0  0  0  0  0
   26.3094   12.3232   20.7323 H   0  0  0  0  0  0  0  0  0  0  0  0
   27.2070   10.1482   21.8076 H   0  0  0  0  0  0  0  0  0  0  0  0
   26.0180   11.3479   17.3574 H   0  0  0  0  0  0  0  0  0  0  0  0
   24.6754   10.0138   17.6761 H   0  0  0  0  0  0  0  0  0  0  0  0
   29.0563   11.6619   17.4922 H   0  0  0  0  0  0  0  0  0  0  0  0
   27.7922   13.2772   18.9299 H   0  0  0  0  0  0  0  0  0  0  0  0
  4  5  2  0
  5  6  1  0
  6  7  2  0
  2  7  1  0
  1  8  2  0
  1  9  1  0
 10 11  1  0
 11 12  1  0
 13 12  1  0
 14 13  1  0
 14 15  1  0
 16 15  1  0
 17 16  1  0
 17 18  1  0
 18 10  1  0
 18 13  1  0
 15 19  1  0
 16 19  1  0
 20 21  2  0
 14 20  1  0
 17 21  1  0
 12 22  2  0
 10 23  2  0
  9 11  1  0
  5 24  1  0
  1  2  1  0
 24 25  1  0
  2  3  2  0
 24 26  1  0
  3  4  1  0
 24 27  1  0
  3 28  1  0
  4 29  1  0
  6 30  1  0
  7 31  1  0
  9 32  1  0
 13 33  1  6
 14 34  1  6
 15 35  1  6
 16 36  1  6
 17 37  1  1
 18 38  1  6
 19 39  1  0
 19 40  1  0
 20 41  1  0
 21 42  1  0
M  END
> <Uni-Dock RESULT> 
ENERGY=   -3.807  LOWER_BOUND=    9.666  UPPER_BOUND=   10.975
INTER + INTRA:          -3.807
INTER:                  -3.807
INTRA:                   0.000
UNBOUND:                 0.000

$$$$

     RDKit          3D

 42 46  0  0  0  0  0  0  0  0999 V2000
   27.4318   13.6245   23.0254 C   0  0  0  0  0  0  0  0  0  0  0  0
   26.1438   14.3321   23.2253 C   0  0  0  0  0  0  0  0  0  0  0  0
   25.3365   14.6876   22.1302 C   0  0  0  0  0  0  0  0  0  0  0  0
   24.1207   15.3481   22.3289 C   0  0  0  0  0  0  0  0  0  0  0  0
   23.6918   15.6798   23.6246 C   0  0  0  0  0  0  0  0  0  0  0  0
   24.4792   15.2923   24.7211 C   0  0  0  0  0  0  0  0  0  0  0  0
   25.6947   14.6309   24.5235 C   0  0  0  0  0  0  0  0  0  0  0  0
   27.9624   13.0122   23.9920 O   0  0  0  0  0  0  0  0  0  0  0  0
   28.1053   13.6615   21.7588 N   0  0  0  0  0  0  0  0  0  0  0  0
   29.0670   11.3407   21.6199 C   0  0  0  0  0  0  0  0  0  0  0  0
   29.1233   12.7479   21.4297 N   0  0  0  0  0  0  0  0  0  0  0  0
   30.1273   12.9907   20.4589 C   0  0  0  0  0  0  0  0  0  0  0  0
   30.8411   11.7450   20.0271 C   0  0  2  0  0  0  0  0  0  0  0  0
   30.7170   11.4675   18.4955 C   0  0  1  0  0  0  0  0  0  0  0  0
   31.4494   10.1006   18.2665 C   0  0  1  0  0  0  0  0  0  0  0  0
   30.7301    8.9749   19.0598 C   0  0  1  0  0  0  0  0  0  0  0  0
   29.5023    9.5667   19.8341 C   0  0  1  0  0  0  0  0  0  0  0  0
   30.1092   10.6030   20.8326 C   0  0  2  0  0  0  0  0  0  0  0  0
   30.7846    8.9340   17.5297 C   0  0  0  0  0  0  0  0  0  0  0  0
   29.2338   11.3140   18.1845 C   0  0  0  0  0  0  0  0  0  0  0  0
   28.6113   10.3397   18.8700 C   0  0  0  0  0  0  0  0  0  0  0  0
   30.3889   14.1408   20.0163 O   0  0  0  0  0  0  0  0  0  0  0  0
   28.2002   10.7724   22.3358 O   0  0  0  0  0  0  0  0  0  0  0  0
   22.3572   16.3478   23.8402 C   0  0  0  0  0  0  0  0  0  0  0  0
   22.0446   17.1711   22.7722 F   0  0  0  0  0  0  0  0  0  0  0  0
   21.3784   15.3797   23.9640 F   0  0  0  0  0  0  0  0  0  0  0  0
   22.3767   17.1193   24.9893 F   0  0  0  0  0  0  0  0  0  0  0  0
   25.6276   14.4353   21.1190 H   0  0  0  0  0  0  0  0  0  0  0  0
   23.5115   15.5935   21.4679 H   0  0  0  0  0  0  0  0  0  0  0  0
   24.1541   15.4992   25.7331 H   0  0  0  0  0  0  0  0  0  0  0  0
   26.2851   14.3565   25.3888 H   0  0  0  0  0  0  0  0  0  0  0  0
   27.9398   14.4761   21.1262 H   0  0  0  0  0  0  0  0  0  0  0  0
   31.9101   11.8125   20.3278 H   0  0  0  0  0  0  0  0  0  0  0  0
   31.1785   12.2756   17.8893 H   0  0  0  0  0  0  0  0  0  0  0  0
   32.5534   10.0594   18.3857 H   0  0  0  0  0  0  0  0  0  0  0  0
   31.4450    8.3247   19.6085 H   0  0  0  0  0  0  0  0  0  0  0  0
   28.9370    8.7677   20.3586 H   0  0  0  0  0  0  0  0  0  0  0  0
   30.8139   10.1045   21.5343 H   0  0  0  0  0  0  0  0  0  0  0  0
   29.8488    9.1405   16.9739 H   0  0  0  0  0  0  0  0  0  0  0  0
   31.5099    8.1924   17.1349 H   0  0  0  0  0  0  0  0  0  0  0  0
   28.7162   11.9379   17.4635 H   0  0  0  0  0  0  0  0  0  0  0  0
   27.5563   10.1223   18.7411 H   0  0  0  0  0  0  0  0  0  0  0  0
  4  5  2  0
  5  6  1  0
  6  7  2  0
  2  7  1  0
  1  8  2  0
  1  9  1  0
 10 11  1  0
 11 12  1  0
 13 12  1  0
 14 13  1  0
 14 15  1  0
 16 15  1  0
 17 16  1  0
 17 18  1  0
 18 10  1  0
 18 13  1  0
 15 19  1  0
 16 19  1  0
 20 21  2  0
 14 20  1  0
 17 21  1  0
 12 22  2  0
 10 23  2  0
  9 11  1  0
  5 24  1  0
  1  2  1  0
 24 25  1  0
  2  3  2  0
 24 26  1  0
  3  4  1  0
 24 27  1  0
  3 28  1  0
  4 29  1  0
  6 30  1  0
  7 31  1  0
  9 32  1  0
 13 33  1  6
 14 34  1  6
 15 35  1  6
 16 36  1  6
 17 37  1  1
 18 38  1  6
 19 39  1  0
 19 40  1  0
 20 41  1  0
 21 42  1  0
M  END
> <Uni-Dock RESULT> 
ENERGY=   -3.744  LOWER_BOUND=   10.938  UPPER_BOUND=   12.555
INTER + INTRA:          -3.744
INTER:                  -3.744
INTRA:                   0.000
UNBOUND:                 0.000

$$$$

     RDKit          3D

 42 46  0  0  0  0  0  0  0  0999 V2000
   28.8201    7.2824   30.5317 C   0  0  0  0  0  0  0  0  0  0  0  0
   28.9292    8.3601   29.5185 C   0  0  0  0  0  0  0  0  0  0  0  0
   29.8759    8.2846   28.4816 C   0  0  0  0  0  0  0  0  0  0  0  0
   29.9665    9.3018   27.5271 C   0  0  0  0  0  0  0  0  0  0  0  0
   29.1229   10.4226   27.5960 C   0  0  0  0  0  0  0  0  0  0  0  0
   28.1522   10.4813   28.6093 C   0  0  0  0  0  0  0  0  0  0  0  0
   28.0601    9.4642   29.5636 C   0  0  0  0  0  0  0  0  0  0  0  0
   27.7712    7.1834   31.2250 O   0  0  0  0  0  0  0  0  0  0  0  0
   29.9078    6.3758   30.7647 N   0  0  0  0  0  0  0  0  0  0  0  0
   28.6924    4.2183   31.2099 C   0  0  0  0  0  0  0  0  0  0  0  0
   29.7299    5.1595   31.4491 N   0  0  0  0  0  0  0  0  0  0  0  0
   30.7674    4.4647   32.1199 C   0  0  0  0  0  0  0  0  0  0  0  0
   30.4163    3.0405   32.4300 C   0  0  2  0  0  0  0  0  0  0  0  0
   31.3961    2.0127   31.7804 C   0  0  1  0  0  0  0  0  0  0  0  0
   30.8164    0.6041   32.1506 C   0  0  1  0  0  0  0  0  0  0  0  0
   29.4004    0.4353   31.5340 C   0  0  1  0  0  0  0  0  0  0  0  0
   29.0058    1.7273   30.7386 C   0  0  1  0  0  0  0  0  0  0  0  0
   28.9789    2.8704   31.8025 C   0  0  2  0  0  0  0  0  0  0  0  0
   30.5529   -0.4717   31.0929 C   0  0  0  0  0  0  0  0  0  0  0  0
   31.3274    2.2162   30.2724 C   0  0  0  0  0  0  0  0  0  0  0  0
   30.1026    2.0696   29.7384 C   0  0  0  0  0  0  0  0  0  0  0  0
   31.8656    5.0010   32.4254 O   0  0  0  0  0  0  0  0  0  0  0  0
   27.6648    4.4778   30.5290 O   0  0  0  0  0  0  0  0  0  0  0  0
   29.1885   11.4946   26.5375 C   0  0  0  0  0  0  0  0  0  0  0  0
   30.4785   11.6240   26.0523 F   0  0  0  0  0  0  0  0  0  0  0  0
   28.3468   11.1564   25.4945 F   0  0  0  0  0  0  0  0  0  0  0  0
   28.7968   12.7173   27.0551 F   0  0  0  0  0  0  0  0  0  0  0  0
   30.5322    7.4293   28.3883 H   0  0  0  0  0  0  0  0  0  0  0  0
   30.6930    9.2081   26.7296 H   0  0  0  0  0  0  0  0  0  0  0  0
   27.4619   11.3140   28.6632 H   0  0  0  0  0  0  0  0  0  0  0  0
   27.3094    9.5446   30.3400 H   0  0  0  0  0  0  0  0  0  0  0  0
   30.8801    6.6937   30.5530 H   0  0  0  0  0  0  0  0  0  0  0  0
   30.3802    2.9039   33.5335 H   0  0  0  0  0  0  0  0  0  0  0  0
   32.4329    2.1315   32.1603 H   0  0  0  0  0  0  0  0  0  0  0  0
   30.8557    0.2718   33.2103 H   0  0  0  0  0  0  0  0  0  0  0  0
   28.6734    0.0119   32.2600 H   0  0  0  0  0  0  0  0  0  0  0  0
   28.0224    1.6041   30.2376 H   0  0  0  0  0  0  0  0  0  0  0  0
   28.2288    2.6512   32.5942 H   0  0  0  0  0  0  0  0  0  0  0  0
   30.9752   -0.3150   30.0808 H   0  0  0  0  0  0  0  0  0  0  0  0
   30.4918   -1.4970   31.5137 H   0  0  0  0  0  0  0  0  0  0  0  0
   32.1976    2.4573   29.6710 H   0  0  0  0  0  0  0  0  0  0  0  0
   29.9151    2.1841   28.6760 H   0  0  0  0  0  0  0  0  0  0  0  0
  4  5  2  0
  5  6  1  0
  6  7  2  0
  2  7  1  0
  1  8  2  0
  1  9  1  0
 10 11  1  0
 11 12  1  0
 13 12  1  0
 14 13  1  0
 14 15  1  0
 16 15  1  0
 17 16  1  0
 17 18  1  0
 18 10  1  0
 18 13  1  0
 15 19  1  0
 16 19  1  0
 20 21  2  0
 14 20  1  0
 17 21  1  0
 12 22  2  0
 10 23  2  0
  9 11  1  0
  5 24  1  0
  1  2  1  0
 24 25  1  0
  2  3  2  0
 24 26  1  0
  3  4  1  0
 24 27  1  0
  3 28  1  0
  4 29  1  0
  6 30  1  0
  7 31  1  0
  9 32  1  0
 13 33  1  6
 14 34  1  6
 15 35  1  6
 16 36  1  6
 17 37  1  1
 18 38  1  6
 19 39  1  0
 19 40  1  0
 20 41  1  0
 21 42  1  0
M  END
> <Uni-Dock RESULT> 
ENERGY=   -3.704  LOWER_BOUND=    2.525  UPPER_BOUND=    3.094
INTER + INTRA:          -3.704
INTER:                  -3.704
INTRA:                   0.000
UNBOUND:                 0.000

$$$$
