
     RDKit          3D

 42 46  0  0  0  0  0  0  0  0999 V2000
   30.7250    7.8267   28.8020 C   0  0  0  0  0  0  0  0  0  0  0  0
   31.6478    8.7144   28.0536 C   0  0  0  0  0  0  0  0  0  0  0  0
   33.0276    8.4483   28.0065 C   0  0  0  0  0  0  0  0  0  0  0  0
   33.8889    9.2868   27.2926 C   0  0  0  0  0  0  0  0  0  0  0  0
   33.3919   10.4164   26.6221 C   0  0  0  0  0  0  0  0  0  0  0  0
   32.0092   10.6622   26.6374 C   0  0  0  0  0  0  0  0  0  0  0  0
   31.1472    9.8240   27.3501 C   0  0  0  0  0  0  0  0  0  0  0  0
   29.4886    7.8640   28.5555 O   0  0  0  0  0  0  0  0  0  0  0  0
   31.2128    6.9556   29.8327 N   0  0  0  0  0  0  0  0  0  0  0  0
   29.7603    4.9252   29.5199 C   0  0  0  0  0  0  0  0  0  0  0  0
   30.4514    5.8766   30.3178 N   0  0  0  0  0  0  0  0  0  0  0  0
   30.6274    5.2894   31.5959 C   0  0  0  0  0  0  0  0  0  0  0  0
   29.9764    3.9446   31.7198 C   0  0  2  0  0  0  0  0  0  0  0  0
   30.9852    2.8057   32.0709 C   0  0  1  0  0  0  0  0  0  0  0  0
   30.1329    1.4901   32.0734 C   0  0  1  0  0  0  0  0  0  0  0  0
   29.5380    1.2416   30.6598 C   0  0  1  0  0  0  0  0  0  0  0  0
   29.9816    2.3856   29.6841 C   0  0  1  0  0  0  0  0  0  0  0  0
   29.3738    3.6933   30.2836 C   0  0  2  0  0  0  0  0  0  0  0  0
   30.5400    0.2543   31.2655 C   0  0  0  0  0  0  0  0  0  0  0  0
   32.0114    2.7506   30.9464 C   0  0  0  0  0  0  0  0  0  0  0  0
   31.4971    2.5350   29.7233 C   0  0  0  0  0  0  0  0  0  0  0  0
   31.2621    5.8523   32.5272 O   0  0  0  0  0  0  0  0  0  0  0  0
   29.5410    5.0816   28.2893 O   0  0  0  0  0  0  0  0  0  0  0  0
   34.3148   11.2915   25.8119 C   0  0  0  0  0  0  0  0  0  0  0  0
   34.3999   10.7943   24.5249 F   0  0  0  0  0  0  0  0  0  0  0  0
   33.8389   12.5904   25.7632 F   0  0  0  0  0  0  0  0  0  0  0  0
   35.5810   11.3158   26.3708 F   0  0  0  0  0  0  0  0  0  0  0  0
   33.4441    7.5793   28.4986 H   0  0  0  0  0  0  0  0  0  0  0  0
   34.9443    9.0470   27.2592 H   0  0  0  0  0  0  0  0  0  0  0  0
   31.5933   11.5028   26.0962 H   0  0  0  0  0  0  0  0  0  0  0  0
   30.0875   10.0473   27.3530 H   0  0  0  0  0  0  0  0  0  0  0  0
   32.0892    7.2171   30.3375 H   0  0  0  0  0  0  0  0  0  0  0  0
   29.1661    3.9984   32.4802 H   0  0  0  0  0  0  0  0  0  0  0  0
   31.4699    2.9706   33.0563 H   0  0  0  0  0  0  0  0  0  0  0  0
   29.3806    1.3424   32.8779 H   0  0  0  0  0  0  0  0  0  0  0  0
   28.4638    0.9596   30.6993 H   0  0  0  0  0  0  0  0  0  0  0  0
   29.6183    2.1947   28.6522 H   0  0  0  0  0  0  0  0  0  0  0  0
   28.2644    3.6241   30.3305 H   0  0  0  0  0  0  0  0  0  0  0  0
   31.5625    0.2297   30.8397 H   0  0  0  0  0  0  0  0  0  0  0  0
   30.0695   -0.6833   31.6283 H   0  0  0  0  0  0  0  0  0  0  0  0
   33.0761    2.8718   31.1151 H   0  0  0  0  0  0  0  0  0  0  0  0
   32.1180    2.4701   28.8359 H   0  0  0  0  0  0  0  0  0  0  0  0
  4  5  2  0
  5  6  1  0
  6  7  2  0
  2  7  1  0
  1  8  2  0
  1  9  1  0
 10 11  1  0
 11 12  1  0
 13 12  1  0
 14 13  1  0
 14 15  1  0
 16 15  1  0
 17 16  1  0
 17 18  1  0
 18 10  1  0
 18 13  1  0
 15 19  1  0
 16 19  1  0
 20 21  2  0
 14 20  1  0
 17 21  1  0
 12 22  2  0
 10 23  2  0
  9 11  1  0
  5 24  1  0
  1  2  1  0
 24 25  1  0
  2  3  2  0
 24 26  1  0
  3  4  1  0
 24 27  1  0
  3 28  1  0
  4 29  1  0
  6 30  1  0
  7 31  1  0
  9 32  1  0
 13 33  1  6
 14 34  1  6
 15 35  1  6
 16 36  1  6
 17 37  1  1
 18 38  1  6
 19 39  1  0
 19 40  1  0
 20 41  1  0
 21 42  1  0
M  END
> <Uni-Dock RESULT> 
ENERGY=   -4.204  LOWER_BOUND=    0.000  UPPER_BOUND=    0.000
INTER + INTRA:          -4.204
INTER:                  -4.204
INTRA:                   0.000
UNBOUND:                 0.000

$$$$

     RDKit          3D

 42 46  0  0  0  0  0  0  0  0999 V2000
   29.0880    9.5808   28.2816 C   0  0  0  0  0  0  0  0  0  0  0  0
   30.3375   10.0449   27.6313 C   0  0  0  0  0  0  0  0  0  0  0  0
   30.3448   11.1873   26.8116 C   0  0  0  0  0  0  0  0  0  0  0  0
   31.5289   11.6213   26.2085 C   0  0  0  0  0  0  0  0  0  0  0  0
   32.7279   10.9156   26.4002 C   0  0  0  0  0  0  0  0  0  0  0  0
   32.7295    9.7962   27.2485 C   0  0  0  0  0  0  0  0  0  0  0  0
   31.5463    9.3620   27.8527 C   0  0  0  0  0  0  0  0  0  0  0  0
   29.1531    8.7945   29.2656 O   0  0  0  0  0  0  0  0  0  0  0  0
   27.8035    9.9797   27.7813 N   0  0  0  0  0  0  0  0  0  0  0  0
   26.4835   10.2445   29.9068 C   0  0  0  0  0  0  0  0  0  0  0  0
   26.6321    9.8501   28.5497 N   0  0  0  0  0  0  0  0  0  0  0  0
   25.3273    9.7628   28.0028 C   0  0  0  0  0  0  0  0  0  0  0  0
   24.2484   10.0159   29.0125 C   0  0  2  0  0  0  0  0  0  0  0  0
   23.3314   11.2234   28.6394 C   0  0  1  0  0  0  0  0  0  0  0  0
   22.3377   11.3700   29.8429 C   0  0  1  0  0  0  0  0  0  0  0  0
   23.1242   11.6952   31.1427 C   0  0  1  0  0  0  0  0  0  0  0  0
   24.6591   11.7734   30.8338 C   0  0  1  0  0  0  0  0  0  0  0  0
   25.0484   10.3469   30.3313 C   0  0  2  0  0  0  0  0  0  0  0  0
   22.1256   12.7033   30.5662 C   0  0  0  0  0  0  0  0  0  0  0  0
   24.2222   12.4564   28.5558 C   0  0  0  0  0  0  0  0  0  0  0  0
   24.9023   12.7384   29.6805 C   0  0  0  0  0  0  0  0  0  0  0  0
   25.1083    9.4925   26.7920 O   0  0  0  0  0  0  0  0  0  0  0  0
   27.4556   10.5260   30.6570 O   0  0  0  0  0  0  0  0  0  0  0  0
   34.0136   11.4133   25.7892 C   0  0  0  0  0  0  0  0  0  0  0  0
   34.6153   12.3044   26.6580 F   0  0  0  0  0  0  0  0  0  0  0  0
   34.8807   10.3610   25.5503 F   0  0  0  0  0  0  0  0  0  0  0  0
   33.7677   12.0523   24.5862 F   0  0  0  0  0  0  0  0  0  0  0  0
   29.4434   11.7644   26.6530 H   0  0  0  0  0  0  0  0  0  0  0  0
   31.5079   12.5146   25.5968 H   0  0  0  0  0  0  0  0  0  0  0  0
   33.6472    9.2565   27.4465 H   0  0  0  0  0  0  0  0  0  0  0  0
   31.5777    8.4880   28.4915 H   0  0  0  0  0  0  0  0  0  0  0  0
   27.7147   10.2327   26.7717 H   0  0  0  0  0  0  0  0  0  0  0  0
   23.6443    9.0908   29.1430 H   0  0  0  0  0  0  0  0  0  0  0  0
   22.7854   11.0507   27.6881 H   0  0  0  0  0  0  0  0  0  0  0  0
   21.5709   10.5815   30.0018 H   0  0  0  0  0  0  0  0  0  0  0  0
   22.7832   11.0826   32.0049 H   0  0  0  0  0  0  0  0  0  0  0  0
   25.2347   12.0661   31.7373 H   0  0  0  0  0  0  0  0  0  0  0  0
   24.8431    9.5855   31.1161 H   0  0  0  0  0  0  0  0  0  0  0  0
   22.5313   13.6184   30.0916 H   0  0  0  0  0  0  0  0  0  0  0  0
   21.1716   12.7502   31.1317 H   0  0  0  0  0  0  0  0  0  0  0  0
   24.3020   13.0649   27.6614 H   0  0  0  0  0  0  0  0  0  0  0  0
   25.5694   13.5905   29.7569 H   0  0  0  0  0  0  0  0  0  0  0  0
  4  5  2  0
  5  6  1  0
  6  7  2  0
  2  7  1  0
  1  8  2  0
  1  9  1  0
 10 11  1  0
 11 12  1  0
 13 12  1  0
 14 13  1  0
 14 15  1  0
 16 15  1  0
 17 16  1  0
 17 18  1  0
 18 10  1  0
 18 13  1  0
 15 19  1  0
 16 19  1  0
 20 21  2  0
 14 20  1  0
 17 21  1  0
 12 22  2  0
 10 23  2  0
  9 11  1  0
  5 24  1  0
  1  2  1  0
 24 25  1  0
  2  3  2  0
 24 26  1  0
  3  4  1  0
 24 27  1  0
  3 28  1  0
  4 29  1  0
  6 30  1  0
  7 31  1  0
  9 32  1  0
 13 33  1  6
 14 34  1  6
 15 35  1  6
 16 36  1  6
 17 37  1  1
 18 38  1  6
 19 39  1  0
 19 40  1  0
 20 41  1  0
 21 42  1  0
M  END
> <Uni-Dock RESULT> 
ENERGY=   -4.168  LOWER_BOUND=    5.285  UPPER_BOUND=    7.680
INTER + INTRA:          -4.168
INTER:                  -4.168
INTRA:                   0.000
UNBOUND:                 0.000

$$$$

     RDKit          3D

 42 46  0  0  0  0  0  0  0  0999 V2000
   26.9263    5.8042   31.8843 C   0  0  0  0  0  0  0  0  0  0  0  0
   27.7625    4.6119   31.6038 C   0  0  0  0  0  0  0  0  0  0  0  0
   28.0207    4.2042   30.2832 C   0  0  0  0  0  0  0  0  0  0  0  0
   28.8159    3.0830   30.0283 C   0  0  0  0  0  0  0  0  0  0  0  0
   29.3587    2.3374   31.0876 C   0  0  0  0  0  0  0  0  0  0  0  0
   29.1324    2.7652   32.4060 C   0  0  0  0  0  0  0  0  0  0  0  0
   28.3382    3.8866   32.6617 C   0  0  0  0  0  0  0  0  0  0  0  0
   26.9888    6.3561   33.0166 O   0  0  0  0  0  0  0  0  0  0  0  0
   26.0152    6.3146   30.9001 N   0  0  0  0  0  0  0  0  0  0  0  0
   26.1994    8.7969   31.2673 C   0  0  0  0  0  0  0  0  0  0  0  0
   25.4707    7.6088   30.9896 N   0  0  0  0  0  0  0  0  0  0  0  0
   24.2578    8.0063   30.3731 C   0  0  0  0  0  0  0  0  0  0  0  0
   24.0977    9.4949   30.2960 C   0  0  2  0  0  0  0  0  0  0  0  0
   23.9454   10.0196   28.8333 C   0  0  1  0  0  0  0  0  0  0  0  0
   23.8748   11.5802   28.9633 C   0  0  1  0  0  0  0  0  0  0  0  0
   25.1963   12.1210   29.5758 C   0  0  1  0  0  0  0  0  0  0  0  0
   26.1767   10.9329   29.8664 C   0  0  1  0  0  0  0  0  0  0  0  0
   25.4405   10.0425   30.9173 C   0  0  2  0  0  0  0  0  0  0  0  0
   24.7849   12.5071   28.1520 C   0  0  0  0  0  0  0  0  0  0  0  0
   25.2083    9.6237   28.0790 C   0  0  0  0  0  0  0  0  0  0  0  0
   26.3517   10.0920   28.6083 C   0  0  0  0  0  0  0  0  0  0  0  0
   23.4055    7.1839   29.9439 O   0  0  0  0  0  0  0  0  0  0  0  0
   27.3773    8.7989   31.7137 O   0  0  0  0  0  0  0  0  0  0  0  0
   30.2566    1.1580   30.8103 C   0  0  0  0  0  0  0  0  0  0  0  0
   31.5622    1.5972   30.6950 F   0  0  0  0  0  0  0  0  0  0  0  0
   30.1807    0.2337   31.8379 F   0  0  0  0  0  0  0  0  0  0  0  0
   29.8870    0.5281   29.6343 F   0  0  0  0  0  0  0  0  0  0  0  0
   27.6315    4.7626   29.4420 H   0  0  0  0  0  0  0  0  0  0  0  0
   29.0124    2.8031   29.0009 H   0  0  0  0  0  0  0  0  0  0  0  0
   29.5714    2.2331   33.2407 H   0  0  0  0  0  0  0  0  0  0  0  0
   28.1720    4.1839   33.6898 H   0  0  0  0  0  0  0  0  0  0  0  0
   25.6324    5.6588   30.1827 H   0  0  0  0  0  0  0  0  0  0  0  0
   23.2261    9.8023   30.9153 H   0  0  0  0  0  0  0  0  0  0  0  0
   23.0347    9.6173   28.3414 H   0  0  0  0  0  0  0  0  0  0  0  0
   22.9765   12.0373   29.4316 H   0  0  0  0  0  0  0  0  0  0  0  0
   25.0131   12.8705   30.3756 H   0  0  0  0  0  0  0  0  0  0  0  0
   27.1521   11.3030   30.2473 H   0  0  0  0  0  0  0  0  0  0  0  0
   25.2360   10.6203   31.8458 H   0  0  0  0  0  0  0  0  0  0  0  0
   25.3553   12.0645   27.3117 H   0  0  0  0  0  0  0  0  0  0  0  0
   24.3976   13.5443   28.0717 H   0  0  0  0  0  0  0  0  0  0  0  0
   25.1910    9.0143   27.1818 H   0  0  0  0  0  0  0  0  0  0  0  0
   27.3218    9.8868   28.1679 H   0  0  0  0  0  0  0  0  0  0  0  0
  4  5  2  0
  5  6  1  0
  6  7  2  0
  2  7  1  0
  1  8  2  0
  1  9  1  0
 10 11  1  0
 11 12  1  0
 13 12  1  0
 14 13  1  0
 14 15  1  0
 16 15  1  0
 17 16  1  0
 17 18  1  0
 18 10  1  0
 18 13  1  0
 15 19  1  0
 16 19  1  0
 20 21  2  0
 14 20  1  0
 17 21  1  0
 12 22  2  0
 10 23  2  0
  9 11  1  0
  5 24  1  0
  1  2  1  0
 24 25  1  0
  2  3  2  0
 24 26  1  0
  3  4  1  0
 24 27  1  0
  3 28  1  0
  4 29  1  0
  6 30  1  0
  7 31  1  0
  9 32  1  0
 13 33  1  6
 14 34  1  6
 15 35  1  6
 16 36  1  6
 17 37  1  1
 18 38  1  6
 19 39  1  0
 19 40  1  0
 20 41  1  0
 21 42  1  0
M  END
> <Uni-Dock RESULT> 
ENERGY=   -3.910  LOWER_BOUND=    6.270  UPPER_BOUND=    9.357
INTER + INTRA:          -3.910
INTER:                  -3.910
INTRA:                   0.000
UNBOUND:                 0.000

$$$$

     RDKit          3D

 42 46  0  0  0  0  0  0  0  0999 V2000
   28.3553    8.7890   29.1973 C   0  0  0  0  0  0  0  0  0  0  0  0
   29.7505    8.8154   28.6948 C   0  0  0  0  0  0  0  0  0  0  0  0
   30.1716    9.7984   27.7819 C   0  0  0  0  0  0  0  0  0  0  0  0
   31.4907    9.8196   27.3192 C   0  0  0  0  0  0  0  0  0  0  0  0
   32.4131    8.8513   27.7480 C   0  0  0  0  0  0  0  0  0  0  0  0
   32.0036    7.8917   28.6882 C   0  0  0  0  0  0  0  0  0  0  0  0
   30.6853    7.8702   29.1521 C   0  0  0  0  0  0  0  0  0  0  0  0
   28.0845    8.1483   30.2494 O   0  0  0  0  0  0  0  0  0  0  0  0
   27.3003    9.4470   28.4808 N   0  0  0  0  0  0  0  0  0  0  0  0
   25.8749   10.3269   30.3581 C   0  0  0  0  0  0  0  0  0  0  0  0
   26.0601    9.7346   29.0797 N   0  0  0  0  0  0  0  0  0  0  0  0
   24.8544    9.9275   28.3597 C   0  0  0  0  0  0  0  0  0  0  0  0
   23.7825   10.5874   29.1740 C   0  0  2  0  0  0  0  0  0  0  0  0
   23.2904   11.9364   28.5607 C   0  0  1  0  0  0  0  0  0  0  0  0
   22.2476   12.4970   29.5882 C   0  0  1  0  0  0  0  0  0  0  0  0
   22.9405   12.7669   30.9523 C   0  0  1  0  0  0  0  0  0  0  0  0
   24.4603   12.3931   30.8636 C   0  0  1  0  0  0  0  0  0  0  0  0
   24.4878   10.8617   30.5583 C   0  0  2  0  0  0  0  0  0  0  0  0
   22.3377   13.9207   30.1454 C   0  0  0  0  0  0  0  0  0  0  0  0
   24.4952   12.8661   28.4926 C   0  0  0  0  0  0  0  0  0  0  0  0
   25.0944   13.1005   29.6728 C   0  0  0  0  0  0  0  0  0  0  0  0
   24.7076    9.5705   27.1605 O   0  0  0  0  0  0  0  0  0  0  0  0
   26.7949   10.4344   31.2118 O   0  0  0  0  0  0  0  0  0  0  0  0
   33.8477    8.9053   27.2863 C   0  0  0  0  0  0  0  0  0  0  0  0
   34.5726    9.7090   28.1463 F   0  0  0  0  0  0  0  0  0  0  0  0
   34.4055    7.6384   27.2751 F   0  0  0  0  0  0  0  0  0  0  0  0
   33.9299    9.4250   26.0060 F   0  0  0  0  0  0  0  0  0  0  0  0
   29.4928   10.5689   27.4409 H   0  0  0  0  0  0  0  0  0  0  0  0
   31.7913   10.5991   26.6302 H   0  0  0  0  0  0  0  0  0  0  0  0
   32.7040    7.1577   29.0669 H   0  0  0  0  0  0  0  0  0  0  0  0
   30.3969    7.1099   29.8675 H   0  0  0  0  0  0  0  0  0  0  0  0
   27.4017    9.5812   27.4498 H   0  0  0  0  0  0  0  0  0  0  0  0
   22.9321    9.8814   29.3012 H   0  0  0  0  0  0  0  0  0  0  0  0
   22.8298   11.7933   27.5605 H   0  0  0  0  0  0  0  0  0  0  0  0
   21.2773   11.9684   29.7070 H   0  0  0  0  0  0  0  0  0  0  0  0
   22.3453   12.3844   31.8092 H   0  0  0  0  0  0  0  0  0  0  0  0
   24.9882   12.6367   31.8098 H   0  0  0  0  0  0  0  0  0  0  0  0
   23.9889   10.2909   31.3725 H   0  0  0  0  0  0  0  0  0  0  0  0
   23.0355   14.6253   29.6514 H   0  0  0  0  0  0  0  0  0  0  0  0
   21.3774   14.2928   30.5596 H   0  0  0  0  0  0  0  0  0  0  0  0
   24.8440   13.3101   27.5663 H   0  0  0  0  0  0  0  0  0  0  0  0
   25.9609   13.7468   29.7654 H   0  0  0  0  0  0  0  0  0  0  0  0
  4  5  2  0
  5  6  1  0
  6  7  2  0
  2  7  1  0
  1  8  2  0
  1  9  1  0
 10 11  1  0
 11 12  1  0
 13 12  1  0
 14 13  1  0
 14 15  1  0
 16 15  1  0
 17 16  1  0
 17 18  1  0
 18 10  1  0
 18 13  1  0
 15 19  1  0
 16 19  1  0
 20 21  2  0
 14 20  1  0
 17 21  1  0
 12 22  2  0
 10 23  2  0
  9 11  1  0
  5 24  1  0
  1  2  1  0
 24 25  1  0
  2  3  2  0
 24 26  1  0
  3  4  1  0
 24 27  1  0
  3 28  1  0
  4 29  1  0
  6 30  1  0
  7 31  1  0
  9 32  1  0
 13 33  1  6
 14 34  1  6
 15 35  1  6
 16 36  1  6
 17 37  1  1
 18 38  1  6
 19 39  1  0
 19 40  1  0
 20 41  1  0
 21 42  1  0
M  END
> <Uni-Dock RESULT> 
ENERGY=   -3.840  LOWER_BOUND=    5.612  UPPER_BOUND=    8.168
INTER + INTRA:          -3.840
INTER:                  -3.840
INTRA:                   0.000
UNBOUND:                 0.000

$$$$

     RDKit          3D

 42 46  0  0  0  0  0  0  0  0999 V2000
   29.9385    9.6505   27.6633 C   0  0  0  0  0  0  0  0  0  0  0  0
   31.2200   10.3219   27.3370 C   0  0  0  0  0  0  0  0  0  0  0  0
   31.2838   11.7168   27.1715 C   0  0  0  0  0  0  0  0  0  0  0  0
   32.4977   12.3417   26.8710 C   0  0  0  0  0  0  0  0  0  0  0  0
   33.6708   11.5851   26.7159 C   0  0  0  0  0  0  0  0  0  0  0  0
   33.6156   10.1964   26.9178 C   0  0  0  0  0  0  0  0  0  0  0  0
   32.4025    9.5708   27.2191 C   0  0  0  0  0  0  0  0  0  0  0  0
   29.9513    8.4852   28.1459 O   0  0  0  0  0  0  0  0  0  0  0  0
   28.6817   10.2906   27.3988 N   0  0  0  0  0  0  0  0  0  0  0  0
   27.3021    9.5483   29.3676 C   0  0  0  0  0  0  0  0  0  0  0  0
   27.4833    9.8519   27.9912 N   0  0  0  0  0  0  0  0  0  0  0  0
   26.1948   10.0897   27.4506 C   0  0  0  0  0  0  0  0  0  0  0  0
   25.0914    9.8661   28.4406 C   0  0  2  0  0  0  0  0  0  0  0  0
   24.2192   11.1382   28.6836 C   0  0  1  0  0  0  0  0  0  0  0  0
   23.1919   10.7245   29.7930 C   0  0  1  0  0  0  0  0  0  0  0  0
   23.9450   10.3518   31.0998 C   0  0  1  0  0  0  0  0  0  0  0  0
   25.4904   10.5098   30.8903 C   0  0  1  0  0  0  0  0  0  0  0  0
   25.8575    9.4887   29.7671 C   0  0  2  0  0  0  0  0  0  0  0  0
   22.9924   11.5507   31.0671 C   0  0  0  0  0  0  0  0  0  0  0  0
   25.1447   12.2231   29.2194 C   0  0  0  0  0  0  0  0  0  0  0  0
   25.7959   11.9012   30.3504 C   0  0  0  0  0  0  0  0  0  0  0  0
   26.0073   10.4457   26.2568 O   0  0  0  0  0  0  0  0  0  0  0  0
   28.2570    9.3952   30.1749 O   0  0  0  0  0  0  0  0  0  0  0  0
   34.9881   12.2657   26.4409 C   0  0  0  0  0  0  0  0  0  0  0  0
   35.5853   12.6032   27.6409 F   0  0  0  0  0  0  0  0  0  0  0  0
   35.8340   11.4264   25.7364 F   0  0  0  0  0  0  0  0  0  0  0  0
   34.7977   13.4147   25.6927 F   0  0  0  0  0  0  0  0  0  0  0  0
   30.4036   12.3332   27.2979 H   0  0  0  0  0  0  0  0  0  0  0  0
   32.5200   13.4193   26.7668 H   0  0  0  0  0  0  0  0  0  0  0  0
   34.5118    9.5931   26.8442 H   0  0  0  0  0  0  0  0  0  0  0  0
   32.3903    8.4966   27.3566 H   0  0  0  0  0  0  0  0  0  0  0  0
   28.6319   11.0023   26.6358 H   0  0  0  0  0  0  0  0  0  0  0  0
   24.4590    9.0169   28.0988 H   0  0  0  0  0  0  0  0  0  0  0  0
   23.6994   11.4670   27.7591 H   0  0  0  0  0  0  0  0  0  0  0  0
   22.3997    9.9875   29.5396 H   0  0  0  0  0  0  0  0  0  0  0  0
   23.5604    9.4130   31.5535 H   0  0  0  0  0  0  0  0  0  0  0  0
   26.0446   10.3079   31.8313 H   0  0  0  0  0  0  0  0  0  0  0  0
   25.6071    8.4518   30.0831 H   0  0  0  0  0  0  0  0  0  0  0  0
   23.4373   12.5647   31.0998 H   0  0  0  0  0  0  0  0  0  0  0  0
   22.0225   11.3559   31.5705 H   0  0  0  0  0  0  0  0  0  0  0  0
   25.2692   13.1840   28.7316 H   0  0  0  0  0  0  0  0  0  0  0  0
   26.4827   12.5842   30.8391 H   0  0  0  0  0  0  0  0  0  0  0  0
  4  5  2  0
  5  6  1  0
  6  7  2  0
  2  7  1  0
  1  8  2  0
  1  9  1  0
 10 11  1  0
 11 12  1  0
 13 12  1  0
 14 13  1  0
 14 15  1  0
 16 15  1  0
 17 16  1  0
 17 18  1  0
 18 10  1  0
 18 13  1  0
 15 19  1  0
 16 19  1  0
 20 21  2  0
 14 20  1  0
 17 21  1  0
 12 22  2  0
 10 23  2  0
  9 11  1  0
  5 24  1  0
  1  2  1  0
 24 25  1  0
  2  3  2  0
 24 26  1  0
  3  4  1  0
 24 27  1  0
  3 28  1  0
  4 29  1  0
  6 30  1  0
  7 31  1  0
  9 32  1  0
 13 33  1  6
 14 34  1  6
 15 35  1  6
 16 36  1  6
 17 37  1  1
 18 38  1  6
 19 39  1  0
 19 40  1  0
 20 41  1  0
 21 42  1  0
M  END
> <Uni-Dock RESULT> 
ENERGY=   -3.838  LOWER_BOUND=    5.281  UPPER_BOUND=    7.069
INTER + INTRA:          -3.838
INTER:                  -3.838
INTRA:                   0.000
UNBOUND:                 0.000

$$$$

     RDKit          3D

 42 46  0  0  0  0  0  0  0  0999 V2000
   31.6741   12.4231   22.7862 C   0  0  0  0  0  0  0  0  0  0  0  0
   32.7263   13.4654   22.8648 C   0  0  0  0  0  0  0  0  0  0  0  0
   33.1579   14.1452   21.7122 C   0  0  0  0  0  0  0  0  0  0  0  0
   34.1454   15.1313   21.7970 C   0  0  0  0  0  0  0  0  0  0  0  0
   34.7321   15.4493   23.0328 C   0  0  0  0  0  0  0  0  0  0  0  0
   34.2755   14.7974   24.1899 C   0  0  0  0  0  0  0  0  0  0  0  0
   33.2876   13.8120   24.1062 C   0  0  0  0  0  0  0  0  0  0  0  0
   31.0579   12.0803   23.8320 O   0  0  0  0  0  0  0  0  0  0  0  0
   31.3754   11.7680   21.5449 N   0  0  0  0  0  0  0  0  0  0  0  0
   28.8803   11.4844   21.7005 C   0  0  0  0  0  0  0  0  0  0  0  0
   30.1855   11.0422   21.3534 N   0  0  0  0  0  0  0  0  0  0  0  0
   30.0275   10.0122   20.3925 C   0  0  0  0  0  0  0  0  0  0  0  0
   28.5920    9.6706   20.1273 C   0  0  2  0  0  0  0  0  0  0  0  0
   28.1808    9.8693   18.6341 C   0  0  1  0  0  0  0  0  0  0  0  0
   26.6483    9.5432   18.5846 C   0  0  1  0  0  0  0  0  0  0  0  0
   25.8647   10.5437   19.4783 C   0  0  1  0  0  0  0  0  0  0  0  0
   26.8575   11.5589   20.1422 C   0  0  1  0  0  0  0  0  0  0  0  0
   27.7977   10.6878   21.0346 C   0  0  2  0  0  0  0  0  0  0  0  0
   25.6305   10.5055   17.9652 C   0  0  0  0  0  0  0  0  0  0  0  0
   28.4045   11.3380   18.2971 C   0  0  0  0  0  0  0  0  0  0  0  0
   27.7261   12.2038   19.0697 C   0  0  0  0  0  0  0  0  0  0  0  0
   31.0013    9.4441   19.8303 O   0  0  0  0  0  0  0  0  0  0  0  0
   28.6600   12.4730   22.4495 O   0  0  0  0  0  0  0  0  0  0  0  0
   35.7612   16.5473   23.1299 C   0  0  0  0  0  0  0  0  0  0  0  0
   35.1203   17.7551   23.3331 F   0  0  0  0  0  0  0  0  0  0  0  0
   36.6274   16.3134   24.1841 F   0  0  0  0  0  0  0  0  0  0  0  0
   36.5070   16.6225   21.9662 F   0  0  0  0  0  0  0  0  0  0  0  0
   32.7183   13.9372   20.7457 H   0  0  0  0  0  0  0  0  0  0  0  0
   34.4452   15.6507   20.8955 H   0  0  0  0  0  0  0  0  0  0  0  0
   34.6813   15.0508   25.1614 H   0  0  0  0  0  0  0  0  0  0  0  0
   32.9656   13.3186   25.0149 H   0  0  0  0  0  0  0  0  0  0  0  0
   32.1238   11.7034   20.8189 H   0  0  0  0  0  0  0  0  0  0  0  0
   28.3986    8.6239   20.4510 H   0  0  0  0  0  0  0  0  0  0  0  0
   28.7540    9.2041   17.9544 H   0  0  0  0  0  0  0  0  0  0  0  0
   26.3202    8.4931   18.7417 H   0  0  0  0  0  0  0  0  0  0  0  0
   25.1126   10.0350   20.1191 H   0  0  0  0  0  0  0  0  0  0  0  0
   26.3117   12.3219   20.7366 H   0  0  0  0  0  0  0  0  0  0  0  0
   27.2112   10.1466   21.8098 H   0  0  0  0  0  0  0  0  0  0  0  0
   26.0188   11.3490   17.3611 H   0  0  0  0  0  0  0  0  0  0  0  0
   24.6772   10.0138   17.6798 H   0  0  0  0  0  0  0  0  0  0  0  0
   29.0569   11.6646   17.4943 H   0  0  0  0  0  0  0  0  0  0  0  0
   27.7929   13.2782   18.9340 H   0  0  0  0  0  0  0  0  0  0  0  0
  4  5  2  0
  5  6  1  0
  6  7  2  0
  2  7  1  0
  1  8  2  0
  1  9  1  0
 10 11  1  0
 11 12  1  0
 13 12  1  0
 14 13  1  0
 14 15  1  0
 16 15  1  0
 17 16  1  0
 17 18  1  0
 18 10  1  0
 18 13  1  0
 15 19  1  0
 16 19  1  0
 20 21  2  0
 14 20  1  0
 17 21  1  0
 12 22  2  0
 10 23  2  0
  9 11  1  0
  5 24  1  0
  1  2  1  0
 24 25  1  0
  2  3  2  0
 24 26  1  0
  3  4  1  0
 24 27  1  0
  3 28  1  0
  4 29  1  0
  6 30  1  0
  7 31  1  0
  9 32  1  0
 13 33  1  6
 14 34  1  6
 15 35  1  6
 16 36  1  6
 17 37  1  1
 18 38  1  6
 19 39  1  0
 19 40  1  0
 20 41  1  0
 21 42  1  0
M  END
> <Uni-Dock RESULT> 
ENERGY=   -3.807  LOWER_BOUND=    9.664  UPPER_BOUND=   10.972
INTER + INTRA:          -3.807
INTER:                  -3.807
INTRA:                   0.000
UNBOUND:                 0.000

$$$$

     RDKit          3D

 42 46  0  0  0  0  0  0  0  0999 V2000
   27.4161   13.6420   23.0165 C   0  0  0  0  0  0  0  0  0  0  0  0
   26.1244   14.3441   23.2120 C   0  0  0  0  0  0  0  0  0  0  0  0
   25.3148   14.6874   22.1148 C   0  0  0  0  0  0  0  0  0  0  0  0
   24.0954   15.3429   22.3093 C   0  0  0  0  0  0  0  0  0  0  0  0
   23.6654   15.6815   23.6028 C   0  0  0  0  0  0  0  0  0  0  0  0
   24.4554   15.3060   24.7017 C   0  0  0  0  0  0  0  0  0  0  0  0
   25.6742   14.6499   24.5082 C   0  0  0  0  0  0  0  0  0  0  0  0
   27.9503   13.0394   23.9871 O   0  0  0  0  0  0  0  0  0  0  0  0
   28.0888   13.6736   21.7493 N   0  0  0  0  0  0  0  0  0  0  0  0
   29.0629   11.3570   21.6265 C   0  0  0  0  0  0  0  0  0  0  0  0
   29.1116   12.7631   21.4264 N   0  0  0  0  0  0  0  0  0  0  0  0
   30.1137   13.0043   20.4533 C   0  0  0  0  0  0  0  0  0  0  0  0
   30.8341   11.7596   20.0301 C   0  0  2  0  0  0  0  0  0  0  0  0
   30.7109   11.4705   18.5006 C   0  0  1  0  0  0  0  0  0  0  0  0
   31.4505   10.1059   18.2809 C   0  0  1  0  0  0  0  0  0  0  0  0
   30.7376    8.9820   19.0826 C   0  0  1  0  0  0  0  0  0  0  0  0
   29.5070    9.5728   19.8532 C   0  0  1  0  0  0  0  0  0  0  0  0
   30.1087   10.6193   20.8441 C   0  0  2  0  0  0  0  0  0  0  0  0
   30.7917    8.9305   17.5528 C   0  0  0  0  0  0  0  0  0  0  0  0
   29.2283   11.3068   18.1913 C   0  0  0  0  0  0  0  0  0  0  0  0
   28.6115   10.3341   18.8842 C   0  0  0  0  0  0  0  0  0  0  0  0
   30.3690   14.1526   20.0025 O   0  0  0  0  0  0  0  0  0  0  0  0
   28.1995   10.7892   22.3470 O   0  0  0  0  0  0  0  0  0  0  0  0
   22.3273   16.3439   23.8142 C   0  0  0  0  0  0  0  0  0  0  0  0
   21.3538   15.3714   23.9456 F   0  0  0  0  0  0  0  0  0  0  0  0
   22.3433   17.1236   24.9579 F   0  0  0  0  0  0  0  0  0  0  0  0
   22.0099   17.1580   22.7406 F   0  0  0  0  0  0  0  0  0  0  0  0
   25.6066   14.4295   21.1053 H   0  0  0  0  0  0  0  0  0  0  0  0
   23.4845   15.5788   21.4469 H   0  0  0  0  0  0  0  0  0  0  0  0
   24.1296   15.5184   25.7123 H   0  0  0  0  0  0  0  0  0  0  0  0
   26.2666   14.3847   25.3753 H   0  0  0  0  0  0  0  0  0  0  0  0
   27.9186   14.4827   21.1109 H   0  0  0  0  0  0  0  0  0  0  0  0
   31.9029   11.8349   20.3298 H   0  0  0  0  0  0  0  0  0  0  0  0
   31.1677   12.2765   17.8885 H   0  0  0  0  0  0  0  0  0  0  0  0
   32.5548   10.0715   18.4001 H   0  0  0  0  0  0  0  0  0  0  0  0
   31.4562    8.3395   19.6356 H   0  0  0  0  0  0  0  0  0  0  0  0
   28.9462    8.7744   20.3837 H   0  0  0  0  0  0  0  0  0  0  0  0
   30.8165   10.1296   21.5490 H   0  0  0  0  0  0  0  0  0  0  0  0
   29.8545    9.1280   16.9960 H   0  0  0  0  0  0  0  0  0  0  0  0
   31.5208    8.1899   17.1630 H   0  0  0  0  0  0  0  0  0  0  0  0
   28.7071   11.9227   17.4661 H   0  0  0  0  0  0  0  0  0  0  0  0
   27.5575   10.1102   18.7573 H   0  0  0  0  0  0  0  0  0  0  0  0
  4  5  2  0
  5  6  1  0
  6  7  2  0
  2  7  1  0
  1  8  2  0
  1  9  1  0
 10 11  1  0
 11 12  1  0
 13 12  1  0
 14 13  1  0
 14 15  1  0
 16 15  1  0
 17 16  1  0
 17 18  1  0
 18 10  1  0
 18 13  1  0
 15 19  1  0
 16 19  1  0
 20 21  2  0
 14 20  1  0
 17 21  1  0
 12 22  2  0
 10 23  2  0
  9 11  1  0
  5 24  1  0
  1  2  1  0
 24 25  1  0
  2  3  2  0
 24 26  1  0
  3  4  1  0
 24 27  1  0
  3 28  1  0
  4 29  1  0
  6 30  1  0
  7 31  1  0
  9 32  1  0
 13 33  1  6
 14 34  1  6
 15 35  1  6
 16 36  1  6
 17 37  1  1
 18 38  1  6
 19 39  1  0
 19 40  1  0
 20 41  1  0
 21 42  1  0
M  END
> <Uni-Dock RESULT> 
ENERGY=   -3.746  LOWER_BOUND=   10.943  UPPER_BOUND=   12.563
INTER + INTRA:          -3.746
INTER:                  -3.746
INTRA:                   0.000
UNBOUND:                 0.000

$$$$

     RDKit          3D

 42 46  0  0  0  0  0  0  0  0999 V2000
   27.3881   12.0849   26.4533 C   0  0  0  0  0  0  0  0  0  0  0  0
   26.6461   11.2616   27.4387 C   0  0  0  0  0  0  0  0  0  0  0  0
   25.7479   10.2650   27.0178 C   0  0  0  0  0  0  0  0  0  0  0  0
   25.0581    9.4890   27.9540 C   0  0  0  0  0  0  0  0  0  0  0  0
   25.2406    9.7013   29.3303 C   0  0  0  0  0  0  0  0  0  0  0  0
   26.1652   10.6709   29.7517 C   0  0  0  0  0  0  0  0  0  0  0  0
   26.8560   11.4466   28.8164 C   0  0  0  0  0  0  0  0  0  0  0  0
   28.4212   12.7106   26.8169 O   0  0  0  0  0  0  0  0  0  0  0  0
   26.9243   12.2144   25.1015 N   0  0  0  0  0  0  0  0  0  0  0  0
   29.0877   12.2610   23.8178 C   0  0  0  0  0  0  0  0  0  0  0  0
   27.7564   12.6888   24.0709 N   0  0  0  0  0  0  0  0  0  0  0  0
   27.2817   13.2818   22.8742 C   0  0  0  0  0  0  0  0  0  0  0  0
   28.3225   13.3468   21.7971 C   0  0  2  0  0  0  0  0  0  0  0  0
   27.9099   12.5822   20.4997 C   0  0  1  0  0  0  0  0  0  0  0  0
   29.1472   12.6996   19.5443 C   0  0  1  0  0  0  0  0  0  0  0  0
   30.3805   12.0072   20.1872 C   0  0  1  0  0  0  0  0  0  0  0  0
   29.9920   11.4123   21.5845 C   0  0  1  0  0  0  0  0  0  0  0  0
   29.5737   12.6426   22.4509 C   0  0  2  0  0  0  0  0  0  0  0  0
   29.7834   11.4744   18.8813 C   0  0  0  0  0  0  0  0  0  0  0  0
   27.6953   11.1241   20.8853 C   0  0  0  0  0  0  0  0  0  0  0  0
   28.7624   10.5246   21.4409 C   0  0  0  0  0  0  0  0  0  0  0  0
   26.1053   13.7130   22.7427 O   0  0  0  0  0  0  0  0  0  0  0  0
   29.7675   11.5891   24.6385 O   0  0  0  0  0  0  0  0  0  0  0  0
   24.5335    8.8305   30.3381 C   0  0  0  0  0  0  0  0  0  0  0  0
   25.3063    7.7138   30.5963 F   0  0  0  0  0  0  0  0  0  0  0  0
   24.3279    9.5199   31.5208 F   0  0  0  0  0  0  0  0  0  0  0  0
   23.3016    8.4248   29.8545 F   0  0  0  0  0  0  0  0  0  0  0  0
   25.5931   10.0633   25.9661 H   0  0  0  0  0  0  0  0  0  0  0  0
   24.3863    8.7168   27.6006 H   0  0  0  0  0  0  0  0  0  0  0  0
   26.3559   10.8287   30.8059 H   0  0  0  0  0  0  0  0  0  0  0  0
   27.5530   12.1949   29.1731 H   0  0  0  0  0  0  0  0  0  0  0  0
   25.9048   12.0955   24.9072 H   0  0  0  0  0  0  0  0  0  0  0  0
   28.5478   14.4121   21.5692 H   0  0  0  0  0  0  0  0  0  0  0  0
   27.0011   13.0177   20.0333 H   0  0  0  0  0  0  0  0  0  0  0  0
   29.3990   13.6937   19.1160 H   0  0  0  0  0  0  0  0  0  0  0  0
   31.2997   12.6265   20.1069 H   0  0  0  0  0  0  0  0  0  0  0  0
   30.8431   10.8587   22.0344 H   0  0  0  0  0  0  0  0  0  0  0  0
   30.4196   13.3583   22.5493 H   0  0  0  0  0  0  0  0  0  0  0  0
   29.2256   10.5180   18.9209 H   0  0  0  0  0  0  0  0  0  0  0  0
   30.3902   11.7238   17.9860 H   0  0  0  0  0  0  0  0  0  0  0  0
   26.7571   10.6046   20.7227 H   0  0  0  0  0  0  0  0  0  0  0  0
   28.7453    9.4872   21.7581 H   0  0  0  0  0  0  0  0  0  0  0  0
  4  5  2  0
  5  6  1  0
  6  7  2  0
  2  7  1  0
  1  8  2  0
  1  9  1  0
 10 11  1  0
 11 12  1  0
 13 12  1  0
 14 13  1  0
 14 15  1  0
 16 15  1  0
 17 16  1  0
 17 18  1  0
 18 10  1  0
 18 13  1  0
 15 19  1  0
 16 19  1  0
 20 21  2  0
 14 20  1  0
 17 21  1  0
 12 22  2  0
 10 23  2  0
  9 11  1  0
  5 24  1  0
  1  2  1  0
 24 25  1  0
  2  3  2  0
 24 26  1  0
  3  4  1  0
 24 27  1  0
  3 28  1  0
  4 29  1  0
  6 30  1  0
  7 31  1  0
  9 32  1  0
 13 33  1  6
 14 34  1  6
 15 35  1  6
 16 36  1  6
 17 37  1  1
 18 38  1  6
 19 39  1  0
 19 40  1  0
 20 41  1  0
 21 42  1  0
M  END
> <Uni-Dock RESULT> 
ENERGY=   -3.714  LOWER_BOUND=    8.101  UPPER_BOUND=   11.226
INTER + INTRA:          -3.714
INTER:                  -3.714
INTRA:                   0.000
UNBOUND:                 0.000

$$$$

     RDKit          3D

 42 46  0  0  0  0  0  0  0  0999 V2000
   28.8197    7.2839   30.5304 C   0  0  0  0  0  0  0  0  0  0  0  0
   28.9290    8.3615   29.5173 C   0  0  0  0  0  0  0  0  0  0  0  0
   29.8758    8.2860   28.4806 C   0  0  0  0  0  0  0  0  0  0  0  0
   29.9668    9.3032   27.5260 C   0  0  0  0  0  0  0  0  0  0  0  0
   29.1231   10.4240   27.5947 C   0  0  0  0  0  0  0  0  0  0  0  0
   28.1521   10.4827   28.6077 C   0  0  0  0  0  0  0  0  0  0  0  0
   28.0599    9.4657   29.5621 C   0  0  0  0  0  0  0  0  0  0  0  0
   27.7705    7.1849   31.2234 O   0  0  0  0  0  0  0  0  0  0  0  0
   29.9073    6.3773   30.7637 N   0  0  0  0  0  0  0  0  0  0  0  0
   28.6918    4.2198   31.2088 C   0  0  0  0  0  0  0  0  0  0  0  0
   29.7292    5.1611   31.4482 N   0  0  0  0  0  0  0  0  0  0  0  0
   30.7665    4.4663   32.1193 C   0  0  0  0  0  0  0  0  0  0  0  0
   30.4155    3.0422   32.4294 C   0  0  2  0  0  0  0  0  0  0  0  0
   31.3955    2.0144   31.7803 C   0  0  1  0  0  0  0  0  0  0  0  0
   30.8158    0.6058   32.1504 C   0  0  1  0  0  0  0  0  0  0  0  0
   29.3999    0.4369   31.5333 C   0  0  1  0  0  0  0  0  0  0  0  0
   29.0055    1.7288   30.7378 C   0  0  1  0  0  0  0  0  0  0  0  0
   28.9782    2.8720   31.8015 C   0  0  2  0  0  0  0  0  0  0  0  0
   30.5526   -0.4702   31.0926 C   0  0  0  0  0  0  0  0  0  0  0  0
   31.3273    2.2178   30.2720 C   0  0  0  0  0  0  0  0  0  0  0  0
   30.1026    2.0711   29.7378 C   0  0  0  0  0  0  0  0  0  0  0  0
   31.8646    5.0028   32.4251 O   0  0  0  0  0  0  0  0  0  0  0  0
   27.6644    4.4793   30.5276 O   0  0  0  0  0  0  0  0  0  0  0  0
   29.1890   11.4960   26.5361 C   0  0  0  0  0  0  0  0  0  0  0  0
   28.3475   11.1577   25.4929 F   0  0  0  0  0  0  0  0  0  0  0  0
   28.7970   12.7186   27.0536 F   0  0  0  0  0  0  0  0  0  0  0  0
   30.4791   11.6255   26.0513 F   0  0  0  0  0  0  0  0  0  0  0  0
   30.5322    7.4308   28.3874 H   0  0  0  0  0  0  0  0  0  0  0  0
   30.6934    9.2095   26.7287 H   0  0  0  0  0  0  0  0  0  0  0  0
   27.4618   11.3153   28.6614 H   0  0  0  0  0  0  0  0  0  0  0  0
   27.3088    9.5460   30.3383 H   0  0  0  0  0  0  0  0  0  0  0  0
   30.8797    6.6952   30.5522 H   0  0  0  0  0  0  0  0  0  0  0  0
   30.3791    2.9057   33.5329 H   0  0  0  0  0  0  0  0  0  0  0  0
   32.4321    2.1332   32.1603 H   0  0  0  0  0  0  0  0  0  0  0  0
   30.8547    0.2736   33.2101 H   0  0  0  0  0  0  0  0  0  0  0  0
   28.6727    0.0135   32.2592 H   0  0  0  0  0  0  0  0  0  0  0  0
   28.0222    1.6055   30.2365 H   0  0  0  0  0  0  0  0  0  0  0  0
   28.2279    2.6527   32.5931 H   0  0  0  0  0  0  0  0  0  0  0  0
   30.9751   -0.3135   30.0806 H   0  0  0  0  0  0  0  0  0  0  0  0
   30.4914   -1.4954   31.5135 H   0  0  0  0  0  0  0  0  0  0  0  0
   32.1975    2.4588   29.6710 H   0  0  0  0  0  0  0  0  0  0  0  0
   29.9154    2.1856   28.6753 H   0  0  0  0  0  0  0  0  0  0  0  0
  4  5  2  0
  5  6  1  0
  6  7  2  0
  2  7  1  0
  1  8  2  0
  1  9  1  0
 10 11  1  0
 11 12  1  0
 13 12  1  0
 14 13  1  0
 14 15  1  0
 16 15  1  0
 17 16  1  0
 17 18  1  0
 18 10  1  0
 18 13  1  0
 15 19  1  0
 16 19  1  0
 20 21  2  0
 14 20  1  0
 17 21  1  0
 12 22  2  0
 10 23  2  0
  9 11  1  0
  5 24  1  0
  1  2  1  0
 24 25  1  0
  2  3  2  0
 24 26  1  0
  3  4  1  0
 24 27  1  0
  3 28  1  0
  4 29  1  0
  6 30  1  0
  7 31  1  0
  9 32  1  0
 13 33  1  6
 14 34  1  6
 15 35  1  6
 16 36  1  6
 17 37  1  1
 18 38  1  6
 19 39  1  0
 19 40  1  0
 20 41  1  0
 21 42  1  0
M  END
> <Uni-Dock RESULT> 
ENERGY=   -3.703  LOWER_BOUND=    2.524  UPPER_BOUND=    3.094
INTER + INTRA:          -3.703
INTER:                  -3.703
INTRA:                   0.000
UNBOUND:                 0.000

$$$$
