
     RDKit          3D

 42 46  0  0  0  0  0  0  0  0999 V2000
   30.3251    7.7002   28.1011 C   0  0  0  0  0  0  0  0  0  0  0  0
   31.3585    8.6429   27.6082 C   0  0  0  0  0  0  0  0  0  0  0  0
   32.6784    8.2149   27.3813 C   0  0  0  0  0  0  0  0  0  0  0  0
   33.6474    9.1124   26.9231 C   0  0  0  0  0  0  0  0  0  0  0  0
   33.3152   10.4532   26.6689 C   0  0  0  0  0  0  0  0  0  0  0  0
   32.0064   10.8905   26.9307 C   0  0  0  0  0  0  0  0  0  0  0  0
   31.0372    9.9940   27.3896 C   0  0  0  0  0  0  0  0  0  0  0  0
   29.2702    8.1510   28.6252 O   0  0  0  0  0  0  0  0  0  0  0  0
   30.4887    6.2823   27.9524 N   0  0  0  0  0  0  0  0  0  0  0  0
   29.4758    4.0264   28.2877 C   0  0  0  0  0  0  0  0  0  0  0  0
   29.7218    5.3627   28.6910 N   0  0  0  0  0  0  0  0  0  0  0  0
   29.4789    5.4213   30.0901 C   0  0  0  0  0  0  0  0  0  0  0  0
   28.9717    4.1251   30.6494 C   0  0  2  0  0  0  0  0  0  0  0  0
   29.8933    3.5375   31.7649 C   0  0  1  0  0  0  0  0  0  0  0  0
   29.2459    2.1629   32.1507 C   0  0  1  0  0  0  0  0  0  0  0  0
   29.2478    1.2125   30.9217 C   0  0  1  0  0  0  0  0  0  0  0  0
   29.8958    1.9333   29.6896 C   0  0  1  0  0  0  0  0  0  0  0  0
   28.9722    3.1590   29.4021 C   0  0  2  0  0  0  0  0  0  0  0  0
   30.0532    0.8617   32.1763 C   0  0  0  0  0  0  0  0  0  0  0  0
   31.2626    3.3027   31.1398 C   0  0  0  0  0  0  0  0  0  0  0  0
   31.2637    2.4810   30.0761 C   0  0  0  0  0  0  0  0  0  0  0  0
   29.7133    6.4407   30.7920 O   0  0  0  0  0  0  0  0  0  0  0  0
   29.6587    3.6215   27.1089 O   0  0  0  0  0  0  0  0  0  0  0  0
   34.3727   11.4311   26.2223 C   0  0  0  0  0  0  0  0  0  0  0  0
   34.9785   11.9856   27.3342 F   0  0  0  0  0  0  0  0  0  0  0  0
   35.3335   10.7952   25.4550 F   0  0  0  0  0  0  0  0  0  0  0  0
   33.8127   12.4432   25.4620 F   0  0  0  0  0  0  0  0  0  0  0  0
   32.9744    7.1933   27.5801 H   0  0  0  0  0  0  0  0  0  0  0  0
   34.6600    8.7586   26.7743 H   0  0  0  0  0  0  0  0  0  0  0  0
   31.7322   11.9274   26.7821 H   0  0  0  0  0  0  0  0  0  0  0  0
   30.0336   10.3591   27.5702 H   0  0  0  0  0  0  0  0  0  0  0  0
   31.0840    5.9250   27.1720 H   0  0  0  0  0  0  0  0  0  0  0  0
   27.9374    4.2708   31.0322 H   0  0  0  0  0  0  0  0  0  0  0  0
   29.9584    4.2105   32.6459 H   0  0  0  0  0  0  0  0  0  0  0  0
   28.2694    2.1623   32.6810 H   0  0  0  0  0  0  0  0  0  0  0  0
   28.2723    0.6974   30.7870 H   0  0  0  0  0  0  0  0  0  0  0  0
   29.9626    1.2509   28.8161 H   0  0  0  0  0  0  0  0  0  0  0  0
   27.9379    2.8236   29.1666 H   0  0  0  0  0  0  0  0  0  0  0  0
   29.5848    0.0653   32.7914 H   0  0  0  0  0  0  0  0  0  0  0  0
   31.1570    0.9375   32.1191 H   0  0  0  0  0  0  0  0  0  0  0  0
   32.1697    3.7589   31.5217 H   0  0  0  0  0  0  0  0  0  0  0  0
   32.1720    2.2275   29.5397 H   0  0  0  0  0  0  0  0  0  0  0  0
  4  5  2  0
  5  6  1  0
  6  7  2  0
  2  7  1  0
  1  8  2  0
  1  9  1  0
 10 11  1  0
 11 12  1  0
 13 12  1  0
 14 13  1  0
 14 15  1  0
 16 15  1  0
 17 16  1  0
 17 18  1  0
 18 10  1  0
 18 13  1  0
 15 19  1  0
 16 19  1  0
 20 21  2  0
 14 20  1  0
 17 21  1  0
 12 22  2  0
 10 23  2  0
  9 11  1  0
  5 24  1  0
  1  2  1  0
 24 25  1  0
  2  3  2  0
 24 26  1  0
  3  4  1  0
 24 27  1  0
  3 28  1  0
  4 29  1  0
  6 30  1  0
  7 31  1  0
  9 32  1  0
 13 33  1  6
 14 34  1  1
 15 35  1  6
 16 36  1  6
 17 37  1  6
 18 38  1  6
 19 39  1  0
 19 40  1  0
 20 41  1  0
 21 42  1  0
M  END
> <Uni-Dock RESULT> 
ENERGY=   -5.612  LOWER_BOUND=    0.000  UPPER_BOUND=    0.000
INTER + INTRA:          -5.612
INTER:                  -5.612
INTRA:                   0.000
UNBOUND:                 0.000

$$$$

     RDKit          3D

 42 46  0  0  0  0  0  0  0  0999 V2000
   27.9257   12.0452   22.8576 C   0  0  0  0  0  0  0  0  0  0  0  0
   26.9638   13.0694   23.3323 C   0  0  0  0  0  0  0  0  0  0  0  0
   26.1020   13.7232   22.4342 C   0  0  0  0  0  0  0  0  0  0  0  0
   25.2034   14.6924   22.8898 C   0  0  0  0  0  0  0  0  0  0  0  0
   25.1372   15.0191   24.2542 C   0  0  0  0  0  0  0  0  0  0  0  0
   26.0232   14.3937   25.1467 C   0  0  0  0  0  0  0  0  0  0  0  0
   26.9226   13.4253   24.6917 C   0  0  0  0  0  0  0  0  0  0  0  0
   28.9082   11.7300   23.5830 O   0  0  0  0  0  0  0  0  0  0  0  0
   27.7319   11.3762   21.6029 N   0  0  0  0  0  0  0  0  0  0  0  0
   28.5639    9.6271   20.0294 C   0  0  0  0  0  0  0  0  0  0  0  0
   28.7694   10.6691   20.9680 N   0  0  0  0  0  0  0  0  0  0  0  0
   30.0964   11.1400   20.7757 C   0  0  0  0  0  0  0  0  0  0  0  0
   30.8519   10.3525   19.7465 C   0  0  2  0  0  0  0  0  0  0  0  0
   31.3502   11.2262   18.5517 C   0  0  1  0  0  0  0  0  0  0  0  0
   32.0287   10.2186   17.5610 C   0  0  1  0  0  0  0  0  0  0  0  0
   30.9816    9.1903   17.0510 C   0  0  1  0  0  0  0  0  0  0  0  0
   29.5826    9.4897   17.6914 C   0  0  1  0  0  0  0  0  0  0  0  0
   29.7901    9.3071   19.2282 C   0  0  2  0  0  0  0  0  0  0  0  0
   31.6559   10.1608   16.0767 C   0  0  0  0  0  0  0  0  0  0  0  0
   30.1181   11.8386   17.8977 C   0  0  0  0  0  0  0  0  0  0  0  0
   29.2122   10.9487   17.4572 C   0  0  0  0  0  0  0  0  0  0  0  0
   30.5686   12.1440   21.3722 O   0  0  0  0  0  0  0  0  0  0  0  0
   27.4612    9.0328   19.8954 O   0  0  0  0  0  0  0  0  0  0  0  0
   24.2025   16.0996   24.7368 C   0  0  0  0  0  0  0  0  0  0  0  0
   24.8442   17.3218   24.6655 F   0  0  0  0  0  0  0  0  0  0  0  0
   23.0609   16.1432   23.9551 F   0  0  0  0  0  0  0  0  0  0  0  0
   23.8206   15.8665   26.0467 F   0  0  0  0  0  0  0  0  0  0  0  0
   26.1350   13.5081   21.3742 H   0  0  0  0  0  0  0  0  0  0  0  0
   24.5643   15.1921   22.1726 H   0  0  0  0  0  0  0  0  0  0  0  0
   26.0221   14.6549   26.1975 H   0  0  0  0  0  0  0  0  0  0  0  0
   27.5843   12.9519   25.4067 H   0  0  0  0  0  0  0  0  0  0  0  0
   26.7616   11.2868   21.2266 H   0  0  0  0  0  0  0  0  0  0  0  0
   31.7060    9.8343   20.2358 H   0  0  0  0  0  0  0  0  0  0  0  0
   32.0670   12.0080   18.8807 H   0  0  0  0  0  0  0  0  0  0  0  0
   32.9822    9.7336   17.8618 H   0  0  0  0  0  0  0  0  0  0  0  0
   31.3686    8.1489   17.0756 H   0  0  0  0  0  0  0  0  0  0  0  0
   28.8051    8.8036   17.2939 H   0  0  0  0  0  0  0  0  0  0  0  0
   30.1180    8.2693   19.4587 H   0  0  0  0  0  0  0  0  0  0  0  0
   32.4335    9.6818   15.4459 H   0  0  0  0  0  0  0  0  0  0  0  0
   31.0439   10.9877   15.6654 H   0  0  0  0  0  0  0  0  0  0  0  0
   29.9795   12.9092   17.7908 H   0  0  0  0  0  0  0  0  0  0  0  0
   28.2913   11.2509   16.9698 H   0  0  0  0  0  0  0  0  0  0  0  0
  4  5  2  0
  5  6  1  0
  6  7  2  0
  2  7  1  0
  1  8  2  0
  1  9  1  0
 10 11  1  0
 11 12  1  0
 13 12  1  0
 14 13  1  0
 14 15  1  0
 16 15  1  0
 17 16  1  0
 17 18  1  0
 18 10  1  0
 18 13  1  0
 15 19  1  0
 16 19  1  0
 20 21  2  0
 14 20  1  0
 17 21  1  0
 12 22  2  0
 10 23  2  0
  9 11  1  0
  5 24  1  0
  1  2  1  0
 24 25  1  0
  2  3  2  0
 24 26  1  0
  3  4  1  0
 24 27  1  0
  3 28  1  0
  4 29  1  0
  6 30  1  0
  7 31  1  0
  9 32  1  0
 13 33  1  6
 14 34  1  1
 15 35  1  6
 16 36  1  6
 17 37  1  6
 18 38  1  6
 19 39  1  0
 19 40  1  0
 20 41  1  0
 21 42  1  0
M  END
> <Uni-Dock RESULT> 
ENERGY=   -4.192  LOWER_BOUND=   10.137  UPPER_BOUND=   11.884
INTER + INTRA:          -4.192
INTER:                  -4.192
INTRA:                   0.000
UNBOUND:                 0.000

$$$$

     RDKit          3D

 42 46  0  0  0  0  0  0  0  0999 V2000
   27.9239   12.1838   22.8384 C   0  0  0  0  0  0  0  0  0  0  0  0
   26.9072   13.1784   23.2586 C   0  0  0  0  0  0  0  0  0  0  0  0
   25.9983   13.7189   22.3319 C   0  0  0  0  0  0  0  0  0  0  0  0
   25.0478   14.6611   22.7359 C   0  0  0  0  0  0  0  0  0  0  0  0
   24.9764   15.0733   24.0767 C   0  0  0  0  0  0  0  0  0  0  0  0
   25.9077   14.5622   24.9954 C   0  0  0  0  0  0  0  0  0  0  0  0
   26.8589   13.6207   24.5921 C   0  0  0  0  0  0  0  0  0  0  0  0
   28.9311   11.9763   23.5686 O   0  0  0  0  0  0  0  0  0  0  0  0
   27.7576   11.4226   21.6332 N   0  0  0  0  0  0  0  0  0  0  0  0
   28.6767    9.6251   20.1663 C   0  0  0  0  0  0  0  0  0  0  0  0
   28.8290   10.7376   21.0313 N   0  0  0  0  0  0  0  0  0  0  0  0
   30.1232   11.2725   20.7893 C   0  0  0  0  0  0  0  0  0  0  0  0
   30.9139   10.4646   19.8033 C   0  0  2  0  0  0  0  0  0  0  0  0
   31.3462   11.2850   18.5467 C   0  0  1  0  0  0  0  0  0  0  0  0
   32.0736   10.2558   17.6146 C   0  0  1  0  0  0  0  0  0  0  0  0
   31.0850    9.1356   17.1884 C   0  0  1  0  0  0  0  0  0  0  0  0
   29.6772    9.3934   17.8279 C   0  0  1  0  0  0  0  0  0  0  0  0
   29.9115    9.3260   19.3702 C   0  0  2  0  0  0  0  0  0  0  0  0
   31.6895   10.0775   16.1428 C   0  0  0  0  0  0  0  0  0  0  0  0
   30.0728   11.7784   17.8716 C   0  0  0  0  0  0  0  0  0  0  0  0
   29.2174   10.8090   17.5037 C   0  0  0  0  0  0  0  0  0  0  0  0
   30.5404   12.3402   21.3117 O   0  0  0  0  0  0  0  0  0  0  0  0
   27.6104    8.9590   20.0875 O   0  0  0  0  0  0  0  0  0  0  0  0
   23.9835   16.1261   24.5006 C   0  0  0  0  0  0  0  0  0  0  0  0
   24.5498   17.3768   24.3398 F   0  0  0  0  0  0  0  0  0  0  0  0
   22.8332   16.0499   23.7343 F   0  0  0  0  0  0  0  0  0  0  0  0
   23.6301   15.9583   25.8284 F   0  0  0  0  0  0  0  0  0  0  0  0
   26.0331   13.4361   21.2881 H   0  0  0  0  0  0  0  0  0  0  0  0
   24.3723   15.0733   21.9967 H   0  0  0  0  0  0  0  0  0  0  0  0
   25.9019   14.8922   26.0266 H   0  0  0  0  0  0  0  0  0  0  0  0
   27.5553   13.2361   25.3270 H   0  0  0  0  0  0  0  0  0  0  0  0
   26.7905   11.2509   21.2777 H   0  0  0  0  0  0  0  0  0  0  0  0
   31.8027   10.0316   20.3132 H   0  0  0  0  0  0  0  0  0  0  0  0
   32.0181   12.1281   18.8131 H   0  0  0  0  0  0  0  0  0  0  0  0
   33.0577    9.8492   17.9328 H   0  0  0  0  0  0  0  0  0  0  0  0
   31.5342    8.1229   17.2758 H   0  0  0  0  0  0  0  0  0  0  0  0
   28.9383    8.6375   17.4876 H   0  0  0  0  0  0  0  0  0  0  0  0
   30.3036    8.3271   19.6637 H   0  0  0  0  0  0  0  0  0  0  0  0
   32.4878    9.6046   15.5337 H   0  0  0  0  0  0  0  0  0  0  0  0
   31.0245   10.8374   15.6869 H   0  0  0  0  0  0  0  0  0  0  0  0
   29.8689   12.8294   17.6966 H   0  0  0  0  0  0  0  0  0  0  0  0
   28.2749   11.0231   17.0108 H   0  0  0  0  0  0  0  0  0  0  0  0
  4  5  2  0
  5  6  1  0
  6  7  2  0
  2  7  1  0
  1  8  2  0
  1  9  1  0
 10 11  1  0
 11 12  1  0
 13 12  1  0
 14 13  1  0
 14 15  1  0
 16 15  1  0
 17 16  1  0
 17 18  1  0
 18 10  1  0
 18 13  1  0
 15 19  1  0
 16 19  1  0
 20 21  2  0
 14 20  1  0
 17 21  1  0
 12 22  2  0
 10 23  2  0
  9 11  1  0
  5 24  1  0
  1  2  1  0
 24 25  1  0
  2  3  2  0
 24 26  1  0
  3  4  1  0
 24 27  1  0
  3 28  1  0
  4 29  1  0
  6 30  1  0
  7 31  1  0
  9 32  1  0
 13 33  1  6
 14 34  1  1
 15 35  1  6
 16 36  1  6
 17 37  1  6
 18 38  1  6
 19 39  1  0
 19 40  1  0
 20 41  1  0
 21 42  1  0
M  END
> <Uni-Dock RESULT> 
ENERGY=   -4.071  LOWER_BOUND=   10.243  UPPER_BOUND=   11.921
INTER + INTRA:          -4.071
INTER:                  -4.071
INTRA:                   0.000
UNBOUND:                 0.000

$$$$

     RDKit          3D

 42 46  0  0  0  0  0  0  0  0999 V2000
   28.5692   11.0385   28.0783 C   0  0  0  0  0  0  0  0  0  0  0  0
   29.9303   10.5339   27.7744 C   0  0  0  0  0  0  0  0  0  0  0  0
   30.2247    9.1608   27.8439 C   0  0  0  0  0  0  0  0  0  0  0  0
   31.5124    8.6952   27.5625 C   0  0  0  0  0  0  0  0  0  0  0  0
   32.5300    9.5898   27.1924 C   0  0  0  0  0  0  0  0  0  0  0  0
   32.2467   10.9651   27.1590 C   0  0  0  0  0  0  0  0  0  0  0  0
   30.9597   11.4316   27.4411 C   0  0  0  0  0  0  0  0  0  0  0  0
   28.4043   12.2582   28.3535 O   0  0  0  0  0  0  0  0  0  0  0  0
   27.4299   10.1676   28.0224 N   0  0  0  0  0  0  0  0  0  0  0  0
   24.9505    9.9725   28.2279 C   0  0  0  0  0  0  0  0  0  0  0  0
   26.2029   10.5075   28.6209 N   0  0  0  0  0  0  0  0  0  0  0  0
   26.0362   11.0212   29.9355 C   0  0  0  0  0  0  0  0  0  0  0  0
   24.6228   10.9191   30.4274 C   0  0  2  0  0  0  0  0  0  0  0  0
   24.4886   10.0717   31.7324 C   0  0  1  0  0  0  0  0  0  0  0  0
   22.9503   10.0146   32.0285 C   0  0  1  0  0  0  0  0  0  0  0  0
   22.2127    9.2964   30.8650 C   0  0  1  0  0  0  0  0  0  0  0  0
   23.2432    8.8599   29.7674 C   0  0  1  0  0  0  0  0  0  0  0  0
   23.8721   10.1908   29.2463 C   0  0  2  0  0  0  0  0  0  0  0  0
   22.2170    8.6923   32.2725 C   0  0  0  0  0  0  0  0  0  0  0  0
   25.0028    8.6732   31.4153 C   0  0  0  0  0  0  0  0  0  0  0  0
   24.3648    8.0524   30.4081 C   0  0  0  0  0  0  0  0  0  0  0  0
   26.9870   11.4687   30.6303 O   0  0  0  0  0  0  0  0  0  0  0  0
   24.7718    9.3818   27.1296 O   0  0  0  0  0  0  0  0  0  0  0  0
   33.9302    9.0916   26.9376 C   0  0  0  0  0  0  0  0  0  0  0  0
   34.6317    9.0764   28.1285 F   0  0  0  0  0  0  0  0  0  0  0  0
   33.9053    7.8110   26.4124 F   0  0  0  0  0  0  0  0  0  0  0  0
   34.5859    9.9147   26.0383 F   0  0  0  0  0  0  0  0  0  0  0  0
   29.4701    8.4439   28.1398 H   0  0  0  0  0  0  0  0  0  0  0  0
   31.7144    7.6342   27.6415 H   0  0  0  0  0  0  0  0  0  0  0  0
   33.0218   11.6812   26.9161 H   0  0  0  0  0  0  0  0  0  0  0  0
   30.7697   12.4968   27.3945 H   0  0  0  0  0  0  0  0  0  0  0  0
   27.4676    9.3316   27.3975 H   0  0  0  0  0  0  0  0  0  0  0  0
   24.2133   11.9420   30.5808 H   0  0  0  0  0  0  0  0  0  0  0  0
   25.0429   10.5262   32.5805 H   0  0  0  0  0  0  0  0  0  0  0  0
   22.4319   10.9456   32.3439 H   0  0  0  0  0  0  0  0  0  0  0  0
   21.2950    9.8387   30.5508 H   0  0  0  0  0  0  0  0  0  0  0  0
   22.7452    8.2907   28.9542 H   0  0  0  0  0  0  0  0  0  0  0  0
   23.0884   10.8517   28.8142 H   0  0  0  0  0  0  0  0  0  0  0  0
   21.2524    8.8162   32.8074 H   0  0  0  0  0  0  0  0  0  0  0  0
   22.8302    7.7855   32.4431 H   0  0  0  0  0  0  0  0  0  0  0  0
   25.8184    8.2088   31.9594 H   0  0  0  0  0  0  0  0  0  0  0  0
   24.6295    7.0520   30.0826 H   0  0  0  0  0  0  0  0  0  0  0  0
  4  5  2  0
  5  6  1  0
  6  7  2  0
  2  7  1  0
  1  8  2  0
  1  9  1  0
 10 11  1  0
 11 12  1  0
 13 12  1  0
 14 13  1  0
 14 15  1  0
 16 15  1  0
 17 16  1  0
 17 18  1  0
 18 10  1  0
 18 13  1  0
 15 19  1  0
 16 19  1  0
 20 21  2  0
 14 20  1  0
 17 21  1  0
 12 22  2  0
 10 23  2  0
  9 11  1  0
  5 24  1  0
  1  2  1  0
 24 25  1  0
  2  3  2  0
 24 26  1  0
  3  4  1  0
 24 27  1  0
  3 28  1  0
  4 29  1  0
  6 30  1  0
  7 31  1  0
  9 32  1  0
 13 33  1  6
 14 34  1  1
 15 35  1  6
 16 36  1  6
 17 37  1  6
 18 38  1  6
 19 39  1  0
 19 40  1  0
 20 41  1  0
 21 42  1  0
M  END
> <Uni-Dock RESULT> 
ENERGY=   -4.066  LOWER_BOUND=    5.138  UPPER_BOUND=    6.472
INTER + INTRA:          -4.066
INTER:                  -4.066
INTRA:                   0.000
UNBOUND:                 0.000

$$$$

     RDKit          3D

 42 46  0  0  0  0  0  0  0  0999 V2000
   28.4696   11.7581   26.7418 C   0  0  0  0  0  0  0  0  0  0  0  0
   29.9042   11.4010   26.6250 C   0  0  0  0  0  0  0  0  0  0  0  0
   30.4359   10.3047   27.3268 C   0  0  0  0  0  0  0  0  0  0  0  0
   31.7911    9.9798   27.2160 C   0  0  0  0  0  0  0  0  0  0  0  0
   32.6409   10.7348   26.3911 C   0  0  0  0  0  0  0  0  0  0  0  0
   32.1191   11.8522   25.7189 C   0  0  0  0  0  0  0  0  0  0  0  0
   30.7645   12.1783   25.8300 C   0  0  0  0  0  0  0  0  0  0  0  0
   28.0857   12.9117   26.4060 O   0  0  0  0  0  0  0  0  0  0  0  0
   27.5040   10.7965   27.1917 N   0  0  0  0  0  0  0  0  0  0  0  0
   25.0949   10.3216   27.6372 C   0  0  0  0  0  0  0  0  0  0  0  0
   26.2246   11.1777   27.6358 N   0  0  0  0  0  0  0  0  0  0  0  0
   25.9438   12.2305   28.5483 C   0  0  0  0  0  0  0  0  0  0  0  0
   24.5615   12.1499   29.1252 C   0  0  2  0  0  0  0  0  0  0  0  0
   24.5541   12.0352   30.6828 C   0  0  1  0  0  0  0  0  0  0  0  0
   23.0448   11.8776   31.0758 C   0  0  1  0  0  0  0  0  0  0  0  0
   22.4691   10.5742   30.4565 C   0  0  1  0  0  0  0  0  0  0  0  0
   23.5820    9.8351   29.6365 C   0  0  1  0  0  0  0  0  0  0  0  0
   23.9751   10.8271   28.4965 C   0  0  2  0  0  0  0  0  0  0  0  0
   22.5528   10.7410   31.9767 C   0  0  0  0  0  0  0  0  0  0  0  0
   25.3141   10.7653   31.0439 C   0  0  0  0  0  0  0  0  0  0  0  0
   24.8162    9.6380   30.5074 C   0  0  0  0  0  0  0  0  0  0  0  0
   26.7864   13.1085   28.8737 O   0  0  0  0  0  0  0  0  0  0  0  0
   25.0452    9.2512   26.9748 O   0  0  0  0  0  0  0  0  0  0  0  0
   34.1121   10.4132   26.3113 C   0  0  0  0  0  0  0  0  0  0  0  0
   34.7817   11.0947   27.3103 F   0  0  0  0  0  0  0  0  0  0  0  0
   34.3248    9.0548   26.4712 F   0  0  0  0  0  0  0  0  0  0  0  0
   34.6289   10.7900   25.0838 F   0  0  0  0  0  0  0  0  0  0  0  0
   29.8147    9.7094   27.9830 H   0  0  0  0  0  0  0  0  0  0  0  0
   32.1763    9.1409   27.7821 H   0  0  0  0  0  0  0  0  0  0  0  0
   32.7596   12.4759   25.1080 H   0  0  0  0  0  0  0  0  0  0  0  0
   30.3897   13.0386   25.2893 H   0  0  0  0  0  0  0  0  0  0  0  0
   27.7015    9.7812   27.0459 H   0  0  0  0  0  0  0  0  0  0  0  0
   23.9743   13.0350   28.7948 H   0  0  0  0  0  0  0  0  0  0  0  0
   25.0023   12.9289   31.1662 H   0  0  0  0  0  0  0  0  0  0  0  0
   22.3635   12.7447   30.9386 H   0  0  0  0  0  0  0  0  0  0  0  0
   21.4761   10.7360   29.9844 H   0  0  0  0  0  0  0  0  0  0  0  0
   23.2088    8.8694   29.2349 H   0  0  0  0  0  0  0  0  0  0  0  0
   23.0953   11.0554   27.8550 H   0  0  0  0  0  0  0  0  0  0  0  0
   21.5712   10.9490   32.4513 H   0  0  0  0  0  0  0  0  0  0  0  0
   23.3136   10.1465   32.5201 H   0  0  0  0  0  0  0  0  0  0  0  0
   26.1883   10.7654   31.6863 H   0  0  0  0  0  0  0  0  0  0  0  0
   25.2604    8.6646   30.6867 H   0  0  0  0  0  0  0  0  0  0  0  0
  4  5  2  0
  5  6  1  0
  6  7  2  0
  2  7  1  0
  1  8  2  0
  1  9  1  0
 10 11  1  0
 11 12  1  0
 13 12  1  0
 14 13  1  0
 14 15  1  0
 16 15  1  0
 17 16  1  0
 17 18  1  0
 18 10  1  0
 18 13  1  0
 15 19  1  0
 16 19  1  0
 20 21  2  0
 14 20  1  0
 17 21  1  0
 12 22  2  0
 10 23  2  0
  9 11  1  0
  5 24  1  0
  1  2  1  0
 24 25  1  0
  2  3  2  0
 24 26  1  0
  3  4  1  0
 24 27  1  0
  3 28  1  0
  4 29  1  0
  6 30  1  0
  7 31  1  0
  9 32  1  0
 13 33  1  6
 14 34  1  1
 15 35  1  6
 16 36  1  6
 17 37  1  6
 18 38  1  6
 19 39  1  0
 19 40  1  0
 20 41  1  0
 21 42  1  0
M  END
> <Uni-Dock RESULT> 
ENERGY=   -3.934  LOWER_BOUND=    5.864  UPPER_BOUND=    7.159
INTER + INTRA:          -3.934
INTER:                  -3.934
INTRA:                   0.000
UNBOUND:                 0.000

$$$$

     RDKit          3D

 42 46  0  0  0  0  0  0  0  0999 V2000
   30.1475    8.2513   28.4549 C   0  0  0  0  0  0  0  0  0  0  0  0
   29.4023    9.4433   27.9822 C   0  0  0  0  0  0  0  0  0  0  0  0
   28.1146    9.7306   28.4682 C   0  0  0  0  0  0  0  0  0  0  0  0
   27.4170   10.8528   28.0115 C   0  0  0  0  0  0  0  0  0  0  0  0
   27.9964   11.7191   27.0699 C   0  0  0  0  0  0  0  0  0  0  0  0
   29.2672   11.4127   26.5561 C   0  0  0  0  0  0  0  0  0  0  0  0
   29.9649   10.2904   27.0115 C   0  0  0  0  0  0  0  0  0  0  0  0
   31.1182    7.8149   27.7782 O   0  0  0  0  0  0  0  0  0  0  0  0
   29.8071    7.6117   29.6937 N   0  0  0  0  0  0  0  0  0  0  0  0
   30.3676    5.8080   31.3247 C   0  0  0  0  0  0  0  0  0  0  0  0
   30.2452    6.3116   30.0054 N   0  0  0  0  0  0  0  0  0  0  0  0
   30.1823    5.1861   29.1399 C   0  0  0  0  0  0  0  0  0  0  0  0
   30.3522    3.8831   29.8633 C   0  0  2  0  0  0  0  0  0  0  0  0
   29.1307    2.9248   29.6932 C   0  0  1  0  0  0  0  0  0  0  0  0
   29.4618    1.6760   30.5809 C   0  0  1  0  0  0  0  0  0  0  0  0
   29.5843    2.1015   32.0700 C   0  0  1  0  0  0  0  0  0  0  0  0
   29.3385    3.6436   32.2072 C   0  0  1  0  0  0  0  0  0  0  0  0
   30.4778    4.3137   31.3758 C   0  0  2  0  0  0  0  0  0  0  0  0
   28.4804    1.1371   31.6259 C   0  0  0  0  0  0  0  0  0  0  0  0
   27.9119    3.6457   30.2549 C   0  0  0  0  0  0  0  0  0  0  0  0
   28.0186    4.0143   31.5431 C   0  0  0  0  0  0  0  0  0  0  0  0
   29.9577    5.2746   27.9035 O   0  0  0  0  0  0  0  0  0  0  0  0
   30.3876    6.5501   32.3425 O   0  0  0  0  0  0  0  0  0  0  0  0
   27.2231   12.9010   26.5416 C   0  0  0  0  0  0  0  0  0  0  0  0
   26.4803   12.5055   25.4450 F   0  0  0  0  0  0  0  0  0  0  0  0
   26.3682   13.3981   27.5102 F   0  0  0  0  0  0  0  0  0  0  0  0
   28.0828   13.9171   26.1614 F   0  0  0  0  0  0  0  0  0  0  0  0
   27.6308    9.0780   29.1828 H   0  0  0  0  0  0  0  0  0  0  0  0
   26.4198   11.0391   28.3902 H   0  0  0  0  0  0  0  0  0  0  0  0
   29.7213   12.0405   25.7998 H   0  0  0  0  0  0  0  0  0  0  0  0
   30.9483   10.0880   26.6051 H   0  0  0  0  0  0  0  0  0  0  0  0
   29.3496    8.1789   30.4421 H   0  0  0  0  0  0  0  0  0  0  0  0
   31.2876    3.3907   29.5167 H   0  0  0  0  0  0  0  0  0  0  0  0
   28.9776    2.6328   28.6327 H   0  0  0  0  0  0  0  0  0  0  0  0
   30.2870    1.0011   30.2673 H   0  0  0  0  0  0  0  0  0  0  0  0
   30.4758    1.6567   32.5623 H   0  0  0  0  0  0  0  0  0  0  0  0
   29.3614    3.9597   33.2715 H   0  0  0  0  0  0  0  0  0  0  0  0
   31.4752    4.0334   31.7809 H   0  0  0  0  0  0  0  0  0  0  0  0
   28.6765    0.0825   31.9112 H   0  0  0  0  0  0  0  0  0  0  0  0
   27.4405    1.5184   31.6028 H   0  0  0  0  0  0  0  0  0  0  0  0
   27.0232    3.8457   29.6658 H   0  0  0  0  0  0  0  0  0  0  0  0
   27.2219    4.5325   32.0663 H   0  0  0  0  0  0  0  0  0  0  0  0
  4  5  2  0
  5  6  1  0
  6  7  2  0
  2  7  1  0
  1  8  2  0
  1  9  1  0
 10 11  1  0
 11 12  1  0
 13 12  1  0
 14 13  1  0
 14 15  1  0
 16 15  1  0
 17 16  1  0
 17 18  1  0
 18 10  1  0
 18 13  1  0
 15 19  1  0
 16 19  1  0
 20 21  2  0
 14 20  1  0
 17 21  1  0
 12 22  2  0
 10 23  2  0
  9 11  1  0
  5 24  1  0
  1  2  1  0
 24 25  1  0
  2  3  2  0
 24 26  1  0
  3  4  1  0
 24 27  1  0
  3 28  1  0
  4 29  1  0
  6 30  1  0
  7 31  1  0
  9 32  1  0
 13 33  1  6
 14 34  1  1
 15 35  1  6
 16 36  1  6
 17 37  1  6
 18 38  1  6
 19 39  1  0
 19 40  1  0
 20 41  1  0
 21 42  1  0
M  END
> <Uni-Dock RESULT> 
ENERGY=   -3.843  LOWER_BOUND=    3.055  UPPER_BOUND=    4.309
INTER + INTRA:          -3.843
INTER:                  -3.843
INTRA:                   0.000
UNBOUND:                 0.000

$$$$

     RDKit          3D

 42 46  0  0  0  0  0  0  0  0999 V2000
   26.1446    5.7260   31.5094 C   0  0  0  0  0  0  0  0  0  0  0  0
   27.1398    4.6711   31.1991 C   0  0  0  0  0  0  0  0  0  0  0  0
   28.2835    4.9587   30.4335 C   0  0  0  0  0  0  0  0  0  0  0  0
   29.2127    3.9562   30.1402 C   0  0  0  0  0  0  0  0  0  0  0  0
   29.0259    2.6483   30.6169 C   0  0  0  0  0  0  0  0  0  0  0  0
   27.8654    2.3514   31.3501 C   0  0  0  0  0  0  0  0  0  0  0  0
   26.9354    3.3529   31.6430 C   0  0  0  0  0  0  0  0  0  0  0  0
   24.9841    5.3981   31.8786 O   0  0  0  0  0  0  0  0  0  0  0  0
   26.4954    7.1157   31.4366 N   0  0  0  0  0  0  0  0  0  0  0  0
   25.7446    9.4701   31.7841 C   0  0  0  0  0  0  0  0  0  0  0  0
   25.5198    8.1282   31.3867 N   0  0  0  0  0  0  0  0  0  0  0  0
   24.3748    8.1350   30.5449 C   0  0  0  0  0  0  0  0  0  0  0  0
   23.7442    9.4910   30.4279 C   0  0  2  0  0  0  0  0  0  0  0  0
   23.6904   10.0163   28.9581 C   0  0  1  0  0  0  0  0  0  0  0  0
   23.0861   11.4591   29.0595 C   0  0  1  0  0  0  0  0  0  0  0  0
   24.0230   12.3684   29.9017 C   0  0  1  0  0  0  0  0  0  0  0  0
   25.2718   11.5509   30.3809 C   0  0  1  0  0  0  0  0  0  0  0  0
   24.6941   10.4154   31.2836 C   0  0  2  0  0  0  0  0  0  0  0  0
   23.7679   12.6737   28.4227 C   0  0  0  0  0  0  0  0  0  0  0  0
   25.1264   10.0951   28.4558 C   0  0  0  0  0  0  0  0  0  0  0  0
   25.9369   10.8813   29.1851 C   0  0  0  0  0  0  0  0  0  0  0  0
   23.9649    7.1182   29.9245 O   0  0  0  0  0  0  0  0  0  0  0  0
   26.7266    9.8202   32.4915 O   0  0  0  0  0  0  0  0  0  0  0  0
   30.0032    1.5574   30.2581 C   0  0  0  0  0  0  0  0  0  0  0  0
   29.6200    0.9780   29.0630 F   0  0  0  0  0  0  0  0  0  0  0  0
   31.2811    2.0717   30.1208 F   0  0  0  0  0  0  0  0  0  0  0  0
   30.0325    0.5843   31.2422 F   0  0  0  0  0  0  0  0  0  0  0  0
   28.4530    5.9511   30.0370 H   0  0  0  0  0  0  0  0  0  0  0  0
   30.0749    4.2029   29.5334 H   0  0  0  0  0  0  0  0  0  0  0  0
   27.6755    1.3430   31.6959 H   0  0  0  0  0  0  0  0  0  0  0  0
   26.0567    3.0951   32.2212 H   0  0  0  0  0  0  0  0  0  0  0  0
   27.4941    7.3890   31.5739 H   0  0  0  0  0  0  0  0  0  0  0  0
   22.7241    9.4603   30.8705 H   0  0  0  0  0  0  0  0  0  0  0  0
   23.0674    9.3662   28.3082 H   0  0  0  0  0  0  0  0  0  0  0  0
   22.0191   11.5725   29.3486 H   0  0  0  0  0  0  0  0  0  0  0  0
   23.4629   12.9739   30.6465 H   0  0  0  0  0  0  0  0  0  0  0  0
   25.9854   12.1975   30.9341 H   0  0  0  0  0  0  0  0  0  0  0  0
   24.1449   10.8452   32.1504 H   0  0  0  0  0  0  0  0  0  0  0  0
   23.0807   13.5304   28.2624 H   0  0  0  0  0  0  0  0  0  0  0  0
   24.5930   12.4867   27.7073 H   0  0  0  0  0  0  0  0  0  0  0  0
   25.4723    9.5623   27.5764 H   0  0  0  0  0  0  0  0  0  0  0  0
   26.9825   11.0273   28.9354 H   0  0  0  0  0  0  0  0  0  0  0  0
  4  5  2  0
  5  6  1  0
  6  7  2  0
  2  7  1  0
  1  8  2  0
  1  9  1  0
 10 11  1  0
 11 12  1  0
 13 12  1  0
 14 13  1  0
 14 15  1  0
 16 15  1  0
 17 16  1  0
 17 18  1  0
 18 10  1  0
 18 13  1  0
 15 19  1  0
 16 19  1  0
 20 21  2  0
 14 20  1  0
 17 21  1  0
 12 22  2  0
 10 23  2  0
  9 11  1  0
  5 24  1  0
  1  2  1  0
 24 25  1  0
  2  3  2  0
 24 26  1  0
  3  4  1  0
 24 27  1  0
  3 28  1  0
  4 29  1  0
  6 30  1  0
  7 31  1  0
  9 32  1  0
 13 33  1  6
 14 34  1  1
 15 35  1  6
 16 36  1  6
 17 37  1  6
 18 38  1  6
 19 39  1  0
 19 40  1  0
 20 41  1  0
 21 42  1  0
M  END
> <Uni-Dock RESULT> 
ENERGY=   -3.826  LOWER_BOUND=    6.368  UPPER_BOUND=    9.327
INTER + INTRA:          -3.826
INTER:                  -3.826
INTRA:                   0.000
UNBOUND:                 0.000

$$$$

     RDKit          3D

 42 46  0  0  0  0  0  0  0  0999 V2000
   29.0216    6.8147   30.9696 C   0  0  0  0  0  0  0  0  0  0  0  0
   29.2739    5.3540   30.9207 C   0  0  0  0  0  0  0  0  0  0  0  0
   28.6949    4.5533   29.9205 C   0  0  0  0  0  0  0  0  0  0  0  0
   28.9330    3.1761   29.8866 C   0  0  0  0  0  0  0  0  0  0  0  0
   29.7654    2.5718   30.8430 C   0  0  0  0  0  0  0  0  0  0  0  0
   30.3141    3.3646   31.8644 C   0  0  0  0  0  0  0  0  0  0  0  0
   30.0759    4.7414   31.8995 C   0  0  0  0  0  0  0  0  0  0  0  0
   29.2439    7.4497   32.0363 O   0  0  0  0  0  0  0  0  0  0  0  0
   28.5679    7.5243   29.8076 N   0  0  0  0  0  0  0  0  0  0  0  0
   27.9724    9.7400   28.8260 C   0  0  0  0  0  0  0  0  0  0  0  0
   28.0002    8.8087   29.8941 N   0  0  0  0  0  0  0  0  0  0  0  0
   26.9964    9.2107   30.8163 C   0  0  0  0  0  0  0  0  0  0  0  0
   26.3215   10.4914   30.4233 C   0  0  2  0  0  0  0  0  0  0  0  0
   24.7801   10.3354   30.2258 C   0  0  1  0  0  0  0  0  0  0  0  0
   24.2839   11.7412   29.7413 C   0  0  1  0  0  0  0  0  0  0  0  0
   24.9478   12.0986   28.3829 C   0  0  1  0  0  0  0  0  0  0  0  0
   25.9018   10.9390   27.9328 C   0  0  1  0  0  0  0  0  0  0  0  0
   26.9954   10.8561   29.0442 C   0  0  2  0  0  0  0  0  0  0  0  0
   23.4306   11.9133   28.4812 C   0  0  0  0  0  0  0  0  0  0  0  0
   24.5699    9.3078   29.1210 C   0  0  0  0  0  0  0  0  0  0  0  0
   25.1450    9.6170   27.9461 C   0  0  0  0  0  0  0  0  0  0  0  0
   26.6755    8.5345   31.8296 O   0  0  0  0  0  0  0  0  0  0  0  0
   28.7033    9.6345   27.8053 O   0  0  0  0  0  0  0  0  0  0  0  0
   29.9812    1.0794   30.8345 C   0  0  0  0  0  0  0  0  0  0  0  0
   28.9910    0.4721   31.5839 F   0  0  0  0  0  0  0  0  0  0  0  0
   29.9351    0.5863   29.5418 F   0  0  0  0  0  0  0  0  0  0  0  0
   31.2152    0.7609   31.3748 F   0  0  0  0  0  0  0  0  0  0  0  0
   28.0366    4.9814   29.1761 H   0  0  0  0  0  0  0  0  0  0  0  0
   28.4594    2.5818   29.1152 H   0  0  0  0  0  0  0  0  0  0  0  0
   30.9268    2.9192   32.6380 H   0  0  0  0  0  0  0  0  0  0  0  0
   30.5235    5.3275   32.6926 H   0  0  0  0  0  0  0  0  0  0  0  0
   28.8002    7.1421   28.8637 H   0  0  0  0  0  0  0  0  0  0  0  0
   26.5419   11.2708   31.1858 H   0  0  0  0  0  0  0  0  0  0  0  0
   24.2705   10.0329   31.1649 H   0  0  0  0  0  0  0  0  0  0  0  0
   24.3060   12.5914   30.4565 H   0  0  0  0  0  0  0  0  0  0  0  0
   25.3290   13.1422   28.3630 H   0  0  0  0  0  0  0  0  0  0  0  0
   26.3409   11.1465   26.9341 H   0  0  0  0  0  0  0  0  0  0  0  0
   27.5491   11.8179   29.1216 H   0  0  0  0  0  0  0  0  0  0  0  0
   22.8681   12.8698   28.4578 H   0  0  0  0  0  0  0  0  0  0  0  0
   22.9912   11.0034   28.0268 H   0  0  0  0  0  0  0  0  0  0  0  0
   23.9987    8.3970   29.2656 H   0  0  0  0  0  0  0  0  0  0  0  0
   25.0702    8.9732   27.0762 H   0  0  0  0  0  0  0  0  0  0  0  0
  4  5  2  0
  5  6  1  0
  6  7  2  0
  2  7  1  0
  1  8  2  0
  1  9  1  0
 10 11  1  0
 11 12  1  0
 13 12  1  0
 14 13  1  0
 14 15  1  0
 16 15  1  0
 17 16  1  0
 17 18  1  0
 18 10  1  0
 18 13  1  0
 15 19  1  0
 16 19  1  0
 20 21  2  0
 14 20  1  0
 17 21  1  0
 12 22  2  0
 10 23  2  0
  9 11  1  0
  5 24  1  0
  1  2  1  0
 24 25  1  0
  2  3  2  0
 24 26  1  0
  3  4  1  0
 24 27  1  0
  3 28  1  0
  4 29  1  0
  6 30  1  0
  7 31  1  0
  9 32  1  0
 13 33  1  6
 14 34  1  1
 15 35  1  6
 16 36  1  6
 17 37  1  6
 18 38  1  6
 19 39  1  0
 19 40  1  0
 20 41  1  0
 21 42  1  0
M  END
> <Uni-Dock RESULT> 
ENERGY=   -3.796  LOWER_BOUND=    5.826  UPPER_BOUND=    8.778
INTER + INTRA:          -3.796
INTER:                  -3.796
INTRA:                   0.000
UNBOUND:                 0.000

$$$$

     RDKit          3D

 42 46  0  0  0  0  0  0  0  0999 V2000
   26.7401   12.5182   26.3105 C   0  0  0  0  0  0  0  0  0  0  0  0
   25.9464   11.7319   27.2859 C   0  0  0  0  0  0  0  0  0  0  0  0
   25.8556   10.3326   27.1833 C   0  0  0  0  0  0  0  0  0  0  0  0
   25.0994    9.6004   28.1033 C   0  0  0  0  0  0  0  0  0  0  0  0
   24.4290   10.2492   29.1532 C   0  0  0  0  0  0  0  0  0  0  0  0
   24.4884   11.6501   29.2347 C   0  0  0  0  0  0  0  0  0  0  0  0
   25.2435   12.3830   28.3147 C   0  0  0  0  0  0  0  0  0  0  0  0
   26.5362   13.7577   26.1969 O   0  0  0  0  0  0  0  0  0  0  0  0
   27.7669   11.8972   25.5234 N   0  0  0  0  0  0  0  0  0  0  0  0
   29.5753   12.2235   23.8350 C   0  0  0  0  0  0  0  0  0  0  0  0
   28.2950   12.5092   24.3719 N   0  0  0  0  0  0  0  0  0  0  0  0
   27.5366   13.1086   23.3301 C   0  0  0  0  0  0  0  0  0  0  0  0
   28.3327   13.3215   22.0767 C   0  0  2  0  0  0  0  0  0  0  0  0
   27.7331   12.5830   20.8380 C   0  0  1  0  0  0  0  0  0  0  0  0
   28.7416   12.8560   19.6694 C   0  0  1  0  0  0  0  0  0  0  0  0
   30.1295   12.2490   20.0140 C   0  0  1  0  0  0  0  0  0  0  0  0
   30.0767   11.5588   21.4205 C   0  0  1  0  0  0  0  0  0  0  0  0
   29.7429   12.7063   22.4256 C   0  0  2  0  0  0  0  0  0  0  0  0
   29.3275   11.7250   18.8190 C   0  0  0  0  0  0  0  0  0  0  0  0
   27.7173   11.0953   21.1656 C   0  0  0  0  0  0  0  0  0  0  0  0
   28.9182   10.5706   21.4644 C   0  0  0  0  0  0  0  0  0  0  0  0
   26.3121   13.3848   23.4353 O   0  0  0  0  0  0  0  0  0  0  0  0
   30.4751   11.6299   24.4869 O   0  0  0  0  0  0  0  0  0  0  0  0
   23.5737    9.4634   30.1150 C   0  0  0  0  0  0  0  0  0  0  0  0
   22.2923    9.3621   29.6065 F   0  0  0  0  0  0  0  0  0  0  0  0
   24.0878    8.1914   30.2991 F   0  0  0  0  0  0  0  0  0  0  0  0
   23.5215   10.0909   31.3477 F   0  0  0  0  0  0  0  0  0  0  0  0
   26.3464    9.8002   26.3792 H   0  0  0  0  0  0  0  0  0  0  0  0
   25.0332    8.5256   27.9890 H   0  0  0  0  0  0  0  0  0  0  0  0
   23.9488   12.1800   30.0096 H   0  0  0  0  0  0  0  0  0  0  0  0
   25.2797   13.4611   28.4117 H   0  0  0  0  0  0  0  0  0  0  0  0
   28.2368   11.0421   25.8962 H   0  0  0  0  0  0  0  0  0  0  0  0
   28.4190   14.4127   21.8782 H   0  0  0  0  0  0  0  0  0  0  0  0
   26.7176   12.9546   20.5854 H   0  0  0  0  0  0  0  0  0  0  0  0
   28.8229   13.8874   19.2637 H   0  0  0  0  0  0  0  0  0  0  0  0
   30.9619   12.9518   19.7948 H   0  0  0  0  0  0  0  0  0  0  0  0
   31.0420   11.0652   21.6609 H   0  0  0  0  0  0  0  0  0  0  0  0
   30.5301   13.4921   22.3985 H   0  0  0  0  0  0  0  0  0  0  0  0
   29.7212   12.0691   17.8400 H   0  0  0  0  0  0  0  0  0  0  0  0
   28.8670   10.7212   18.9067 H   0  0  0  0  0  0  0  0  0  0  0  0
   26.8101   10.5005   21.1568 H   0  0  0  0  0  0  0  0  0  0  0  0
   29.0479    9.5227   21.7136 H   0  0  0  0  0  0  0  0  0  0  0  0
  4  5  2  0
  5  6  1  0
  6  7  2  0
  2  7  1  0
  1  8  2  0
  1  9  1  0
 10 11  1  0
 11 12  1  0
 13 12  1  0
 14 13  1  0
 14 15  1  0
 16 15  1  0
 17 16  1  0
 17 18  1  0
 18 10  1  0
 18 13  1  0
 15 19  1  0
 16 19  1  0
 20 21  2  0
 14 20  1  0
 17 21  1  0
 12 22  2  0
 10 23  2  0
  9 11  1  0
  5 24  1  0
  1  2  1  0
 24 25  1  0
  2  3  2  0
 24 26  1  0
  3  4  1  0
 24 27  1  0
  3 28  1  0
  4 29  1  0
  6 30  1  0
  7 31  1  0
  9 32  1  0
 13 33  1  6
 14 34  1  1
 15 35  1  6
 16 36  1  6
 17 37  1  6
 18 38  1  6
 19 39  1  0
 19 40  1  0
 20 41  1  0
 21 42  1  0
M  END
> <Uni-Dock RESULT> 
ENERGY=   -3.741  LOWER_BOUND=    8.093  UPPER_BOUND=   11.119
INTER + INTRA:          -3.741
INTER:                  -3.741
INTRA:                   0.000
UNBOUND:                 0.000

$$$$
