
     RDKit          3D

 42 46  0  0  0  0  0  0  0  0999 V2000
   29.2727    9.6827   28.0971 C   0  0  0  0  0  0  0  0  0  0  0  0
   30.5020   10.1696   27.4252 C   0  0  0  0  0  0  0  0  0  0  0  0
   31.7223    9.4963   27.6096 C   0  0  0  0  0  0  0  0  0  0  0  0
   32.8872    9.9512   26.9852 C   0  0  0  0  0  0  0  0  0  0  0  0
   32.8628   11.1041   26.1835 C   0  0  0  0  0  0  0  0  0  0  0  0
   31.6413   11.7683   25.9848 C   0  0  0  0  0  0  0  0  0  0  0  0
   30.4755   11.3135   26.6081 C   0  0  0  0  0  0  0  0  0  0  0  0
   29.3696    8.8933   29.0760 O   0  0  0  0  0  0  0  0  0  0  0  0
   27.9725   10.0636   27.6241 N   0  0  0  0  0  0  0  0  0  0  0  0
   26.6926   10.3021   29.7772 C   0  0  0  0  0  0  0  0  0  0  0  0
   26.8190    9.9145   28.4159 N   0  0  0  0  0  0  0  0  0  0  0  0
   25.5047    9.8093   27.8956 C   0  0  0  0  0  0  0  0  0  0  0  0
   24.4432   10.0431   28.9281 C   0  0  2  0  0  0  0  0  0  0  0  0
   23.5009   11.2380   28.5782 C   0  0  1  0  0  0  0  0  0  0  0  0
   22.5301   11.3658   29.8023 C   0  0  1  0  0  0  0  0  0  0  0  0
   23.3382   11.6986   31.0868 C   0  0  1  0  0  0  0  0  0  0  0  0
   24.8651   11.8007   30.7468 C   0  0  1  0  0  0  0  0  0  0  0  0
   25.2652   10.3817   30.2314 C   0  0  2  0  0  0  0  0  0  0  0  0
   22.3131   12.6935   30.5345 C   0  0  0  0  0  0  0  0  0  0  0  0
   24.3714   12.4842   28.4806 C   0  0  0  0  0  0  0  0  0  0  0  0
   25.0701   12.7729   29.5920 C   0  0  0  0  0  0  0  0  0  0  0  0
   25.2648    9.5396   26.6886 O   0  0  0  0  0  0  0  0  0  0  0  0
   27.6756   10.5955   30.5083 O   0  0  0  0  0  0  0  0  0  0  0  0
   34.1089   11.5663   25.4708 C   0  0  0  0  0  0  0  0  0  0  0  0
   34.0845   12.9373   25.2826 F   0  0  0  0  0  0  0  0  0  0  0  0
   34.1858   10.9438   24.2390 F   0  0  0  0  0  0  0  0  0  0  0  0
   35.2384   11.2513   26.2066 F   0  0  0  0  0  0  0  0  0  0  0  0
   31.7745    8.6075   28.2261 H   0  0  0  0  0  0  0  0  0  0  0  0
   33.8076    9.3991   27.1282 H   0  0  0  0  0  0  0  0  0  0  0  0
   31.5875   12.6433   25.3490 H   0  0  0  0  0  0  0  0  0  0  0  0
   29.5598   11.8700   26.4583 H   0  0  0  0  0  0  0  0  0  0  0  0
   27.8593   10.3168   26.6171 H   0  0  0  0  0  0  0  0  0  0  0  0
   23.8557    9.1087   29.0678 H   0  0  0  0  0  0  0  0  0  0  0  0
   22.9380   11.0601   27.6376 H   0  0  0  0  0  0  0  0  0  0  0  0
   21.7785   10.5655   29.9741 H   0  0  0  0  0  0  0  0  0  0  0  0
   23.0241   11.0783   31.9537 H   0  0  0  0  0  0  0  0  0  0  0  0
   25.4548   12.0991   31.6393 H   0  0  0  0  0  0  0  0  0  0  0  0
   25.0875    9.6149   31.0176 H   0  0  0  0  0  0  0  0  0  0  0  0
   21.3704   12.7245   31.1196 H   0  0  0  0  0  0  0  0  0  0  0  0
   22.6953   13.6160   30.0548 H   0  0  0  0  0  0  0  0  0  0  0  0
   24.4238   13.0969   27.5868 H   0  0  0  0  0  0  0  0  0  0  0  0
   25.7261   13.6345   29.6577 H   0  0  0  0  0  0  0  0  0  0  0  0
  4  5  2  0
  5  6  1  0
  6  7  2  0
  2  7  1  0
  1  8  2  0
  1  9  1  0
 10 11  1  0
 11 12  1  0
 13 12  1  0
 14 13  1  0
 14 15  1  0
 16 15  1  0
 17 16  1  0
 17 18  1  0
 18 10  1  0
 18 13  1  0
 15 19  1  0
 16 19  1  0
 20 21  2  0
 14 20  1  0
 17 21  1  0
 12 22  2  0
 10 23  2  0
  9 11  1  0
  5 24  1  0
  1  2  1  0
 24 25  1  0
  2  3  2  0
 24 26  1  0
  3  4  1  0
 24 27  1  0
  3 28  1  0
  4 29  1  0
  6 30  1  0
  7 31  1  0
  9 32  1  0
 13 33  1  6
 14 34  1  1
 15 35  1  6
 16 36  1  6
 17 37  1  6
 18 38  1  6
 19 39  1  0
 19 40  1  0
 20 41  1  0
 21 42  1  0
M  END
> <Uni-Dock RESULT> 
ENERGY=   -4.364  LOWER_BOUND=    0.000  UPPER_BOUND=    0.000
INTER + INTRA:          -4.364
INTER:                  -4.364
INTRA:                   0.000
UNBOUND:                 0.000

$$$$

     RDKit          3D

 42 46  0  0  0  0  0  0  0  0999 V2000
   26.5952    5.8704   32.0169 C   0  0  0  0  0  0  0  0  0  0  0  0
   27.3570    4.6146   31.8117 C   0  0  0  0  0  0  0  0  0  0  0  0
   27.8324    3.8876   32.9171 C   0  0  0  0  0  0  0  0  0  0  0  0
   28.5564    2.7061   32.7333 C   0  0  0  0  0  0  0  0  0  0  0  0
   28.8431    2.2394   31.4401 C   0  0  0  0  0  0  0  0  0  0  0  0
   28.3548    2.9556   30.3350 C   0  0  0  0  0  0  0  0  0  0  0  0
   27.6298    4.1368   30.5178 C   0  0  0  0  0  0  0  0  0  0  0  0
   26.6563    6.4606   33.1299 O   0  0  0  0  0  0  0  0  0  0  0  0
   25.7560    6.4027   30.9815 N   0  0  0  0  0  0  0  0  0  0  0  0
   26.1021    8.8789   31.2626 C   0  0  0  0  0  0  0  0  0  0  0  0
   25.3015    7.7340   31.0023 N   0  0  0  0  0  0  0  0  0  0  0  0
   24.1414    8.1895   30.3271 C   0  0  0  0  0  0  0  0  0  0  0  0
   24.0894    9.6814   30.1888 C   0  0  2  0  0  0  0  0  0  0  0  0
   24.0247   10.1570   28.7029 C   0  0  1  0  0  0  0  0  0  0  0  0
   24.0598   11.7226   28.7722 C   0  0  1  0  0  0  0  0  0  0  0  0
   25.3943   12.1947   29.4127 C   0  0  1  0  0  0  0  0  0  0  0  0
   26.2781   10.9542   29.7834 C   0  0  1  0  0  0  0  0  0  0  0  0
   25.4453   10.1592   30.8386 C   0  0  2  0  0  0  0  0  0  0  0  0
   25.0603   12.5515   27.9612 C   0  0  0  0  0  0  0  0  0  0  0  0
   25.2817    9.6451   28.0113 C   0  0  0  0  0  0  0  0  0  0  0  0
   26.4365   10.0540   28.5646 C   0  0  0  0  0  0  0  0  0  0  0  0
   23.2485    7.4116   29.8974 O   0  0  0  0  0  0  0  0  0  0  0  0
   27.2612    8.8173   31.7520 O   0  0  0  0  0  0  0  0  0  0  0  0
   29.5817    0.9394   31.2427 C   0  0  0  0  0  0  0  0  0  0  0  0
   30.2918    0.9560   30.0547 F   0  0  0  0  0  0  0  0  0  0  0  0
   28.6714   -0.1003   31.2088 F   0  0  0  0  0  0  0  0  0  0  0  0
   30.4754    0.7228   32.2773 F   0  0  0  0  0  0  0  0  0  0  0  0
   27.6321    4.2244   33.9267 H   0  0  0  0  0  0  0  0  0  0  0  0
   28.8904    2.1561   33.6041 H   0  0  0  0  0  0  0  0  0  0  0  0
   28.5365    2.6038   29.3271 H   0  0  0  0  0  0  0  0  0  0  0  0
   27.2981    4.6791   29.6423 H   0  0  0  0  0  0  0  0  0  0  0  0
   25.3518    5.7465   30.2765 H   0  0  0  0  0  0  0  0  0  0  0  0
   23.2208   10.0726   30.7635 H   0  0  0  0  0  0  0  0  0  0  0  0
   23.1054    9.7993   28.1929 H   0  0  0  0  0  0  0  0  0  0  0  0
   23.1805   12.2588   29.1896 H   0  0  0  0  0  0  0  0  0  0  0  0
   25.2371   12.9863   30.1766 H   0  0  0  0  0  0  0  0  0  0  0  0
   27.2634   11.2708   30.1860 H   0  0  0  0  0  0  0  0  0  0  0  0
   25.2503   10.7860   31.7367 H   0  0  0  0  0  0  0  0  0  0  0  0
   24.7501   13.6089   27.8281 H   0  0  0  0  0  0  0  0  0  0  0  0
   25.6265   12.0376   27.1596 H   0  0  0  0  0  0  0  0  0  0  0  0
   25.2525    9.0032   27.1372 H   0  0  0  0  0  0  0  0  0  0  0  0
   27.4042    9.7648   28.1685 H   0  0  0  0  0  0  0  0  0  0  0  0
  4  5  2  0
  5  6  1  0
  6  7  2  0
  2  7  1  0
  1  8  2  0
  1  9  1  0
 10 11  1  0
 11 12  1  0
 13 12  1  0
 14 13  1  0
 14 15  1  0
 16 15  1  0
 17 16  1  0
 17 18  1  0
 18 10  1  0
 18 13  1  0
 15 19  1  0
 16 19  1  0
 20 21  2  0
 14 20  1  0
 17 21  1  0
 12 22  2  0
 10 23  2  0
  9 11  1  0
  5 24  1  0
  1  2  1  0
 24 25  1  0
  2  3  2  0
 24 26  1  0
  3  4  1  0
 24 27  1  0
  3 28  1  0
  4 29  1  0
  6 30  1  0
  7 31  1  0
  9 32  1  0
 13 33  1  6
 14 34  1  1
 15 35  1  6
 16 36  1  6
 17 37  1  6
 18 38  1  6
 19 39  1  0
 19 40  1  0
 20 41  1  0
 21 42  1  0
M  END
> <Uni-Dock RESULT> 
ENERGY=   -4.008  LOWER_BOUND=    6.202  UPPER_BOUND=    7.361
INTER + INTRA:          -4.008
INTER:                  -4.008
INTRA:                   0.000
UNBOUND:                 0.000

$$$$

     RDKit          3D

 42 46  0  0  0  0  0  0  0  0999 V2000
   31.6875   12.3458   23.0700 C   0  0  0  0  0  0  0  0  0  0  0  0
   32.7245   13.3925   23.2392 C   0  0  0  0  0  0  0  0  0  0  0  0
   33.2786   13.6402   24.5073 C   0  0  0  0  0  0  0  0  0  0  0  0
   34.2520   14.6287   24.6775 C   0  0  0  0  0  0  0  0  0  0  0  0
   34.6743   15.4087   23.5886 C   0  0  0  0  0  0  0  0  0  0  0  0
   34.1339   15.1514   22.3179 C   0  0  0  0  0  0  0  0  0  0  0  0
   33.1609   14.1623   22.1465 C   0  0  0  0  0  0  0  0  0  0  0  0
   31.0661   11.9163   24.0801 O   0  0  0  0  0  0  0  0  0  0  0  0
   31.4091   11.7840   21.7791 N   0  0  0  0  0  0  0  0  0  0  0  0
   28.9160   11.4624   21.8861 C   0  0  0  0  0  0  0  0  0  0  0  0
   30.2295   11.0624   21.5198 N   0  0  0  0  0  0  0  0  0  0  0  0
   30.0928   10.1071   20.4815 C   0  0  0  0  0  0  0  0  0  0  0  0
   28.6641    9.7713   20.1759 C   0  0  2  0  0  0  0  0  0  0  0  0
   28.2650   10.0793   18.6980 C   0  0  1  0  0  0  0  0  0  0  0  0
   26.7370    9.7412   18.6076 C   0  0  1  0  0  0  0  0  0  0  0  0
   25.9332   10.6618   19.5668 C   0  0  1  0  0  0  0  0  0  0  0  0
   26.9077   11.6341   20.3168 C   0  0  1  0  0  0  0  0  0  0  0  0
   27.8491   10.7075   21.1499 C   0  0  2  0  0  0  0  0  0  0  0  0
   25.7141   10.7370   18.0529 C   0  0  0  0  0  0  0  0  0  0  0  0
   28.4749   11.5717   18.4766 C   0  0  0  0  0  0  0  0  0  0  0  0
   27.7790   12.3686   19.3058 C   0  0  0  0  0  0  0  0  0  0  0  0
   31.0785    9.5943   19.8878 O   0  0  0  0  0  0  0  0  0  0  0  0
   28.6769   12.3883   22.7062 O   0  0  0  0  0  0  0  0  0  0  0  0
   35.7595   16.4413   23.7628 C   0  0  0  0  0  0  0  0  0  0  0  0
   35.6064   17.4703   22.8499 F   0  0  0  0  0  0  0  0  0  0  0  0
   36.9908   15.8446   23.5668 F   0  0  0  0  0  0  0  0  0  0  0  0
   35.7187   16.9835   25.0358 F   0  0  0  0  0  0  0  0  0  0  0  0
   32.9698   13.0592   25.3675 H   0  0  0  0  0  0  0  0  0  0  0  0
   34.6764   14.7815   25.6619 H   0  0  0  0  0  0  0  0  0  0  0  0
   34.4615   15.7181   21.4553 H   0  0  0  0  0  0  0  0  0  0  0  0
   32.7436   14.0149   21.1592 H   0  0  0  0  0  0  0  0  0  0  0  0
   32.1658   11.7820   21.0591 H   0  0  0  0  0  0  0  0  0  0  0  0
   28.4797    8.7009   20.4166 H   0  0  0  0  0  0  0  0  0  0  0  0
   28.8524    9.4741   17.9755 H   0  0  0  0  0  0  0  0  0  0  0  0
   26.4196    8.6788   18.6805 H   0  0  0  0  0  0  0  0  0  0  0  0
   25.1808   10.0976   20.1588 H   0  0  0  0  0  0  0  0  0  0  0  0
   26.3473   12.3434   20.9619 H   0  0  0  0  0  0  0  0  0  0  0  0
   27.2615   10.1023   21.8752 H   0  0  0  0  0  0  0  0  0  0  0  0
   24.7694   10.2584   17.7206 H   0  0  0  0  0  0  0  0  0  0  0  0
   26.0984   11.6285   17.5191 H   0  0  0  0  0  0  0  0  0  0  0  0
   29.1313   11.9659   17.7081 H   0  0  0  0  0  0  0  0  0  0  0  0
   27.8347   13.4507   19.2534 H   0  0  0  0  0  0  0  0  0  0  0  0
  4  5  2  0
  5  6  1  0
  6  7  2  0
  2  7  1  0
  1  8  2  0
  1  9  1  0
 10 11  1  0
 11 12  1  0
 13 12  1  0
 14 13  1  0
 14 15  1  0
 16 15  1  0
 17 16  1  0
 17 18  1  0
 18 10  1  0
 18 13  1  0
 15 19  1  0
 16 19  1  0
 20 21  2  0
 14 20  1  0
 17 21  1  0
 12 22  2  0
 10 23  2  0
  9 11  1  0
  5 24  1  0
  1  2  1  0
 24 25  1  0
  2  3  2  0
 24 26  1  0
  3  4  1  0
 24 27  1  0
  3 28  1  0
  4 29  1  0
  6 30  1  0
  7 31  1  0
  9 32  1  0
 13 33  1  6
 14 34  1  1
 15 35  1  6
 16 36  1  6
 17 37  1  6
 18 38  1  6
 19 39  1  0
 19 40  1  0
 20 41  1  0
 21 42  1  0
M  END
> <Uni-Dock RESULT> 
ENERGY=   -3.971  LOWER_BOUND=    7.171  UPPER_BOUND=    8.372
INTER + INTRA:          -3.971
INTER:                  -3.971
INTRA:                   0.000
UNBOUND:                 0.000

$$$$

     RDKit          3D

 42 46  0  0  0  0  0  0  0  0999 V2000
   25.7428    3.7557   32.1277 C   0  0  0  0  0  0  0  0  0  0  0  0
   26.9895    3.0314   31.7803 C   0  0  0  0  0  0  0  0  0  0  0  0
   27.4377    1.9694   32.5850 C   0  0  0  0  0  0  0  0  0  0  0  0
   28.6147    1.2849   32.2688 C   0  0  0  0  0  0  0  0  0  0  0  0
   29.3829    1.6638   31.1558 C   0  0  0  0  0  0  0  0  0  0  0  0
   28.9279    2.7138   30.3414 C   0  0  0  0  0  0  0  0  0  0  0  0
   27.7504    3.3984   30.6562 C   0  0  0  0  0  0  0  0  0  0  0  0
   25.2700    3.6573   33.2929 O   0  0  0  0  0  0  0  0  0  0  0  0
   25.0429    4.5340   31.1459 N   0  0  0  0  0  0  0  0  0  0  0  0
   24.2253    6.4773   32.5191 C   0  0  0  0  0  0  0  0  0  0  0  0
   24.0776    5.4924   31.5055 N   0  0  0  0  0  0  0  0  0  0  0  0
   23.0413    5.9388   30.6476 C   0  0  0  0  0  0  0  0  0  0  0  0
   22.3980    7.2098   31.1148 C   0  0  2  0  0  0  0  0  0  0  0  0
   22.5085    8.3701   30.0757 C   0  0  1  0  0  0  0  0  0  0  0  0
   21.8585    9.6118   30.7778 C   0  0  1  0  0  0  0  0  0  0  0  0
   22.6622    9.9786   32.0558 C   0  0  1  0  0  0  0  0  0  0  0  0
   23.8660    8.9902   32.2328 C   0  0  1  0  0  0  0  0  0  0  0  0
   23.2157    7.5816   32.4117 C   0  0  2  0  0  0  0  0  0  0  0  0
   22.5798   10.9588   30.8818 C   0  0  0  0  0  0  0  0  0  0  0  0
   23.9920    8.6285   29.8454 C   0  0  0  0  0  0  0  0  0  0  0  0
   24.6876    8.9467   30.9506 C   0  0  0  0  0  0  0  0  0  0  0  0
   22.6995    5.3191   29.6054 O   0  0  0  0  0  0  0  0  0  0  0  0
   25.1399    6.4490   33.3849 O   0  0  0  0  0  0  0  0  0  0  0  0
   30.6261    0.8940   30.7869 C   0  0  0  0  0  0  0  0  0  0  0  0
   31.5322    1.7120   30.1345 F   0  0  0  0  0  0  0  0  0  0  0  0
   30.2821   -0.1528   29.9523 F   0  0  0  0  0  0  0  0  0  0  0  0
   31.2401    0.3854   31.9185 F   0  0  0  0  0  0  0  0  0  0  0  0
   26.8703    1.6570   33.4529 H   0  0  0  0  0  0  0  0  0  0  0  0
   28.9229    0.4568   32.8947 H   0  0  0  0  0  0  0  0  0  0  0  0
   29.4851    3.0087   29.4609 H   0  0  0  0  0  0  0  0  0  0  0  0
   27.4486    4.2232   30.0244 H   0  0  0  0  0  0  0  0  0  0  0  0
   25.1435    4.2784   30.1382 H   0  0  0  0  0  0  0  0  0  0  0  0
   21.3331    7.0102   31.3674 H   0  0  0  0  0  0  0  0  0  0  0  0
   21.9856    8.1276   29.1265 H   0  0  0  0  0  0  0  0  0  0  0  0
   20.7617    9.6109   30.9569 H   0  0  0  0  0  0  0  0  0  0  0  0
   22.0005   10.1763   32.9263 H   0  0  0  0  0  0  0  0  0  0  0  0
   24.4904    9.2725   33.1067 H   0  0  0  0  0  0  0  0  0  0  0  0
   22.5576    7.5650   33.3085 H   0  0  0  0  0  0  0  0  0  0  0  0
   21.8945   11.8119   31.0679 H   0  0  0  0  0  0  0  0  0  0  0  0
   23.4897   11.1060   30.2671 H   0  0  0  0  0  0  0  0  0  0  0  0
   24.4552    8.5656   28.8664 H   0  0  0  0  0  0  0  0  0  0  0  0
   25.7514    9.1582   30.9261 H   0  0  0  0  0  0  0  0  0  0  0  0
  4  5  2  0
  5  6  1  0
  6  7  2  0
  2  7  1  0
  1  8  2  0
  1  9  1  0
 10 11  1  0
 11 12  1  0
 13 12  1  0
 14 13  1  0
 14 15  1  0
 16 15  1  0
 17 16  1  0
 17 18  1  0
 18 10  1  0
 18 13  1  0
 15 19  1  0
 16 19  1  0
 20 21  2  0
 14 20  1  0
 17 21  1  0
 12 22  2  0
 10 23  2  0
  9 11  1  0
  5 24  1  0
  1  2  1  0
 24 25  1  0
  2  3  2  0
 24 26  1  0
  3  4  1  0
 24 27  1  0
  3 28  1  0
  4 29  1  0
  6 30  1  0
  7 31  1  0
  9 32  1  0
 13 33  1  6
 14 34  1  1
 15 35  1  6
 16 36  1  6
 17 37  1  6
 18 38  1  6
 19 39  1  0
 19 40  1  0
 20 41  1  0
 21 42  1  0
M  END
> <Uni-Dock RESULT> 
ENERGY=   -3.937  LOWER_BOUND=    6.936  UPPER_BOUND=    7.957
INTER + INTRA:          -3.937
INTER:                  -3.937
INTRA:                   0.000
UNBOUND:                 0.000

$$$$

     RDKit          3D

 42 46  0  0  0  0  0  0  0  0999 V2000
   30.6105    7.6553   28.9932 C   0  0  0  0  0  0  0  0  0  0  0  0
   31.5001    8.5559   28.2204 C   0  0  0  0  0  0  0  0  0  0  0  0
   30.9698    9.6797   27.5630 C   0  0  0  0  0  0  0  0  0  0  0  0
   31.7995   10.5308   26.8274 C   0  0  0  0  0  0  0  0  0  0  0  0
   33.1732   10.2626   26.7117 C   0  0  0  0  0  0  0  0  0  0  0  0
   33.7074    9.1495   27.3814 C   0  0  0  0  0  0  0  0  0  0  0  0
   32.8785    8.2983   28.1181 C   0  0  0  0  0  0  0  0  0  0  0  0
   29.3652    7.6910   28.7956 O   0  0  0  0  0  0  0  0  0  0  0  0
   31.1411    6.7727   29.9926 N   0  0  0  0  0  0  0  0  0  0  0  0
   29.6864    4.7397   29.7066 C   0  0  0  0  0  0  0  0  0  0  0  0
   30.4036    5.6831   30.4909 N   0  0  0  0  0  0  0  0  0  0  0  0
   30.6307    5.0790   31.7530 C   0  0  0  0  0  0  0  0  0  0  0  0
   29.9906    3.7295   31.8825 C   0  0  2  0  0  0  0  0  0  0  0  0
   31.0169    2.5906   32.1787 C   0  0  1  0  0  0  0  0  0  0  0  0
   30.1708    1.2711   32.1950 C   0  0  1  0  0  0  0  0  0  0  0  0
   29.5235    1.0396   30.8018 C   0  0  1  0  0  0  0  0  0  0  0  0
   29.9246    2.1992   29.8262 C   0  0  1  0  0  0  0  0  0  0  0  0
   29.3346    3.4955   30.4669 C   0  0  2  0  0  0  0  0  0  0  0  0
   30.5520    0.0487   31.3547 C   0  0  0  0  0  0  0  0  0  0  0  0
   31.9995    2.5562   31.0152 C   0  0  0  0  0  0  0  0  0  0  0  0
   31.4400    2.3552   29.8097 C   0  0  0  0  0  0  0  0  0  0  0  0
   31.2981    5.6317   32.6674 O   0  0  0  0  0  0  0  0  0  0  0  0
   29.4195    4.9123   28.4876 O   0  0  0  0  0  0  0  0  0  0  0  0
   34.0759   11.2075   25.9591 C   0  0  0  0  0  0  0  0  0  0  0  0
   35.1598   10.5298   25.4283 F   0  0  0  0  0  0  0  0  0  0  0  0
   34.5345   12.1839   26.8235 F   0  0  0  0  0  0  0  0  0  0  0  0
   33.3924   11.8119   24.9180 F   0  0  0  0  0  0  0  0  0  0  0  0
   29.9137    9.9103   27.6289 H   0  0  0  0  0  0  0  0  0  0  0  0
   31.3660   11.4009   26.3504 H   0  0  0  0  0  0  0  0  0  0  0  0
   34.7676    8.9346   27.3330 H   0  0  0  0  0  0  0  0  0  0  0  0
   33.3202    7.4324   28.5932 H   0  0  0  0  0  0  0  0  0  0  0  0
   32.0341    7.0323   30.4681 H   0  0  0  0  0  0  0  0  0  0  0  0
   29.2097    3.7688   32.6740 H   0  0  0  0  0  0  0  0  0  0  0  0
   31.5382    2.7440   33.1472 H   0  0  0  0  0  0  0  0  0  0  0  0
   29.4504    1.1085   33.0254 H   0  0  0  0  0  0  0  0  0  0  0  0
   28.4529    0.7519   30.8782 H   0  0  0  0  0  0  0  0  0  0  0  0
   29.5230    2.0211   28.8063 H   0  0  0  0  0  0  0  0  0  0  0  0
   28.2282    3.4203   30.5549 H   0  0  0  0  0  0  0  0  0  0  0  0
   30.0998   -0.8962   31.7218 H   0  0  0  0  0  0  0  0  0  0  0  0
   31.5576    0.0349   30.8900 H   0  0  0  0  0  0  0  0  0  0  0  0
   33.0695    2.6801   31.1448 H   0  0  0  0  0  0  0  0  0  0  0  0
   32.0266    2.3059   28.8985 H   0  0  0  0  0  0  0  0  0  0  0  0
  4  5  2  0
  5  6  1  0
  6  7  2  0
  2  7  1  0
  1  8  2  0
  1  9  1  0
 10 11  1  0
 11 12  1  0
 13 12  1  0
 14 13  1  0
 14 15  1  0
 16 15  1  0
 17 16  1  0
 17 18  1  0
 18 10  1  0
 18 13  1  0
 15 19  1  0
 16 19  1  0
 20 21  2  0
 14 20  1  0
 17 21  1  0
 12 22  2  0
 10 23  2  0
  9 11  1  0
  5 24  1  0
  1  2  1  0
 24 25  1  0
  2  3  2  0
 24 26  1  0
  3  4  1  0
 24 27  1  0
  3 28  1  0
  4 29  1  0
  6 30  1  0
  7 31  1  0
  9 32  1  0
 13 33  1  6
 14 34  1  1
 15 35  1  6
 16 36  1  6
 17 37  1  6
 18 38  1  6
 19 39  1  0
 19 40  1  0
 20 41  1  0
 21 42  1  0
M  END
> <Uni-Dock RESULT> 
ENERGY=   -3.894  LOWER_BOUND=    5.449  UPPER_BOUND=    7.755
INTER + INTRA:          -3.894
INTER:                  -3.894
INTRA:                   0.000
UNBOUND:                 0.000

$$$$

     RDKit          3D

 42 46  0  0  0  0  0  0  0  0999 V2000
   28.3800    8.7556   29.2892 C   0  0  0  0  0  0  0  0  0  0  0  0
   29.7848    8.7603   28.8134 C   0  0  0  0  0  0  0  0  0  0  0  0
   30.7010    7.8145   29.3057 C   0  0  0  0  0  0  0  0  0  0  0  0
   32.0283    7.8150   28.8676 C   0  0  0  0  0  0  0  0  0  0  0  0
   32.4750    8.7771   27.9472 C   0  0  0  0  0  0  0  0  0  0  0  0
   31.5570    9.7123   27.4418 C   0  0  0  0  0  0  0  0  0  0  0  0
   30.2290    9.7120   27.8787 C   0  0  0  0  0  0  0  0  0  0  0  0
   28.0856    8.1467   30.3539 O   0  0  0  0  0  0  0  0  0  0  0  0
   27.3426    9.3987   28.5346 N   0  0  0  0  0  0  0  0  0  0  0  0
   25.8904   10.3429   30.3594 C   0  0  0  0  0  0  0  0  0  0  0  0
   26.0941    9.7124   29.1023 N   0  0  0  0  0  0  0  0  0  0  0  0
   24.9027    9.8918   28.3555 C   0  0  0  0  0  0  0  0  0  0  0  0
   23.8213   10.5823   29.1308 C   0  0  2  0  0  0  0  0  0  0  0  0
   23.3497   11.9161   28.4697 C   0  0  1  0  0  0  0  0  0  0  0  0
   22.2929   12.5133   29.4615 C   0  0  1  0  0  0  0  0  0  0  0  0
   22.9633   12.8186   30.8293 C   0  0  1  0  0  0  0  0  0  0  0  0
   24.4818   12.4323   30.7789 C   0  0  1  0  0  0  0  0  0  0  0  0
   24.5037   10.8925   30.5190 C   0  0  2  0  0  0  0  0  0  0  0  0
   22.3832   13.9522   29.9785 C   0  0  0  0  0  0  0  0  0  0  0  0
   24.5621   12.8354   28.3962 C   0  0  0  0  0  0  0  0  0  0  0  0
   25.1420   13.1004   29.5795 C   0  0  0  0  0  0  0  0  0  0  0  0
   24.7747    9.5009   27.1648 O   0  0  0  0  0  0  0  0  0  0  0  0
   26.7957   10.4692   31.2261 O   0  0  0  0  0  0  0  0  0  0  0  0
   33.8941    8.7469   27.4378 C   0  0  0  0  0  0  0  0  0  0  0  0
   34.3159   10.0185   27.0896 F   0  0  0  0  0  0  0  0  0  0  0  0
   33.9607    7.9299   26.3248 F   0  0  0  0  0  0  0  0  0  0  0  0
   34.7518    8.2579   28.4081 F   0  0  0  0  0  0  0  0  0  0  0  0
   30.3883    7.0632   30.0203 H   0  0  0  0  0  0  0  0  0  0  0  0
   32.7054    7.0603   29.2479 H   0  0  0  0  0  0  0  0  0  0  0  0
   31.8669   10.4477   26.7098 H   0  0  0  0  0  0  0  0  0  0  0  0
   29.5588   10.4683   27.4921 H   0  0  0  0  0  0  0  0  0  0  0  0
   27.4629    9.5004   27.5020 H   0  0  0  0  0  0  0  0  0  0  0  0
   22.9637    9.8861   29.2633 H   0  0  0  0  0  0  0  0  0  0  0  0
   22.9059   11.7467   27.4659 H   0  0  0  0  0  0  0  0  0  0  0  0
   21.3169   11.9950   29.5781 H   0  0  0  0  0  0  0  0  0  0  0  0
   22.3502   12.4654   31.6862 H   0  0  0  0  0  0  0  0  0  0  0  0
   24.9945   12.7001   31.7269 H   0  0  0  0  0  0  0  0  0  0  0  0
   23.9865   10.3491   31.3405 H   0  0  0  0  0  0  0  0  0  0  0  0
   21.4185   14.3427   30.3642 H   0  0  0  0  0  0  0  0  0  0  0  0
   23.0946   14.6373   29.4766 H   0  0  0  0  0  0  0  0  0  0  0  0
   24.9306   13.2498   27.4637 H   0  0  0  0  0  0  0  0  0  0  0  0
   26.0113   13.7432   29.6688 H   0  0  0  0  0  0  0  0  0  0  0  0
  4  5  2  0
  5  6  1  0
  6  7  2  0
  2  7  1  0
  1  8  2  0
  1  9  1  0
 10 11  1  0
 11 12  1  0
 13 12  1  0
 14 13  1  0
 14 15  1  0
 16 15  1  0
 17 16  1  0
 17 18  1  0
 18 10  1  0
 18 13  1  0
 15 19  1  0
 16 19  1  0
 20 21  2  0
 14 20  1  0
 17 21  1  0
 12 22  2  0
 10 23  2  0
  9 11  1  0
  5 24  1  0
  1  2  1  0
 24 25  1  0
  2  3  2  0
 24 26  1  0
  3  4  1  0
 24 27  1  0
  3 28  1  0
  4 29  1  0
  6 30  1  0
  7 31  1  0
  9 32  1  0
 13 33  1  6
 14 34  1  1
 15 35  1  6
 16 36  1  6
 17 37  1  6
 18 38  1  6
 19 39  1  0
 19 40  1  0
 20 41  1  0
 21 42  1  0
M  END
> <Uni-Dock RESULT> 
ENERGY=   -3.860  LOWER_BOUND=    1.615  UPPER_BOUND=    2.030
INTER + INTRA:          -3.860
INTER:                  -3.860
INTRA:                   0.000
UNBOUND:                 0.000

$$$$

     RDKit          3D

 42 46  0  0  0  0  0  0  0  0999 V2000
   28.4996   10.5898   27.2509 C   0  0  0  0  0  0  0  0  0  0  0  0
   27.2658   10.1852   27.9676 C   0  0  0  0  0  0  0  0  0  0  0  0
   26.0112   10.3238   27.3487 C   0  0  0  0  0  0  0  0  0  0  0  0
   24.8424    9.9508   28.0185 C   0  0  0  0  0  0  0  0  0  0  0  0
   24.9003    9.4551   29.3313 C   0  0  0  0  0  0  0  0  0  0  0  0
   26.1542    9.3005   29.9450 C   0  0  0  0  0  0  0  0  0  0  0  0
   27.3237    9.6724   29.2755 C   0  0  0  0  0  0  0  0  0  0  0  0
   28.4161   11.3521   26.2495 O   0  0  0  0  0  0  0  0  0  0  0  0
   29.7843   10.0936   27.6544 N   0  0  0  0  0  0  0  0  0  0  0  0
   31.2543   12.0981   27.2647 C   0  0  0  0  0  0  0  0  0  0  0  0
   30.9821   10.7036   27.2388 N   0  0  0  0  0  0  0  0  0  0  0  0
   32.2346   10.0422   27.1837 C   0  0  0  0  0  0  0  0  0  0  0  0
   33.3944   10.9869   27.0837 C   0  0  2  0  0  0  0  0  0  0  0  0
   34.4047   10.8438   28.2656 C   0  0  1  0  0  0  0  0  0  0  0  0
   35.4812   11.9568   28.0211 C   0  0  1  0  0  0  0  0  0  0  0  0
   34.8144   13.3591   28.0727 C   0  0  1  0  0  0  0  0  0  0  0  0
   33.2792   13.2115   28.3536 C   0  0  1  0  0  0  0  0  0  0  0  0
   32.7159   12.4102   27.1371 C   0  0  2  0  0  0  0  0  0  0  0  0
   35.8727   12.9637   29.1068 C   0  0  0  0  0  0  0  0  0  0  0  0
   33.6408   11.1413   29.5495 C   0  0  0  0  0  0  0  0  0  0  0  0
   33.0644   12.3547   29.5949 C   0  0  0  0  0  0  0  0  0  0  0  0
   32.3492    8.7879   27.2098 O   0  0  0  0  0  0  0  0  0  0  0  0
   30.3645   12.9749   27.4279 O   0  0  0  0  0  0  0  0  0  0  0  0
   23.6443    9.0070   30.0354 C   0  0  0  0  0  0  0  0  0  0  0  0
   23.7720    9.1561   31.4056 F   0  0  0  0  0  0  0  0  0  0  0  0
   23.4116    7.6753   29.7471 F   0  0  0  0  0  0  0  0  0  0  0  0
   22.5567    9.7552   29.6190 F   0  0  0  0  0  0  0  0  0  0  0  0
   25.9332   10.7078   26.3390 H   0  0  0  0  0  0  0  0  0  0  0  0
   23.8926   10.0483   27.5079 H   0  0  0  0  0  0  0  0  0  0  0  0
   26.2309    8.8943   30.9459 H   0  0  0  0  0  0  0  0  0  0  0  0
   28.2687    9.5698   29.7923 H   0  0  0  0  0  0  0  0  0  0  0  0
   29.8352    9.1722   28.1437 H   0  0  0  0  0  0  0  0  0  0  0  0
   33.9081   10.8347   26.1086 H   0  0  0  0  0  0  0  0  0  0  0  0
   34.8701    9.8359   28.2933 H   0  0  0  0  0  0  0  0  0  0  0  0
   36.1720   11.8514   27.1571 H   0  0  0  0  0  0  0  0  0  0  0  0
   35.1442   14.0125   27.2367 H   0  0  0  0  0  0  0  0  0  0  0  0
   32.7938   14.2050   28.4562 H   0  0  0  0  0  0  0  0  0  0  0  0
   32.8910   12.9641   26.1884 H   0  0  0  0  0  0  0  0  0  0  0  0
   36.8598   13.4395   28.9304 H   0  0  0  0  0  0  0  0  0  0  0  0
   35.5336   12.7641   30.1424 H   0  0  0  0  0  0  0  0  0  0  0  0
   33.5678   10.4333   30.3683 H   0  0  0  0  0  0  0  0  0  0  0  0
   32.4935   12.6944   30.4526 H   0  0  0  0  0  0  0  0  0  0  0  0
  4  5  2  0
  5  6  1  0
  6  7  2  0
  2  7  1  0
  1  8  2  0
  1  9  1  0
 10 11  1  0
 11 12  1  0
 13 12  1  0
 14 13  1  0
 14 15  1  0
 16 15  1  0
 17 16  1  0
 17 18  1  0
 18 10  1  0
 18 13  1  0
 15 19  1  0
 16 19  1  0
 20 21  2  0
 14 20  1  0
 17 21  1  0
 12 22  2  0
 10 23  2  0
  9 11  1  0
  5 24  1  0
  1  2  1  0
 24 25  1  0
  2  3  2  0
 24 26  1  0
  3  4  1  0
 24 27  1  0
  3 28  1  0
  4 29  1  0
  6 30  1  0
  7 31  1  0
  9 32  1  0
 13 33  1  6
 14 34  1  1
 15 35  1  6
 16 36  1  6
 17 37  1  6
 18 38  1  6
 19 39  1  0
 19 40  1  0
 20 41  1  0
 21 42  1  0
M  END
> <Uni-Dock RESULT> 
ENERGY=   -3.791  LOWER_BOUND=    4.820  UPPER_BOUND=    8.774
INTER + INTRA:          -3.791
INTER:                  -3.791
INTRA:                   0.000
UNBOUND:                 0.000

$$$$

     RDKit          3D

 42 46  0  0  0  0  0  0  0  0999 V2000
   27.4279   13.6258   23.0132 C   0  0  0  0  0  0  0  0  0  0  0  0
   26.1357   14.3265   23.2108 C   0  0  0  0  0  0  0  0  0  0  0  0
   25.6923   14.6391   24.5077 C   0  0  0  0  0  0  0  0  0  0  0  0
   24.4731   15.2940   24.7040 C   0  0  0  0  0  0  0  0  0  0  0  0
   23.6586   15.6277   23.6097 C   0  0  0  0  0  0  0  0  0  0  0  0
   24.1078   15.3309   22.3124 C   0  0  0  0  0  0  0  0  0  0  0  0
   25.3275   14.6768   22.1149 C   0  0  0  0  0  0  0  0  0  0  0  0
   27.9617   13.0197   23.9820 O   0  0  0  0  0  0  0  0  0  0  0  0
   28.1012   13.6616   21.7464 N   0  0  0  0  0  0  0  0  0  0  0  0
   29.0715   11.3439   21.6151 C   0  0  0  0  0  0  0  0  0  0  0  0
   29.1224   12.7506   21.4200 N   0  0  0  0  0  0  0  0  0  0  0  0
   30.1253   12.9939   20.4482 C   0  0  0  0  0  0  0  0  0  0  0  0
   30.8438   11.7496   20.0206 C   0  0  2  0  0  0  0  0  0  0  0  0
   30.7205   11.4663   18.4900 C   0  0  1  0  0  0  0  0  0  0  0  0
   31.4579   10.1014   18.2654 C   0  0  1  0  0  0  0  0  0  0  0  0
   30.7431    8.9758   19.0627 C   0  0  1  0  0  0  0  0  0  0  0  0
   29.5132    9.5655   19.8353 C   0  0  1  0  0  0  0  0  0  0  0  0
   30.1163   10.6074   20.8301 C   0  0  2  0  0  0  0  0  0  0  0  0
   30.7974    8.9298   17.5328 C   0  0  0  0  0  0  0  0  0  0  0  0
   29.2377   11.3062   18.1797 C   0  0  0  0  0  0  0  0  0  0  0  0
   28.6191   10.3319   18.8687 C   0  0  0  0  0  0  0  0  0  0  0  0
   30.3825   14.1435   20.0017 O   0  0  0  0  0  0  0  0  0  0  0  0
   28.2072   10.7748   22.3333 O   0  0  0  0  0  0  0  0  0  0  0  0
   22.3670   16.3777   23.8184 C   0  0  0  0  0  0  0  0  0  0  0  0
   21.4584   16.0741   22.8193 F   0  0  0  0  0  0  0  0  0  0  0  0
   22.6214   17.7362   23.7982 F   0  0  0  0  0  0  0  0  0  0  0  0
   21.7986   16.0433   25.0355 F   0  0  0  0  0  0  0  0  0  0  0  0
   26.2953   14.3902   25.3722 H   0  0  0  0  0  0  0  0  0  0  0  0
   24.1684   15.5415   25.7132 H   0  0  0  0  0  0  0  0  0  0  0  0
   23.5136   15.6020   21.4486 H   0  0  0  0  0  0  0  0  0  0  0  0
   25.6252   14.4351   21.1033 H   0  0  0  0  0  0  0  0  0  0  0  0
   27.9335   14.4742   21.1120 H   0  0  0  0  0  0  0  0  0  0  0  0
   31.9126   11.8220   20.3207 H   0  0  0  0  0  0  0  0  0  0  0  0
   31.1787   12.2740   17.8809 H   0  0  0  0  0  0  0  0  0  0  0  0
   32.5622   10.0648   18.3846 H   0  0  0  0  0  0  0  0  0  0  0  0
   31.4604    8.3300   19.6134 H   0  0  0  0  0  0  0  0  0  0  0  0
   28.9510    8.7661   20.3626 H   0  0  0  0  0  0  0  0  0  0  0  0
   30.8231   10.1140   21.5334 H   0  0  0  0  0  0  0  0  0  0  0  0
   31.5254    8.1895   17.1403 H   0  0  0  0  0  0  0  0  0  0  0  0
   29.8607    9.1309   16.9765 H   0  0  0  0  0  0  0  0  0  0  0  0
   28.7176   11.9256   17.4567 H   0  0  0  0  0  0  0  0  0  0  0  0
   27.5648   10.1102   18.7409 H   0  0  0  0  0  0  0  0  0  0  0  0
  4  5  2  0
  5  6  1  0
  6  7  2  0
  2  7  1  0
  1  8  2  0
  1  9  1  0
 10 11  1  0
 11 12  1  0
 13 12  1  0
 14 13  1  0
 14 15  1  0
 16 15  1  0
 17 16  1  0
 17 18  1  0
 18 10  1  0
 18 13  1  0
 15 19  1  0
 16 19  1  0
 20 21  2  0
 14 20  1  0
 17 21  1  0
 12 22  2  0
 10 23  2  0
  9 11  1  0
  5 24  1  0
  1  2  1  0
 24 25  1  0
  2  3  2  0
 24 26  1  0
  3  4  1  0
 24 27  1  0
  3 28  1  0
  4 29  1  0
  6 30  1  0
  7 31  1  0
  9 32  1  0
 13 33  1  6
 14 34  1  1
 15 35  1  6
 16 36  1  6
 17 37  1  6
 18 38  1  6
 19 39  1  0
 19 40  1  0
 20 41  1  0
 21 42  1  0
M  END
> <Uni-Dock RESULT> 
ENERGY=   -3.697  LOWER_BOUND=    7.617  UPPER_BOUND=   10.892
INTER + INTRA:          -3.697
INTER:                  -3.697
INTRA:                   0.000
UNBOUND:                 0.000

$$$$

     RDKit          3D

 42 46  0  0  0  0  0  0  0  0999 V2000
   26.9303   10.0777   18.9945 C   0  0  0  0  0  0  0  0  0  0  0  0
   27.8918   10.6202   19.9850 C   0  0  0  0  0  0  0  0  0  0  0  0
   29.2521   10.7472   19.6535 C   0  0  0  0  0  0  0  0  0  0  0  0
   30.1665   11.2518   20.5824 C   0  0  0  0  0  0  0  0  0  0  0  0
   29.7455   11.6163   21.8717 C   0  0  0  0  0  0  0  0  0  0  0  0
   28.3841   11.5056   22.1990 C   0  0  0  0  0  0  0  0  0  0  0  0
   27.4686   11.0020   21.2703 C   0  0  0  0  0  0  0  0  0  0  0  0
   27.3593    9.4289   18.0016 O   0  0  0  0  0  0  0  0  0  0  0  0
   25.5212   10.3153   19.1264 N   0  0  0  0  0  0  0  0  0  0  0  0
   24.5557    8.1339   18.3266 C   0  0  0  0  0  0  0  0  0  0  0  0
   24.5687    9.5513   18.4276 N   0  0  0  0  0  0  0  0  0  0  0  0
   23.2566    9.9960   18.1277 C   0  0  0  0  0  0  0  0  0  0  0  0
   22.3354    8.8826   17.7288 C   0  0  2  0  0  0  0  0  0  0  0  0
   21.0910    8.7526   18.6630 C   0  0  1  0  0  0  0  0  0  0  0  0
   20.3107    7.5002   18.1338 C   0  0  1  0  0  0  0  0  0  0  0  0
   21.1958    6.2302   18.2655 C   0  0  1  0  0  0  0  0  0  0  0  0
   22.5848    6.6081   18.8860 C   0  0  1  0  0  0  0  0  0  0  0  0
   23.2351    7.5936   17.8638 C   0  0  2  0  0  0  0  0  0  0  0  0
   19.8904    6.3526   19.0569 C   0  0  0  0  0  0  0  0  0  0  0  0
   21.6100    8.4782   20.0686 C   0  0  0  0  0  0  0  0  0  0  0  0
   22.3751    7.3790   20.1831 C   0  0  0  0  0  0  0  0  0  0  0  0
   22.9127   11.2064   18.1871 O   0  0  0  0  0  0  0  0  0  0  0  0
   25.5359    7.4078   18.6411 O   0  0  0  0  0  0  0  0  0  0  0  0
   30.7230   12.2063   22.8569 C   0  0  0  0  0  0  0  0  0  0  0  0
   30.3402   11.9210   24.1561 F   0  0  0  0  0  0  0  0  0  0  0  0
   30.7645   13.5779   22.6906 F   0  0  0  0  0  0  0  0  0  0  0  0
   31.9914   11.6892   22.6568 F   0  0  0  0  0  0  0  0  0  0  0  0
   29.6085   10.4696   18.6692 H   0  0  0  0  0  0  0  0  0  0  0  0
   31.2038   11.3588   20.2908 H   0  0  0  0  0  0  0  0  0  0  0  0
   28.0267   11.8059   23.1762 H   0  0  0  0  0  0  0  0  0  0  0  0
   26.4338   10.9002   21.5692 H   0  0  0  0  0  0  0  0  0  0  0  0
   25.2021   11.1698   19.6354 H   0  0  0  0  0  0  0  0  0  0  0  0
   22.0186    9.0297   16.6725 H   0  0  0  0  0  0  0  0  0  0  0  0
   20.4546    9.6622   18.6346 H   0  0  0  0  0  0  0  0  0  0  0  0
   19.8090    7.5622   17.1442 H   0  0  0  0  0  0  0  0  0  0  0  0
   21.1731    5.6048   17.3471 H   0  0  0  0  0  0  0  0  0  0  0  0
   23.2106    5.7047   19.0464 H   0  0  0  0  0  0  0  0  0  0  0  0
   23.3666    7.1017   16.8747 H   0  0  0  0  0  0  0  0  0  0  0  0
   19.0656    5.7351   18.6440 H   0  0  0  0  0  0  0  0  0  0  0  0
   19.9627    6.5166   20.1502 H   0  0  0  0  0  0  0  0  0  0  0  0
   21.3795    9.1155   20.9158 H   0  0  0  0  0  0  0  0  0  0  0  0
   22.8056    7.0674   21.1289 H   0  0  0  0  0  0  0  0  0  0  0  0
  4  5  2  0
  5  6  1  0
  6  7  2  0
  2  7  1  0
  1  8  2  0
  1  9  1  0
 10 11  1  0
 11 12  1  0
 13 12  1  0
 14 13  1  0
 14 15  1  0
 16 15  1  0
 17 16  1  0
 17 18  1  0
 18 10  1  0
 18 13  1  0
 15 19  1  0
 16 19  1  0
 20 21  2  0
 14 20  1  0
 17 21  1  0
 12 22  2  0
 10 23  2  0
  9 11  1  0
  5 24  1  0
  1  2  1  0
 24 25  1  0
  2  3  2  0
 24 26  1  0
  3  4  1  0
 24 27  1  0
  3 28  1  0
  4 29  1  0
  6 30  1  0
  7 31  1  0
  9 32  1  0
 13 33  1  6
 14 34  1  1
 15 35  1  6
 16 36  1  6
 17 37  1  6
 18 38  1  6
 19 39  1  0
 19 40  1  0
 20 41  1  0
 21 42  1  0
M  END
> <Uni-Dock RESULT> 
ENERGY=   -3.672  LOWER_BOUND=    8.375  UPPER_BOUND=    9.739
INTER + INTRA:          -3.672
INTER:                  -3.672
INTRA:                   0.000
UNBOUND:                 0.000

$$$$
