
     RDKit          3D

 42 46  0  0  0  0  0  0  0  0999 V2000
   25.2900    4.3969   31.6591 C   0  0  0  0  0  0  0  0  0  0  0  0
   26.4499    3.4819   31.5282 C   0  0  0  0  0  0  0  0  0  0  0  0
   27.4679    3.7327   30.5911 C   0  0  0  0  0  0  0  0  0  0  0  0
   28.5535    2.8603   30.4712 C   0  0  0  0  0  0  0  0  0  0  0  0
   28.6336    1.7065   31.2680 C   0  0  0  0  0  0  0  0  0  0  0  0
   27.6265    1.4641   32.2165 C   0  0  0  0  0  0  0  0  0  0  0  0
   26.5402    2.3353   32.3363 C   0  0  0  0  0  0  0  0  0  0  0  0
   24.2411    3.9937   32.2320 O   0  0  0  0  0  0  0  0  0  0  0  0
   25.3574    5.7487   31.1814 N   0  0  0  0  0  0  0  0  0  0  0  0
   23.0061    6.1085   30.3521 C   0  0  0  0  0  0  0  0  0  0  0  0
   24.2017    6.5290   30.9942 N   0  0  0  0  0  0  0  0  0  0  0  0
   24.1762    7.9456   31.0262 C   0  0  0  0  0  0  0  0  0  0  0  0
   22.8991    8.5206   30.4908 C   0  0  2  0  0  0  0  0  0  0  0  0
   22.0794    9.2969   31.5695 C   0  0  1  0  0  0  0  0  0  0  0  0
   20.7609    9.7369   30.8445 C   0  0  1  0  0  0  0  0  0  0  0  0
   19.9633    8.4839   30.3883 C   0  0  1  0  0  0  0  0  0  0  0  0
   20.7332    7.1814   30.7985 C   0  0  1  0  0  0  0  0  0  0  0  0
   22.0885    7.2489   30.0267 C   0  0  2  0  0  0  0  0  0  0  0  0
   19.3750    9.4436   31.4268 C   0  0  0  0  0  0  0  0  0  0  0  0
   21.7485    8.3091   32.6812 C   0  0  0  0  0  0  0  0  0  0  0  0
   21.0591    7.2249   32.2860 C   0  0  0  0  0  0  0  0  0  0  0  0
   25.1374    8.6402   31.4508 O   0  0  0  0  0  0  0  0  0  0  0  0
   22.7775    4.9135   30.0260 O   0  0  0  0  0  0  0  0  0  0  0  0
   29.8300    0.7932   31.1727 C   0  0  0  0  0  0  0  0  0  0  0  0
   29.4823   -0.5046   31.5057 F   0  0  0  0  0  0  0  0  0  0  0  0
   30.8094    1.2344   32.0427 F   0  0  0  0  0  0  0  0  0  0  0  0
   30.3393    0.7874   29.8857 F   0  0  0  0  0  0  0  0  0  0  0  0
   27.4237    4.5938   29.9375 H   0  0  0  0  0  0  0  0  0  0  0  0
   29.3302    3.0872   29.7514 H   0  0  0  0  0  0  0  0  0  0  0  0
   27.6798    0.6008   32.8681 H   0  0  0  0  0  0  0  0  0  0  0  0
   25.7770    2.1181   33.0735 H   0  0  0  0  0  0  0  0  0  0  0  0
   26.2904    6.2147   31.1245 H   0  0  0  0  0  0  0  0  0  0  0  0
   23.1270    9.1780   29.6228 H   0  0  0  0  0  0  0  0  0  0  0  0
   22.6354   10.1760   31.9587 H   0  0  0  0  0  0  0  0  0  0  0  0
   20.8213   10.5098   30.0484 H   0  0  0  0  0  0  0  0  0  0  0  0
   19.5921    8.5789   29.3451 H   0  0  0  0  0  0  0  0  0  0  0  0
   20.1519    6.2723   30.5357 H   0  0  0  0  0  0  0  0  0  0  0  0
   21.9132    7.2777   28.9284 H   0  0  0  0  0  0  0  0  0  0  0  0
   19.3191    9.0964   32.4772 H   0  0  0  0  0  0  0  0  0  0  0  0
   18.5782   10.0996   31.0182 H   0  0  0  0  0  0  0  0  0  0  0  0
   22.0419    8.4655   33.7138 H   0  0  0  0  0  0  0  0  0  0  0  0
   20.7573    6.4453   32.9774 H   0  0  0  0  0  0  0  0  0  0  0  0
  4  5  2  0
  5  6  1  0
  6  7  2  0
  2  7  1  0
  1  8  2  0
  1  9  1  0
 10 11  1  0
 11 12  1  0
 13 12  1  0
 14 13  1  0
 14 15  1  0
 16 15  1  0
 17 16  1  0
 17 18  1  0
 18 10  1  0
 18 13  1  0
 15 19  1  0
 16 19  1  0
 20 21  2  0
 14 20  1  0
 17 21  1  0
 12 22  2  0
 10 23  2  0
  9 11  1  0
  5 24  1  0
  1  2  1  0
 24 25  1  0
  2  3  2  0
 24 26  1  0
  3  4  1  0
 24 27  1  0
  3 28  1  0
  4 29  1  0
  6 30  1  0
  7 31  1  0
  9 32  1  0
 13 33  1  1
 14 34  1  6
 15 35  1  1
 16 36  1  1
 17 37  1  6
 18 38  1  1
 19 39  1  0
 19 40  1  0
 20 41  1  0
 21 42  1  0
M  END
> <Uni-Dock RESULT> 
ENERGY=   -4.362  LOWER_BOUND=    0.000  UPPER_BOUND=    0.000
INTER + INTRA:          -4.362
INTER:                  -4.362
INTRA:                   0.000
UNBOUND:                 0.000

$$$$

     RDKit          3D

 42 46  0  0  0  0  0  0  0  0999 V2000
   25.9574    5.1281   31.3259 C   0  0  0  0  0  0  0  0  0  0  0  0
   24.6480    5.7835   31.0902 C   0  0  0  0  0  0  0  0  0  0  0  0
   23.5372    5.0437   30.6472 C   0  0  0  0  0  0  0  0  0  0  0  0
   22.3093    5.6725   30.4217 C   0  0  0  0  0  0  0  0  0  0  0  0
   22.1709    7.0573   30.6108 C   0  0  0  0  0  0  0  0  0  0  0  0
   23.2747    7.7944   31.0699 C   0  0  0  0  0  0  0  0  0  0  0  0
   24.5031    7.1668   31.2947 C   0  0  0  0  0  0  0  0  0  0  0  0
   27.0038    5.8303   31.3798 O   0  0  0  0  0  0  0  0  0  0  0  0
   26.0474    3.7111   31.5360 N   0  0  0  0  0  0  0  0  0  0  0  0
   28.2322    3.1711   30.4044 C   0  0  0  0  0  0  0  0  0  0  0  0
   27.2701    3.0219   31.4391 N   0  0  0  0  0  0  0  0  0  0  0  0
   27.5551    1.7975   32.0936 C   0  0  0  0  0  0  0  0  0  0  0  0
   28.7944    1.1312   31.5756 C   0  0  2  0  0  0  0  0  0  0  0  0
   29.9240    1.0240   32.6483 C   0  0  1  0  0  0  0  0  0  0  0  0
   31.1443    0.3886   31.8967 C   0  0  1  0  0  0  0  0  0  0  0  0
   31.6063    1.3271   30.7477 C   0  0  1  0  0  0  0  0  0  0  0  0
   30.7036    2.6081   30.7078 C   0  0  1  0  0  0  0  0  0  0  0  0
   29.2641    2.0832   30.4083 C   0  0  2  0  0  0  0  0  0  0  0  0
   32.5379    1.0233   31.9247 C   0  0  0  0  0  0  0  0  0  0  0  0
   30.2704    2.4432   33.0811 C   0  0  0  0  0  0  0  0  0  0  0  0
   30.6694    3.2549   32.0867 C   0  0  0  0  0  0  0  0  0  0  0  0
   26.8288    1.3215   33.0061 O   0  0  0  0  0  0  0  0  0  0  0  0
   28.1786    4.0795   29.5335 O   0  0  0  0  0  0  0  0  0  0  0  0
   20.8331    7.7256   30.4154 C   0  0  0  0  0  0  0  0  0  0  0  0
   20.9971    9.0467   30.0359 F   0  0  0  0  0  0  0  0  0  0  0  0
   20.1255    7.6824   31.6020 F   0  0  0  0  0  0  0  0  0  0  0  0
   20.1035    7.0808   29.4315 F   0  0  0  0  0  0  0  0  0  0  0  0
   23.6146    3.9810   30.4593 H   0  0  0  0  0  0  0  0  0  0  0  0
   21.4673    5.0747   30.0955 H   0  0  0  0  0  0  0  0  0  0  0  0
   23.1878    8.8574   31.2574 H   0  0  0  0  0  0  0  0  0  0  0  0
   25.3370    7.7634   31.6435 H   0  0  0  0  0  0  0  0  0  0  0  0
   25.2189    3.2081   31.9254 H   0  0  0  0  0  0  0  0  0  0  0  0
   28.5329    0.1251   31.1793 H   0  0  0  0  0  0  0  0  0  0  0  0
   29.6160    0.3988   33.5129 H   0  0  0  0  0  0  0  0  0  0  0  0
   31.0786   -0.6722   31.5724 H   0  0  0  0  0  0  0  0  0  0  0  0
   31.7907    0.7739   29.8016 H   0  0  0  0  0  0  0  0  0  0  0  0
   31.0538    3.3216   29.9323 H   0  0  0  0  0  0  0  0  0  0  0  0
   29.2372    1.5476   29.4335 H   0  0  0  0  0  0  0  0  0  0  0  0
   32.7224    1.8320   32.6590 H   0  0  0  0  0  0  0  0  0  0  0  0
   33.3508    0.3116   31.6703 H   0  0  0  0  0  0  0  0  0  0  0  0
   30.2046    2.7767   34.1113 H   0  0  0  0  0  0  0  0  0  0  0  0
   30.9480    4.2892   32.2584 H   0  0  0  0  0  0  0  0  0  0  0  0
  4  5  2  0
  5  6  1  0
  6  7  2  0
  2  7  1  0
  1  8  2  0
  1  9  1  0
 10 11  1  0
 11 12  1  0
 13 12  1  0
 14 13  1  0
 14 15  1  0
 16 15  1  0
 17 16  1  0
 17 18  1  0
 18 10  1  0
 18 13  1  0
 15 19  1  0
 16 19  1  0
 20 21  2  0
 14 20  1  0
 17 21  1  0
 12 22  2  0
 10 23  2  0
  9 11  1  0
  5 24  1  0
  1  2  1  0
 24 25  1  0
  2  3  2  0
 24 26  1  0
  3  4  1  0
 24 27  1  0
  3 28  1  0
  4 29  1  0
  6 30  1  0
  7 31  1  0
  9 32  1  0
 13 33  1  1
 14 34  1  6
 15 35  1  1
 16 36  1  1
 17 37  1  6
 18 38  1  1
 19 39  1  0
 19 40  1  0
 20 41  1  0
 21 42  1  0
M  END
> <Uni-Dock RESULT> 
ENERGY=   -4.177  LOWER_BOUND=    4.569  UPPER_BOUND=    9.242
INTER + INTRA:          -4.177
INTER:                  -4.177
INTRA:                   0.000
UNBOUND:                 0.000

$$$$

     RDKit          3D

 42 46  0  0  0  0  0  0  0  0999 V2000
   30.4855    7.6804   28.5063 C   0  0  0  0  0  0  0  0  0  0  0  0
   30.3659    9.0183   27.8774 C   0  0  0  0  0  0  0  0  0  0  0  0
   29.1076    9.6102   27.6682 C   0  0  0  0  0  0  0  0  0  0  0  0
   29.0057   10.8688   27.0685 C   0  0  0  0  0  0  0  0  0  0  0  0
   30.1566   11.5525   26.6435 C   0  0  0  0  0  0  0  0  0  0  0  0
   31.4149   10.9702   26.8677 C   0  0  0  0  0  0  0  0  0  0  0  0
   31.5177    9.7114   27.4663 C   0  0  0  0  0  0  0  0  0  0  0  0
   31.5543    7.0240   28.3737 O   0  0  0  0  0  0  0  0  0  0  0  0
   29.4190    7.1386   29.2994 N   0  0  0  0  0  0  0  0  0  0  0  0
   29.5712    4.6868   28.7420 C   0  0  0  0  0  0  0  0  0  0  0  0
   29.3611    5.7731   29.6332 N   0  0  0  0  0  0  0  0  0  0  0  0
   28.6896    5.2520   30.7673 C   0  0  0  0  0  0  0  0  0  0  0  0
   28.5181    3.7634   30.7137 C   0  0  2  0  0  0  0  0  0  0  0  0
   29.2909    3.0185   31.8477 C   0  0  1  0  0  0  0  0  0  0  0  0
   29.0590    1.4934   31.5685 C   0  0  1  0  0  0  0  0  0  0  0  0
   29.6627    1.1091   30.1893 C   0  0  1  0  0  0  0  0  0  0  0  0
   30.3096    2.3698   29.5188 C   0  0  1  0  0  0  0  0  0  0  0  0
   29.1305    3.3722   29.3132 C   0  0  2  0  0  0  0  0  0  0  0  0
   30.2184    0.4967   31.4784 C   0  0  0  0  0  0  0  0  0  0  0  0
   30.7681    3.3518   31.6804 C   0  0  0  0  0  0  0  0  0  0  0  0
   31.2899    3.0198   30.4868 C   0  0  0  0  0  0  0  0  0  0  0  0
   28.2730    5.9751   31.7108 O   0  0  0  0  0  0  0  0  0  0  0  0
   30.0119    4.8263   27.5703 O   0  0  0  0  0  0  0  0  0  0  0  0
   30.0484   12.9315   26.0425 C   0  0  0  0  0  0  0  0  0  0  0  0
   31.0925   13.1656   25.1643 F   0  0  0  0  0  0  0  0  0  0  0  0
   30.0907   13.8729   27.0538 F   0  0  0  0  0  0  0  0  0  0  0  0
   28.8596   13.0698   25.3470 F   0  0  0  0  0  0  0  0  0  0  0  0
   28.1973    9.0993   27.9526 H   0  0  0  0  0  0  0  0  0  0  0  0
   28.0244   11.3065   26.9340 H   0  0  0  0  0  0  0  0  0  0  0  0
   32.3210   11.4896   26.5817 H   0  0  0  0  0  0  0  0  0  0  0  0
   32.5019    9.2867   27.6207 H   0  0  0  0  0  0  0  0  0  0  0  0
   28.7603    7.7975   29.7717 H   0  0  0  0  0  0  0  0  0  0  0  0
   27.4340    3.5164   30.7499 H   0  0  0  0  0  0  0  0  0  0  0  0
   28.9215    3.3021   32.8559 H   0  0  0  0  0  0  0  0  0  0  0  0
   28.0409    1.0724   31.7138 H   0  0  0  0  0  0  0  0  0  0  0  0
   28.9712    0.4800   29.5883 H   0  0  0  0  0  0  0  0  0  0  0  0
   30.8008    2.1058   28.5584 H   0  0  0  0  0  0  0  0  0  0  0  0
   28.3495    2.9293   28.6561 H   0  0  0  0  0  0  0  0  0  0  0  0
   31.2166    0.8333   31.8213 H   0  0  0  0  0  0  0  0  0  0  0  0
   29.9063   -0.5569   31.6353 H   0  0  0  0  0  0  0  0  0  0  0  0
   31.3582    3.8183   32.4621 H   0  0  0  0  0  0  0  0  0  0  0  0
   32.3304    3.1998   30.2382 H   0  0  0  0  0  0  0  0  0  0  0  0
  4  5  2  0
  5  6  1  0
  6  7  2  0
  2  7  1  0
  1  8  2  0
  1  9  1  0
 10 11  1  0
 11 12  1  0
 13 12  1  0
 14 13  1  0
 14 15  1  0
 16 15  1  0
 17 16  1  0
 17 18  1  0
 18 10  1  0
 18 13  1  0
 15 19  1  0
 16 19  1  0
 20 21  2  0
 14 20  1  0
 17 21  1  0
 12 22  2  0
 10 23  2  0
  9 11  1  0
  5 24  1  0
  1  2  1  0
 24 25  1  0
  2  3  2  0
 24 26  1  0
  3  4  1  0
 24 27  1  0
  3 28  1  0
  4 29  1  0
  6 30  1  0
  7 31  1  0
  9 32  1  0
 13 33  1  1
 14 34  1  6
 15 35  1  1
 16 36  1  1
 17 37  1  6
 18 38  1  1
 19 39  1  0
 19 40  1  0
 20 41  1  0
 21 42  1  0
M  END
> <Uni-Dock RESULT> 
ENERGY=   -3.991  LOWER_BOUND=    7.221  UPPER_BOUND=    9.945
INTER + INTRA:          -3.991
INTER:                  -3.991
INTRA:                   0.000
UNBOUND:                 0.000

$$$$

     RDKit          3D

 42 46  0  0  0  0  0  0  0  0999 V2000
   30.6843    7.7997   28.6883 C   0  0  0  0  0  0  0  0  0  0  0  0
   31.5630    8.6960   27.8981 C   0  0  0  0  0  0  0  0  0  0  0  0
   32.8074    8.2510   27.4179 C   0  0  0  0  0  0  0  0  0  0  0  0
   33.6309    9.1060   26.6798 C   0  0  0  0  0  0  0  0  0  0  0  0
   33.2397   10.4308   26.4259 C   0  0  0  0  0  0  0  0  0  0  0  0
   31.9895   10.8713   26.8900 C   0  0  0  0  0  0  0  0  0  0  0  0
   31.1659   10.0174   27.6289 C   0  0  0  0  0  0  0  0  0  0  0  0
   29.7626    8.2949   29.3927 O   0  0  0  0  0  0  0  0  0  0  0  0
   30.8395    6.3740   28.6309 N   0  0  0  0  0  0  0  0  0  0  0  0
   30.2895    5.7110   30.9980 C   0  0  0  0  0  0  0  0  0  0  0  0
   30.2585    5.5243   29.5900 N   0  0  0  0  0  0  0  0  0  0  0  0
   29.9250    4.1659   29.3615 C   0  0  0  0  0  0  0  0  0  0  0  0
   29.6190    3.4176   30.6242 C   0  0  2  0  0  0  0  0  0  0  0  0
   28.1413    2.9180   30.6952 C   0  0  1  0  0  0  0  0  0  0  0  0
   28.0022    2.2483   32.1058 C   0  0  1  0  0  0  0  0  0  0  0  0
   28.2481    3.3030   33.2200 C   0  0  1  0  0  0  0  0  0  0  0  0
   28.5572    4.6986   32.5763 C   0  0  1  0  0  0  0  0  0  0  0  0
   29.8688    4.4877   31.7564 C   0  0  2  0  0  0  0  0  0  0  0  0
   26.8816    2.6258   33.0792 C   0  0  0  0  0  0  0  0  0  0  0  0
   27.2457    4.1483   30.6208 C   0  0  0  0  0  0  0  0  0  0  0  0
   27.4592    5.0608   31.5845 C   0  0  0  0  0  0  0  0  0  0  0  0
   29.9032    3.6480   28.2134 O   0  0  0  0  0  0  0  0  0  0  0  0
   30.6977    6.7678   31.5486 O   0  0  0  0  0  0  0  0  0  0  0  0
   34.1063   11.3363   25.5871 C   0  0  0  0  0  0  0  0  0  0  0  0
   33.9218   12.6603   25.9466 F   0  0  0  0  0  0  0  0  0  0  0  0
   33.7714   11.1804   24.2551 F   0  0  0  0  0  0  0  0  0  0  0  0
   35.4446   11.0254   25.7551 F   0  0  0  0  0  0  0  0  0  0  0  0
   33.1567    7.2474   27.6217 H   0  0  0  0  0  0  0  0  0  0  0  0
   34.5770    8.7309   26.3098 H   0  0  0  0  0  0  0  0  0  0  0  0
   31.6468   11.8768   26.6796 H   0  0  0  0  0  0  0  0  0  0  0  0
   30.2099   10.3882   27.9775 H   0  0  0  0  0  0  0  0  0  0  0  0
   31.2562    5.9489   27.7726 H   0  0  0  0  0  0  0  0  0  0  0  0
   30.3267    2.5655   30.7276 H   0  0  0  0  0  0  0  0  0  0  0  0
   27.9089    2.1960   29.8840 H   0  0  0  0  0  0  0  0  0  0  0  0
   28.5420    1.2968   32.3011 H   0  0  0  0  0  0  0  0  0  0  0  0
   28.9209    2.9221   34.0183 H   0  0  0  0  0  0  0  0  0  0  0  0
   28.6769    5.4816   33.3547 H   0  0  0  0  0  0  0  0  0  0  0  0
   30.6996    4.1644   32.4221 H   0  0  0  0  0  0  0  0  0  0  0  0
   26.0418    3.2340   32.6892 H   0  0  0  0  0  0  0  0  0  0  0  0
   26.6918    1.8528   33.8529 H   0  0  0  0  0  0  0  0  0  0  0  0
   26.4907    4.2808   29.8531 H   0  0  0  0  0  0  0  0  0  0  0  0
   26.8885    5.9812   31.6487 H   0  0  0  0  0  0  0  0  0  0  0  0
  4  5  2  0
  5  6  1  0
  6  7  2  0
  2  7  1  0
  1  8  2  0
  1  9  1  0
 10 11  1  0
 11 12  1  0
 13 12  1  0
 14 13  1  0
 14 15  1  0
 16 15  1  0
 17 16  1  0
 17 18  1  0
 18 10  1  0
 18 13  1  0
 15 19  1  0
 16 19  1  0
 20 21  2  0
 14 20  1  0
 17 21  1  0
 12 22  2  0
 10 23  2  0
  9 11  1  0
  5 24  1  0
  1  2  1  0
 24 25  1  0
  2  3  2  0
 24 26  1  0
  3  4  1  0
 24 27  1  0
  3 28  1  0
  4 29  1  0
  6 30  1  0
  7 31  1  0
  9 32  1  0
 13 33  1  1
 14 34  1  6
 15 35  1  1
 16 36  1  1
 17 37  1  6
 18 38  1  1
 19 39  1  0
 19 40  1  0
 20 41  1  0
 21 42  1  0
M  END
> <Uni-Dock RESULT> 
ENERGY=   -3.948  LOWER_BOUND=    6.842  UPPER_BOUND=    9.401
INTER + INTRA:          -3.948
INTER:                  -3.948
INTRA:                   0.000
UNBOUND:                 0.000

$$$$

     RDKit          3D

 42 46  0  0  0  0  0  0  0  0999 V2000
   30.3239    7.6483   28.5555 C   0  0  0  0  0  0  0  0  0  0  0  0
   30.1439    8.9865   27.9418 C   0  0  0  0  0  0  0  0  0  0  0  0
   28.8626    9.5430   27.7809 C   0  0  0  0  0  0  0  0  0  0  0  0
   28.7036   10.8022   27.1952 C   0  0  0  0  0  0  0  0  0  0  0  0
   29.8188   11.5221   26.7362 C   0  0  0  0  0  0  0  0  0  0  0  0
   31.1004   10.9753   26.9122 C   0  0  0  0  0  0  0  0  0  0  0  0
   31.2603    9.7158   27.4967 C   0  0  0  0  0  0  0  0  0  0  0  0
   31.4061    7.0244   28.3808 O   0  0  0  0  0  0  0  0  0  0  0  0
   29.3018    7.0701   29.3805 N   0  0  0  0  0  0  0  0  0  0  0  0
   29.5053    4.6277   28.7985 C   0  0  0  0  0  0  0  0  0  0  0  0
   29.2950    5.7012   29.7052 N   0  0  0  0  0  0  0  0  0  0  0  0
   28.6786    5.1528   30.8575 C   0  0  0  0  0  0  0  0  0  0  0  0
   28.5485    3.6602   30.7979 C   0  0  2  0  0  0  0  0  0  0  0  0
   29.3814    2.9302   31.8986 C   0  0  1  0  0  0  0  0  0  0  0  0
   29.1841    1.4010   31.6153 C   0  0  1  0  0  0  0  0  0  0  0  0
   29.7504    1.0442   30.2131 C   0  0  1  0  0  0  0  0  0  0  0  0
   30.3369    2.3279   29.5308 C   0  0  1  0  0  0  0  0  0  0  0  0
   29.1229    3.2969   29.3741 C   0  0  2  0  0  0  0  0  0  0  0  0
   30.3680    0.4392   31.4773 C   0  0  0  0  0  0  0  0  0  0  0  0
   30.8416    3.3077   31.6831 C   0  0  0  0  0  0  0  0  0  0  0  0
   31.3310    2.9994   30.4696 C   0  0  0  0  0  0  0  0  0  0  0  0
   28.2743    5.8568   31.8207 O   0  0  0  0  0  0  0  0  0  0  0  0
   29.9008    4.7883   27.6135 O   0  0  0  0  0  0  0  0  0  0  0  0
   29.6499   12.9016   26.1504 C   0  0  0  0  0  0  0  0  0  0  0  0
   30.6557   13.1722   25.2386 F   0  0  0  0  0  0  0  0  0  0  0  0
   29.7002   13.8367   27.1671 F   0  0  0  0  0  0  0  0  0  0  0  0
   28.4342   13.0100   25.4975 F   0  0  0  0  0  0  0  0  0  0  0  0
   27.9779    9.0037   28.0925 H   0  0  0  0  0  0  0  0  0  0  0  0
   27.7059   11.2120   27.0982 H   0  0  0  0  0  0  0  0  0  0  0  0
   31.9807   11.5229   26.5993 H   0  0  0  0  0  0  0  0  0  0  0  0
   32.2611    9.3189   27.6137 H   0  0  0  0  0  0  0  0  0  0  0  0
   28.6411    7.7062   29.8805 H   0  0  0  0  0  0  0  0  0  0  0  0
   27.4739    3.3814   30.8695 H   0  0  0  0  0  0  0  0  0  0  0  0
   29.0392    3.1958   32.9212 H   0  0  0  0  0  0  0  0  0  0  0  0
   28.1842    0.9495   31.7923 H   0  0  0  0  0  0  0  0  0  0  0  0
   29.0569    0.3994   29.6313 H   0  0  0  0  0  0  0  0  0  0  0  0
   30.8018    2.0850   28.5519 H   0  0  0  0  0  0  0  0  0  0  0  0
   28.3327    2.8360   28.7408 H   0  0  0  0  0  0  0  0  0  0  0  0
   31.3674    0.8024   31.7882 H   0  0  0  0  0  0  0  0  0  0  0  0
   30.0921   -0.6241   31.6365 H   0  0  0  0  0  0  0  0  0  0  0  0
   31.4448    3.7857   32.4477 H   0  0  0  0  0  0  0  0  0  0  0  0
   32.3566    3.2114   30.1866 H   0  0  0  0  0  0  0  0  0  0  0  0
  4  5  2  0
  5  6  1  0
  6  7  2  0
  2  7  1  0
  1  8  2  0
  1  9  1  0
 10 11  1  0
 11 12  1  0
 13 12  1  0
 14 13  1  0
 14 15  1  0
 16 15  1  0
 17 16  1  0
 17 18  1  0
 18 10  1  0
 18 13  1  0
 15 19  1  0
 16 19  1  0
 20 21  2  0
 14 20  1  0
 17 21  1  0
 12 22  2  0
 10 23  2  0
  9 11  1  0
  5 24  1  0
  1  2  1  0
 24 25  1  0
  2  3  2  0
 24 26  1  0
  3  4  1  0
 24 27  1  0
  3 28  1  0
  4 29  1  0
  6 30  1  0
  7 31  1  0
  9 32  1  0
 13 33  1  1
 14 34  1  6
 15 35  1  1
 16 36  1  1
 17 37  1  6
 18 38  1  1
 19 39  1  0
 19 40  1  0
 20 41  1  0
 21 42  1  0
M  END
> <Uni-Dock RESULT> 
ENERGY=   -3.935  LOWER_BOUND=    7.194  UPPER_BOUND=    9.926
INTER + INTRA:          -3.935
INTER:                  -3.935
INTRA:                   0.000
UNBOUND:                 0.000

$$$$

     RDKit          3D

 42 46  0  0  0  0  0  0  0  0999 V2000
   25.3362    3.9695   31.3140 C   0  0  0  0  0  0  0  0  0  0  0  0
   24.1441    4.8429   31.1874 C   0  0  0  0  0  0  0  0  0  0  0  0
   24.2617    6.1664   30.7270 C   0  0  0  0  0  0  0  0  0  0  0  0
   23.1327    6.9833   30.6178 C   0  0  0  0  0  0  0  0  0  0  0  0
   21.8657    6.5036   30.9884 C   0  0  0  0  0  0  0  0  0  0  0  0
   21.7444    5.1765   31.4319 C   0  0  0  0  0  0  0  0  0  0  0  0
   22.8728    4.3593   31.5424 C   0  0  0  0  0  0  0  0  0  0  0  0
   25.2771    2.9373   32.0365 O   0  0  0  0  0  0  0  0  0  0  0  0
   26.5434    4.2577   30.5933 N   0  0  0  0  0  0  0  0  0  0  0  0
   28.3019    3.5211   32.2397 C   0  0  0  0  0  0  0  0  0  0  0  0
   27.7705    3.6570   30.9291 N   0  0  0  0  0  0  0  0  0  0  0  0
   28.8476    3.4734   30.0264 C   0  0  0  0  0  0  0  0  0  0  0  0
   30.1292    3.1035   30.7113 C   0  0  2  0  0  0  0  0  0  0  0  0
   30.6371    1.6777   30.3277 C   0  0  1  0  0  0  0  0  0  0  0  0
   31.9189    1.4503   31.2012 C   0  0  1  0  0  0  0  0  0  0  0  0
   31.5450    1.4803   32.7091 C   0  0  1  0  0  0  0  0  0  0  0  0
   30.0060    1.7291   32.8735 C   0  0  1  0  0  0  0  0  0  0  0  0
   29.7506    3.1342   32.2427 C   0  0  2  0  0  0  0  0  0  0  0  0
   32.1001    0.2031   32.0716 C   0  0  0  0  0  0  0  0  0  0  0  0
   29.5541    0.6880   30.7383 C   0  0  0  0  0  0  0  0  0  0  0  0
   29.2304    0.7147   32.0428 C   0  0  0  0  0  0  0  0  0  0  0  0
   28.7322    3.6206   28.7807 O   0  0  0  0  0  0  0  0  0  0  0  0
   27.6439    3.7716   33.2841 O   0  0  0  0  0  0  0  0  0  0  0  0
   20.6420    7.3693   30.8227 C   0  0  0  0  0  0  0  0  0  0  0  0
   19.6729    7.0292   31.7508 F   0  0  0  0  0  0  0  0  0  0  0  0
   20.1293    7.1934   29.5511 F   0  0  0  0  0  0  0  0  0  0  0  0
   20.9602    8.7048   30.9999 F   0  0  0  0  0  0  0  0  0  0  0  0
   25.2257    6.5810   30.4634 H   0  0  0  0  0  0  0  0  0  0  0  0
   23.2516    7.9933   30.2456 H   0  0  0  0  0  0  0  0  0  0  0  0
   20.7753    4.7690   31.6917 H   0  0  0  0  0  0  0  0  0  0  0  0
   22.7473    3.3422   31.8925 H   0  0  0  0  0  0  0  0  0  0  0  0
   26.4788    4.8000   29.7029 H   0  0  0  0  0  0  0  0  0  0  0  0
   30.9026    3.8701   30.4836 H   0  0  0  0  0  0  0  0  0  0  0  0
   30.8709    1.5989   29.2449 H   0  0  0  0  0  0  0  0  0  0  0  0
   32.8284    2.0497   30.9816 H   0  0  0  0  0  0  0  0  0  0  0  0
   32.2524    2.0960   33.3054 H   0  0  0  0  0  0  0  0  0  0  0  0
   29.7059    1.6943   33.9422 H   0  0  0  0  0  0  0  0  0  0  0  0
   30.3385    3.9151   32.7742 H   0  0  0  0  0  0  0  0  0  0  0  0
   31.4008   -0.6418   31.9153 H   0  0  0  0  0  0  0  0  0  0  0  0
   33.1588    0.0025   32.3381 H   0  0  0  0  0  0  0  0  0  0  0  0
   29.0800    0.0100   30.0366 H   0  0  0  0  0  0  0  0  0  0  0  0
   28.4768    0.0598   32.4671 H   0  0  0  0  0  0  0  0  0  0  0  0
  4  5  2  0
  5  6  1  0
  6  7  2  0
  2  7  1  0
  1  8  2  0
  1  9  1  0
 10 11  1  0
 11 12  1  0
 13 12  1  0
 14 13  1  0
 14 15  1  0
 16 15  1  0
 17 16  1  0
 17 18  1  0
 18 10  1  0
 18 13  1  0
 15 19  1  0
 16 19  1  0
 20 21  2  0
 14 20  1  0
 17 21  1  0
 12 22  2  0
 10 23  2  0
  9 11  1  0
  5 24  1  0
  1  2  1  0
 24 25  1  0
  2  3  2  0
 24 26  1  0
  3  4  1  0
 24 27  1  0
  3 28  1  0
  4 29  1  0
  6 30  1  0
  7 31  1  0
  9 32  1  0
 13 33  1  1
 14 34  1  6
 15 35  1  1
 16 36  1  1
 17 37  1  6
 18 38  1  1
 19 39  1  0
 19 40  1  0
 20 41  1  0
 21 42  1  0
M  END
> <Uni-Dock RESULT> 
ENERGY=   -3.886  LOWER_BOUND=    4.569  UPPER_BOUND=    9.150
INTER + INTRA:          -3.886
INTER:                  -3.886
INTRA:                   0.000
UNBOUND:                 0.000

$$$$

     RDKit          3D

 42 46  0  0  0  0  0  0  0  0999 V2000
   25.7663    9.7698   18.6797 C   0  0  0  0  0  0  0  0  0  0  0  0
   24.4863    9.0544   18.9029 C   0  0  0  0  0  0  0  0  0  0  0  0
   24.3878    7.6663   18.7009 C   0  0  0  0  0  0  0  0  0  0  0  0
   23.1749    7.0028   18.9077 C   0  0  0  0  0  0  0  0  0  0  0  0
   22.0289    7.7151   19.2977 C   0  0  0  0  0  0  0  0  0  0  0  0
   22.1302    9.0987   19.5166 C   0  0  0  0  0  0  0  0  0  0  0  0
   23.3422    9.7631   19.3091 C   0  0  0  0  0  0  0  0  0  0  0  0
   25.7605   11.0215   18.5247 O   0  0  0  0  0  0  0  0  0  0  0  0
   27.0165    9.0650   18.6794 N   0  0  0  0  0  0  0  0  0  0  0  0
   28.3074   10.3283   16.9235 C   0  0  0  0  0  0  0  0  0  0  0  0
   28.1919    9.6373   18.1595 N   0  0  0  0  0  0  0  0  0  0  0  0
   29.5039    9.2716   18.5516 C   0  0  0  0  0  0  0  0  0  0  0  0
   30.5601    9.8021   17.6290 C   0  0  2  0  0  0  0  0  0  0  0  0
   31.5185   10.8225   18.3206 C   0  0  1  0  0  0  0  0  0  0  0  0
   32.4790   11.3176   17.1848 C   0  0  1  0  0  0  0  0  0  0  0  0
   31.6626   12.0399   16.0775 C   0  0  1  0  0  0  0  0  0  0  0  0
   30.1400   12.0414   16.4507 C   0  0  1  0  0  0  0  0  0  0  0  0
   29.7320   10.5354   16.5039 C   0  0  2  0  0  0  0  0  0  0  0  0
   32.7035   12.8056   16.8997 C   0  0  0  0  0  0  0  0  0  0  0  0
   30.6625   11.9836   18.8110 C   0  0  0  0  0  0  0  0  0  0  0  0
   29.9559   12.6078   17.8528 C   0  0  0  0  0  0  0  0  0  0  0  0
   29.7453    8.5632   19.5648 O   0  0  0  0  0  0  0  0  0  0  0  0
   27.3169   10.6641   16.2216 O   0  0  0  0  0  0  0  0  0  0  0  0
   20.7342    6.9908   19.5688 C   0  0  0  0  0  0  0  0  0  0  0  0
   19.6510    7.8175   19.3248 F   0  0  0  0  0  0  0  0  0  0  0  0
   20.7058    6.5898   20.8914 F   0  0  0  0  0  0  0  0  0  0  0  0
   20.6184    5.8758   18.7568 F   0  0  0  0  0  0  0  0  0  0  0  0
   25.2410    7.0897   18.3690 H   0  0  0  0  0  0  0  0  0  0  0  0
   23.1328    5.9310   18.7591 H   0  0  0  0  0  0  0  0  0  0  0  0
   21.2717    9.6678   19.8509 H   0  0  0  0  0  0  0  0  0  0  0  0
   23.3870   10.8314   19.4813 H   0  0  0  0  0  0  0  0  0  0  0  0
   27.0904    8.1742   19.2199 H   0  0  0  0  0  0  0  0  0  0  0  0
   31.1354    8.9517   17.2006 H   0  0  0  0  0  0  0  0  0  0  0  0
   32.0881   10.3572   19.1527 H   0  0  0  0  0  0  0  0  0  0  0  0
   33.2202   10.6049   16.7635 H   0  0  0  0  0  0  0  0  0  0  0  0
   31.9622   11.7180   15.0569 H   0  0  0  0  0  0  0  0  0  0  0  0
   29.5442   12.6056   15.7024 H   0  0  0  0  0  0  0  0  0  0  0  0
   29.8989   10.0491   15.5172 H   0  0  0  0  0  0  0  0  0  0  0  0
   32.3356   13.5359   17.6470 H   0  0  0  0  0  0  0  0  0  0  0  0
   33.6412   13.0102   16.3419 H   0  0  0  0  0  0  0  0  0  0  0  0
   30.6251   12.2886   19.8514 H   0  0  0  0  0  0  0  0  0  0  0  0
   29.3084   13.4516   18.0661 H   0  0  0  0  0  0  0  0  0  0  0  0
  4  5  2  0
  5  6  1  0
  6  7  2  0
  2  7  1  0
  1  8  2  0
  1  9  1  0
 10 11  1  0
 11 12  1  0
 13 12  1  0
 14 13  1  0
 14 15  1  0
 16 15  1  0
 17 16  1  0
 17 18  1  0
 18 10  1  0
 18 13  1  0
 15 19  1  0
 16 19  1  0
 20 21  2  0
 14 20  1  0
 17 21  1  0
 12 22  2  0
 10 23  2  0
  9 11  1  0
  5 24  1  0
  1  2  1  0
 24 25  1  0
  2  3  2  0
 24 26  1  0
  3  4  1  0
 24 27  1  0
  3 28  1  0
  4 29  1  0
  6 30  1  0
  7 31  1  0
  9 32  1  0
 13 33  1  1
 14 34  1  6
 15 35  1  1
 16 36  1  1
 17 37  1  6
 18 38  1  1
 19 39  1  0
 19 40  1  0
 20 41  1  0
 21 42  1  0
M  END
> <Uni-Dock RESULT> 
ENERGY=   -3.853  LOWER_BOUND=   13.994  UPPER_BOUND=   15.728
INTER + INTRA:          -3.853
INTER:                  -3.853
INTRA:                   0.000
UNBOUND:                 0.000

$$$$

     RDKit          3D

 42 46  0  0  0  0  0  0  0  0999 V2000
   27.0297    4.6407   31.0345 C   0  0  0  0  0  0  0  0  0  0  0  0
   27.9270    3.4647   31.1430 C   0  0  0  0  0  0  0  0  0  0  0  0
   27.4929    2.2770   31.7579 C   0  0  0  0  0  0  0  0  0  0  0  0
   28.3489    1.1766   31.8609 C   0  0  0  0  0  0  0  0  0  0  0  0
   29.6642    1.2471   31.3733 C   0  0  0  0  0  0  0  0  0  0  0  0
   30.0933    2.4268   30.7434 C   0  0  0  0  0  0  0  0  0  0  0  0
   29.2385    3.5278   30.6409 C   0  0  0  0  0  0  0  0  0  0  0  0
   27.5218    5.7798   30.8084 O   0  0  0  0  0  0  0  0  0  0  0  0
   25.6057    4.4961   31.1407 N   0  0  0  0  0  0  0  0  0  0  0  0
   24.9692    6.6265   32.3246 C   0  0  0  0  0  0  0  0  0  0  0  0
   24.7616    5.5990   31.3656 N   0  0  0  0  0  0  0  0  0  0  0  0
   23.3954    5.6532   30.9925 C   0  0  0  0  0  0  0  0  0  0  0  0
   22.6612    6.7985   31.6227 C   0  0  2  0  0  0  0  0  0  0  0  0
   22.1415    7.8384   30.5802 C   0  0  1  0  0  0  0  0  0  0  0  0
   21.4904    8.9824   31.4318 C   0  0  1  0  0  0  0  0  0  0  0  0
   22.5645    9.6465   32.3370 C   0  0  1  0  0  0  0  0  0  0  0  0
   23.9550    8.9592   32.1092 C   0  0  1  0  0  0  0  0  0  0  0  0
   23.7510    7.4734   32.5426 C   0  0  2  0  0  0  0  0  0  0  0  0
   21.8658   10.4547   31.2397 C   0  0  0  0  0  0  0  0  0  0  0  0
   23.3577    8.3794   29.8389 C   0  0  0  0  0  0  0  0  0  0  0  0
   24.2870    8.9533   30.6224 C   0  0  0  0  0  0  0  0  0  0  0  0
   22.8607    4.8135   30.2206 O   0  0  0  0  0  0  0  0  0  0  0  0
   26.0396    6.7626   32.9745 O   0  0  0  0  0  0  0  0  0  0  0  0
   30.5698    0.0431   31.4401 C   0  0  0  0  0  0  0  0  0  0  0  0
   31.8960    0.4322   31.5158 F   0  0  0  0  0  0  0  0  0  0  0  0
   30.3898   -0.7249   30.3050 F   0  0  0  0  0  0  0  0  0  0  0  0
   30.2806   -0.7250   32.5548 F   0  0  0  0  0  0  0  0  0  0  0  0
   26.4975    2.1967   32.1743 H   0  0  0  0  0  0  0  0  0  0  0  0
   27.9821    0.2700   32.3258 H   0  0  0  0  0  0  0  0  0  0  0  0
   31.0906    2.4977   30.3274 H   0  0  0  0  0  0  0  0  0  0  0  0
   29.6005    4.4251   30.1543 H   0  0  0  0  0  0  0  0  0  0  0  0
   25.1742    3.5794   30.8867 H   0  0  0  0  0  0  0  0  0  0  0  0
   21.8209    6.4041   32.2359 H   0  0  0  0  0  0  0  0  0  0  0  0
   21.4046    7.3905   29.8805 H   0  0  0  0  0  0  0  0  0  0  0  0
   20.5496    8.7685   31.9833 H   0  0  0  0  0  0  0  0  0  0  0  0
   22.2049    9.7921   33.3784 H   0  0  0  0  0  0  0  0  0  0  0  0
   24.7508    9.4579   32.7018 H   0  0  0  0  0  0  0  0  0  0  0  0
   23.4493    7.4149   33.6119 H   0  0  0  0  0  0  0  0  0  0  0  0
   22.4562   10.7243   30.3419 H   0  0  0  0  0  0  0  0  0  0  0  0
   21.1014   11.1584   31.6304 H   0  0  0  0  0  0  0  0  0  0  0  0
   23.4682    8.3118   28.7618 H   0  0  0  0  0  0  0  0  0  0  0  0
   25.1999    9.3810   30.2218 H   0  0  0  0  0  0  0  0  0  0  0  0
  4  5  2  0
  5  6  1  0
  6  7  2  0
  2  7  1  0
  1  8  2  0
  1  9  1  0
 10 11  1  0
 11 12  1  0
 13 12  1  0
 14 13  1  0
 14 15  1  0
 16 15  1  0
 17 16  1  0
 17 18  1  0
 18 10  1  0
 18 13  1  0
 15 19  1  0
 16 19  1  0
 20 21  2  0
 14 20  1  0
 17 21  1  0
 12 22  2  0
 10 23  2  0
  9 11  1  0
  5 24  1  0
  1  2  1  0
 24 25  1  0
  2  3  2  0
 24 26  1  0
  3  4  1  0
 24 27  1  0
  3 28  1  0
  4 29  1  0
  6 30  1  0
  7 31  1  0
  9 32  1  0
 13 33  1  1
 14 34  1  6
 15 35  1  1
 16 36  1  1
 17 37  1  6
 18 38  1  1
 19 39  1  0
 19 40  1  0
 20 41  1  0
 21 42  1  0
M  END
> <Uni-Dock RESULT> 
ENERGY=   -3.744  LOWER_BOUND=    1.428  UPPER_BOUND=    2.833
INTER + INTRA:          -3.744
INTER:                  -3.744
INTRA:                   0.000
UNBOUND:                 0.000

$$$$

     RDKit          3D

 42 46  0  0  0  0  0  0  0  0999 V2000
   28.2559   13.1126   22.9598 C   0  0  0  0  0  0  0  0  0  0  0  0
   28.7845   12.0654   22.0521 C   0  0  0  0  0  0  0  0  0  0  0  0
   27.9396   11.0764   21.5179 C   0  0  0  0  0  0  0  0  0  0  0  0
   28.4492   10.0899   20.6686 C   0  0  0  0  0  0  0  0  0  0  0  0
   29.8176   10.0562   20.3537 C   0  0  0  0  0  0  0  0  0  0  0  0
   30.6593   11.0537   20.8726 C   0  0  0  0  0  0  0  0  0  0  0  0
   30.1508   12.0397   21.7226 C   0  0  0  0  0  0  0  0  0  0  0  0
   29.0525   13.7615   23.6913 O   0  0  0  0  0  0  0  0  0  0  0  0
   26.8561   13.4284   22.9880 N   0  0  0  0  0  0  0  0  0  0  0  0
   26.5063   13.9530   25.4268 C   0  0  0  0  0  0  0  0  0  0  0  0
   26.2817   14.1650   24.0400 N   0  0  0  0  0  0  0  0  0  0  0  0
   25.0973   14.9351   23.9272 C   0  0  0  0  0  0  0  0  0  0  0  0
   24.5420   15.3534   25.2557 C   0  0  2  0  0  0  0  0  0  0  0  0
   24.5533   16.9011   25.4623 C   0  0  1  0  0  0  0  0  0  0  0  0
   24.0240   17.1239   26.9211 C   0  0  1  0  0  0  0  0  0  0  0  0
   24.9866   16.4564   27.9420 C   0  0  1  0  0  0  0  0  0  0  0  0
   26.1781   15.7735   27.1859 C   0  0  1  0  0  0  0  0  0  0  0  0
   25.5186   14.6757   26.2932 C   0  0  2  0  0  0  0  0  0  0  0  0
   24.7852   17.9747   27.9422 C   0  0  0  0  0  0  0  0  0  0  0  0
   26.0037   17.3578   25.3674 C   0  0  0  0  0  0  0  0  0  0  0  0
   26.8363   16.7796   26.2503 C   0  0  0  0  0  0  0  0  0  0  0  0
   24.5677   15.2220   22.8209 O   0  0  0  0  0  0  0  0  0  0  0  0
   27.3948   13.1810   25.8753 O   0  0  0  0  0  0  0  0  0  0  0  0
   30.3568    9.0218   19.3979 C   0  0  0  0  0  0  0  0  0  0  0  0
   31.6825    8.7398   19.6792 F   0  0  0  0  0  0  0  0  0  0  0  0
   30.2633    9.5040   18.1057 F   0  0  0  0  0  0  0  0  0  0  0  0
   29.6350    7.8446   19.4933 F   0  0  0  0  0  0  0  0  0  0  0  0
   26.8863   11.0510   21.7642 H   0  0  0  0  0  0  0  0  0  0  0  0
   27.7720    9.3503   20.2600 H   0  0  0  0  0  0  0  0  0  0  0  0
   31.7120   11.0728   20.6192 H   0  0  0  0  0  0  0  0  0  0  0  0
   30.8263   12.7920   22.1108 H   0  0  0  0  0  0  0  0  0  0  0  0
   26.2836   13.2466   22.1335 H   0  0  0  0  0  0  0  0  0  0  0  0
   23.5112   14.9501   25.3670 H   0  0  0  0  0  0  0  0  0  0  0  0
   23.9131   17.4227   24.7197 H   0  0  0  0  0  0  0  0  0  0  0  0
   22.9577   16.9028   27.1422 H   0  0  0  0  0  0  0  0  0  0  0  0
   24.4410   15.8743   28.7156 H   0  0  0  0  0  0  0  0  0  0  0  0
   26.9112   15.3416   27.8996 H   0  0  0  0  0  0  0  0  0  0  0  0
   24.9706   13.9377   26.9200 H   0  0  0  0  0  0  0  0  0  0  0  0
   25.6167   18.6057   27.5712 H   0  0  0  0  0  0  0  0  0  0  0  0
   24.1485   18.3340   28.7774 H   0  0  0  0  0  0  0  0  0  0  0  0
   26.3426   18.0944   24.6468 H   0  0  0  0  0  0  0  0  0  0  0  0
   27.8939   17.0171   26.2918 H   0  0  0  0  0  0  0  0  0  0  0  0
  4  5  2  0
  5  6  1  0
  6  7  2  0
  2  7  1  0
  1  8  2  0
  1  9  1  0
 10 11  1  0
 11 12  1  0
 13 12  1  0
 14 13  1  0
 14 15  1  0
 16 15  1  0
 17 16  1  0
 17 18  1  0
 18 10  1  0
 18 13  1  0
 15 19  1  0
 16 19  1  0
 20 21  2  0
 14 20  1  0
 17 21  1  0
 12 22  2  0
 10 23  2  0
  9 11  1  0
  5 24  1  0
  1  2  1  0
 24 25  1  0
  2  3  2  0
 24 26  1  0
  3  4  1  0
 24 27  1  0
  3 28  1  0
  4 29  1  0
  6 30  1  0
  7 31  1  0
  9 32  1  0
 13 33  1  1
 14 34  1  6
 15 35  1  1
 16 36  1  1
 17 37  1  6
 18 38  1  1
 19 39  1  0
 19 40  1  0
 20 41  1  0
 21 42  1  0
M  END
> <Uni-Dock RESULT> 
ENERGY=   -3.719  LOWER_BOUND=   11.159  UPPER_BOUND=   12.089
INTER + INTRA:          -3.719
INTER:                  -3.719
INTRA:                   0.000
UNBOUND:                 0.000

$$$$
