
     RDKit          3D

 42 46  0  0  0  0  0  0  0  0999 V2000
   25.3081    4.3928   31.6595 C   0  0  0  0  0  0  0  0  0  0  0  0
   26.4660    3.4755   31.5274 C   0  0  0  0  0  0  0  0  0  0  0  0
   26.5576    2.3316   32.3395 C   0  0  0  0  0  0  0  0  0  0  0  0
   27.6421    1.4582   32.2184 C   0  0  0  0  0  0  0  0  0  0  0  0
   28.6458    1.6954   31.2652 C   0  0  0  0  0  0  0  0  0  0  0  0
   28.5645    2.8465   30.4644 C   0  0  0  0  0  0  0  0  0  0  0  0
   27.4806    3.7211   30.5854 C   0  0  0  0  0  0  0  0  0  0  0  0
   24.2609    3.9934   32.2381 O   0  0  0  0  0  0  0  0  0  0  0  0
   25.3757    5.7427   31.1764 N   0  0  0  0  0  0  0  0  0  0  0  0
   23.0218    6.1031   30.3553 C   0  0  0  0  0  0  0  0  0  0  0  0
   24.2206    6.5240   30.9909 N   0  0  0  0  0  0  0  0  0  0  0  0
   24.1974    7.9409   31.0175 C   0  0  0  0  0  0  0  0  0  0  0  0
   22.9191    8.5159   30.4852 C   0  0  2  0  0  0  0  0  0  0  0  0
   22.1051    9.2977   31.5642 C   0  0  1  0  0  0  0  0  0  0  0  0
   20.7843    9.7369   30.8427 C   0  0  1  0  0  0  0  0  0  0  0  0
   19.9829    8.4835   30.3945 C   0  0  1  0  0  0  0  0  0  0  0  0
   20.7524    7.1813   30.8067 C   0  0  1  0  0  0  0  0  0  0  0  0
   22.1047    7.2437   30.0292 C   0  0  2  0  0  0  0  0  0  0  0  0
   19.4002    9.4481   31.4316 C   0  0  0  0  0  0  0  0  0  0  0  0
   21.7771    8.3147   32.6809 C   0  0  0  0  0  0  0  0  0  0  0  0
   21.0843    7.2300   32.2926 C   0  0  0  0  0  0  0  0  0  0  0  0
   25.1614    8.6357   31.4358 O   0  0  0  0  0  0  0  0  0  0  0  0
   22.7900    4.9073   30.0345 O   0  0  0  0  0  0  0  0  0  0  0  0
   29.8402    0.7799   31.1685 C   0  0  0  0  0  0  0  0  0  0  0  0
   30.3447    0.7687   29.8796 F   0  0  0  0  0  0  0  0  0  0  0  0
   29.4915   -0.5163   31.5072 F   0  0  0  0  0  0  0  0  0  0  0  0
   30.8237    1.2223   32.0333 F   0  0  0  0  0  0  0  0  0  0  0  0
   25.7970    2.1185   33.0804 H   0  0  0  0  0  0  0  0  0  0  0  0
   27.6965    0.5973   32.8731 H   0  0  0  0  0  0  0  0  0  0  0  0
   29.3385    3.0694   29.7408 H   0  0  0  0  0  0  0  0  0  0  0  0
   27.4353    4.5799   29.9288 H   0  0  0  0  0  0  0  0  0  0  0  0
   26.3092    6.2071   31.1141 H   0  0  0  0  0  0  0  0  0  0  0  0
   23.1446    9.1696   29.6137 H   0  0  0  0  0  0  0  0  0  0  0  0
   22.6639   10.1773   31.9477 H   0  0  0  0  0  0  0  0  0  0  0  0
   20.8427   10.5066   30.0434 H   0  0  0  0  0  0  0  0  0  0  0  0
   19.6076    8.5751   29.3526 H   0  0  0  0  0  0  0  0  0  0  0  0
   20.1686    6.2722   30.5497 H   0  0  0  0  0  0  0  0  0  0  0  0
   21.9250    7.2686   28.9315 H   0  0  0  0  0  0  0  0  0  0  0  0
   19.3480    9.1049   32.4838 H   0  0  0  0  0  0  0  0  0  0  0  0
   18.6029   10.1038   31.0237 H   0  0  0  0  0  0  0  0  0  0  0  0
   22.0747    8.4746   33.7117 H   0  0  0  0  0  0  0  0  0  0  0  0
   20.7840    6.4536   32.9883 H   0  0  0  0  0  0  0  0  0  0  0  0
  4  5  2  0
  5  6  1  0
  6  7  2  0
  2  7  1  0
  1  8  2  0
  1  9  1  0
 10 11  1  0
 11 12  1  0
 13 12  1  0
 14 13  1  0
 14 15  1  0
 16 15  1  0
 17 16  1  0
 17 18  1  0
 18 10  1  0
 18 13  1  0
 15 19  1  0
 16 19  1  0
 20 21  2  0
 14 20  1  0
 17 21  1  0
 12 22  2  0
 10 23  2  0
  9 11  1  0
  5 24  1  0
  1  2  1  0
 24 25  1  0
  2  3  2  0
 24 26  1  0
  3  4  1  0
 24 27  1  0
  3 28  1  0
  4 29  1  0
  6 30  1  0
  7 31  1  0
  9 32  1  0
 13 33  1  1
 14 34  1  1
 15 35  1  1
 16 36  1  1
 17 37  1  6
 18 38  1  1
 19 39  1  0
 19 40  1  0
 20 41  1  0
 21 42  1  0
M  END
> <Uni-Dock RESULT> 
ENERGY=   -4.359  LOWER_BOUND=    0.000  UPPER_BOUND=    0.000
INTER + INTRA:          -4.359
INTER:                  -4.359
INTRA:                   0.000
UNBOUND:                 0.000

$$$$

     RDKit          3D

 42 46  0  0  0  0  0  0  0  0999 V2000
   25.3248    4.3877   31.6657 C   0  0  0  0  0  0  0  0  0  0  0  0
   26.4791    3.4657   31.5346 C   0  0  0  0  0  0  0  0  0  0  0  0
   26.5704    2.3268   32.3537 C   0  0  0  0  0  0  0  0  0  0  0  0
   27.6515    1.4490   32.2337 C   0  0  0  0  0  0  0  0  0  0  0  0
   28.6518    1.6767   31.2746 C   0  0  0  0  0  0  0  0  0  0  0  0
   28.5709    2.8228   30.4667 C   0  0  0  0  0  0  0  0  0  0  0  0
   27.4905    3.7018   30.5867 C   0  0  0  0  0  0  0  0  0  0  0  0
   24.2788    3.9956   32.2514 O   0  0  0  0  0  0  0  0  0  0  0  0
   25.3948    5.7342   31.1736 N   0  0  0  0  0  0  0  0  0  0  0  0
   23.0386    6.0971   30.3602 C   0  0  0  0  0  0  0  0  0  0  0  0
   24.2415    6.5182   30.9879 N   0  0  0  0  0  0  0  0  0  0  0  0
   24.2231    7.9353   31.0054 C   0  0  0  0  0  0  0  0  0  0  0  0
   22.9444    8.5110   30.4748 C   0  0  2  0  0  0  0  0  0  0  0  0
   22.1376    9.3025   31.5522 C   0  0  1  0  0  0  0  0  0  0  0  0
   20.8152    9.7415   30.8336 C   0  0  1  0  0  0  0  0  0  0  0  0
   20.0078    8.4878   30.3969 C   0  0  1  0  0  0  0  0  0  0  0  0
   20.7747    7.1858   30.8143 C   0  0  1  0  0  0  0  0  0  0  0  0
   22.1238    7.2387   30.0306 C   0  0  2  0  0  0  0  0  0  0  0  0
   19.4327    9.4611   31.4302 C   0  0  0  0  0  0  0  0  0  0  0  0
   21.8112    8.3278   32.6767 C   0  0  0  0  0  0  0  0  0  0  0  0
   21.1132    7.2430   32.2985 C   0  0  0  0  0  0  0  0  0  0  0  0
   25.1912    8.6295   31.4150 O   0  0  0  0  0  0  0  0  0  0  0  0
   22.8015    4.9000   30.0482 O   0  0  0  0  0  0  0  0  0  0  0  0
   29.8429    0.7566   31.1788 C   0  0  0  0  0  0  0  0  0  0  0  0
   30.3418    0.7354   29.8878 F   0  0  0  0  0  0  0  0  0  0  0  0
   29.4913   -0.5362   31.5273 F   0  0  0  0  0  0  0  0  0  0  0  0
   30.8314    1.2013   32.0364 F   0  0  0  0  0  0  0  0  0  0  0  0
   25.8123    2.1211   33.0993 H   0  0  0  0  0  0  0  0  0  0  0  0
   27.7059    0.5922   32.8936 H   0  0  0  0  0  0  0  0  0  0  0  0
   29.3426    3.0385   29.7383 H   0  0  0  0  0  0  0  0  0  0  0  0
   27.4452    4.5565   29.9247 H   0  0  0  0  0  0  0  0  0  0  0  0
   26.3296    6.1950   31.1042 H   0  0  0  0  0  0  0  0  0  0  0  0
   23.1683    9.1583   29.5981 H   0  0  0  0  0  0  0  0  0  0  0  0
   22.7010   10.1827   31.9276 H   0  0  0  0  0  0  0  0  0  0  0  0
   20.8727   10.5058   30.0290 H   0  0  0  0  0  0  0  0  0  0  0  0
   19.6283    8.5739   29.3560 H   0  0  0  0  0  0  0  0  0  0  0  0
   20.1868    6.2770   30.5657 H   0  0  0  0  0  0  0  0  0  0  0  0
   21.9395    7.2570   28.9336 H   0  0  0  0  0  0  0  0  0  0  0  0
   19.3839    9.1249   32.4848 H   0  0  0  0  0  0  0  0  0  0  0  0
   18.6359   10.1167   31.0215 H   0  0  0  0  0  0  0  0  0  0  0  0
   22.1138    8.4935   33.7052 H   0  0  0  0  0  0  0  0  0  0  0  0
   20.8133    6.4721   33.0004 H   0  0  0  0  0  0  0  0  0  0  0  0
  4  5  2  0
  5  6  1  0
  6  7  2  0
  2  7  1  0
  1  8  2  0
  1  9  1  0
 10 11  1  0
 11 12  1  0
 13 12  1  0
 14 13  1  0
 14 15  1  0
 16 15  1  0
 17 16  1  0
 17 18  1  0
 18 10  1  0
 18 13  1  0
 15 19  1  0
 16 19  1  0
 20 21  2  0
 14 20  1  0
 17 21  1  0
 12 22  2  0
 10 23  2  0
  9 11  1  0
  5 24  1  0
  1  2  1  0
 24 25  1  0
  2  3  2  0
 24 26  1  0
  3  4  1  0
 24 27  1  0
  3 28  1  0
  4 29  1  0
  6 30  1  0
  7 31  1  0
  9 32  1  0
 13 33  1  1
 14 34  1  1
 15 35  1  1
 16 36  1  1
 17 37  1  6
 18 38  1  1
 19 39  1  0
 19 40  1  0
 20 41  1  0
 21 42  1  0
M  END
> <Uni-Dock RESULT> 
ENERGY=   -4.358  LOWER_BOUND=    0.026  UPPER_BOUND=    0.026
INTER + INTRA:          -4.358
INTER:                  -4.358
INTRA:                   0.000
UNBOUND:                 0.000

$$$$

     RDKit          3D

 42 46  0  0  0  0  0  0  0  0999 V2000
   25.9577    5.1284   31.3262 C   0  0  0  0  0  0  0  0  0  0  0  0
   24.6483    5.7839   31.0903 C   0  0  0  0  0  0  0  0  0  0  0  0
   24.5035    7.1672   31.2950 C   0  0  0  0  0  0  0  0  0  0  0  0
   23.2750    7.7948   31.0700 C   0  0  0  0  0  0  0  0  0  0  0  0
   22.1712    7.0578   30.6109 C   0  0  0  0  0  0  0  0  0  0  0  0
   22.3095    5.6729   30.4218 C   0  0  0  0  0  0  0  0  0  0  0  0
   23.5375    5.0442   30.6474 C   0  0  0  0  0  0  0  0  0  0  0  0
   27.0040    5.8306   31.3803 O   0  0  0  0  0  0  0  0  0  0  0  0
   26.0476    3.7114   31.5361 N   0  0  0  0  0  0  0  0  0  0  0  0
   28.2324    3.1716   30.4046 C   0  0  0  0  0  0  0  0  0  0  0  0
   27.2703    3.0222   31.4391 N   0  0  0  0  0  0  0  0  0  0  0  0
   27.5553    1.7977   32.0934 C   0  0  0  0  0  0  0  0  0  0  0  0
   28.7946    1.1315   31.5754 C   0  0  2  0  0  0  0  0  0  0  0  0
   29.9241    1.0240   32.6482 C   0  0  1  0  0  0  0  0  0  0  0  0
   31.1444    0.3888   31.8964 C   0  0  1  0  0  0  0  0  0  0  0  0
   31.6065    1.3274   30.7476 C   0  0  1  0  0  0  0  0  0  0  0  0
   30.7038    2.6085   30.7081 C   0  0  1  0  0  0  0  0  0  0  0  0
   29.2644    2.0837   30.4083 C   0  0  2  0  0  0  0  0  0  0  0  0
   32.5381    1.0234   31.9247 C   0  0  0  0  0  0  0  0  0  0  0  0
   30.2705    2.4430   33.0812 C   0  0  0  0  0  0  0  0  0  0  0  0
   30.6696    3.2550   32.0870 C   0  0  0  0  0  0  0  0  0  0  0  0
   26.8290    1.3215   33.0059 O   0  0  0  0  0  0  0  0  0  0  0  0
   28.1789    4.0800   29.5337 O   0  0  0  0  0  0  0  0  0  0  0  0
   20.8334    7.7261   30.4154 C   0  0  0  0  0  0  0  0  0  0  0  0
   20.1037    7.0812   29.4318 F   0  0  0  0  0  0  0  0  0  0  0  0
   20.9977    9.0471   30.0354 F   0  0  0  0  0  0  0  0  0  0  0  0
   20.1259    7.6834   31.6022 F   0  0  0  0  0  0  0  0  0  0  0  0
   25.3373    7.7637   31.6439 H   0  0  0  0  0  0  0  0  0  0  0  0
   23.1881    8.8578   31.2576 H   0  0  0  0  0  0  0  0  0  0  0  0
   21.4676    5.0751   30.0956 H   0  0  0  0  0  0  0  0  0  0  0  0
   23.6148    3.9814   30.4594 H   0  0  0  0  0  0  0  0  0  0  0  0
   25.2192    3.2083   31.9254 H   0  0  0  0  0  0  0  0  0  0  0  0
   28.5331    0.1254   31.1788 H   0  0  0  0  0  0  0  0  0  0  0  0
   29.6161    0.3987   33.5126 H   0  0  0  0  0  0  0  0  0  0  0  0
   31.0788   -0.6719   31.5720 H   0  0  0  0  0  0  0  0  0  0  0  0
   31.7910    0.7745   29.8016 H   0  0  0  0  0  0  0  0  0  0  0  0
   31.0541    3.3222   29.9326 H   0  0  0  0  0  0  0  0  0  0  0  0
   29.2375    1.5482   29.4335 H   0  0  0  0  0  0  0  0  0  0  0  0
   32.7225    1.8321   32.6592 H   0  0  0  0  0  0  0  0  0  0  0  0
   33.3509    0.3118   31.6702 H   0  0  0  0  0  0  0  0  0  0  0  0
   30.2047    2.7763   34.1115 H   0  0  0  0  0  0  0  0  0  0  0  0
   30.9482    4.2893   32.2590 H   0  0  0  0  0  0  0  0  0  0  0  0
  4  5  2  0
  5  6  1  0
  6  7  2  0
  2  7  1  0
  1  8  2  0
  1  9  1  0
 10 11  1  0
 11 12  1  0
 13 12  1  0
 14 13  1  0
 14 15  1  0
 16 15  1  0
 17 16  1  0
 17 18  1  0
 18 10  1  0
 18 13  1  0
 15 19  1  0
 16 19  1  0
 20 21  2  0
 14 20  1  0
 17 21  1  0
 12 22  2  0
 10 23  2  0
  9 11  1  0
  5 24  1  0
  1  2  1  0
 24 25  1  0
  2  3  2  0
 24 26  1  0
  3  4  1  0
 24 27  1  0
  3 28  1  0
  4 29  1  0
  6 30  1  0
  7 31  1  0
  9 32  1  0
 13 33  1  1
 14 34  1  1
 15 35  1  1
 16 36  1  1
 17 37  1  6
 18 38  1  1
 19 39  1  0
 19 40  1  0
 20 41  1  0
 21 42  1  0
M  END
> <Uni-Dock RESULT> 
ENERGY=   -4.176  LOWER_BOUND=    4.572  UPPER_BOUND=    9.238
INTER + INTRA:          -4.176
INTER:                  -4.176
INTRA:                   0.000
UNBOUND:                 0.000

$$$$

     RDKit          3D

 42 46  0  0  0  0  0  0  0  0999 V2000
   30.4852    7.6805   28.5064 C   0  0  0  0  0  0  0  0  0  0  0  0
   30.3655    9.0184   27.8775 C   0  0  0  0  0  0  0  0  0  0  0  0
   31.5174    9.7116   27.4663 C   0  0  0  0  0  0  0  0  0  0  0  0
   31.4144   10.9704   26.8676 C   0  0  0  0  0  0  0  0  0  0  0  0
   30.1562   11.5526   26.6435 C   0  0  0  0  0  0  0  0  0  0  0  0
   29.0052   10.8689   27.0686 C   0  0  0  0  0  0  0  0  0  0  0  0
   29.1073    9.6103   27.6683 C   0  0  0  0  0  0  0  0  0  0  0  0
   31.5542    7.0242   28.3738 O   0  0  0  0  0  0  0  0  0  0  0  0
   29.4187    7.1386   29.2994 N   0  0  0  0  0  0  0  0  0  0  0  0
   29.5712    4.6869   28.7419 C   0  0  0  0  0  0  0  0  0  0  0  0
   29.3610    5.7731   29.6331 N   0  0  0  0  0  0  0  0  0  0  0  0
   28.6893    5.2518   30.7671 C   0  0  0  0  0  0  0  0  0  0  0  0
   28.5181    3.7632   30.7135 C   0  0  2  0  0  0  0  0  0  0  0  0
   29.2907    3.0183   31.8475 C   0  0  1  0  0  0  0  0  0  0  0  0
   29.0590    1.4932   31.5681 C   0  0  1  0  0  0  0  0  0  0  0  0
   29.6628    1.1090   30.1889 C   0  0  1  0  0  0  0  0  0  0  0  0
   30.3097    2.3700   29.5186 C   0  0  1  0  0  0  0  0  0  0  0  0
   29.1306    3.3722   29.3129 C   0  0  2  0  0  0  0  0  0  0  0  0
   30.2185    0.4966   31.4780 C   0  0  0  0  0  0  0  0  0  0  0  0
   30.7679    3.3518   31.6803 C   0  0  0  0  0  0  0  0  0  0  0  0
   31.2899    3.0199   30.4868 C   0  0  0  0  0  0  0  0  0  0  0  0
   28.2727    5.9748   31.7108 O   0  0  0  0  0  0  0  0  0  0  0  0
   30.0119    4.8265   27.5702 O   0  0  0  0  0  0  0  0  0  0  0  0
   30.0478   12.9316   26.0426 C   0  0  0  0  0  0  0  0  0  0  0  0
   28.8589   13.0700   25.3474 F   0  0  0  0  0  0  0  0  0  0  0  0
   31.0917   13.1654   25.1639 F   0  0  0  0  0  0  0  0  0  0  0  0
   30.0907   13.8731   27.0537 F   0  0  0  0  0  0  0  0  0  0  0  0
   32.5016    9.2869   27.6208 H   0  0  0  0  0  0  0  0  0  0  0  0
   32.3205   11.4898   26.5817 H   0  0  0  0  0  0  0  0  0  0  0  0
   28.0239   11.3065   26.9343 H   0  0  0  0  0  0  0  0  0  0  0  0
   28.1970    9.0993   27.9528 H   0  0  0  0  0  0  0  0  0  0  0  0
   28.7600    7.7973   29.7717 H   0  0  0  0  0  0  0  0  0  0  0  0
   27.4339    3.5162   30.7495 H   0  0  0  0  0  0  0  0  0  0  0  0
   28.9213    3.3018   32.8556 H   0  0  0  0  0  0  0  0  0  0  0  0
   28.0410    1.0721   31.7133 H   0  0  0  0  0  0  0  0  0  0  0  0
   28.9715    0.4800   29.5879 H   0  0  0  0  0  0  0  0  0  0  0  0
   30.8010    2.1059   28.5582 H   0  0  0  0  0  0  0  0  0  0  0  0
   28.3497    2.9292   28.6558 H   0  0  0  0  0  0  0  0  0  0  0  0
   31.2168    0.8333   31.8210 H   0  0  0  0  0  0  0  0  0  0  0  0
   29.9064   -0.5570   31.6348 H   0  0  0  0  0  0  0  0  0  0  0  0
   31.3578    3.8182   32.4621 H   0  0  0  0  0  0  0  0  0  0  0  0
   32.3304    3.2000   30.2383 H   0  0  0  0  0  0  0  0  0  0  0  0
  4  5  2  0
  5  6  1  0
  6  7  2  0
  2  7  1  0
  1  8  2  0
  1  9  1  0
 10 11  1  0
 11 12  1  0
 13 12  1  0
 14 13  1  0
 14 15  1  0
 16 15  1  0
 17 16  1  0
 17 18  1  0
 18 10  1  0
 18 13  1  0
 15 19  1  0
 16 19  1  0
 20 21  2  0
 14 20  1  0
 17 21  1  0
 12 22  2  0
 10 23  2  0
  9 11  1  0
  5 24  1  0
  1  2  1  0
 24 25  1  0
  2  3  2  0
 24 26  1  0
  3  4  1  0
 24 27  1  0
  3 28  1  0
  4 29  1  0
  6 30  1  0
  7 31  1  0
  9 32  1  0
 13 33  1  1
 14 34  1  1
 15 35  1  1
 16 36  1  1
 17 37  1  6
 18 38  1  1
 19 39  1  0
 19 40  1  0
 20 41  1  0
 21 42  1  0
M  END
> <Uni-Dock RESULT> 
ENERGY=   -3.993  LOWER_BOUND=    7.212  UPPER_BOUND=    9.939
INTER + INTRA:          -3.993
INTER:                  -3.993
INTRA:                   0.000
UNBOUND:                 0.000

$$$$

     RDKit          3D

 42 46  0  0  0  0  0  0  0  0999 V2000
   30.7206    7.7948   28.7044 C   0  0  0  0  0  0  0  0  0  0  0  0
   31.5965    8.6911   27.9111 C   0  0  0  0  0  0  0  0  0  0  0  0
   31.2105   10.0204   27.6656 C   0  0  0  0  0  0  0  0  0  0  0  0
   32.0317   10.8742   26.9239 C   0  0  0  0  0  0  0  0  0  0  0  0
   33.2687   10.4254   26.4331 C   0  0  0  0  0  0  0  0  0  0  0  0
   33.6484    9.0929   26.6632 C   0  0  0  0  0  0  0  0  0  0  0  0
   32.8272    8.2379   27.4041 C   0  0  0  0  0  0  0  0  0  0  0  0
   29.8167    8.2915   29.4305 O   0  0  0  0  0  0  0  0  0  0  0  0
   30.8580    6.3683   28.6262 N   0  0  0  0  0  0  0  0  0  0  0  0
   30.3399    5.6811   30.9935 C   0  0  0  0  0  0  0  0  0  0  0  0
   30.2832    5.5130   29.5840 N   0  0  0  0  0  0  0  0  0  0  0  0
   29.9300    4.1615   29.3439 C   0  0  0  0  0  0  0  0  0  0  0  0
   29.6364    3.4005   30.6020 C   0  0  2  0  0  0  0  0  0  0  0  0
   28.1544    2.9171   30.6914 C   0  0  1  0  0  0  0  0  0  0  0  0
   28.0311    2.2309   32.0957 C   0  0  1  0  0  0  0  0  0  0  0  0
   28.3079    3.2682   33.2189 C   0  0  1  0  0  0  0  0  0  0  0  0
   28.6226    4.6684   32.5878 C   0  0  1  0  0  0  0  0  0  0  0  0
   29.9177    4.4530   31.7433 C   0  0  2  0  0  0  0  0  0  0  0  0
   26.9315    2.6086   33.0926 C   0  0  0  0  0  0  0  0  0  0  0  0
   27.2722    4.1584   30.6479 C   0  0  0  0  0  0  0  0  0  0  0  0
   27.5124    5.0560   31.6194 C   0  0  0  0  0  0  0  0  0  0  0  0
   29.8828    3.6588   28.1898 O   0  0  0  0  0  0  0  0  0  0  0  0
   30.7698    6.7258   31.5506 O   0  0  0  0  0  0  0  0  0  0  0  0
   34.1317   11.3317   25.5915 C   0  0  0  0  0  0  0  0  0  0  0  0
   35.4689   11.0029   25.7324 F   0  0  0  0  0  0  0  0  0  0  0  0
   33.9693   12.6529   25.9714 F   0  0  0  0  0  0  0  0  0  0  0  0
   33.7724   11.1975   24.2635 F   0  0  0  0  0  0  0  0  0  0  0  0
   30.2649   10.3977   28.0350 H   0  0  0  0  0  0  0  0  0  0  0  0
   31.6975   11.8863   26.7323 H   0  0  0  0  0  0  0  0  0  0  0  0
   34.5835    8.7117   26.2725 H   0  0  0  0  0  0  0  0  0  0  0  0
   33.1680    7.2278   27.5891 H   0  0  0  0  0  0  0  0  0  0  0  0
   31.2552    5.9495   27.7556 H   0  0  0  0  0  0  0  0  0  0  0  0
   30.3358    2.5391   30.6825 H   0  0  0  0  0  0  0  0  0  0  0  0
   27.9000    2.2084   29.8753 H   0  0  0  0  0  0  0  0  0  0  0  0
   28.5628    1.2708   32.2697 H   0  0  0  0  0  0  0  0  0  0  0  0
   28.9894    2.8693   34.0007 H   0  0  0  0  0  0  0  0  0  0  0  0
   28.7644    5.4398   33.3740 H   0  0  0  0  0  0  0  0  0  0  0  0
   30.7556    4.1115   32.3908 H   0  0  0  0  0  0  0  0  0  0  0  0
   26.0924    3.2315   32.7246 H   0  0  0  0  0  0  0  0  0  0  0  0
   26.7456    1.8280   33.8594 H   0  0  0  0  0  0  0  0  0  0  0  0
   26.5060    4.3095   29.8949 H   0  0  0  0  0  0  0  0  0  0  0  0
   26.9537    5.9819   31.7050 H   0  0  0  0  0  0  0  0  0  0  0  0
  4  5  2  0
  5  6  1  0
  6  7  2  0
  2  7  1  0
  1  8  2  0
  1  9  1  0
 10 11  1  0
 11 12  1  0
 13 12  1  0
 14 13  1  0
 14 15  1  0
 16 15  1  0
 17 16  1  0
 17 18  1  0
 18 10  1  0
 18 13  1  0
 15 19  1  0
 16 19  1  0
 20 21  2  0
 14 20  1  0
 17 21  1  0
 12 22  2  0
 10 23  2  0
  9 11  1  0
  5 24  1  0
  1  2  1  0
 24 25  1  0
  2  3  2  0
 24 26  1  0
  3  4  1  0
 24 27  1  0
  3 28  1  0
  4 29  1  0
  6 30  1  0
  7 31  1  0
  9 32  1  0
 13 33  1  1
 14 34  1  1
 15 35  1  1
 16 36  1  1
 17 37  1  6
 18 38  1  1
 19 39  1  0
 19 40  1  0
 20 41  1  0
 21 42  1  0
M  END
> <Uni-Dock RESULT> 
ENERGY=   -3.943  LOWER_BOUND=    6.851  UPPER_BOUND=    9.414
INTER + INTRA:          -3.943
INTER:                  -3.943
INTRA:                   0.000
UNBOUND:                 0.000

$$$$

     RDKit          3D

 42 46  0  0  0  0  0  0  0  0999 V2000
   25.3356    3.9694   31.3144 C   0  0  0  0  0  0  0  0  0  0  0  0
   24.1438    4.8430   31.1875 C   0  0  0  0  0  0  0  0  0  0  0  0
   22.8724    4.3598   31.5430 C   0  0  0  0  0  0  0  0  0  0  0  0
   21.7441    5.1773   31.4322 C   0  0  0  0  0  0  0  0  0  0  0  0
   21.8657    6.5041   30.9880 C   0  0  0  0  0  0  0  0  0  0  0  0
   23.1327    6.9834   30.6168 C   0  0  0  0  0  0  0  0  0  0  0  0
   24.2616    6.1661   30.7264 C   0  0  0  0  0  0  0  0  0  0  0  0
   25.2764    2.9375   32.0373 O   0  0  0  0  0  0  0  0  0  0  0  0
   26.5429    4.2570   30.5934 N   0  0  0  0  0  0  0  0  0  0  0  0
   28.3013    3.5208   32.2399 C   0  0  0  0  0  0  0  0  0  0  0  0
   27.7699    3.6562   30.9294 N   0  0  0  0  0  0  0  0  0  0  0  0
   28.8470    3.4720   30.0268 C   0  0  0  0  0  0  0  0  0  0  0  0
   30.1284    3.1021   30.7117 C   0  0  2  0  0  0  0  0  0  0  0  0
   30.6362    1.6761   30.3286 C   0  0  1  0  0  0  0  0  0  0  0  0
   31.9179    1.4489   31.2024 C   0  0  1  0  0  0  0  0  0  0  0  0
   31.5441    1.4796   32.7102 C   0  0  1  0  0  0  0  0  0  0  0  0
   30.0050    1.7288   32.8745 C   0  0  1  0  0  0  0  0  0  0  0  0
   29.7500    3.1336   32.2432 C   0  0  2  0  0  0  0  0  0  0  0  0
   32.0989    0.2021   32.0733 C   0  0  0  0  0  0  0  0  0  0  0  0
   29.5530    0.6868   30.7398 C   0  0  0  0  0  0  0  0  0  0  0  0
   29.2293    0.7141   32.0442 C   0  0  0  0  0  0  0  0  0  0  0  0
   28.7315    3.6185   28.7809 O   0  0  0  0  0  0  0  0  0  0  0  0
   27.6435    3.7720   33.2844 O   0  0  0  0  0  0  0  0  0  0  0  0
   20.6422    7.3700   30.8220 C   0  0  0  0  0  0  0  0  0  0  0  0
   20.9607    8.7055   30.9982 F   0  0  0  0  0  0  0  0  0  0  0  0
   19.6734    7.0308   31.7509 F   0  0  0  0  0  0  0  0  0  0  0  0
   20.1289    7.1932   29.5508 F   0  0  0  0  0  0  0  0  0  0  0  0
   22.7467    3.3428   31.8936 H   0  0  0  0  0  0  0  0  0  0  0  0
   20.7750    4.7701   31.6924 H   0  0  0  0  0  0  0  0  0  0  0  0
   23.2518    7.9930   30.2442 H   0  0  0  0  0  0  0  0  0  0  0  0
   25.2256    6.5804   30.4624 H   0  0  0  0  0  0  0  0  0  0  0  0
   26.4784    4.7987   29.7027 H   0  0  0  0  0  0  0  0  0  0  0  0
   30.9020    3.8686   30.4837 H   0  0  0  0  0  0  0  0  0  0  0  0
   30.8698    1.5967   29.2459 H   0  0  0  0  0  0  0  0  0  0  0  0
   32.8275    2.0480   30.9824 H   0  0  0  0  0  0  0  0  0  0  0  0
   32.2515    2.0953   33.3061 H   0  0  0  0  0  0  0  0  0  0  0  0
   29.7051    1.6945   33.9432 H   0  0  0  0  0  0  0  0  0  0  0  0
   30.3380    3.9146   32.7742 H   0  0  0  0  0  0  0  0  0  0  0  0
   31.3994   -0.6429   31.9173 H   0  0  0  0  0  0  0  0  0  0  0  0
   33.1575    0.0014   32.3398 H   0  0  0  0  0  0  0  0  0  0  0  0
   29.0788    0.0086   30.0384 H   0  0  0  0  0  0  0  0  0  0  0  0
   28.4756    0.0595   32.4689 H   0  0  0  0  0  0  0  0  0  0  0  0
  4  5  2  0
  5  6  1  0
  6  7  2  0
  2  7  1  0
  1  8  2  0
  1  9  1  0
 10 11  1  0
 11 12  1  0
 13 12  1  0
 14 13  1  0
 14 15  1  0
 16 15  1  0
 17 16  1  0
 17 18  1  0
 18 10  1  0
 18 13  1  0
 15 19  1  0
 16 19  1  0
 20 21  2  0
 14 20  1  0
 17 21  1  0
 12 22  2  0
 10 23  2  0
  9 11  1  0
  5 24  1  0
  1  2  1  0
 24 25  1  0
  2  3  2  0
 24 26  1  0
  3  4  1  0
 24 27  1  0
  3 28  1  0
  4 29  1  0
  6 30  1  0
  7 31  1  0
  9 32  1  0
 13 33  1  1
 14 34  1  1
 15 35  1  1
 16 36  1  1
 17 37  1  6
 18 38  1  1
 19 39  1  0
 19 40  1  0
 20 41  1  0
 21 42  1  0
M  END
> <Uni-Dock RESULT> 
ENERGY=   -3.882  LOWER_BOUND=    4.572  UPPER_BOUND=    9.146
INTER + INTRA:          -3.882
INTER:                  -3.882
INTRA:                   0.000
UNBOUND:                 0.000

$$$$

     RDKit          3D

 42 46  0  0  0  0  0  0  0  0999 V2000
   25.9692    9.8478   18.6832 C   0  0  0  0  0  0  0  0  0  0  0  0
   24.6706    9.1672   18.9070 C   0  0  0  0  0  0  0  0  0  0  0  0
   23.5472    9.9059   19.3178 C   0  0  0  0  0  0  0  0  0  0  0  0
   22.3178    9.2743   19.5258 C   0  0  0  0  0  0  0  0  0  0  0  0
   22.1780    7.8948   19.3030 C   0  0  0  0  0  0  0  0  0  0  0  0
   23.3033    7.1524   18.9085 C   0  0  0  0  0  0  0  0  0  0  0  0
   24.5335    7.7830   18.7011 C   0  0  0  0  0  0  0  0  0  0  0  0
   25.9975   11.0997   18.5321 O   0  0  0  0  0  0  0  0  0  0  0  0
   27.1997    9.1089   18.6780 N   0  0  0  0  0  0  0  0  0  0  0  0
   28.5211   10.3417   16.9233 C   0  0  0  0  0  0  0  0  0  0  0  0
   28.3892    9.6504   18.1574 N   0  0  0  0  0  0  0  0  0  0  0  0
   29.6915    9.2474   18.5453 C   0  0  0  0  0  0  0  0  0  0  0  0
   30.7599    9.7517   17.6221 C   0  0  2  0  0  0  0  0  0  0  0  0
   31.7475   10.7431   18.3147 C   0  0  1  0  0  0  0  0  0  0  0  0
   32.7188   11.2152   17.1782 C   0  0  1  0  0  0  0  0  0  0  0  0
   31.9202   11.9631   16.0750 C   0  0  1  0  0  0  0  0  0  0  0  0
   30.3990   12.0053   16.4517 C   0  0  1  0  0  0  0  0  0  0  0  0
   29.9499   10.5110   16.5010 C   0  0  2  0  0  0  0  0  0  0  0  0
   32.9836   12.6973   16.8972 C   0  0  0  0  0  0  0  0  0  0  0  0
   30.9249   11.9256   18.8106 C   0  0  0  0  0  0  0  0  0  0  0  0
   30.2336   12.5721   17.8560 C   0  0  0  0  0  0  0  0  0  0  0  0
   29.9156    8.5296   19.5559 O   0  0  0  0  0  0  0  0  0  0  0  0
   27.5387   10.7068   16.2245 O   0  0  0  0  0  0  0  0  0  0  0  0
   20.8645    7.2055   19.5747 C   0  0  0  0  0  0  0  0  0  0  0  0
   20.7165    6.0964   18.7599 F   0  0  0  0  0  0  0  0  0  0  0  0
   19.8039    8.0623   19.3349 F   0  0  0  0  0  0  0  0  0  0  0  0
   20.8275    6.8018   20.8962 F   0  0  0  0  0  0  0  0  0  0  0  0
   23.6217   10.9720   19.4931 H   0  0  0  0  0  0  0  0  0  0  0  0
   21.4759    9.8658   19.8636 H   0  0  0  0  0  0  0  0  0  0  0  0
   23.2314    6.0826   18.7568 H   0  0  0  0  0  0  0  0  0  0  0  0
   25.3699    7.1841   18.3656 H   0  0  0  0  0  0  0  0  0  0  0  0
   27.2502    8.2148   19.2157 H   0  0  0  0  0  0  0  0  0  0  0  0
   31.3106    8.8870   17.1897 H   0  0  0  0  0  0  0  0  0  0  0  0
   32.3059   10.2597   19.1441 H   0  0  0  0  0  0  0  0  0  0  0  0
   33.4392   10.4838   16.7530 H   0  0  0  0  0  0  0  0  0  0  0  0
   32.2086   11.6364   15.0529 H   0  0  0  0  0  0  0  0  0  0  0  0
   29.8174   12.5881   15.7065 H   0  0  0  0  0  0  0  0  0  0  0  0
   30.1012   10.0233   15.5125 H   0  0  0  0  0  0  0  0  0  0  0  0
   32.6374   13.4352   17.6477 H   0  0  0  0  0  0  0  0  0  0  0  0
   33.9252   12.8778   16.3379 H   0  0  0  0  0  0  0  0  0  0  0  0
   30.8982   12.2283   19.8519 H   0  0  0  0  0  0  0  0  0  0  0  0
   29.6100   13.4328   18.0733 H   0  0  0  0  0  0  0  0  0  0  0  0
  4  5  2  0
  5  6  1  0
  6  7  2  0
  2  7  1  0
  1  8  2  0
  1  9  1  0
 10 11  1  0
 11 12  1  0
 13 12  1  0
 14 13  1  0
 14 15  1  0
 16 15  1  0
 17 16  1  0
 17 18  1  0
 18 10  1  0
 18 13  1  0
 15 19  1  0
 16 19  1  0
 20 21  2  0
 14 20  1  0
 17 21  1  0
 12 22  2  0
 10 23  2  0
  9 11  1  0
  5 24  1  0
  1  2  1  0
 24 25  1  0
  2  3  2  0
 24 26  1  0
  3  4  1  0
 24 27  1  0
  3 28  1  0
  4 29  1  0
  6 30  1  0
  7 31  1  0
  9 32  1  0
 13 33  1  1
 14 34  1  1
 15 35  1  1
 16 36  1  1
 17 37  1  6
 18 38  1  1
 19 39  1  0
 19 40  1  0
 20 41  1  0
 21 42  1  0
M  END
> <Uni-Dock RESULT> 
ENERGY=   -3.825  LOWER_BOUND=   14.037  UPPER_BOUND=   15.795
INTER + INTRA:          -3.825
INTER:                  -3.825
INTRA:                   0.000
UNBOUND:                 0.000

$$$$

     RDKit          3D

 42 46  0  0  0  0  0  0  0  0999 V2000
   25.9724    9.0075   18.3567 C   0  0  0  0  0  0  0  0  0  0  0  0
   24.8738    8.0692   18.0213 C   0  0  0  0  0  0  0  0  0  0  0  0
   24.8195    7.4701   16.7507 C   0  0  0  0  0  0  0  0  0  0  0  0
   23.7913    6.5803   16.4271 C   0  0  0  0  0  0  0  0  0  0  0  0
   22.8093    6.2501   17.3753 C   0  0  0  0  0  0  0  0  0  0  0  0
   22.8526    6.8603   18.6397 C   0  0  0  0  0  0  0  0  0  0  0  0
   23.8801    7.7512   18.9638 C   0  0  0  0  0  0  0  0  0  0  0  0
   27.0200    9.0154   17.6542 O   0  0  0  0  0  0  0  0  0  0  0  0
   25.8448    9.9368   19.4431 N   0  0  0  0  0  0  0  0  0  0  0  0
   28.2014   10.0020   20.3304 C   0  0  0  0  0  0  0  0  0  0  0  0
   26.9593   10.6005   19.9877 N   0  0  0  0  0  0  0  0  0  0  0  0
   26.9009   11.8448   20.6637 C   0  0  0  0  0  0  0  0  0  0  0  0
   28.1621   12.1669   21.4079 C   0  0  2  0  0  0  0  0  0  0  0  0
   28.8924   13.4308   20.8536 C   0  0  1  0  0  0  0  0  0  0  0  0
   30.2103   13.5448   21.6951 C   0  0  1  0  0  0  0  0  0  0  0  0
   31.0967   12.2896   21.4649 C   0  0  1  0  0  0  0  0  0  0  0  0
   30.3888   11.3111   20.4653 C   0  0  1  0  0  0  0  0  0  0  0  0
   29.0628   10.8925   21.1751 C   0  0  2  0  0  0  0  0  0  0  0  0
   31.5873   13.6761   21.0376 C   0  0  0  0  0  0  0  0  0  0  0  0
   29.2370   13.1491   19.3965 C   0  0  0  0  0  0  0  0  0  0  0  0
   30.0034   12.0627   19.1976 C   0  0  0  0  0  0  0  0  0  0  0  0
   25.8850   12.5895   20.6447 O   0  0  0  0  0  0  0  0  0  0  0  0
   28.5118    8.8217   20.0188 O   0  0  0  0  0  0  0  0  0  0  0  0
   21.6729    5.3284   17.0100 C   0  0  0  0  0  0  0  0  0  0  0  0
   21.2148    4.6506   18.1266 F   0  0  0  0  0  0  0  0  0  0  0  0
   22.0829    4.3933   16.0752 F   0  0  0  0  0  0  0  0  0  0  0  0
   20.6366    6.0726   16.4782 F   0  0  0  0  0  0  0  0  0  0  0  0
   25.5648    7.7005   15.9995 H   0  0  0  0  0  0  0  0  0  0  0  0
   23.7633    6.1517   15.4330 H   0  0  0  0  0  0  0  0  0  0  0  0
   22.0926    6.6461   19.3806 H   0  0  0  0  0  0  0  0  0  0  0  0
   23.8991    8.1763   19.9586 H   0  0  0  0  0  0  0  0  0  0  0  0
   24.8891   10.2469   19.7283 H   0  0  0  0  0  0  0  0  0  0  0  0
   27.9300   12.2903   22.4889 H   0  0  0  0  0  0  0  0  0  0  0  0
   28.2715   14.3458   20.9552 H   0  0  0  0  0  0  0  0  0  0  0  0
   30.1358   13.8154   22.7703 H   0  0  0  0  0  0  0  0  0  0  0  0
   31.5020   11.8812   22.4155 H   0  0  0  0  0  0  0  0  0  0  0  0
   31.0319   10.4345   20.2391 H   0  0  0  0  0  0  0  0  0  0  0  0
   29.2787   10.3857   22.1417 H   0  0  0  0  0  0  0  0  0  0  0  0
   31.6226   13.8997   19.9530 H   0  0  0  0  0  0  0  0  0  0  0  0
   32.3596   14.0975   21.7143 H   0  0  0  0  0  0  0  0  0  0  0  0
   28.8953   13.7756   18.5795 H   0  0  0  0  0  0  0  0  0  0  0  0
   30.3231   11.7513   18.2088 H   0  0  0  0  0  0  0  0  0  0  0  0
  4  5  2  0
  5  6  1  0
  6  7  2  0
  2  7  1  0
  1  8  2  0
  1  9  1  0
 10 11  1  0
 11 12  1  0
 13 12  1  0
 14 13  1  0
 14 15  1  0
 16 15  1  0
 17 16  1  0
 17 18  1  0
 18 10  1  0
 18 13  1  0
 15 19  1  0
 16 19  1  0
 20 21  2  0
 14 20  1  0
 17 21  1  0
 12 22  2  0
 10 23  2  0
  9 11  1  0
  5 24  1  0
  1  2  1  0
 24 25  1  0
  2  3  2  0
 24 26  1  0
  3  4  1  0
 24 27  1  0
  3 28  1  0
  4 29  1  0
  6 30  1  0
  7 31  1  0
  9 32  1  0
 13 33  1  1
 14 34  1  1
 15 35  1  1
 16 36  1  1
 17 37  1  6
 18 38  1  1
 19 39  1  0
 19 40  1  0
 20 41  1  0
 21 42  1  0
M  END
> <Uni-Dock RESULT> 
ENERGY=   -3.804  LOWER_BOUND=   13.133  UPPER_BOUND=   14.588
INTER + INTRA:          -3.804
INTER:                  -3.804
INTRA:                   0.000
UNBOUND:                 0.000

$$$$

     RDKit          3D

 42 46  0  0  0  0  0  0  0  0999 V2000
   27.1494    4.6854   31.0555 C   0  0  0  0  0  0  0  0  0  0  0  0
   28.0334    3.4981   31.1490 C   0  0  0  0  0  0  0  0  0  0  0  0
   29.3358    3.5437   30.6217 C   0  0  0  0  0  0  0  0  0  0  0  0
   30.1783    2.4319   30.7099 C   0  0  0  0  0  0  0  0  0  0  0  0
   29.7463    1.2588   31.3499 C   0  0  0  0  0  0  0  0  0  0  0  0
   28.4397    1.2058   31.8627 C   0  0  0  0  0  0  0  0  0  0  0  0
   27.5961    2.3170   31.7741 C   0  0  0  0  0  0  0  0  0  0  0  0
   27.6515    5.8177   30.8180 O   0  0  0  0  0  0  0  0  0  0  0  0
   25.7259    4.5592   31.1894 N   0  0  0  0  0  0  0  0  0  0  0  0
   25.1397    6.6994   32.3814 C   0  0  0  0  0  0  0  0  0  0  0  0
   24.9006    5.6732   31.4284 N   0  0  0  0  0  0  0  0  0  0  0  0
   23.5282    5.7443   31.0816 C   0  0  0  0  0  0  0  0  0  0  0  0
   22.8210    6.9000   31.7237 C   0  0  2  0  0  0  0  0  0  0  0  0
   22.2947    7.9448   30.6896 C   0  0  1  0  0  0  0  0  0  0  0  0
   21.6748    9.0984   31.5515 C   0  0  1  0  0  0  0  0  0  0  0  0
   22.7746    9.7501   32.4347 C   0  0  1  0  0  0  0  0  0  0  0  0
   24.1515    9.0446   32.1812 C   0  0  1  0  0  0  0  0  0  0  0  0
   23.9370    7.5622   32.6213 C   0  0  2  0  0  0  0  0  0  0  0  0
   22.0653   10.5655   31.3495 C   0  0  0  0  0  0  0  0  0  0  0  0
   23.5030    8.4690   29.9240 C   0  0  0  0  0  0  0  0  0  0  0  0
   24.4547    9.0322   30.6884 C   0  0  0  0  0  0  0  0  0  0  0  0
   22.9680    4.9105   30.3215 O   0  0  0  0  0  0  0  0  0  0  0  0
   26.2240    6.8227   33.0104 O   0  0  0  0  0  0  0  0  0  0  0  0
   30.6375    0.0433   31.4016 C   0  0  0  0  0  0  0  0  0  0  0  0
   30.3597   -0.7194   32.5228 F   0  0  0  0  0  0  0  0  0  0  0  0
   31.9699    0.4158   31.4518 F   0  0  0  0  0  0  0  0  0  0  0  0
   30.4265   -0.7238   30.2713 F   0  0  0  0  0  0  0  0  0  0  0  0
   29.6999    4.4355   30.1267 H   0  0  0  0  0  0  0  0  0  0  0  0
   31.1683    2.4894   30.2749 H   0  0  0  0  0  0  0  0  0  0  0  0
   28.0703    0.3048   32.3361 H   0  0  0  0  0  0  0  0  0  0  0  0
   26.6079    2.2501   32.2097 H   0  0  0  0  0  0  0  0  0  0  0  0
   25.2779    3.6478   30.9453 H   0  0  0  0  0  0  0  0  0  0  0  0
   21.9877    6.5173   32.3537 H   0  0  0  0  0  0  0  0  0  0  0  0
   21.5387    7.5053   30.0050 H   0  0  0  0  0  0  0  0  0  0  0  0
   20.7422    8.8976   32.1213 H   0  0  0  0  0  0  0  0  0  0  0  0
   22.4370    9.9019   33.4824 H   0  0  0  0  0  0  0  0  0  0  0  0
   24.9649    9.5340   32.7576 H   0  0  0  0  0  0  0  0  0  0  0  0
   23.6552    7.5093   33.6962 H   0  0  0  0  0  0  0  0  0  0  0  0
   22.6417   10.8260   30.4399 H   0  0  0  0  0  0  0  0  0  0  0  0
   21.3177   11.2795   31.7536 H   0  0  0  0  0  0  0  0  0  0  0  0
   23.5919    8.3983   28.8451 H   0  0  0  0  0  0  0  0  0  0  0  0
   25.3651    9.4475   30.2694 H   0  0  0  0  0  0  0  0  0  0  0  0
  4  5  2  0
  5  6  1  0
  6  7  2  0
  2  7  1  0
  1  8  2  0
  1  9  1  0
 10 11  1  0
 11 12  1  0
 13 12  1  0
 14 13  1  0
 14 15  1  0
 16 15  1  0
 17 16  1  0
 17 18  1  0
 18 10  1  0
 18 13  1  0
 15 19  1  0
 16 19  1  0
 20 21  2  0
 14 20  1  0
 17 21  1  0
 12 22  2  0
 10 23  2  0
  9 11  1  0
  5 24  1  0
  1  2  1  0
 24 25  1  0
  2  3  2  0
 24 26  1  0
  3  4  1  0
 24 27  1  0
  3 28  1  0
  4 29  1  0
  6 30  1  0
  7 31  1  0
  9 32  1  0
 13 33  1  1
 14 34  1  1
 15 35  1  1
 16 36  1  1
 17 37  1  6
 18 38  1  1
 19 39  1  0
 19 40  1  0
 20 41  1  0
 21 42  1  0
M  END
> <Uni-Dock RESULT> 
ENERGY=   -3.747  LOWER_BOUND=    1.466  UPPER_BOUND=    2.891
INTER + INTRA:          -3.747
INTER:                  -3.747
INTRA:                   0.000
UNBOUND:                 0.000

$$$$
