
     RDKit          3D

 42 46  0  0  0  0  0  0  0  0999 V2000
   31.0911    7.2578   28.7938 C   0  0  0  0  0  0  0  0  0  0  0  0
   31.0791    8.5948   28.1518 C   0  0  0  0  0  0  0  0  0  0  0  0
   29.9055    9.1096   27.5732 C   0  0  0  0  0  0  0  0  0  0  0  0
   29.9032   10.3739   26.9764 C   0  0  0  0  0  0  0  0  0  0  0  0
   31.0669   11.1604   26.9658 C   0  0  0  0  0  0  0  0  0  0  0  0
   32.2442   10.6402   27.5279 C   0  0  0  0  0  0  0  0  0  0  0  0
   32.2471    9.3767   28.1257 C   0  0  0  0  0  0  0  0  0  0  0  0
   32.0194    6.9605   29.5943 O   0  0  0  0  0  0  0  0  0  0  0  0
   30.0856    6.2810   28.4858 N   0  0  0  0  0  0  0  0  0  0  0  0
   29.3106    3.9319   28.8419 C   0  0  0  0  0  0  0  0  0  0  0  0
   29.8762    5.1497   29.2954 N   0  0  0  0  0  0  0  0  0  0  0  0
   29.7886    5.1432   30.7135 C   0  0  0  0  0  0  0  0  0  0  0  0
   29.2476    3.8546   31.2571 C   0  0  2  0  0  0  0  0  0  0  0  0
   30.2825    3.0784   32.1308 C   0  0  1  0  0  0  0  0  0  0  0  0
   29.5625    1.7439   32.5290 C   0  0  1  0  0  0  0  0  0  0  0  0
   29.2337    0.9185   31.2543 C   0  0  1  0  0  0  0  0  0  0  0  0
   29.7279    1.6844   29.9788 C   0  0  1  0  0  0  0  0  0  0  0  0
   28.9145    3.0172   29.9620 C   0  0  2  0  0  0  0  0  0  0  0  0
   30.2063    0.3726   32.3038 C   0  0  0  0  0  0  0  0  0  0  0  0
   31.4808    2.7697   31.2424 C   0  0  0  0  0  0  0  0  0  0  0  0
   31.1968    2.0551   30.1399 C   0  0  0  0  0  0  0  0  0  0  0  0
   30.0665    6.1413   31.4299 O   0  0  0  0  0  0  0  0  0  0  0  0
   29.1503    3.6616   27.6221 O   0  0  0  0  0  0  0  0  0  0  0  0
   31.0763   12.5023   26.2778 C   0  0  0  0  0  0  0  0  0  0  0  0
   29.8313   13.1018   26.3584 F   0  0  0  0  0  0  0  0  0  0  0  0
   31.4073   12.3288   24.9470 F   0  0  0  0  0  0  0  0  0  0  0  0
   32.0015   13.3472   26.8663 F   0  0  0  0  0  0  0  0  0  0  0  0
   28.9819    8.5464   27.5913 H   0  0  0  0  0  0  0  0  0  0  0  0
   28.9886   10.7380   26.5253 H   0  0  0  0  0  0  0  0  0  0  0  0
   33.1647   11.2098   27.5034 H   0  0  0  0  0  0  0  0  0  0  0  0
   33.1694    9.0055   28.5551 H   0  0  0  0  0  0  0  0  0  0  0  0
   29.6092    6.3270   27.5574 H   0  0  0  0  0  0  0  0  0  0  0  0
   28.3210    4.0608   31.8372 H   0  0  0  0  0  0  0  0  0  0  0  0
   30.5812    3.6567   33.0306 H   0  0  0  0  0  0  0  0  0  0  0  0
   28.7041    1.7895   33.2332 H   0  0  0  0  0  0  0  0  0  0  0  0
   28.1974    0.5176   31.2688 H   0  0  0  0  0  0  0  0  0  0  0  0
   29.5582    1.0842   29.0600 H   0  0  0  0  0  0  0  0  0  0  0  0
   27.8232    2.8101   29.8996 H   0  0  0  0  0  0  0  0  0  0  0  0
   29.7683   -0.4282   32.9354 H   0  0  0  0  0  0  0  0  0  0  0  0
   31.2831    0.3440   32.0448 H   0  0  0  0  0  0  0  0  0  0  0  0
   32.4880    3.0963   31.4788 H   0  0  0  0  0  0  0  0  0  0  0  0
   31.9587    1.7645   29.4244 H   0  0  0  0  0  0  0  0  0  0  0  0
  4  5  2  0
  5  6  1  0
  6  7  2  0
  2  7  1  0
  1  8  2  0
  1  9  1  0
 10 11  1  0
 11 12  1  0
 13 12  1  0
 14 13  1  0
 14 15  1  0
 16 15  1  0
 17 16  1  0
 17 18  1  0
 18 10  1  0
 18 13  1  0
 15 19  1  0
 16 19  1  0
 20 21  2  0
 14 20  1  0
 17 21  1  0
 12 22  2  0
 10 23  2  0
  9 11  1  0
  5 24  1  0
  1  2  1  0
 24 25  1  0
  2  3  2  0
 24 26  1  0
  3  4  1  0
 24 27  1  0
  3 28  1  0
  4 29  1  0
  6 30  1  0
  7 31  1  0
  9 32  1  0
 13 33  1  1
 14 34  1  6
 15 35  1  1
 16 36  1  1
 17 37  1  6
 18 38  1  1
 19 39  1  0
 19 40  1  0
 20 41  1  0
 21 42  1  0
M  END
> <Uni-Dock RESULT> 
ENERGY=   -4.045  LOWER_BOUND=    0.000  UPPER_BOUND=    0.000
INTER + INTRA:          -4.045
INTER:                  -4.045
INTRA:                   0.000
UNBOUND:                 0.000

$$$$

     RDKit          3D

 42 46  0  0  0  0  0  0  0  0999 V2000
   29.3141   10.0272   28.2144 C   0  0  0  0  0  0  0  0  0  0  0  0
   30.5284   10.4256   27.4616 C   0  0  0  0  0  0  0  0  0  0  0  0
   30.4780   11.4430   26.4924 C   0  0  0  0  0  0  0  0  0  0  0  0
   31.6299   11.8155   25.7931 C   0  0  0  0  0  0  0  0  0  0  0  0
   32.8611   11.1962   26.0640 C   0  0  0  0  0  0  0  0  0  0  0  0
   32.9092   10.1679   27.0195 C   0  0  0  0  0  0  0  0  0  0  0  0
   31.7583    9.7955   27.7198 C   0  0  0  0  0  0  0  0  0  0  0  0
   29.4339    9.3840   29.2928 O   0  0  0  0  0  0  0  0  0  0  0  0
   28.0027   10.3253   27.7129 N   0  0  0  0  0  0  0  0  0  0  0  0
   25.5445   10.0346   28.0574 C   0  0  0  0  0  0  0  0  0  0  0  0
   26.8611   10.2580   28.5323 N   0  0  0  0  0  0  0  0  0  0  0  0
   26.7423   10.7926   29.8433 C   0  0  0  0  0  0  0  0  0  0  0  0
   25.3230   10.8436   30.3244 C   0  0  2  0  0  0  0  0  0  0  0  0
   25.0626    9.9213   31.5567 C   0  0  1  0  0  0  0  0  0  0  0  0
   23.5281   10.0531   31.8494 C   0  0  1  0  0  0  0  0  0  0  0  0
   22.7105    9.5393   30.6321 C   0  0  1  0  0  0  0  0  0  0  0  0
   23.6820    9.0534   29.5017 C   0  0  1  0  0  0  0  0  0  0  0  0
   24.4937   10.3215   29.0878 C   0  0  2  0  0  0  0  0  0  0  0  0
   22.6170    8.8296   31.9859 C   0  0  0  0  0  0  0  0  0  0  0  0
   25.3827    8.4951   31.1277 C   0  0  0  0  0  0  0  0  0  0  0  0
   24.6750    8.0502   30.0750 C   0  0  0  0  0  0  0  0  0  0  0  0
   27.7186   11.2432   30.4994 O   0  0  0  0  0  0  0  0  0  0  0  0
   25.2939    9.6473   26.8853 O   0  0  0  0  0  0  0  0  0  0  0  0
   34.0919   11.5639   25.2741 C   0  0  0  0  0  0  0  0  0  0  0  0
   34.0502   12.8946   24.8951 F   0  0  0  0  0  0  0  0  0  0  0  0
   34.1578   10.7749   24.1411 F   0  0  0  0  0  0  0  0  0  0  0  0
   35.2351   11.3654   26.0291 F   0  0  0  0  0  0  0  0  0  0  0  0
   29.5545   11.9650   26.2799 H   0  0  0  0  0  0  0  0  0  0  0  0
   31.5578   12.5916   25.0415 H   0  0  0  0  0  0  0  0  0  0  0  0
   33.8374    9.6492   27.2242 H   0  0  0  0  0  0  0  0  0  0  0  0
   31.8287    9.0026   28.4541 H   0  0  0  0  0  0  0  0  0  0  0  0
   27.8732   10.4380   26.6826 H   0  0  0  0  0  0  0  0  0  0  0  0
   25.0521   11.8969   30.5588 H   0  0  0  0  0  0  0  0  0  0  0  0
   25.6664   10.2266   32.4373 H   0  0  0  0  0  0  0  0  0  0  0  0
   23.1395   11.0183   32.2394 H   0  0  0  0  0  0  0  0  0  0  0  0
   21.8796   10.2267   30.3635 H   0  0  0  0  0  0  0  0  0  0  0  0
   23.1188    8.6247   28.6460 H   0  0  0  0  0  0  0  0  0  0  0  0
   23.8137   11.1162   28.7086 H   0  0  0  0  0  0  0  0  0  0  0  0
   21.6732    9.0423   32.5301 H   0  0  0  0  0  0  0  0  0  0  0  0
   23.0977    7.8361   32.0826 H   0  0  0  0  0  0  0  0  0  0  0  0
   26.1213    7.8809   31.6317 H   0  0  0  0  0  0  0  0  0  0  0  0
   24.8025    7.0517   29.6703 H   0  0  0  0  0  0  0  0  0  0  0  0
  4  5  2  0
  5  6  1  0
  6  7  2  0
  2  7  1  0
  1  8  2  0
  1  9  1  0
 10 11  1  0
 11 12  1  0
 13 12  1  0
 14 13  1  0
 14 15  1  0
 16 15  1  0
 17 16  1  0
 17 18  1  0
 18 10  1  0
 18 13  1  0
 15 19  1  0
 16 19  1  0
 20 21  2  0
 14 20  1  0
 17 21  1  0
 12 22  2  0
 10 23  2  0
  9 11  1  0
  5 24  1  0
  1  2  1  0
 24 25  1  0
  2  3  2  0
 24 26  1  0
  3  4  1  0
 24 27  1  0
  3 28  1  0
  4 29  1  0
  6 30  1  0
  7 31  1  0
  9 32  1  0
 13 33  1  1
 14 34  1  6
 15 35  1  1
 16 36  1  1
 17 37  1  6
 18 38  1  1
 19 39  1  0
 19 40  1  0
 20 41  1  0
 21 42  1  0
M  END
> <Uni-Dock RESULT> 
ENERGY=   -4.020  LOWER_BOUND=    5.419  UPPER_BOUND=    6.508
INTER + INTRA:          -4.020
INTER:                  -4.020
INTRA:                   0.000
UNBOUND:                 0.000

$$$$

     RDKit          3D

 42 46  0  0  0  0  0  0  0  0999 V2000
   25.6983    4.5636   31.2774 C   0  0  0  0  0  0  0  0  0  0  0  0
   24.6386    5.5850   31.0941 C   0  0  0  0  0  0  0  0  0  0  0  0
   24.9404    6.9576   31.1391 C   0  0  0  0  0  0  0  0  0  0  0  0
   23.9352    7.9122   30.9584 C   0  0  0  0  0  0  0  0  0  0  0  0
   22.6116    7.5161   30.7055 C   0  0  0  0  0  0  0  0  0  0  0  0
   22.3057    6.1456   30.6776 C   0  0  0  0  0  0  0  0  0  0  0  0
   23.3103    5.1905   30.8571 C   0  0  0  0  0  0  0  0  0  0  0  0
   25.4926    3.3787   30.8973 O   0  0  0  0  0  0  0  0  0  0  0  0
   26.9391    4.8930   31.9196 N   0  0  0  0  0  0  0  0  0  0  0  0
   29.1177    4.0173   32.7755 C   0  0  0  0  0  0  0  0  0  0  0  0
   28.0694    4.0610   31.8227 N   0  0  0  0  0  0  0  0  0  0  0  0
   28.5674    3.4654   30.6328 C   0  0  0  0  0  0  0  0  0  0  0  0
   29.9492    2.9063   30.7963 C   0  0  2  0  0  0  0  0  0  0  0  0
   30.0043    1.3554   30.6265 C   0  0  1  0  0  0  0  0  0  0  0  0
   31.4958    0.9654   30.9112 C   0  0  1  0  0  0  0  0  0  0  0  0
   31.8731    1.3434   32.3703 C   0  0  1  0  0  0  0  0  0  0  0  0
   30.6412    1.9930   33.0902 C   0  0  1  0  0  0  0  0  0  0  0  0
   30.3312    3.2903   32.2782 C   0  0  2  0  0  0  0  0  0  0  0  0
   31.8748   -0.1210   31.9220 C   0  0  0  0  0  0  0  0  0  0  0  0
   29.1029    0.7526   31.6964 C   0  0  0  0  0  0  0  0  0  0  0  0
   29.4295    1.0790   32.9589 C   0  0  0  0  0  0  0  0  0  0  0  0
   27.9424    3.4734   29.5392 O   0  0  0  0  0  0  0  0  0  0  0  0
   29.0328    4.5485   33.9145 O   0  0  0  0  0  0  0  0  0  0  0  0
   21.5197    8.5462   30.5607 C   0  0  0  0  0  0  0  0  0  0  0  0
   22.0171    9.7106   30.0015 F   0  0  0  0  0  0  0  0  0  0  0  0
   20.9969    8.8331   31.8077 F   0  0  0  0  0  0  0  0  0  0  0  0
   20.5065    8.0735   29.7447 F   0  0  0  0  0  0  0  0  0  0  0  0
   25.9541    7.3003   31.2992 H   0  0  0  0  0  0  0  0  0  0  0  0
   24.1945    8.9621   31.0136 H   0  0  0  0  0  0  0  0  0  0  0  0
   21.2880    5.8115   30.5190 H   0  0  0  0  0  0  0  0  0  0  0  0
   23.0437    4.1413   30.8249 H   0  0  0  0  0  0  0  0  0  0  0  0
   26.9561    5.6827   32.6029 H   0  0  0  0  0  0  0  0  0  0  0  0
   30.6348    3.4043   30.0754 H   0  0  0  0  0  0  0  0  0  0  0  0
   29.6946    1.0392   29.6080 H   0  0  0  0  0  0  0  0  0  0  0  0
   32.2766    1.2718   30.1823 H   0  0  0  0  0  0  0  0  0  0  0  0
   32.8580    1.8545   32.4308 H   0  0  0  0  0  0  0  0  0  0  0  0
   30.8699    2.2152   34.1540 H   0  0  0  0  0  0  0  0  0  0  0  0
   31.2042    3.9797   32.2915 H   0  0  0  0  0  0  0  0  0  0  0  0
   32.8939   -0.5320   31.7649 H   0  0  0  0  0  0  0  0  0  0  0  0
   31.0673   -0.7781   32.3008 H   0  0  0  0  0  0  0  0  0  0  0  0
   28.2633    0.1066   31.4627 H   0  0  0  0  0  0  0  0  0  0  0  0
   28.8719    0.7146   33.8152 H   0  0  0  0  0  0  0  0  0  0  0  0
  4  5  2  0
  5  6  1  0
  6  7  2  0
  2  7  1  0
  1  8  2  0
  1  9  1  0
 10 11  1  0
 11 12  1  0
 13 12  1  0
 14 13  1  0
 14 15  1  0
 16 15  1  0
 17 16  1  0
 17 18  1  0
 18 10  1  0
 18 13  1  0
 15 19  1  0
 16 19  1  0
 20 21  2  0
 14 20  1  0
 17 21  1  0
 12 22  2  0
 10 23  2  0
  9 11  1  0
  5 24  1  0
  1  2  1  0
 24 25  1  0
  2  3  2  0
 24 26  1  0
  3  4  1  0
 24 27  1  0
  3 28  1  0
  4 29  1  0
  6 30  1  0
  7 31  1  0
  9 32  1  0
 13 33  1  1
 14 34  1  6
 15 35  1  1
 16 36  1  1
 17 37  1  6
 18 38  1  1
 19 39  1  0
 19 40  1  0
 20 41  1  0
 21 42  1  0
M  END
> <Uni-Dock RESULT> 
ENERGY=   -3.997  LOWER_BOUND=    5.688  UPPER_BOUND=    6.974
INTER + INTRA:          -3.997
INTER:                  -3.997
INTRA:                   0.000
UNBOUND:                 0.000

$$$$

     RDKit          3D

 42 46  0  0  0  0  0  0  0  0999 V2000
   28.0380   12.3224   22.7310 C   0  0  0  0  0  0  0  0  0  0  0  0
   27.4778   12.5765   24.0806 C   0  0  0  0  0  0  0  0  0  0  0  0
   27.4903   11.5772   25.0697 C   0  0  0  0  0  0  0  0  0  0  0  0
   26.9656   11.8292   26.3408 C   0  0  0  0  0  0  0  0  0  0  0  0
   26.4391   13.0920   26.6582 C   0  0  0  0  0  0  0  0  0  0  0  0
   26.4101   14.0855   25.6659 C   0  0  0  0  0  0  0  0  0  0  0  0
   26.9354   13.8347   24.3951 C   0  0  0  0  0  0  0  0  0  0  0  0
   28.3352   13.2968   21.9873 O   0  0  0  0  0  0  0  0  0  0  0  0
   28.2077   10.9839   22.2413 N   0  0  0  0  0  0  0  0  0  0  0  0
   28.8592    9.5661   20.2890 C   0  0  0  0  0  0  0  0  0  0  0  0
   29.0183   10.6975   21.1277 N   0  0  0  0  0  0  0  0  0  0  0  0
   30.3249   11.2043   20.8944 C   0  0  0  0  0  0  0  0  0  0  0  0
   31.0455   10.4741   19.8007 C   0  0  2  0  0  0  0  0  0  0  0  0
   31.3575   11.3773   18.5662 C   0  0  1  0  0  0  0  0  0  0  0  0
   32.0281   10.4222   17.5195 C   0  0  1  0  0  0  0  0  0  0  0  0
   31.0312    9.3036   17.1080 C   0  0  1  0  0  0  0  0  0  0  0  0
   29.6743    9.4890   17.8709 C   0  0  1  0  0  0  0  0  0  0  0  0
   30.0324    9.3388   19.3833 C   0  0  2  0  0  0  0  0  0  0  0  0
   31.5296   10.3185   16.0750 C   0  0  0  0  0  0  0  0  0  0  0  0
   30.0241   11.8768   18.0249 C   0  0  0  0  0  0  0  0  0  0  0  0
   29.1617   10.9093   17.6682 C   0  0  0  0  0  0  0  0  0  0  0  0
   30.8467   12.1202   21.5839 O   0  0  0  0  0  0  0  0  0  0  0  0
   27.8393    8.8275   20.3187 O   0  0  0  0  0  0  0  0  0  0  0  0
   25.8281   13.3469   28.0132 C   0  0  0  0  0  0  0  0  0  0  0  0
   26.4623   12.5924   28.9852 F   0  0  0  0  0  0  0  0  0  0  0  0
   24.4892   13.0050   27.9801 F   0  0  0  0  0  0  0  0  0  0  0  0
   25.9443   14.6822   28.3588 F   0  0  0  0  0  0  0  0  0  0  0  0
   27.9172   10.6029   24.8720 H   0  0  0  0  0  0  0  0  0  0  0  0
   26.9749   11.0356   27.0775 H   0  0  0  0  0  0  0  0  0  0  0  0
   25.9788   15.0571   25.8717 H   0  0  0  0  0  0  0  0  0  0  0  0
   26.9031   14.6229   23.6530 H   0  0  0  0  0  0  0  0  0  0  0  0
   27.5919   10.2296   22.6192 H   0  0  0  0  0  0  0  0  0  0  0  0
   31.9809   10.0312   20.2089 H   0  0  0  0  0  0  0  0  0  0  0  0
   32.0312   12.2199   18.8294 H   0  0  0  0  0  0  0  0  0  0  0  0
   33.0428   10.0229   17.7337 H   0  0  0  0  0  0  0  0  0  0  0  0
   31.5066    8.2992   17.0996 H   0  0  0  0  0  0  0  0  0  0  0  0
   28.9255    8.7360   17.5459 H   0  0  0  0  0  0  0  0  0  0  0  0
   30.4647    8.3341   19.5864 H   0  0  0  0  0  0  0  0  0  0  0  0
   32.2857    9.9014   15.3775 H   0  0  0  0  0  0  0  0  0  0  0  0
   30.8150   11.0866   15.7190 H   0  0  0  0  0  0  0  0  0  0  0  0
   29.7856   12.9308   17.9295 H   0  0  0  0  0  0  0  0  0  0  0  0
   28.1787   11.1280   17.2647 H   0  0  0  0  0  0  0  0  0  0  0  0
  4  5  2  0
  5  6  1  0
  6  7  2  0
  2  7  1  0
  1  8  2  0
  1  9  1  0
 10 11  1  0
 11 12  1  0
 13 12  1  0
 14 13  1  0
 14 15  1  0
 16 15  1  0
 17 16  1  0
 17 18  1  0
 18 10  1  0
 18 13  1  0
 15 19  1  0
 16 19  1  0
 20 21  2  0
 14 20  1  0
 17 21  1  0
 12 22  2  0
 10 23  2  0
  9 11  1  0
  5 24  1  0
  1  2  1  0
 24 25  1  0
  2  3  2  0
 24 26  1  0
  3  4  1  0
 24 27  1  0
  3 28  1  0
  4 29  1  0
  6 30  1  0
  7 31  1  0
  9 32  1  0
 13 33  1  1
 14 34  1  6
 15 35  1  1
 16 36  1  1
 17 37  1  6
 18 38  1  1
 19 39  1  0
 19 40  1  0
 20 41  1  0
 21 42  1  0
M  END
> <Uni-Dock RESULT> 
ENERGY=   -3.959  LOWER_BOUND=    8.734  UPPER_BOUND=   11.212
INTER + INTRA:          -3.959
INTER:                  -3.959
INTRA:                   0.000
UNBOUND:                 0.000

$$$$

     RDKit          3D

 42 46  0  0  0  0  0  0  0  0999 V2000
   28.3868    9.9231   29.0121 C   0  0  0  0  0  0  0  0  0  0  0  0
   29.7413    9.6390   28.4787 C   0  0  0  0  0  0  0  0  0  0  0  0
   30.1642    8.3190   28.2426 C   0  0  0  0  0  0  0  0  0  0  0  0
   31.4407    8.0624   27.7333 C   0  0  0  0  0  0  0  0  0  0  0  0
   32.3128    9.1198   27.4268 C   0  0  0  0  0  0  0  0  0  0  0  0
   31.8980   10.4379   27.6785 C   0  0  0  0  0  0  0  0  0  0  0  0
   30.6216   10.6954   28.1867 C   0  0  0  0  0  0  0  0  0  0  0  0
   27.9014   11.0811   28.8924 O   0  0  0  0  0  0  0  0  0  0  0  0
   27.6365    8.9116   29.7006 N   0  0  0  0  0  0  0  0  0  0  0  0
   25.5519    8.3981   30.9799 C   0  0  0  0  0  0  0  0  0  0  0  0
   26.2539    9.0379   29.9279 N   0  0  0  0  0  0  0  0  0  0  0  0
   25.2848    9.4444   28.9718 C   0  0  0  0  0  0  0  0  0  0  0  0
   23.8788    9.1741   29.4174 C   0  0  2  0  0  0  0  0  0  0  0  0
   23.0399   10.4758   29.6148 C   0  0  1  0  0  0  0  0  0  0  0  0
   21.6496    9.9892   30.1514 C   0  0  1  0  0  0  0  0  0  0  0  0
   21.8304    9.2736   31.5187 C   0  0  1  0  0  0  0  0  0  0  0  0
   23.3449    9.2680   31.9235 C   0  0  1  0  0  0  0  0  0  0  0  0
   24.0634    8.4478   30.8059 C   0  0  2  0  0  0  0  0  0  0  0  0
   21.0186   10.5685   31.4210 C   0  0  0  0  0  0  0  0  0  0  0  0
   23.7406   11.3057   30.6830 C   0  0  0  0  0  0  0  0  0  0  0  0
   23.8965   10.6870   31.8661 C   0  0  0  0  0  0  0  0  0  0  0  0
   25.5808    9.9133   27.8408 O   0  0  0  0  0  0  0  0  0  0  0  0
   26.1290    7.8380   31.9493 O   0  0  0  0  0  0  0  0  0  0  0  0
   33.7071    8.8398   26.9250 C   0  0  0  0  0  0  0  0  0  0  0  0
   33.7324    7.6766   26.1751 F   0  0  0  0  0  0  0  0  0  0  0  0
   34.5591    8.6985   28.0042 F   0  0  0  0  0  0  0  0  0  0  0  0
   34.1575    9.8777   26.1275 F   0  0  0  0  0  0  0  0  0  0  0  0
   29.5081    7.4806   28.4359 H   0  0  0  0  0  0  0  0  0  0  0  0
   31.7446    7.0350   27.5762 H   0  0  0  0  0  0  0  0  0  0  0  0
   32.5620   11.2708   27.4842 H   0  0  0  0  0  0  0  0  0  0  0  0
   30.3293   11.7228   28.3651 H   0  0  0  0  0  0  0  0  0  0  0  0
   28.1546    8.1432   30.1822 H   0  0  0  0  0  0  0  0  0  0  0  0
   23.3852    8.4968   28.6857 H   0  0  0  0  0  0  0  0  0  0  0  0
   22.9275   11.0436   28.6670 H   0  0  0  0  0  0  0  0  0  0  0  0
   20.9805    9.4249   29.4669 H   0  0  0  0  0  0  0  0  0  0  0  0
   21.2591    8.3220   31.5739 H   0  0  0  0  0  0  0  0  0  0  0  0
   23.4899    8.8155   32.9273 H   0  0  0  0  0  0  0  0  0  0  0  0
   23.6633    7.4106   30.7616 H   0  0  0  0  0  0  0  0  0  0  0  0
   19.9222   10.4061   31.4810 H   0  0  0  0  0  0  0  0  0  0  0  0
   21.4638   11.4904   31.8445 H   0  0  0  0  0  0  0  0  0  0  0  0
   24.0857   12.3192   30.5081 H   0  0  0  0  0  0  0  0  0  0  0  0
   24.3761   11.1665   32.7129 H   0  0  0  0  0  0  0  0  0  0  0  0
  4  5  2  0
  5  6  1  0
  6  7  2  0
  2  7  1  0
  1  8  2  0
  1  9  1  0
 10 11  1  0
 11 12  1  0
 13 12  1  0
 14 13  1  0
 14 15  1  0
 16 15  1  0
 17 16  1  0
 17 18  1  0
 18 10  1  0
 18 13  1  0
 15 19  1  0
 16 19  1  0
 20 21  2  0
 14 20  1  0
 17 21  1  0
 12 22  2  0
 10 23  2  0
  9 11  1  0
  5 24  1  0
  1  2  1  0
 24 25  1  0
  2  3  2  0
 24 26  1  0
  3  4  1  0
 24 27  1  0
  3 28  1  0
  4 29  1  0
  6 30  1  0
  7 31  1  0
  9 32  1  0
 13 33  1  1
 14 34  1  6
 15 35  1  1
 16 36  1  1
 17 37  1  6
 18 38  1  1
 19 39  1  0
 19 40  1  0
 20 41  1  0
 21 42  1  0
M  END
> <Uni-Dock RESULT> 
ENERGY=   -3.876  LOWER_BOUND=    5.567  UPPER_BOUND=    7.320
INTER + INTRA:          -3.876
INTER:                  -3.876
INTRA:                   0.000
UNBOUND:                 0.000

$$$$

     RDKit          3D

 42 46  0  0  0  0  0  0  0  0999 V2000
   29.7772    6.4381   29.7450 C   0  0  0  0  0  0  0  0  0  0  0  0
   29.8296    7.7297   29.0177 C   0  0  0  0  0  0  0  0  0  0  0  0
   30.7833    7.9547   28.0092 C   0  0  0  0  0  0  0  0  0  0  0  0
   30.8198    9.1734   27.3252 C   0  0  0  0  0  0  0  0  0  0  0  0
   29.8896   10.1843   27.6177 C   0  0  0  0  0  0  0  0  0  0  0  0
   28.9478    9.9675   28.6368 C   0  0  0  0  0  0  0  0  0  0  0  0
   28.9099    8.7489   29.3204 C   0  0  0  0  0  0  0  0  0  0  0  0
   28.7333    6.1230   30.3787 O   0  0  0  0  0  0  0  0  0  0  0  0
   30.9120    5.5598   29.7740 N   0  0  0  0  0  0  0  0  0  0  0  0
   31.8608    3.4414   30.7003 C   0  0  0  0  0  0  0  0  0  0  0  0
   30.7993    4.2132   30.1654 N   0  0  0  0  0  0  0  0  0  0  0  0
   29.8013    3.2992   29.7326 C   0  0  0  0  0  0  0  0  0  0  0  0
   30.1316    1.8755   30.0676 C   0  0  2  0  0  0  0  0  0  0  0  0
   29.1249    1.2359   31.0748 C   0  0  1  0  0  0  0  0  0  0  0  0
   29.6832   -0.2022   31.3538 C   0  0  1  0  0  0  0  0  0  0  0  0
   31.0880   -0.1070   32.0109 C   0  0  1  0  0  0  0  0  0  0  0  0
   31.4965    1.3965   32.1848 C   0  0  1  0  0  0  0  0  0  0  0  0
   31.5579    1.9733   30.7350 C   0  0  2  0  0  0  0  0  0  0  0  0
   29.9134   -0.7250   32.7749 C   0  0  0  0  0  0  0  0  0  0  0  0
   29.1783    2.0640   32.3523 C   0  0  0  0  0  0  0  0  0  0  0  0
   30.3934    2.1460   32.9213 C   0  0  0  0  0  0  0  0  0  0  0  0
   28.7848    3.6436   29.0732 O   0  0  0  0  0  0  0  0  0  0  0  0
   32.9470    3.9455   31.0913 O   0  0  0  0  0  0  0  0  0  0  0  0
   29.9619   11.5164   26.9144 C   0  0  0  0  0  0  0  0  0  0  0  0
   30.4414   11.3631   25.6249 F   0  0  0  0  0  0  0  0  0  0  0  0
   30.8101   12.3545   27.6135 F   0  0  0  0  0  0  0  0  0  0  0  0
   28.7089   12.1003   26.8427 F   0  0  0  0  0  0  0  0  0  0  0  0
   31.4947    7.1874   27.7340 H   0  0  0  0  0  0  0  0  0  0  0  0
   31.5751    9.3238   26.5640 H   0  0  0  0  0  0  0  0  0  0  0  0
   28.2409   10.7417   28.9073 H   0  0  0  0  0  0  0  0  0  0  0  0
   28.1685    8.6102   30.0976 H   0  0  0  0  0  0  0  0  0  0  0  0
   31.8660    5.9686   29.6568 H   0  0  0  0  0  0  0  0  0  0  0  0
   30.1801    1.2790   29.1297 H   0  0  0  0  0  0  0  0  0  0  0  0
   28.0955    1.1929   30.6604 H   0  0  0  0  0  0  0  0  0  0  0  0
   29.6512   -0.9554   30.5375 H   0  0  0  0  0  0  0  0  0  0  0  0
   31.8161   -0.8086   31.5499 H   0  0  0  0  0  0  0  0  0  0  0  0
   32.4712    1.4891   32.7089 H   0  0  0  0  0  0  0  0  0  0  0  0
   32.3130    1.4273   30.1271 H   0  0  0  0  0  0  0  0  0  0  0  0
   29.9607   -1.8324   32.8341 H   0  0  0  0  0  0  0  0  0  0  0  0
   29.4812   -0.1456   33.6145 H   0  0  0  0  0  0  0  0  0  0  0  0
   28.3052    2.5490   32.7759 H   0  0  0  0  0  0  0  0  0  0  0  0
   30.5694    2.7017   33.8363 H   0  0  0  0  0  0  0  0  0  0  0  0
  4  5  2  0
  5  6  1  0
  6  7  2  0
  2  7  1  0
  1  8  2  0
  1  9  1  0
 10 11  1  0
 11 12  1  0
 13 12  1  0
 14 13  1  0
 14 15  1  0
 16 15  1  0
 17 16  1  0
 17 18  1  0
 18 10  1  0
 18 13  1  0
 15 19  1  0
 16 19  1  0
 20 21  2  0
 14 20  1  0
 17 21  1  0
 12 22  2  0
 10 23  2  0
  9 11  1  0
  5 24  1  0
  1  2  1  0
 24 25  1  0
  2  3  2  0
 24 26  1  0
  3  4  1  0
 24 27  1  0
  3 28  1  0
  4 29  1  0
  6 30  1  0
  7 31  1  0
  9 32  1  0
 13 33  1  1
 14 34  1  6
 15 35  1  1
 16 36  1  1
 17 37  1  6
 18 38  1  1
 19 39  1  0
 19 40  1  0
 20 41  1  0
 21 42  1  0
M  END
> <Uni-Dock RESULT> 
ENERGY=   -3.836  LOWER_BOUND=    1.438  UPPER_BOUND=    2.678
INTER + INTRA:          -3.836
INTER:                  -3.836
INTRA:                   0.000
UNBOUND:                 0.000

$$$$

     RDKit          3D

 42 46  0  0  0  0  0  0  0  0999 V2000
   27.8177   12.6407   22.5036 C   0  0  0  0  0  0  0  0  0  0  0  0
   27.2315   12.9933   23.8196 C   0  0  0  0  0  0  0  0  0  0  0  0
   27.4349   12.1757   24.9453 C   0  0  0  0  0  0  0  0  0  0  0  0
   26.8835   12.5206   26.1828 C   0  0  0  0  0  0  0  0  0  0  0  0
   26.1371   13.7016   26.3274 C   0  0  0  0  0  0  0  0  0  0  0  0
   25.9185   14.5102   25.2000 C   0  0  0  0  0  0  0  0  0  0  0  0
   26.4705   14.1665   23.9626 C   0  0  0  0  0  0  0  0  0  0  0  0
   27.9254   13.5272   21.6129 O   0  0  0  0  0  0  0  0  0  0  0  0
   28.2257   11.2956   22.2128 N   0  0  0  0  0  0  0  0  0  0  0  0
   29.1098    9.7365   20.4712 C   0  0  0  0  0  0  0  0  0  0  0  0
   29.0659   10.9928   21.1258 N   0  0  0  0  0  0  0  0  0  0  0  0
   30.2557   11.6845   20.7728 C   0  0  0  0  0  0  0  0  0  0  0  0
   31.0888   10.9372   19.7748 C   0  0  2  0  0  0  0  0  0  0  0  0
   31.2200   11.6822   18.4092 C   0  0  1  0  0  0  0  0  0  0  0  0
   32.0456   10.7145   17.4929 C   0  0  1  0  0  0  0  0  0  0  0  0
   31.2671    9.3854   17.2885 C   0  0  1  0  0  0  0  0  0  0  0  0
   29.9055    9.4383   18.0637 C   0  0  1  0  0  0  0  0  0  0  0  0
   30.2973    9.5880   19.5678 C   0  0  2  0  0  0  0  0  0  0  0  0
   31.5627   10.3033   16.0988 C   0  0  0  0  0  0  0  0  0  0  0  0
   29.8132   11.8451   17.8479 C   0  0  0  0  0  0  0  0  0  0  0  0
   29.1397   10.6954   17.6704 C   0  0  0  0  0  0  0  0  0  0  0  0
   30.6065   12.7738   21.2991 O   0  0  0  0  0  0  0  0  0  0  0  0
   28.2427    8.8399   20.6471 O   0  0  0  0  0  0  0  0  0  0  0  0
   25.5010   14.0467   27.6505 C   0  0  0  0  0  0  0  0  0  0  0  0
   26.2705   13.5762   28.7005 F   0  0  0  0  0  0  0  0  0  0  0  0
   24.2471   13.4687   27.7168 F   0  0  0  0  0  0  0  0  0  0  0  0
   25.3734   15.4181   27.7890 F   0  0  0  0  0  0  0  0  0  0  0  0
   28.0315   11.2754   24.8796 H   0  0  0  0  0  0  0  0  0  0  0  0
   27.0439   11.8638   27.0286 H   0  0  0  0  0  0  0  0  0  0  0  0
   25.3184   15.4083   25.2742 H   0  0  0  0  0  0  0  0  0  0  0  0
   26.2883   14.8132   23.1131 H   0  0  0  0  0  0  0  0  0  0  0  0
   27.7616   10.5097   22.7206 H   0  0  0  0  0  0  0  0  0  0  0  0
   32.0928   10.7374   20.2104 H   0  0  0  0  0  0  0  0  0  0  0  0
   31.7301   12.6624   18.5197 H   0  0  0  0  0  0  0  0  0  0  0  0
   33.1179   10.5417   17.7274 H   0  0  0  0  0  0  0  0  0  0  0  0
   31.9182    8.4935   17.4127 H   0  0  0  0  0  0  0  0  0  0  0  0
   29.3046    8.5223   17.8816 H   0  0  0  0  0  0  0  0  0  0  0  0
   30.9081    8.7204   19.9024 H   0  0  0  0  0  0  0  0  0  0  0  0
   32.3766    9.9272   15.4444 H   0  0  0  0  0  0  0  0  0  0  0  0
   30.7166   10.8668   15.6584 H   0  0  0  0  0  0  0  0  0  0  0  0
   29.3850   12.8119   17.6053 H   0  0  0  0  0  0  0  0  0  0  0  0
   28.1301   10.6695   17.2745 H   0  0  0  0  0  0  0  0  0  0  0  0
  4  5  2  0
  5  6  1  0
  6  7  2  0
  2  7  1  0
  1  8  2  0
  1  9  1  0
 10 11  1  0
 11 12  1  0
 13 12  1  0
 14 13  1  0
 14 15  1  0
 16 15  1  0
 17 16  1  0
 17 18  1  0
 18 10  1  0
 18 13  1  0
 15 19  1  0
 16 19  1  0
 20 21  2  0
 14 20  1  0
 17 21  1  0
 12 22  2  0
 10 23  2  0
  9 11  1  0
  5 24  1  0
  1  2  1  0
 24 25  1  0
  2  3  2  0
 24 26  1  0
  3  4  1  0
 24 27  1  0
  3 28  1  0
  4 29  1  0
  6 30  1  0
  7 31  1  0
  9 32  1  0
 13 33  1  1
 14 34  1  6
 15 35  1  1
 16 36  1  1
 17 37  1  6
 18 38  1  1
 19 39  1  0
 19 40  1  0
 20 41  1  0
 21 42  1  0
M  END
> <Uni-Dock RESULT> 
ENERGY=   -3.820  LOWER_BOUND=    9.148  UPPER_BOUND=   11.399
INTER + INTRA:          -3.820
INTER:                  -3.820
INTRA:                   0.000
UNBOUND:                 0.000

$$$$

     RDKit          3D

 42 46  0  0  0  0  0  0  0  0999 V2000
   30.9909    7.8300   28.5818 C   0  0  0  0  0  0  0  0  0  0  0  0
   31.7932    8.8153   27.8168 C   0  0  0  0  0  0  0  0  0  0  0  0
   33.1573    8.5934   27.5578 C   0  0  0  0  0  0  0  0  0  0  0  0
   33.9030    9.5254   26.8300 C   0  0  0  0  0  0  0  0  0  0  0  0
   33.2964   10.6873   26.3252 C   0  0  0  0  0  0  0  0  0  0  0  0
   31.9382   10.9186   26.5980 C   0  0  0  0  0  0  0  0  0  0  0  0
   31.1917    9.9868   27.3248 C   0  0  0  0  0  0  0  0  0  0  0  0
   29.7321    7.8625   28.5095 O   0  0  0  0  0  0  0  0  0  0  0  0
   31.6235    6.8664   29.4371 N   0  0  0  0  0  0  0  0  0  0  0  0
   31.2708    5.0359   31.1015 C   0  0  0  0  0  0  0  0  0  0  0  0
   30.9392    5.7331   29.9130 N   0  0  0  0  0  0  0  0  0  0  0  0
   30.1226    4.8654   29.1391 C   0  0  0  0  0  0  0  0  0  0  0  0
   29.7977    3.5853   29.8491 C   0  0  2  0  0  0  0  0  0  0  0  0
   28.2742    3.4229   30.1484 C   0  0  1  0  0  0  0  0  0  0  0  0
   28.1558    2.0828   30.9534 C   0  0  1  0  0  0  0  0  0  0  0  0
   28.9401    2.1966   32.2899 C   0  0  1  0  0  0  0  0  0  0  0  0
   29.5977    3.6150   32.4053 C   0  0  1  0  0  0  0  0  0  0  0  0
   30.5941    3.7019   31.2062 C   0  0  2  0  0  0  0  0  0  0  0  0
   27.4212    2.0006   32.2947 C   0  0  0  0  0  0  0  0  0  0  0  0
   27.8618    4.5917   31.0340 C   0  0  0  0  0  0  0  0  0  0  0  0
   28.5397    4.6900   32.1906 C   0  0  0  0  0  0  0  0  0  0  0  0
   29.7723    5.1156   27.9553 O   0  0  0  0  0  0  0  0  0  0  0  0
   32.0629    5.4933   31.9676 O   0  0  0  0  0  0  0  0  0  0  0  0
   34.1131   11.7155   25.5836 C   0  0  0  0  0  0  0  0  0  0  0  0
   35.1459   11.1108   24.8882 F   0  0  0  0  0  0  0  0  0  0  0  0
   34.6454   12.6134   26.4898 F   0  0  0  0  0  0  0  0  0  0  0  0
   33.3261   12.4035   24.6762 F   0  0  0  0  0  0  0  0  0  0  0  0
   33.6508    7.6944   27.9026 H   0  0  0  0  0  0  0  0  0  0  0  0
   34.9552    9.3351   26.6592 H   0  0  0  0  0  0  0  0  0  0  0  0
   31.4528   11.8222   26.2510 H   0  0  0  0  0  0  0  0  0  0  0  0
   30.1452   10.1913   27.5143 H   0  0  0  0  0  0  0  0  0  0  0  0
   32.5585    7.0936   29.8433 H   0  0  0  0  0  0  0  0  0  0  0  0
   30.1731    2.7268   29.2493 H   0  0  0  0  0  0  0  0  0  0  0  0
   27.6709    3.3855   29.2168 H   0  0  0  0  0  0  0  0  0  0  0  0
   28.3573    1.1245   30.4281 H   0  0  0  0  0  0  0  0  0  0  0  0
   29.5658    1.2998   32.4877 H   0  0  0  0  0  0  0  0  0  0  0  0
   30.1125    3.7400   33.3813 H   0  0  0  0  0  0  0  0  0  0  0  0
   31.3650    2.9029   31.2778 H   0  0  0  0  0  0  0  0  0  0  0  0
   27.1113    0.9694   32.5642 H   0  0  0  0  0  0  0  0  0  0  0  0
   26.7903    2.8616   32.5914 H   0  0  0  0  0  0  0  0  0  0  0  0
   27.0799    5.2913   30.7584 H   0  0  0  0  0  0  0  0  0  0  0  0
   28.3428    5.4744   32.9138 H   0  0  0  0  0  0  0  0  0  0  0  0
  4  5  2  0
  5  6  1  0
  6  7  2  0
  2  7  1  0
  1  8  2  0
  1  9  1  0
 10 11  1  0
 11 12  1  0
 13 12  1  0
 14 13  1  0
 14 15  1  0
 16 15  1  0
 17 16  1  0
 17 18  1  0
 18 10  1  0
 18 13  1  0
 15 19  1  0
 16 19  1  0
 20 21  2  0
 14 20  1  0
 17 21  1  0
 12 22  2  0
 10 23  2  0
  9 11  1  0
  5 24  1  0
  1  2  1  0
 24 25  1  0
  2  3  2  0
 24 26  1  0
  3  4  1  0
 24 27  1  0
  3 28  1  0
  4 29  1  0
  6 30  1  0
  7 31  1  0
  9 32  1  0
 13 33  1  1
 14 34  1  6
 15 35  1  1
 16 36  1  1
 17 37  1  6
 18 38  1  1
 19 39  1  0
 19 40  1  0
 20 41  1  0
 21 42  1  0
M  END
> <Uni-Dock RESULT> 
ENERGY=   -3.809  LOWER_BOUND=    1.803  UPPER_BOUND=    3.039
INTER + INTRA:          -3.809
INTER:                  -3.809
INTRA:                   0.000
UNBOUND:                 0.000

$$$$

     RDKit          3D

 42 46  0  0  0  0  0  0  0  0999 V2000
   28.4185    8.9277   29.3434 C   0  0  0  0  0  0  0  0  0  0  0  0
   29.8028    8.8658   28.8147 C   0  0  0  0  0  0  0  0  0  0  0  0
   30.2299    9.7397   27.7994 C   0  0  0  0  0  0  0  0  0  0  0  0
   31.5390    9.6774   27.3127 C   0  0  0  0  0  0  0  0  0  0  0  0
   32.4559    8.7570   27.8463 C   0  0  0  0  0  0  0  0  0  0  0  0
   32.0257    7.8718   28.8483 C   0  0  0  0  0  0  0  0  0  0  0  0
   30.7174    7.9341   29.3362 C   0  0  0  0  0  0  0  0  0  0  0  0
   28.1543    8.4006   30.4584 O   0  0  0  0  0  0  0  0  0  0  0  0
   27.3649    9.5414   28.5861 N   0  0  0  0  0  0  0  0  0  0  0  0
   24.9160   10.0268   28.4722 C   0  0  0  0  0  0  0  0  0  0  0  0
   26.1401    9.9037   29.1758 N   0  0  0  0  0  0  0  0  0  0  0  0
   25.9786   10.5906   30.4090 C   0  0  0  0  0  0  0  0  0  0  0  0
   24.5860   11.1096   30.6079 C   0  0  2  0  0  0  0  0  0  0  0  0
   23.8540   10.4463   31.8167 C   0  0  1  0  0  0  0  0  0  0  0  0
   22.4095   11.0552   31.8046 C   0  0  1  0  0  0  0  0  0  0  0  0
   21.6849   10.6740   30.4839 C   0  0  1  0  0  0  0  0  0  0  0  0
   22.6304    9.8023   29.5874 C   0  0  1  0  0  0  0  0  0  0  0  0
   23.8511   10.7218   29.2666 C   0  0  2  0  0  0  0  0  0  0  0  0
   21.1551   10.1768   31.8321 C   0  0  0  0  0  0  0  0  0  0  0  0
   23.7831    8.9509   31.5351 C   0  0  0  0  0  0  0  0  0  0  0  0
   23.1558    8.6208   30.3930 C   0  0  0  0  0  0  0  0  0  0  0  0
   26.9245   10.8032   31.2132 O   0  0  0  0  0  0  0  0  0  0  0  0
   24.7542    9.6038   27.2967 O   0  0  0  0  0  0  0  0  0  0  0  0
   33.8525    8.6569   27.2859 C   0  0  0  0  0  0  0  0  0  0  0  0
   34.2874    9.8908   26.8337 F   0  0  0  0  0  0  0  0  0  0  0  0
   33.8564    7.7637   26.2310 F   0  0  0  0  0  0  0  0  0  0  0  0
   34.7375    8.2153   28.2543 F   0  0  0  0  0  0  0  0  0  0  0  0
   29.5613   10.4837   27.3869 H   0  0  0  0  0  0  0  0  0  0  0  0
   31.8352   10.3527   26.5197 H   0  0  0  0  0  0  0  0  0  0  0  0
   32.7009    7.1289   29.2539 H   0  0  0  0  0  0  0  0  0  0  0  0
   30.4173    7.2414   30.1128 H   0  0  0  0  0  0  0  0  0  0  0  0
   27.4480    9.5731   27.5454 H   0  0  0  0  0  0  0  0  0  0  0  0
   24.6196   12.2151   30.7285 H   0  0  0  0  0  0  0  0  0  0  0  0
   24.3692   10.6555   32.7781 H   0  0  0  0  0  0  0  0  0  0  0  0
   22.2800   12.1289   32.0602 H   0  0  0  0  0  0  0  0  0  0  0  0
   21.1636   11.5415   30.0250 H   0  0  0  0  0  0  0  0  0  0  0  0
   22.1111    9.4669   28.6648 H   0  0  0  0  0  0  0  0  0  0  0  0
   23.5225   11.6346   28.7221 H   0  0  0  0  0  0  0  0  0  0  0  0
   20.2475   10.7163   32.1744 H   0  0  0  0  0  0  0  0  0  0  0  0
   21.2821    9.1028   32.0726 H   0  0  0  0  0  0  0  0  0  0  0  0
   24.2020    8.2060   32.2034 H   0  0  0  0  0  0  0  0  0  0  0  0
   23.0329    7.5909   30.0752 H   0  0  0  0  0  0  0  0  0  0  0  0
  4  5  2  0
  5  6  1  0
  6  7  2  0
  2  7  1  0
  1  8  2  0
  1  9  1  0
 10 11  1  0
 11 12  1  0
 13 12  1  0
 14 13  1  0
 14 15  1  0
 16 15  1  0
 17 16  1  0
 17 18  1  0
 18 10  1  0
 18 13  1  0
 15 19  1  0
 16 19  1  0
 20 21  2  0
 14 20  1  0
 17 21  1  0
 12 22  2  0
 10 23  2  0
  9 11  1  0
  5 24  1  0
  1  2  1  0
 24 25  1  0
  2  3  2  0
 24 26  1  0
  3  4  1  0
 24 27  1  0
  3 28  1  0
  4 29  1  0
  6 30  1  0
  7 31  1  0
  9 32  1  0
 13 33  1  1
 14 34  1  6
 15 35  1  1
 16 36  1  1
 17 37  1  6
 18 38  1  1
 19 39  1  0
 19 40  1  0
 20 41  1  0
 21 42  1  0
M  END
> <Uni-Dock RESULT> 
ENERGY=   -3.772  LOWER_BOUND=    5.600  UPPER_BOUND=    7.366
INTER + INTRA:          -3.772
INTER:                  -3.772
INTRA:                   0.000
UNBOUND:                 0.000

$$$$
