
     RDKit          3D

 34 33  0  0  0  0  0  0  0  0999 V2000
    1.8811   -0.4224   -0.7749 C   0  0  0  0  0  0  0  0  0  0  0  0
    0.9442   -0.6205    0.4081 C   0  0  0  0  0  0  0  0  0  0  0  0
    0.1650    0.5702    0.7457 N   0  0  0  0  0  0  0  0  0  0  0  0
   -0.7830    1.0044   -0.2800 C   0  0  0  0  0  0  0  0  0  0  0  0
   -1.9293    0.0295   -0.5102 C   0  0  0  0  0  0  0  0  0  0  0  0
    2.2429   -0.2654   -0.7480 S   0  0  0  0  0  0  0  0  0  0  0  0
    0.5486   -0.0705   -0.2874 C   0  0  0  0  0  0  0  0  0  0  0  0
    0.1110    1.0742    0.3787 C   0  0  0  0  0  0  0  0  0  0  0  0
   -0.3557   -1.0919   -0.5995 C   0  0  0  0  0  0  0  0  0  0  0  0
   -1.2340    1.2017    0.7347 C   0  0  0  0  0  0  0  0  0  0  0  0
    2.5705    0.7399   -1.7345 O   0  0  0  0  0  0  0  0  0  0  0  0
    2.4768   -1.6716   -1.0146 O   0  0  0  0  0  0  0  0  0  0  0  0
    3.1021    0.0226    0.5870 O   0  0  0  0  0  0  0  0  0  0  0  0
   -2.1391    0.1834    0.4244 C   0  0  0  0  0  0  0  0  0  0  0  0
    0.9802    2.0775    0.6847 O   0  0  0  0  0  0  0  0  0  0  0  0
   -1.6907   -0.9537   -0.2403 C   0  0  0  0  0  0  0  0  0  0  0  0
   -2.5401   -1.9693   -0.5617 O   0  0  0  0  0  0  0  0  0  0  0  0
    1.3315   -0.3035   -1.7135 H   0  0  0  0  0  0  0  0  0  0  0  0
    2.5196    0.4557   -0.6317 H   0  0  0  0  0  0  0  0  0  0  0  0
    2.5331   -1.2954   -0.8844 H   0  0  0  0  0  0  0  0  0  0  0  0
    0.2953   -1.4861    0.2374 H   0  0  0  0  0  0  0  0  0  0  0  0
    1.5576   -0.8682    1.2825 H   0  0  0  0  0  0  0  0  0  0  0  0
   -0.3425    0.3954    1.6132 H   0  0  0  0  0  0  0  0  0  0  0  0
   -0.2746    1.2238   -1.2246 H   0  0  0  0  0  0  0  0  0  0  0  0
   -1.2092    1.9577    0.0541 H   0  0  0  0  0  0  0  0  0  0  0  0
   -1.5813   -0.9072   -0.9560 H   0  0  0  0  0  0  0  0  0  0  0  0
   -2.4463   -0.2029    0.4267 H   0  0  0  0  0  0  0  0  0  0  0  0
   -2.6612    0.4694   -1.1956 H   0  0  0  0  0  0  0  0  0  0  0  0
   -0.0325   -1.9897   -1.1214 H   0  0  0  0  0  0  0  0  0  0  0  0
   -1.5946    2.0853    1.2542 H   0  0  0  0  0  0  0  0  0  0  0  0
    3.6727   -0.7586    0.7377 H   0  0  0  0  0  0  0  0  0  0  0  0
   -3.1818    0.2946    0.7067 H   0  0  0  0  0  0  0  0  0  0  0  0
    0.5021    2.8292    1.0723 H   0  0  0  0  0  0  0  0  0  0  0  0
   -3.4383   -1.7375   -0.2732 H   0  0  0  0  0  0  0  0  0  0  0  0
  1  2  1  0
  2  3  1  0
  3  4  1  0
  4  5  1  0
  7  6  1  0
  8  7  2  0
  9  7  1  0
 10  8  1  0
 11  6  2  0
 12  6  2  0
 13  6  1  0
 14 16  1  0
 15  8  1  0
 16  9  2  0
 10 14  2  0
 16 17  1  0
  1 18  1  0
  1 19  1  0
  1 20  1  0
  2 21  1  0
  2 22  1  0
  3 23  1  0
  4 24  1  0
  4 25  1  0
  5 26  1  0
  5 27  1  0
  5 28  1  0
  9 29  1  0
 10 30  1  0
 13 31  1  0
 14 32  1  0
 15 33  1  0
 17 34  1  0
M  END
$$$$
