
     RDKit          3D

 34 33  0  0  0  0  0  0  0  0999 V2000
    2.1340    0.1307   -0.1812 C   0  0  0  0  0  0  0  0  0  0  0  0
    1.1884   -0.8459    0.5034 C   0  0  0  0  0  0  0  0  0  0  0  0
   -0.1937   -0.7337    0.0350 N   0  0  0  0  0  0  0  0  0  0  0  0
   -0.8422    0.5012    0.4761 C   0  0  0  0  0  0  0  0  0  0  0  0
   -2.3061    0.4892    0.0597 C   0  0  0  0  0  0  0  0  0  0  0  0
    2.2520   -0.0461    0.4427 S   0  0  0  0  0  0  0  0  0  0  0  0
    0.5252   -0.1253    0.1061 C   0  0  0  0  0  0  0  0  0  0  0  0
   -0.2852   -1.1291    0.6395 C   0  0  0  0  0  0  0  0  0  0  0  0
   -0.0206    0.8542   -0.7321 C   0  0  0  0  0  0  0  0  0  0  0  0
   -1.6467   -1.1488    0.3322 C   0  0  0  0  0  0  0  0  0  0  0  0
    2.9574    0.0968   -0.8112 O   0  0  0  0  0  0  0  0  0  0  0  0
    2.5661   -1.1108    1.3746 O   0  0  0  0  0  0  0  0  0  0  0  0
    2.4527    1.3501    1.2232 O   0  0  0  0  0  0  0  0  0  0  0  0
   -2.1983   -0.1730   -0.5011 C   0  0  0  0  0  0  0  0  0  0  0  0
    0.1407   -2.1296    1.4664 O   0  0  0  0  0  0  0  0  0  0  0  0
   -1.3779    0.8204   -1.0254 C   0  0  0  0  0  0  0  0  0  0  0  0
   -1.8714    1.7923   -1.8427 O   0  0  0  0  0  0  0  0  0  0  0  0
    3.1668   -0.0799    0.1156 H   0  0  0  0  0  0  0  0  0  0  0  0
    2.0740    0.0409   -1.2710 H   0  0  0  0  0  0  0  0  0  0  0  0
    1.9175    1.1675    0.0932 H   0  0  0  0  0  0  0  0  0  0  0  0
    1.5338   -1.8620    0.2802 H   0  0  0  0  0  0  0  0  0  0  0  0
    1.2422   -0.7299    1.5922 H   0  0  0  0  0  0  0  0  0  0  0  0
   -0.7237   -1.5301    0.3897 H   0  0  0  0  0  0  0  0  0  0  0  0
   -0.7834    0.6004    1.5660 H   0  0  0  0  0  0  0  0  0  0  0  0
   -0.3613    1.3750    0.0249 H   0  0  0  0  0  0  0  0  0  0  0  0
   -2.8428   -0.3491    0.5168 H   0  0  0  0  0  0  0  0  0  0  0  0
   -2.4078    0.4105   -1.0280 H   0  0  0  0  0  0  0  0  0  0  0  0
   -2.7957    1.4153    0.3778 H   0  0  0  0  0  0  0  0  0  0  0  0
    0.6010    1.6361   -1.1608 H   0  0  0  0  0  0  0  0  0  0  0  0
   -2.2806   -1.9297    0.7466 H   0  0  0  0  0  0  0  0  0  0  0  0
    3.1707    1.8440    0.7734 H   0  0  0  0  0  0  0  0  0  0  0  0
   -3.2599   -0.2072   -0.7257 H   0  0  0  0  0  0  0  0  0  0  0  0
    1.0969   -2.0334    1.6696 H   0  0  0  0  0  0  0  0  0  0  0  0
   -2.8222    1.6391   -1.9750 H   0  0  0  0  0  0  0  0  0  0  0  0
  1  2  1  0
  2  3  1  0
  3  4  1  0
  4  5  1  0
  7  6  1  0
  8  7  2  0
  9  7  1  0
 10  8  1  0
 11  6  2  0
 12  6  2  0
 13  6  1  0
 14 16  1  0
 15  8  1  0
 16  9  2  0
 10 14  2  0
 16 17  1  0
  1 18  1  0
  1 19  1  0
  1 20  1  0
  2 21  1  0
  2 22  1  0
  3 23  1  0
  4 24  1  0
  4 25  1  0
  5 26  1  0
  5 27  1  0
  5 28  1  0
  9 29  1  0
 10 30  1  0
 13 31  1  0
 14 32  1  0
 15 33  1  0
 17 34  1  0
M  END
$$$$
