
     RDKit          2D

 17 16  0  0  0  0  0  0  0  0999 V2000
    1.2964   -3.5652    0.0000 C   0  0  0  0  0  0  0  0  0  0  0  0
    2.0109   -3.1527    0.0000 C   0  0  0  0  0  0  0  0  0  0  0  0
    2.7254   -3.5652    0.0000 N   0  0  0  0  0  0  0  0  0  0  0  0
    3.4398   -3.1527    0.0000 C   0  0  0  0  0  0  0  0  0  0  0  0
    4.1543   -3.5652    0.0000 C   0  0  0  0  0  0  0  0  0  0  0  0
   -1.1273   -0.3741    0.0000 S   0  0  0  0  0  0  0  0  0  0  0  0
   -0.3453   -0.0960    0.0000 C   0  0  0  0  0  0  0  0  0  0  0  0
   -0.1990    0.7172    0.0000 C   0  0  0  0  0  0  0  0  0  0  0  0
    0.2759   -0.6332    0.0000 C   0  0  0  0  0  0  0  0  0  0  0  0
    0.5756    0.9906    0.0000 C   0  0  0  0  0  0  0  0  0  0  0  0
   -1.9356   -0.5109    0.0000 O   0  0  0  0  0  0  0  0  0  0  0  0
   -1.3360    0.4293    0.0000 O   0  0  0  0  0  0  0  0  0  0  0  0
   -1.0625   -1.1945    0.0000 O   0  0  0  0  0  0  0  0  0  0  0  0
    1.2041    0.4581    0.0000 C   0  0  0  0  0  0  0  0  0  0  0  0
   -0.8323    1.2496    0.0000 O   0  0  0  0  0  0  0  0  0  0  0  0
    1.0530   -0.3550    0.0000 C   0  0  0  0  0  0  0  0  0  0  0  0
    1.6808   -0.8896    0.0000 O   0  0  0  0  0  0  0  0  0  0  0  0
  1  2  1  0
  2  3  1  0
  3  4  1  0
  4  5  1  0
  7  6  1  0
  8  7  1  0
  9  7  2  0
 10  8  2  0
 11  6  2  0
 12  6  2  0
 13  6  1  0
 14 16  2  0
 15  8  1  0
 16  9  1  0
 10 14  1  0
 16 17  1  0
M  END
> <chembl_id>
CHEMBL1514715

> <chembl_pref_name>
ETHAMSYLATE
