
     RDKit          3D

 34 33  0  0  0  0  0  0  0  0999 V2000
    1.9165   -0.0144    0.5617 C   0  0  0  0  0  0  0  0  0  0  0  0
    0.8824   -0.8365   -0.1948 C   0  0  0  0  0  0  0  0  0  0  0  0
   -0.0883   -0.0297   -0.9337 N   0  0  0  0  0  0  0  0  0  0  0  0
   -0.9933    0.7668   -0.1057 C   0  0  0  0  0  0  0  0  0  0  0  0
   -1.9242   -0.0696    0.7606 C   0  0  0  0  0  0  0  0  0  0  0  0
    1.8013    1.4927   -0.2679 S   0  0  0  0  0  0  0  0  0  0  0  0
    0.3987    0.4504    0.0075 C   0  0  0  0  0  0  0  0  0  0  0  0
    0.5610   -0.9285    0.1559 C   0  0  0  0  0  0  0  0  0  0  0  0
   -0.8735    1.0318    0.0548 C   0  0  0  0  0  0  0  0  0  0  0  0
   -0.5547   -1.7386    0.3654 C   0  0  0  0  0  0  0  0  0  0  0  0
    2.4610    1.6517    1.0098 O   0  0  0  0  0  0  0  0  0  0  0  0
    1.3541    2.6318   -1.0417 O   0  0  0  0  0  0  0  0  0  0  0  0
    2.7810    0.6200   -1.2119 O   0  0  0  0  0  0  0  0  0  0  0  0
   -1.8260   -1.1624    0.4191 C   0  0  0  0  0  0  0  0  0  0  0  0
    1.8073   -1.4911    0.0943 O   0  0  0  0  0  0  0  0  0  0  0  0
   -1.9759    0.2127    0.2621 C   0  0  0  0  0  0  0  0  0  0  0  0
   -3.2387    0.7206    0.3177 O   0  0  0  0  0  0  0  0  0  0  0  0
    2.6787   -0.6749    0.9882 H   0  0  0  0  0  0  0  0  0  0  0  0
    2.4222    0.6946   -0.1021 H   0  0  0  0  0  0  0  0  0  0  0  0
    1.4651    0.5444    1.3870 H   0  0  0  0  0  0  0  0  0  0  0  0
    1.4116   -1.4587   -0.9262 H   0  0  0  0  0  0  0  0  0  0  0  0
    0.3839   -1.5375    0.4826 H   0  0  0  0  0  0  0  0  0  0  0  0
    0.4127    0.5944   -1.5663 H   0  0  0  0  0  0  0  0  0  0  0  0
   -1.6144    1.3649   -0.7830 H   0  0  0  0  0  0  0  0  0  0  0  0
   -0.4414    1.4830    0.5123 H   0  0  0  0  0  0  0  0  0  0  0  0
   -1.3811   -0.5937    1.5527 H   0  0  0  0  0  0  0  0  0  0  0  0
   -2.4648   -0.8095    0.1610 H   0  0  0  0  0  0  0  0  0  0  0  0
   -2.6657    0.5763    1.2425 H   0  0  0  0  0  0  0  0  0  0  0  0
   -0.9884    2.1053   -0.0691 H   0  0  0  0  0  0  0  0  0  0  0  0
   -0.4632   -2.8145    0.4837 H   0  0  0  0  0  0  0  0  0  0  0  0
    2.9317   -0.2458   -0.7675 H   0  0  0  0  0  0  0  0  0  0  0  0
   -2.7029   -1.7850    0.5801 H   0  0  0  0  0  0  0  0  0  0  0  0
    1.7304   -2.4334    0.3407 H   0  0  0  0  0  0  0  0  0  0  0  0
   -3.2032    1.6823    0.1776 H   0  0  0  0  0  0  0  0  0  0  0  0
  1  2  1  0
  2  3  1  0
  3  4  1  0
  4  5  1  0
  7  6  1  0
  8  7  2  0
  9  7  1  0
 10  8  1  0
 11  6  2  0
 12  6  2  0
 13  6  1  0
 14 16  1  0
 15  8  1  0
 16  9  2  0
 10 14  2  0
 16 17  1  0
  1 18  1  0
  1 19  1  0
  1 20  1  0
  2 21  1  0
  2 22  1  0
  3 23  1  0
  4 24  1  0
  4 25  1  0
  5 26  1  0
  5 27  1  0
  5 28  1  0
  9 29  1  0
 10 30  1  0
 13 31  1  0
 14 32  1  0
 15 33  1  0
 17 34  1  0
M  END
$$$$
