
     RDKit          3D

 34 33  0  0  0  0  0  0  0  0999 V2000
   -2.4430    0.1279   -0.3607 C   0  0  0  0  0  0  0  0  0  0  0  0
   -1.1984    0.3583    0.4828 C   0  0  0  0  0  0  0  0  0  0  0  0
   -0.0088   -0.0252   -0.2749 N   0  0  0  0  0  0  0  0  0  0  0  0
    1.2073    0.1945    0.5055 C   0  0  0  0  0  0  0  0  0  0  0  0
    2.4248   -0.2035   -0.3148 C   0  0  0  0  0  0  0  0  0  0  0  0
   -2.2915    0.1329   -0.0326 S   0  0  0  0  0  0  0  0  0  0  0  0
   -0.5328    0.1237    0.0597 C   0  0  0  0  0  0  0  0  0  0  0  0
    0.2075    1.3039    0.1474 C   0  0  0  0  0  0  0  0  0  0  0  0
    0.1132   -1.1182    0.0532 C   0  0  0  0  0  0  0  0  0  0  0  0
    1.5996    1.2375    0.2271 C   0  0  0  0  0  0  0  0  0  0  0  0
   -2.8071   -0.7894    0.9541 O   0  0  0  0  0  0  0  0  0  0  0  0
   -2.7207    1.5166   -0.0774 O   0  0  0  0  0  0  0  0  0  0  0  0
   -2.6290   -0.5213   -1.4668 O   0  0  0  0  0  0  0  0  0  0  0  0
    2.2507    0.0019    0.2183 C   0  0  0  0  0  0  0  0  0  0  0  0
   -0.3179    2.5649    0.1601 O   0  0  0  0  0  0  0  0  0  0  0  0
    1.4993   -1.1654    0.1311 C   0  0  0  0  0  0  0  0  0  0  0  0
    2.0907   -2.3926    0.1195 O   0  0  0  0  0  0  0  0  0  0  0  0
   -3.3383    0.4042    0.2054 H   0  0  0  0  0  0  0  0  0  0  0  0
   -2.5375   -0.9248   -0.6482 H   0  0  0  0  0  0  0  0  0  0  0  0
   -2.4219    0.7327   -1.2737 H   0  0  0  0  0  0  0  0  0  0  0  0
   -1.1495    1.4154    0.7681 H   0  0  0  0  0  0  0  0  0  0  0  0
   -1.2740   -0.2395    1.3982 H   0  0  0  0  0  0  0  0  0  0  0  0
    0.0360    0.5137   -1.1395 H   0  0  0  0  0  0  0  0  0  0  0  0
    1.2967    1.2489    0.7911 H   0  0  0  0  0  0  0  0  0  0  0  0
    1.1840   -0.4069    1.4214 H   0  0  0  0  0  0  0  0  0  0  0  0
    2.3811   -1.2596   -0.6018 H   0  0  0  0  0  0  0  0  0  0  0  0
    3.3385   -0.0503    0.2684 H   0  0  0  0  0  0  0  0  0  0  0  0
    2.5030    0.3974   -1.2272 H   0  0  0  0  0  0  0  0  0  0  0  0
   -0.4520   -2.0448   -0.0059 H   0  0  0  0  0  0  0  0  0  0  0  0
    2.1792    2.1555    0.2953 H   0  0  0  0  0  0  0  0  0  0  0  0
   -3.2814   -1.2391   -1.3223 H   0  0  0  0  0  0  0  0  0  0  0  0
    3.3343   -0.0259    0.2801 H   0  0  0  0  0  0  0  0  0  0  0  0
   -1.2951    2.5385    0.0641 H   0  0  0  0  0  0  0  0  0  0  0  0
    3.0531   -2.2787    0.1952 H   0  0  0  0  0  0  0  0  0  0  0  0
  1  2  1  0
  2  3  1  0
  3  4  1  0
  4  5  1  0
  7  6  1  0
  8  7  2  0
  9  7  1  0
 10  8  1  0
 11  6  2  0
 12  6  2  0
 13  6  1  0
 14 16  1  0
 15  8  1  0
 16  9  2  0
 10 14  2  0
 16 17  1  0
  1 18  1  0
  1 19  1  0
  1 20  1  0
  2 21  1  0
  2 22  1  0
  3 23  1  0
  4 24  1  0
  4 25  1  0
  5 26  1  0
  5 27  1  0
  5 28  1  0
  9 29  1  0
 10 30  1  0
 13 31  1  0
 14 32  1  0
 15 33  1  0
 17 34  1  0
M  END
$$$$
