
     RDKit          3D

 34 33  0  0  0  0  0  0  0  0999 V2000
   -2.4594    0.2082   -0.0968 C   0  0  0  0  0  0  0  0  0  0  0  0
   -1.1269   -0.3297   -0.5955 C   0  0  0  0  0  0  0  0  0  0  0  0
   -0.0355    0.2509    0.1843 N   0  0  0  0  0  0  0  0  0  0  0  0
    1.2605   -0.2549   -0.2640 C   0  0  0  0  0  0  0  0  0  0  0  0
    2.3712    0.3596    0.5740 C   0  0  0  0  0  0  0  0  0  0  0  0
   -2.1658   -1.0559   -0.4098 S   0  0  0  0  0  0  0  0  0  0  0  0
   -0.5552   -0.4051   -0.0788 C   0  0  0  0  0  0  0  0  0  0  0  0
   -0.3600    0.9709    0.0528 C   0  0  0  0  0  0  0  0  0  0  0  0
    0.5205   -1.2894    0.0352 C   0  0  0  0  0  0  0  0  0  0  0  0
    0.9182    1.4694    0.3098 C   0  0  0  0  0  0  0  0  0  0  0  0
   -2.0064   -2.2834   -1.1600 O   0  0  0  0  0  0  0  0  0  0  0  0
   -2.8985   -1.0123    0.8373 O   0  0  0  0  0  0  0  0  0  0  0  0
   -2.8457    0.0270   -1.3998 O   0  0  0  0  0  0  0  0  0  0  0  0
    1.9969    0.5882    0.4305 C   0  0  0  0  0  0  0  0  0  0  0  0
   -1.4137    1.8363   -0.0700 O   0  0  0  0  0  0  0  0  0  0  0  0
    1.7877   -0.7818    0.2914 C   0  0  0  0  0  0  0  0  0  0  0  0
    2.8139   -1.6708    0.4008 O   0  0  0  0  0  0  0  0  0  0  0  0
   -2.5063    1.2985   -0.1902 H   0  0  0  0  0  0  0  0  0  0  0  0
   -3.2804   -0.2158   -0.6839 H   0  0  0  0  0  0  0  0  0  0  0  0
   -2.6259   -0.0541    0.9535 H   0  0  0  0  0  0  0  0  0  0  0  0
   -1.1255   -1.4222   -0.5064 H   0  0  0  0  0  0  0  0  0  0  0  0
   -1.0143   -0.0732   -1.6550 H   0  0  0  0  0  0  0  0  0  0  0  0
   -0.1659    0.0335    1.1721 H   0  0  0  0  0  0  0  0  0  0  0  0
    1.4250    0.0032   -1.3162 H   0  0  0  0  0  0  0  0  0  0  0  0
    1.3020   -1.3462   -0.1693 H   0  0  0  0  0  0  0  0  0  0  0  0
    2.2613    0.0990    1.6321 H   0  0  0  0  0  0  0  0  0  0  0  0
    3.3455   -0.0082    0.2362 H   0  0  0  0  0  0  0  0  0  0  0  0
    2.3747    1.4515    0.4877 H   0  0  0  0  0  0  0  0  0  0  0  0
    0.3782   -2.3624   -0.0724 H   0  0  0  0  0  0  0  0  0  0  0  0
    1.0984    2.5357    0.4151 H   0  0  0  0  0  0  0  0  0  0  0  0
   -2.7871    0.9074   -0.9633 H   0  0  0  0  0  0  0  0  0  0  0  0
    2.9882    0.9852    0.6299 H   0  0  0  0  0  0  0  0  0  0  0  0
   -1.1092    2.7309    0.1763 H   0  0  0  0  0  0  0  0  0  0  0  0
    3.6396   -1.1898    0.5751 H   0  0  0  0  0  0  0  0  0  0  0  0
  1  2  1  0
  2  3  1  0
  3  4  1  0
  4  5  1  0
  7  6  1  0
  8  7  2  0
  9  7  1  0
 10  8  1  0
 11  6  2  0
 12  6  2  0
 13  6  1  0
 14 16  1  0
 15  8  1  0
 16  9  2  0
 10 14  2  0
 16 17  1  0
  1 18  1  0
  1 19  1  0
  1 20  1  0
  2 21  1  0
  2 22  1  0
  3 23  1  0
  4 24  1  0
  4 25  1  0
  5 26  1  0
  5 27  1  0
  5 28  1  0
  9 29  1  0
 10 30  1  0
 13 31  1  0
 14 32  1  0
 15 33  1  0
 17 34  1  0
M  END
$$$$
