
     RDKit          3D

 61 60  0  0  0  0  0  0  0  0999 V2000
   46.1972    6.0109   13.1435 C   0  0  1  0  0  0  0  0  0  0  0  0
   46.7597    7.3815   12.8055 C   0  0  0  0  0  0  0  0  0  0  0  0
   45.1762    5.4230   12.1053 C   0  0  1  0  0  0  0  0  0  0  0  0
   43.8432    6.0560   12.2173 N   0  0  0  0  0  0  0  0  0  0  0  0
   47.2655    5.0705   13.3372 O   0  0  0  0  0  0  0  0  0  0  0  0
   45.9542    8.5244   12.9358 C   0  0  0  0  0  0  0  0  0  0  0  0
   48.0774    7.5485   12.3513 C   0  0  0  0  0  0  0  0  0  0  0  0
   42.8306    5.4299   11.3765 C   0  0  0  0  0  0  0  0  0  0  0  0
   45.7411    5.4644   10.6778 C   0  0  0  0  0  0  0  0  0  0  0  0
   46.4490    9.7923   12.6203 C   0  0  0  0  0  0  0  0  0  0  0  0
   48.5731    8.8159   12.0364 C   0  0  0  0  0  0  0  0  0  0  0  0
   47.7589    9.9380   12.1711 C   0  0  0  0  0  0  0  0  0  0  0  0
   45.9121    7.2335   11.9598 S   0  0  0  0  0  0  0  0  0  0  0  0
   44.8224    7.7903   11.1998 O   0  0  0  0  0  0  0  0  0  0  0  0
   47.1471    7.9282   12.2217 O   0  0  0  0  0  0  0  0  0  0  0  0
   46.2599    5.8205   11.2847 O   0  0  0  0  0  0  0  0  0  0  0  0
   45.3463    6.7646   13.3858 O   0  0  0  0  0  0  0  0  0  0  0  0
   45.3103    7.6420   12.6701 C   0  0  1  0  0  0  0  0  0  0  0  0
   44.6730    6.3746   12.1235 C   0  0  0  0  0  0  0  0  0  0  0  0
   46.8676    7.5771   12.8392 C   0  0  1  0  0  0  0  0  0  0  0  0
   47.5510    7.7006   11.5323 N   0  0  0  0  0  0  0  0  0  0  0  0
   44.9459    8.7783   11.8702 O   0  0  0  0  0  0  0  0  0  0  0  0
   44.9578    5.9041   10.8327 C   0  0  0  0  0  0  0  0  0  0  0  0
   43.7593    5.6547   12.9101 C   0  0  0  0  0  0  0  0  0  0  0  0
   48.9891    7.5114   11.5904 C   0  0  0  0  0  0  0  0  0  0  0  0
   47.3087    8.6993   13.7938 C   0  0  0  0  0  0  0  0  0  0  0  0
   44.3540    4.7433   10.3450 C   0  0  0  0  0  0  0  0  0  0  0  0
   43.1547    4.4942   12.4211 C   0  0  0  0  0  0  0  0  0  0  0  0
   43.4534    4.0383   11.1392 C   0  0  0  0  0  0  0  0  0  0  0  0
   45.7092    6.0905   14.1240 H   0  0  0  0  0  0  0  0  0  0  0  0
   45.0555    4.3622   12.3637 H   0  0  0  0  0  0  0  0  0  0  0  0
   43.5332    6.0105   13.1871 H   0  0  0  0  0  0  0  0  0  0  0  0
   46.8795    4.2923   13.7715 H   0  0  0  0  0  0  0  0  0  0  0  0
   44.9254    8.4326   13.2740 H   0  0  0  0  0  0  0  0  0  0  0  0
   48.7296    6.6855   12.2371 H   0  0  0  0  0  0  0  0  0  0  0  0
   43.0317    5.5877   10.3125 H   0  0  0  0  0  0  0  0  0  0  0  0
   41.8564    5.8860   11.5850 H   0  0  0  0  0  0  0  0  0  0  0  0
   42.7479    4.3566   11.5770 H   0  0  0  0  0  0  0  0  0  0  0  0
   45.7500    6.4832   10.2747 H   0  0  0  0  0  0  0  0  0  0  0  0
   45.1530    4.8406    9.9966 H   0  0  0  0  0  0  0  0  0  0  0  0
   46.7661    5.0794   10.6507 H   0  0  0  0  0  0  0  0  0  0  0  0
   45.8080   10.6641   12.7201 H   0  0  0  0  0  0  0  0  0  0  0  0
   49.5956    8.9234   11.6857 H   0  0  0  0  0  0  0  0  0  0  0  0
   48.1440   10.9232   11.9232 H   0  0  0  0  0  0  0  0  0  0  0  0
   45.4414    5.4959   10.8560 H   0  0  0  0  0  0  0  0  0  0  0  0
   46.1143    6.6897   13.9895 H   0  0  0  0  0  0  0  0  0  0  0  0
   44.8732    7.8325   13.6582 H   0  0  0  0  0  0  0  0  0  0  0  0
   47.1223    6.6115   13.2949 H   0  0  0  0  0  0  0  0  0  0  0  0
   47.3179    8.6144   11.1375 H   0  0  0  0  0  0  0  0  0  0  0  0
   44.2490    8.4833   11.2600 H   0  0  0  0  0  0  0  0  0  0  0  0
   45.6604    6.4380   10.1958 H   0  0  0  0  0  0  0  0  0  0  0  0
   43.5088    5.9925   13.9138 H   0  0  0  0  0  0  0  0  0  0  0  0
   49.2451    6.5501   12.0465 H   0  0  0  0  0  0  0  0  0  0  0  0
   49.4948    8.3134   12.1340 H   0  0  0  0  0  0  0  0  0  0  0  0
   49.3913    7.5054   10.5720 H   0  0  0  0  0  0  0  0  0  0  0  0
   47.1436    9.6903   13.3559 H   0  0  0  0  0  0  0  0  0  0  0  0
   46.7475    8.6509   14.7337 H   0  0  0  0  0  0  0  0  0  0  0  0
   48.3683    8.6138   14.0557 H   0  0  0  0  0  0  0  0  0  0  0  0
   44.5917    4.3902    9.3449 H   0  0  0  0  0  0  0  0  0  0  0  0
   42.4511    3.9457   13.0419 H   0  0  0  0  0  0  0  0  0  0  0  0
   42.9858    3.1342   10.7590 H   0  0  0  0  0  0  0  0  0  0  0  0
  2  1  1  0
  3  1  1  0
  4  3  1  0
  1  5  1  0
  6  2  2  0
  7  2  1  0
  8  4  1  0
  3  9  1  0
 10  6  1  0
 11  7  2  0
 12 10  2  0
 12 11  1  0
 14 13  2  0
 15 13  2  0
 16 13  1  0
 17 13  1  0
 19 18  1  0
 20 18  1  0
 21 20  1  0
 18 22  1  0
 23 19  2  0
 24 19  1  0
 25 21  1  0
 20 26  1  0
 27 23  1  0
 28 24  2  0
 29 27  2  0
 29 28  1  0
  1 30  1  6
  3 31  1  6
  4 32  1  0
  5 33  1  0
  6 34  1  0
  7 35  1  0
  8 36  1  0
  8 37  1  0
  8 38  1  0
  9 39  1  0
  9 40  1  0
  9 41  1  0
 10 42  1  0
 11 43  1  0
 12 44  1  0
 16 45  1  0
 17 46  1  0
 18 47  1  1
 20 48  1  6
 21 49  1  0
 22 50  1  0
 23 51  1  0
 24 52  1  0
 25 53  1  0
 25 54  1  0
 25 55  1  0
 26 56  1  0
 26 57  1  0
 26 58  1  0
 27 59  1  0
 28 60  1  0
 29 61  1  0
M  END
> <Uni-Dock RESULT> 
ENERGY=   -6.124  LOWER_BOUND=    0.000  UPPER_BOUND=    0.000
INTER + INTRA:          -6.124
INTER:                  -6.124
INTRA:                   0.000
UNBOUND:                 0.000

$$$$

     RDKit          3D

 61 60  0  0  0  0  0  0  0  0999 V2000
   44.7529    7.3584   11.6172 C   0  0  1  0  0  0  0  0  0  0  0  0
   44.3417    5.8983   11.7085 C   0  0  0  0  0  0  0  0  0  0  0  0
   46.2515    7.6634   11.9737 C   0  0  1  0  0  0  0  0  0  0  0  0
   46.4927    7.6321   13.4335 N   0  0  0  0  0  0  0  0  0  0  0  0
   44.4668    7.8731   10.3070 O   0  0  0  0  0  0  0  0  0  0  0  0
   44.1767    5.2909   12.9638 C   0  0  0  0  0  0  0  0  0  0  0  0
   44.1248    5.1181   10.5618 C   0  0  0  0  0  0  0  0  0  0  0  0
   47.8339    8.0611   13.8097 C   0  0  0  0  0  0  0  0  0  0  0  0
   47.2108    6.7572   11.1883 C   0  0  0  0  0  0  0  0  0  0  0  0
   43.8093    3.9471   13.0694 C   0  0  0  0  0  0  0  0  0  0  0  0
   43.7566    3.7748   10.6665 C   0  0  0  0  0  0  0  0  0  0  0  0
   43.5985    3.1891   11.9204 C   0  0  0  0  0  0  0  0  0  0  0  0
   45.4568    5.8827   12.1687 S   0  0  0  0  0  0  0  0  0  0  0  0
   46.3605    5.4131   13.1875 O   0  0  0  0  0  0  0  0  0  0  0  0
   44.4898    5.0462   11.5042 O   0  0  0  0  0  0  0  0  0  0  0  0
   46.3628    6.5938   11.0521 O   0  0  0  0  0  0  0  0  0  0  0  0
   44.6441    7.1364   12.7528 O   0  0  0  0  0  0  0  0  0  0  0  0
   44.9664    6.0878   13.0353 C   0  0  1  0  0  0  0  0  0  0  0  0
   46.1213    7.0601   12.8559 C   0  0  0  0  0  0  0  0  0  0  0  0
   44.2024    5.7207   11.7165 C   0  0  1  0  0  0  0  0  0  0  0  0
   44.9829    4.7677   10.8962 N   0  0  0  0  0  0  0  0  0  0  0  0
   45.4078    4.8936   13.7009 O   0  0  0  0  0  0  0  0  0  0  0  0
   47.2543    6.7267   12.0983 C   0  0  0  0  0  0  0  0  0  0  0  0
   46.0779    8.3208   13.4727 C   0  0  0  0  0  0  0  0  0  0  0  0
   44.4040    4.4864    9.5951 C   0  0  0  0  0  0  0  0  0  0  0  0
   42.8328    5.1272   12.0871 C   0  0  0  0  0  0  0  0  0  0  0  0
   48.3094    7.6298   11.9539 C   0  0  0  0  0  0  0  0  0  0  0  0
   47.1343    9.2233   13.3288 C   0  0  0  0  0  0  0  0  0  0  0  0
   48.2491    8.8779   12.5683 C   0  0  0  0  0  0  0  0  0  0  0  0
   44.0987    7.9252   12.2928 H   0  0  0  0  0  0  0  0  0  0  0  0
   46.4426    8.6906   11.6343 H   0  0  0  0  0  0  0  0  0  0  0  0
   45.8165    8.2382   13.8961 H   0  0  0  0  0  0  0  0  0  0  0  0
   44.5230    8.8408   10.3669 H   0  0  0  0  0  0  0  0  0  0  0  0
   44.3469    5.8607   13.8735 H   0  0  0  0  0  0  0  0  0  0  0  0
   44.2445    5.5550    9.5729 H   0  0  0  0  0  0  0  0  0  0  0  0
   48.5968    7.3531   13.4716 H   0  0  0  0  0  0  0  0  0  0  0  0
   47.9054    8.1047   14.9022 H   0  0  0  0  0  0  0  0  0  0  0  0
   48.0625    9.0580   13.4189 H   0  0  0  0  0  0  0  0  0  0  0  0
   47.2025    5.7303   11.5703 H   0  0  0  0  0  0  0  0  0  0  0  0
   48.2410    7.1247   11.2402 H   0  0  0  0  0  0  0  0  0  0  0  0
   46.9409    6.7271   10.1272 H   0  0  0  0  0  0  0  0  0  0  0  0
   43.6941    3.4926   14.0497 H   0  0  0  0  0  0  0  0  0  0  0  0
   43.5943    3.1881    9.7668 H   0  0  0  0  0  0  0  0  0  0  0  0
   43.3151    2.1434   12.0013 H   0  0  0  0  0  0  0  0  0  0  0  0
   47.1732    6.9144   11.4989 H   0  0  0  0  0  0  0  0  0  0  0  0
   43.8420    7.2420   12.2001 H   0  0  0  0  0  0  0  0  0  0  0  0
   44.2471    6.5517   13.7218 H   0  0  0  0  0  0  0  0  0  0  0  0
   44.0393    6.6448   11.1470 H   0  0  0  0  0  0  0  0  0  0  0  0
   45.1031    3.9083   11.4367 H   0  0  0  0  0  0  0  0  0  0  0  0
   46.3115    5.0631   14.0168 H   0  0  0  0  0  0  0  0  0  0  0  0
   47.3215    5.7577   11.6074 H   0  0  0  0  0  0  0  0  0  0  0  0
   45.2184    8.6122   14.0732 H   0  0  0  0  0  0  0  0  0  0  0  0
   44.2386    5.4068    9.0266 H   0  0  0  0  0  0  0  0  0  0  0  0
   43.4638    3.9339    9.6663 H   0  0  0  0  0  0  0  0  0  0  0  0
   45.1008    3.8690    9.0186 H   0  0  0  0  0  0  0  0  0  0  0  0
   42.9352    4.1621   12.5964 H   0  0  0  0  0  0  0  0  0  0  0  0
   42.2865    5.8021   12.7556 H   0  0  0  0  0  0  0  0  0  0  0  0
   42.2028    4.9820   11.2036 H   0  0  0  0  0  0  0  0  0  0  0  0
   49.1764    7.3568   11.3578 H   0  0  0  0  0  0  0  0  0  0  0  0
   47.0861   10.1967   13.8099 H   0  0  0  0  0  0  0  0  0  0  0  0
   49.0701    9.5804   12.4535 H   0  0  0  0  0  0  0  0  0  0  0  0
  2  1  1  0
  3  1  1  0
  4  3  1  0
  1  5  1  0
  6  2  2  0
  7  2  1  0
  8  4  1  0
  3  9  1  0
 10  6  1  0
 11  7  2  0
 12 10  2  0
 12 11  1  0
 14 13  2  0
 15 13  2  0
 16 13  1  0
 17 13  1  0
 19 18  1  0
 20 18  1  0
 21 20  1  0
 18 22  1  0
 23 19  2  0
 24 19  1  0
 25 21  1  0
 20 26  1  0
 27 23  1  0
 28 24  2  0
 29 27  2  0
 29 28  1  0
  1 30  1  6
  3 31  1  6
  4 32  1  0
  5 33  1  0
  6 34  1  0
  7 35  1  0
  8 36  1  0
  8 37  1  0
  8 38  1  0
  9 39  1  0
  9 40  1  0
  9 41  1  0
 10 42  1  0
 11 43  1  0
 12 44  1  0
 16 45  1  0
 17 46  1  0
 18 47  1  1
 20 48  1  6
 21 49  1  0
 22 50  1  0
 23 51  1  0
 24 52  1  0
 25 53  1  0
 25 54  1  0
 25 55  1  0
 26 56  1  0
 26 57  1  0
 26 58  1  0
 27 59  1  0
 28 60  1  0
 29 61  1  0
M  END
> <Uni-Dock RESULT> 
ENERGY=   -4.927  LOWER_BOUND=    1.151  UPPER_BOUND=    4.473
INTER + INTRA:          -4.927
INTER:                  -4.927
INTRA:                   0.000
UNBOUND:                 0.000

$$$$

     RDKit          3D

 61 60  0  0  0  0  0  0  0  0999 V2000
   45.9783    6.0840   11.2580 C   0  0  1  0  0  0  0  0  0  0  0  0
   46.7180    6.7939   12.3797 C   0  0  0  0  0  0  0  0  0  0  0  0
   44.7425    5.2224   11.7008 C   0  0  1  0  0  0  0  0  0  0  0  0
   45.1511    3.9393   12.3146 N   0  0  0  0  0  0  0  0  0  0  0  0
   45.5592    7.0315   10.2631 O   0  0  0  0  0  0  0  0  0  0  0  0
   47.5315    6.0620   13.2597 C   0  0  0  0  0  0  0  0  0  0  0  0
   46.6089    8.1795   12.5765 C   0  0  0  0  0  0  0  0  0  0  0  0
   44.0325    3.0483   12.5966 C   0  0  0  0  0  0  0  0  0  0  0  0
   43.7828    6.0312   12.5859 C   0  0  0  0  0  0  0  0  0  0  0  0
   48.2117    6.6940   14.3037 C   0  0  0  0  0  0  0  0  0  0  0  0
   47.2893    8.8123   13.6194 C   0  0  0  0  0  0  0  0  0  0  0  0
   48.0910    8.0696   14.4830 C   0  0  0  0  0  0  0  0  0  0  0  0
   45.9369    6.1001   12.9829 S   0  0  0  0  0  0  0  0  0  0  0  0
   45.6815    5.2038   14.0813 O   0  0  0  0  0  0  0  0  0  0  0  0
   46.7012    7.3161   13.0985 O   0  0  0  0  0  0  0  0  0  0  0  0
   44.5075    6.4593   12.3495 O   0  0  0  0  0  0  0  0  0  0  0  0
   46.6024    5.2600   11.7892 O   0  0  0  0  0  0  0  0  0  0  0  0
   46.6830    5.4134   12.9087 C   0  0  1  0  0  0  0  0  0  0  0  0
   45.3678    4.7932   12.4650 C   0  0  0  0  0  0  0  0  0  0  0  0
   46.8851    6.9079   12.4802 C   0  0  1  0  0  0  0  0  0  0  0  0
   46.0784    7.8178   13.3239 N   0  0  0  0  0  0  0  0  0  0  0  0
   46.8539    5.2778   14.3286 O   0  0  0  0  0  0  0  0  0  0  0  0
   44.1338    5.2664   12.9362 C   0  0  0  0  0  0  0  0  0  0  0  0
   45.3707    3.7062   11.5761 C   0  0  0  0  0  0  0  0  0  0  0  0
   46.1056    9.2059   12.9001 C   0  0  0  0  0  0  0  0  0  0  0  0
   48.3804    7.2533   12.5804 C   0  0  0  0  0  0  0  0  0  0  0  0
   42.9370    4.6764   12.5247 C   0  0  0  0  0  0  0  0  0  0  0  0
   44.1731    3.1157   11.1658 C   0  0  0  0  0  0  0  0  0  0  0  0
   42.9566    3.6020   11.6392 C   0  0  0  0  0  0  0  0  0  0  0  0
   46.7036    5.4381   10.7456 H   0  0  0  0  0  0  0  0  0  0  0  0
   44.1927    4.9825   10.7805 H   0  0  0  0  0  0  0  0  0  0  0  0
   45.7970    3.4609   11.6880 H   0  0  0  0  0  0  0  0  0  0  0  0
   45.3092    6.5204    9.4760 H   0  0  0  0  0  0  0  0  0  0  0  0
   47.6313    4.9858   13.1450 H   0  0  0  0  0  0  0  0  0  0  0  0
   45.9868    8.7782   11.9148 H   0  0  0  0  0  0  0  0  0  0  0  0
   43.3867    3.4443   13.3863 H   0  0  0  0  0  0  0  0  0  0  0  0
   44.4183    2.0878   12.9560 H   0  0  0  0  0  0  0  0  0  0  0  0
   43.4354    2.8550   11.6994 H   0  0  0  0  0  0  0  0  0  0  0  0
   44.1901    6.1839   13.5915 H   0  0  0  0  0  0  0  0  0  0  0  0
   42.8152    5.5291   12.6898 H   0  0  0  0  0  0  0  0  0  0  0  0
   43.5811    7.0148   12.1482 H   0  0  0  0  0  0  0  0  0  0  0  0
   48.8303    6.1095   14.9793 H   0  0  0  0  0  0  0  0  0  0  0  0
   47.1908    9.8856   13.7550 H   0  0  0  0  0  0  0  0  0  0  0  0
   48.6176    8.5619   15.2959 H   0  0  0  0  0  0  0  0  0  0  0  0
   43.9094    5.7079   12.5414 H   0  0  0  0  0  0  0  0  0  0  0  0
   47.0493    5.9024   11.1997 H   0  0  0  0  0  0  0  0  0  0  0  0
   47.4938    4.8240   12.4628 H   0  0  0  0  0  0  0  0  0  0  0  0
   46.5734    7.0087   11.4326 H   0  0  0  0  0  0  0  0  0  0  0  0
   46.4005    7.7239   14.2897 H   0  0  0  0  0  0  0  0  0  0  0  0
   46.1544    4.6799   14.6422 H   0  0  0  0  0  0  0  0  0  0  0  0
   44.0949    6.1066   13.6269 H   0  0  0  0  0  0  0  0  0  0  0  0
   46.3087    3.3078   11.1943 H   0  0  0  0  0  0  0  0  0  0  0  0
   45.7972    9.3082   11.8550 H   0  0  0  0  0  0  0  0  0  0  0  0
   47.0891    9.6641   13.0312 H   0  0  0  0  0  0  0  0  0  0  0  0
   45.3965    9.7796   13.5059 H   0  0  0  0  0  0  0  0  0  0  0  0
   48.7295    7.2392   13.6192 H   0  0  0  0  0  0  0  0  0  0  0  0
   48.9827    6.5334   12.0150 H   0  0  0  0  0  0  0  0  0  0  0  0
   48.5960    8.2414   12.1610 H   0  0  0  0  0  0  0  0  0  0  0  0
   41.9901    5.0606   12.8951 H   0  0  0  0  0  0  0  0  0  0  0  0
   44.1902    2.2764   10.4754 H   0  0  0  0  0  0  0  0  0  0  0  0
   42.0244    3.1451   11.3184 H   0  0  0  0  0  0  0  0  0  0  0  0
  2  1  1  0
  3  1  1  0
  4  3  1  0
  1  5  1  0
  6  2  2  0
  7  2  1  0
  8  4  1  0
  3  9  1  0
 10  6  1  0
 11  7  2  0
 12 10  2  0
 12 11  1  0
 14 13  2  0
 15 13  2  0
 16 13  1  0
 17 13  1  0
 19 18  1  0
 20 18  1  0
 21 20  1  0
 18 22  1  0
 23 19  2  0
 24 19  1  0
 25 21  1  0
 20 26  1  0
 27 23  1  0
 28 24  2  0
 29 27  2  0
 29 28  1  0
  1 30  1  6
  3 31  1  6
  4 32  1  0
  5 33  1  0
  6 34  1  0
  7 35  1  0
  8 36  1  0
  8 37  1  0
  8 38  1  0
  9 39  1  0
  9 40  1  0
  9 41  1  0
 10 42  1  0
 11 43  1  0
 12 44  1  0
 16 45  1  0
 17 46  1  0
 18 47  1  1
 20 48  1  6
 21 49  1  0
 22 50  1  0
 23 51  1  0
 24 52  1  0
 25 53  1  0
 25 54  1  0
 25 55  1  0
 26 56  1  0
 26 57  1  0
 26 58  1  0
 27 59  1  0
 28 60  1  0
 29 61  1  0
M  END
> <Uni-Dock RESULT> 
ENERGY=   -4.837  LOWER_BOUND=    1.287  UPPER_BOUND=    2.592
INTER + INTRA:          -4.837
INTER:                  -4.837
INTRA:                   0.000
UNBOUND:                 0.000

$$$$

     RDKit          3D

 61 60  0  0  0  0  0  0  0  0999 V2000
   48.2909    7.3691   12.3254 C   0  0  1  0  0  0  0  0  0  0  0  0
   46.9233    6.7280   12.4927 C   0  0  0  0  0  0  0  0  0  0  0  0
   48.5825    8.5963   13.2608 C   0  0  1  0  0  0  0  0  0  0  0  0
   47.8932    9.8221   12.8001 N   0  0  0  0  0  0  0  0  0  0  0  0
   49.3239    6.3868   12.5022 O   0  0  0  0  0  0  0  0  0  0  0  0
   45.7768    7.3801   12.0106 C   0  0  0  0  0  0  0  0  0  0  0  0
   46.7608    5.4883   13.1308 C   0  0  0  0  0  0  0  0  0  0  0  0
   48.2628   11.0140   13.5532 C   0  0  0  0  0  0  0  0  0  0  0  0
   48.2922    8.2624   14.7313 C   0  0  0  0  0  0  0  0  0  0  0  0
   44.5093    6.8127   12.1636 C   0  0  0  0  0  0  0  0  0  0  0  0
   45.4940    4.9199   13.2834 C   0  0  0  0  0  0  0  0  0  0  0  0
   44.3680    5.5820   12.7995 C   0  0  0  0  0  0  0  0  0  0  0  0
   46.8365    7.7091   13.1895 S   0  0  0  0  0  0  0  0  0  0  0  0
   46.0619    8.8414   13.6284 O   0  0  0  0  0  0  0  0  0  0  0  0
   46.2982    6.3830   13.0218 O   0  0  0  0  0  0  0  0  0  0  0  0
   48.1040    7.6202   14.1687 O   0  0  0  0  0  0  0  0  0  0  0  0
   47.5440    8.0884   11.8006 O   0  0  0  0  0  0  0  0  0  0  0  0
   46.5394    8.1457   12.3208 C   0  0  1  0  0  0  0  0  0  0  0  0
   47.6214    8.9891   12.9760 C   0  0  0  0  0  0  0  0  0  0  0  0
   46.7467    6.5965   12.4422 C   0  0  1  0  0  0  0  0  0  0  0  0
   46.4090    6.1186   13.8016 N   0  0  0  0  0  0  0  0  0  0  0  0
   45.2416    8.5121   12.8162 O   0  0  0  0  0  0  0  0  0  0  0  0
   47.8390    8.9616   14.3618 C   0  0  0  0  0  0  0  0  0  0  0  0
   48.4198    9.8368   12.1914 C   0  0  0  0  0  0  0  0  0  0  0  0
   46.7067    4.7168   14.0327 C   0  0  0  0  0  0  0  0  0  0  0  0
   45.8754    5.8965   11.3857 C   0  0  0  0  0  0  0  0  0  0  0  0
   48.8312    9.7517   14.9460 C   0  0  0  0  0  0  0  0  0  0  0  0
   49.4114   10.6278   12.7765 C   0  0  0  0  0  0  0  0  0  0  0  0
   49.6175   10.5839   14.1535 C   0  0  0  0  0  0  0  0  0  0  0  0
   48.3777    7.6854   11.2775 H   0  0  0  0  0  0  0  0  0  0  0  0
   49.6625    8.7839   13.1895 H   0  0  0  0  0  0  0  0  0  0  0  0
   48.1126    9.9784   11.8171 H   0  0  0  0  0  0  0  0  0  0  0  0
   50.1448    6.7779   12.1614 H   0  0  0  0  0  0  0  0  0  0  0  0
   45.8626    8.3466   11.5210 H   0  0  0  0  0  0  0  0  0  0  0  0
   47.6264    4.9552   13.5177 H   0  0  0  0  0  0  0  0  0  0  0  0
   47.9068   10.9680   14.5870 H   0  0  0  0  0  0  0  0  0  0  0  0
   47.7910   11.8906   13.0955 H   0  0  0  0  0  0  0  0  0  0  0  0
   49.3458   11.1747   13.5470 H   0  0  0  0  0  0  0  0  0  0  0  0
   47.2160    8.2117   14.9308 H   0  0  0  0  0  0  0  0  0  0  0  0
   48.7218    9.0119   15.4042 H   0  0  0  0  0  0  0  0  0  0  0  0
   48.7349    7.2999   15.0094 H   0  0  0  0  0  0  0  0  0  0  0  0
   43.6330    7.3362   11.7909 H   0  0  0  0  0  0  0  0  0  0  0  0
   45.3897    3.9600   13.7810 H   0  0  0  0  0  0  0  0  0  0  0  0
   43.3826    5.1409   12.9212 H   0  0  0  0  0  0  0  0  0  0  0  0
   48.2765    8.5253   14.5007 H   0  0  0  0  0  0  0  0  0  0  0  0
   47.7937    7.2467   11.3657 H   0  0  0  0  0  0  0  0  0  0  0  0
   46.5231    8.3995   11.2535 H   0  0  0  0  0  0  0  0  0  0  0  0
   47.8001    6.3745   12.2280 H   0  0  0  0  0  0  0  0  0  0  0  0
   45.4200    6.3152   13.9703 H   0  0  0  0  0  0  0  0  0  0  0  0
   45.3569    9.3233   13.3395 H   0  0  0  0  0  0  0  0  0  0  0  0
   47.2378    8.3168   14.9999 H   0  0  0  0  0  0  0  0  0  0  0  0
   48.2759    9.8896   11.1140 H   0  0  0  0  0  0  0  0  0  0  0  0
   47.7562    4.4929   13.8176 H   0  0  0  0  0  0  0  0  0  0  0  0
   46.0694    4.0514   13.4449 H   0  0  0  0  0  0  0  0  0  0  0  0
   46.5343    4.4831   15.0885 H   0  0  0  0  0  0  0  0  0  0  0  0
   44.8071    6.0251   11.5935 H   0  0  0  0  0  0  0  0  0  0  0  0
   46.0739    6.3045   10.3882 H   0  0  0  0  0  0  0  0  0  0  0  0
   46.0866    4.8235   11.3341 H   0  0  0  0  0  0  0  0  0  0  0  0
   48.9899    9.7125   16.0205 H   0  0  0  0  0  0  0  0  0  0  0  0
   50.0236   11.2777   12.1567 H   0  0  0  0  0  0  0  0  0  0  0  0
   50.3905   11.1967   14.6092 H   0  0  0  0  0  0  0  0  0  0  0  0
  2  1  1  0
  3  1  1  0
  4  3  1  0
  1  5  1  0
  6  2  2  0
  7  2  1  0
  8  4  1  0
  3  9  1  0
 10  6  1  0
 11  7  2  0
 12 10  2  0
 12 11  1  0
 14 13  2  0
 15 13  2  0
 16 13  1  0
 17 13  1  0
 19 18  1  0
 20 18  1  0
 21 20  1  0
 18 22  1  0
 23 19  2  0
 24 19  1  0
 25 21  1  0
 20 26  1  0
 27 23  1  0
 28 24  2  0
 29 27  2  0
 29 28  1  0
  1 30  1  6
  3 31  1  6
  4 32  1  0
  5 33  1  0
  6 34  1  0
  7 35  1  0
  8 36  1  0
  8 37  1  0
  8 38  1  0
  9 39  1  0
  9 40  1  0
  9 41  1  0
 10 42  1  0
 11 43  1  0
 12 44  1  0
 16 45  1  0
 17 46  1  0
 18 47  1  1
 20 48  1  6
 21 49  1  0
 22 50  1  0
 23 51  1  0
 24 52  1  0
 25 53  1  0
 25 54  1  0
 25 55  1  0
 26 56  1  0
 26 57  1  0
 26 58  1  0
 27 59  1  0
 28 60  1  0
 29 61  1  0
M  END
> <Uni-Dock RESULT> 
ENERGY=   -4.680  LOWER_BOUND=    1.553  UPPER_BOUND=    4.730
INTER + INTRA:          -4.680
INTER:                  -4.680
INTRA:                   0.000
UNBOUND:                 0.000

$$$$

     RDKit          3D

 61 60  0  0  0  0  0  0  0  0999 V2000
   46.1492    7.7560   12.7293 C   0  0  1  0  0  0  0  0  0  0  0  0
   45.7552    6.3192   12.4298 C   0  0  0  0  0  0  0  0  0  0  0  0
   47.6931    8.0359   12.7914 C   0  0  1  0  0  0  0  0  0  0  0  0
   48.2952    7.5521   14.0537 N   0  0  0  0  0  0  0  0  0  0  0  0
   45.5479    8.6444   11.7742 O   0  0  0  0  0  0  0  0  0  0  0  0
   45.9050    5.3287   13.4139 C   0  0  0  0  0  0  0  0  0  0  0  0
   45.2452    5.9378   11.1788 C   0  0  0  0  0  0  0  0  0  0  0  0
   49.6935    7.9313   14.2129 C   0  0  0  0  0  0  0  0  0  0  0  0
   48.4106    7.5030   11.5425 C   0  0  0  0  0  0  0  0  0  0  0  0
   45.5586    4.0002   13.1553 C   0  0  0  0  0  0  0  0  0  0  0  0
   44.8977    4.6099   10.9197 C   0  0  0  0  0  0  0  0  0  0  0  0
   45.0541    3.6409   11.9081 C   0  0  0  0  0  0  0  0  0  0  0  0
   46.9501    6.2356   12.5736 S   0  0  0  0  0  0  0  0  0  0  0  0
   48.0758    5.5281   13.1279 O   0  0  0  0  0  0  0  0  0  0  0  0
   45.8356    5.5917   11.9258 O   0  0  0  0  0  0  0  0  0  0  0  0
   47.5536    7.3321   11.5703 O   0  0  0  0  0  0  0  0  0  0  0  0
   46.3281    7.1719   13.7181 O   0  0  0  0  0  0  0  0  0  0  0  0
   46.6976    6.1142   13.5508 C   0  0  1  0  0  0  0  0  0  0  0  0
   47.7823    7.1723   13.4280 C   0  0  0  0  0  0  0  0  0  0  0  0
   45.6201    6.1390   12.4123 C   0  0  1  0  0  0  0  0  0  0  0  0
   46.1552    5.5605   11.1595 N   0  0  0  0  0  0  0  0  0  0  0  0
   47.2771    4.8038   13.6558 O   0  0  0  0  0  0  0  0  0  0  0  0
   48.6824    7.1834   12.3517 C   0  0  0  0  0  0  0  0  0  0  0  0
   47.9128    8.1596   14.4179 C   0  0  0  0  0  0  0  0  0  0  0  0
   45.2625    5.6739   10.0206 C   0  0  0  0  0  0  0  0  0  0  0  0
   44.3811    5.3612   12.8867 C   0  0  0  0  0  0  0  0  0  0  0  0
   49.6785    8.1579   12.2623 C   0  0  0  0  0  0  0  0  0  0  0  0
   48.9104    9.1334   14.3284 C   0  0  0  0  0  0  0  0  0  0  0  0
   49.7920    9.1329   13.2500 C   0  0  0  0  0  0  0  0  0  0  0  0
   45.6946    8.0258   13.6918 H   0  0  0  0  0  0  0  0  0  0  0  0
   47.8057    9.1285   12.7750 H   0  0  0  0  0  0  0  0  0  0  0  0
   47.7659    7.9262   14.8402 H   0  0  0  0  0  0  0  0  0  0  0  0
   45.6301    9.5422   12.1350 H   0  0  0  0  0  0  0  0  0  0  0  0
   46.3072    5.5847   14.3906 H   0  0  0  0  0  0  0  0  0  0  0  0
   45.1166    6.6781   10.3923 H   0  0  0  0  0  0  0  0  0  0  0  0
   50.3367    7.4270   13.4852 H   0  0  0  0  0  0  0  0  0  0  0  0
   50.0395    7.6247   15.2063 H   0  0  0  0  0  0  0  0  0  0  0  0
   49.8289    9.0148   14.1306 H   0  0  0  0  0  0  0  0  0  0  0  0
   48.4856    6.4100   11.5535 H   0  0  0  0  0  0  0  0  0  0  0  0
   49.4252    7.9069   11.4611 H   0  0  0  0  0  0  0  0  0  0  0  0
   47.8808    7.7981   10.6304 H   0  0  0  0  0  0  0  0  0  0  0  0
   45.6890    3.2464   13.9270 H   0  0  0  0  0  0  0  0  0  0  0  0
   44.5054    4.3353    9.9446 H   0  0  0  0  0  0  0  0  0  0  0  0
   44.7866    2.6077   11.7050 H   0  0  0  0  0  0  0  0  0  0  0  0
   48.4549    7.5484   11.8868 H   0  0  0  0  0  0  0  0  0  0  0  0
   45.4138    7.3926   13.4438 H   0  0  0  0  0  0  0  0  0  0  0  0
   46.1814    6.2787   14.5049 H   0  0  0  0  0  0  0  0  0  0  0  0
   45.3305    7.1834   12.2380 H   0  0  0  0  0  0  0  0  0  0  0  0
   46.3968    4.5835   11.3392 H   0  0  0  0  0  0  0  0  0  0  0  0
   48.2335    4.9264   13.7804 H   0  0  0  0  0  0  0  0  0  0  0  0
   48.6105    6.4324   11.5674 H   0  0  0  0  0  0  0  0  0  0  0  0
   47.2370    8.1791   15.2707 H   0  0  0  0  0  0  0  0  0  0  0  0
   44.9708    6.7142    9.8465 H   0  0  0  0  0  0  0  0  0  0  0  0
   44.3636    5.0622   10.1312 H   0  0  0  0  0  0  0  0  0  0  0  0
   45.7827    5.3273    9.1215 H   0  0  0  0  0  0  0  0  0  0  0  0
   44.5962    4.2933   13.0073 H   0  0  0  0  0  0  0  0  0  0  0  0
   44.0305    5.7431   13.8521 H   0  0  0  0  0  0  0  0  0  0  0  0
   43.5462    5.4645   12.1860 H   0  0  0  0  0  0  0  0  0  0  0  0
   50.3629    8.1548   11.4179 H   0  0  0  0  0  0  0  0  0  0  0  0
   48.9982    9.8932   15.1007 H   0  0  0  0  0  0  0  0  0  0  0  0
   50.5665    9.8916   13.1780 H   0  0  0  0  0  0  0  0  0  0  0  0
  2  1  1  0
  3  1  1  0
  4  3  1  0
  1  5  1  0
  6  2  2  0
  7  2  1  0
  8  4  1  0
  3  9  1  0
 10  6  1  0
 11  7  2  0
 12 10  2  0
 12 11  1  0
 14 13  2  0
 15 13  2  0
 16 13  1  0
 17 13  1  0
 19 18  1  0
 20 18  1  0
 21 20  1  0
 18 22  1  0
 23 19  2  0
 24 19  1  0
 25 21  1  0
 20 26  1  0
 27 23  1  0
 28 24  2  0
 29 27  2  0
 29 28  1  0
  1 30  1  6
  3 31  1  6
  4 32  1  0
  5 33  1  0
  6 34  1  0
  7 35  1  0
  8 36  1  0
  8 37  1  0
  8 38  1  0
  9 39  1  0
  9 40  1  0
  9 41  1  0
 10 42  1  0
 11 43  1  0
 12 44  1  0
 16 45  1  0
 17 46  1  0
 18 47  1  1
 20 48  1  6
 21 49  1  0
 22 50  1  0
 23 51  1  0
 24 52  1  0
 25 53  1  0
 25 54  1  0
 25 55  1  0
 26 56  1  0
 26 57  1  0
 26 58  1  0
 27 59  1  0
 28 60  1  0
 29 61  1  0
M  END
> <Uni-Dock RESULT> 
ENERGY=   -4.654  LOWER_BOUND=    1.307  UPPER_BOUND=    4.607
INTER + INTRA:          -4.654
INTER:                  -4.654
INTRA:                   0.000
UNBOUND:                 0.000

$$$$

     RDKit          3D

 61 60  0  0  0  0  0  0  0  0999 V2000
   49.8296    6.1712   17.5981 C   0  0  1  0  0  0  0  0  0  0  0  0
   49.0010    7.3255   18.1368 C   0  0  0  0  0  0  0  0  0  0  0  0
   49.0155    4.9088   17.1405 C   0  0  1  0  0  0  0  0  0  0  0  0
   48.5456    4.1041   18.2902 N   0  0  0  0  0  0  0  0  0  0  0  0
   50.6549    6.6184   16.5108 O   0  0  0  0  0  0  0  0  0  0  0  0
   48.4097    7.2345   19.4073 C   0  0  0  0  0  0  0  0  0  0  0  0
   48.7947    8.4980   17.3930 C   0  0  0  0  0  0  0  0  0  0  0  0
   47.9204    2.8460   17.9016 C   0  0  0  0  0  0  0  0  0  0  0  0
   47.8846    5.2905   16.1742 C   0  0  0  0  0  0  0  0  0  0  0  0
   47.6356    8.2801   19.9165 C   0  0  0  0  0  0  0  0  0  0  0  0
   48.0217    9.5443   17.9018 C   0  0  0  0  0  0  0  0  0  0  0  0
   47.4422    9.4355   19.1638 C   0  0  0  0  0  0  0  0  0  0  0  0
   48.1775    6.4532   18.0085 S   0  0  0  0  0  0  0  0  0  0  0  0
   47.0447    5.7426   18.5441 O   0  0  0  0  0  0  0  0  0  0  0  0
   48.3181    7.8868   18.0455 O   0  0  0  0  0  0  0  0  0  0  0  0
   48.3390    5.9682   16.4880 O   0  0  0  0  0  0  0  0  0  0  0  0
   49.5099    5.8514   18.6688 O   0  0  0  0  0  0  0  0  0  0  0  0
   48.4727    6.2092   18.9503 C   0  0  1  0  0  0  0  0  0  0  0  0
   48.4790    4.9683   18.0721 C   0  0  0  0  0  0  0  0  0  0  0  0
   48.9585    7.5208   18.2421 C   0  0  1  0  0  0  0  0  0  0  0  0
   47.9156    8.0562   17.3387 N   0  0  0  0  0  0  0  0  0  0  0  0
   47.1748    6.4120   19.5320 O   0  0  0  0  0  0  0  0  0  0  0  0
   47.6526    4.8600   16.9434 C   0  0  0  0  0  0  0  0  0  0  0  0
   49.3132    3.8859   18.3952 C   0  0  0  0  0  0  0  0  0  0  0  0
   48.3415    9.1928   16.5425 C   0  0  0  0  0  0  0  0  0  0  0  0
   49.3318    8.5547   19.3177 C   0  0  0  0  0  0  0  0  0  0  0  0
   47.6655    3.7073   16.1553 C   0  0  0  0  0  0  0  0  0  0  0  0
   49.3247    2.7327   17.6070 C   0  0  0  0  0  0  0  0  0  0  0  0
   48.5017    2.6444   16.4866 C   0  0  0  0  0  0  0  0  0  0  0  0
   50.5352    5.8790   18.3872 H   0  0  0  0  0  0  0  0  0  0  0  0
   49.7167    4.2839   16.5709 H   0  0  0  0  0  0  0  0  0  0  0  0
   49.3368    3.8988   18.8989 H   0  0  0  0  0  0  0  0  0  0  0  0
   51.3198    5.9268   16.3600 H   0  0  0  0  0  0  0  0  0  0  0  0
   48.5383    6.3374   20.0073 H   0  0  0  0  0  0  0  0  0  0  0  0
   49.2365    8.6030   16.4047 H   0  0  0  0  0  0  0  0  0  0  0  0
   46.9734    3.0077   17.3777 H   0  0  0  0  0  0  0  0  0  0  0  0
   47.6886    2.2654   18.8014 H   0  0  0  0  0  0  0  0  0  0  0  0
   48.5855    2.2423   17.2753 H   0  0  0  0  0  0  0  0  0  0  0  0
   47.0570    5.7859   16.6940 H   0  0  0  0  0  0  0  0  0  0  0  0
   47.4797    4.4100   15.6644 H   0  0  0  0  0  0  0  0  0  0  0  0
   48.2482    5.9665   15.3929 H   0  0  0  0  0  0  0  0  0  0  0  0
   47.1796    8.1880   20.8986 H   0  0  0  0  0  0  0  0  0  0  0  0
   47.8735   10.4430   17.3098 H   0  0  0  0  0  0  0  0  0  0  0  0
   46.8385   10.2484   19.5578 H   0  0  0  0  0  0  0  0  0  0  0  0
   47.9627    5.0658   16.4311 H   0  0  0  0  0  0  0  0  0  0  0  0
   50.2160    6.5208   18.5530 H   0  0  0  0  0  0  0  0  0  0  0  0
   49.1423    6.0180   19.7981 H   0  0  0  0  0  0  0  0  0  0  0  0
   49.8584    7.2824   17.6604 H   0  0  0  0  0  0  0  0  0  0  0  0
   47.0968    8.2918   17.9039 H   0  0  0  0  0  0  0  0  0  0  0  0
   46.6531    5.6132   19.3457 H   0  0  0  0  0  0  0  0  0  0  0  0
   46.9930    5.6795   16.6647 H   0  0  0  0  0  0  0  0  0  0  0  0
   49.9634    3.9310   19.2667 H   0  0  0  0  0  0  0  0  0  0  0  0
   49.2400    8.9578   15.9635 H   0  0  0  0  0  0  0  0  0  0  0  0
   48.5274   10.0825   17.1494 H   0  0  0  0  0  0  0  0  0  0  0  0
   47.5514    9.4462   15.8280 H   0  0  0  0  0  0  0  0  0  0  0  0
   48.4529    8.8842   19.8835 H   0  0  0  0  0  0  0  0  0  0  0  0
   50.0488    8.1308   20.0298 H   0  0  0  0  0  0  0  0  0  0  0  0
   49.8079    9.4385   18.8809 H   0  0  0  0  0  0  0  0  0  0  0  0
   47.0231    3.6438   15.2808 H   0  0  0  0  0  0  0  0  0  0  0  0
   49.9773    1.9034   17.8676 H   0  0  0  0  0  0  0  0  0  0  0  0
   48.5121    1.7489   15.8713 H   0  0  0  0  0  0  0  0  0  0  0  0
  2  1  1  0
  3  1  1  0
  4  3  1  0
  1  5  1  0
  6  2  2  0
  7  2  1  0
  8  4  1  0
  3  9  1  0
 10  6  1  0
 11  7  2  0
 12 10  2  0
 12 11  1  0
 14 13  2  0
 15 13  2  0
 16 13  1  0
 17 13  1  0
 19 18  1  0
 20 18  1  0
 21 20  1  0
 18 22  1  0
 23 19  2  0
 24 19  1  0
 25 21  1  0
 20 26  1  0
 27 23  1  0
 28 24  2  0
 29 27  2  0
 29 28  1  0
  1 30  1  6
  3 31  1  6
  4 32  1  0
  5 33  1  0
  6 34  1  0
  7 35  1  0
  8 36  1  0
  8 37  1  0
  8 38  1  0
  9 39  1  0
  9 40  1  0
  9 41  1  0
 10 42  1  0
 11 43  1  0
 12 44  1  0
 16 45  1  0
 17 46  1  0
 18 47  1  1
 20 48  1  6
 21 49  1  0
 22 50  1  0
 23 51  1  0
 24 52  1  0
 25 53  1  0
 25 54  1  0
 25 55  1  0
 26 56  1  0
 26 57  1  0
 26 58  1  0
 27 59  1  0
 28 60  1  0
 29 61  1  0
M  END
> <Uni-Dock RESULT> 
ENERGY=   -4.256  LOWER_BOUND=    5.385  UPPER_BOUND=    6.751
INTER + INTRA:          -4.256
INTER:                  -4.256
INTRA:                   0.000
UNBOUND:                 0.000

$$$$

     RDKit          3D

 61 60  0  0  0  0  0  0  0  0999 V2000
   47.8703    5.3087   20.1440 C   0  0  1  0  0  0  0  0  0  0  0  0
   48.2372    6.7798   20.2465 C   0  0  0  0  0  0  0  0  0  0  0  0
   48.3864    4.5701   18.8579 C   0  0  1  0  0  0  0  0  0  0  0  0
   47.5822    4.9083   17.6625 N   0  0  0  0  0  0  0  0  0  0  0  0
   48.3268    4.6016   21.3079 O   0  0  0  0  0  0  0  0  0  0  0  0
   47.5911    7.7246   19.4329 C   0  0  0  0  0  0  0  0  0  0  0  0
   49.2229    7.2358   21.1359 C   0  0  0  0  0  0  0  0  0  0  0  0
   47.9347    4.1251   16.4849 C   0  0  0  0  0  0  0  0  0  0  0  0
   49.8917    4.7917   18.6497 C   0  0  0  0  0  0  0  0  0  0  0  0
   47.9212    9.0803   19.5043 C   0  0  0  0  0  0  0  0  0  0  0  0
   49.5528    8.5911   21.2086 C   0  0  0  0  0  0  0  0  0  0  0  0
   48.9018    9.5136   20.3929 C   0  0  0  0  0  0  0  0  0  0  0  0
   48.6044    6.4983   19.1323 S   0  0  0  0  0  0  0  0  0  0  0  0
   48.6866    6.8516   17.7383 O   0  0  0  0  0  0  0  0  0  0  0  0
   48.8520    7.4205   20.2114 O   0  0  0  0  0  0  0  0  0  0  0  0
   49.5522    5.2196   19.3323 O   0  0  0  0  0  0  0  0  0  0  0  0
   47.1591    5.8587   19.4073 O   0  0  0  0  0  0  0  0  0  0  0  0
   47.6471    6.7411   18.8911 C   0  0  1  0  0  0  0  0  0  0  0  0
   48.0051    5.3954   18.2811 C   0  0  0  0  0  0  0  0  0  0  0  0
   48.2307    6.9917   20.3244 C   0  0  1  0  0  0  0  0  0  0  0  0
   49.6742    7.3127   20.2634 N   0  0  0  0  0  0  0  0  0  0  0  0
   48.0204    7.8126   18.0099 O   0  0  0  0  0  0  0  0  0  0  0  0
   49.3319    5.0527   17.9794 C   0  0  0  0  0  0  0  0  0  0  0  0
   46.9927    4.4675   17.9884 C   0  0  0  0  0  0  0  0  0  0  0  0
   50.3168    7.4223   21.5604 C   0  0  0  0  0  0  0  0  0  0  0  0
   47.4447    8.1366   20.9854 C   0  0  0  0  0  0  0  0  0  0  0  0
   49.6392    3.8154   17.4096 C   0  0  0  0  0  0  0  0  0  0  0  0
   47.3008    3.2304   17.4173 C   0  0  0  0  0  0  0  0  0  0  0  0
   48.6241    2.9044   17.1294 C   0  0  0  0  0  0  0  0  0  0  0  0
   46.7750    5.2415   20.1836 H   0  0  0  0  0  0  0  0  0  0  0  0
   48.2512    3.4966   19.0480 H   0  0  0  0  0  0  0  0  0  0  0  0
   46.5961    4.7559   17.8703 H   0  0  0  0  0  0  0  0  0  0  0  0
   47.8755    3.7416   21.3091 H   0  0  0  0  0  0  0  0  0  0  0  0
   46.8306    7.4070   18.7244 H   0  0  0  0  0  0  0  0  0  0  0  0
   49.7449    6.5322   21.7806 H   0  0  0  0  0  0  0  0  0  0  0  0
   48.9372    4.3690   16.1199 H   0  0  0  0  0  0  0  0  0  0  0  0
   47.2372    4.3602   15.6734 H   0  0  0  0  0  0  0  0  0  0  0  0
   47.8696    3.0500   16.6818 H   0  0  0  0  0  0  0  0  0  0  0  0
   50.1074    5.8075   18.3002 H   0  0  0  0  0  0  0  0  0  0  0  0
   50.3013    4.0913   17.9143 H   0  0  0  0  0  0  0  0  0  0  0  0
   50.4444    4.6284   19.5811 H   0  0  0  0  0  0  0  0  0  0  0  0
   47.4156    9.7954   18.8610 H   0  0  0  0  0  0  0  0  0  0  0  0
   50.3192    8.9234   21.9031 H   0  0  0  0  0  0  0  0  0  0  0  0
   49.1610   10.5673   20.4476 H   0  0  0  0  0  0  0  0  0  0  0  0
   49.5924    4.7525   18.4724 H   0  0  0  0  0  0  0  0  0  0  0  0
   46.9977    5.9169   20.3720 H   0  0  0  0  0  0  0  0  0  0  0  0
   46.5533    6.7923   18.9605 H   0  0  0  0  0  0  0  0  0  0  0  0
   48.0839    6.0801   20.9179 H   0  0  0  0  0  0  0  0  0  0  0  0
   49.7848    8.1755   19.7262 H   0  0  0  0  0  0  0  0  0  0  0  0
   48.2719    7.4077   17.1626 H   0  0  0  0  0  0  0  0  0  0  0  0
   50.1412    5.7485   18.1922 H   0  0  0  0  0  0  0  0  0  0  0  0
   45.9515    4.7006   18.2025 H   0  0  0  0  0  0  0  0  0  0  0  0
   50.1697    6.5151   22.1545 H   0  0  0  0  0  0  0  0  0  0  0  0
   49.9647    8.2860   22.1299 H   0  0  0  0  0  0  0  0  0  0  0  0
   51.3953    7.5455   21.4167 H   0  0  0  0  0  0  0  0  0  0  0  0
   47.6140    9.0909   20.4736 H   0  0  0  0  0  0  0  0  0  0  0  0
   46.3687    7.9309   20.9628 H   0  0  0  0  0  0  0  0  0  0  0  0
   47.7190    8.2602   22.0380 H   0  0  0  0  0  0  0  0  0  0  0  0
   50.6735    3.5645   17.1886 H   0  0  0  0  0  0  0  0  0  0  0  0
   46.5072    2.5209   17.1981 H   0  0  0  0  0  0  0  0  0  0  0  0
   48.8651    1.9413   16.6878 H   0  0  0  0  0  0  0  0  0  0  0  0
  2  1  1  0
  3  1  1  0
  4  3  1  0
  1  5  1  0
  6  2  2  0
  7  2  1  0
  8  4  1  0
  3  9  1  0
 10  6  1  0
 11  7  2  0
 12 10  2  0
 12 11  1  0
 14 13  2  0
 15 13  2  0
 16 13  1  0
 17 13  1  0
 19 18  1  0
 20 18  1  0
 21 20  1  0
 18 22  1  0
 23 19  2  0
 24 19  1  0
 25 21  1  0
 20 26  1  0
 27 23  1  0
 28 24  2  0
 29 27  2  0
 29 28  1  0
  1 30  1  6
  3 31  1  6
  4 32  1  0
  5 33  1  0
  6 34  1  0
  7 35  1  0
  8 36  1  0
  8 37  1  0
  8 38  1  0
  9 39  1  0
  9 40  1  0
  9 41  1  0
 10 42  1  0
 11 43  1  0
 12 44  1  0
 16 45  1  0
 17 46  1  0
 18 47  1  1
 20 48  1  6
 21 49  1  0
 22 50  1  0
 23 51  1  0
 24 52  1  0
 25 53  1  0
 25 54  1  0
 25 55  1  0
 26 56  1  0
 26 57  1  0
 26 58  1  0
 27 59  1  0
 28 60  1  0
 29 61  1  0
M  END
> <Uni-Dock RESULT> 
ENERGY=   -4.132  LOWER_BOUND=    6.579  UPPER_BOUND=    7.816
INTER + INTRA:          -4.132
INTER:                  -4.132
INTRA:                   0.000
UNBOUND:                 0.000

$$$$

     RDKit          3D

 61 60  0  0  0  0  0  0  0  0999 V2000
   47.8444    8.6284   13.8910 C   0  0  1  0  0  0  0  0  0  0  0  0
   49.3181    8.6090   13.5208 C   0  0  0  0  0  0  0  0  0  0  0  0
   47.0192    7.3666   13.4519 C   0  0  1  0  0  0  0  0  0  0  0  0
   46.7100    7.3810   12.0047 N   0  0  0  0  0  0  0  0  0  0  0  0
   47.6911    8.8218   15.3060 O   0  0  0  0  0  0  0  0  0  0  0  0
   49.7112    8.8042   12.1868 C   0  0  0  0  0  0  0  0  0  0  0  0
   50.3188    8.3907   14.4807 C   0  0  0  0  0  0  0  0  0  0  0  0
   45.8161    6.3066   11.5912 C   0  0  0  0  0  0  0  0  0  0  0  0
   47.6979    6.0663   13.9067 C   0  0  0  0  0  0  0  0  0  0  0  0
   51.0601    8.7796   11.8240 C   0  0  0  0  0  0  0  0  0  0  0  0
   51.6678    8.3669   14.1189 C   0  0  0  0  0  0  0  0  0  0  0  0
   52.0386    8.5616   12.7905 C   0  0  0  0  0  0  0  0  0  0  0  0
   48.8950    7.6334   12.9510 S   0  0  0  0  0  0  0  0  0  0  0  0
   48.8617    6.8215   11.7616 O   0  0  0  0  0  0  0  0  0  0  0  0
   50.1007    8.1880   13.5123 O   0  0  0  0  0  0  0  0  0  0  0  0
   48.1445    6.7942   14.0937 O   0  0  0  0  0  0  0  0  0  0  0  0
   47.8822    8.8617   12.7530 O   0  0  0  0  0  0  0  0  0  0  0  0
   48.7050    8.3033   12.2103 C   0  0  1  0  0  0  0  0  0  0  0  0
   47.4642    7.4662   12.4766 C   0  0  0  0  0  0  0  0  0  0  0  0
   49.5263    8.6903   13.4883 C   0  0  1  0  0  0  0  0  0  0  0  0
   50.3117    7.5387   13.9858 N   0  0  0  0  0  0  0  0  0  0  0  0
   49.5567    7.6565   11.2511 O   0  0  0  0  0  0  0  0  0  0  0  0
   47.5494    6.1727   13.0137 C   0  0  0  0  0  0  0  0  0  0  0  0
   46.1941    7.9776   12.1654 C   0  0  0  0  0  0  0  0  0  0  0  0
   50.9911    7.7791   15.2459 C   0  0  0  0  0  0  0  0  0  0  0  0
   50.4487    9.8720   13.1446 C   0  0  0  0  0  0  0  0  0  0  0  0
   46.3984    5.4155   13.2414 C   0  0  0  0  0  0  0  0  0  0  0  0
   45.0432    7.2191   12.3923 C   0  0  0  0  0  0  0  0  0  0  0  0
   45.1459    5.9388   12.9315 C   0  0  0  0  0  0  0  0  0  0  0  0
   47.4042    9.5245   13.4337 H   0  0  0  0  0  0  0  0  0  0  0  0
   46.0630    7.4255   13.9895 H   0  0  0  0  0  0  0  0  0  0  0  0
   46.2784    8.2726   11.7650 H   0  0  0  0  0  0  0  0  0  0  0  0
   46.7618    9.0591   15.4581 H   0  0  0  0  0  0  0  0  0  0  0  0
   48.9637    8.9650   11.4145 H   0  0  0  0  0  0  0  0  0  0  0  0
   50.0512    8.2346   15.5234 H   0  0  0  0  0  0  0  0  0  0  0  0
   46.2926    5.3254   11.6783 H   0  0  0  0  0  0  0  0  0  0  0  0
   45.5570    6.4395   10.5350 H   0  0  0  0  0  0  0  0  0  0  0  0
   44.8853    6.3127   12.1679 H   0  0  0  0  0  0  0  0  0  0  0  0
   48.5879    5.8426   13.3081 H   0  0  0  0  0  0  0  0  0  0  0  0
   47.0182    5.2113   13.8273 H   0  0  0  0  0  0  0  0  0  0  0  0
   48.0019    6.1295   14.9570 H   0  0  0  0  0  0  0  0  0  0  0  0
   51.3443    8.9249   10.7853 H   0  0  0  0  0  0  0  0  0  0  0  0
   52.4267    8.1956   14.8770 H   0  0  0  0  0  0  0  0  0  0  0  0
   53.0878    8.5399   12.5091 H   0  0  0  0  0  0  0  0  0  0  0  0
   47.5079    6.2004   13.6450 H   0  0  0  0  0  0  0  0  0  0  0  0
   48.1385    9.5527   13.3986 H   0  0  0  0  0  0  0  0  0  0  0  0
   48.3794    9.2327   11.7266 H   0  0  0  0  0  0  0  0  0  0  0  0
   48.8202    9.0134   14.2641 H   0  0  0  0  0  0  0  0  0  0  0  0
   50.9766    7.2697   13.2573 H   0  0  0  0  0  0  0  0  0  0  0  0
   49.0545    6.9087   10.8854 H   0  0  0  0  0  0  0  0  0  0  0  0
   48.5178    5.7448   13.2655 H   0  0  0  0  0  0  0  0  0  0  0  0
   46.0891    8.9744   11.7416 H   0  0  0  0  0  0  0  0  0  0  0  0
   50.2889    8.1035   16.0201 H   0  0  0  0  0  0  0  0  0  0  0  0
   51.7921    8.5170   15.1551 H   0  0  0  0  0  0  0  0  0  0  0  0
   51.4470    6.8453   15.5912 H   0  0  0  0  0  0  0  0  0  0  0  0
   51.2232    9.5838   12.4247 H   0  0  0  0  0  0  0  0  0  0  0  0
   49.8748   10.6964   12.7069 H   0  0  0  0  0  0  0  0  0  0  0  0
   50.9428   10.2716   14.0361 H   0  0  0  0  0  0  0  0  0  0  0  0
   46.4832    4.4177   13.6642 H   0  0  0  0  0  0  0  0  0  0  0  0
   44.0663    7.6287   12.1489 H   0  0  0  0  0  0  0  0  0  0  0  0
   44.2510    5.3491   13.1110 H   0  0  0  0  0  0  0  0  0  0  0  0
  2  1  1  0
  3  1  1  0
  4  3  1  0
  1  5  1  0
  6  2  2  0
  7  2  1  0
  8  4  1  0
  3  9  1  0
 10  6  1  0
 11  7  2  0
 12 10  2  0
 12 11  1  0
 14 13  2  0
 15 13  2  0
 16 13  1  0
 17 13  1  0
 19 18  1  0
 20 18  1  0
 21 20  1  0
 18 22  1  0
 23 19  2  0
 24 19  1  0
 25 21  1  0
 20 26  1  0
 27 23  1  0
 28 24  2  0
 29 27  2  0
 29 28  1  0
  1 30  1  6
  3 31  1  6
  4 32  1  0
  5 33  1  0
  6 34  1  0
  7 35  1  0
  8 36  1  0
  8 37  1  0
  8 38  1  0
  9 39  1  0
  9 40  1  0
  9 41  1  0
 10 42  1  0
 11 43  1  0
 12 44  1  0
 16 45  1  0
 17 46  1  0
 18 47  1  1
 20 48  1  6
 21 49  1  0
 22 50  1  0
 23 51  1  0
 24 52  1  0
 25 53  1  0
 25 54  1  0
 25 55  1  0
 26 56  1  0
 26 57  1  0
 26 58  1  0
 27 59  1  0
 28 60  1  0
 29 61  1  0
M  END
> <Uni-Dock RESULT> 
ENERGY=   -4.121  LOWER_BOUND=    2.228  UPPER_BOUND=    3.607
INTER + INTRA:          -4.121
INTER:                  -4.121
INTRA:                   0.000
UNBOUND:                 0.000

$$$$

     RDKit          3D

 61 60  0  0  0  0  0  0  0  0999 V2000
   49.7811   10.1676   17.9569 C   0  0  1  0  0  0  0  0  0  0  0  0
   48.5501   10.6414   18.7114 C   0  0  0  0  0  0  0  0  0  0  0  0
   49.5150    9.1241   16.8140 C   0  0  1  0  0  0  0  0  0  0  0  0
   49.2560    7.7686   17.3485 N   0  0  0  0  0  0  0  0  0  0  0  0
   50.4918   11.2909   17.4123 O   0  0  0  0  0  0  0  0  0  0  0  0
   47.9136    9.7872   19.6264 C   0  0  0  0  0  0  0  0  0  0  0  0
   48.0115   11.9230   18.5170 C   0  0  0  0  0  0  0  0  0  0  0  0
   49.1577    6.7458   16.3148 C   0  0  0  0  0  0  0  0  0  0  0  0
   48.4180    9.6097   15.8552 C   0  0  0  0  0  0  0  0  0  0  0  0
   46.7746   10.1998   20.3224 C   0  0  0  0  0  0  0  0  0  0  0  0
   46.8734   12.3367   19.2132 C   0  0  0  0  0  0  0  0  0  0  0  0
   46.2549   11.4751   20.1163 C   0  0  0  0  0  0  0  0  0  0  0  0
   48.1059    9.7588   18.0192 S   0  0  0  0  0  0  0  0  0  0  0  0
   47.2545    8.6036   17.8948 O   0  0  0  0  0  0  0  0  0  0  0  0
   47.7242   10.9692   18.7015 O   0  0  0  0  0  0  0  0  0  0  0  0
   48.5706   10.1413   16.5323 O   0  0  0  0  0  0  0  0  0  0  0  0
   49.4972    9.2937   18.6685 O   0  0  0  0  0  0  0  0  0  0  0  0
   48.3790    9.1756   18.8059 C   0  0  1  0  0  0  0  0  0  0  0  0
   48.9077    8.5751   17.5133 C   0  0  0  0  0  0  0  0  0  0  0  0
   48.4314   10.7409   18.8758 C   0  0  1  0  0  0  0  0  0  0  0  0
   47.3558   11.3470   18.0597 N   0  0  0  0  0  0  0  0  0  0  0  0
   47.0454    8.7123   19.0719 O   0  0  0  0  0  0  0  0  0  0  0  0
   48.2831    8.8145   16.2799 C   0  0  0  0  0  0  0  0  0  0  0  0
   50.0377    7.7419   17.5388 C   0  0  0  0  0  0  0  0  0  0  0  0
   47.4229   12.7939   17.9632 C   0  0  0  0  0  0  0  0  0  0  0  0
   48.3109   11.1747   20.3464 C   0  0  0  0  0  0  0  0  0  0  0  0
   48.7781    8.2452   15.1048 C   0  0  0  0  0  0  0  0  0  0  0  0
   50.5317    7.1717   16.3631 C   0  0  0  0  0  0  0  0  0  0  0  0
   49.9024    7.4247   15.1464 C   0  0  0  0  0  0  0  0  0  0  0  0
   50.4674    9.7289   18.6934 H   0  0  0  0  0  0  0  0  0  0  0  0
   50.4424    9.0710   16.2277 H   0  0  0  0  0  0  0  0  0  0  0  0
   50.0079    7.5131   17.9873 H   0  0  0  0  0  0  0  0  0  0  0  0
   51.3699   10.9682   17.1517 H   0  0  0  0  0  0  0  0  0  0  0  0
   48.2956    8.7837   19.7946 H   0  0  0  0  0  0  0  0  0  0  0  0
   48.4776   12.6111   17.8153 H   0  0  0  0  0  0  0  0  0  0  0  0
   48.2684    6.8820   15.6918 H   0  0  0  0  0  0  0  0  0  0  0  0
   49.0640    5.7622   16.7884 H   0  0  0  0  0  0  0  0  0  0  0  0
   50.0492    6.7282   15.6794 H   0  0  0  0  0  0  0  0  0  0  0  0
   47.4237    9.5457   16.3111 H   0  0  0  0  0  0  0  0  0  0  0  0
   48.4018    9.0186   14.9336 H   0  0  0  0  0  0  0  0  0  0  0  0
   48.5893   10.6500   15.5584 H   0  0  0  0  0  0  0  0  0  0  0  0
   46.2913    9.5218   21.0207 H   0  0  0  0  0  0  0  0  0  0  0  0
   46.4718   13.3324   19.0477 H   0  0  0  0  0  0  0  0  0  0  0  0
   45.3679   11.7962   20.6552 H   0  0  0  0  0  0  0  0  0  0  0  0
   48.5464    9.3187   16.0014 H   0  0  0  0  0  0  0  0  0  0  0  0
   49.9270   10.0955   19.0324 H   0  0  0  0  0  0  0  0  0  0  0  0
   48.9904    8.7824   19.6277 H   0  0  0  0  0  0  0  0  0  0  0  0
   49.4075   11.0679   18.4948 H   0  0  0  0  0  0  0  0  0  0  0  0
   46.4577   11.0474   18.4457 H   0  0  0  0  0  0  0  0  0  0  0  0
   46.8612    7.9998   18.4366 H   0  0  0  0  0  0  0  0  0  0  0  0
   47.4046    9.4545   16.2238 H   0  0  0  0  0  0  0  0  0  0  0  0
   50.5449    7.5282   18.4776 H   0  0  0  0  0  0  0  0  0  0  0  0
   48.3962   13.1220   17.5855 H   0  0  0  0  0  0  0  0  0  0  0  0
   47.2231   13.2865   18.9181 H   0  0  0  0  0  0  0  0  0  0  0  0
   46.6649   13.1413   17.2535 H   0  0  0  0  0  0  0  0  0  0  0  0
   47.3234   10.9367   20.7581 H   0  0  0  0  0  0  0  0  0  0  0  0
   49.0616   10.6673   20.9625 H   0  0  0  0  0  0  0  0  0  0  0  0
   48.4807   12.2497   20.4659 H   0  0  0  0  0  0  0  0  0  0  0  0
   48.2850    8.4471   14.1574 H   0  0  0  0  0  0  0  0  0  0  0  0
   51.4087    6.5307   16.3974 H   0  0  0  0  0  0  0  0  0  0  0  0
   50.2875    6.9839   14.2309 H   0  0  0  0  0  0  0  0  0  0  0  0
  2  1  1  0
  3  1  1  0
  4  3  1  0
  1  5  1  0
  6  2  2  0
  7  2  1  0
  8  4  1  0
  3  9  1  0
 10  6  1  0
 11  7  2  0
 12 10  2  0
 12 11  1  0
 14 13  2  0
 15 13  2  0
 16 13  1  0
 17 13  1  0
 19 18  1  0
 20 18  1  0
 21 20  1  0
 18 22  1  0
 23 19  2  0
 24 19  1  0
 25 21  1  0
 20 26  1  0
 27 23  1  0
 28 24  2  0
 29 27  2  0
 29 28  1  0
  1 30  1  6
  3 31  1  6
  4 32  1  0
  5 33  1  0
  6 34  1  0
  7 35  1  0
  8 36  1  0
  8 37  1  0
  8 38  1  0
  9 39  1  0
  9 40  1  0
  9 41  1  0
 10 42  1  0
 11 43  1  0
 12 44  1  0
 16 45  1  0
 17 46  1  0
 18 47  1  1
 20 48  1  6
 21 49  1  0
 22 50  1  0
 23 51  1  0
 24 52  1  0
 25 53  1  0
 25 54  1  0
 25 55  1  0
 26 56  1  0
 26 57  1  0
 26 58  1  0
 27 59  1  0
 28 60  1  0
 29 61  1  0
M  END
> <Uni-Dock RESULT> 
ENERGY=   -4.004  LOWER_BOUND=    5.566  UPPER_BOUND=    7.548
INTER + INTRA:          -4.004
INTER:                  -4.004
INTRA:                   0.000
UNBOUND:                 0.000

$$$$
