
     RDKit          3D

 61 60  0  0  0  0  0  0  0  0999 V2000
   46.5167    5.9890   12.9246 C   0  0  1  0  0  0  0  0  0  0  0  0
   45.3926    5.1762   12.3016 C   0  0  0  0  0  0  0  0  0  0  0  0
   47.1997    7.0693   12.0121 C   0  0  1  0  0  0  0  0  0  0  0  0
   46.4125    8.2485   11.5754 N   0  0  0  0  0  0  0  0  0  0  0  0
   46.0902    6.5388   14.1745 O   0  0  0  0  0  0  0  0  0  0  0  0
   44.3338    5.7635   11.5959 C   0  0  0  0  0  0  0  0  0  0  0  0
   45.3744    3.7818   12.4843 C   0  0  0  0  0  0  0  0  0  0  0  0
   45.8924    9.0836   12.6474 C   0  0  0  0  0  0  0  0  0  0  0  0
   48.5273    7.5240   12.6404 C   0  0  0  0  0  0  0  0  0  0  0  0
   43.3019    4.9818   11.0704 C   0  0  0  0  0  0  0  0  0  0  0  0
   44.3451    2.9999   11.9561 C   0  0  0  0  0  0  0  0  0  0  0  0
   43.3089    3.6013   11.2475 C   0  0  0  0  0  0  0  0  0  0  0  0
   45.6244    6.1063   12.5882 S   0  0  0  0  0  0  0  0  0  0  0  0
   46.3826    5.3761   13.5741 O   0  0  0  0  0  0  0  0  0  0  0  0
   44.2353    6.4529   12.7477 O   0  0  0  0  0  0  0  0  0  0  0  0
   46.4428    7.4599   12.3105 O   0  0  0  0  0  0  0  0  0  0  0  0
   45.7546    5.3544   11.1789 O   0  0  0  0  0  0  0  0  0  0  0  0
   46.1300    5.2991   12.8711 C   0  0  1  0  0  0  0  0  0  0  0  0
   46.7412    6.6783   12.6847 C   0  0  0  0  0  0  0  0  0  0  0  0
   45.0076    4.9159   11.8438 C   0  0  1  0  0  0  0  0  0  0  0  0
   43.7266    5.6412   11.9872 N   0  0  0  0  0  0  0  0  0  0  0  0
   47.1583    4.2950   12.8378 O   0  0  0  0  0  0  0  0  0  0  0  0
   48.0360    6.8526   12.1676 C   0  0  0  0  0  0  0  0  0  0  0  0
   46.0055    7.8239   13.0300 C   0  0  0  0  0  0  0  0  0  0  0  0
   42.9878    5.2559   13.1817 C   0  0  0  0  0  0  0  0  0  0  0  0
   45.4924    5.0660   10.3923 C   0  0  0  0  0  0  0  0  0  0  0  0
   48.5757    8.1300   11.9976 C   0  0  0  0  0  0  0  0  0  0  0  0
   46.5443    9.1015   12.8599 C   0  0  0  0  0  0  0  0  0  0  0  0
   47.8285    9.2538   12.3427 C   0  0  0  0  0  0  0  0  0  0  0  0
   47.3128    5.2790   13.1859 H   0  0  0  0  0  0  0  0  0  0  0  0
   47.4668    6.5517   11.0799 H   0  0  0  0  0  0  0  0  0  0  0  0
   47.0045    8.8240   10.9763 H   0  0  0  0  0  0  0  0  0  0  0  0
   45.1159    6.5043   14.1757 H   0  0  0  0  0  0  0  0  0  0  0  0
   44.2933    6.8388   11.4436 H   0  0  0  0  0  0  0  0  0  0  0  0
   46.1682    3.2909   13.0459 H   0  0  0  0  0  0  0  0  0  0  0  0
   45.0893    8.5867   13.1955 H   0  0  0  0  0  0  0  0  0  0  0  0
   45.4497    9.9843   12.2078 H   0  0  0  0  0  0  0  0  0  0  0  0
   46.6659    9.4129   13.3460 H   0  0  0  0  0  0  0  0  0  0  0  0
   49.2074    6.6712   12.7546 H   0  0  0  0  0  0  0  0  0  0  0  0
   48.3843    7.9696   13.6302 H   0  0  0  0  0  0  0  0  0  0  0  0
   49.0350    8.2579   12.0031 H   0  0  0  0  0  0  0  0  0  0  0  0
   42.4929    5.4554   10.5207 H   0  0  0  0  0  0  0  0  0  0  0  0
   44.3537    1.9231   12.0984 H   0  0  0  0  0  0  0  0  0  0  0  0
   42.5053    2.9978   10.8354 H   0  0  0  0  0  0  0  0  0  0  0  0
   47.2505    7.4175   12.8692 H   0  0  0  0  0  0  0  0  0  0  0  0
   45.0760    5.7270   10.5796 H   0  0  0  0  0  0  0  0  0  0  0  0
   45.7309    5.2552   13.8915 H   0  0  0  0  0  0  0  0  0  0  0  0
   44.8018    3.8434   11.9703 H   0  0  0  0  0  0  0  0  0  0  0  0
   43.1453    5.4608   11.1683 H   0  0  0  0  0  0  0  0  0  0  0  0
   46.7478    3.4603   13.1209 H   0  0  0  0  0  0  0  0  0  0  0  0
   48.6360    5.9874   11.8908 H   0  0  0  0  0  0  0  0  0  0  0  0
   44.9965    7.7276   13.4259 H   0  0  0  0  0  0  0  0  0  0  0  0
   42.7846    4.1813   13.2018 H   0  0  0  0  0  0  0  0  0  0  0  0
   43.5154    5.5385   14.0958 H   0  0  0  0  0  0  0  0  0  0  0  0
   42.0257    5.7788   13.1933 H   0  0  0  0  0  0  0  0  0  0  0  0
   44.7572    4.6504    9.6935 H   0  0  0  0  0  0  0  0  0  0  0  0
   46.4319    4.5250   10.2332 H   0  0  0  0  0  0  0  0  0  0  0  0
   45.6507    6.1154   10.1191 H   0  0  0  0  0  0  0  0  0  0  0  0
   49.5789    8.2446   11.5948 H   0  0  0  0  0  0  0  0  0  0  0  0
   45.9575    9.9763   13.1274 H   0  0  0  0  0  0  0  0  0  0  0  0
   48.2466   10.2470   12.2060 H   0  0  0  0  0  0  0  0  0  0  0  0
  2  1  1  0
  3  1  1  0
  4  3  1  0
  1  5  1  0
  6  2  2  0
  7  2  1  0
  8  4  1  0
  3  9  1  0
 10  6  1  0
 11  7  2  0
 12 10  2  0
 12 11  1  0
 14 13  2  0
 15 13  2  0
 16 13  1  0
 17 13  1  0
 19 18  1  0
 20 18  1  0
 21 20  1  0
 18 22  1  0
 23 19  2  0
 24 19  1  0
 25 21  1  0
 20 26  1  0
 27 23  1  0
 28 24  2  0
 29 27  2  0
 29 28  1  0
  1 30  1  6
  3 31  1  6
  4 32  1  0
  5 33  1  0
  6 34  1  0
  7 35  1  0
  8 36  1  0
  8 37  1  0
  8 38  1  0
  9 39  1  0
  9 40  1  0
  9 41  1  0
 10 42  1  0
 11 43  1  0
 12 44  1  0
 16 45  1  0
 17 46  1  0
 18 47  1  1
 20 48  1  6
 21 49  1  0
 22 50  1  0
 23 51  1  0
 24 52  1  0
 25 53  1  0
 25 54  1  0
 25 55  1  0
 26 56  1  0
 26 57  1  0
 26 58  1  0
 27 59  1  0
 28 60  1  0
 29 61  1  0
M  END
> <Uni-Dock RESULT> 
ENERGY=   -4.769  LOWER_BOUND=    0.000  UPPER_BOUND=    0.000
INTER + INTRA:          -4.769
INTER:                  -4.769
INTRA:                   0.000
UNBOUND:                 0.000

$$$$

     RDKit          3D

 61 60  0  0  0  0  0  0  0  0999 V2000
   45.0743    6.3607   12.5412 C   0  0  1  0  0  0  0  0  0  0  0  0
   46.4480    6.9543   12.8114 C   0  0  0  0  0  0  0  0  0  0  0  0
   44.9383    5.4343   11.2805 C   0  0  1  0  0  0  0  0  0  0  0  0
   45.6493    4.1324   11.2604 N   0  0  0  0  0  0  0  0  0  0  0  0
   44.5709    5.7309   13.7228 O   0  0  0  0  0  0  0  0  0  0  0  0
   47.6196    6.1853   12.8096 C   0  0  0  0  0  0  0  0  0  0  0  0
   46.5518    8.3192   13.1341 C   0  0  0  0  0  0  0  0  0  0  0  0
   45.2860    3.2062   12.3222 C   0  0  0  0  0  0  0  0  0  0  0  0
   43.4537    5.2304   10.9363 C   0  0  0  0  0  0  0  0  0  0  0  0
   48.8576    6.7647   13.0987 C   0  0  0  0  0  0  0  0  0  0  0  0
   47.7894    8.8994   13.4196 C   0  0  0  0  0  0  0  0  0  0  0  0
   48.9431    8.1208   13.4005 C   0  0  0  0  0  0  0  0  0  0  0  0
   45.9592    6.0816   12.7903 S   0  0  0  0  0  0  0  0  0  0  0  0
   44.8733    6.9325   13.2106 O   0  0  0  0  0  0  0  0  0  0  0  0
   46.8991    5.4804   13.7016 O   0  0  0  0  0  0  0  0  0  0  0  0
   45.2931    4.9068   11.9210 O   0  0  0  0  0  0  0  0  0  0  0  0
   46.8201    6.8558   11.6821 O   0  0  0  0  0  0  0  0  0  0  0  0
   45.5083    6.9666   12.8110 C   0  0  1  0  0  0  0  0  0  0  0  0
   44.9452    5.7274   12.1346 C   0  0  0  0  0  0  0  0  0  0  0  0
   47.0641    7.1417   12.7074 C   0  0  1  0  0  0  0  0  0  0  0  0
   47.8747    6.1889   13.4964 N   0  0  0  0  0  0  0  0  0  0  0  0
   44.8685    8.1454   12.2932 O   0  0  0  0  0  0  0  0  0  0  0  0
   44.2211    5.8021   10.9327 C   0  0  0  0  0  0  0  0  0  0  0  0
   45.1465    4.4618   12.7096 C   0  0  0  0  0  0  0  0  0  0  0  0
   47.7835    6.4199   14.9315 C   0  0  0  0  0  0  0  0  0  0  0  0
   47.5436    7.0965   11.2471 C   0  0  0  0  0  0  0  0  0  0  0  0
   43.7186    4.6494   10.3240 C   0  0  0  0  0  0  0  0  0  0  0  0
   44.6447    3.3087   12.1013 C   0  0  0  0  0  0  0  0  0  0  0  0
   43.9322    3.4030   10.9084 C   0  0  0  0  0  0  0  0  0  0  0  0
   44.3953    7.2048   12.3604 H   0  0  0  0  0  0  0  0  0  0  0  0
   45.3691    6.0001   10.4423 H   0  0  0  0  0  0  0  0  0  0  0  0
   45.4669    3.6824   10.3633 H   0  0  0  0  0  0  0  0  0  0  0  0
   45.3371    5.5829   14.3072 H   0  0  0  0  0  0  0  0  0  0  0  0
   47.5891    5.1226   12.5841 H   0  0  0  0  0  0  0  0  0  0  0  0
   45.6609    8.9452   13.1674 H   0  0  0  0  0  0  0  0  0  0  0  0
   45.6531    3.5401   13.2948 H   0  0  0  0  0  0  0  0  0  0  0  0
   45.7693    2.2424   12.1281 H   0  0  0  0  0  0  0  0  0  0  0  0
   44.2101    3.0215   12.3783 H   0  0  0  0  0  0  0  0  0  0  0  0
   42.9751    6.1943   10.7247 H   0  0  0  0  0  0  0  0  0  0  0  0
   42.9013    4.7580   11.7550 H   0  0  0  0  0  0  0  0  0  0  0  0
   43.3376    4.6094   10.0400 H   0  0  0  0  0  0  0  0  0  0  0  0
   49.7556    6.1528   13.0861 H   0  0  0  0  0  0  0  0  0  0  0  0
   47.8511    9.9577   13.6563 H   0  0  0  0  0  0  0  0  0  0  0  0
   49.9081    8.5669   13.6227 H   0  0  0  0  0  0  0  0  0  0  0  0
   44.3287    5.0948   11.8901 H   0  0  0  0  0  0  0  0  0  0  0  0
   47.6607    6.3679   11.5647 H   0  0  0  0  0  0  0  0  0  0  0  0
   45.2079    6.9271   13.8649 H   0  0  0  0  0  0  0  0  0  0  0  0
   47.3025    8.1559   13.0585 H   0  0  0  0  0  0  0  0  0  0  0  0
   48.8518    6.2642   13.2125 H   0  0  0  0  0  0  0  0  0  0  0  0
   45.1379    8.8864   12.8621 H   0  0  0  0  0  0  0  0  0  0  0  0
   44.0441    6.7663   10.4593 H   0  0  0  0  0  0  0  0  0  0  0  0
   45.7094    4.3649   13.6358 H   0  0  0  0  0  0  0  0  0  0  0  0
   48.0846    7.4374   15.1967 H   0  0  0  0  0  0  0  0  0  0  0  0
   46.7759    6.2334   15.3108 H   0  0  0  0  0  0  0  0  0  0  0  0
   48.4538    5.7264   15.4502 H   0  0  0  0  0  0  0  0  0  0  0  0
   48.6020    7.3731   11.1783 H   0  0  0  0  0  0  0  0  0  0  0  0
   46.9831    7.8046   10.6267 H   0  0  0  0  0  0  0  0  0  0  0  0
   47.4347    6.0973   10.8104 H   0  0  0  0  0  0  0  0  0  0  0  0
   43.1618    4.7273    9.3935 H   0  0  0  0  0  0  0  0  0  0  0  0
   44.8157    2.3376   12.5584 H   0  0  0  0  0  0  0  0  0  0  0  0
   43.5454    2.5065   10.4323 H   0  0  0  0  0  0  0  0  0  0  0  0
  2  1  1  0
  3  1  1  0
  4  3  1  0
  1  5  1  0
  6  2  2  0
  7  2  1  0
  8  4  1  0
  3  9  1  0
 10  6  1  0
 11  7  2  0
 12 10  2  0
 12 11  1  0
 14 13  2  0
 15 13  2  0
 16 13  1  0
 17 13  1  0
 19 18  1  0
 20 18  1  0
 21 20  1  0
 18 22  1  0
 23 19  2  0
 24 19  1  0
 25 21  1  0
 20 26  1  0
 27 23  1  0
 28 24  2  0
 29 27  2  0
 29 28  1  0
  1 30  1  6
  3 31  1  6
  4 32  1  0
  5 33  1  0
  6 34  1  0
  7 35  1  0
  8 36  1  0
  8 37  1  0
  8 38  1  0
  9 39  1  0
  9 40  1  0
  9 41  1  0
 10 42  1  0
 11 43  1  0
 12 44  1  0
 16 45  1  0
 17 46  1  0
 18 47  1  1
 20 48  1  6
 21 49  1  0
 22 50  1  0
 23 51  1  0
 24 52  1  0
 25 53  1  0
 25 54  1  0
 25 55  1  0
 26 56  1  0
 26 57  1  0
 26 58  1  0
 27 59  1  0
 28 60  1  0
 29 61  1  0
M  END
> <Uni-Dock RESULT> 
ENERGY=   -4.714  LOWER_BOUND=    1.236  UPPER_BOUND=    4.396
INTER + INTRA:          -4.714
INTER:                  -4.714
INTRA:                   0.000
UNBOUND:                 0.000

$$$$

     RDKit          3D

 61 60  0  0  0  0  0  0  0  0999 V2000
   47.9944    5.6718   19.9749 C   0  0  1  0  0  0  0  0  0  0  0  0
   48.2185    4.7472   18.7885 C   0  0  0  0  0  0  0  0  0  0  0  0
   48.2455    5.0665   21.4020 C   0  0  1  0  0  0  0  0  0  0  0  0
   49.6249    4.6849   21.7926 N   0  0  0  0  0  0  0  0  0  0  0  0
   48.7059    6.8978   19.7826 O   0  0  0  0  0  0  0  0  0  0  0  0
   49.3734    3.9666   18.6434 C   0  0  0  0  0  0  0  0  0  0  0  0
   47.2598    4.7095   17.7602 C   0  0  0  0  0  0  0  0  0  0  0  0
   50.5996    5.7651   21.7771 C   0  0  0  0  0  0  0  0  0  0  0  0
   47.6258    5.9769   22.4750 C   0  0  0  0  0  0  0  0  0  0  0  0
   49.5550    3.1577   17.5189 C   0  0  0  0  0  0  0  0  0  0  0  0
   47.4394    3.8983   16.6379 C   0  0  0  0  0  0  0  0  0  0  0  0
   48.5879    3.1211   16.5186 C   0  0  0  0  0  0  0  0  0  0  0  0
   48.7082    5.2078   19.5294 S   0  0  0  0  0  0  0  0  0  0  0  0
   47.6733    6.1873   19.3066 O   0  0  0  0  0  0  0  0  0  0  0  0
   49.9463    5.1753   18.7935 O   0  0  0  0  0  0  0  0  0  0  0  0
   49.0649    5.2853   21.0934 O   0  0  0  0  0  0  0  0  0  0  0  0
   48.0645    3.7445   19.4164 O   0  0  0  0  0  0  0  0  0  0  0  0
   47.7876    5.4477   19.2432 C   0  0  1  0  0  0  0  0  0  0  0  0
   48.3118    5.5821   20.6636 C   0  0  0  0  0  0  0  0  0  0  0  0
   48.3036    4.1955   18.4510 C   0  0  1  0  0  0  0  0  0  0  0  0
   49.7287    4.2237   18.0566 N   0  0  0  0  0  0  0  0  0  0  0  0
   46.3499    5.4404   19.2463 O   0  0  0  0  0  0  0  0  0  0  0  0
   47.4991    5.3295   21.7817 C   0  0  0  0  0  0  0  0  0  0  0  0
   49.6447    5.9652   20.8859 C   0  0  0  0  0  0  0  0  0  0  0  0
   50.0085    5.1995   17.0122 C   0  0  0  0  0  0  0  0  0  0  0  0
   48.0363    2.8898   19.2180 C   0  0  0  0  0  0  0  0  0  0  0  0
   48.0035    5.4521   23.0787 C   0  0  0  0  0  0  0  0  0  0  0  0
   50.1499    6.0875   22.1825 C   0  0  0  0  0  0  0  0  0  0  0  0
   49.3295    5.8296   23.2781 C   0  0  0  0  0  0  0  0  0  0  0  0
   46.9337    5.9556   19.9583 H   0  0  0  0  0  0  0  0  0  0  0  0
   47.6763    4.1268   21.4358 H   0  0  0  0  0  0  0  0  0  0  0  0
   49.5936    4.2920   22.7335 H   0  0  0  0  0  0  0  0  0  0  0  0
   49.3781    6.7251   19.0980 H   0  0  0  0  0  0  0  0  0  0  0  0
   50.1515    3.9752   19.4021 H   0  0  0  0  0  0  0  0  0  0  0  0
   46.3592    5.3187   17.8261 H   0  0  0  0  0  0  0  0  0  0  0  0
   50.8358    6.0837   20.7598 H   0  0  0  0  0  0  0  0  0  0  0  0
   51.5379    5.3978   22.2073 H   0  0  0  0  0  0  0  0  0  0  0  0
   50.2894    6.6289   22.3708 H   0  0  0  0  0  0  0  0  0  0  0  0
   46.5455    6.0759   22.3139 H   0  0  0  0  0  0  0  0  0  0  0  0
   48.0571    6.9831   22.4618 H   0  0  0  0  0  0  0  0  0  0  0  0
   47.7648    5.5564   23.4781 H   0  0  0  0  0  0  0  0  0  0  0  0
   50.4546    2.5548   17.4278 H   0  0  0  0  0  0  0  0  0  0  0  0
   46.6828    3.8744   15.8588 H   0  0  0  0  0  0  0  0  0  0  0  0
   48.7329    2.4891   15.6472 H   0  0  0  0  0  0  0  0  0  0  0  0
   48.4679    5.9624   21.4827 H   0  0  0  0  0  0  0  0  0  0  0  0
   48.7994    3.1007   19.3545 H   0  0  0  0  0  0  0  0  0  0  0  0
   48.0601    6.3649   18.7075 H   0  0  0  0  0  0  0  0  0  0  0  0
   47.7030    4.1196   17.5333 H   0  0  0  0  0  0  0  0  0  0  0  0
   50.0035    3.2988   17.7248 H   0  0  0  0  0  0  0  0  0  0  0  0
   46.0647    5.5177   18.3200 H   0  0  0  0  0  0  0  0  0  0  0  0
   46.4604    5.0324   21.6475 H   0  0  0  0  0  0  0  0  0  0  0  0
   50.3055    6.1611   20.0439 H   0  0  0  0  0  0  0  0  0  0  0  0
   49.4028    5.0203   16.1193 H   0  0  0  0  0  0  0  0  0  0  0  0
   49.8453    6.2233   17.3571 H   0  0  0  0  0  0  0  0  0  0  0  0
   51.0620    5.1238   16.7228 H   0  0  0  0  0  0  0  0  0  0  0  0
   48.2588    2.0193   18.5901 H   0  0  0  0  0  0  0  0  0  0  0  0
   46.9838    2.8152   19.5134 H   0  0  0  0  0  0  0  0  0  0  0  0
   48.6521    2.8112   20.1211 H   0  0  0  0  0  0  0  0  0  0  0  0
   47.3595    5.2512   23.9313 H   0  0  0  0  0  0  0  0  0  0  0  0
   51.1857    6.3794   22.3345 H   0  0  0  0  0  0  0  0  0  0  0  0
   49.7227    5.9202   24.2866 H   0  0  0  0  0  0  0  0  0  0  0  0
  2  1  1  0
  3  1  1  0
  4  3  1  0
  1  5  1  0
  6  2  2  0
  7  2  1  0
  8  4  1  0
  3  9  1  0
 10  6  1  0
 11  7  2  0
 12 10  2  0
 12 11  1  0
 14 13  2  0
 15 13  2  0
 16 13  1  0
 17 13  1  0
 19 18  1  0
 20 18  1  0
 21 20  1  0
 18 22  1  0
 23 19  2  0
 24 19  1  0
 25 21  1  0
 20 26  1  0
 27 23  1  0
 28 24  2  0
 29 27  2  0
 29 28  1  0
  1 30  1  6
  3 31  1  6
  4 32  1  0
  5 33  1  0
  6 34  1  0
  7 35  1  0
  8 36  1  0
  8 37  1  0
  8 38  1  0
  9 39  1  0
  9 40  1  0
  9 41  1  0
 10 42  1  0
 11 43  1  0
 12 44  1  0
 16 45  1  0
 17 46  1  0
 18 47  1  1
 20 48  1  6
 21 49  1  0
 22 50  1  0
 23 51  1  0
 24 52  1  0
 25 53  1  0
 25 54  1  0
 25 55  1  0
 26 56  1  0
 26 57  1  0
 26 58  1  0
 27 59  1  0
 28 60  1  0
 29 61  1  0
M  END
> <Uni-Dock RESULT> 
ENERGY=   -4.707  LOWER_BOUND=    7.592  UPPER_BOUND=    8.655
INTER + INTRA:          -4.707
INTER:                  -4.707
INTRA:                   0.000
UNBOUND:                 0.000

$$$$

     RDKit          3D

 61 60  0  0  0  0  0  0  0  0999 V2000
   47.9028    5.0780   18.8333 C   0  0  1  0  0  0  0  0  0  0  0  0
   48.3091    6.5254   19.0620 C   0  0  0  0  0  0  0  0  0  0  0  0
   48.1963    4.4758   17.4130 C   0  0  1  0  0  0  0  0  0  0  0  0
   49.6041    4.2853   16.9857 N   0  0  0  0  0  0  0  0  0  0  0  0
   48.4202    4.2519   19.8804 O   0  0  0  0  0  0  0  0  0  0  0  0
   49.5761    7.0197   18.7232 C   0  0  0  0  0  0  0  0  0  0  0  0
   47.4039    7.3986   19.6914 C   0  0  0  0  0  0  0  0  0  0  0  0
   50.3980    3.4030   17.8274 C   0  0  0  0  0  0  0  0  0  0  0  0
   47.4055    3.1710   17.2223 C   0  0  0  0  0  0  0  0  0  0  0  0
   49.9203    8.3483   18.9841 C   0  0  0  0  0  0  0  0  0  0  0  0
   47.7464    8.7275   19.9490 C   0  0  0  0  0  0  0  0  0  0  0  0
   49.0056    9.2023   19.5935 C   0  0  0  0  0  0  0  0  0  0  0  0
   48.6952    5.6183   18.8917 S   0  0  0  0  0  0  0  0  0  0  0  0
   47.5282    5.2242   19.6419 O   0  0  0  0  0  0  0  0  0  0  0  0
   49.9476    5.9861   19.5013 O   0  0  0  0  0  0  0  0  0  0  0  0
   48.9815    4.4255   17.8550 O   0  0  0  0  0  0  0  0  0  0  0  0
   48.2922    6.8150   17.9048 O   0  0  0  0  0  0  0  0  0  0  0  0
   47.7587    5.7737   19.1848 C   0  0  1  0  0  0  0  0  0  0  0  0
   48.2065    4.6181   18.3047 C   0  0  0  0  0  0  0  0  0  0  0  0
   48.4909    7.1377   18.9289 C   0  0  1  0  0  0  0  0  0  0  0  0
   49.9068    7.1993   19.3518 N   0  0  0  0  0  0  0  0  0  0  0  0
   46.3406    5.9717   19.0559 O   0  0  0  0  0  0  0  0  0  0  0  0
   47.4053    4.1272   17.2599 C   0  0  0  0  0  0  0  0  0  0  0  0
   49.4548    4.0126   18.5236 C   0  0  0  0  0  0  0  0  0  0  0  0
   50.0664    7.2018   20.7994 C   0  0  0  0  0  0  0  0  0  0  0  0
   48.4046    7.5591   17.4527 C   0  0  0  0  0  0  0  0  0  0  0  0
   47.8396    3.0687   16.4583 C   0  0  0  0  0  0  0  0  0  0  0  0
   49.8898    2.9545   17.7221 C   0  0  0  0  0  0  0  0  0  0  0  0
   49.0827    2.4840   16.6892 C   0  0  0  0  0  0  0  0  0  0  0  0
   46.8120    5.0335   18.9520 H   0  0  0  0  0  0  0  0  0  0  0  0
   47.7800    5.1913   16.6899 H   0  0  0  0  0  0  0  0  0  0  0  0
   49.6023    3.9106   16.0369 H   0  0  0  0  0  0  0  0  0  0  0  0
   49.1342    4.7594   20.3082 H   0  0  0  0  0  0  0  0  0  0  0  0
   50.3168    6.3794   18.2515 H   0  0  0  0  0  0  0  0  0  0  0  0
   46.4175    7.0458   19.9898 H   0  0  0  0  0  0  0  0  0  0  0  0
   50.6163    3.8554   18.7969 H   0  0  0  0  0  0  0  0  0  0  0  0
   51.3669    3.2346   17.3443 H   0  0  0  0  0  0  0  0  0  0  0  0
   49.9366    2.4231   17.9740 H   0  0  0  0  0  0  0  0  0  0  0  0
   46.3292    3.3601   17.3148 H   0  0  0  0  0  0  0  0  0  0  0  0
   47.6746    2.4130   17.9650 H   0  0  0  0  0  0  0  0  0  0  0  0
   47.5740    2.7493   16.2241 H   0  0  0  0  0  0  0  0  0  0  0  0
   50.9056    8.7144   18.7081 H   0  0  0  0  0  0  0  0  0  0  0  0
   47.0300    9.3899   20.4265 H   0  0  0  0  0  0  0  0  0  0  0  0
   49.2774   10.2350   19.7924 H   0  0  0  0  0  0  0  0  0  0  0  0
   48.2731    3.7584   17.9944 H   0  0  0  0  0  0  0  0  0  0  0  0
   49.1203    7.2119   17.5655 H   0  0  0  0  0  0  0  0  0  0  0  0
   47.9029    5.4640   20.2269 H   0  0  0  0  0  0  0  0  0  0  0  0
   47.9413    7.9120   19.4830 H   0  0  0  0  0  0  0  0  0  0  0  0
   50.3339    8.0446   18.9722 H   0  0  0  0  0  0  0  0  0  0  0  0
   46.0788    6.6014   19.7488 H   0  0  0  0  0  0  0  0  0  0  0  0
   46.4310    4.5709   17.0623 H   0  0  0  0  0  0  0  0  0  0  0  0
   50.1053    4.3718   19.3185 H   0  0  0  0  0  0  0  0  0  0  0  0
   49.5271    8.0324   21.2638 H   0  0  0  0  0  0  0  0  0  0  0  0
   49.7335    6.2625   21.2475 H   0  0  0  0  0  0  0  0  0  0  0  0
   51.1281    7.3138   21.0436 H   0  0  0  0  0  0  0  0  0  0  0  0
   48.7818    8.5795   17.3185 H   0  0  0  0  0  0  0  0  0  0  0  0
   47.3672    7.5486   17.1003 H   0  0  0  0  0  0  0  0  0  0  0  0
   48.9939    6.9017   16.8034 H   0  0  0  0  0  0  0  0  0  0  0  0
   47.2061    2.7035   15.6538 H   0  0  0  0  0  0  0  0  0  0  0  0
   50.8616    2.5025   17.9031 H   0  0  0  0  0  0  0  0  0  0  0  0
   49.4221    1.6641   16.0626 H   0  0  0  0  0  0  0  0  0  0  0  0
  2  1  1  0
  3  1  1  0
  4  3  1  0
  1  5  1  0
  6  2  2  0
  7  2  1  0
  8  4  1  0
  3  9  1  0
 10  6  1  0
 11  7  2  0
 12 10  2  0
 12 11  1  0
 14 13  2  0
 15 13  2  0
 16 13  1  0
 17 13  1  0
 19 18  1  0
 20 18  1  0
 21 20  1  0
 18 22  1  0
 23 19  2  0
 24 19  1  0
 25 21  1  0
 20 26  1  0
 27 23  1  0
 28 24  2  0
 29 27  2  0
 29 28  1  0
  1 30  1  6
  3 31  1  6
  4 32  1  0
  5 33  1  0
  6 34  1  0
  7 35  1  0
  8 36  1  0
  8 37  1  0
  8 38  1  0
  9 39  1  0
  9 40  1  0
  9 41  1  0
 10 42  1  0
 11 43  1  0
 12 44  1  0
 16 45  1  0
 17 46  1  0
 18 47  1  1
 20 48  1  6
 21 49  1  0
 22 50  1  0
 23 51  1  0
 24 52  1  0
 25 53  1  0
 25 54  1  0
 25 55  1  0
 26 56  1  0
 26 57  1  0
 26 58  1  0
 27 59  1  0
 28 60  1  0
 29 61  1  0
M  END
> <Uni-Dock RESULT> 
ENERGY=   -4.630  LOWER_BOUND=    6.273  UPPER_BOUND=    8.011
INTER + INTRA:          -4.630
INTER:                  -4.630
INTRA:                   0.000
UNBOUND:                 0.000

$$$$

     RDKit          3D

 61 60  0  0  0  0  0  0  0  0999 V2000
   49.6907    5.0341   18.3802 C   0  0  1  0  0  0  0  0  0  0  0  0
   49.1545    5.7258   19.6238 C   0  0  0  0  0  0  0  0  0  0  0  0
   49.2699    3.5365   18.1654 C   0  0  1  0  0  0  0  0  0  0  0  0
   47.8476    3.2181   17.8887 N   0  0  0  0  0  0  0  0  0  0  0  0
   49.4288    5.8331   17.2229 O   0  0  0  0  0  0  0  0  0  0  0  0
   47.8030    5.6818   19.9923 C   0  0  0  0  0  0  0  0  0  0  0  0
   50.0317    6.4915   20.4125 C   0  0  0  0  0  0  0  0  0  0  0  0
   47.2911    3.8338   16.6936 C   0  0  0  0  0  0  0  0  0  0  0  0
   50.1728    2.8842   17.1054 C   0  0  0  0  0  0  0  0  0  0  0  0
   47.3463    6.3620   21.1239 C   0  0  0  0  0  0  0  0  0  0  0  0
   49.5761    7.1685   21.5456 C   0  0  0  0  0  0  0  0  0  0  0  0
   48.2321    7.1021   21.9015 C   0  0  0  0  0  0  0  0  0  0  0  0
   48.8570    5.3322   18.7534 S   0  0  0  0  0  0  0  0  0  0  0  0
   50.1573    5.8066   18.3482 O   0  0  0  0  0  0  0  0  0  0  0  0
   47.6702    6.1486   18.7369 O   0  0  0  0  0  0  0  0  0  0  0  0
   48.5673    4.0211   17.8722 O   0  0  0  0  0  0  0  0  0  0  0  0
   48.9718    4.7128   20.2271 O   0  0  0  0  0  0  0  0  0  0  0  0
   49.8010    5.5610   18.9621 C   0  0  1  0  0  0  0  0  0  0  0  0
   49.3707    4.4261   18.0471 C   0  0  0  0  0  0  0  0  0  0  0  0
   48.8850    5.8013   20.2131 C   0  0  1  0  0  0  0  0  0  0  0  0
   47.5467    6.3657   19.9342 N   0  0  0  0  0  0  0  0  0  0  0  0
   51.1531    5.3528   19.4043 O   0  0  0  0  0  0  0  0  0  0  0  0
   50.0662    3.2061   18.0003 C   0  0  0  0  0  0  0  0  0  0  0  0
   48.2462    4.5802   17.2197 C   0  0  0  0  0  0  0  0  0  0  0  0
   47.5966    7.7561   19.5036 C   0  0  0  0  0  0  0  0  0  0  0  0
   48.7094    4.5180   21.0419 C   0  0  0  0  0  0  0  0  0  0  0  0
   49.6489    2.1732   17.1572 C   0  0  0  0  0  0  0  0  0  0  0  0
   47.8280    3.5477   16.3768 C   0  0  0  0  0  0  0  0  0  0  0  0
   48.5288    2.3445   16.3470 C   0  0  0  0  0  0  0  0  0  0  0  0
   50.7850    5.0217   18.4726 H   0  0  0  0  0  0  0  0  0  0  0  0
   49.4918    3.0220   19.1111 H   0  0  0  0  0  0  0  0  0  0  0  0
   47.7577    2.2057   17.8019 H   0  0  0  0  0  0  0  0  0  0  0  0
   48.7287    6.4639   17.4729 H   0  0  0  0  0  0  0  0  0  0  0  0
   47.0826    5.1185   19.4050 H   0  0  0  0  0  0  0  0  0  0  0  0
   51.0851    6.5681   20.1461 H   0  0  0  0  0  0  0  0  0  0  0  0
   47.1621    4.9113   16.8150 H   0  0  0  0  0  0  0  0  0  0  0  0
   46.2896    3.4243   16.5213 H   0  0  0  0  0  0  0  0  0  0  0  0
   47.8804    3.6325   15.7954 H   0  0  0  0  0  0  0  0  0  0  0  0
   51.2216    2.9185   17.4241 H   0  0  0  0  0  0  0  0  0  0  0  0
   50.1034    3.3896   16.1366 H   0  0  0  0  0  0  0  0  0  0  0  0
   49.9140    1.8284   16.9616 H   0  0  0  0  0  0  0  0  0  0  0  0
   46.2956    6.3105   21.3967 H   0  0  0  0  0  0  0  0  0  0  0  0
   50.2708    7.7465   22.1484 H   0  0  0  0  0  0  0  0  0  0  0  0
   47.8724    7.6277   22.7815 H   0  0  0  0  0  0  0  0  0  0  0  0
   49.3616    3.8813   17.3103 H   0  0  0  0  0  0  0  0  0  0  0  0
   48.0628    4.5944   20.5711 H   0  0  0  0  0  0  0  0  0  0  0  0
   49.8446    6.4716   18.3526 H   0  0  0  0  0  0  0  0  0  0  0  0
   49.4135    6.5024   20.8747 H   0  0  0  0  0  0  0  0  0  0  0  0
   46.9736    6.3022   20.7759 H   0  0  0  0  0  0  0  0  0  0  0  0
   51.4356    6.1719   19.8454 H   0  0  0  0  0  0  0  0  0  0  0  0
   50.9434    3.0517   18.6262 H   0  0  0  0  0  0  0  0  0  0  0  0
   47.6784    5.5083   17.2355 H   0  0  0  0  0  0  0  0  0  0  0  0
   48.0955    8.3900   20.2422 H   0  0  0  0  0  0  0  0  0  0  0  0
   48.0979    7.8661   18.5390 H   0  0  0  0  0  0  0  0  0  0  0  0
   46.5749    8.1299   19.3774 H   0  0  0  0  0  0  0  0  0  0  0  0
   48.2000    4.7347   21.9879 H   0  0  0  0  0  0  0  0  0  0  0  0
   49.6798    4.0745   21.2911 H   0  0  0  0  0  0  0  0  0  0  0  0
   48.1146    3.7656   20.5118 H   0  0  0  0  0  0  0  0  0  0  0  0
   50.1994    1.2360   17.1358 H   0  0  0  0  0  0  0  0  0  0  0  0
   46.9519    3.6836   15.7481 H   0  0  0  0  0  0  0  0  0  0  0  0
   48.2018    1.5395   15.6950 H   0  0  0  0  0  0  0  0  0  0  0  0
  2  1  1  0
  3  1  1  0
  4  3  1  0
  1  5  1  0
  6  2  2  0
  7  2  1  0
  8  4  1  0
  3  9  1  0
 10  6  1  0
 11  7  2  0
 12 10  2  0
 12 11  1  0
 14 13  2  0
 15 13  2  0
 16 13  1  0
 17 13  1  0
 19 18  1  0
 20 18  1  0
 21 20  1  0
 18 22  1  0
 23 19  2  0
 24 19  1  0
 25 21  1  0
 20 26  1  0
 27 23  1  0
 28 24  2  0
 29 27  2  0
 29 28  1  0
  1 30  1  6
  3 31  1  6
  4 32  1  0
  5 33  1  0
  6 34  1  0
  7 35  1  0
  8 36  1  0
  8 37  1  0
  8 38  1  0
  9 39  1  0
  9 40  1  0
  9 41  1  0
 10 42  1  0
 11 43  1  0
 12 44  1  0
 16 45  1  0
 17 46  1  0
 18 47  1  1
 20 48  1  6
 21 49  1  0
 22 50  1  0
 23 51  1  0
 24 52  1  0
 25 53  1  0
 25 54  1  0
 25 55  1  0
 26 56  1  0
 26 57  1  0
 26 58  1  0
 27 59  1  0
 28 60  1  0
 29 61  1  0
M  END
> <Uni-Dock RESULT> 
ENERGY=   -4.268  LOWER_BOUND=    6.800  UPPER_BOUND=    8.222
INTER + INTRA:          -4.268
INTER:                  -4.268
INTRA:                   0.000
UNBOUND:                 0.000

$$$$

     RDKit          3D

 61 60  0  0  0  0  0  0  0  0999 V2000
   48.1763    5.1966   20.3482 C   0  0  1  0  0  0  0  0  0  0  0  0
   49.3419    5.0702   19.3798 C   0  0  0  0  0  0  0  0  0  0  0  0
   48.4954    5.7885   21.7674 C   0  0  1  0  0  0  0  0  0  0  0  0
   48.9141    7.2072   21.8811 N   0  0  0  0  0  0  0  0  0  0  0  0
   47.0870    5.8775   19.7188 O   0  0  0  0  0  0  0  0  0  0  0  0
   50.2388    6.1183   19.1323 C   0  0  0  0  0  0  0  0  0  0  0  0
   49.5018    3.8761   18.6542 C   0  0  0  0  0  0  0  0  0  0  0  0
   47.9547    8.1828   21.3861 C   0  0  0  0  0  0  0  0  0  0  0  0
   47.3305    5.5031   22.7295 C   0  0  0  0  0  0  0  0  0  0  0  0
   51.2750    5.9713   18.2069 C   0  0  0  0  0  0  0  0  0  0  0  0
   50.5396    3.7276   17.7319 C   0  0  0  0  0  0  0  0  0  0  0  0
   51.4274    4.7764   17.5096 C   0  0  0  0  0  0  0  0  0  0  0  0
   48.7858    5.7524   19.8555 S   0  0  0  0  0  0  0  0  0  0  0  0
   47.7820    4.7314   19.6822 O   0  0  0  0  0  0  0  0  0  0  0  0
   49.0832    6.7540   18.8637 O   0  0  0  0  0  0  0  0  0  0  0  0
   48.4213    6.5067   21.2258 O   0  0  0  0  0  0  0  0  0  0  0  0
   50.1753    5.0487   20.2332 O   0  0  0  0  0  0  0  0  0  0  0  0
   48.5261    4.7983   19.7589 C   0  0  1  0  0  0  0  0  0  0  0  0
   48.1512    5.6789   20.9397 C   0  0  0  0  0  0  0  0  0  0  0  0
   49.9567    5.0444   19.1633 C   0  0  1  0  0  0  0  0  0  0  0  0
   50.1419    6.3177   18.4340 N   0  0  0  0  0  0  0  0  0  0  0  0
   48.3999    3.4118   20.1174 O   0  0  0  0  0  0  0  0  0  0  0  0
   48.0921    5.1768   22.2508 C   0  0  0  0  0  0  0  0  0  0  0  0
   47.8552    7.0367   20.7360 C   0  0  0  0  0  0  0  0  0  0  0  0
   49.4319    6.3511   17.1628 C   0  0  0  0  0  0  0  0  0  0  0  0
   51.0462    4.9388   20.2432 C   0  0  0  0  0  0  0  0  0  0  0  0
   47.7524    6.0057   23.3228 C   0  0  0  0  0  0  0  0  0  0  0  0
   47.5158    7.8662   21.8075 C   0  0  0  0  0  0  0  0  0  0  0  0
   47.4658    7.3506   23.1003 C   0  0  0  0  0  0  0  0  0  0  0  0
   47.8053    4.1792   20.5307 H   0  0  0  0  0  0  0  0  0  0  0  0
   49.3514    5.2139   22.1486 H   0  0  0  0  0  0  0  0  0  0  0  0
   49.1003    7.4077   22.8638 H   0  0  0  0  0  0  0  0  0  0  0  0
   47.4582    6.3415   18.9459 H   0  0  0  0  0  0  0  0  0  0  0  0
   50.1461    7.0670   19.6544 H   0  0  0  0  0  0  0  0  0  0  0  0
   48.8117    3.0465   18.8026 H   0  0  0  0  0  0  0  0  0  0  0  0
   47.8755    8.1573   20.2973 H   0  0  0  0  0  0  0  0  0  0  0  0
   48.3106    9.1868   21.6426 H   0  0  0  0  0  0  0  0  0  0  0  0
   46.9625    8.0695   21.8302 H   0  0  0  0  0  0  0  0  0  0  0  0
   47.1675    4.4225   22.8215 H   0  0  0  0  0  0  0  0  0  0  0  0
   46.3927    5.9524   22.3869 H   0  0  0  0  0  0  0  0  0  0  0  0
   47.5465    5.8832   23.7351 H   0  0  0  0  0  0  0  0  0  0  0  0
   51.9641    6.7936   18.0336 H   0  0  0  0  0  0  0  0  0  0  0  0
   50.6535    2.7939   17.1887 H   0  0  0  0  0  0  0  0  0  0  0  0
   52.2358    4.6664   16.7926 H   0  0  0  0  0  0  0  0  0  0  0  0
   47.6265    6.0566   21.5893 H   0  0  0  0  0  0  0  0  0  0  0  0
   50.8831    5.7183   20.1371 H   0  0  0  0  0  0  0  0  0  0  0  0
   47.7679    4.9551   18.9823 H   0  0  0  0  0  0  0  0  0  0  0  0
   50.1641    4.2232   18.4624 H   0  0  0  0  0  0  0  0  0  0  0  0
   51.1366    6.4628   18.2593 H   0  0  0  0  0  0  0  0  0  0  0  0
   48.4889    2.8982   19.2967 H   0  0  0  0  0  0  0  0  0  0  0  0
   48.3135    4.1289   22.4461 H   0  0  0  0  0  0  0  0  0  0  0  0
   47.8986    7.4620   19.7354 H   0  0  0  0  0  0  0  0  0  0  0  0
   49.7345    5.5277   16.5095 H   0  0  0  0  0  0  0  0  0  0  0  0
   48.3485    6.3206   17.3004 H   0  0  0  0  0  0  0  0  0  0  0  0
   49.6625    7.2894   16.6472 H   0  0  0  0  0  0  0  0  0  0  0  0
   52.0440    4.9583   19.7899 H   0  0  0  0  0  0  0  0  0  0  0  0
   50.9610    3.9975   20.7976 H   0  0  0  0  0  0  0  0  0  0  0  0
   50.9938    5.7653   20.9610 H   0  0  0  0  0  0  0  0  0  0  0  0
   47.7132    5.5991   24.3303 H   0  0  0  0  0  0  0  0  0  0  0  0
   47.2957    8.9158   21.6308 H   0  0  0  0  0  0  0  0  0  0  0  0
   47.2063    7.9959   23.9347 H   0  0  0  0  0  0  0  0  0  0  0  0
  2  1  1  0
  3  1  1  0
  4  3  1  0
  1  5  1  0
  6  2  2  0
  7  2  1  0
  8  4  1  0
  3  9  1  0
 10  6  1  0
 11  7  2  0
 12 10  2  0
 12 11  1  0
 14 13  2  0
 15 13  2  0
 16 13  1  0
 17 13  1  0
 19 18  1  0
 20 18  1  0
 21 20  1  0
 18 22  1  0
 23 19  2  0
 24 19  1  0
 25 21  1  0
 20 26  1  0
 27 23  1  0
 28 24  2  0
 29 27  2  0
 29 28  1  0
  1 30  1  6
  3 31  1  6
  4 32  1  0
  5 33  1  0
  6 34  1  0
  7 35  1  0
  8 36  1  0
  8 37  1  0
  8 38  1  0
  9 39  1  0
  9 40  1  0
  9 41  1  0
 10 42  1  0
 11 43  1  0
 12 44  1  0
 16 45  1  0
 17 46  1  0
 18 47  1  1
 20 48  1  6
 21 49  1  0
 22 50  1  0
 23 51  1  0
 24 52  1  0
 25 53  1  0
 25 54  1  0
 25 55  1  0
 26 56  1  0
 26 57  1  0
 26 58  1  0
 27 59  1  0
 28 60  1  0
 29 61  1  0
M  END
> <Uni-Dock RESULT> 
ENERGY=   -4.227  LOWER_BOUND=    7.861  UPPER_BOUND=    9.057
INTER + INTRA:          -4.227
INTER:                  -4.227
INTRA:                   0.000
UNBOUND:                 0.000

$$$$

     RDKit          3D

 61 60  0  0  0  0  0  0  0  0999 V2000
   48.0914    7.7767   12.5099 C   0  0  1  0  0  0  0  0  0  0  0  0
   48.8133    8.0568   13.8187 C   0  0  0  0  0  0  0  0  0  0  0  0
   46.6847    7.0860   12.6106 C   0  0  1  0  0  0  0  0  0  0  0  0
   45.5572    7.8289   13.2252 N   0  0  0  0  0  0  0  0  0  0  0  0
   48.0477    8.9620   11.7102 O   0  0  0  0  0  0  0  0  0  0  0  0
   48.1911    8.6791   14.9094 C   0  0  0  0  0  0  0  0  0  0  0  0
   50.1777    7.7343   13.9297 C   0  0  0  0  0  0  0  0  0  0  0  0
   45.2029    9.0793   12.5708 C   0  0  0  0  0  0  0  0  0  0  0  0
   46.2688    6.5385   11.2353 C   0  0  0  0  0  0  0  0  0  0  0  0
   48.9021    8.9503   16.0811 C   0  0  0  0  0  0  0  0  0  0  0  0
   50.8877    8.0020   15.1019 C   0  0  0  0  0  0  0  0  0  0  0  0
   50.2481    8.6096   16.1786 C   0  0  0  0  0  0  0  0  0  0  0  0
   48.0038    8.3238   13.2949 S   0  0  0  0  0  0  0  0  0  0  0  0
   48.8951    8.0435   12.1962 O   0  0  0  0  0  0  0  0  0  0  0  0
   47.9368    9.5995   13.9609 O   0  0  0  0  0  0  0  0  0  0  0  0
   46.5285    7.9595   12.7752 O   0  0  0  0  0  0  0  0  0  0  0  0
   48.2279    7.2188   14.4338 O   0  0  0  0  0  0  0  0  0  0  0  0
   48.7752    7.8324   12.9069 C   0  0  1  0  0  0  0  0  0  0  0  0
   47.3364    7.6871   12.4389 C   0  0  0  0  0  0  0  0  0  0  0  0
   48.9641    8.0251   14.4526 C   0  0  1  0  0  0  0  0  0  0  0  0
   48.5222    9.3263   14.9995 N   0  0  0  0  0  0  0  0  0  0  0  0
   49.5507    6.7005   12.4776 O   0  0  0  0  0  0  0  0  0  0  0  0
   46.8144    6.4526   12.0168 C   0  0  0  0  0  0  0  0  0  0  0  0
   46.4873    8.8058   12.4239 C   0  0  0  0  0  0  0  0  0  0  0  0
   49.3800   10.4317   14.5950 C   0  0  0  0  0  0  0  0  0  0  0  0
   48.2798    6.9034   15.2514 C   0  0  0  0  0  0  0  0  0  0  0  0
   45.4865    6.3400   11.5975 C   0  0  0  0  0  0  0  0  0  0  0  0
   45.1594    8.6938   12.0051 C   0  0  0  0  0  0  0  0  0  0  0  0
   44.6594    7.4608   11.5934 C   0  0  0  0  0  0  0  0  0  0  0  0
   48.7222    7.0780   11.9443 H   0  0  0  0  0  0  0  0  0  0  0  0
   46.8251    6.2080   13.2569 H   0  0  0  0  0  0  0  0  0  0  0  0
   44.7374    7.2219   13.2267 H   0  0  0  0  0  0  0  0  0  0  0  0
   48.2240    9.7095   12.3108 H   0  0  0  0  0  0  0  0  0  0  0  0
   47.1432    8.9640   14.8659 H   0  0  0  0  0  0  0  0  0  0  0  0
   50.7021    7.2698   13.0956 H   0  0  0  0  0  0  0  0  0  0  0  0
   45.9639    9.8472   12.7243 H   0  0  0  0  0  0  0  0  0  0  0  0
   44.2839    9.4655   13.0253 H   0  0  0  0  0  0  0  0  0  0  0  0
   45.0088    8.9618   11.5016 H   0  0  0  0  0  0  0  0  0  0  0  0
   47.0023    5.8052   10.8788 H   0  0  0  0  0  0  0  0  0  0  0  0
   46.1961    7.3289   10.4812 H   0  0  0  0  0  0  0  0  0  0  0  0
   45.3011    6.0258   11.2903 H   0  0  0  0  0  0  0  0  0  0  0  0
   48.4001    9.4278   16.9183 H   0  0  0  0  0  0  0  0  0  0  0  0
   51.9385    7.7360   15.1728 H   0  0  0  0  0  0  0  0  0  0  0  0
   50.7960    8.8209   17.0924 H   0  0  0  0  0  0  0  0  0  0  0  0
   46.6311    7.6229   11.8573 H   0  0  0  0  0  0  0  0  0  0  0  0
   47.7848    7.5363   15.2470 H   0  0  0  0  0  0  0  0  0  0  0  0
   49.2074    8.6855   12.3702 H   0  0  0  0  0  0  0  0  0  0  0  0
   50.0373    7.9185   14.6661 H   0  0  0  0  0  0  0  0  0  0  0  0
   48.5097    9.2753   16.0184 H   0  0  0  0  0  0  0  0  0  0  0  0
   50.4828    6.9129   12.6541 H   0  0  0  0  0  0  0  0  0  0  0  0
   47.4439    5.5645   12.0134 H   0  0  0  0  0  0  0  0  0  0  0  0
   46.8550    9.7762   12.7515 H   0  0  0  0  0  0  0  0  0  0  0  0
   50.4200   10.2646   14.8894 H   0  0  0  0  0  0  0  0  0  0  0  0
   49.3359   10.6084   13.5176 H   0  0  0  0  0  0  0  0  0  0  0  0
   49.0371   11.3498   15.0838 H   0  0  0  0  0  0  0  0  0  0  0  0
   48.5488    6.9640   16.3123 H   0  0  0  0  0  0  0  0  0  0  0  0
   48.5947    5.9169   14.8936 H   0  0  0  0  0  0  0  0  0  0  0  0
   47.1874    6.9598   15.1843 H   0  0  0  0  0  0  0  0  0  0  0  0
   45.1004    5.3760   11.2756 H   0  0  0  0  0  0  0  0  0  0  0  0
   44.5159    9.5697   12.0060 H   0  0  0  0  0  0  0  0  0  0  0  0
   43.6256    7.3719   11.2718 H   0  0  0  0  0  0  0  0  0  0  0  0
  2  1  1  0
  3  1  1  0
  4  3  1  0
  1  5  1  0
  6  2  2  0
  7  2  1  0
  8  4  1  0
  3  9  1  0
 10  6  1  0
 11  7  2  0
 12 10  2  0
 12 11  1  0
 14 13  2  0
 15 13  2  0
 16 13  1  0
 17 13  1  0
 19 18  1  0
 20 18  1  0
 21 20  1  0
 18 22  1  0
 23 19  2  0
 24 19  1  0
 25 21  1  0
 20 26  1  0
 27 23  1  0
 28 24  2  0
 29 27  2  0
 29 28  1  0
  1 30  1  6
  3 31  1  6
  4 32  1  0
  5 33  1  0
  6 34  1  0
  7 35  1  0
  8 36  1  0
  8 37  1  0
  8 38  1  0
  9 39  1  0
  9 40  1  0
  9 41  1  0
 10 42  1  0
 11 43  1  0
 12 44  1  0
 16 45  1  0
 17 46  1  0
 18 47  1  1
 20 48  1  6
 21 49  1  0
 22 50  1  0
 23 51  1  0
 24 52  1  0
 25 53  1  0
 25 54  1  0
 25 55  1  0
 26 56  1  0
 26 57  1  0
 26 58  1  0
 27 59  1  0
 28 60  1  0
 29 61  1  0
M  END
> <Uni-Dock RESULT> 
ENERGY=   -4.222  LOWER_BOUND=    2.306  UPPER_BOUND=    4.888
INTER + INTRA:          -4.222
INTER:                  -4.222
INTRA:                   0.000
UNBOUND:                 0.000

$$$$

     RDKit          3D

 61 60  0  0  0  0  0  0  0  0999 V2000
   47.0745   10.3080   20.7978 C   0  0  1  0  0  0  0  0  0  0  0  0
   47.8158    8.9803   20.8062 C   0  0  0  0  0  0  0  0  0  0  0  0
   47.9392   11.6008   20.5810 C   0  0  1  0  0  0  0  0  0  0  0  0
   48.6041   11.8143   19.2721 N   0  0  0  0  0  0  0  0  0  0  0  0
   45.9693   10.2472   19.8917 O   0  0  0  0  0  0  0  0  0  0  0  0
   48.7432    8.6237   19.8177 C   0  0  0  0  0  0  0  0  0  0  0  0
   47.5239    8.0403   21.8108 C   0  0  0  0  0  0  0  0  0  0  0  0
   47.7135   11.8838   18.1235 C   0  0  0  0  0  0  0  0  0  0  0  0
   47.1272   12.8471   20.9702 C   0  0  0  0  0  0  0  0  0  0  0  0
   49.3751    7.3781   19.8439 C   0  0  0  0  0  0  0  0  0  0  0  0
   48.1581    6.7966   21.8392 C   0  0  0  0  0  0  0  0  0  0  0  0
   49.0854    6.4665   20.8550 C   0  0  0  0  0  0  0  0  0  0  0  0
   47.5712    9.7401   20.2030 S   0  0  0  0  0  0  0  0  0  0  0  0
   46.4100    9.7547   21.0583 O   0  0  0  0  0  0  0  0  0  0  0  0
   47.6880    8.9088   19.0322 O   0  0  0  0  0  0  0  0  0  0  0  0
   47.8122   11.2630   19.7538 O   0  0  0  0  0  0  0  0  0  0  0  0
   48.8682    9.4585   21.1013 O   0  0  0  0  0  0  0  0  0  0  0  0
   47.1377    9.5702   21.0806 C   0  0  1  0  0  0  0  0  0  0  0  0
   47.3276   10.9467   20.4645 C   0  0  0  0  0  0  0  0  0  0  0  0
   48.3110    8.5568   20.8388 C   0  0  1  0  0  0  0  0  0  0  0  0
   48.4560    8.0558   19.4548 N   0  0  0  0  0  0  0  0  0  0  0  0
   46.9059    9.6900   22.4944 O   0  0  0  0  0  0  0  0  0  0  0  0
   47.6216   12.0760   21.2472 C   0  0  0  0  0  0  0  0  0  0  0  0
   47.2136   11.1148   19.0747 C   0  0  0  0  0  0  0  0  0  0  0  0
   47.3822    7.1530   19.0635 C   0  0  0  0  0  0  0  0  0  0  0  0
   49.6619    9.1352   21.2915 C   0  0  0  0  0  0  0  0  0  0  0  0
   47.7995   13.3308   20.6593 C   0  0  0  0  0  0  0  0  0  0  0  0
   47.3919   12.3691   18.4862 C   0  0  0  0  0  0  0  0  0  0  0  0
   47.6860   13.4760   19.2786 C   0  0  0  0  0  0  0  0  0  0  0  0
   46.6192   10.4219   21.7907 H   0  0  0  0  0  0  0  0  0  0  0  0
   48.7637   11.5375   21.3053 H   0  0  0  0  0  0  0  0  0  0  0  0
   49.1354   12.6837   19.3215 H   0  0  0  0  0  0  0  0  0  0  0  0
   46.1367    9.4915   19.2990 H   0  0  0  0  0  0  0  0  0  0  0  0
   48.9890    9.3085   19.0104 H   0  0  0  0  0  0  0  0  0  0  0  0
   46.7925    8.2719   22.5841 H   0  0  0  0  0  0  0  0  0  0  0  0
   47.2760   10.9110   17.8901 H   0  0  0  0  0  0  0  0  0  0  0  0
   48.2975   12.1746   17.2433 H   0  0  0  0  0  0  0  0  0  0  0  0
   46.9196   12.6255   18.2428 H   0  0  0  0  0  0  0  0  0  0  0  0
   46.8246   12.7921   22.0229 H   0  0  0  0  0  0  0  0  0  0  0  0
   46.2185   12.9522   20.3685 H   0  0  0  0  0  0  0  0  0  0  0  0
   47.7240   13.7597   20.8537 H   0  0  0  0  0  0  0  0  0  0  0  0
   50.0961    7.1227   19.0718 H   0  0  0  0  0  0  0  0  0  0  0  0
   47.9274    6.0877   22.6292 H   0  0  0  0  0  0  0  0  0  0  0  0
   49.5808    5.5001   20.8720 H   0  0  0  0  0  0  0  0  0  0  0  0
   47.1185   11.7986   20.1992 H   0  0  0  0  0  0  0  0  0  0  0  0
   49.6064    9.2392   20.4968 H   0  0  0  0  0  0  0  0  0  0  0  0
   46.2033    9.1601   20.6791 H   0  0  0  0  0  0  0  0  0  0  0  0
   48.1340    7.6906   21.4923 H   0  0  0  0  0  0  0  0  0  0  0  0
   49.3465    7.5656   19.3669 H   0  0  0  0  0  0  0  0  0  0  0  0
   46.6311    8.8129   22.8113 H   0  0  0  0  0  0  0  0  0  0  0  0
   47.7156   11.9837   22.3278 H   0  0  0  0  0  0  0  0  0  0  0  0
   46.9948   10.2611   18.4364 H   0  0  0  0  0  0  0  0  0  0  0  0
   47.3089    6.2959   19.7390 H   0  0  0  0  0  0  0  0  0  0  0  0
   46.4163    7.6621   19.0235 H   0  0  0  0  0  0  0  0  0  0  0  0
   47.5837    6.7701   18.0574 H   0  0  0  0  0  0  0  0  0  0  0  0
   50.4421    8.3659   21.2614 H   0  0  0  0  0  0  0  0  0  0  0  0
   49.6077    9.5010   22.3229 H   0  0  0  0  0  0  0  0  0  0  0  0
   49.9893    9.9622   20.6512 H   0  0  0  0  0  0  0  0  0  0  0  0
   48.0277   14.1927   21.2814 H   0  0  0  0  0  0  0  0  0  0  0  0
   47.3055   12.4783   17.4083 H   0  0  0  0  0  0  0  0  0  0  0  0
   47.8291   14.4510   18.8214 H   0  0  0  0  0  0  0  0  0  0  0  0
  2  1  1  0
  3  1  1  0
  4  3  1  0
  1  5  1  0
  6  2  2  0
  7  2  1  0
  8  4  1  0
  3  9  1  0
 10  6  1  0
 11  7  2  0
 12 10  2  0
 12 11  1  0
 14 13  2  0
 15 13  2  0
 16 13  1  0
 17 13  1  0
 19 18  1  0
 20 18  1  0
 21 20  1  0
 18 22  1  0
 23 19  2  0
 24 19  1  0
 25 21  1  0
 20 26  1  0
 27 23  1  0
 28 24  2  0
 29 27  2  0
 29 28  1  0
  1 30  1  6
  3 31  1  6
  4 32  1  0
  5 33  1  0
  6 34  1  0
  7 35  1  0
  8 36  1  0
  8 37  1  0
  8 38  1  0
  9 39  1  0
  9 40  1  0
  9 41  1  0
 10 42  1  0
 11 43  1  0
 12 44  1  0
 16 45  1  0
 17 46  1  0
 18 47  1  1
 20 48  1  6
 21 49  1  0
 22 50  1  0
 23 51  1  0
 24 52  1  0
 25 53  1  0
 25 54  1  0
 25 55  1  0
 26 56  1  0
 26 57  1  0
 26 58  1  0
 27 59  1  0
 28 60  1  0
 29 61  1  0
M  END
> <Uni-Dock RESULT> 
ENERGY=   -4.131  LOWER_BOUND=    7.940  UPPER_BOUND=    9.431
INTER + INTRA:          -4.131
INTER:                  -4.131
INTRA:                   0.000
UNBOUND:                 0.000

$$$$

     RDKit          3D

 61 60  0  0  0  0  0  0  0  0999 V2000
   47.6248    6.6006   19.4649 C   0  0  1  0  0  0  0  0  0  0  0  0
   48.0624    5.3969   18.6452 C   0  0  0  0  0  0  0  0  0  0  0  0
   48.2590    6.7534   20.8934 C   0  0  1  0  0  0  0  0  0  0  0  0
   49.7107    7.0347   21.0131 N   0  0  0  0  0  0  0  0  0  0  0  0
   47.7588    7.7962   18.6910 O   0  0  0  0  0  0  0  0  0  0  0  0
   49.4082    5.0452   18.4740 C   0  0  0  0  0  0  0  0  0  0  0  0
   47.0879    4.6317   17.9798 C   0  0  0  0  0  0  0  0  0  0  0  0
   50.1628    8.2639   20.3791 C   0  0  0  0  0  0  0  0  0  0  0  0
   47.4542    7.7705   21.7192 C   0  0  0  0  0  0  0  0  0  0  0  0
   49.7680    3.9518   17.6824 C   0  0  0  0  0  0  0  0  0  0  0  0
   47.4470    3.5366   17.1915 C   0  0  0  0  0  0  0  0  0  0  0  0
   48.7886    3.1963   17.0442 C   0  0  0  0  0  0  0  0  0  0  0  0
   48.4083    6.2526   19.0312 S   0  0  0  0  0  0  0  0  0  0  0  0
   47.0498    6.6610   18.7712 O   0  0  0  0  0  0  0  0  0  0  0  0
   49.4625    6.3221   18.0518 O   0  0  0  0  0  0  0  0  0  0  0  0
   48.8810    7.0776   20.3255 O   0  0  0  0  0  0  0  0  0  0  0  0
   48.3957    4.7511   19.5913 O   0  0  0  0  0  0  0  0  0  0  0  0
   47.4424    6.0417   18.9333 C   0  0  1  0  0  0  0  0  0  0  0  0
   48.0282    6.9103   20.0345 C   0  0  0  0  0  0  0  0  0  0  0  0
   48.3219    4.8153   18.5037 C   0  0  1  0  0  0  0  0  0  0  0  0
   49.5611    5.1376   17.7635 N   0  0  0  0  0  0  0  0  0  0  0  0
   46.1385    5.5722   19.3159 O   0  0  0  0  0  0  0  0  0  0  0  0
   47.5186    6.8925   21.3439 C   0  0  0  0  0  0  0  0  0  0  0  0
   49.1123    7.7590   19.7565 C   0  0  0  0  0  0  0  0  0  0  0  0
   49.3051    5.6297   16.4169 C   0  0  0  0  0  0  0  0  0  0  0  0
   48.6893    3.9320   19.7075 C   0  0  0  0  0  0  0  0  0  0  0  0
   48.0770    7.6938   22.3429 C   0  0  0  0  0  0  0  0  0  0  0  0
   49.6714    8.5601   20.7550 C   0  0  0  0  0  0  0  0  0  0  0  0
   49.1543    8.5261   22.0478 C   0  0  0  0  0  0  0  0  0  0  0  0
   46.5448    6.4929   19.6327 H   0  0  0  0  0  0  0  0  0  0  0  0
   48.1214    5.7825   21.3902 H   0  0  0  0  0  0  0  0  0  0  0  0
   49.9474    7.0770   22.0044 H   0  0  0  0  0  0  0  0  0  0  0  0
   48.3606    7.5845   17.9538 H   0  0  0  0  0  0  0  0  0  0  0  0
   50.1993    5.6162   18.9528 H   0  0  0  0  0  0  0  0  0  0  0  0
   46.0328    4.8869   18.0704 H   0  0  0  0  0  0  0  0  0  0  0  0
   50.1333    8.1930   19.2899 H   0  0  0  0  0  0  0  0  0  0  0  0
   51.2122    8.4311   20.6456 H   0  0  0  0  0  0  0  0  0  0  0  0
   49.6031    9.1440   20.7061 H   0  0  0  0  0  0  0  0  0  0  0  0
   46.4139    7.4394   21.8237 H   0  0  0  0  0  0  0  0  0  0  0  0
   47.4422    8.7619   21.2549 H   0  0  0  0  0  0  0  0  0  0  0  0
   47.8640    7.8700   22.7315 H   0  0  0  0  0  0  0  0  0  0  0  0
   50.8168    3.6912   17.5671 H   0  0  0  0  0  0  0  0  0  0  0  0
   46.6793    2.9510   16.6938 H   0  0  0  0  0  0  0  0  0  0  0  0
   49.0735    2.3459   16.4313 H   0  0  0  0  0  0  0  0  0  0  0  0
   48.1119    7.6218   20.6059 H   0  0  0  0  0  0  0  0  0  0  0  0
   49.3145    4.4145   19.5595 H   0  0  0  0  0  0  0  0  0  0  0  0
   47.2617    6.6909   18.0682 H   0  0  0  0  0  0  0  0  0  0  0  0
   47.7009    4.1788   17.8572 H   0  0  0  0  0  0  0  0  0  0  0  0
   50.1430    4.3017   17.7033 H   0  0  0  0  0  0  0  0  0  0  0  0
   45.7420    5.1646   18.5272 H   0  0  0  0  0  0  0  0  0  0  0  0
   46.6778    6.2484   21.5954 H   0  0  0  0  0  0  0  0  0  0  0  0
   49.5380    7.7928   18.7557 H   0  0  0  0  0  0  0  0  0  0  0  0
   48.7237    4.9137   15.8289 H   0  0  0  0  0  0  0  0  0  0  0  0
   48.7865    6.5914   16.4264 H   0  0  0  0  0  0  0  0  0  0  0  0
   50.2600    5.7865   15.9042 H   0  0  0  0  0  0  0  0  0  0  0  0
   49.1680    3.0036   19.3749 H   0  0  0  0  0  0  0  0  0  0  0  0
   47.7962    3.6499   20.2760 H   0  0  0  0  0  0  0  0  0  0  0  0
   49.3843    4.4357   20.3889 H   0  0  0  0  0  0  0  0  0  0  0  0
   47.6697    7.6654   23.3505 H   0  0  0  0  0  0  0  0  0  0  0  0
   50.5138    9.2061   20.5221 H   0  0  0  0  0  0  0  0  0  0  0  0
   49.5913    9.1455   22.8259 H   0  0  0  0  0  0  0  0  0  0  0  0
  2  1  1  0
  3  1  1  0
  4  3  1  0
  1  5  1  0
  6  2  2  0
  7  2  1  0
  8  4  1  0
  3  9  1  0
 10  6  1  0
 11  7  2  0
 12 10  2  0
 12 11  1  0
 14 13  2  0
 15 13  2  0
 16 13  1  0
 17 13  1  0
 19 18  1  0
 20 18  1  0
 21 20  1  0
 18 22  1  0
 23 19  2  0
 24 19  1  0
 25 21  1  0
 20 26  1  0
 27 23  1  0
 28 24  2  0
 29 27  2  0
 29 28  1  0
  1 30  1  6
  3 31  1  6
  4 32  1  0
  5 33  1  0
  6 34  1  0
  7 35  1  0
  8 36  1  0
  8 37  1  0
  8 38  1  0
  9 39  1  0
  9 40  1  0
  9 41  1  0
 10 42  1  0
 11 43  1  0
 12 44  1  0
 16 45  1  0
 17 46  1  0
 18 47  1  1
 20 48  1  6
 21 49  1  0
 22 50  1  0
 23 51  1  0
 24 52  1  0
 25 53  1  0
 25 54  1  0
 25 55  1  0
 26 56  1  0
 26 57  1  0
 26 58  1  0
 27 59  1  0
 28 60  1  0
 29 61  1  0
M  END
> <Uni-Dock RESULT> 
ENERGY=   -3.970  LOWER_BOUND=    6.974  UPPER_BOUND=    8.019
INTER + INTRA:          -3.970
INTER:                  -3.970
INTRA:                   0.000
UNBOUND:                 0.000

$$$$
