
     RDKit          3D

 61 60  0  0  0  0  0  0  0  0999 V2000
   45.2738    2.4317    9.8422 C   0  0  1  0  0  0  0  0  0  0  0  0
   45.9722    2.4585    8.4924 C   0  0  0  0  0  0  0  0  0  0  0  0
   44.9337    3.8019   10.5220 C   0  0  1  0  0  0  0  0  0  0  0  0
   43.7509    4.4269    9.8779 N   0  0  0  0  0  0  0  0  0  0  0  0
   44.0628    1.6752    9.6924 O   0  0  0  0  0  0  0  0  0  0  0  0
   46.5087    1.2556    7.9962 C   0  0  0  0  0  0  0  0  0  0  0  0
   46.0957    3.6097    7.7021 C   0  0  0  0  0  0  0  0  0  0  0  0
   43.6259    5.8455   10.1811 C   0  0  0  0  0  0  0  0  0  0  0  0
   44.6562    3.5680   12.0160 C   0  0  0  0  0  0  0  0  0  0  0  0
   47.1600    1.2097    6.7622 C   0  0  0  0  0  0  0  0  0  0  0  0
   46.7479    3.5637    6.4662 C   0  0  0  0  0  0  0  0  0  0  0  0
   47.2819    2.3661    5.9981 C   0  0  0  0  0  0  0  0  0  0  0  0
   45.0678    3.6392    8.9369 S   0  0  0  0  0  0  0  0  0  0  0  0
   43.6289    3.5601    8.9403 O   0  0  0  0  0  0  0  0  0  0  0  0
   45.8140    4.6513    8.2342 O   0  0  0  0  0  0  0  0  0  0  0  0
   45.5256    3.6487   10.4747 O   0  0  0  0  0  0  0  0  0  0  0  0
   45.6497    2.2265    8.4486 O   0  0  0  0  0  0  0  0  0  0  0  0
   44.7970    2.2535    9.3258 C   0  0  1  0  0  0  0  0  0  0  0  0
   45.8500    2.5368    8.2695 C   0  0  0  0  0  0  0  0  0  0  0  0
   44.8093    3.1913   10.5823 C   0  0  1  0  0  0  0  0  0  0  0  0
   44.0325    4.4331   10.3225 N   0  0  0  0  0  0  0  0  0  0  0  0
   43.5113    2.3116    8.6958 O   0  0  0  0  0  0  0  0  0  0  0  0
   46.2421    3.8379    7.9194 C   0  0  0  0  0  0  0  0  0  0  0  0
   46.4332    1.4595    7.5790 C   0  0  0  0  0  0  0  0  0  0  0  0
   44.4363    5.5281   11.1969 C   0  0  0  0  0  0  0  0  0  0  0  0
   44.1942    2.4446   11.7766 C   0  0  0  0  0  0  0  0  0  0  0  0
   47.2088    4.0532    6.9334 C   0  0  0  0  0  0  0  0  0  0  0  0
   47.3998    1.6746    6.5939 C   0  0  0  0  0  0  0  0  0  0  0  0
   47.7908    2.9719    6.2746 C   0  0  0  0  0  0  0  0  0  0  0  0
   45.9217    1.8675   10.5255 H   0  0  0  0  0  0  0  0  0  0  0  0
   45.8090    4.4584   10.4358 H   0  0  0  0  0  0  0  0  0  0  0  0
   42.9118    3.9378   10.1947 H   0  0  0  0  0  0  0  0  0  0  0  0
   43.5783    2.1454    8.9886 H   0  0  0  0  0  0  0  0  0  0  0  0
   46.4094    0.3397    8.5769 H   0  0  0  0  0  0  0  0  0  0  0  0
   45.6797    4.5602    8.0253 H   0  0  0  0  0  0  0  0  0  0  0  0
   43.4358    6.0277   11.2430 H   0  0  0  0  0  0  0  0  0  0  0  0
   44.5205    6.3970    9.8750 H   0  0  0  0  0  0  0  0  0  0  0  0
   42.7813    6.2589    9.6205 H   0  0  0  0  0  0  0  0  0  0  0  0
   45.5156    3.0858   12.4947 H   0  0  0  0  0  0  0  0  0  0  0  0
   43.7829    2.9242   12.1693 H   0  0  0  0  0  0  0  0  0  0  0  0
   44.4816    4.5088   12.5470 H   0  0  0  0  0  0  0  0  0  0  0  0
   47.5664    0.2698    6.3984 H   0  0  0  0  0  0  0  0  0  0  0  0
   46.8329    4.4667    5.8669 H   0  0  0  0  0  0  0  0  0  0  0  0
   47.7859    2.3337    5.0361 H   0  0  0  0  0  0  0  0  0  0  0  0
   44.8364    3.1747   10.9847 H   0  0  0  0  0  0  0  0  0  0  0  0
   46.5732    2.3793    8.1595 H   0  0  0  0  0  0  0  0  0  0  0  0
   44.9334    1.2194    9.6676 H   0  0  0  0  0  0  0  0  0  0  0  0
   45.8528    3.4286   10.8287 H   0  0  0  0  0  0  0  0  0  0  0  0
   43.0404    4.2357   10.4721 H   0  0  0  0  0  0  0  0  0  0  0  0
   43.3844    3.2653    8.5221 H   0  0  0  0  0  0  0  0  0  0  0  0
   45.7956    4.7041    8.4024 H   0  0  0  0  0  0  0  0  0  0  0  0
   46.1285    0.4384    7.8007 H   0  0  0  0  0  0  0  0  0  0  0  0
   43.8568    6.4221   10.9454 H   0  0  0  0  0  0  0  0  0  0  0  0
   45.4940    5.7755   11.0564 H   0  0  0  0  0  0  0  0  0  0  0  0
   44.2575    5.3029   12.2524 H   0  0  0  0  0  0  0  0  0  0  0  0
   44.7568    1.5282   11.9870 H   0  0  0  0  0  0  0  0  0  0  0  0
   43.1537    2.1614   11.5819 H   0  0  0  0  0  0  0  0  0  0  0  0
   44.2169    3.0519   12.6870 H   0  0  0  0  0  0  0  0  0  0  0  0
   47.5019    5.0680    6.6773 H   0  0  0  0  0  0  0  0  0  0  0  0
   47.8408    0.8280    6.0728 H   0  0  0  0  0  0  0  0  0  0  0  0
   48.5404    3.1412    5.5062 H   0  0  0  0  0  0  0  0  0  0  0  0
  2  1  1  0
  3  1  1  0
  4  3  1  0
  1  5  1  0
  6  2  2  0
  7  2  1  0
  8  4  1  0
  3  9  1  0
 10  6  1  0
 11  7  2  0
 12 10  2  0
 12 11  1  0
 14 13  2  0
 15 13  2  0
 16 13  1  0
 17 13  1  0
 19 18  1  0
 20 18  1  0
 21 20  1  0
 18 22  1  0
 23 19  2  0
 24 19  1  0
 25 21  1  0
 20 26  1  0
 27 23  1  0
 28 24  2  0
 29 27  2  0
 29 28  1  0
  1 30  1  6
  3 31  1  1
  4 32  1  0
  5 33  1  0
  6 34  1  0
  7 35  1  0
  8 36  1  0
  8 37  1  0
  8 38  1  0
  9 39  1  0
  9 40  1  0
  9 41  1  0
 10 42  1  0
 11 43  1  0
 12 44  1  0
 16 45  1  0
 17 46  1  0
 18 47  1  6
 20 48  1  1
 21 49  1  0
 22 50  1  0
 23 51  1  0
 24 52  1  0
 25 53  1  0
 25 54  1  0
 25 55  1  0
 26 56  1  0
 26 57  1  0
 26 58  1  0
 27 59  1  0
 28 60  1  0
 29 61  1  0
M  END
> <Uni-Dock RESULT> 
ENERGY=   -8.191  LOWER_BOUND=    0.000  UPPER_BOUND=    0.000
INTER + INTRA:          -8.191
INTER:                  -8.191
INTRA:                   0.000
UNBOUND:                 0.000

$$$$

     RDKit          3D

 61 60  0  0  0  0  0  0  0  0999 V2000
   45.6645    4.1872   12.5600 C   0  0  1  0  0  0  0  0  0  0  0  0
   45.2279    3.9298   11.1269 C   0  0  0  0  0  0  0  0  0  0  0  0
   46.3492    5.5584   12.8854 C   0  0  1  0  0  0  0  0  0  0  0  0
   45.3394    6.6446   12.9561 N   0  0  0  0  0  0  0  0  0  0  0  0
   44.5119    4.0330   13.4020 O   0  0  0  0  0  0  0  0  0  0  0  0
   44.8519    2.6212   10.7701 C   0  0  0  0  0  0  0  0  0  0  0  0
   45.1585    4.9258   10.1431 C   0  0  0  0  0  0  0  0  0  0  0  0
   45.9293    7.9721   12.8579 C   0  0  0  0  0  0  0  0  0  0  0  0
   47.0931    5.4445   14.2262 C   0  0  0  0  0  0  0  0  0  0  0  0
   44.4380    2.3169    9.4721 C   0  0  0  0  0  0  0  0  0  0  0  0
   44.7439    4.6212    8.8430 C   0  0  0  0  0  0  0  0  0  0  0  0
   44.3868    3.3179    8.5071 C   0  0  0  0  0  0  0  0  0  0  0  0
   45.3181    5.3787   11.6765 S   0  0  0  0  0  0  0  0  0  0  0  0
   44.3416    5.9313   12.5807 O   0  0  0  0  0  0  0  0  0  0  0  0
   45.6740    5.9781   10.4159 O   0  0  0  0  0  0  0  0  0  0  0  0
   46.6587    5.1645   12.5318 O   0  0  0  0  0  0  0  0  0  0  0  0
   44.9082    3.8613   11.3569 O   0  0  0  0  0  0  0  0  0  0  0  0
   44.9425    4.2416   12.5195 C   0  0  1  0  0  0  0  0  0  0  0  0
   45.0229    4.0568   11.0147 C   0  0  0  0  0  0  0  0  0  0  0  0
   46.1057    5.0613   13.1778 C   0  0  1  0  0  0  0  0  0  0  0  0
   45.8269    6.5211   13.1111 N   0  0  0  0  0  0  0  0  0  0  0  0
   43.6866    4.8613   12.8229 O   0  0  0  0  0  0  0  0  0  0  0  0
   45.4770    5.0645   10.1502 C   0  0  0  0  0  0  0  0  0  0  0  0
   44.5886    2.8442   10.4503 C   0  0  0  0  0  0  0  0  0  0  0  0
   47.0443    7.3188   13.2034 C   0  0  0  0  0  0  0  0  0  0  0  0
   46.2550    4.6364   14.6473 C   0  0  0  0  0  0  0  0  0  0  0  0
   45.5250    4.8549    8.7693 C   0  0  0  0  0  0  0  0  0  0  0  0
   44.6371    2.6344    9.0702 C   0  0  0  0  0  0  0  0  0  0  0  0
   45.1100    3.6387    8.2302 C   0  0  0  0  0  0  0  0  0  0  0  0
   46.3666    3.3872   12.8282 H   0  0  0  0  0  0  0  0  0  0  0  0
   47.0878    5.7717   12.1022 H   0  0  0  0  0  0  0  0  0  0  0  0
   44.8352    6.5628   13.8409 H   0  0  0  0  0  0  0  0  0  0  0  0
   43.8730    4.6779   13.0452 H   0  0  0  0  0  0  0  0  0  0  0  0
   44.8741    1.8299   11.5181 H   0  0  0  0  0  0  0  0  0  0  0  0
   45.4145    5.9575   10.3691 H   0  0  0  0  0  0  0  0  0  0  0  0
   46.5779    8.2019   13.7084 H   0  0  0  0  0  0  0  0  0  0  0  0
   46.4980    8.0859   11.9296 H   0  0  0  0  0  0  0  0  0  0  0  0
   45.1296    8.7196   12.8431 H   0  0  0  0  0  0  0  0  0  0  0  0
   47.8247    4.6298   14.1907 H   0  0  0  0  0  0  0  0  0  0  0  0
   46.4053    5.2407   15.0544 H   0  0  0  0  0  0  0  0  0  0  0  0
   47.6456    6.3595   14.4612 H   0  0  0  0  0  0  0  0  0  0  0  0
   44.1518    1.2995    9.2189 H   0  0  0  0  0  0  0  0  0  0  0  0
   44.6954    5.4072    8.0937 H   0  0  0  0  0  0  0  0  0  0  0  0
   44.0628    3.0854    7.4964 H   0  0  0  0  0  0  0  0  0  0  0  0
   46.3888    5.0283   13.4636 H   0  0  0  0  0  0  0  0  0  0  0  0
   45.3757    3.6031   10.5356 H   0  0  0  0  0  0  0  0  0  0  0  0
   44.9210    3.2453   12.9798 H   0  0  0  0  0  0  0  0  0  0  0  0
   47.0407    4.8187   12.6556 H   0  0  0  0  0  0  0  0  0  0  0  0
   45.2054    6.7711   13.8838 H   0  0  0  0  0  0  0  0  0  0  0  0
   43.8010    5.7783   12.5037 H   0  0  0  0  0  0  0  0  0  0  0  0
   45.7925    6.0310   10.5368 H   0  0  0  0  0  0  0  0  0  0  0  0
   44.1986    2.0529   11.0877 H   0  0  0  0  0  0  0  0  0  0  0  0
   46.7868    8.3794   13.1201 H   0  0  0  0  0  0  0  0  0  0  0  0
   47.7319    7.0852   12.3834 H   0  0  0  0  0  0  0  0  0  0  0  0
   47.5614    7.1767   14.1568 H   0  0  0  0  0  0  0  0  0  0  0  0
   46.4661    3.5635   14.7168 H   0  0  0  0  0  0  0  0  0  0  0  0
   45.3415    4.8355   15.2189 H   0  0  0  0  0  0  0  0  0  0  0  0
   47.0830    5.1594   15.1363 H   0  0  0  0  0  0  0  0  0  0  0  0
   45.8822    5.6461    8.1153 H   0  0  0  0  0  0  0  0  0  0  0  0
   44.2989    1.6886    8.6533 H   0  0  0  0  0  0  0  0  0  0  0  0
   45.1454    3.4783    7.1560 H   0  0  0  0  0  0  0  0  0  0  0  0
  2  1  1  0
  3  1  1  0
  4  3  1  0
  1  5  1  0
  6  2  2  0
  7  2  1  0
  8  4  1  0
  3  9  1  0
 10  6  1  0
 11  7  2  0
 12 10  2  0
 12 11  1  0
 14 13  2  0
 15 13  2  0
 16 13  1  0
 17 13  1  0
 19 18  1  0
 20 18  1  0
 21 20  1  0
 18 22  1  0
 23 19  2  0
 24 19  1  0
 25 21  1  0
 20 26  1  0
 27 23  1  0
 28 24  2  0
 29 27  2  0
 29 28  1  0
  1 30  1  6
  3 31  1  1
  4 32  1  0
  5 33  1  0
  6 34  1  0
  7 35  1  0
  8 36  1  0
  8 37  1  0
  8 38  1  0
  9 39  1  0
  9 40  1  0
  9 41  1  0
 10 42  1  0
 11 43  1  0
 12 44  1  0
 16 45  1  0
 17 46  1  0
 18 47  1  6
 20 48  1  1
 21 49  1  0
 22 50  1  0
 23 51  1  0
 24 52  1  0
 25 53  1  0
 25 54  1  0
 25 55  1  0
 26 56  1  0
 26 57  1  0
 26 58  1  0
 27 59  1  0
 28 60  1  0
 29 61  1  0
M  END
> <Uni-Dock RESULT> 
ENERGY=   -6.873  LOWER_BOUND=    2.460  UPPER_BOUND=    3.612
INTER + INTRA:          -6.873
INTER:                  -6.873
INTRA:                   0.000
UNBOUND:                 0.000

$$$$

     RDKit          3D

 61 60  0  0  0  0  0  0  0  0999 V2000
   44.6628    5.6271   10.0028 C   0  0  1  0  0  0  0  0  0  0  0  0
   45.2002    4.4347    9.2282 C   0  0  0  0  0  0  0  0  0  0  0  0
   43.6686    5.3510   11.1819 C   0  0  1  0  0  0  0  0  0  0  0  0
   44.3973    4.8534   12.3760 N   0  0  0  0  0  0  0  0  0  0  0  0
   45.7876    6.3630   10.5073 O   0  0  0  0  0  0  0  0  0  0  0  0
   45.8809    4.6771    8.0204 C   0  0  0  0  0  0  0  0  0  0  0  0
   45.0746    3.1063    9.6578 C   0  0  0  0  0  0  0  0  0  0  0  0
   43.5213    4.2127   13.3465 C   0  0  0  0  0  0  0  0  0  0  0  0
   42.9216    6.6500   11.5258 C   0  0  0  0  0  0  0  0  0  0  0  0
   46.4020    3.6276    7.2614 C   0  0  0  0  0  0  0  0  0  0  0  0
   45.5965    2.0552    8.8978 C   0  0  0  0  0  0  0  0  0  0  0  0
   46.2569    2.3151    7.6998 C   0  0  0  0  0  0  0  0  0  0  0  0
   44.7578    4.2804   10.7081 S   0  0  0  0  0  0  0  0  0  0  0  0
   45.5460    4.7671   11.8119 O   0  0  0  0  0  0  0  0  0  0  0  0
   44.3205    2.9143   10.5753 O   0  0  0  0  0  0  0  0  0  0  0  0
   43.4717    5.2352   10.6129 O   0  0  0  0  0  0  0  0  0  0  0  0
   45.5182    4.6472    9.3444 O   0  0  0  0  0  0  0  0  0  0  0  0
   45.3538    5.5144   10.1918 C   0  0  1  0  0  0  0  0  0  0  0  0
   45.3744    4.2629    9.3326 C   0  0  0  0  0  0  0  0  0  0  0  0
   44.0091    5.8169   10.9394 C   0  0  1  0  0  0  0  0  0  0  0  0
   43.9460    5.0822   12.2313 N   0  0  0  0  0  0  0  0  0  0  0  0
   46.4206    5.4157   11.1433 O   0  0  0  0  0  0  0  0  0  0  0  0
   44.7327    3.0734    9.7099 C   0  0  0  0  0  0  0  0  0  0  0  0
   46.0974    4.2731    8.1265 C   0  0  0  0  0  0  0  0  0  0  0  0
   42.5749    4.8942   12.6913 C   0  0  0  0  0  0  0  0  0  0  0  0
   43.9071    7.3273   11.2052 C   0  0  0  0  0  0  0  0  0  0  0  0
   44.7859    1.9411    8.8926 C   0  0  0  0  0  0  0  0  0  0  0  0
   46.1501    3.1416    7.3093 C   0  0  0  0  0  0  0  0  0  0  0  0
   45.4900    1.9768    7.6906 C   0  0  0  0  0  0  0  0  0  0  0  0
   44.1546    6.2758    9.2777 H   0  0  0  0  0  0  0  0  0  0  0  0
   42.9305    4.6110   10.8471 H   0  0  0  0  0  0  0  0  0  0  0  0
   44.8734    5.6417   12.8183 H   0  0  0  0  0  0  0  0  0  0  0  0
   46.2734    5.7095   11.0443 H   0  0  0  0  0  0  0  0  0  0  0  0
   46.0139    5.7000    7.6712 H   0  0  0  0  0  0  0  0  0  0  0  0
   44.5793    2.8630   10.5940 H   0  0  0  0  0  0  0  0  0  0  0  0
   42.8058    4.9140   13.7862 H   0  0  0  0  0  0  0  0  0  0  0  0
   42.9766    3.3759   12.8978 H   0  0  0  0  0  0  0  0  0  0  0  0
   44.1269    3.8062   14.1629 H   0  0  0  0  0  0  0  0  0  0  0  0
   42.3993    7.0370   10.6439 H   0  0  0  0  0  0  0  0  0  0  0  0
   43.6064    7.4295   11.8780 H   0  0  0  0  0  0  0  0  0  0  0  0
   42.1646    6.4886   12.2995 H   0  0  0  0  0  0  0  0  0  0  0  0
   46.9243    3.8381    6.3320 H   0  0  0  0  0  0  0  0  0  0  0  0
   45.4903    1.0314    9.2476 H   0  0  0  0  0  0  0  0  0  0  0  0
   46.6632    1.4959    7.1131 H   0  0  0  0  0  0  0  0  0  0  0  0
   43.7308    6.1068   10.9774 H   0  0  0  0  0  0  0  0  0  0  0  0
   45.1539    4.0653    8.6454 H   0  0  0  0  0  0  0  0  0  0  0  0
   45.5872    6.3700    9.5451 H   0  0  0  0  0  0  0  0  0  0  0  0
   43.1754    5.5283   10.2856 H   0  0  0  0  0  0  0  0  0  0  0  0
   44.4638    5.6132   12.9353 H   0  0  0  0  0  0  0  0  0  0  0  0
   46.1099    4.7281   11.7650 H   0  0  0  0  0  0  0  0  0  0  0  0
   44.1886    3.0068   10.6494 H   0  0  0  0  0  0  0  0  0  0  0  0
   46.6353    5.1679    7.8188 H   0  0  0  0  0  0  0  0  0  0  0  0
   42.5837    4.3253   13.6265 H   0  0  0  0  0  0  0  0  0  0  0  0
   41.9908    4.3184   11.9654 H   0  0  0  0  0  0  0  0  0  0  0  0
   42.0693    5.8446   12.8858 H   0  0  0  0  0  0  0  0  0  0  0  0
   43.9467    7.8860   10.2636 H   0  0  0  0  0  0  0  0  0  0  0  0
   44.7281    7.6810   11.8391 H   0  0  0  0  0  0  0  0  0  0  0  0
   42.9632    7.5879   11.6943 H   0  0  0  0  0  0  0  0  0  0  0  0
   44.2805    1.0292    9.2000 H   0  0  0  0  0  0  0  0  0  0  0  0
   46.7126    3.1703    6.3789 H   0  0  0  0  0  0  0  0  0  0  0  0
   45.5327    1.0946    7.0575 H   0  0  0  0  0  0  0  0  0  0  0  0
  2  1  1  0
  3  1  1  0
  4  3  1  0
  1  5  1  0
  6  2  2  0
  7  2  1  0
  8  4  1  0
  3  9  1  0
 10  6  1  0
 11  7  2  0
 12 10  2  0
 12 11  1  0
 14 13  2  0
 15 13  2  0
 16 13  1  0
 17 13  1  0
 19 18  1  0
 20 18  1  0
 21 20  1  0
 18 22  1  0
 23 19  2  0
 24 19  1  0
 25 21  1  0
 20 26  1  0
 27 23  1  0
 28 24  2  0
 29 27  2  0
 29 28  1  0
  1 30  1  6
  3 31  1  1
  4 32  1  0
  5 33  1  0
  6 34  1  0
  7 35  1  0
  8 36  1  0
  8 37  1  0
  8 38  1  0
  9 39  1  0
  9 40  1  0
  9 41  1  0
 10 42  1  0
 11 43  1  0
 12 44  1  0
 16 45  1  0
 17 46  1  0
 18 47  1  6
 20 48  1  1
 21 49  1  0
 22 50  1  0
 23 51  1  0
 24 52  1  0
 25 53  1  0
 25 54  1  0
 25 55  1  0
 26 56  1  0
 26 57  1  0
 26 58  1  0
 27 59  1  0
 28 60  1  0
 29 61  1  0
M  END
> <Uni-Dock RESULT> 
ENERGY=   -6.783  LOWER_BOUND=    1.496  UPPER_BOUND=    3.106
INTER + INTRA:          -6.783
INTER:                  -6.783
INTRA:                   0.000
UNBOUND:                 0.000

$$$$

     RDKit          3D

 61 60  0  0  0  0  0  0  0  0999 V2000
   45.2277    7.2356   12.4594 C   0  0  1  0  0  0  0  0  0  0  0  0
   44.7075    5.8272   12.2225 C   0  0  0  0  0  0  0  0  0  0  0  0
   46.6383    7.3972   13.1221 C   0  0  1  0  0  0  0  0  0  0  0  0
   47.7145    7.1228   12.1367 N   0  0  0  0  0  0  0  0  0  0  0  0
   45.2273    7.9194   11.1971 O   0  0  0  0  0  0  0  0  0  0  0  0
   43.3539    5.6675   11.8713 C   0  0  0  0  0  0  0  0  0  0  0  0
   45.5038    4.6772   12.3139 C   0  0  0  0  0  0  0  0  0  0  0  0
   49.0034    6.8669   12.7638 C   0  0  0  0  0  0  0  0  0  0  0  0
   46.7779    8.8277   13.6679 C   0  0  0  0  0  0  0  0  0  0  0  0
   42.8127    4.4022   11.6369 C   0  0  0  0  0  0  0  0  0  0  0  0
   44.9618    3.4099   12.0790 C   0  0  0  0  0  0  0  0  0  0  0  0
   43.6175    3.2722   11.7437 C   0  0  0  0  0  0  0  0  0  0  0  0
   46.2335    6.1080   12.2669 S   0  0  0  0  0  0  0  0  0  0  0  0
   46.9399    6.7473   11.1858 O   0  0  0  0  0  0  0  0  0  0  0  0
   46.5905    4.8222   12.8093 O   0  0  0  0  0  0  0  0  0  0  0  0
   46.1871    7.1695   13.4692 O   0  0  0  0  0  0  0  0  0  0  0  0
   44.6815    6.0181   11.8723 O   0  0  0  0  0  0  0  0  0  0  0  0
   45.2706    7.0838   11.7517 C   0  0  1  0  0  0  0  0  0  0  0  0
   44.8107    5.6656   12.0382 C   0  0  0  0  0  0  0  0  0  0  0  0
   46.2030    7.7384   12.8290 C   0  0  1  0  0  0  0  0  0  0  0  0
   47.6239    7.3655   12.5948 N   0  0  0  0  0  0  0  0  0  0  0  0
   45.9305    7.0867   10.4798 O   0  0  0  0  0  0  0  0  0  0  0  0
   45.6427    4.7038   12.6313 C   0  0  0  0  0  0  0  0  0  0  0  0
   43.5127    5.2780   11.6605 C   0  0  0  0  0  0  0  0  0  0  0  0
   48.4300    7.4812   13.8045 C   0  0  0  0  0  0  0  0  0  0  0  0
   46.0582    9.2671   12.7613 C   0  0  0  0  0  0  0  0  0  0  0  0
   45.1812    3.4061   12.8678 C   0  0  0  0  0  0  0  0  0  0  0  0
   43.0512    3.9812   11.8974 C   0  0  0  0  0  0  0  0  0  0  0  0
   43.8845    3.0465   12.5055 C   0  0  0  0  0  0  0  0  0  0  0  0
   44.4942    7.7433   13.0991 H   0  0  0  0  0  0  0  0  0  0  0  0
   46.7060    6.7009   13.9677 H   0  0  0  0  0  0  0  0  0  0  0  0
   47.7959    7.9269   11.5117 H   0  0  0  0  0  0  0  0  0  0  0  0
   45.7923    7.3631   10.6290 H   0  0  0  0  0  0  0  0  0  0  0  0
   42.7149    6.5436   11.7709 H   0  0  0  0  0  0  0  0  0  0  0  0
   46.5606    4.7436   12.5585 H   0  0  0  0  0  0  0  0  0  0  0  0
   49.3895    7.7439   13.2917 H   0  0  0  0  0  0  0  0  0  0  0  0
   48.9457    6.0237   13.4595 H   0  0  0  0  0  0  0  0  0  0  0  0
   49.7319    6.6015   11.9909 H   0  0  0  0  0  0  0  0  0  0  0  0
   45.9738    9.0468   14.3790 H   0  0  0  0  0  0  0  0  0  0  0  0
   46.7281    9.5732   12.8664 H   0  0  0  0  0  0  0  0  0  0  0  0
   47.7228    8.9664   14.2021 H   0  0  0  0  0  0  0  0  0  0  0  0
   41.7649    4.3024   11.3665 H   0  0  0  0  0  0  0  0  0  0  0  0
   45.5953    2.5296   12.1536 H   0  0  0  0  0  0  0  0  0  0  0  0
   43.2004    2.2860   11.5596 H   0  0  0  0  0  0  0  0  0  0  0  0
   46.2246    8.0626   13.0684 H   0  0  0  0  0  0  0  0  0  0  0  0
   44.2776    5.3331   12.4445 H   0  0  0  0  0  0  0  0  0  0  0  0
   44.3768    7.7117   11.6438 H   0  0  0  0  0  0  0  0  0  0  0  0
   45.8718    7.4078   13.8223 H   0  0  0  0  0  0  0  0  0  0  0  0
   48.0101    7.9828   11.8768 H   0  0  0  0  0  0  0  0  0  0  0  0
   46.7730    6.6238   10.6580 H   0  0  0  0  0  0  0  0  0  0  0  0
   46.6654    4.9469   12.9108 H   0  0  0  0  0  0  0  0  0  0  0  0
   42.8515    5.9882   11.1675 H   0  0  0  0  0  0  0  0  0  0  0  0
   49.4558    7.1686   13.5849 H   0  0  0  0  0  0  0  0  0  0  0  0
   48.0515    6.8242   14.5950 H   0  0  0  0  0  0  0  0  0  0  0  0
   48.4692    8.5081   14.1796 H   0  0  0  0  0  0  0  0  0  0  0  0
   45.0177    9.5620   12.9367 H   0  0  0  0  0  0  0  0  0  0  0  0
   46.3560    9.6567   11.7813 H   0  0  0  0  0  0  0  0  0  0  0  0
   46.6662    9.7639   13.5239 H   0  0  0  0  0  0  0  0  0  0  0  0
   45.8391    2.6751   13.3306 H   0  0  0  0  0  0  0  0  0  0  0  0
   42.0431    3.7016   11.6001 H   0  0  0  0  0  0  0  0  0  0  0  0
   43.5280    2.0363   12.6877 H   0  0  0  0  0  0  0  0  0  0  0  0
  2  1  1  0
  3  1  1  0
  4  3  1  0
  1  5  1  0
  6  2  2  0
  7  2  1  0
  8  4  1  0
  3  9  1  0
 10  6  1  0
 11  7  2  0
 12 10  2  0
 12 11  1  0
 14 13  2  0
 15 13  2  0
 16 13  1  0
 17 13  1  0
 19 18  1  0
 20 18  1  0
 21 20  1  0
 18 22  1  0
 23 19  2  0
 24 19  1  0
 25 21  1  0
 20 26  1  0
 27 23  1  0
 28 24  2  0
 29 27  2  0
 29 28  1  0
  1 30  1  6
  3 31  1  1
  4 32  1  0
  5 33  1  0
  6 34  1  0
  7 35  1  0
  8 36  1  0
  8 37  1  0
  8 38  1  0
  9 39  1  0
  9 40  1  0
  9 41  1  0
 10 42  1  0
 11 43  1  0
 12 44  1  0
 16 45  1  0
 17 46  1  0
 18 47  1  6
 20 48  1  1
 21 49  1  0
 22 50  1  0
 23 51  1  0
 24 52  1  0
 25 53  1  0
 25 54  1  0
 25 55  1  0
 26 56  1  0
 26 57  1  0
 26 58  1  0
 27 59  1  0
 28 60  1  0
 29 61  1  0
M  END
> <Uni-Dock RESULT> 
ENERGY=   -5.915  LOWER_BOUND=    4.372  UPPER_BOUND=    5.772
INTER + INTRA:          -5.915
INTER:                  -5.915
INTRA:                   0.000
UNBOUND:                 0.000

$$$$

     RDKit          3D

 61 60  0  0  0  0  0  0  0  0999 V2000
   45.6153    6.8370   12.7503 C   0  0  1  0  0  0  0  0  0  0  0  0
   45.2107    8.1714   12.1451 C   0  0  0  0  0  0  0  0  0  0  0  0
   44.6608    5.6128   12.5373 C   0  0  1  0  0  0  0  0  0  0  0  0
   44.7979    5.0749   11.1602 N   0  0  0  0  0  0  0  0  0  0  0  0
   46.9166    6.5040   12.2432 O   0  0  0  0  0  0  0  0  0  0  0  0
   45.9166    9.3232   12.5402 C   0  0  0  0  0  0  0  0  0  0  0  0
   44.1868    8.3191   11.1994 C   0  0  0  0  0  0  0  0  0  0  0  0
   43.6852    4.2189   10.7743 C   0  0  0  0  0  0  0  0  0  0  0  0
   45.0040    4.5214   13.5643 C   0  0  0  0  0  0  0  0  0  0  0  0
   45.5983   10.5793   12.0210 C   0  0  0  0  0  0  0  0  0  0  0  0
   43.8679    9.5771   10.6792 C   0  0  0  0  0  0  0  0  0  0  0  0
   44.5708   10.7062   11.0914 C   0  0  0  0  0  0  0  0  0  0  0  0
   44.7274    6.8387   11.5127 S   0  0  0  0  0  0  0  0  0  0  0  0
   45.5903    5.9884   10.7324 O   0  0  0  0  0  0  0  0  0  0  0  0
   43.4738    7.3639   11.0355 O   0  0  0  0  0  0  0  0  0  0  0  0
   44.4605    6.0689   12.8949 O   0  0  0  0  0  0  0  0  0  0  0  0
   45.5827    8.0976   12.0188 O   0  0  0  0  0  0  0  0  0  0  0  0
   46.0297    6.9686   12.1699 C   0  0  1  0  0  0  0  0  0  0  0  0
   45.2141    8.2166   11.8830 C   0  0  0  0  0  0  0  0  0  0  0  0
   45.2377    5.7425   12.7426 C   0  0  1  0  0  0  0  0  0  0  0  0
   44.6352    4.9422   11.6428 N   0  0  0  0  0  0  0  0  0  0  0  0
   46.6958    6.5873   10.9599 O   0  0  0  0  0  0  0  0  0  0  0  0
   43.9149    8.1686   11.3549 C   0  0  0  0  0  0  0  0  0  0  0  0
   45.7902    9.4783   12.1145 C   0  0  0  0  0  0  0  0  0  0  0  0
   43.4969    4.1518   12.0969 C   0  0  0  0  0  0  0  0  0  0  0  0
   46.1961    4.8558   13.5537 C   0  0  0  0  0  0  0  0  0  0  0  0
   43.2035    9.3434   11.0965 C   0  0  0  0  0  0  0  0  0  0  0  0
   45.0790   10.6525   11.8568 C   0  0  0  0  0  0  0  0  0  0  0  0
   43.7835   10.5845   11.3520 C   0  0  0  0  0  0  0  0  0  0  0  0
   45.7237    6.9964   13.8309 H   0  0  0  0  0  0  0  0  0  0  0  0
   43.6296    5.9414   12.7197 H   0  0  0  0  0  0  0  0  0  0  0  0
   45.6689    4.5439   11.1038 H   0  0  0  0  0  0  0  0  0  0  0  0
   46.7960    6.4963   11.2753 H   0  0  0  0  0  0  0  0  0  0  0  0
   46.7321    9.2376   13.2569 H   0  0  0  0  0  0  0  0  0  0  0  0
   43.6248    7.4607   10.8411 H   0  0  0  0  0  0  0  0  0  0  0  0
   43.6351    3.3067   11.3763 H   0  0  0  0  0  0  0  0  0  0  0  0
   42.7315    4.7513   10.8462 H   0  0  0  0  0  0  0  0  0  0  0  0
   43.8109    3.9165    9.7296 H   0  0  0  0  0  0  0  0  0  0  0  0
   44.9277    4.9163   14.5834 H   0  0  0  0  0  0  0  0  0  0  0  0
   46.0233    4.1433   13.4275 H   0  0  0  0  0  0  0  0  0  0  0  0
   44.3157    3.6732   13.4985 H   0  0  0  0  0  0  0  0  0  0  0  0
   46.1569   11.4552   12.3400 H   0  0  0  0  0  0  0  0  0  0  0  0
   43.0712    9.6719    9.9457 H   0  0  0  0  0  0  0  0  0  0  0  0
   44.3218   11.6818   10.6832 H   0  0  0  0  0  0  0  0  0  0  0  0
   45.2352    5.4921   13.0591 H   0  0  0  0  0  0  0  0  0  0  0  0
   44.9449    8.7973   12.2705 H   0  0  0  0  0  0  0  0  0  0  0  0
   46.8138    7.2375   12.8894 H   0  0  0  0  0  0  0  0  0  0  0  0
   44.4613    6.1172   13.4227 H   0  0  0  0  0  0  0  0  0  0  0  0
   45.3487    4.3135   11.2669 H   0  0  0  0  0  0  0  0  0  0  0  0
   45.9728    6.2424   10.3995 H   0  0  0  0  0  0  0  0  0  0  0  0
   43.4395    7.2169   11.1285 H   0  0  0  0  0  0  0  0  0  0  0  0
   46.8083    9.5539   12.4919 H   0  0  0  0  0  0  0  0  0  0  0  0
   43.0746    3.6072   11.2465 H   0  0  0  0  0  0  0  0  0  0  0  0
   42.7054    4.7943   12.4976 H   0  0  0  0  0  0  0  0  0  0  0  0
   43.7797    3.4156   12.8550 H   0  0  0  0  0  0  0  0  0  0  0  0
   46.6465    5.4271   14.3729 H   0  0  0  0  0  0  0  0  0  0  0  0
   47.0089    4.4663   12.9305 H   0  0  0  0  0  0  0  0  0  0  0  0
   45.6748    4.0050   14.0037 H   0  0  0  0  0  0  0  0  0  0  0  0
   42.1972    9.2867   10.6898 H   0  0  0  0  0  0  0  0  0  0  0  0
   45.5413   11.6189   12.0448 H   0  0  0  0  0  0  0  0  0  0  0  0
   43.2300   11.4971   11.1480 H   0  0  0  0  0  0  0  0  0  0  0  0
  2  1  1  0
  3  1  1  0
  4  3  1  0
  1  5  1  0
  6  2  2  0
  7  2  1  0
  8  4  1  0
  3  9  1  0
 10  6  1  0
 11  7  2  0
 12 10  2  0
 12 11  1  0
 14 13  2  0
 15 13  2  0
 16 13  1  0
 17 13  1  0
 19 18  1  0
 20 18  1  0
 21 20  1  0
 18 22  1  0
 23 19  2  0
 24 19  1  0
 25 21  1  0
 20 26  1  0
 27 23  1  0
 28 24  2  0
 29 27  2  0
 29 28  1  0
  1 30  1  6
  3 31  1  1
  4 32  1  0
  5 33  1  0
  6 34  1  0
  7 35  1  0
  8 36  1  0
  8 37  1  0
  8 38  1  0
  9 39  1  0
  9 40  1  0
  9 41  1  0
 10 42  1  0
 11 43  1  0
 12 44  1  0
 16 45  1  0
 17 46  1  0
 18 47  1  6
 20 48  1  1
 21 49  1  0
 22 50  1  0
 23 51  1  0
 24 52  1  0
 25 53  1  0
 25 54  1  0
 25 55  1  0
 26 56  1  0
 26 57  1  0
 26 58  1  0
 27 59  1  0
 28 60  1  0
 29 61  1  0
M  END
> <Uni-Dock RESULT> 
ENERGY=   -5.885  LOWER_BOUND=    3.964  UPPER_BOUND=    6.392
INTER + INTRA:          -5.885
INTER:                  -5.885
INTRA:                   0.000
UNBOUND:                 0.000

$$$$

     RDKit          3D

 61 60  0  0  0  0  0  0  0  0999 V2000
   50.6214    4.7222   17.7200 C   0  0  1  0  0  0  0  0  0  0  0  0
   51.4996    3.4912   17.8748 C   0  0  0  0  0  0  0  0  0  0  0  0
   49.2096    4.5410   17.0651 C   0  0  1  0  0  0  0  0  0  0  0  0
   48.2581    3.9348   18.0304 N   0  0  0  0  0  0  0  0  0  0  0  0
   50.4576    5.3081   19.0205 O   0  0  0  0  0  0  0  0  0  0  0  0
   52.8517    3.6768   18.2189 C   0  0  0  0  0  0  0  0  0  0  0  0
   51.0356    2.1783   17.7143 C   0  0  0  0  0  0  0  0  0  0  0  0
   47.0749    3.3823   17.3866 C   0  0  0  0  0  0  0  0  0  0  0  0
   48.6883    5.9120   16.6041 C   0  0  0  0  0  0  0  0  0  0  0  0
   53.7123    2.5893   18.3796 C   0  0  0  0  0  0  0  0  0  0  0  0
   51.8973    1.0890   17.8754 C   0  0  0  0  0  0  0  0  0  0  0  0
   53.2345    1.2942   18.2048 C   0  0  0  0  0  0  0  0  0  0  0  0
   49.9533    3.3589   17.8438 S   0  0  0  0  0  0  0  0  0  0  0  0
   49.1174    3.7247   18.9592 O   0  0  0  0  0  0  0  0  0  0  0  0
   49.9427    2.0577   17.2260 O   0  0  0  0  0  0  0  0  0  0  0  0
   49.7003    4.4617   16.7061 O   0  0  0  0  0  0  0  0  0  0  0  0
   51.4789    3.6618   18.2357 O   0  0  0  0  0  0  0  0  0  0  0  0
   50.6299    4.5241   18.4176 C   0  0  1  0  0  0  0  0  0  0  0  0
   51.4455    3.2977   18.0491 C   0  0  0  0  0  0  0  0  0  0  0  0
   49.5428    4.9682   17.3787 C   0  0  1  0  0  0  0  0  0  0  0  0
   48.2749    4.2187   17.5876 N   0  0  0  0  0  0  0  0  0  0  0  0
   50.0102    4.2788   19.6861 O   0  0  0  0  0  0  0  0  0  0  0  0
   50.8903    2.1851   17.3988 C   0  0  0  0  0  0  0  0  0  0  0  0
   52.8048    3.2477   18.4061 C   0  0  0  0  0  0  0  0  0  0  0  0
   47.4506    4.1854   16.3850 C   0  0  0  0  0  0  0  0  0  0  0  0
   49.2779    6.4740   17.5365 C   0  0  0  0  0  0  0  0  0  0  0  0
   51.6761    1.0723   17.0873 C   0  0  0  0  0  0  0  0  0  0  0  0
   53.5904    2.1357   18.0943 C   0  0  0  0  0  0  0  0  0  0  0  0
   53.0266    1.0498   17.4305 C   0  0  0  0  0  0  0  0  0  0  0  0
   51.1853    5.4421   17.1129 H   0  0  0  0  0  0  0  0  0  0  0  0
   49.3175    3.9014   16.1799 H   0  0  0  0  0  0  0  0  0  0  0  0
   47.9750    4.6513   18.7014 H   0  0  0  0  0  0  0  0  0  0  0  0
   50.0682    4.5902   19.5537 H   0  0  0  0  0  0  0  0  0  0  0  0
   53.2368    4.6839   18.3720 H   0  0  0  0  0  0  0  0  0  0  0  0
   49.9958    1.9756   17.4718 H   0  0  0  0  0  0  0  0  0  0  0  0
   46.4629    4.1540   16.9104 H   0  0  0  0  0  0  0  0  0  0  0  0
   47.3446    2.6259   16.6427 H   0  0  0  0  0  0  0  0  0  0  0  0
   46.4534    2.8892   18.1411 H   0  0  0  0  0  0  0  0  0  0  0  0
   49.3957    6.3771   15.9087 H   0  0  0  0  0  0  0  0  0  0  0  0
   48.5495    6.5968   17.4482 H   0  0  0  0  0  0  0  0  0  0  0  0
   47.7332    5.8252   16.0770 H   0  0  0  0  0  0  0  0  0  0  0  0
   54.7526    2.7560   18.6459 H   0  0  0  0  0  0  0  0  0  0  0  0
   51.5190    0.0779   17.7479 H   0  0  0  0  0  0  0  0  0  0  0  0
   53.9006    0.4453   18.3315 H   0  0  0  0  0  0  0  0  0  0  0  0
   49.4327    5.2883   17.1587 H   0  0  0  0  0  0  0  0  0  0  0  0
   52.0421    3.1425   17.6251 H   0  0  0  0  0  0  0  0  0  0  0  0
   51.3267    5.3595   18.5641 H   0  0  0  0  0  0  0  0  0  0  0  0
   49.9363    4.7949   16.3683 H   0  0  0  0  0  0  0  0  0  0  0  0
   47.7487    4.6692   18.3398 H   0  0  0  0  0  0  0  0  0  0  0  0
   49.3183    3.6200   19.4791 H   0  0  0  0  0  0  0  0  0  0  0  0
   49.8361    2.1636   17.1319 H   0  0  0  0  0  0  0  0  0  0  0  0
   53.2606    4.0785   18.9414 H   0  0  0  0  0  0  0  0  0  0  0  0
   46.5475    3.5996   16.5837 H   0  0  0  0  0  0  0  0  0  0  0  0
   47.9790    3.6987   15.5581 H   0  0  0  0  0  0  0  0  0  0  0  0
   47.1354    5.1847   16.0709 H   0  0  0  0  0  0  0  0  0  0  0  0
   50.2006    7.0441   17.3809 H   0  0  0  0  0  0  0  0  0  0  0  0
   48.9009    6.7139   18.5371 H   0  0  0  0  0  0  0  0  0  0  0  0
   48.5497    6.8344   16.8031 H   0  0  0  0  0  0  0  0  0  0  0  0
   51.2294    0.2206   16.5809 H   0  0  0  0  0  0  0  0  0  0  0  0
   54.6405    2.1172   18.3767 H   0  0  0  0  0  0  0  0  0  0  0  0
   53.6356    0.1826   17.1900 H   0  0  0  0  0  0  0  0  0  0  0  0
  2  1  1  0
  3  1  1  0
  4  3  1  0
  1  5  1  0
  6  2  2  0
  7  2  1  0
  8  4  1  0
  3  9  1  0
 10  6  1  0
 11  7  2  0
 12 10  2  0
 12 11  1  0
 14 13  2  0
 15 13  2  0
 16 13  1  0
 17 13  1  0
 19 18  1  0
 20 18  1  0
 21 20  1  0
 18 22  1  0
 23 19  2  0
 24 19  1  0
 25 21  1  0
 20 26  1  0
 27 23  1  0
 28 24  2  0
 29 27  2  0
 29 28  1  0
  1 30  1  6
  3 31  1  1
  4 32  1  0
  5 33  1  0
  6 34  1  0
  7 35  1  0
  8 36  1  0
  8 37  1  0
  8 38  1  0
  9 39  1  0
  9 40  1  0
  9 41  1  0
 10 42  1  0
 11 43  1  0
 12 44  1  0
 16 45  1  0
 17 46  1  0
 18 47  1  6
 20 48  1  1
 21 49  1  0
 22 50  1  0
 23 51  1  0
 24 52  1  0
 25 53  1  0
 25 54  1  0
 25 55  1  0
 26 56  1  0
 26 57  1  0
 26 58  1  0
 27 59  1  0
 28 60  1  0
 29 61  1  0
M  END
> <Uni-Dock RESULT> 
ENERGY=   -5.733  LOWER_BOUND=    8.977  UPPER_BOUND=   10.758
INTER + INTRA:          -5.733
INTER:                  -5.733
INTRA:                   0.000
UNBOUND:                 0.000

$$$$

     RDKit          3D

 61 60  0  0  0  0  0  0  0  0999 V2000
   44.0871    5.8996   11.2054 C   0  0  1  0  0  0  0  0  0  0  0  0
   44.3430    7.3690   11.4985 C   0  0  0  0  0  0  0  0  0  0  0  0
   45.0779    4.8458   11.8079 C   0  0  1  0  0  0  0  0  0  0  0  0
   44.8124    4.6443   13.2547 N   0  0  0  0  0  0  0  0  0  0  0  0
   42.7566    5.5912   11.6481 O   0  0  0  0  0  0  0  0  0  0  0  0
   43.6240    8.3298   10.7630 C   0  0  0  0  0  0  0  0  0  0  0  0
   45.2403    7.8236   12.4746 C   0  0  0  0  0  0  0  0  0  0  0  0
   45.9192    4.0012   13.9484 C   0  0  0  0  0  0  0  0  0  0  0  0
   44.9181    3.5153   11.0541 C   0  0  0  0  0  0  0  0  0  0  0  0
   43.8087    9.6958   10.9841 C   0  0  0  0  0  0  0  0  0  0  0  0
   45.4253    9.1917   12.6962 C   0  0  0  0  0  0  0  0  0  0  0  0
   44.7126   10.1266   11.9501 C   0  0  0  0  0  0  0  0  0  0  0  0
   44.8239    6.2717   12.4855 S   0  0  0  0  0  0  0  0  0  0  0  0
   43.9255    5.5647   13.3628 O   0  0  0  0  0  0  0  0  0  0  0  0
   45.9821    6.9982   12.9393 O   0  0  0  0  0  0  0  0  0  0  0  0
   45.2923    5.2178   11.3701 O   0  0  0  0  0  0  0  0  0  0  0  0
   43.9636    7.2971   11.6018 O   0  0  0  0  0  0  0  0  0  0  0  0
   43.6015    6.1317   11.6913 C   0  0  1  0  0  0  0  0  0  0  0  0
   44.3067    7.4753   11.7396 C   0  0  0  0  0  0  0  0  0  0  0  0
   44.5223    4.8741   11.5209 C   0  0  1  0  0  0  0  0  0  0  0  0
   45.0372    4.4138   12.8385 N   0  0  0  0  0  0  0  0  0  0  0  0
   42.8220    5.9978   12.8862 O   0  0  0  0  0  0  0  0  0  0  0  0
   45.5364    7.6634   12.3888 C   0  0  0  0  0  0  0  0  0  0  0  0
   43.6912    8.5924   11.1474 C   0  0  0  0  0  0  0  0  0  0  0  0
   46.2632    3.6348   12.7087 C   0  0  0  0  0  0  0  0  0  0  0  0
   43.7160    3.7424   10.8639 C   0  0  0  0  0  0  0  0  0  0  0  0
   46.1458    8.9207   12.4174 C   0  0  0  0  0  0  0  0  0  0  0  0
   44.3005    9.8490   11.1755 C   0  0  0  0  0  0  0  0  0  0  0  0
   45.5304   10.0118   11.8068 C   0  0  0  0  0  0  0  0  0  0  0  0
   44.0961    5.7857   10.1136 H   0  0  0  0  0  0  0  0  0  0  0  0
   46.1031    5.2054   11.6525 H   0  0  0  0  0  0  0  0  0  0  0  0
   43.9720    4.0720   13.3545 H   0  0  0  0  0  0  0  0  0  0  0  0
   42.7643    5.8258   12.5948 H   0  0  0  0  0  0  0  0  0  0  0  0
   42.9033    8.0075   10.0128 H   0  0  0  0  0  0  0  0  0  0  0  0
   45.8044    7.1259   13.0878 H   0  0  0  0  0  0  0  0  0  0  0  0
   46.0901    2.9787   13.5987 H   0  0  0  0  0  0  0  0  0  0  0  0
   46.8433    4.5780   13.8415 H   0  0  0  0  0  0  0  0  0  0  0  0
   45.6903    3.9488   15.0177 H   0  0  0  0  0  0  0  0  0  0  0  0
   45.0899    3.6593    9.9817 H   0  0  0  0  0  0  0  0  0  0  0  0
   43.9128    3.0978   11.1789 H   0  0  0  0  0  0  0  0  0  0  0  0
   45.6409    2.7678   11.3954 H   0  0  0  0  0  0  0  0  0  0  0  0
   43.2424   10.4201   10.4047 H   0  0  0  0  0  0  0  0  0  0  0  0
   46.1249    9.5254   13.4584 H   0  0  0  0  0  0  0  0  0  0  0  0
   44.8572   11.1889   12.1267 H   0  0  0  0  0  0  0  0  0  0  0  0
   44.5757    4.5562   11.2780 H   0  0  0  0  0  0  0  0  0  0  0  0
   44.5859    7.9664   11.2490 H   0  0  0  0  0  0  0  0  0  0  0  0
   42.8923    6.1542   10.8539 H   0  0  0  0  0  0  0  0  0  0  0  0
   45.3501    5.1379   10.8493 H   0  0  0  0  0  0  0  0  0  0  0  0
   44.3215    3.8365   13.2859 H   0  0  0  0  0  0  0  0  0  0  0  0
   43.4934    5.8585   13.5830 H   0  0  0  0  0  0  0  0  0  0  0  0
   46.0352    6.8365   12.8894 H   0  0  0  0  0  0  0  0  0  0  0  0
   42.7212    8.4905   10.6645 H   0  0  0  0  0  0  0  0  0  0  0  0
   46.6140    3.3469   13.7049 H   0  0  0  0  0  0  0  0  0  0  0  0
   47.0584    4.2258   12.2417 H   0  0  0  0  0  0  0  0  0  0  0  0
   46.1121    2.7174   12.1322 H   0  0  0  0  0  0  0  0  0  0  0  0
   43.3322    4.0612    9.8885 H   0  0  0  0  0  0  0  0  0  0  0  0
   42.8595    3.4476   11.4806 H   0  0  0  0  0  0  0  0  0  0  0  0
   44.3330    2.8548   10.6921 H   0  0  0  0  0  0  0  0  0  0  0  0
   47.0997    9.0469   12.9228 H   0  0  0  0  0  0  0  0  0  0  0  0
   43.8095   10.7003   10.7096 H   0  0  0  0  0  0  0  0  0  0  0  0
   46.0042   10.9894   11.8322 H   0  0  0  0  0  0  0  0  0  0  0  0
  2  1  1  0
  3  1  1  0
  4  3  1  0
  1  5  1  0
  6  2  2  0
  7  2  1  0
  8  4  1  0
  3  9  1  0
 10  6  1  0
 11  7  2  0
 12 10  2  0
 12 11  1  0
 14 13  2  0
 15 13  2  0
 16 13  1  0
 17 13  1  0
 19 18  1  0
 20 18  1  0
 21 20  1  0
 18 22  1  0
 23 19  2  0
 24 19  1  0
 25 21  1  0
 20 26  1  0
 27 23  1  0
 28 24  2  0
 29 27  2  0
 29 28  1  0
  1 30  1  6
  3 31  1  1
  4 32  1  0
  5 33  1  0
  6 34  1  0
  7 35  1  0
  8 36  1  0
  8 37  1  0
  8 38  1  0
  9 39  1  0
  9 40  1  0
  9 41  1  0
 10 42  1  0
 11 43  1  0
 12 44  1  0
 16 45  1  0
 17 46  1  0
 18 47  1  6
 20 48  1  1
 21 49  1  0
 22 50  1  0
 23 51  1  0
 24 52  1  0
 25 53  1  0
 25 54  1  0
 25 55  1  0
 26 56  1  0
 26 57  1  0
 26 58  1  0
 27 59  1  0
 28 60  1  0
 29 61  1  0
M  END
> <Uni-Dock RESULT> 
ENERGY=   -5.715  LOWER_BOUND=    3.600  UPPER_BOUND=    6.063
INTER + INTRA:          -5.715
INTER:                  -5.715
INTRA:                   0.000
UNBOUND:                 0.000

$$$$

     RDKit          3D

 61 60  0  0  0  0  0  0  0  0999 V2000
   48.3339    6.8936   12.8535 C   0  0  1  0  0  0  0  0  0  0  0  0
   46.9573    6.2510   12.9049 C   0  0  0  0  0  0  0  0  0  0  0  0
   48.4592    8.3131   12.2021 C   0  0  1  0  0  0  0  0  0  0  0  0
   47.9612    9.3607   13.1290 N   0  0  0  0  0  0  0  0  0  0  0  0
   48.8383    6.9534   14.1963 O   0  0  0  0  0  0  0  0  0  0  0  0
   46.8708    4.8885   13.2473 C   0  0  0  0  0  0  0  0  0  0  0  0
   45.7649    6.9426   12.6504 C   0  0  0  0  0  0  0  0  0  0  0  0
   47.6804   10.6220   12.4581 C   0  0  0  0  0  0  0  0  0  0  0  0
   49.9326    8.5786   11.8521 C   0  0  0  0  0  0  0  0  0  0  0  0
   45.6377    4.2375   13.3157 C   0  0  0  0  0  0  0  0  0  0  0  0
   44.5299    6.2907   12.7190 C   0  0  0  0  0  0  0  0  0  0  0  0
   44.4664    4.9394   13.0484 C   0  0  0  0  0  0  0  0  0  0  0  0
   47.1069    7.7958   12.8808 S   0  0  0  0  0  0  0  0  0  0  0  0
   47.5300    8.5557   14.0297 O   0  0  0  0  0  0  0  0  0  0  0  0
   45.8798    8.0380   12.1662 O   0  0  0  0  0  0  0  0  0  0  0  0
   48.3209    7.8436   11.8328 O   0  0  0  0  0  0  0  0  0  0  0  0
   47.1007    6.2418   13.2779 O   0  0  0  0  0  0  0  0  0  0  0  0
   48.0847    6.9228   13.5339 C   0  0  1  0  0  0  0  0  0  0  0  0
   46.7639    6.3394   13.0646 C   0  0  0  0  0  0  0  0  0  0  0  0
   48.7946    7.9096   12.5435 C   0  0  1  0  0  0  0  0  0  0  0  0
   48.2705    9.2920   12.7088 N   0  0  0  0  0  0  0  0  0  0  0  0
   47.8580    7.5801   14.7868 O   0  0  0  0  0  0  0  0  0  0  0  0
   45.8219    7.0834   12.3379 C   0  0  0  0  0  0  0  0  0  0  0  0
   46.4440    5.0122   13.4019 C   0  0  0  0  0  0  0  0  0  0  0  0
   48.4775   10.1054   11.5162 C   0  0  0  0  0  0  0  0  0  0  0  0
   50.3068    7.9004   12.8179 C   0  0  0  0  0  0  0  0  0  0  0  0
   44.6134    6.5091   11.9344 C   0  0  0  0  0  0  0  0  0  0  0  0
   45.2365    4.4380   12.9982 C   0  0  0  0  0  0  0  0  0  0  0  0
   44.3232    5.1856   12.2601 C   0  0  0  0  0  0  0  0  0  0  0  0
   48.9855    6.2079   12.2966 H   0  0  0  0  0  0  0  0  0  0  0  0
   47.8803    8.3192   11.2698 H   0  0  0  0  0  0  0  0  0  0  0  0
   48.6633    9.5126   13.8554 H   0  0  0  0  0  0  0  0  0  0  0  0
   48.1631    7.4668   14.6777 H   0  0  0  0  0  0  0  0  0  0  0  0
   47.7779    4.3294   13.4722 H   0  0  0  0  0  0  0  0  0  0  0  0
   45.7710    8.0011   12.4045 H   0  0  0  0  0  0  0  0  0  0  0  0
   48.5835   11.0842   12.0484 H   0  0  0  0  0  0  0  0  0  0  0  0
   46.9472   10.4902   11.6560 H   0  0  0  0  0  0  0  0  0  0  0  0
   47.2504   11.3240   13.1797 H   0  0  0  0  0  0  0  0  0  0  0  0
   50.3153    7.7972   11.1864 H   0  0  0  0  0  0  0  0  0  0  0  0
   50.5645    8.5947   12.7471 H   0  0  0  0  0  0  0  0  0  0  0  0
   50.0589    9.5322   11.3303 H   0  0  0  0  0  0  0  0  0  0  0  0
   45.5945    3.1849   13.5825 H   0  0  0  0  0  0  0  0  0  0  0  0
   43.6157    6.8440   12.5193 H   0  0  0  0  0  0  0  0  0  0  0  0
   43.5047    4.4368   13.1031 H   0  0  0  0  0  0  0  0  0  0  0  0
   49.1450    7.9598   12.3497 H   0  0  0  0  0  0  0  0  0  0  0  0
   46.5372    5.7791   12.6236 H   0  0  0  0  0  0  0  0  0  0  0  0
   48.7681    6.0879   13.7357 H   0  0  0  0  0  0  0  0  0  0  0  0
   48.6314    7.5506   11.5187 H   0  0  0  0  0  0  0  0  0  0  0  0
   48.7490    9.7310   13.4987 H   0  0  0  0  0  0  0  0  0  0  0  0
   47.3515    8.3784   14.5380 H   0  0  0  0  0  0  0  0  0  0  0  0
   46.0100    8.1236   12.0816 H   0  0  0  0  0  0  0  0  0  0  0  0
   47.1363    4.4162   13.9937 H   0  0  0  0  0  0  0  0  0  0  0  0
   48.0495   11.0995   11.6797 H   0  0  0  0  0  0  0  0  0  0  0  0
   47.9689    9.6705   10.6491 H   0  0  0  0  0  0  0  0  0  0  0  0
   49.5382   10.2352   11.2822 H   0  0  0  0  0  0  0  0  0  0  0  0
   50.7127    6.8900   12.6960 H   0  0  0  0  0  0  0  0  0  0  0  0
   50.5331    8.2311   13.8379 H   0  0  0  0  0  0  0  0  0  0  0  0
   50.8470    8.5500   12.1220 H   0  0  0  0  0  0  0  0  0  0  0  0
   43.8969    7.0999   11.3697 H   0  0  0  0  0  0  0  0  0  0  0  0
   45.0087    3.4091   13.2669 H   0  0  0  0  0  0  0  0  0  0  0  0
   43.3819    4.7413   11.9480 H   0  0  0  0  0  0  0  0  0  0  0  0
  2  1  1  0
  3  1  1  0
  4  3  1  0
  1  5  1  0
  6  2  2  0
  7  2  1  0
  8  4  1  0
  3  9  1  0
 10  6  1  0
 11  7  2  0
 12 10  2  0
 12 11  1  0
 14 13  2  0
 15 13  2  0
 16 13  1  0
 17 13  1  0
 19 18  1  0
 20 18  1  0
 21 20  1  0
 18 22  1  0
 23 19  2  0
 24 19  1  0
 25 21  1  0
 20 26  1  0
 27 23  1  0
 28 24  2  0
 29 27  2  0
 29 28  1  0
  1 30  1  6
  3 31  1  1
  4 32  1  0
  5 33  1  0
  6 34  1  0
  7 35  1  0
  8 36  1  0
  8 37  1  0
  8 38  1  0
  9 39  1  0
  9 40  1  0
  9 41  1  0
 10 42  1  0
 11 43  1  0
 12 44  1  0
 16 45  1  0
 17 46  1  0
 18 47  1  6
 20 48  1  1
 21 49  1  0
 22 50  1  0
 23 51  1  0
 24 52  1  0
 25 53  1  0
 25 54  1  0
 25 55  1  0
 26 56  1  0
 26 57  1  0
 26 58  1  0
 27 59  1  0
 28 60  1  0
 29 61  1  0
M  END
> <Uni-Dock RESULT> 
ENERGY=   -5.515  LOWER_BOUND=    5.507  UPPER_BOUND=    6.856
INTER + INTRA:          -5.515
INTER:                  -5.515
INTRA:                   0.000
UNBOUND:                 0.000

$$$$

     RDKit          3D

 61 60  0  0  0  0  0  0  0  0999 V2000
   47.7497    4.6170   19.2622 C   0  0  1  0  0  0  0  0  0  0  0  0
   47.8279    5.7134   20.3122 C   0  0  0  0  0  0  0  0  0  0  0  0
   47.7696    5.0401   17.7537 C   0  0  1  0  0  0  0  0  0  0  0  0
   49.1454    5.4030   17.3295 N   0  0  0  0  0  0  0  0  0  0  0  0
   48.8318    3.7045   19.5022 O   0  0  0  0  0  0  0  0  0  0  0  0
   47.5545    5.3744   21.6506 C   0  0  0  0  0  0  0  0  0  0  0  0
   48.1767    7.0408   20.0275 C   0  0  0  0  0  0  0  0  0  0  0  0
   49.1717    6.1686   16.0913 C   0  0  0  0  0  0  0  0  0  0  0  0
   47.2454    3.8761   16.8969 C   0  0  0  0  0  0  0  0  0  0  0  0
   47.6114    6.3323   22.6646 C   0  0  0  0  0  0  0  0  0  0  0  0
   48.2338    8.0002   21.0430 C   0  0  0  0  0  0  0  0  0  0  0  0
   47.9488    7.6471   22.3594 C   0  0  0  0  0  0  0  0  0  0  0  0
   48.4436    5.9245   18.9029 S   0  0  0  0  0  0  0  0  0  0  0  0
   49.6791    5.3072   18.4919 O   0  0  0  0  0  0  0  0  0  0  0  0
   48.2041    7.3444   18.8636 O   0  0  0  0  0  0  0  0  0  0  0  0
   47.2751    5.1912   18.0834 O   0  0  0  0  0  0  0  0  0  0  0  0
   48.1165    5.4512   20.4002 O   0  0  0  0  0  0  0  0  0  0  0  0
   48.4120    4.6148   19.5574 C   0  0  1  0  0  0  0  0  0  0  0  0
   48.0494    5.8538   20.3563 C   0  0  0  0  0  0  0  0  0  0  0  0
   47.8160    4.5274   18.1098 C   0  0  1  0  0  0  0  0  0  0  0  0
   48.6790    5.2515   17.1384 N   0  0  0  0  0  0  0  0  0  0  0  0
   49.8411    4.5314   19.4941 O   0  0  0  0  0  0  0  0  0  0  0  0
   47.9525    7.1281   19.7769 C   0  0  0  0  0  0  0  0  0  0  0  0
   47.8399    5.7371   21.7419 C   0  0  0  0  0  0  0  0  0  0  0  0
   47.9455    5.6548   15.9442 C   0  0  0  0  0  0  0  0  0  0  0  0
   47.7080    3.0511   17.6957 C   0  0  0  0  0  0  0  0  0  0  0  0
   47.6256    8.2439   20.5522 C   0  0  0  0  0  0  0  0  0  0  0  0
   47.5126    6.8522   22.5168 C   0  0  0  0  0  0  0  0  0  0  0  0
   47.4009    8.1051   21.9205 C   0  0  0  0  0  0  0  0  0  0  0  0
   46.8186    4.0653   19.4458 H   0  0  0  0  0  0  0  0  0  0  0  0
   47.0907    5.8926   17.6237 H   0  0  0  0  0  0  0  0  0  0  0  0
   49.6853    4.5443   17.2081 H   0  0  0  0  0  0  0  0  0  0  0  0
   49.6277    4.2661   19.4511 H   0  0  0  0  0  0  0  0  0  0  0  0
   47.3020    4.3465   21.9068 H   0  0  0  0  0  0  0  0  0  0  0  0
   48.4206    7.3529   19.0155 H   0  0  0  0  0  0  0  0  0  0  0  0
   48.8103    5.5885   15.2370 H   0  0  0  0  0  0  0  0  0  0  0  0
   48.5816    7.0863   16.1796 H   0  0  0  0  0  0  0  0  0  0  0  0
   50.2032    6.4647   15.8747 H   0  0  0  0  0  0  0  0  0  0  0  0
   46.2389    3.5864   17.2184 H   0  0  0  0  0  0  0  0  0  0  0  0
   47.8893    2.9931   16.9765 H   0  0  0  0  0  0  0  0  0  0  0  0
   47.1758    4.1512   15.8400 H   0  0  0  0  0  0  0  0  0  0  0  0
   47.3968    6.0481   23.6914 H   0  0  0  0  0  0  0  0  0  0  0  0
   48.5073    9.0246   20.8031 H   0  0  0  0  0  0  0  0  0  0  0  0
   47.9965    8.3949   23.1462 H   0  0  0  0  0  0  0  0  0  0  0  0
   47.5892    4.2860   17.8790 H   0  0  0  0  0  0  0  0  0  0  0  0
   47.4731    6.0904   20.7707 H   0  0  0  0  0  0  0  0  0  0  0  0
   48.0705    3.7383   20.1230 H   0  0  0  0  0  0  0  0  0  0  0  0
   46.8037    4.9527   18.1245 H   0  0  0  0  0  0  0  0  0  0  0  0
   49.4497    4.6377   16.8645 H   0  0  0  0  0  0  0  0  0  0  0  0
   50.0857    5.2548   18.8837 H   0  0  0  0  0  0  0  0  0  0  0  0
   48.1380    7.2738   18.7150 H   0  0  0  0  0  0  0  0  0  0  0  0
   47.9400    4.7698   22.2307 H   0  0  0  0  0  0  0  0  0  0  0  0
   48.6167    6.2067   15.2786 H   0  0  0  0  0  0  0  0  0  0  0  0
   47.1161    6.3237   16.1980 H   0  0  0  0  0  0  0  0  0  0  0  0
   47.5572    4.7971   15.3872 H   0  0  0  0  0  0  0  0  0  0  0  0
   47.0710    2.5015   18.3975 H   0  0  0  0  0  0  0  0  0  0  0  0
   48.6895    2.5639   17.6823 H   0  0  0  0  0  0  0  0  0  0  0  0
   47.2607    2.9425   16.7026 H   0  0  0  0  0  0  0  0  0  0  0  0
   47.5524    9.2229   20.0856 H   0  0  0  0  0  0  0  0  0  0  0  0
   47.3520    6.7409   23.5866 H   0  0  0  0  0  0  0  0  0  0  0  0
   47.1495    8.9742   22.5224 H   0  0  0  0  0  0  0  0  0  0  0  0
  2  1  1  0
  3  1  1  0
  4  3  1  0
  1  5  1  0
  6  2  2  0
  7  2  1  0
  8  4  1  0
  3  9  1  0
 10  6  1  0
 11  7  2  0
 12 10  2  0
 12 11  1  0
 14 13  2  0
 15 13  2  0
 16 13  1  0
 17 13  1  0
 19 18  1  0
 20 18  1  0
 21 20  1  0
 18 22  1  0
 23 19  2  0
 24 19  1  0
 25 21  1  0
 20 26  1  0
 27 23  1  0
 28 24  2  0
 29 27  2  0
 29 28  1  0
  1 30  1  6
  3 31  1  1
  4 32  1  0
  5 33  1  0
  6 34  1  0
  7 35  1  0
  8 36  1  0
  8 37  1  0
  8 38  1  0
  9 39  1  0
  9 40  1  0
  9 41  1  0
 10 42  1  0
 11 43  1  0
 12 44  1  0
 16 45  1  0
 17 46  1  0
 18 47  1  6
 20 48  1  1
 21 49  1  0
 22 50  1  0
 23 51  1  0
 24 52  1  0
 25 53  1  0
 25 54  1  0
 25 55  1  0
 26 56  1  0
 26 57  1  0
 26 58  1  0
 27 59  1  0
 28 60  1  0
 29 61  1  0
M  END
> <Uni-Dock RESULT> 
ENERGY=   -5.316  LOWER_BOUND=    9.228  UPPER_BOUND=   12.026
INTER + INTRA:          -5.316
INTER:                  -5.316
INTRA:                   0.000
UNBOUND:                 0.000

$$$$
