
     RDKit          3D

 61 60  0  0  0  0  0  0  0  0999 V2000
   45.9301    5.5678   11.8576 C   0  0  1  0  0  0  0  0  0  0  0  0
   46.5960    6.8940   12.1886 C   0  0  0  0  0  0  0  0  0  0  0  0
   44.6991    5.1677   12.7464 C   0  0  1  0  0  0  0  0  0  0  0  0
   43.4611    5.9807   12.6597 N   0  0  0  0  0  0  0  0  0  0  0  0
   45.6317    5.4928   10.4603 O   0  0  0  0  0  0  0  0  0  0  0  0
   47.9836    6.9363   12.4097 C   0  0  0  0  0  0  0  0  0  0  0  0
   45.8814    8.0990   12.2347 C   0  0  0  0  0  0  0  0  0  0  0  0
   42.8304    6.0108   11.3471 C   0  0  0  0  0  0  0  0  0  0  0  0
   44.3762    3.6755   12.5609 C   0  0  0  0  0  0  0  0  0  0  0  0
   48.6299    8.1426   12.6882 C   0  0  0  0  0  0  0  0  0  0  0  0
   46.5277    9.3055   12.5141 C   0  0  0  0  0  0  0  0  0  0  0  0
   47.9010    9.3273   12.7424 C   0  0  0  0  0  0  0  0  0  0  0  0
   45.7284    6.2821   11.8039 S   0  0  0  0  0  0  0  0  0  0  0  0
   46.9718    5.5999   12.0574 O   0  0  0  0  0  0  0  0  0  0  0  0
   45.1643    6.4613   10.4904 O   0  0  0  0  0  0  0  0  0  0  0  0
   45.8499    7.7211   12.5027 O   0  0  0  0  0  0  0  0  0  0  0  0
   44.5854    5.5995   12.6990 O   0  0  0  0  0  0  0  0  0  0  0  0
   45.2176    6.2220   13.3021 C   0  0  1  0  0  0  0  0  0  0  0  0
   46.2816    7.2179   12.8692 C   0  0  0  0  0  0  0  0  0  0  0  0
   44.3380    5.6399   12.1415 C   0  0  1  0  0  0  0  0  0  0  0  0
   45.0747    4.6039   11.3831 N   0  0  0  0  0  0  0  0  0  0  0  0
   45.8069    5.1520   14.0585 O   0  0  0  0  0  0  0  0  0  0  0  0
   46.2732    8.5206   13.3945 C   0  0  0  0  0  0  0  0  0  0  0  0
   47.3029    6.8676   11.9734 C   0  0  0  0  0  0  0  0  0  0  0  0
   44.3595    4.0848   10.2314 C   0  0  0  0  0  0  0  0  0  0  0  0
   43.0446    5.0641   12.7422 C   0  0  0  0  0  0  0  0  0  0  0  0
   47.2499    9.4475   13.0237 C   0  0  0  0  0  0  0  0  0  0  0  0
   48.2789    7.7951   11.6029 C   0  0  0  0  0  0  0  0  0  0  0  0
   48.2519    9.0847   12.1272 C   0  0  0  0  0  0  0  0  0  0  0  0
   46.6840    4.7867   12.0226 H   0  0  0  0  0  0  0  0  0  0  0  0
   45.0321    5.2788   13.7878 H   0  0  0  0  0  0  0  0  0  0  0  0
   42.7883    5.6151   13.3335 H   0  0  0  0  0  0  0  0  0  0  0  0
   45.9556    6.3158   10.0556 H   0  0  0  0  0  0  0  0  0  0  0  0
   48.5767    6.0248   12.3646 H   0  0  0  0  0  0  0  0  0  0  0  0
   44.8093    8.1142   12.0554 H   0  0  0  0  0  0  0  0  0  0  0  0
   41.8861    6.5605   11.4255 H   0  0  0  0  0  0  0  0  0  0  0  0
   42.5899    5.0134   10.9695 H   0  0  0  0  0  0  0  0  0  0  0  0
   43.4349    6.5474   10.6124 H   0  0  0  0  0  0  0  0  0  0  0  0
   44.1167    3.4340   11.5253 H   0  0  0  0  0  0  0  0  0  0  0  0
   43.5441    3.3679   13.2042 H   0  0  0  0  0  0  0  0  0  0  0  0
   45.2407    3.0611   12.8366 H   0  0  0  0  0  0  0  0  0  0  0  0
   49.7029    8.1568   12.8612 H   0  0  0  0  0  0  0  0  0  0  0  0
   45.9547   10.2285   12.5533 H   0  0  0  0  0  0  0  0  0  0  0  0
   48.4019   10.2666   12.9603 H   0  0  0  0  0  0  0  0  0  0  0  0
   46.4783    7.6278   13.2486 H   0  0  0  0  0  0  0  0  0  0  0  0
   43.7231    5.8648   12.3176 H   0  0  0  0  0  0  0  0  0  0  0  0
   44.5491    6.7378   14.0027 H   0  0  0  0  0  0  0  0  0  0  0  0
   44.0695    6.4636   11.4674 H   0  0  0  0  0  0  0  0  0  0  0  0
   45.3161    3.8505   12.0306 H   0  0  0  0  0  0  0  0  0  0  0  0
   46.7471    5.3719   14.1746 H   0  0  0  0  0  0  0  0  0  0  0  0
   45.5033    8.8263   14.1000 H   0  0  0  0  0  0  0  0  0  0  0  0
   47.3454    5.8655   11.5514 H   0  0  0  0  0  0  0  0  0  0  0  0
   43.4949    3.4801   10.5190 H   0  0  0  0  0  0  0  0  0  0  0  0
   45.0292    3.4396    9.6540 H   0  0  0  0  0  0  0  0  0  0  0  0
   44.0320    4.8914    9.5679 H   0  0  0  0  0  0  0  0  0  0  0  0
   42.3350    4.7674   11.9635 H   0  0  0  0  0  0  0  0  0  0  0  0
   43.2463    4.1912   13.3727 H   0  0  0  0  0  0  0  0  0  0  0  0
   42.5378    5.8139   13.3599 H   0  0  0  0  0  0  0  0  0  0  0  0
   47.2283   10.4530   13.4357 H   0  0  0  0  0  0  0  0  0  0  0  0
   49.0586    7.5082   10.9019 H   0  0  0  0  0  0  0  0  0  0  0  0
   49.0111    9.8060   11.8371 H   0  0  0  0  0  0  0  0  0  0  0  0
  2  1  1  0
  3  1  1  0
  4  3  1  0
  1  5  1  0
  6  2  2  0
  7  2  1  0
  8  4  1  0
  3  9  1  0
 10  6  1  0
 11  7  2  0
 12 10  2  0
 12 11  1  0
 14 13  2  0
 15 13  2  0
 16 13  1  0
 17 13  1  0
 19 18  1  0
 20 18  1  0
 21 20  1  0
 18 22  1  0
 23 19  2  0
 24 19  1  0
 25 21  1  0
 20 26  1  0
 27 23  1  0
 28 24  2  0
 29 27  2  0
 29 28  1  0
  1 30  1  6
  3 31  1  6
  4 32  1  0
  5 33  1  0
  6 34  1  0
  7 35  1  0
  8 36  1  0
  8 37  1  0
  8 38  1  0
  9 39  1  0
  9 40  1  0
  9 41  1  0
 10 42  1  0
 11 43  1  0
 12 44  1  0
 16 45  1  0
 17 46  1  0
 18 47  1  1
 20 48  1  1
 21 49  1  0
 22 50  1  0
 23 51  1  0
 24 52  1  0
 25 53  1  0
 25 54  1  0
 25 55  1  0
 26 56  1  0
 26 57  1  0
 26 58  1  0
 27 59  1  0
 28 60  1  0
 29 61  1  0
M  END
> <Uni-Dock RESULT> 
ENERGY=   -5.752  LOWER_BOUND=    0.000  UPPER_BOUND=    0.000
INTER + INTRA:          -5.752
INTER:                  -5.752
INTRA:                   0.000
UNBOUND:                 0.000

$$$$

     RDKit          3D

 61 60  0  0  0  0  0  0  0  0999 V2000
   47.5394    6.3872   19.1963 C   0  0  1  0  0  0  0  0  0  0  0  0
   47.9792    5.1357   18.4531 C   0  0  0  0  0  0  0  0  0  0  0  0
   48.2729    6.6831   20.5527 C   0  0  1  0  0  0  0  0  0  0  0  0
   49.7158    7.0270   20.5244 N   0  0  0  0  0  0  0  0  0  0  0  0
   47.5504    7.5188   18.3208 O   0  0  0  0  0  0  0  0  0  0  0  0
   47.0159    4.1935   18.0526 C   0  0  0  0  0  0  0  0  0  0  0  0
   49.3168    4.9042   18.1037 C   0  0  0  0  0  0  0  0  0  0  0  0
   50.0502    8.2355   19.7833 C   0  0  0  0  0  0  0  0  0  0  0  0
   47.4868    7.7292   21.3610 C   0  0  0  0  0  0  0  0  0  0  0  0
   47.3835    3.0474   17.3440 C   0  0  0  0  0  0  0  0  0  0  0  0
   49.6846    3.7575   17.3957 C   0  0  0  0  0  0  0  0  0  0  0  0
   48.7188    2.8287   17.0174 C   0  0  0  0  0  0  0  0  0  0  0  0
   48.1607    6.1798   18.8428 S   0  0  0  0  0  0  0  0  0  0  0  0
   46.8204    5.6572   18.9204 O   0  0  0  0  0  0  0  0  0  0  0  0
   48.5463    7.2776   17.9932 O   0  0  0  0  0  0  0  0  0  0  0  0
   49.1163    4.9319   18.5216 O   0  0  0  0  0  0  0  0  0  0  0  0
   48.6406    6.5631   20.3248 O   0  0  0  0  0  0  0  0  0  0  0  0
   48.6633    5.5001   20.1823 C   0  0  1  0  0  0  0  0  0  0  0  0
   48.5035    4.6980   18.9008 C   0  0  0  0  0  0  0  0  0  0  0  0
   48.7862    7.0513   19.9869 C   0  0  1  0  0  0  0  0  0  0  0  0
   47.4656    7.6593   19.7082 N   0  0  0  0  0  0  0  0  0  0  0  0
   47.5985    5.2015   21.0996 O   0  0  0  0  0  0  0  0  0  0  0  0
   49.4433    3.7057   18.5768 C   0  0  0  0  0  0  0  0  0  0  0  0
   47.4193    4.8972   18.0330 C   0  0  0  0  0  0  0  0  0  0  0  0
   47.5115    9.0815   19.4206 C   0  0  0  0  0  0  0  0  0  0  0  0
   49.4149    7.6608   21.2511 C   0  0  0  0  0  0  0  0  0  0  0  0
   49.3082    2.9454   17.4130 C   0  0  0  0  0  0  0  0  0  0  0  0
   47.2852    4.1369   16.8693 C   0  0  0  0  0  0  0  0  0  0  0  0
   48.2297    3.1620   16.5592 C   0  0  0  0  0  0  0  0  0  0  0  0
   46.4814    6.2456   19.4535 H   0  0  0  0  0  0  0  0  0  0  0  0
   48.2207    5.7506   21.1317 H   0  0  0  0  0  0  0  0  0  0  0  0
   50.0391    7.1370   21.4854 H   0  0  0  0  0  0  0  0  0  0  0  0
   47.8200    7.1971   17.4434 H   0  0  0  0  0  0  0  0  0  0  0  0
   45.9644    4.3461   18.2888 H   0  0  0  0  0  0  0  0  0  0  0  0
   50.0922    5.6140   18.3805 H   0  0  0  0  0  0  0  0  0  0  0  0
   51.1198    8.4369   19.9073 H   0  0  0  0  0  0  0  0  0  0  0  0
   49.5144    9.1169   20.1457 H   0  0  0  0  0  0  0  0  0  0  0  0
   49.8848    8.1189   18.7099 H   0  0  0  0  0  0  0  0  0  0  0  0
   47.3982    8.6818   20.8293 H   0  0  0  0  0  0  0  0  0  0  0  0
   47.9624    7.9195   22.3297 H   0  0  0  0  0  0  0  0  0  0  0  0
   46.4722    7.3695   21.5654 H   0  0  0  0  0  0  0  0  0  0  0  0
   46.6264    2.3267   17.0460 H   0  0  0  0  0  0  0  0  0  0  0  0
   50.7284    3.5919   17.1410 H   0  0  0  0  0  0  0  0  0  0  0  0
   49.0069    1.9369   16.4674 H   0  0  0  0  0  0  0  0  0  0  0  0
   48.6773    4.1324   18.8794 H   0  0  0  0  0  0  0  0  0  0  0  0
   49.4075    7.1657   20.2331 H   0  0  0  0  0  0  0  0  0  0  0  0
   49.5782    5.1513   20.6774 H   0  0  0  0  0  0  0  0  0  0  0  0
   49.4599    7.2388   19.1407 H   0  0  0  0  0  0  0  0  0  0  0  0
   46.8560    7.4696   20.5066 H   0  0  0  0  0  0  0  0  0  0  0  0
   47.0703    4.4903   20.6984 H   0  0  0  0  0  0  0  0  0  0  0  0
   50.2920    3.5147   19.2304 H   0  0  0  0  0  0  0  0  0  0  0  0
   46.6679    5.6524   18.2549 H   0  0  0  0  0  0  0  0  0  0  0  0
   47.7714    9.6740   20.3023 H   0  0  0  0  0  0  0  0  0  0  0  0
   46.5226    9.4122   19.0873 H   0  0  0  0  0  0  0  0  0  0  0  0
   48.2181    9.3033   18.6147 H   0  0  0  0  0  0  0  0  0  0  0  0
   49.6479    8.7216   21.1150 H   0  0  0  0  0  0  0  0  0  0  0  0
   48.7522    7.5641   22.1181 H   0  0  0  0  0  0  0  0  0  0  0  0
   50.3591    7.1604   21.4934 H   0  0  0  0  0  0  0  0  0  0  0  0
   50.0454    2.1835   17.1737 H   0  0  0  0  0  0  0  0  0  0  0  0
   46.4424    4.3100   16.2049 H   0  0  0  0  0  0  0  0  0  0  0  0
   48.1250    2.5720   15.6527 H   0  0  0  0  0  0  0  0  0  0  0  0
  2  1  1  0
  3  1  1  0
  4  3  1  0
  1  5  1  0
  6  2  2  0
  7  2  1  0
  8  4  1  0
  3  9  1  0
 10  6  1  0
 11  7  2  0
 12 10  2  0
 12 11  1  0
 14 13  2  0
 15 13  2  0
 16 13  1  0
 17 13  1  0
 19 18  1  0
 20 18  1  0
 21 20  1  0
 18 22  1  0
 23 19  2  0
 24 19  1  0
 25 21  1  0
 20 26  1  0
 27 23  1  0
 28 24  2  0
 29 27  2  0
 29 28  1  0
  1 30  1  6
  3 31  1  6
  4 32  1  0
  5 33  1  0
  6 34  1  0
  7 35  1  0
  8 36  1  0
  8 37  1  0
  8 38  1  0
  9 39  1  0
  9 40  1  0
  9 41  1  0
 10 42  1  0
 11 43  1  0
 12 44  1  0
 16 45  1  0
 17 46  1  0
 18 47  1  1
 20 48  1  1
 21 49  1  0
 22 50  1  0
 23 51  1  0
 24 52  1  0
 25 53  1  0
 25 54  1  0
 25 55  1  0
 26 56  1  0
 26 57  1  0
 26 58  1  0
 27 59  1  0
 28 60  1  0
 29 61  1  0
M  END
> <Uni-Dock RESULT> 
ENERGY=   -5.271  LOWER_BOUND=    6.706  UPPER_BOUND=    8.271
INTER + INTRA:          -5.271
INTER:                  -5.271
INTRA:                   0.000
UNBOUND:                 0.000

$$$$

     RDKit          3D

 61 60  0  0  0  0  0  0  0  0999 V2000
   44.7983    6.4605   11.7273 C   0  0  1  0  0  0  0  0  0  0  0  0
   46.0201    6.9932   12.4588 C   0  0  0  0  0  0  0  0  0  0  0  0
   44.9832    5.0997   10.9659 C   0  0  1  0  0  0  0  0  0  0  0  0
   45.2323    3.8680   11.7545 N   0  0  0  0  0  0  0  0  0  0  0  0
   43.6633    6.4397   12.5982 O   0  0  0  0  0  0  0  0  0  0  0  0
   46.4518    8.3094   12.2190 C   0  0  0  0  0  0  0  0  0  0  0  0
   46.7129    6.2324   13.4107 C   0  0  0  0  0  0  0  0  0  0  0  0
   44.1707    3.5007   12.6817 C   0  0  0  0  0  0  0  0  0  0  0  0
   43.8207    4.8824    9.9826 C   0  0  0  0  0  0  0  0  0  0  0  0
   47.5535    8.8382   12.8952 C   0  0  0  0  0  0  0  0  0  0  0  0
   47.8155    6.7610   14.0864 C   0  0  0  0  0  0  0  0  0  0  0  0
   48.2367    8.0627   13.8277 C   0  0  0  0  0  0  0  0  0  0  0  0
   45.1875    6.2426   12.3230 S   0  0  0  0  0  0  0  0  0  0  0  0
   45.1477    7.4420   11.5257 O   0  0  0  0  0  0  0  0  0  0  0  0
   44.2336    5.9344   13.3577 O   0  0  0  0  0  0  0  0  0  0  0  0
   46.6605    6.1662   12.9540 O   0  0  0  0  0  0  0  0  0  0  0  0
   45.2087    4.9790   11.3349 O   0  0  0  0  0  0  0  0  0  0  0  0
   46.1691    5.4564   11.3601 C   0  0  1  0  0  0  0  0  0  0  0  0
   46.6799    6.5404   12.2956 C   0  0  0  0  0  0  0  0  0  0  0  0
   44.7794    4.8419   11.7477 C   0  0  1  0  0  0  0  0  0  0  0  0
   43.6727    5.7541   11.3809 N   0  0  0  0  0  0  0  0  0  0  0  0
   46.1364    5.9343   10.0055 O   0  0  0  0  0  0  0  0  0  0  0  0
   47.9133    6.3757   12.9472 C   0  0  0  0  0  0  0  0  0  0  0  0
   45.9662    7.7288   12.5114 C   0  0  0  0  0  0  0  0  0  0  0  0
   42.3589    5.2964   11.7954 C   0  0  0  0  0  0  0  0  0  0  0  0
   44.6259    3.4829   11.0444 C   0  0  0  0  0  0  0  0  0  0  0  0
   48.4102    7.3651   13.7985 C   0  0  0  0  0  0  0  0  0  0  0  0
   46.4634    8.7174   13.3632 C   0  0  0  0  0  0  0  0  0  0  0  0
   47.6845    8.5352   14.0070 C   0  0  0  0  0  0  0  0  0  0  0  0
   44.5439    7.2012   10.9576 H   0  0  0  0  0  0  0  0  0  0  0  0
   45.8840    5.2213   10.3484 H   0  0  0  0  0  0  0  0  0  0  0  0
   45.3771    3.0945   11.1058 H   0  0  0  0  0  0  0  0  0  0  0  0
   43.9544    6.8000   13.4535 H   0  0  0  0  0  0  0  0  0  0  0  0
   45.9293    8.9383   11.5007 H   0  0  0  0  0  0  0  0  0  0  0  0
   46.4042    5.2152   13.6378 H   0  0  0  0  0  0  0  0  0  0  0  0
   44.4220    2.5364   13.1366 H   0  0  0  0  0  0  0  0  0  0  0  0
   43.2016    3.3799   12.1902 H   0  0  0  0  0  0  0  0  0  0  0  0
   44.0800    4.2118   13.5059 H   0  0  0  0  0  0  0  0  0  0  0  0
   42.8521    4.8372   10.4905 H   0  0  0  0  0  0  0  0  0  0  0  0
   43.9529    3.9560    9.4124 H   0  0  0  0  0  0  0  0  0  0  0  0
   43.7757    5.7031    9.2580 H   0  0  0  0  0  0  0  0  0  0  0  0
   47.8768    9.8563   12.6944 H   0  0  0  0  0  0  0  0  0  0  0  0
   48.3445    6.1524   14.8153 H   0  0  0  0  0  0  0  0  0  0  0  0
   49.0949    8.4719   14.3537 H   0  0  0  0  0  0  0  0  0  0  0  0
   47.2611    6.6429   12.3442 H   0  0  0  0  0  0  0  0  0  0  0  0
   44.9491    4.1956   11.8624 H   0  0  0  0  0  0  0  0  0  0  0  0
   46.9070    4.6444   11.3628 H   0  0  0  0  0  0  0  0  0  0  0  0
   44.7686    4.6732   12.8323 H   0  0  0  0  0  0  0  0  0  0  0  0
   43.7047    5.8984   10.3694 H   0  0  0  0  0  0  0  0  0  0  0  0
   46.5282    6.8244   10.0099 H   0  0  0  0  0  0  0  0  0  0  0  0
   48.5008    5.4722   12.7967 H   0  0  0  0  0  0  0  0  0  0  0  0
   45.0103    7.8943   12.0184 H   0  0  0  0  0  0  0  0  0  0  0  0
   42.0292    4.4191   11.2317 H   0  0  0  0  0  0  0  0  0  0  0  0
   41.6285    6.0914   11.6149 H   0  0  0  0  0  0  0  0  0  0  0  0
   42.3347    5.0685   12.8657 H   0  0  0  0  0  0  0  0  0  0  0  0
   43.7337    2.9495   11.3869 H   0  0  0  0  0  0  0  0  0  0  0  0
   44.5607    3.5966    9.9567 H   0  0  0  0  0  0  0  0  0  0  0  0
   45.4823    2.8353   11.2631 H   0  0  0  0  0  0  0  0  0  0  0  0
   49.3645    7.2219   14.2986 H   0  0  0  0  0  0  0  0  0  0  0  0
   45.8933    9.6289   13.5241 H   0  0  0  0  0  0  0  0  0  0  0  0
   48.0697    9.3047   14.6707 H   0  0  0  0  0  0  0  0  0  0  0  0
  2  1  1  0
  3  1  1  0
  4  3  1  0
  1  5  1  0
  6  2  2  0
  7  2  1  0
  8  4  1  0
  3  9  1  0
 10  6  1  0
 11  7  2  0
 12 10  2  0
 12 11  1  0
 14 13  2  0
 15 13  2  0
 16 13  1  0
 17 13  1  0
 19 18  1  0
 20 18  1  0
 21 20  1  0
 18 22  1  0
 23 19  2  0
 24 19  1  0
 25 21  1  0
 20 26  1  0
 27 23  1  0
 28 24  2  0
 29 27  2  0
 29 28  1  0
  1 30  1  6
  3 31  1  6
  4 32  1  0
  5 33  1  0
  6 34  1  0
  7 35  1  0
  8 36  1  0
  8 37  1  0
  8 38  1  0
  9 39  1  0
  9 40  1  0
  9 41  1  0
 10 42  1  0
 11 43  1  0
 12 44  1  0
 16 45  1  0
 17 46  1  0
 18 47  1  1
 20 48  1  1
 21 49  1  0
 22 50  1  0
 23 51  1  0
 24 52  1  0
 25 53  1  0
 25 54  1  0
 25 55  1  0
 26 56  1  0
 26 57  1  0
 26 58  1  0
 27 59  1  0
 28 60  1  0
 29 61  1  0
M  END
> <Uni-Dock RESULT> 
ENERGY=   -5.253  LOWER_BOUND=    1.001  UPPER_BOUND=    2.357
INTER + INTRA:          -5.253
INTER:                  -5.253
INTRA:                   0.000
UNBOUND:                 0.000

$$$$

     RDKit          3D

 61 60  0  0  0  0  0  0  0  0999 V2000
   46.0453    7.1554   13.1252 C   0  0  1  0  0  0  0  0  0  0  0  0
   45.2139    6.2038   12.2796 C   0  0  0  0  0  0  0  0  0  0  0  0
   47.5105    6.6950   13.4516 C   0  0  1  0  0  0  0  0  0  0  0  0
   48.4898    6.5886   12.3423 N   0  0  0  0  0  0  0  0  0  0  0  0
   46.0062    8.4763   12.5767 O   0  0  0  0  0  0  0  0  0  0  0  0
   43.9443    5.8043   12.7320 C   0  0  0  0  0  0  0  0  0  0  0  0
   45.6466    5.7416   11.0290 C   0  0  0  0  0  0  0  0  0  0  0  0
   48.7635    7.8327   11.6361 C   0  0  0  0  0  0  0  0  0  0  0  0
   48.0874    7.5421   14.5984 C   0  0  0  0  0  0  0  0  0  0  0  0
   43.1441    4.9535   11.9662 C   0  0  0  0  0  0  0  0  0  0  0  0
   44.8466    4.8899   10.2634 C   0  0  0  0  0  0  0  0  0  0  0  0
   43.5967    4.4946   10.7324 C   0  0  0  0  0  0  0  0  0  0  0  0
   46.0721    6.9244   12.4182 S   0  0  0  0  0  0  0  0  0  0  0  0
   45.1003    6.8251   13.4772 O   0  0  0  0  0  0  0  0  0  0  0  0
   46.2510    8.0968   11.6002 O   0  0  0  0  0  0  0  0  0  0  0  0
   45.8212    5.6678   11.4530 O   0  0  0  0  0  0  0  0  0  0  0  0
   47.5152    6.5677   13.0211 O   0  0  0  0  0  0  0  0  0  0  0  0
   46.9305    5.6784   12.8866 C   0  0  1  0  0  0  0  0  0  0  0  0
   45.6074    5.4983   12.1597 C   0  0  0  0  0  0  0  0  0  0  0  0
   47.6063    7.0816   12.7029 C   0  0  1  0  0  0  0  0  0  0  0  0
   46.9447    8.1054   13.5428 N   0  0  0  0  0  0  0  0  0  0  0  0
   46.7817    5.3819   14.2846 O   0  0  0  0  0  0  0  0  0  0  0  0
   45.4665    4.4724   11.2107 C   0  0  0  0  0  0  0  0  0  0  0  0
   44.4980    6.3139   12.4285 C   0  0  0  0  0  0  0  0  0  0  0  0
   47.4537    9.4519   13.3552 C   0  0  0  0  0  0  0  0  0  0  0  0
   49.0982    6.9622   13.0569 C   0  0  0  0  0  0  0  0  0  0  0  0
   44.2557    4.2779   10.5423 C   0  0  0  0  0  0  0  0  0  0  0  0
   43.2879    6.1190   11.7594 C   0  0  0  0  0  0  0  0  0  0  0  0
   43.1671    5.1019   10.8162 C   0  0  0  0  0  0  0  0  0  0  0  0
   45.5365    7.2423   14.0944 H   0  0  0  0  0  0  0  0  0  0  0  0
   47.4232    5.6723   13.8443 H   0  0  0  0  0  0  0  0  0  0  0  0
   49.3671    6.2317   12.7207 H   0  0  0  0  0  0  0  0  0  0  0  0
   45.4274    8.4430   11.7957 H   0  0  0  0  0  0  0  0  0  0  0  0
   43.5648    6.1561   13.6895 H   0  0  0  0  0  0  0  0  0  0  0  0
   46.6153    6.0374   10.6343 H   0  0  0  0  0  0  0  0  0  0  0  0
   49.5604    7.6525   10.9064 H   0  0  0  0  0  0  0  0  0  0  0  0
   49.1112    8.6291   12.2996 H   0  0  0  0  0  0  0  0  0  0  0  0
   47.9000    8.1800   11.0645 H   0  0  0  0  0  0  0  0  0  0  0  0
   48.1341    8.6058   14.3440 H   0  0  0  0  0  0  0  0  0  0  0  0
   49.0959    7.2088   14.8677 H   0  0  0  0  0  0  0  0  0  0  0  0
   47.4654    7.4441   15.4952 H   0  0  0  0  0  0  0  0  0  0  0  0
   42.1668    4.6506   12.3330 H   0  0  0  0  0  0  0  0  0  0  0  0
   45.2033    4.5358    9.2996 H   0  0  0  0  0  0  0  0  0  0  0  0
   42.9761    3.8315   10.1359 H   0  0  0  0  0  0  0  0  0  0  0  0
   45.4260    4.9577   12.0002 H   0  0  0  0  0  0  0  0  0  0  0  0
   48.1836    6.9094   12.3918 H   0  0  0  0  0  0  0  0  0  0  0  0
   47.6236    4.9198   12.5020 H   0  0  0  0  0  0  0  0  0  0  0  0
   47.5233    7.3674   11.6463 H   0  0  0  0  0  0  0  0  0  0  0  0
   47.0321    7.8169   14.5197 H   0  0  0  0  0  0  0  0  0  0  0  0
   45.8729    5.0595   14.4104 H   0  0  0  0  0  0  0  0  0  0  0  0
   46.3014    3.8127   10.9829 H   0  0  0  0  0  0  0  0  0  0  0  0
   44.5679    7.1143   13.1623 H   0  0  0  0  0  0  0  0  0  0  0  0
   48.4700    9.5681   13.7419 H   0  0  0  0  0  0  0  0  0  0  0  0
   46.8166   10.1556   13.9003 H   0  0  0  0  0  0  0  0  0  0  0  0
   47.4327    9.7434   12.3003 H   0  0  0  0  0  0  0  0  0  0  0  0
   49.6448    7.8793   12.8162 H   0  0  0  0  0  0  0  0  0  0  0  0
   49.2443    6.7453   14.1207 H   0  0  0  0  0  0  0  0  0  0  0  0
   49.5687    6.1562   12.4827 H   0  0  0  0  0  0  0  0  0  0  0  0
   44.1629    3.4821    9.8079 H   0  0  0  0  0  0  0  0  0  0  0  0
   42.4408    6.7652   11.9754 H   0  0  0  0  0  0  0  0  0  0  0  0
   42.2253    4.9522   10.2952 H   0  0  0  0  0  0  0  0  0  0  0  0
  2  1  1  0
  3  1  1  0
  4  3  1  0
  1  5  1  0
  6  2  2  0
  7  2  1  0
  8  4  1  0
  3  9  1  0
 10  6  1  0
 11  7  2  0
 12 10  2  0
 12 11  1  0
 14 13  2  0
 15 13  2  0
 16 13  1  0
 17 13  1  0
 19 18  1  0
 20 18  1  0
 21 20  1  0
 18 22  1  0
 23 19  2  0
 24 19  1  0
 25 21  1  0
 20 26  1  0
 27 23  1  0
 28 24  2  0
 29 27  2  0
 29 28  1  0
  1 30  1  6
  3 31  1  6
  4 32  1  0
  5 33  1  0
  6 34  1  0
  7 35  1  0
  8 36  1  0
  8 37  1  0
  8 38  1  0
  9 39  1  0
  9 40  1  0
  9 41  1  0
 10 42  1  0
 11 43  1  0
 12 44  1  0
 16 45  1  0
 17 46  1  0
 18 47  1  1
 20 48  1  1
 21 49  1  0
 22 50  1  0
 23 51  1  0
 24 52  1  0
 25 53  1  0
 25 54  1  0
 25 55  1  0
 26 56  1  0
 26 57  1  0
 26 58  1  0
 27 59  1  0
 28 60  1  0
 29 61  1  0
M  END
> <Uni-Dock RESULT> 
ENERGY=   -5.175  LOWER_BOUND=    1.473  UPPER_BOUND=    4.427
INTER + INTRA:          -5.175
INTER:                  -5.175
INTRA:                   0.000
UNBOUND:                 0.000

$$$$

     RDKit          3D

 61 60  0  0  0  0  0  0  0  0999 V2000
   44.9301    6.6548   12.6617 C   0  0  1  0  0  0  0  0  0  0  0  0
   46.3170    7.2762   12.7075 C   0  0  0  0  0  0  0  0  0  0  0  0
   44.4645    6.0972   11.2697 C   0  0  1  0  0  0  0  0  0  0  0  0
   45.1710    4.9250   10.6972 N   0  0  0  0  0  0  0  0  0  0  0  0
   44.7803    5.6880   13.7058 O   0  0  0  0  0  0  0  0  0  0  0  0
   46.4794    8.5698   13.2332 C   0  0  0  0  0  0  0  0  0  0  0  0
   47.4611    6.5842   12.2870 C   0  0  0  0  0  0  0  0  0  0  0  0
   45.1021    3.7091   11.4963 C   0  0  0  0  0  0  0  0  0  0  0  0
   42.9452    5.8578   11.2778 C   0  0  0  0  0  0  0  0  0  0  0  0
   47.7434    9.1582   13.3151 C   0  0  0  0  0  0  0  0  0  0  0  0
   48.7254    7.1729   12.3682 C   0  0  0  0  0  0  0  0  0  0  0  0
   48.8664    8.4599   12.8805 C   0  0  0  0  0  0  0  0  0  0  0  0
   45.6233    6.3922   12.5962 S   0  0  0  0  0  0  0  0  0  0  0  0
   45.0536    7.6433   13.0273 O   0  0  0  0  0  0  0  0  0  0  0  0
   45.7083    5.2195   13.4289 O   0  0  0  0  0  0  0  0  0  0  0  0
   47.0919    6.7286   12.0451 O   0  0  0  0  0  0  0  0  0  0  0  0
   44.8836    5.9378   11.2472 O   0  0  0  0  0  0  0  0  0  0  0  0
   45.5768    6.7325   11.0500 C   0  0  1  0  0  0  0  0  0  0  0  0
   46.6390    7.3297   11.9590 C   0  0  0  0  0  0  0  0  0  0  0  0
   44.8835    5.4364   11.5968 C   0  0  1  0  0  0  0  0  0  0  0  0
   43.8835    5.7660   12.6374 N   0  0  0  0  0  0  0  0  0  0  0  0
   44.5863    7.7185   10.7169 O   0  0  0  0  0  0  0  0  0  0  0  0
   47.9551    7.4779   11.4910 C   0  0  0  0  0  0  0  0  0  0  0  0
   46.3400    7.7709   13.2567 C   0  0  0  0  0  0  0  0  0  0  0  0
   43.2666    4.6092   13.2608 C   0  0  0  0  0  0  0  0  0  0  0  0
   44.2273    4.6929   10.4214 C   0  0  0  0  0  0  0  0  0  0  0  0
   48.9438    8.0386   12.3025 C   0  0  0  0  0  0  0  0  0  0  0  0
   47.3293    8.3310   14.0677 C   0  0  0  0  0  0  0  0  0  0  0  0
   48.6308    8.4641   13.5910 C   0  0  0  0  0  0  0  0  0  0  0  0
   44.2191    7.4516   12.9173 H   0  0  0  0  0  0  0  0  0  0  0  0
   44.6400    6.9072   10.5481 H   0  0  0  0  0  0  0  0  0  0  0  0
   44.7770    4.7299    9.7769 H   0  0  0  0  0  0  0  0  0  0  0  0
   45.6115    5.6837   14.2109 H   0  0  0  0  0  0  0  0  0  0  0  0
   45.6178    9.1329   13.5871 H   0  0  0  0  0  0  0  0  0  0  0  0
   47.3830    5.5761   11.8877 H   0  0  0  0  0  0  0  0  0  0  0  0
   45.5760    2.8955   10.9365 H   0  0  0  0  0  0  0  0  0  0  0  0
   44.0754    3.3975   11.7063 H   0  0  0  0  0  0  0  0  0  0  0  0
   45.6586    3.7995   12.4318 H   0  0  0  0  0  0  0  0  0  0  0  0
   42.6459    5.1250   12.0338 H   0  0  0  0  0  0  0  0  0  0  0  0
   42.5950    5.5061   10.3009 H   0  0  0  0  0  0  0  0  0  0  0  0
   42.4133    6.7912   11.4938 H   0  0  0  0  0  0  0  0  0  0  0  0
   47.8507   10.1612   13.7200 H   0  0  0  0  0  0  0  0  0  0  0  0
   49.5998    6.6230   12.0295 H   0  0  0  0  0  0  0  0  0  0  0  0
   49.8505    8.9165   12.9422 H   0  0  0  0  0  0  0  0  0  0  0  0
   47.0771    7.6565   11.7311 H   0  0  0  0  0  0  0  0  0  0  0  0
   45.0642    4.9826   11.1266 H   0  0  0  0  0  0  0  0  0  0  0  0
   46.0621    6.4772   10.0996 H   0  0  0  0  0  0  0  0  0  0  0  0
   45.6576    4.7881   12.0274 H   0  0  0  0  0  0  0  0  0  0  0  0
   43.1762    6.3714   12.2150 H   0  0  0  0  0  0  0  0  0  0  0  0
   44.8856    8.5608   11.0999 H   0  0  0  0  0  0  0  0  0  0  0  0
   48.2231    7.1571   10.4863 H   0  0  0  0  0  0  0  0  0  0  0  0
   45.3299    7.6784   13.6507 H   0  0  0  0  0  0  0  0  0  0  0  0
   42.6048    4.0729   12.5749 H   0  0  0  0  0  0  0  0  0  0  0  0
   42.6570    4.9403   14.1075 H   0  0  0  0  0  0  0  0  0  0  0  0
   44.0193    3.9175   13.6520 H   0  0  0  0  0  0  0  0  0  0  0  0
   43.8460    3.7131   10.7258 H   0  0  0  0  0  0  0  0  0  0  0  0
   43.3972    5.2662    9.9944 H   0  0  0  0  0  0  0  0  0  0  0  0
   44.9557    4.5122    9.6230 H   0  0  0  0  0  0  0  0  0  0  0  0
   49.9586    8.1436   11.9278 H   0  0  0  0  0  0  0  0  0  0  0  0
   47.0810    8.6609   15.0733 H   0  0  0  0  0  0  0  0  0  0  0  0
   49.4000    8.8989   14.2235 H   0  0  0  0  0  0  0  0  0  0  0  0
  2  1  1  0
  3  1  1  0
  4  3  1  0
  1  5  1  0
  6  2  2  0
  7  2  1  0
  8  4  1  0
  3  9  1  0
 10  6  1  0
 11  7  2  0
 12 10  2  0
 12 11  1  0
 14 13  2  0
 15 13  2  0
 16 13  1  0
 17 13  1  0
 19 18  1  0
 20 18  1  0
 21 20  1  0
 18 22  1  0
 23 19  2  0
 24 19  1  0
 25 21  1  0
 20 26  1  0
 27 23  1  0
 28 24  2  0
 29 27  2  0
 29 28  1  0
  1 30  1  6
  3 31  1  6
  4 32  1  0
  5 33  1  0
  6 34  1  0
  7 35  1  0
  8 36  1  0
  8 37  1  0
  8 38  1  0
  9 39  1  0
  9 40  1  0
  9 41  1  0
 10 42  1  0
 11 43  1  0
 12 44  1  0
 16 45  1  0
 17 46  1  0
 18 47  1  1
 20 48  1  1
 21 49  1  0
 22 50  1  0
 23 51  1  0
 24 52  1  0
 25 53  1  0
 25 54  1  0
 25 55  1  0
 26 56  1  0
 26 57  1  0
 26 58  1  0
 27 59  1  0
 28 60  1  0
 29 61  1  0
M  END
> <Uni-Dock RESULT> 
ENERGY=   -4.950  LOWER_BOUND=    0.837  UPPER_BOUND=    2.405
INTER + INTRA:          -4.950
INTER:                  -4.950
INTRA:                   0.000
UNBOUND:                 0.000

$$$$

     RDKit          3D

 61 60  0  0  0  0  0  0  0  0999 V2000
   48.7648    4.5864   20.5393 C   0  0  1  0  0  0  0  0  0  0  0  0
   48.4478    4.4422   19.0592 C   0  0  0  0  0  0  0  0  0  0  0  0
   49.8763    5.6306   20.9130 C   0  0  1  0  0  0  0  0  0  0  0  0
   49.6113    7.0712   20.6773 N   0  0  0  0  0  0  0  0  0  0  0  0
   47.5639    4.7868   21.2909 O   0  0  0  0  0  0  0  0  0  0  0  0
   48.4693    3.1674   18.4672 C   0  0  0  0  0  0  0  0  0  0  0  0
   48.0828    5.5360   18.2622 C   0  0  0  0  0  0  0  0  0  0  0  0
   48.4832    7.6225   21.4155 C   0  0  0  0  0  0  0  0  0  0  0  0
   50.3526    5.4010   22.3573 C   0  0  0  0  0  0  0  0  0  0  0  0
   48.1558    2.9973   17.1168 C   0  0  0  0  0  0  0  0  0  0  0  0
   47.7701    5.3661   16.9113 C   0  0  0  0  0  0  0  0  0  0  0  0
   47.8081    4.0977   16.3384 C   0  0  0  0  0  0  0  0  0  0  0  0
   48.4492    5.0242   20.0268 S   0  0  0  0  0  0  0  0  0  0  0  0
   48.8114    3.6308   20.0802 O   0  0  0  0  0  0  0  0  0  0  0  0
   47.2518    5.5656   20.6175 O   0  0  0  0  0  0  0  0  0  0  0  0
   48.4830    5.4426   18.4785 O   0  0  0  0  0  0  0  0  0  0  0  0
   49.6710    5.8869   20.6069 O   0  0  0  0  0  0  0  0  0  0  0  0
   49.8906    5.5370   19.6168 C   0  0  1  0  0  0  0  0  0  0  0  0
   48.9695    4.8756   18.6042 C   0  0  0  0  0  0  0  0  0  0  0  0
   49.1782    6.1117   20.8903 C   0  0  1  0  0  0  0  0  0  0  0  0
   48.8264    5.0298   21.8375 N   0  0  0  0  0  0  0  0  0  0  0  0
   50.9425    4.6380   20.0037 O   0  0  0  0  0  0  0  0  0  0  0  0
   48.9166    5.3612   17.2873 C   0  0  0  0  0  0  0  0  0  0  0  0
   48.1812    3.7636   18.9361 C   0  0  0  0  0  0  0  0  0  0  0  0
   48.0773    5.4731   22.9992 C   0  0  0  0  0  0  0  0  0  0  0  0
   50.1073    7.1416   21.5545 C   0  0  0  0  0  0  0  0  0  0  0  0
   48.0900    4.7596   16.3358 C   0  0  0  0  0  0  0  0  0  0  0  0
   47.3545    3.1628   17.9843 C   0  0  0  0  0  0  0  0  0  0  0  0
   47.3084    3.6612   16.6850 C   0  0  0  0  0  0  0  0  0  0  0  0
   49.1440    3.6127   20.8767 H   0  0  0  0  0  0  0  0  0  0  0  0
   50.7359    5.3971   20.2695 H   0  0  0  0  0  0  0  0  0  0  0  0
   50.4489    7.5972   20.9263 H   0  0  0  0  0  0  0  0  0  0  0  0
   46.8248    4.7580   20.6592 H   0  0  0  0  0  0  0  0  0  0  0  0
   48.7300    2.2905   19.0568 H   0  0  0  0  0  0  0  0  0  0  0  0
   48.0391    6.5375   18.6828 H   0  0  0  0  0  0  0  0  0  0  0  0
   48.4407    8.7020   21.2343 H   0  0  0  0  0  0  0  0  0  0  0  0
   48.5746    7.4826   22.4960 H   0  0  0  0  0  0  0  0  0  0  0  0
   47.5288    7.2181   21.0708 H   0  0  0  0  0  0  0  0  0  0  0  0
   49.5427    5.5200   23.0839 H   0  0  0  0  0  0  0  0  0  0  0  0
   51.1575    6.0953   22.6234 H   0  0  0  0  0  0  0  0  0  0  0  0
   50.7515    4.3867   22.4706 H   0  0  0  0  0  0  0  0  0  0  0  0
   48.1817    2.0052   16.6738 H   0  0  0  0  0  0  0  0  0  0  0  0
   47.4971    6.2281   16.3079 H   0  0  0  0  0  0  0  0  0  0  0  0
   47.5652    3.9676   15.2873 H   0  0  0  0  0  0  0  0  0  0  0  0
   49.1236    4.8500   18.0331 H   0  0  0  0  0  0  0  0  0  0  0  0
   49.3180    6.7725   20.8318 H   0  0  0  0  0  0  0  0  0  0  0  0
   50.3936    6.3700   19.1098 H   0  0  0  0  0  0  0  0  0  0  0  0
   48.2637    6.6271   20.5694 H   0  0  0  0  0  0  0  0  0  0  0  0
   49.6914    4.5634   22.1194 H   0  0  0  0  0  0  0  0  0  0  0  0
   50.8487    3.8402   19.4555 H   0  0  0  0  0  0  0  0  0  0  0  0
   49.5213    6.2154   16.9892 H   0  0  0  0  0  0  0  0  0  0  0  0
   48.2014    3.3556   19.9447 H   0  0  0  0  0  0  0  0  0  0  0  0
   48.6845    6.0801   23.6766 H   0  0  0  0  0  0  0  0  0  0  0  0
   47.7384    4.5982   23.5630 H   0  0  0  0  0  0  0  0  0  0  0  0
   47.1862    6.0382   22.7080 H   0  0  0  0  0  0  0  0  0  0  0  0
   49.6051    7.6718   22.3697 H   0  0  0  0  0  0  0  0  0  0  0  0
   51.0101    6.6696   21.9576 H   0  0  0  0  0  0  0  0  0  0  0  0
   50.4212    7.9025   20.8312 H   0  0  0  0  0  0  0  0  0  0  0  0
   48.0570    5.1488   15.3216 H   0  0  0  0  0  0  0  0  0  0  0  0
   46.7452    2.3063   18.2613 H   0  0  0  0  0  0  0  0  0  0  0  0
   46.6637    3.1937   15.9456 H   0  0  0  0  0  0  0  0  0  0  0  0
  2  1  1  0
  3  1  1  0
  4  3  1  0
  1  5  1  0
  6  2  2  0
  7  2  1  0
  8  4  1  0
  3  9  1  0
 10  6  1  0
 11  7  2  0
 12 10  2  0
 12 11  1  0
 14 13  2  0
 15 13  2  0
 16 13  1  0
 17 13  1  0
 19 18  1  0
 20 18  1  0
 21 20  1  0
 18 22  1  0
 23 19  2  0
 24 19  1  0
 25 21  1  0
 20 26  1  0
 27 23  1  0
 28 24  2  0
 29 27  2  0
 29 28  1  0
  1 30  1  6
  3 31  1  6
  4 32  1  0
  5 33  1  0
  6 34  1  0
  7 35  1  0
  8 36  1  0
  8 37  1  0
  8 38  1  0
  9 39  1  0
  9 40  1  0
  9 41  1  0
 10 42  1  0
 11 43  1  0
 12 44  1  0
 16 45  1  0
 17 46  1  0
 18 47  1  1
 20 48  1  1
 21 49  1  0
 22 50  1  0
 23 51  1  0
 24 52  1  0
 25 53  1  0
 25 54  1  0
 25 55  1  0
 26 56  1  0
 26 57  1  0
 26 58  1  0
 27 59  1  0
 28 60  1  0
 29 61  1  0
M  END
> <Uni-Dock RESULT> 
ENERGY=   -4.944  LOWER_BOUND=    7.460  UPPER_BOUND=    8.881
INTER + INTRA:          -4.944
INTER:                  -4.944
INTRA:                   0.000
UNBOUND:                 0.000

$$$$

     RDKit          3D

 61 60  0  0  0  0  0  0  0  0999 V2000
   49.5275    5.3271   20.0392 C   0  0  1  0  0  0  0  0  0  0  0  0
   49.0253    4.5108   18.8588 C   0  0  0  0  0  0  0  0  0  0  0  0
   48.6547    6.5667   20.4479 C   0  0  1  0  0  0  0  0  0  0  0  0
   47.2959    6.3340   20.9962 N   0  0  0  0  0  0  0  0  0  0  0  0
   49.8070    4.4749   21.1540 O   0  0  0  0  0  0  0  0  0  0  0  0
   49.8910    4.2414   17.7845 C   0  0  0  0  0  0  0  0  0  0  0  0
   47.7336    3.9678   18.8202 C   0  0  0  0  0  0  0  0  0  0  0  0
   47.2503    5.5689   22.2348 C   0  0  0  0  0  0  0  0  0  0  0  0
   49.4569    7.4948   21.3756 C   0  0  0  0  0  0  0  0  0  0  0  0
   49.4694    3.4713   16.6983 C   0  0  0  0  0  0  0  0  0  0  0  0
   47.3116    3.1982   17.7334 C   0  0  0  0  0  0  0  0  0  0  0  0
   48.1784    2.9514   16.6721 C   0  0  0  0  0  0  0  0  0  0  0  0
   48.9410    4.8844   19.9211 S   0  0  0  0  0  0  0  0  0  0  0  0
   50.1665    5.1485   19.2110 O   0  0  0  0  0  0  0  0  0  0  0  0
   48.8452    4.0030   21.0567 O   0  0  0  0  0  0  0  0  0  0  0  0
   47.8729    4.4108   18.8218 O   0  0  0  0  0  0  0  0  0  0  0  0
   48.3107    6.2862   20.3806 O   0  0  0  0  0  0  0  0  0  0  0  0
   48.1563    6.1273   19.3309 C   0  0  1  0  0  0  0  0  0  0  0  0
   48.3839    4.8716   18.5048 C   0  0  0  0  0  0  0  0  0  0  0  0
   48.2875    5.9374   20.8821 C   0  0  1  0  0  0  0  0  0  0  0  0
   49.7082    5.8618   21.2911 N   0  0  0  0  0  0  0  0  0  0  0  0
   49.0220    7.1852   18.8887 O   0  0  0  0  0  0  0  0  0  0  0  0
   47.3684    4.4010   17.6560 C   0  0  0  0  0  0  0  0  0  0  0  0
   49.6001    4.1732   18.5389 C   0  0  0  0  0  0  0  0  0  0  0  0
   49.9098    5.5902   22.7029 C   0  0  0  0  0  0  0  0  0  0  0  0
   47.5758    7.1053   21.5854 C   0  0  0  0  0  0  0  0  0  0  0  0
   47.5607    3.2588   16.8756 C   0  0  0  0  0  0  0  0  0  0  0  0
   49.7915    3.0309   17.7586 C   0  0  0  0  0  0  0  0  0  0  0  0
   48.7719    2.5736   16.9280 C   0  0  0  0  0  0  0  0  0  0  0  0
   50.5054    5.7332   19.7483 H   0  0  0  0  0  0  0  0  0  0  0  0
   48.4873    7.1342   19.5220 H   0  0  0  0  0  0  0  0  0  0  0  0
   46.8553    7.2393   21.1589 H   0  0  0  0  0  0  0  0  0  0  0  0
   49.6246    3.5633   20.8681 H   0  0  0  0  0  0  0  0  0  0  0  0
   50.9077    4.6298   17.7855 H   0  0  0  0  0  0  0  0  0  0  0  0
   47.0364    4.1389   19.6365 H   0  0  0  0  0  0  0  0  0  0  0  0
   46.2143    5.5391   22.5894 H   0  0  0  0  0  0  0  0  0  0  0  0
   47.8488    6.0173   23.0323 H   0  0  0  0  0  0  0  0  0  0  0  0
   47.5517    4.5294   22.0877 H   0  0  0  0  0  0  0  0  0  0  0  0
   49.7581    6.9947   22.3015 H   0  0  0  0  0  0  0  0  0  0  0  0
   48.8778    8.3868   21.6397 H   0  0  0  0  0  0  0  0  0  0  0  0
   50.3686    7.8393   20.8747 H   0  0  0  0  0  0  0  0  0  0  0  0
   50.1501    3.2764   15.8737 H   0  0  0  0  0  0  0  0  0  0  0  0
   46.3032    2.7925   17.7183 H   0  0  0  0  0  0  0  0  0  0  0  0
   47.8482    2.3531   15.8272 H   0  0  0  0  0  0  0  0  0  0  0  0
   48.1355    4.8174   17.9700 H   0  0  0  0  0  0  0  0  0  0  0  0
   47.6600    6.0925   21.0868 H   0  0  0  0  0  0  0  0  0  0  0  0
   47.1385    6.4795   19.1215 H   0  0  0  0  0  0  0  0  0  0  0  0
   47.7783    5.0051   21.1586 H   0  0  0  0  0  0  0  0  0  0  0  0
   50.1614    6.7375   21.0214 H   0  0  0  0  0  0  0  0  0  0  0  0
   49.4951    6.8551   18.1057 H   0  0  0  0  0  0  0  0  0  0  0  0
   46.4150    4.9219   17.5944 H   0  0  0  0  0  0  0  0  0  0  0  0
   50.4119    4.5122   19.1794 H   0  0  0  0  0  0  0  0  0  0  0  0
   49.6123    6.4329   23.3332 H   0  0  0  0  0  0  0  0  0  0  0  0
   50.9738    5.4084   22.8849 H   0  0  0  0  0  0  0  0  0  0  0  0
   49.3674    4.6934   23.0184 H   0  0  0  0  0  0  0  0  0  0  0  0
   47.5201    6.9514   22.6676 H   0  0  0  0  0  0  0  0  0  0  0  0
   48.0844    8.0579   21.4005 H   0  0  0  0  0  0  0  0  0  0  0  0
   46.5443    7.2011   21.2283 H   0  0  0  0  0  0  0  0  0  0  0  0
   46.7644    2.9046   16.2263 H   0  0  0  0  0  0  0  0  0  0  0  0
   50.7381    2.4984   17.8033 H   0  0  0  0  0  0  0  0  0  0  0  0
   48.9215    1.6839   16.3223 H   0  0  0  0  0  0  0  0  0  0  0  0
  2  1  1  0
  3  1  1  0
  4  3  1  0
  1  5  1  0
  6  2  2  0
  7  2  1  0
  8  4  1  0
  3  9  1  0
 10  6  1  0
 11  7  2  0
 12 10  2  0
 12 11  1  0
 14 13  2  0
 15 13  2  0
 16 13  1  0
 17 13  1  0
 19 18  1  0
 20 18  1  0
 21 20  1  0
 18 22  1  0
 23 19  2  0
 24 19  1  0
 25 21  1  0
 20 26  1  0
 27 23  1  0
 28 24  2  0
 29 27  2  0
 29 28  1  0
  1 30  1  6
  3 31  1  6
  4 32  1  0
  5 33  1  0
  6 34  1  0
  7 35  1  0
  8 36  1  0
  8 37  1  0
  8 38  1  0
  9 39  1  0
  9 40  1  0
  9 41  1  0
 10 42  1  0
 11 43  1  0
 12 44  1  0
 16 45  1  0
 17 46  1  0
 18 47  1  1
 20 48  1  1
 21 49  1  0
 22 50  1  0
 23 51  1  0
 24 52  1  0
 25 53  1  0
 25 54  1  0
 25 55  1  0
 26 56  1  0
 26 57  1  0
 26 58  1  0
 27 59  1  0
 28 60  1  0
 29 61  1  0
M  END
> <Uni-Dock RESULT> 
ENERGY=   -4.888  LOWER_BOUND=    7.395  UPPER_BOUND=    8.813
INTER + INTRA:          -4.888
INTER:                  -4.888
INTRA:                   0.000
UNBOUND:                 0.000

$$$$

     RDKit          3D

 61 60  0  0  0  0  0  0  0  0999 V2000
   48.6750    5.9584   19.9281 C   0  0  1  0  0  0  0  0  0  0  0  0
   48.4681    4.9328   18.8248 C   0  0  0  0  0  0  0  0  0  0  0  0
   49.2171    5.4080   21.2951 C   0  0  1  0  0  0  0  0  0  0  0  0
   50.5926    4.8545   21.3474 N   0  0  0  0  0  0  0  0  0  0  0  0
   49.4494    7.0612   19.4472 O   0  0  0  0  0  0  0  0  0  0  0  0
   47.2262    4.8609   18.1701 C   0  0  0  0  0  0  0  0  0  0  0  0
   49.4932    4.0788   18.3953 C   0  0  0  0  0  0  0  0  0  0  0  0
   51.6523    5.7959   21.0119 C   0  0  0  0  0  0  0  0  0  0  0  0
   49.0168    6.4556   22.4032 C   0  0  0  0  0  0  0  0  0  0  0  0
   47.0125    3.9493   17.1338 C   0  0  0  0  0  0  0  0  0  0  0  0
   49.2793    3.1664   17.3593 C   0  0  0  0  0  0  0  0  0  0  0  0
   48.0391    3.1004   16.7299 C   0  0  0  0  0  0  0  0  0  0  0  0
   49.1275    5.5350   19.5159 S   0  0  0  0  0  0  0  0  0  0  0  0
   47.7296    5.8779   19.4531 O   0  0  0  0  0  0  0  0  0  0  0  0
   50.1859    6.3898   19.0420 O   0  0  0  0  0  0  0  0  0  0  0  0
   49.2760    4.1046   18.8049 O   0  0  0  0  0  0  0  0  0  0  0  0
   49.4895    5.1644   21.0342 O   0  0  0  0  0  0  0  0  0  0  0  0
   48.9465    4.3651   20.5683 C   0  0  1  0  0  0  0  0  0  0  0  0
   48.5836    4.1743   19.1044 C   0  0  0  0  0  0  0  0  0  0  0  0
   49.9324    5.5488   20.8618 C   0  0  1  0  0  0  0  0  0  0  0  0
   49.2308    6.8513   20.8111 N   0  0  0  0  0  0  0  0  0  0  0  0
   47.7605    4.5013   21.3678 O   0  0  0  0  0  0  0  0  0  0  0  0
   48.8603    2.9518   18.4703 C   0  0  0  0  0  0  0  0  0  0  0  0
   47.9469    5.1803   18.3622 C   0  0  0  0  0  0  0  0  0  0  0  0
   50.0976    8.0037   20.9785 C   0  0  0  0  0  0  0  0  0  0  0  0
   50.5763    5.3260   22.2406 C   0  0  0  0  0  0  0  0  0  0  0  0
   48.5214    2.7481   17.1309 C   0  0  0  0  0  0  0  0  0  0  0  0
   47.6087    4.9760   17.0228 C   0  0  0  0  0  0  0  0  0  0  0  0
   47.8966    3.7607   16.4073 C   0  0  0  0  0  0  0  0  0  0  0  0
   47.6886    6.3873   20.1489 H   0  0  0  0  0  0  0  0  0  0  0  0
   48.5669    4.5616   21.5569 H   0  0  0  0  0  0  0  0  0  0  0  0
   50.7611    4.4999   22.2887 H   0  0  0  0  0  0  0  0  0  0  0  0
   49.6364    6.8895   18.5083 H   0  0  0  0  0  0  0  0  0  0  0  0
   46.4104    5.5196   18.4621 H   0  0  0  0  0  0  0  0  0  0  0  0
   50.4735    4.1111   18.8639 H   0  0  0  0  0  0  0  0  0  0  0  0
   52.6188    5.3058   21.1718 H   0  0  0  0  0  0  0  0  0  0  0  0
   51.6392    6.6905   21.6402 H   0  0  0  0  0  0  0  0  0  0  0  0
   51.6279    6.0847   19.9587 H   0  0  0  0  0  0  0  0  0  0  0  0
   49.5551    7.3858   22.1953 H   0  0  0  0  0  0  0  0  0  0  0  0
   49.3529    6.0739   23.3738 H   0  0  0  0  0  0  0  0  0  0  0  0
   47.9546    6.7045   22.5052 H   0  0  0  0  0  0  0  0  0  0  0  0
   46.0446    3.9036   16.6413 H   0  0  0  0  0  0  0  0  0  0  0  0
   50.0846    2.5069   17.0459 H   0  0  0  0  0  0  0  0  0  0  0  0
   47.8742    2.3895   15.9248 H   0  0  0  0  0  0  0  0  0  0  0  0
   48.4183    3.6418   18.9051 H   0  0  0  0  0  0  0  0  0  0  0  0
   50.4640    5.2160   21.1195 H   0  0  0  0  0  0  0  0  0  0  0  0
   49.4231    3.4388   20.9130 H   0  0  0  0  0  0  0  0  0  0  0  0
   50.7254    5.5320   20.1030 H   0  0  0  0  0  0  0  0  0  0  0  0
   48.4969    6.8425   21.5226 H   0  0  0  0  0  0  0  0  0  0  0  0
   47.0022    4.3591   20.7757 H   0  0  0  0  0  0  0  0  0  0  0  0
   49.3437    2.1439   19.0160 H   0  0  0  0  0  0  0  0  0  0  0  0
   47.7107    6.1378   18.8220 H   0  0  0  0  0  0  0  0  0  0  0  0
   50.4926    8.0805   21.9954 H   0  0  0  0  0  0  0  0  0  0  0  0
   49.5241    8.9154   20.7833 H   0  0  0  0  0  0  0  0  0  0  0  0
   50.9299    7.9839   20.2679 H   0  0  0  0  0  0  0  0  0  0  0  0
   51.3728    6.0508   22.4361 H   0  0  0  0  0  0  0  0  0  0  0  0
   49.8388    5.4015   23.0472 H   0  0  0  0  0  0  0  0  0  0  0  0
   51.0348    4.3324   22.2974 H   0  0  0  0  0  0  0  0  0  0  0  0
   48.7451    1.7980   16.6527 H   0  0  0  0  0  0  0  0  0  0  0  0
   47.1221    5.7694   16.4613 H   0  0  0  0  0  0  0  0  0  0  0  0
   47.6343    3.6034   15.3645 H   0  0  0  0  0  0  0  0  0  0  0  0
  2  1  1  0
  3  1  1  0
  4  3  1  0
  1  5  1  0
  6  2  2  0
  7  2  1  0
  8  4  1  0
  3  9  1  0
 10  6  1  0
 11  7  2  0
 12 10  2  0
 12 11  1  0
 14 13  2  0
 15 13  2  0
 16 13  1  0
 17 13  1  0
 19 18  1  0
 20 18  1  0
 21 20  1  0
 18 22  1  0
 23 19  2  0
 24 19  1  0
 25 21  1  0
 20 26  1  0
 27 23  1  0
 28 24  2  0
 29 27  2  0
 29 28  1  0
  1 30  1  6
  3 31  1  6
  4 32  1  0
  5 33  1  0
  6 34  1  0
  7 35  1  0
  8 36  1  0
  8 37  1  0
  8 38  1  0
  9 39  1  0
  9 40  1  0
  9 41  1  0
 10 42  1  0
 11 43  1  0
 12 44  1  0
 16 45  1  0
 17 46  1  0
 18 47  1  1
 20 48  1  1
 21 49  1  0
 22 50  1  0
 23 51  1  0
 24 52  1  0
 25 53  1  0
 25 54  1  0
 25 55  1  0
 26 56  1  0
 26 57  1  0
 26 58  1  0
 27 59  1  0
 28 60  1  0
 29 61  1  0
M  END
> <Uni-Dock RESULT> 
ENERGY=   -4.821  LOWER_BOUND=    7.518  UPPER_BOUND=    9.019
INTER + INTRA:          -4.821
INTER:                  -4.821
INTRA:                   0.000
UNBOUND:                 0.000

$$$$

     RDKit          3D

 61 60  0  0  0  0  0  0  0  0999 V2000
   42.1374   12.2426   11.0546 C   0  0  1  0  0  0  0  0  0  0  0  0
   40.7640   11.6732   11.3733 C   0  0  0  0  0  0  0  0  0  0  0  0
   43.2245   11.2119   10.5844 C   0  0  1  0  0  0  0  0  0  0  0  0
   43.0426   10.5262    9.2814 N   0  0  0  0  0  0  0  0  0  0  0  0
   42.0234   13.3512   10.1574 O   0  0  0  0  0  0  0  0  0  0  0  0
   40.1659   11.9599   12.6127 C   0  0  0  0  0  0  0  0  0  0  0  0
   40.0402   10.9050   10.4509 C   0  0  0  0  0  0  0  0  0  0  0  0
   43.0022   11.4039    8.1198 C   0  0  0  0  0  0  0  0  0  0  0  0
   44.6238   11.8449   10.6678 C   0  0  0  0  0  0  0  0  0  0  0  0
   38.8938   11.4754   12.9253 C   0  0  0  0  0  0  0  0  0  0  0  0
   38.7681   10.4198   10.7638 C   0  0  0  0  0  0  0  0  0  0  0  0
   38.1957   10.7034   12.0009 C   0  0  0  0  0  0  0  0  0  0  0  0
   41.5926   11.9344   10.6520 S   0  0  0  0  0  0  0  0  0  0  0  0
   41.6955   12.4289   12.0013 O   0  0  0  0  0  0  0  0  0  0  0  0
   41.3931   12.7775    9.5010 O   0  0  0  0  0  0  0  0  0  0  0  0
   40.4424   10.8161   10.6653 O   0  0  0  0  0  0  0  0  0  0  0  0
   42.8883   11.0412   10.3407 O   0  0  0  0  0  0  0  0  0  0  0  0
   42.2025   10.5075   10.9697 C   0  0  1  0  0  0  0  0  0  0  0  0
   40.7717   10.8570   11.3463 C   0  0  0  0  0  0  0  0  0  0  0  0
   42.8382   11.4103    9.8560 C   0  0  1  0  0  0  0  0  0  0  0  0
   43.2470   12.7234   10.4038 N   0  0  0  0  0  0  0  0  0  0  0  0
   43.0424   10.4976   12.1354 O   0  0  0  0  0  0  0  0  0  0  0  0
   39.7587    9.8938   11.2088 C   0  0  0  0  0  0  0  0  0  0  0  0
   40.4281   12.1161   11.8610 C   0  0  0  0  0  0  0  0  0  0  0  0
   43.7574   13.6520    9.4115 C   0  0  0  0  0  0  0  0  0  0  0  0
   44.0417   10.6713    9.2472 C   0  0  0  0  0  0  0  0  0  0  0  0
   38.4401   10.1871   11.5636 C   0  0  0  0  0  0  0  0  0  0  0  0
   39.1094   12.4087   12.2150 C   0  0  0  0  0  0  0  0  0  0  0  0
   38.1157   11.4449   12.0657 C   0  0  0  0  0  0  0  0  0  0  0  0
   42.5219   12.6782   11.9864 H   0  0  0  0  0  0  0  0  0  0  0  0
   43.2128   10.4030   11.3282 H   0  0  0  0  0  0  0  0  0  0  0  0
   43.8063    9.8616    9.1582 H   0  0  0  0  0  0  0  0  0  0  0  0
   41.0749   13.4835    9.9876 H   0  0  0  0  0  0  0  0  0  0  0  0
   40.6880   12.5682   13.3489 H   0  0  0  0  0  0  0  0  0  0  0  0
   40.4588   10.6719    9.4752 H   0  0  0  0  0  0  0  0  0  0  0  0
   42.9568   10.7862    7.2162 H   0  0  0  0  0  0  0  0  0  0  0  0
   43.8919   12.0333    8.0329 H   0  0  0  0  0  0  0  0  0  0  0  0
   42.1061   12.0285    8.1069 H   0  0  0  0  0  0  0  0  0  0  0  0
   44.7180   12.7265   10.0259 H   0  0  0  0  0  0  0  0  0  0  0  0
   45.4004   11.1269   10.3814 H   0  0  0  0  0  0  0  0  0  0  0  0
   44.8392   12.1598   11.6950 H   0  0  0  0  0  0  0  0  0  0  0  0
   38.4477   11.7027   13.8901 H   0  0  0  0  0  0  0  0  0  0  0  0
   38.2259    9.8190   10.0380 H   0  0  0  0  0  0  0  0  0  0  0  0
   37.2065   10.3245   12.2429 H   0  0  0  0  0  0  0  0  0  0  0  0
   40.4128   10.4430   11.5707 H   0  0  0  0  0  0  0  0  0  0  0  0
   42.9522   10.9547    9.3670 H   0  0  0  0  0  0  0  0  0  0  0  0
   42.2035    9.4732   10.6035 H   0  0  0  0  0  0  0  0  0  0  0  0
   42.0898   11.5613    9.0672 H   0  0  0  0  0  0  0  0  0  0  0  0
   43.9401   12.5577   11.1367 H   0  0  0  0  0  0  0  0  0  0  0  0
   42.4632   10.6448   12.9027 H   0  0  0  0  0  0  0  0  0  0  0  0
   39.9882    8.9025   10.8232 H   0  0  0  0  0  0  0  0  0  0  0  0
   41.1876   12.8850   11.9878 H   0  0  0  0  0  0  0  0  0  0  0  0
   44.7278   13.3414    9.0144 H   0  0  0  0  0  0  0  0  0  0  0  0
   43.8958   14.6333    9.8762 H   0  0  0  0  0  0  0  0  0  0  0  0
   43.0522   13.7797    8.5842 H   0  0  0  0  0  0  0  0  0  0  0  0
   44.4390   11.1977    8.3738 H   0  0  0  0  0  0  0  0  0  0  0  0
   44.8525   10.5533    9.9744 H   0  0  0  0  0  0  0  0  0  0  0  0
   43.7495    9.6720    8.9056 H   0  0  0  0  0  0  0  0  0  0  0  0
   37.6663    9.4327   11.4482 H   0  0  0  0  0  0  0  0  0  0  0  0
   38.8602   13.3922   12.6055 H   0  0  0  0  0  0  0  0  0  0  0  0
   37.0897   11.6742   12.3403 H   0  0  0  0  0  0  0  0  0  0  0  0
  2  1  1  0
  3  1  1  0
  4  3  1  0
  1  5  1  0
  6  2  2  0
  7  2  1  0
  8  4  1  0
  3  9  1  0
 10  6  1  0
 11  7  2  0
 12 10  2  0
 12 11  1  0
 14 13  2  0
 15 13  2  0
 16 13  1  0
 17 13  1  0
 19 18  1  0
 20 18  1  0
 21 20  1  0
 18 22  1  0
 23 19  2  0
 24 19  1  0
 25 21  1  0
 20 26  1  0
 27 23  1  0
 28 24  2  0
 29 27  2  0
 29 28  1  0
  1 30  1  6
  3 31  1  6
  4 32  1  0
  5 33  1  0
  6 34  1  0
  7 35  1  0
  8 36  1  0
  8 37  1  0
  8 38  1  0
  9 39  1  0
  9 40  1  0
  9 41  1  0
 10 42  1  0
 11 43  1  0
 12 44  1  0
 16 45  1  0
 17 46  1  0
 18 47  1  1
 20 48  1  1
 21 49  1  0
 22 50  1  0
 23 51  1  0
 24 52  1  0
 25 53  1  0
 25 54  1  0
 25 55  1  0
 26 56  1  0
 26 57  1  0
 26 58  1  0
 27 59  1  0
 28 60  1  0
 29 61  1  0
M  END
> <Uni-Dock RESULT> 
ENERGY=   -4.589  LOWER_BOUND=    5.990  UPPER_BOUND=    7.926
INTER + INTRA:          -4.589
INTER:                  -4.589
INTRA:                   0.000
UNBOUND:                 0.000

$$$$
