
     RDKit          3D

 61 60  0  0  0  0  0  0  0  0999 V2000
   46.8724    6.2576   12.4185 C   0  0  1  0  0  0  0  0  0  0  0  0
   45.6259    5.4403   12.1416 C   0  0  0  0  0  0  0  0  0  0  0  0
   46.6038    7.5934   13.1823 C   0  0  1  0  0  0  0  0  0  0  0  0
   47.9035    8.2240   13.5254 N   0  0  0  0  0  0  0  0  0  0  0  0
   47.7856    5.4577   13.1937 O   0  0  0  0  0  0  0  0  0  0  0  0
   44.9096    4.8362   13.1874 C   0  0  0  0  0  0  0  0  0  0  0  0
   45.1665    5.2755   10.8265 C   0  0  0  0  0  0  0  0  0  0  0  0
   47.7983    9.1250   14.6644 C   0  0  0  0  0  0  0  0  0  0  0  0
   45.7581    8.5553   12.3445 C   0  0  0  0  0  0  0  0  0  0  0  0
   43.7637    4.0847   12.9232 C   0  0  0  0  0  0  0  0  0  0  0  0
   44.0184    4.5256   10.5650 C   0  0  0  0  0  0  0  0  0  0  0  0
   43.3186    3.9303   11.6122 C   0  0  0  0  0  0  0  0  0  0  0  0
   45.7862    6.1807   12.9493 S   0  0  0  0  0  0  0  0  0  0  0  0
   46.5805    5.3153   13.7833 O   0  0  0  0  0  0  0  0  0  0  0  0
   44.3493    6.2614   13.0157 O   0  0  0  0  0  0  0  0  0  0  0  0
   46.3819    7.6583   13.1395 O   0  0  0  0  0  0  0  0  0  0  0  0
   46.1599    5.8942   11.4156 O   0  0  0  0  0  0  0  0  0  0  0  0
   45.9703    7.3191   12.7532 C   0  0  1  0  0  0  0  0  0  0  0  0
   45.0749    6.3233   12.0403 C   0  0  0  0  0  0  0  0  0  0  0  0
   47.4235    6.8044   13.0081 C   0  0  1  0  0  0  0  0  0  0  0  0
   48.3398    7.8832   13.4600 N   0  0  0  0  0  0  0  0  0  0  0  0
   46.0320    8.5316   11.9811 O   0  0  0  0  0  0  0  0  0  0  0  0
   43.9392    5.8093   12.6834 C   0  0  0  0  0  0  0  0  0  0  0  0
   45.3558    5.9043   10.7299 C   0  0  0  0  0  0  0  0  0  0  0  0
   48.1163    8.3359   14.8253 C   0  0  0  0  0  0  0  0  0  0  0  0
   47.4570    5.5785   13.9251 C   0  0  0  0  0  0  0  0  0  0  0  0
   43.1086    4.8949   12.0335 C   0  0  0  0  0  0  0  0  0  0  0  0
   44.5240    4.9903   10.0823 C   0  0  0  0  0  0  0  0  0  0  0  0
   43.4012    4.4858   10.7341 C   0  0  0  0  0  0  0  0  0  0  0  0
   47.3886    6.4745   11.4756 H   0  0  0  0  0  0  0  0  0  0  0  0
   46.0733    7.3532   14.1127 H   0  0  0  0  0  0  0  0  0  0  0  0
   48.5351    7.4553   13.7788 H   0  0  0  0  0  0  0  0  0  0  0  0
   47.6441    4.5325   12.9306 H   0  0  0  0  0  0  0  0  0  0  0  0
   45.2475    4.9452   14.2171 H   0  0  0  0  0  0  0  0  0  0  0  0
   45.6981    5.7352    9.9951 H   0  0  0  0  0  0  0  0  0  0  0  0
   47.1481    9.9774   14.4502 H   0  0  0  0  0  0  0  0  0  0  0  0
   48.7893    9.5251   14.9021 H   0  0  0  0  0  0  0  0  0  0  0  0
   47.4285    8.6063   15.5546 H   0  0  0  0  0  0  0  0  0  0  0  0
   44.7843    8.1170   12.1022 H   0  0  0  0  0  0  0  0  0  0  0  0
   46.2581    8.8072   11.4017 H   0  0  0  0  0  0  0  0  0  0  0  0
   45.5605    9.4898   12.8805 H   0  0  0  0  0  0  0  0  0  0  0  0
   43.2183    3.6188   13.7401 H   0  0  0  0  0  0  0  0  0  0  0  0
   43.6692    4.4060    9.5430 H   0  0  0  0  0  0  0  0  0  0  0  0
   42.4250    3.3461   11.4074 H   0  0  0  0  0  0  0  0  0  0  0  0
   47.3046    7.5575   13.4551 H   0  0  0  0  0  0  0  0  0  0  0  0
   45.5135    6.3733   10.8601 H   0  0  0  0  0  0  0  0  0  0  0  0
   45.5107    7.5953   13.7090 H   0  0  0  0  0  0  0  0  0  0  0  0
   47.8404    6.4910   12.0425 H   0  0  0  0  0  0  0  0  0  0  0  0
   48.1620    8.6765   12.8340 H   0  0  0  0  0  0  0  0  0  0  0  0
   45.2518    8.5440   11.4010 H   0  0  0  0  0  0  0  0  0  0  0  0
   43.6926    6.1150   13.6980 H   0  0  0  0  0  0  0  0  0  0  0  0
   46.2271    6.2909   10.2043 H   0  0  0  0  0  0  0  0  0  0  0  0
   47.0914    8.6797   14.9883 H   0  0  0  0  0  0  0  0  0  0  0  0
   48.3557    7.5566   15.5545 H   0  0  0  0  0  0  0  0  0  0  0  0
   48.7819    9.1797   15.0344 H   0  0  0  0  0  0  0  0  0  0  0  0
   46.9691    4.7208   13.4498 H   0  0  0  0  0  0  0  0  0  0  0  0
   48.4885    5.2811   14.1415 H   0  0  0  0  0  0  0  0  0  0  0  0
   46.9468    5.7661   14.8755 H   0  0  0  0  0  0  0  0  0  0  0  0
   42.2325    4.5008   12.5420 H   0  0  0  0  0  0  0  0  0  0  0  0
   44.7525    4.6718    9.0685 H   0  0  0  0  0  0  0  0  0  0  0  0
   42.7546    3.7729   10.2291 H   0  0  0  0  0  0  0  0  0  0  0  0
  2  1  1  0
  3  1  1  0
  4  3  1  0
  1  5  1  0
  6  2  2  0
  7  2  1  0
  8  4  1  0
  3  9  1  0
 10  6  1  0
 11  7  2  0
 12 10  2  0
 12 11  1  0
 14 13  2  0
 15 13  2  0
 16 13  1  0
 17 13  1  0
 19 18  1  0
 20 18  1  0
 21 20  1  0
 18 22  1  0
 23 19  2  0
 24 19  1  0
 25 21  1  0
 20 26  1  0
 27 23  1  0
 28 24  2  0
 29 27  2  0
 29 28  1  0
  1 30  1  6
  3 31  1  1
  4 32  1  0
  5 33  1  0
  6 34  1  0
  7 35  1  0
  8 36  1  0
  8 37  1  0
  8 38  1  0
  9 39  1  0
  9 40  1  0
  9 41  1  0
 10 42  1  0
 11 43  1  0
 12 44  1  0
 16 45  1  0
 17 46  1  0
 18 47  1  1
 20 48  1  6
 21 49  1  0
 22 50  1  0
 23 51  1  0
 24 52  1  0
 25 53  1  0
 25 54  1  0
 25 55  1  0
 26 56  1  0
 26 57  1  0
 26 58  1  0
 27 59  1  0
 28 60  1  0
 29 61  1  0
M  END
> <Uni-Dock RESULT> 
ENERGY=   -6.554  LOWER_BOUND=    0.000  UPPER_BOUND=    0.000
INTER + INTRA:          -6.554
INTER:                  -6.554
INTRA:                   0.000
UNBOUND:                 0.000

$$$$

     RDKit          3D

 61 60  0  0  0  0  0  0  0  0999 V2000
   44.4302    5.7058   12.0744 C   0  0  1  0  0  0  0  0  0  0  0  0
   45.4821    6.6037   12.6954 C   0  0  0  0  0  0  0  0  0  0  0  0
   44.9665    4.7937   10.9254 C   0  0  1  0  0  0  0  0  0  0  0  0
   43.8897    3.8618   10.5051 N   0  0  0  0  0  0  0  0  0  0  0  0
   43.8707    4.8696   13.1051 O   0  0  0  0  0  0  0  0  0  0  0  0
   46.5358    6.0673   13.4528 C   0  0  0  0  0  0  0  0  0  0  0  0
   45.4175    7.9939   12.5200 C   0  0  0  0  0  0  0  0  0  0  0  0
   44.4136    2.6574    9.8766 C   0  0  0  0  0  0  0  0  0  0  0  0
   45.4403    5.6227    9.7293 C   0  0  0  0  0  0  0  0  0  0  0  0
   47.4992    6.9014   14.0217 C   0  0  0  0  0  0  0  0  0  0  0  0
   46.3840    8.8261   13.0878 C   0  0  0  0  0  0  0  0  0  0  0  0
   47.4229    8.2802   13.8385 C   0  0  0  0  0  0  0  0  0  0  0  0
   45.6359    5.6400   12.1720 S   0  0  0  0  0  0  0  0  0  0  0  0
   45.2085    4.8098   13.2690 O   0  0  0  0  0  0  0  0  0  0  0  0
   46.9940    6.0815   11.9816 O   0  0  0  0  0  0  0  0  0  0  0  0
   45.1565    4.8970   10.8332 O   0  0  0  0  0  0  0  0  0  0  0  0
   44.7166    6.9546   12.1393 O   0  0  0  0  0  0  0  0  0  0  0  0
   45.3938    5.4757   11.0394 C   0  0  1  0  0  0  0  0  0  0  0  0
   45.9570    6.6819   11.7670 C   0  0  0  0  0  0  0  0  0  0  0  0
   44.1397    4.8436   11.7245 C   0  0  1  0  0  0  0  0  0  0  0  0
   43.4598    3.8447   10.8598 N   0  0  0  0  0  0  0  0  0  0  0  0
   45.0505    5.8564    9.6951 O   0  0  0  0  0  0  0  0  0  0  0  0
   47.2498    6.6382   12.3097 C   0  0  0  0  0  0  0  0  0  0  0  0
   45.2069    7.8609   11.9048 C   0  0  0  0  0  0  0  0  0  0  0  0
   44.1773    2.5874   10.7066 C   0  0  0  0  0  0  0  0  0  0  0  0
   44.4486    4.3011   13.1228 C   0  0  0  0  0  0  0  0  0  0  0  0
   47.7765    7.7447   12.9781 C   0  0  0  0  0  0  0  0  0  0  0  0
   45.7356    8.9655   12.5733 C   0  0  0  0  0  0  0  0  0  0  0  0
   47.0197    8.9071   13.1098 C   0  0  0  0  0  0  0  0  0  0  0  0
   43.5999    6.3154   11.6982 H   0  0  0  0  0  0  0  0  0  0  0  0
   45.8054    4.2060   11.3201 H   0  0  0  0  0  0  0  0  0  0  0  0
   43.3968    3.5900   11.3638 H   0  0  0  0  0  0  0  0  0  0  0  0
   43.9024    5.3806   13.9316 H   0  0  0  0  0  0  0  0  0  0  0  0
   46.6065    4.9914   13.6077 H   0  0  0  0  0  0  0  0  0  0  0  0
   44.6150    8.4391   11.9346 H   0  0  0  0  0  0  0  0  0  0  0  0
   44.9384    2.8806    8.9438 H   0  0  0  0  0  0  0  0  0  0  0  0
   43.5834    1.9879    9.6291 H   0  0  0  0  0  0  0  0  0  0  0  0
   45.0879    2.1149   10.5468 H   0  0  0  0  0  0  0  0  0  0  0  0
   46.2527    6.2993   10.0143 H   0  0  0  0  0  0  0  0  0  0  0  0
   44.6252    6.2297    9.3177 H   0  0  0  0  0  0  0  0  0  0  0  0
   45.8251    4.9867    8.9250 H   0  0  0  0  0  0  0  0  0  0  0  0
   48.3091    6.4758   14.6088 H   0  0  0  0  0  0  0  0  0  0  0  0
   46.3266    9.9016   12.9439 H   0  0  0  0  0  0  0  0  0  0  0  0
   48.1746    8.9292   14.2806 H   0  0  0  0  0  0  0  0  0  0  0  0
   44.4180    4.3027   11.0832 H   0  0  0  0  0  0  0  0  0  0  0  0
   45.1099    7.5735   11.4928 H   0  0  0  0  0  0  0  0  0  0  0  0
   46.1772    4.7151   10.9450 H   0  0  0  0  0  0  0  0  0  0  0  0
   43.3922    5.6373   11.8491 H   0  0  0  0  0  0  0  0  0  0  0  0
   43.3926    4.2817    9.9338 H   0  0  0  0  0  0  0  0  0  0  0  0
   45.5581    6.6584    9.4841 H   0  0  0  0  0  0  0  0  0  0  0  0
   47.8576    5.7405   12.2186 H   0  0  0  0  0  0  0  0  0  0  0  0
   44.2031    7.9252   11.4888 H   0  0  0  0  0  0  0  0  0  0  0  0
   45.1895    2.7292   10.3189 H   0  0  0  0  0  0  0  0  0  0  0  0
   44.2258    2.0319   11.6475 H   0  0  0  0  0  0  0  0  0  0  0  0
   43.6391    1.9547    9.9934 H   0  0  0  0  0  0  0  0  0  0  0  0
   44.7226    5.1124   13.8056 H   0  0  0  0  0  0  0  0  0  0  0  0
   43.5717    3.8041   13.5511 H   0  0  0  0  0  0  0  0  0  0  0  0
   45.2769    3.5851   13.1087 H   0  0  0  0  0  0  0  0  0  0  0  0
   48.7784    7.6992   13.3972 H   0  0  0  0  0  0  0  0  0  0  0  0
   45.1449    9.8723   12.6754 H   0  0  0  0  0  0  0  0  0  0  0  0
   47.4301    9.7678   13.6314 H   0  0  0  0  0  0  0  0  0  0  0  0
  2  1  1  0
  3  1  1  0
  4  3  1  0
  1  5  1  0
  6  2  2  0
  7  2  1  0
  8  4  1  0
  3  9  1  0
 10  6  1  0
 11  7  2  0
 12 10  2  0
 12 11  1  0
 14 13  2  0
 15 13  2  0
 16 13  1  0
 17 13  1  0
 19 18  1  0
 20 18  1  0
 21 20  1  0
 18 22  1  0
 23 19  2  0
 24 19  1  0
 25 21  1  0
 20 26  1  0
 27 23  1  0
 28 24  2  0
 29 27  2  0
 29 28  1  0
  1 30  1  6
  3 31  1  1
  4 32  1  0
  5 33  1  0
  6 34  1  0
  7 35  1  0
  8 36  1  0
  8 37  1  0
  8 38  1  0
  9 39  1  0
  9 40  1  0
  9 41  1  0
 10 42  1  0
 11 43  1  0
 12 44  1  0
 16 45  1  0
 17 46  1  0
 18 47  1  1
 20 48  1  6
 21 49  1  0
 22 50  1  0
 23 51  1  0
 24 52  1  0
 25 53  1  0
 25 54  1  0
 25 55  1  0
 26 56  1  0
 26 57  1  0
 26 58  1  0
 27 59  1  0
 28 60  1  0
 29 61  1  0
M  END
> <Uni-Dock RESULT> 
ENERGY=   -6.028  LOWER_BOUND=    2.095  UPPER_BOUND=    4.489
INTER + INTRA:          -6.028
INTER:                  -6.028
INTRA:                   0.000
UNBOUND:                 0.000

$$$$

     RDKit          3D

 61 60  0  0  0  0  0  0  0  0999 V2000
   44.8760    7.0671   12.6701 C   0  0  1  0  0  0  0  0  0  0  0  0
   44.4569    5.7788   11.9895 C   0  0  0  0  0  0  0  0  0  0  0  0
   46.4143    7.3360   12.6366 C   0  0  1  0  0  0  0  0  0  0  0  0
   46.6815    8.6859   13.1941 N   0  0  0  0  0  0  0  0  0  0  0  0
   44.2007    8.1673   12.0310 O   0  0  0  0  0  0  0  0  0  0  0  0
   44.5734    5.6241   10.5987 C   0  0  0  0  0  0  0  0  0  0  0  0
   43.9434    4.7148   12.7456 C   0  0  0  0  0  0  0  0  0  0  0  0
   47.9402    9.2424   12.7184 C   0  0  0  0  0  0  0  0  0  0  0  0
   47.1835    6.2779   13.4311 C   0  0  0  0  0  0  0  0  0  0  0  0
   44.1841    4.4350    9.9805 C   0  0  0  0  0  0  0  0  0  0  0  0
   43.5573    3.5253   12.1252 C   0  0  0  0  0  0  0  0  0  0  0  0
   43.6768    3.3863   10.7442 C   0  0  0  0  0  0  0  0  0  0  0  0
   45.3626    6.3856   11.7947 S   0  0  0  0  0  0  0  0  0  0  0  0
   44.6915    7.4062   11.0309 O   0  0  0  0  0  0  0  0  0  0  0  0
   45.9138    5.1851   11.2195 O   0  0  0  0  0  0  0  0  0  0  0  0
   46.5239    7.1291   12.6150 O   0  0  0  0  0  0  0  0  0  0  0  0
   44.3941    5.9212   12.9866 O   0  0  0  0  0  0  0  0  0  0  0  0
   46.2098    6.5510   12.5841 C   0  0  1  0  0  0  0  0  0  0  0  0
   45.3539    5.3334   12.2902 C   0  0  0  0  0  0  0  0  0  0  0  0
   45.4050    7.8853   12.7014 C   0  0  1  0  0  0  0  0  0  0  0  0
   46.2233    8.9992   13.2467 N   0  0  0  0  0  0  0  0  0  0  0  0
   46.9333    6.3320   13.8082 O   0  0  0  0  0  0  0  0  0  0  0  0
   45.5230    4.6250   11.0914 C   0  0  0  0  0  0  0  0  0  0  0  0
   44.3882    4.8877   13.2070 C   0  0  0  0  0  0  0  0  0  0  0  0
   47.2215    9.5248   12.3267 C   0  0  0  0  0  0  0  0  0  0  0  0
   44.6966    8.2573   11.3958 C   0  0  0  0  0  0  0  0  0  0  0  0
   44.7415    3.5019   10.8146 C   0  0  0  0  0  0  0  0  0  0  0  0
   43.6084    3.7648   12.9281 C   0  0  0  0  0  0  0  0  0  0  0  0
   43.7851    3.0726   11.7323 C   0  0  0  0  0  0  0  0  0  0  0  0
   44.5290    7.0649   13.7103 H   0  0  0  0  0  0  0  0  0  0  0  0
   46.7408    7.3176   11.5889 H   0  0  0  0  0  0  0  0  0  0  0  0
   45.9173    9.2869   12.8640 H   0  0  0  0  0  0  0  0  0  0  0  0
   43.3436    7.8301   11.7197 H   0  0  0  0  0  0  0  0  0  0  0  0
   44.9651    6.4367    9.9882 H   0  0  0  0  0  0  0  0  0  0  0  0
   43.8449    4.8032   13.8261 H   0  0  0  0  0  0  0  0  0  0  0  0
   48.7979    8.6525   13.0524 H   0  0  0  0  0  0  0  0  0  0  0  0
   48.0648   10.2525   13.1220 H   0  0  0  0  0  0  0  0  0  0  0  0
   47.9595    9.3174   11.6266 H   0  0  0  0  0  0  0  0  0  0  0  0
   47.0186    5.2769   13.0190 H   0  0  0  0  0  0  0  0  0  0  0  0
   46.8719    6.2648   14.4824 H   0  0  0  0  0  0  0  0  0  0  0  0
   48.2634    6.4584   13.4027 H   0  0  0  0  0  0  0  0  0  0  0  0
   44.2759    4.3269    8.9027 H   0  0  0  0  0  0  0  0  0  0  0  0
   43.1631    2.7058   12.7201 H   0  0  0  0  0  0  0  0  0  0  0  0
   43.3753    2.4598   10.2620 H   0  0  0  0  0  0  0  0  0  0  0  0
   46.2684    8.0732   12.6826 H   0  0  0  0  0  0  0  0  0  0  0  0
   44.7942    5.1312   13.4009 H   0  0  0  0  0  0  0  0  0  0  0  0
   46.9695    6.6536   11.8008 H   0  0  0  0  0  0  0  0  0  0  0  0
   44.6229    7.7378   13.4569 H   0  0  0  0  0  0  0  0  0  0  0  0
   46.7184    8.6075   14.0556 H   0  0  0  0  0  0  0  0  0  0  0  0
   46.9634    5.3716   13.9574 H   0  0  0  0  0  0  0  0  0  0  0  0
   46.2637    4.9432   10.3609 H   0  0  0  0  0  0  0  0  0  0  0  0
   44.2392    5.4145   14.1477 H   0  0  0  0  0  0  0  0  0  0  0  0
   47.9072    8.7521   11.9692 H   0  0  0  0  0  0  0  0  0  0  0  0
   46.7595   10.0222   11.4692 H   0  0  0  0  0  0  0  0  0  0  0  0
   47.8210   10.2802   12.8450 H   0  0  0  0  0  0  0  0  0  0  0  0
   43.9241    7.5220   11.1464 H   0  0  0  0  0  0  0  0  0  0  0  0
   44.1979    9.2283   11.4853 H   0  0  0  0  0  0  0  0  0  0  0  0
   45.3937    8.3054   10.5528 H   0  0  0  0  0  0  0  0  0  0  0  0
   44.8789    2.9618    9.8814 H   0  0  0  0  0  0  0  0  0  0  0  0
   42.8626    3.4301   13.6445 H   0  0  0  0  0  0  0  0  0  0  0  0
   43.1762    2.1987   11.5155 H   0  0  0  0  0  0  0  0  0  0  0  0
  2  1  1  0
  3  1  1  0
  4  3  1  0
  1  5  1  0
  6  2  2  0
  7  2  1  0
  8  4  1  0
  3  9  1  0
 10  6  1  0
 11  7  2  0
 12 10  2  0
 12 11  1  0
 14 13  2  0
 15 13  2  0
 16 13  1  0
 17 13  1  0
 19 18  1  0
 20 18  1  0
 21 20  1  0
 18 22  1  0
 23 19  2  0
 24 19  1  0
 25 21  1  0
 20 26  1  0
 27 23  1  0
 28 24  2  0
 29 27  2  0
 29 28  1  0
  1 30  1  6
  3 31  1  1
  4 32  1  0
  5 33  1  0
  6 34  1  0
  7 35  1  0
  8 36  1  0
  8 37  1  0
  8 38  1  0
  9 39  1  0
  9 40  1  0
  9 41  1  0
 10 42  1  0
 11 43  1  0
 12 44  1  0
 16 45  1  0
 17 46  1  0
 18 47  1  1
 20 48  1  6
 21 49  1  0
 22 50  1  0
 23 51  1  0
 24 52  1  0
 25 53  1  0
 25 54  1  0
 25 55  1  0
 26 56  1  0
 26 57  1  0
 26 58  1  0
 27 59  1  0
 28 60  1  0
 29 61  1  0
M  END
> <Uni-Dock RESULT> 
ENERGY=   -5.844  LOWER_BOUND=    1.116  UPPER_BOUND=    2.524
INTER + INTRA:          -5.844
INTER:                  -5.844
INTRA:                   0.000
UNBOUND:                 0.000

$$$$

     RDKit          3D

 61 60  0  0  0  0  0  0  0  0999 V2000
   46.0391    6.5035   11.6693 C   0  0  1  0  0  0  0  0  0  0  0  0
   46.9304    7.6689   12.0514 C   0  0  0  0  0  0  0  0  0  0  0  0
   45.3705    5.7855   12.8848 C   0  0  1  0  0  0  0  0  0  0  0  0
   44.4127    4.7698   12.3793 N   0  0  0  0  0  0  0  0  0  0  0  0
   45.0042    6.9833   10.7898 O   0  0  0  0  0  0  0  0  0  0  0  0
   46.3905    8.8434   12.5999 C   0  0  0  0  0  0  0  0  0  0  0  0
   48.3179    7.5893   11.8615 C   0  0  0  0  0  0  0  0  0  0  0  0
   43.3759    4.4539   13.3517 C   0  0  0  0  0  0  0  0  0  0  0  0
   46.4152    5.1206   13.7842 C   0  0  0  0  0  0  0  0  0  0  0  0
   47.2184    9.9117   12.9476 C   0  0  0  0  0  0  0  0  0  0  0  0
   49.1443    8.6582   12.2128 C   0  0  0  0  0  0  0  0  0  0  0  0
   48.5948    9.8182   12.7543 C   0  0  0  0  0  0  0  0  0  0  0  0
   46.0779    7.2513   12.6216 S   0  0  0  0  0  0  0  0  0  0  0  0
   45.0517    7.8600   11.8142 O   0  0  0  0  0  0  0  0  0  0  0  0
   46.6746    7.8829   13.7709 O   0  0  0  0  0  0  0  0  0  0  0  0
   45.5049    5.8226   13.0741 O   0  0  0  0  0  0  0  0  0  0  0  0
   47.2852    6.8080   11.6625 O   0  0  0  0  0  0  0  0  0  0  0  0
   46.0657    6.1676   13.0619 C   0  0  1  0  0  0  0  0  0  0  0  0
   47.1959    7.1713   12.9319 C   0  0  0  0  0  0  0  0  0  0  0  0
   45.2162    5.9893   11.7626 C   0  0  1  0  0  0  0  0  0  0  0  0
   44.2994    4.8224   11.8359 N   0  0  0  0  0  0  0  0  0  0  0  0
   46.6120    4.8922   13.4424 O   0  0  0  0  0  0  0  0  0  0  0  0
   47.1969    8.3374   13.7117 C   0  0  0  0  0  0  0  0  0  0  0  0
   48.2605    6.9534   12.0426 C   0  0  0  0  0  0  0  0  0  0  0  0
   43.1570    5.0037   12.7196 C   0  0  0  0  0  0  0  0  0  0  0  0
   44.4992    7.2784   11.3514 C   0  0  0  0  0  0  0  0  0  0  0  0
   48.2344    9.2645   13.6003 C   0  0  0  0  0  0  0  0  0  0  0  0
   49.2964    7.8815   11.9332 C   0  0  0  0  0  0  0  0  0  0  0  0
   49.2830    9.0366   12.7116 C   0  0  0  0  0  0  0  0  0  0  0  0
   46.6145    5.7742   11.0867 H   0  0  0  0  0  0  0  0  0  0  0  0
   44.8147    6.5365   13.4608 H   0  0  0  0  0  0  0  0  0  0  0  0
   43.9657    5.1855   11.5538 H   0  0  0  0  0  0  0  0  0  0  0  0
   45.3834    7.7219   10.2839 H   0  0  0  0  0  0  0  0  0  0  0  0
   45.3158    8.9324   12.7535 H   0  0  0  0  0  0  0  0  0  0  0  0
   48.7664    6.6903   11.4423 H   0  0  0  0  0  0  0  0  0  0  0  0
   43.7896    3.9911   14.2517 H   0  0  0  0  0  0  0  0  0  0  0  0
   42.6739    3.7377   12.9125 H   0  0  0  0  0  0  0  0  0  0  0  0
   42.8062    5.3444   13.6355 H   0  0  0  0  0  0  0  0  0  0  0  0
   47.1168    5.8585   14.1873 H   0  0  0  0  0  0  0  0  0  0  0  0
   46.9950    4.3703   13.2336 H   0  0  0  0  0  0  0  0  0  0  0  0
   45.9506    4.6234   14.6423 H   0  0  0  0  0  0  0  0  0  0  0  0
   46.7896   10.8175   13.3688 H   0  0  0  0  0  0  0  0  0  0  0  0
   50.2183    8.5857   12.0642 H   0  0  0  0  0  0  0  0  0  0  0  0
   49.2391   10.6502   13.0270 H   0  0  0  0  0  0  0  0  0  0  0  0
   44.8097    5.5745   12.4288 H   0  0  0  0  0  0  0  0  0  0  0  0
   48.0314    6.5375   12.2333 H   0  0  0  0  0  0  0  0  0  0  0  0
   45.4092    6.4706   13.8855 H   0  0  0  0  0  0  0  0  0  0  0  0
   45.9041    5.7338   10.9467 H   0  0  0  0  0  0  0  0  0  0  0  0
   44.8641    4.0509   12.2085 H   0  0  0  0  0  0  0  0  0  0  0  0
   47.4828    5.0590   13.8415 H   0  0  0  0  0  0  0  0  0  0  0  0
   46.3878    8.5352   14.4115 H   0  0  0  0  0  0  0  0  0  0  0  0
   48.2888    6.0546   11.4293 H   0  0  0  0  0  0  0  0  0  0  0  0
   43.4551    5.2573   13.7403 H   0  0  0  0  0  0  0  0  0  0  0  0
   42.4715    5.7684   12.3433 H   0  0  0  0  0  0  0  0  0  0  0  0
   42.5910    4.0677   12.7670 H   0  0  0  0  0  0  0  0  0  0  0  0
   45.2195    8.0551   11.0730 H   0  0  0  0  0  0  0  0  0  0  0  0
   43.8588    7.1078   10.4795 H   0  0  0  0  0  0  0  0  0  0  0  0
   43.8786    7.6761   12.1612 H   0  0  0  0  0  0  0  0  0  0  0  0
   48.2241   10.1661   14.2073 H   0  0  0  0  0  0  0  0  0  0  0  0
   50.1144    7.7030   11.2400 H   0  0  0  0  0  0  0  0  0  0  0  0
   50.0899    9.7595   12.6246 H   0  0  0  0  0  0  0  0  0  0  0  0
  2  1  1  0
  3  1  1  0
  4  3  1  0
  1  5  1  0
  6  2  2  0
  7  2  1  0
  8  4  1  0
  3  9  1  0
 10  6  1  0
 11  7  2  0
 12 10  2  0
 12 11  1  0
 14 13  2  0
 15 13  2  0
 16 13  1  0
 17 13  1  0
 19 18  1  0
 20 18  1  0
 21 20  1  0
 18 22  1  0
 23 19  2  0
 24 19  1  0
 25 21  1  0
 20 26  1  0
 27 23  1  0
 28 24  2  0
 29 27  2  0
 29 28  1  0
  1 30  1  6
  3 31  1  1
  4 32  1  0
  5 33  1  0
  6 34  1  0
  7 35  1  0
  8 36  1  0
  8 37  1  0
  8 38  1  0
  9 39  1  0
  9 40  1  0
  9 41  1  0
 10 42  1  0
 11 43  1  0
 12 44  1  0
 16 45  1  0
 17 46  1  0
 18 47  1  1
 20 48  1  6
 21 49  1  0
 22 50  1  0
 23 51  1  0
 24 52  1  0
 25 53  1  0
 25 54  1  0
 25 55  1  0
 26 56  1  0
 26 57  1  0
 26 58  1  0
 27 59  1  0
 28 60  1  0
 29 61  1  0
M  END
> <Uni-Dock RESULT> 
ENERGY=   -5.371  LOWER_BOUND=    1.919  UPPER_BOUND=    4.620
INTER + INTRA:          -5.371
INTER:                  -5.371
INTRA:                   0.000
UNBOUND:                 0.000

$$$$

     RDKit          3D

 61 60  0  0  0  0  0  0  0  0999 V2000
   47.6351    6.7259   18.7449 C   0  0  1  0  0  0  0  0  0  0  0  0
   48.2318    5.4718   18.1369 C   0  0  0  0  0  0  0  0  0  0  0  0
   47.9492    6.9112   20.2637 C   0  0  1  0  0  0  0  0  0  0  0  0
   47.4455    8.2369   20.7035 N   0  0  0  0  0  0  0  0  0  0  0  0
   48.1355    7.8698   18.0267 O   0  0  0  0  0  0  0  0  0  0  0  0
   49.6209    5.3301   17.9882 C   0  0  0  0  0  0  0  0  0  0  0  0
   47.3981    4.4269   17.7118 C   0  0  0  0  0  0  0  0  0  0  0  0
   48.1420    8.7306   21.8831 C   0  0  0  0  0  0  0  0  0  0  0  0
   47.3131    5.8021   21.1049 C   0  0  0  0  0  0  0  0  0  0  0  0
   50.1614    4.1725   17.4264 C   0  0  0  0  0  0  0  0  0  0  0  0
   47.9414    3.2688   17.1527 C   0  0  0  0  0  0  0  0  0  0  0  0
   49.3214    3.1425   17.0095 C   0  0  0  0  0  0  0  0  0  0  0  0
   48.5873    6.0310   19.0242 S   0  0  0  0  0  0  0  0  0  0  0  0
   49.2113    7.0970   18.2828 O   0  0  0  0  0  0  0  0  0  0  0  0
   49.2581    4.8105   19.3928 O   0  0  0  0  0  0  0  0  0  0  0  0
   47.9914    6.6990   20.3557 O   0  0  0  0  0  0  0  0  0  0  0  0
   47.2397    5.6036   18.2657 O   0  0  0  0  0  0  0  0  0  0  0  0
   47.9661    6.1393   20.0095 C   0  0  1  0  0  0  0  0  0  0  0  0
   48.1023    4.9742   19.0475 C   0  0  0  0  0  0  0  0  0  0  0  0
   47.6985    7.5136   19.3156 C   0  0  1  0  0  0  0  0  0  0  0  0
   47.3086    8.5738   20.2809 N   0  0  0  0  0  0  0  0  0  0  0  0
   46.8964    5.8645   20.9314 O   0  0  0  0  0  0  0  0  0  0  0  0
   49.3143    4.2742   18.9544 C   0  0  0  0  0  0  0  0  0  0  0  0
   47.0256    4.5690   18.2424 C   0  0  0  0  0  0  0  0  0  0  0  0
   48.3942    9.0570   21.1217 C   0  0  0  0  0  0  0  0  0  0  0  0
   48.8506    7.9415   18.4022 C   0  0  0  0  0  0  0  0  0  0  0  0
   49.4470    3.1992   18.0740 C   0  0  0  0  0  0  0  0  0  0  0  0
   47.1607    3.4941   17.3632 C   0  0  0  0  0  0  0  0  0  0  0  0
   48.3710    2.8099   17.2791 C   0  0  0  0  0  0  0  0  0  0  0  0
   46.5489    6.7282   18.5946 H   0  0  0  0  0  0  0  0  0  0  0  0
   49.0392    6.8896   20.3915 H   0  0  0  0  0  0  0  0  0  0  0  0
   47.6276    8.8830   19.9266 H   0  0  0  0  0  0  0  0  0  0  0  0
   48.2855    7.5841   17.1096 H   0  0  0  0  0  0  0  0  0  0  0  0
   50.2900    6.1285   18.3063 H   0  0  0  0  0  0  0  0  0  0  0  0
   46.3176    4.5057   17.8178 H   0  0  0  0  0  0  0  0  0  0  0  0
   47.9731    8.0904   22.7530 H   0  0  0  0  0  0  0  0  0  0  0  0
   47.7646    9.7268   22.1357 H   0  0  0  0  0  0  0  0  0  0  0  0
   49.2186    8.8194   21.7064 H   0  0  0  0  0  0  0  0  0  0  0  0
   47.6916    4.8173   20.8116 H   0  0  0  0  0  0  0  0  0  0  0  0
   46.2226    5.7915   20.9907 H   0  0  0  0  0  0  0  0  0  0  0  0
   47.5386    5.9240   22.1697 H   0  0  0  0  0  0  0  0  0  0  0  0
   51.2381    4.0744   17.3133 H   0  0  0  0  0  0  0  0  0  0  0  0
   47.2872    2.4639   16.8289 H   0  0  0  0  0  0  0  0  0  0  0  0
   49.7433    2.2405   16.5736 H   0  0  0  0  0  0  0  0  0  0  0  0
   47.8746    7.6545   20.1702 H   0  0  0  0  0  0  0  0  0  0  0  0
   46.9085    4.7875   18.6900 H   0  0  0  0  0  0  0  0  0  0  0  0
   48.8751    6.2112   20.6175 H   0  0  0  0  0  0  0  0  0  0  0  0
   46.8128    7.3984   18.6780 H   0  0  0  0  0  0  0  0  0  0  0  0
   46.6057    8.1447   20.8930 H   0  0  0  0  0  0  0  0  0  0  0  0
   46.7587    4.9019   20.9345 H   0  0  0  0  0  0  0  0  0  0  0  0
   50.1672    4.5617   19.5656 H   0  0  0  0  0  0  0  0  0  0  0  0
   46.0716    5.0902   18.2978 H   0  0  0  0  0  0  0  0  0  0  0  0
   48.8742    8.2532   21.6861 H   0  0  0  0  0  0  0  0  0  0  0  0
   49.1507    9.5905   20.5392 H   0  0  0  0  0  0  0  0  0  0  0  0
   47.9920    9.7715   21.8473 H   0  0  0  0  0  0  0  0  0  0  0  0
   48.9567    7.2528   17.5572 H   0  0  0  0  0  0  0  0  0  0  0  0
   48.6677    8.9368   17.9834 H   0  0  0  0  0  0  0  0  0  0  0  0
   49.8070    7.9633   18.9349 H   0  0  0  0  0  0  0  0  0  0  0  0
   50.3915    2.6652   18.0078 H   0  0  0  0  0  0  0  0  0  0  0  0
   46.3208    3.1906   16.7436 H   0  0  0  0  0  0  0  0  0  0  0  0
   48.4755    1.9735   16.5929 H   0  0  0  0  0  0  0  0  0  0  0  0
  2  1  1  0
  3  1  1  0
  4  3  1  0
  1  5  1  0
  6  2  2  0
  7  2  1  0
  8  4  1  0
  3  9  1  0
 10  6  1  0
 11  7  2  0
 12 10  2  0
 12 11  1  0
 14 13  2  0
 15 13  2  0
 16 13  1  0
 17 13  1  0
 19 18  1  0
 20 18  1  0
 21 20  1  0
 18 22  1  0
 23 19  2  0
 24 19  1  0
 25 21  1  0
 20 26  1  0
 27 23  1  0
 28 24  2  0
 29 27  2  0
 29 28  1  0
  1 30  1  6
  3 31  1  1
  4 32  1  0
  5 33  1  0
  6 34  1  0
  7 35  1  0
  8 36  1  0
  8 37  1  0
  8 38  1  0
  9 39  1  0
  9 40  1  0
  9 41  1  0
 10 42  1  0
 11 43  1  0
 12 44  1  0
 16 45  1  0
 17 46  1  0
 18 47  1  1
 20 48  1  6
 21 49  1  0
 22 50  1  0
 23 51  1  0
 24 52  1  0
 25 53  1  0
 25 54  1  0
 25 55  1  0
 26 56  1  0
 26 57  1  0
 26 58  1  0
 27 59  1  0
 28 60  1  0
 29 61  1  0
M  END
> <Uni-Dock RESULT> 
ENERGY=   -5.072  LOWER_BOUND=    6.159  UPPER_BOUND=    7.414
INTER + INTRA:          -5.072
INTER:                  -5.072
INTRA:                   0.000
UNBOUND:                 0.000

$$$$

     RDKit          3D

 61 60  0  0  0  0  0  0  0  0999 V2000
   49.1112    6.6160   18.2853 C   0  0  1  0  0  0  0  0  0  0  0  0
   48.7629    5.1849   17.9257 C   0  0  0  0  0  0  0  0  0  0  0  0
   48.8043    7.6510   17.1564 C   0  0  1  0  0  0  0  0  0  0  0  0
   49.0430    9.0205   17.6781 N   0  0  0  0  0  0  0  0  0  0  0  0
   48.3741    6.9875   19.4657 O   0  0  0  0  0  0  0  0  0  0  0  0
   47.4271    4.7853   17.7593 C   0  0  0  0  0  0  0  0  0  0  0  0
   49.7782    4.2328   17.7520 C   0  0  0  0  0  0  0  0  0  0  0  0
   48.2913   10.0307   16.9468 C   0  0  0  0  0  0  0  0  0  0  0  0
   49.6704    7.4016   15.9195 C   0  0  0  0  0  0  0  0  0  0  0  0
   47.1156    3.4656   17.4293 C   0  0  0  0  0  0  0  0  0  0  0  0
   49.4642    2.9139   17.4192 C   0  0  0  0  0  0  0  0  0  0  0  0
   48.1343    2.5308   17.2590 C   0  0  0  0  0  0  0  0  0  0  0  0
   48.3248    6.1143   17.5124 S   0  0  0  0  0  0  0  0  0  0  0  0
   47.4816    6.3935   18.6466 O   0  0  0  0  0  0  0  0  0  0  0  0
   47.9215    5.3007   16.3938 O   0  0  0  0  0  0  0  0  0  0  0  0
   48.8078    7.5374   16.9506 O   0  0  0  0  0  0  0  0  0  0  0  0
   49.7114    5.5080   18.0451 O   0  0  0  0  0  0  0  0  0  0  0  0
   48.9360    6.8942   16.8908 C   0  0  1  0  0  0  0  0  0  0  0  0
   49.0121    5.3795   16.9289 C   0  0  0  0  0  0  0  0  0  0  0  0
   48.9056    7.5687   18.3000 C   0  0  1  0  0  0  0  0  0  0  0  0
   49.0991    9.0404   18.2325 N   0  0  0  0  0  0  0  0  0  0  0  0
   50.0618    7.4024   16.1530 O   0  0  0  0  0  0  0  0  0  0  0  0
   47.9629    4.6072   16.4088 C   0  0  0  0  0  0  0  0  0  0  0  0
   50.1278    4.7231   17.4729 C   0  0  0  0  0  0  0  0  0  0  0  0
   47.9600    9.7780   17.7058 C   0  0  0  0  0  0  0  0  0  0  0  0
   47.6687    7.1725   19.1111 C   0  0  0  0  0  0  0  0  0  0  0  0
   48.0264    3.2131   16.4375 C   0  0  0  0  0  0  0  0  0  0  0  0
   50.1889    3.3295   17.5002 C   0  0  0  0  0  0  0  0  0  0  0  0
   49.1384    2.5751   16.9829 C   0  0  0  0  0  0  0  0  0  0  0  0
   50.1709    6.6801   18.5600 H   0  0  0  0  0  0  0  0  0  0  0  0
   47.7443    7.5575   16.8873 H   0  0  0  0  0  0  0  0  0  0  0  0
   48.7159    9.0158   18.6513 H   0  0  0  0  0  0  0  0  0  0  0  0
   48.2617    6.1794   19.9944 H   0  0  0  0  0  0  0  0  0  0  0  0
   46.6197    5.5042   17.8927 H   0  0  0  0  0  0  0  0  0  0  0  0
   50.8233    4.5133   17.8702 H   0  0  0  0  0  0  0  0  0  0  0  0
   48.6066   10.0954   15.9020 H   0  0  0  0  0  0  0  0  0  0  0  0
   48.4677   11.0116   17.3999 H   0  0  0  0  0  0  0  0  0  0  0  0
   47.2147    9.8369   16.9854 H   0  0  0  0  0  0  0  0  0  0  0  0
   49.4897    6.4043   15.5051 H   0  0  0  0  0  0  0  0  0  0  0  0
   50.7377    7.4786   16.1587 H   0  0  0  0  0  0  0  0  0  0  0  0
   49.4516    8.1204   15.1226 H   0  0  0  0  0  0  0  0  0  0  0  0
   46.0779    3.1662   17.3058 H   0  0  0  0  0  0  0  0  0  0  0  0
   50.2581    2.1843   17.2842 H   0  0  0  0  0  0  0  0  0  0  0  0
   47.8909    1.5034   17.0004 H   0  0  0  0  0  0  0  0  0  0  0  0
   48.7261    8.1796   17.6869 H   0  0  0  0  0  0  0  0  0  0  0  0
   50.2098    5.1849   17.2685 H   0  0  0  0  0  0  0  0  0  0  0  0
   48.0464    7.1951   16.3257 H   0  0  0  0  0  0  0  0  0  0  0  0
   49.7802    7.2128   18.8590 H   0  0  0  0  0  0  0  0  0  0  0  0
   49.8888    9.1858   17.5935 H   0  0  0  0  0  0  0  0  0  0  0  0
   50.3895    6.6787   15.5925 H   0  0  0  0  0  0  0  0  0  0  0  0
   47.0852    5.0849   15.9787 H   0  0  0  0  0  0  0  0  0  0  0  0
   50.9591    5.2969   17.8784 H   0  0  0  0  0  0  0  0  0  0  0  0
   47.6649    9.4351   16.7107 H   0  0  0  0  0  0  0  0  0  0  0  0
   47.0977    9.7239   18.3765 H   0  0  0  0  0  0  0  0  0  0  0  0
   48.2288   10.8359   17.6212 H   0  0  0  0  0  0  0  0  0  0  0  0
   47.6818    6.1031   19.3475 H   0  0  0  0  0  0  0  0  0  0  0  0
   47.6381    7.7110   20.0643 H   0  0  0  0  0  0  0  0  0  0  0  0
   46.7409    7.3813   18.5684 H   0  0  0  0  0  0  0  0  0  0  0  0
   47.2066    2.6241   16.0341 H   0  0  0  0  0  0  0  0  0  0  0  0
   51.0569    2.8323   17.9255 H   0  0  0  0  0  0  0  0  0  0  0  0
   49.1866    1.4895   17.0059 H   0  0  0  0  0  0  0  0  0  0  0  0
  2  1  1  0
  3  1  1  0
  4  3  1  0
  1  5  1  0
  6  2  2  0
  7  2  1  0
  8  4  1  0
  3  9  1  0
 10  6  1  0
 11  7  2  0
 12 10  2  0
 12 11  1  0
 14 13  2  0
 15 13  2  0
 16 13  1  0
 17 13  1  0
 19 18  1  0
 20 18  1  0
 21 20  1  0
 18 22  1  0
 23 19  2  0
 24 19  1  0
 25 21  1  0
 20 26  1  0
 27 23  1  0
 28 24  2  0
 29 27  2  0
 29 28  1  0
  1 30  1  6
  3 31  1  1
  4 32  1  0
  5 33  1  0
  6 34  1  0
  7 35  1  0
  8 36  1  0
  8 37  1  0
  8 38  1  0
  9 39  1  0
  9 40  1  0
  9 41  1  0
 10 42  1  0
 11 43  1  0
 12 44  1  0
 16 45  1  0
 17 46  1  0
 18 47  1  1
 20 48  1  6
 21 49  1  0
 22 50  1  0
 23 51  1  0
 24 52  1  0
 25 53  1  0
 25 54  1  0
 25 55  1  0
 26 56  1  0
 26 57  1  0
 26 58  1  0
 27 59  1  0
 28 60  1  0
 29 61  1  0
M  END
> <Uni-Dock RESULT> 
ENERGY=   -4.951  LOWER_BOUND=    5.156  UPPER_BOUND=    6.245
INTER + INTRA:          -4.951
INTER:                  -4.951
INTRA:                   0.000
UNBOUND:                 0.000

$$$$

     RDKit          3D

 61 60  0  0  0  0  0  0  0  0999 V2000
   48.7580    5.0194   17.3948 C   0  0  1  0  0  0  0  0  0  0  0  0
   48.5619    5.5332   18.8075 C   0  0  0  0  0  0  0  0  0  0  0  0
   47.4426    4.5431   16.7000 C   0  0  1  0  0  0  0  0  0  0  0  0
   47.7375    4.2089   15.2836 N   0  0  0  0  0  0  0  0  0  0  0  0
   49.3469    6.0668   16.6005 O   0  0  0  0  0  0  0  0  0  0  0  0
   47.8607    6.7247   19.0534 C   0  0  0  0  0  0  0  0  0  0  0  0
   49.0816    4.8196   19.8976 C   0  0  0  0  0  0  0  0  0  0  0  0
   46.5560    4.2944   14.4368 C   0  0  0  0  0  0  0  0  0  0  0  0
   46.8430    3.3286   17.4124 C   0  0  0  0  0  0  0  0  0  0  0  0
   47.6858    7.1909   20.3571 C   0  0  0  0  0  0  0  0  0  0  0  0
   48.9030    5.2865   21.2011 C   0  0  0  0  0  0  0  0  0  0  0  0
   48.2067    6.4713   21.4301 C   0  0  0  0  0  0  0  0  0  0  0  0
   47.8182    5.5019   17.9876 S   0  0  0  0  0  0  0  0  0  0  0  0
   48.3349    6.6452   17.2798 O   0  0  0  0  0  0  0  0  0  0  0  0
   46.8250    5.5839   19.0281 O   0  0  0  0  0  0  0  0  0  0  0  0
   47.2899    4.4815   16.8677 O   0  0  0  0  0  0  0  0  0  0  0  0
   49.0533    4.6778   18.5955 O   0  0  0  0  0  0  0  0  0  0  0  0
   47.4246    4.5083   17.5118 C   0  0  1  0  0  0  0  0  0  0  0  0
   47.7880    4.8438   18.9461 C   0  0  0  0  0  0  0  0  0  0  0  0
   48.4875    4.9619   16.4600 C   0  0  1  0  0  0  0  0  0  0  0  0
   48.2357    4.3907   15.1116 N   0  0  0  0  0  0  0  0  0  0  0  0
   47.2294    3.0875   17.3970 O   0  0  0  0  0  0  0  0  0  0  0  0
   46.9924    5.7307   19.6864 C   0  0  0  0  0  0  0  0  0  0  0  0
   48.9135    4.2726   19.5614 C   0  0  0  0  0  0  0  0  0  0  0  0
   47.0982    4.9690   14.4112 C   0  0  0  0  0  0  0  0  0  0  0  0
   48.6710    6.4819   16.4325 C   0  0  0  0  0  0  0  0  0  0  0  0
   47.3182    6.0424   21.0074 C   0  0  0  0  0  0  0  0  0  0  0  0
   49.2369    4.5856   20.8821 C   0  0  0  0  0  0  0  0  0  0  0  0
   48.4396    5.4704   21.6044 C   0  0  0  0  0  0  0  0  0  0  0  0
   49.4859    4.1992   17.3980 H   0  0  0  0  0  0  0  0  0  0  0  0
   46.7251    5.3734   16.7229 H   0  0  0  0  0  0  0  0  0  0  0  0
   48.4171    4.9078   14.9615 H   0  0  0  0  0  0  0  0  0  0  0  0
   49.9038    6.5947   17.1975 H   0  0  0  0  0  0  0  0  0  0  0  0
   47.4508    7.2999   18.2241 H   0  0  0  0  0  0  0  0  0  0  0  0
   49.6262    3.8905   19.7392 H   0  0  0  0  0  0  0  0  0  0  0  0
   45.7976    3.5600   14.7213 H   0  0  0  0  0  0  0  0  0  0  0  0
   46.8379    4.0841   13.4000 H   0  0  0  0  0  0  0  0  0  0  0  0
   46.1140    5.2954   14.4633 H   0  0  0  0  0  0  0  0  0  0  0  0
   46.5953    3.5631   18.4529 H   0  0  0  0  0  0  0  0  0  0  0  0
   47.5415    2.4833   17.4148 H   0  0  0  0  0  0  0  0  0  0  0  0
   45.9157    2.9972   16.9330 H   0  0  0  0  0  0  0  0  0  0  0  0
   47.1438    8.1161   20.5359 H   0  0  0  0  0  0  0  0  0  0  0  0
   49.3072    4.7251   22.0390 H   0  0  0  0  0  0  0  0  0  0  0  0
   48.0687    6.8342   22.4454 H   0  0  0  0  0  0  0  0  0  0  0  0
   47.7576    4.7020   16.0348 H   0  0  0  0  0  0  0  0  0  0  0  0
   48.6875    3.9970   19.1943 H   0  0  0  0  0  0  0  0  0  0  0  0
   46.4579    4.9645   17.2701 H   0  0  0  0  0  0  0  0  0  0  0  0
   49.4527    4.5301   16.7537 H   0  0  0  0  0  0  0  0  0  0  0  0
   48.0357    3.3962   15.2663 H   0  0  0  0  0  0  0  0  0  0  0  0
   47.0455    2.7487   18.2896 H   0  0  0  0  0  0  0  0  0  0  0  0
   46.1127    6.1890   19.2395 H   0  0  0  0  0  0  0  0  0  0  0  0
   49.5456    3.5767   19.0130 H   0  0  0  0  0  0  0  0  0  0  0  0
   46.1709    4.8897   14.9847 H   0  0  0  0  0  0  0  0  0  0  0  0
   47.2731    6.0168   14.1509 H   0  0  0  0  0  0  0  0  0  0  0  0
   46.9480    4.4303   13.4699 H   0  0  0  0  0  0  0  0  0  0  0  0
   49.0877    6.8430   17.3788 H   0  0  0  0  0  0  0  0  0  0  0  0
   49.3691    6.7765   15.6417 H   0  0  0  0  0  0  0  0  0  0  0  0
   47.7231    7.0042   16.2663 H   0  0  0  0  0  0  0  0  0  0  0  0
   46.6963    6.7330   21.5713 H   0  0  0  0  0  0  0  0  0  0  0  0
   50.1117    4.1387   21.3474 H   0  0  0  0  0  0  0  0  0  0  0  0
   48.6932    5.7144   22.6327 H   0  0  0  0  0  0  0  0  0  0  0  0
  2  1  1  0
  3  1  1  0
  4  3  1  0
  1  5  1  0
  6  2  2  0
  7  2  1  0
  8  4  1  0
  3  9  1  0
 10  6  1  0
 11  7  2  0
 12 10  2  0
 12 11  1  0
 14 13  2  0
 15 13  2  0
 16 13  1  0
 17 13  1  0
 19 18  1  0
 20 18  1  0
 21 20  1  0
 18 22  1  0
 23 19  2  0
 24 19  1  0
 25 21  1  0
 20 26  1  0
 27 23  1  0
 28 24  2  0
 29 27  2  0
 29 28  1  0
  1 30  1  6
  3 31  1  1
  4 32  1  0
  5 33  1  0
  6 34  1  0
  7 35  1  0
  8 36  1  0
  8 37  1  0
  8 38  1  0
  9 39  1  0
  9 40  1  0
  9 41  1  0
 10 42  1  0
 11 43  1  0
 12 44  1  0
 16 45  1  0
 17 46  1  0
 18 47  1  1
 20 48  1  6
 21 49  1  0
 22 50  1  0
 23 51  1  0
 24 52  1  0
 25 53  1  0
 25 54  1  0
 25 55  1  0
 26 56  1  0
 26 57  1  0
 26 58  1  0
 27 59  1  0
 28 60  1  0
 29 61  1  0
M  END
> <Uni-Dock RESULT> 
ENERGY=   -4.882  LOWER_BOUND=    4.944  UPPER_BOUND=    7.476
INTER + INTRA:          -4.882
INTER:                  -4.882
INTRA:                   0.000
UNBOUND:                 0.000

$$$$

     RDKit          3D

 61 60  0  0  0  0  0  0  0  0999 V2000
   40.3486   12.8013   14.2436 C   0  0  1  0  0  0  0  0  0  0  0  0
   39.8433   11.8824   13.1488 C   0  0  0  0  0  0  0  0  0  0  0  0
   39.9066   14.2907   14.0820 C   0  0  1  0  0  0  0  0  0  0  0  0
   40.3307   15.0540   15.2828 N   0  0  0  0  0  0  0  0  0  0  0  0
   39.8721   12.3130   15.5122 O   0  0  0  0  0  0  0  0  0  0  0  0
   38.4760   11.5869   13.0258 C   0  0  0  0  0  0  0  0  0  0  0  0
   40.7414   11.3105   12.2356 C   0  0  0  0  0  0  0  0  0  0  0  0
   39.5255   16.2490   15.4925 C   0  0  0  0  0  0  0  0  0  0  0  0
   40.5073   14.9178   12.8217 C   0  0  0  0  0  0  0  0  0  0  0  0
   38.0198   10.7391   12.0155 C   0  0  0  0  0  0  0  0  0  0  0  0
   40.2823   10.4649   11.2242 C   0  0  0  0  0  0  0  0  0  0  0  0
   38.9232   10.1790   11.1151 C   0  0  0  0  0  0  0  0  0  0  0  0
   39.3994   12.8372   13.4918 S   0  0  0  0  0  0  0  0  0  0  0  0
   38.8041   12.2986   14.6879 O   0  0  0  0  0  0  0  0  0  0  0  0
   38.7400   12.8681   12.2112 O   0  0  0  0  0  0  0  0  0  0  0  0
   39.8639   14.3296   13.8541 O   0  0  0  0  0  0  0  0  0  0  0  0
   40.8170   12.1220   13.2614 O   0  0  0  0  0  0  0  0  0  0  0  0
   39.9349   13.8718   13.3860 C   0  0  1  0  0  0  0  0  0  0  0  0
   39.9142   12.6683   12.4626 C   0  0  0  0  0  0  0  0  0  0  0  0
   40.2142   13.5242   14.8836 C   0  0  1  0  0  0  0  0  0  0  0  0
   40.4907   14.7296   15.7072 N   0  0  0  0  0  0  0  0  0  0  0  0
   40.9346   14.7989   12.9265 O   0  0  0  0  0  0  0  0  0  0  0  0
   38.7366   12.3190   11.7853 C   0  0  0  0  0  0  0  0  0  0  0  0
   41.0650   11.8894   12.2608 C   0  0  0  0  0  0  0  0  0  0  0  0
   39.3257   15.5597   15.9769 C   0  0  0  0  0  0  0  0  0  0  0  0
   39.1269   12.6321   15.4892 C   0  0  0  0  0  0  0  0  0  0  0  0
   38.7099   11.2148   10.9317 C   0  0  0  0  0  0  0  0  0  0  0  0
   41.0359   10.7864   11.4070 C   0  0  0  0  0  0  0  0  0  0  0  0
   39.8586   10.4493   10.7431 C   0  0  0  0  0  0  0  0  0  0  0  0
   41.4428   12.7493   14.2934 H   0  0  0  0  0  0  0  0  0  0  0  0
   38.8111   14.3162   14.0184 H   0  0  0  0  0  0  0  0  0  0  0  0
   40.1918   14.4262   16.0833 H   0  0  0  0  0  0  0  0  0  0  0  0
   39.8061   11.3460   15.4359 H   0  0  0  0  0  0  0  0  0  0  0  0
   37.7583   12.0147   13.7246 H   0  0  0  0  0  0  0  0  0  0  0  0
   41.8068   11.5239   12.3028 H   0  0  0  0  0  0  0  0  0  0  0  0
   39.6435   16.9674   14.6769 H   0  0  0  0  0  0  0  0  0  0  0  0
   39.8494   16.7469   16.4122 H   0  0  0  0  0  0  0  0  0  0  0  0
   38.4645   16.0042   15.6045 H   0  0  0  0  0  0  0  0  0  0  0  0
   40.1853   14.3829   11.9221 H   0  0  0  0  0  0  0  0  0  0  0  0
   41.6032   14.8985   12.8509 H   0  0  0  0  0  0  0  0  0  0  0  0
   40.1924   15.9598   12.7006 H   0  0  0  0  0  0  0  0  0  0  0  0
   36.9595   10.5147   11.9312 H   0  0  0  0  0  0  0  0  0  0  0  0
   40.9859   10.0288   10.5201 H   0  0  0  0  0  0  0  0  0  0  0  0
   38.5669    9.5199   10.3275 H   0  0  0  0  0  0  0  0  0  0  0  0
   39.9649   14.3704   14.8284 H   0  0  0  0  0  0  0  0  0  0  0  0
   41.1384   12.3826   12.3756 H   0  0  0  0  0  0  0  0  0  0  0  0
   38.9777   14.4002   13.3089 H   0  0  0  0  0  0  0  0  0  0  0  0
   41.1519   12.9556   14.9247 H   0  0  0  0  0  0  0  0  0  0  0  0
   41.1549   15.2901   15.1616 H   0  0  0  0  0  0  0  0  0  0  0  0
   41.1020   14.6013   11.9894 H   0  0  0  0  0  0  0  0  0  0  0  0
   37.8282   12.9027   11.9185 H   0  0  0  0  0  0  0  0  0  0  0  0
   41.9944   12.1405   12.7688 H   0  0  0  0  0  0  0  0  0  0  0  0
   38.8272   15.8892   15.0615 H   0  0  0  0  0  0  0  0  0  0  0  0
   38.6024   15.0464   16.6169 H   0  0  0  0  0  0  0  0  0  0  0  0
   39.6448   16.4570   16.5171 H   0  0  0  0  0  0  0  0  0  0  0  0
   39.1117   11.6500   15.0046 H   0  0  0  0  0  0  0  0  0  0  0  0
   39.3116   12.4607   16.5551 H   0  0  0  0  0  0  0  0  0  0  0  0
   38.1303   13.0720   15.3794 H   0  0  0  0  0  0  0  0  0  0  0  0
   37.7913   10.9513   10.4137 H   0  0  0  0  0  0  0  0  0  0  0  0
   41.9325   10.1897   11.2600 H   0  0  0  0  0  0  0  0  0  0  0  0
   39.8368    9.5890   10.0792 H   0  0  0  0  0  0  0  0  0  0  0  0
  2  1  1  0
  3  1  1  0
  4  3  1  0
  1  5  1  0
  6  2  2  0
  7  2  1  0
  8  4  1  0
  3  9  1  0
 10  6  1  0
 11  7  2  0
 12 10  2  0
 12 11  1  0
 14 13  2  0
 15 13  2  0
 16 13  1  0
 17 13  1  0
 19 18  1  0
 20 18  1  0
 21 20  1  0
 18 22  1  0
 23 19  2  0
 24 19  1  0
 25 21  1  0
 20 26  1  0
 27 23  1  0
 28 24  2  0
 29 27  2  0
 29 28  1  0
  1 30  1  6
  3 31  1  1
  4 32  1  0
  5 33  1  0
  6 34  1  0
  7 35  1  0
  8 36  1  0
  8 37  1  0
  8 38  1  0
  9 39  1  0
  9 40  1  0
  9 41  1  0
 10 42  1  0
 11 43  1  0
 12 44  1  0
 16 45  1  0
 17 46  1  0
 18 47  1  1
 20 48  1  6
 21 49  1  0
 22 50  1  0
 23 51  1  0
 24 52  1  0
 25 53  1  0
 25 54  1  0
 25 55  1  0
 26 56  1  0
 26 57  1  0
 26 58  1  0
 27 59  1  0
 28 60  1  0
 29 61  1  0
M  END
> <Uni-Dock RESULT> 
ENERGY=   -4.841  LOWER_BOUND=    7.961  UPPER_BOUND=    9.076
INTER + INTRA:          -4.841
INTER:                  -4.841
INTRA:                   0.000
UNBOUND:                 0.000

$$$$

     RDKit          3D

 61 60  0  0  0  0  0  0  0  0999 V2000
   50.9568    4.4575   19.1615 C   0  0  1  0  0  0  0  0  0  0  0  0
   49.6501    4.1592   18.4530 C   0  0  0  0  0  0  0  0  0  0  0  0
   51.6485    5.7785   18.6963 C   0  0  1  0  0  0  0  0  0  0  0  0
   52.8278    6.0372   19.5605 N   0  0  0  0  0  0  0  0  0  0  0  0
   50.7053    4.5415   20.5772 O   0  0  0  0  0  0  0  0  0  0  0  0
   48.5170    4.9633   18.6558 C   0  0  0  0  0  0  0  0  0  0  0  0
   49.5542    3.0675   17.5775 C   0  0  0  0  0  0  0  0  0  0  0  0
   53.1954    7.4459   19.5890 C   0  0  0  0  0  0  0  0  0  0  0  0
   52.0795    5.6968   17.2300 C   0  0  0  0  0  0  0  0  0  0  0  0
   47.3178    4.6806   18.0003 C   0  0  0  0  0  0  0  0  0  0  0  0
   48.3543    2.7883   16.9207 C   0  0  0  0  0  0  0  0  0  0  0  0
   47.2374    3.5936   17.1328 C   0  0  0  0  0  0  0  0  0  0  0  0
   50.1286    5.1460   18.6069 S   0  0  0  0  0  0  0  0  0  0  0  0
   49.7422    5.2803   19.9882 O   0  0  0  0  0  0  0  0  0  0  0  0
   49.3203    5.5917   17.5007 O   0  0  0  0  0  0  0  0  0  0  0  0
   51.5763    5.8253   18.4774 O   0  0  0  0  0  0  0  0  0  0  0  0
   50.4852    3.6073   18.3247 O   0  0  0  0  0  0  0  0  0  0  0  0
   51.1597    5.4422   18.1407 C   0  0  1  0  0  0  0  0  0  0  0  0
   50.0254    4.6028   17.5836 C   0  0  0  0  0  0  0  0  0  0  0  0
   51.5692    5.0742   19.6031 C   0  0  1  0  0  0  0  0  0  0  0  0
   52.8403    5.7212   20.0197 N   0  0  0  0  0  0  0  0  0  0  0  0
   52.3083    5.3065   17.2850 O   0  0  0  0  0  0  0  0  0  0  0  0
   48.8052    5.2041   17.2411 C   0  0  0  0  0  0  0  0  0  0  0  0
   50.1731    3.2196   17.3924 C   0  0  0  0  0  0  0  0  0  0  0  0
   52.7399    7.1526   20.2644 C   0  0  0  0  0  0  0  0  0  0  0  0
   50.4335    5.3051   20.6039 C   0  0  0  0  0  0  0  0  0  0  0  0
   47.7575    4.4395   16.7253 C   0  0  0  0  0  0  0  0  0  0  0  0
   49.1245    2.4575   16.8765 C   0  0  0  0  0  0  0  0  0  0  0  0
   47.9172    3.0674   16.5435 C   0  0  0  0  0  0  0  0  0  0  0  0
   51.6490    3.6175   19.0285 H   0  0  0  0  0  0  0  0  0  0  0  0
   50.9328    6.6010   18.8232 H   0  0  0  0  0  0  0  0  0  0  0  0
   52.5534    5.7556   20.5089 H   0  0  0  0  0  0  0  0  0  0  0  0
   49.9697    3.9356   20.7699 H   0  0  0  0  0  0  0  0  0  0  0  0
   48.5638    5.8145   19.3339 H   0  0  0  0  0  0  0  0  0  0  0  0
   50.4165    2.4282   17.3967 H   0  0  0  0  0  0  0  0  0  0  0  0
   53.5141    7.8031   18.6061 H   0  0  0  0  0  0  0  0  0  0  0  0
   54.0380    7.5863   20.2737 H   0  0  0  0  0  0  0  0  0  0  0  0
   52.3701    8.0694   19.9472 H   0  0  0  0  0  0  0  0  0  0  0  0
   51.2188    5.5310   16.5737 H   0  0  0  0  0  0  0  0  0  0  0  0
   52.7889    4.8764   17.0687 H   0  0  0  0  0  0  0  0  0  0  0  0
   52.5572    6.6247   16.8979 H   0  0  0  0  0  0  0  0  0  0  0  0
   46.4458    5.3080   18.1668 H   0  0  0  0  0  0  0  0  0  0  0  0
   48.2909    1.9418   16.2424 H   0  0  0  0  0  0  0  0  0  0  0  0
   46.3034    3.3750   16.6213 H   0  0  0  0  0  0  0  0  0  0  0  0
   51.9748    5.8250   19.3732 H   0  0  0  0  0  0  0  0  0  0  0  0
   50.5978    3.5030   17.3591 H   0  0  0  0  0  0  0  0  0  0  0  0
   50.8777    6.5004   18.0987 H   0  0  0  0  0  0  0  0  0  0  0  0
   51.7995    4.0014   19.6250 H   0  0  0  0  0  0  0  0  0  0  0  0
   53.4899    5.5821   19.2376 H   0  0  0  0  0  0  0  0  0  0  0  0
   51.9878    5.0047   16.4180 H   0  0  0  0  0  0  0  0  0  0  0  0
   48.6590    6.2738   17.3754 H   0  0  0  0  0  0  0  0  0  0  0  0
   51.1107    2.7273   17.6440 H   0  0  0  0  0  0  0  0  0  0  0  0
   52.3571    7.6982   19.3979 H   0  0  0  0  0  0  0  0  0  0  0  0
   52.1139    7.3716   21.1342 H   0  0  0  0  0  0  0  0  0  0  0  0
   53.7370    7.5471   20.4854 H   0  0  0  0  0  0  0  0  0  0  0  0
   49.5929    4.6319   20.4041 H   0  0  0  0  0  0  0  0  0  0  0  0
   50.7683    5.1047   21.6272 H   0  0  0  0  0  0  0  0  0  0  0  0
   50.0544    6.3314   20.5609 H   0  0  0  0  0  0  0  0  0  0  0  0
   46.8152    4.9150   16.4656 H   0  0  0  0  0  0  0  0  0  0  0  0
   49.2498    1.3872   16.7345 H   0  0  0  0  0  0  0  0  0  0  0  0
   47.1006    2.4724   16.1428 H   0  0  0  0  0  0  0  0  0  0  0  0
  2  1  1  0
  3  1  1  0
  4  3  1  0
  1  5  1  0
  6  2  2  0
  7  2  1  0
  8  4  1  0
  3  9  1  0
 10  6  1  0
 11  7  2  0
 12 10  2  0
 12 11  1  0
 14 13  2  0
 15 13  2  0
 16 13  1  0
 17 13  1  0
 19 18  1  0
 20 18  1  0
 21 20  1  0
 18 22  1  0
 23 19  2  0
 24 19  1  0
 25 21  1  0
 20 26  1  0
 27 23  1  0
 28 24  2  0
 29 27  2  0
 29 28  1  0
  1 30  1  6
  3 31  1  1
  4 32  1  0
  5 33  1  0
  6 34  1  0
  7 35  1  0
  8 36  1  0
  8 37  1  0
  8 38  1  0
  9 39  1  0
  9 40  1  0
  9 41  1  0
 10 42  1  0
 11 43  1  0
 12 44  1  0
 16 45  1  0
 17 46  1  0
 18 47  1  1
 20 48  1  6
 21 49  1  0
 22 50  1  0
 23 51  1  0
 24 52  1  0
 25 53  1  0
 25 54  1  0
 25 55  1  0
 26 56  1  0
 26 57  1  0
 26 58  1  0
 27 59  1  0
 28 60  1  0
 29 61  1  0
M  END
> <Uni-Dock RESULT> 
ENERGY=   -4.749  LOWER_BOUND=    6.037  UPPER_BOUND=    7.661
INTER + INTRA:          -4.749
INTER:                  -4.749
INTRA:                   0.000
UNBOUND:                 0.000

$$$$
