
     RDKit          3D

 61 60  0  0  0  0  0  0  0  0999 V2000
   46.6473    5.1760   13.0904 C   0  0  1  0  0  0  0  0  0  0  0  0
   45.3145    5.0904   12.3696 C   0  0  0  0  0  0  0  0  0  0  0  0
   47.3340    6.5777   12.9871 C   0  0  1  0  0  0  0  0  0  0  0  0
   48.5624    6.5831   13.8188 N   0  0  0  0  0  0  0  0  0  0  0  0
   46.4618    4.8601   14.4806 O   0  0  0  0  0  0  0  0  0  0  0  0
   44.2200    5.8796   12.7603 C   0  0  0  0  0  0  0  0  0  0  0  0
   45.1565    4.2164   11.2877 C   0  0  0  0  0  0  0  0  0  0  0  0
   48.9508    7.9265   14.2232 C   0  0  0  0  0  0  0  0  0  0  0  0
   47.6757    6.9332   11.5374 C   0  0  0  0  0  0  0  0  0  0  0  0
   43.0022    5.7986   12.0826 C   0  0  0  0  0  0  0  0  0  0  0  0
   43.9409    4.1434   10.6040 C   0  0  0  0  0  0  0  0  0  0  0  0
   42.8670    4.9349   10.9991 C   0  0  0  0  0  0  0  0  0  0  0  0
   46.0955    6.4443   12.3897 S   0  0  0  0  0  0  0  0  0  0  0  0
   44.9859    7.3060   12.7229 O   0  0  0  0  0  0  0  0  0  0  0  0
   47.3326    6.9380   11.8396 O   0  0  0  0  0  0  0  0  0  0  0  0
   46.4863    5.6336   13.7160 O   0  0  0  0  0  0  0  0  0  0  0  0
   45.5396    5.2644   11.4553 O   0  0  0  0  0  0  0  0  0  0  0  0
   45.4093    7.4759   12.8668 C   0  0  1  0  0  0  0  0  0  0  0  0
   45.0035    6.0950   12.3957 C   0  0  0  0  0  0  0  0  0  0  0  0
   46.9209    7.7414   13.1850 C   0  0  1  0  0  0  0  0  0  0  0  0
   47.4357    7.1479   14.4415 N   0  0  0  0  0  0  0  0  0  0  0  0
   44.9577    8.4326   11.8911 O   0  0  0  0  0  0  0  0  0  0  0  0
   44.3191    5.2202   13.2555 C   0  0  0  0  0  0  0  0  0  0  0  0
   45.2561    5.6721   11.0805 C   0  0  0  0  0  0  0  0  0  0  0  0
   47.7543    5.7303   14.3765 C   0  0  0  0  0  0  0  0  0  0  0  0
   47.8733    7.5511   11.9950 C   0  0  0  0  0  0  0  0  0  0  0  0
   43.9203    3.9540   12.8205 C   0  0  0  0  0  0  0  0  0  0  0  0
   44.8522    4.4097   10.6428 C   0  0  0  0  0  0  0  0  0  0  0  0
   44.1876    3.5496   11.5139 C   0  0  0  0  0  0  0  0  0  0  0  0
   47.3327    4.4116   12.7012 H   0  0  0  0  0  0  0  0  0  0  0  0
   46.6375    7.3236   13.3934 H   0  0  0  0  0  0  0  0  0  0  0  0
   48.3432    6.0387   14.6623 H   0  0  0  0  0  0  0  0  0  0  0  0
   45.5335    4.6032   14.6156 H   0  0  0  0  0  0  0  0  0  0  0  0
   44.3097    6.5669   13.5995 H   0  0  0  0  0  0  0  0  0  0  0  0
   45.9865    3.5937   10.9605 H   0  0  0  0  0  0  0  0  0  0  0  0
   48.1565    8.4199   14.7913 H   0  0  0  0  0  0  0  0  0  0  0  0
   49.2113    8.5480   13.3645 H   0  0  0  0  0  0  0  0  0  0  0  0
   49.8352    7.8774   14.8684 H   0  0  0  0  0  0  0  0  0  0  0  0
   48.3810    6.2132   11.1063 H   0  0  0  0  0  0  0  0  0  0  0  0
   46.7805    6.9479   10.9051 H   0  0  0  0  0  0  0  0  0  0  0  0
   48.1257    7.9300   11.4646 H   0  0  0  0  0  0  0  0  0  0  0  0
   42.1634    6.4171   12.3914 H   0  0  0  0  0  0  0  0  0  0  0  0
   43.8412    3.4751    9.7548 H   0  0  0  0  0  0  0  0  0  0  0  0
   41.9200    4.8797   10.4663 H   0  0  0  0  0  0  0  0  0  0  0  0
   47.2837    6.0662   14.0872 H   0  0  0  0  0  0  0  0  0  0  0  0
   44.9225    4.7258   11.9858 H   0  0  0  0  0  0  0  0  0  0  0  0
   44.8365    7.7172   13.7740 H   0  0  0  0  0  0  0  0  0  0  0  0
   46.9582    8.8252   13.3822 H   0  0  0  0  0  0  0  0  0  0  0  0
   48.2869    7.6451   14.7025 H   0  0  0  0  0  0  0  0  0  0  0  0
   44.0579    8.1540   11.6465 H   0  0  0  0  0  0  0  0  0  0  0  0
   44.0943    5.5188   14.2775 H   0  0  0  0  0  0  0  0  0  0  0  0
   45.7603    6.3340   10.3794 H   0  0  0  0  0  0  0  0  0  0  0  0
   48.1985    5.4221   15.3283 H   0  0  0  0  0  0  0  0  0  0  0  0
   46.8693    5.1089   14.2359 H   0  0  0  0  0  0  0  0  0  0  0  0
   48.4882    5.4993   13.6013 H   0  0  0  0  0  0  0  0  0  0  0  0
   47.9313    6.5099   11.6685 H   0  0  0  0  0  0  0  0  0  0  0  0
   47.5581    8.1564   11.1374 H   0  0  0  0  0  0  0  0  0  0  0  0
   48.8906    7.8693   12.2568 H   0  0  0  0  0  0  0  0  0  0  0  0
   43.3994    3.2852   13.5025 H   0  0  0  0  0  0  0  0  0  0  0  0
   45.0537    4.1004    9.6197 H   0  0  0  0  0  0  0  0  0  0  0  0
   43.8726    2.5672   11.1711 H   0  0  0  0  0  0  0  0  0  0  0  0
  2  1  1  0
  3  1  1  0
  4  3  1  0
  1  5  1  0
  6  2  2  0
  7  2  1  0
  8  4  1  0
  3  9  1  0
 10  6  1  0
 11  7  2  0
 12 10  2  0
 12 11  1  0
 14 13  2  0
 15 13  2  0
 16 13  1  0
 17 13  1  0
 19 18  1  0
 20 18  1  0
 21 20  1  0
 18 22  1  0
 23 19  2  0
 24 19  1  0
 25 21  1  0
 20 26  1  0
 27 23  1  0
 28 24  2  0
 29 27  2  0
 29 28  1  0
  1 30  1  6
  3 31  1  1
  4 32  1  0
  5 33  1  0
  6 34  1  0
  7 35  1  0
  8 36  1  0
  8 37  1  0
  8 38  1  0
  9 39  1  0
  9 40  1  0
  9 41  1  0
 10 42  1  0
 11 43  1  0
 12 44  1  0
 16 45  1  0
 17 46  1  0
 18 47  1  1
 20 48  1  1
 21 49  1  0
 22 50  1  0
 23 51  1  0
 24 52  1  0
 25 53  1  0
 25 54  1  0
 25 55  1  0
 26 56  1  0
 26 57  1  0
 26 58  1  0
 27 59  1  0
 28 60  1  0
 29 61  1  0
M  END
> <Uni-Dock RESULT> 
ENERGY=   -5.310  LOWER_BOUND=    0.000  UPPER_BOUND=    0.000
INTER + INTRA:          -5.310
INTER:                  -5.310
INTRA:                   0.000
UNBOUND:                 0.000

$$$$

     RDKit          3D

 61 60  0  0  0  0  0  0  0  0999 V2000
   45.0369    5.7747   13.1786 C   0  0  1  0  0  0  0  0  0  0  0  0
   45.9250    6.9137   12.7125 C   0  0  0  0  0  0  0  0  0  0  0  0
   44.2970    5.0328   12.0170 C   0  0  1  0  0  0  0  0  0  0  0  0
   43.5554    3.8736   12.5711 N   0  0  0  0  0  0  0  0  0  0  0  0
   45.8268    4.8160   13.9022 O   0  0  0  0  0  0  0  0  0  0  0  0
   47.0346    6.6831   11.8824 C   0  0  0  0  0  0  0  0  0  0  0  0
   45.6443    8.2280   13.1038 C   0  0  0  0  0  0  0  0  0  0  0  0
   43.3080    2.8456   11.5704 C   0  0  0  0  0  0  0  0  0  0  0  0
   43.3386    5.9659   11.2716 C   0  0  0  0  0  0  0  0  0  0  0  0
   47.8379    7.7408   11.4525 C   0  0  0  0  0  0  0  0  0  0  0  0
   46.4425    9.2867   12.6651 C   0  0  0  0  0  0  0  0  0  0  0  0
   47.5353    9.0436   11.8389 C   0  0  0  0  0  0  0  0  0  0  0  0
   45.1568    6.0528   11.6580 S   0  0  0  0  0  0  0  0  0  0  0  0
   46.2509    5.8463   10.7386 O   0  0  0  0  0  0  0  0  0  0  0  0
   43.7782    5.8423   11.2944 O   0  0  0  0  0  0  0  0  0  0  0  0
   45.4287    5.1296   12.9396 O   0  0  0  0  0  0  0  0  0  0  0  0
   45.3147    7.5189   12.2903 O   0  0  0  0  0  0  0  0  0  0  0  0
   45.9237    5.4974   10.7273 C   0  0  1  0  0  0  0  0  0  0  0  0
   46.1599    6.6026   11.7354 C   0  0  0  0  0  0  0  0  0  0  0  0
   44.6896    4.5529   10.9310 C   0  0  1  0  0  0  0  0  0  0  0  0
   44.8076    3.5530   12.0181 N   0  0  0  0  0  0  0  0  0  0  0  0
   45.8511    6.0927    9.4190 O   0  0  0  0  0  0  0  0  0  0  0  0
   47.1980    6.5006   12.6760 C   0  0  0  0  0  0  0  0  0  0  0  0
   45.3834    7.7730   11.7265 C   0  0  0  0  0  0  0  0  0  0  0  0
   44.5719    4.0609   13.3605 C   0  0  0  0  0  0  0  0  0  0  0  0
   43.3261    5.2599   10.9088 C   0  0  0  0  0  0  0  0  0  0  0  0
   47.4372    7.5266   13.5934 C   0  0  0  0  0  0  0  0  0  0  0  0
   45.6258    8.8016   12.6384 C   0  0  0  0  0  0  0  0  0  0  0  0
   46.6503    8.6767   13.5739 C   0  0  0  0  0  0  0  0  0  0  0  0
   44.2942    6.1489   13.8954 H   0  0  0  0  0  0  0  0  0  0  0  0
   45.0582    4.6561   11.3206 H   0  0  0  0  0  0  0  0  0  0  0  0
   44.1502    3.4751   13.3084 H   0  0  0  0  0  0  0  0  0  0  0  0
   46.7340    5.1591   13.9761 H   0  0  0  0  0  0  0  0  0  0  0  0
   47.2813    5.6722   11.5630 H   0  0  0  0  0  0  0  0  0  0  0  0
   44.7907    8.4385   13.7447 H   0  0  0  0  0  0  0  0  0  0  0  0
   44.2417    2.4736   11.1380 H   0  0  0  0  0  0  0  0  0  0  0  0
   42.6652    3.2099   10.7669 H   0  0  0  0  0  0  0  0  0  0  0  0
   42.7973    1.9938   12.0336 H   0  0  0  0  0  0  0  0  0  0  0  0
   42.5572    6.3494   11.9380 H   0  0  0  0  0  0  0  0  0  0  0  0
   43.8665    6.8249   10.8419 H   0  0  0  0  0  0  0  0  0  0  0  0
   42.8472    5.4523   10.4374 H   0  0  0  0  0  0  0  0  0  0  0  0
   48.6915    7.5507   10.8071 H   0  0  0  0  0  0  0  0  0  0  0  0
   46.1993   10.3019   12.9614 H   0  0  0  0  0  0  0  0  0  0  0  0
   48.1570    9.8678   11.4955 H   0  0  0  0  0  0  0  0  0  0  0  0
   44.8500    4.3436   12.8499 H   0  0  0  0  0  0  0  0  0  0  0  0
   46.1302    7.5292   12.8262 H   0  0  0  0  0  0  0  0  0  0  0  0
   46.8202    4.8615   10.6905 H   0  0  0  0  0  0  0  0  0  0  0  0
   44.6816    3.9356   10.0179 H   0  0  0  0  0  0  0  0  0  0  0  0
   44.1289    2.8121   11.8437 H   0  0  0  0  0  0  0  0  0  0  0  0
   46.5684    6.7497    9.3888 H   0  0  0  0  0  0  0  0  0  0  0  0
   47.8286    5.6142   12.7040 H   0  0  0  0  0  0  0  0  0  0  0  0
   44.5882    7.8973   10.9945 H   0  0  0  0  0  0  0  0  0  0  0  0
   44.6047    3.2255   14.0672 H   0  0  0  0  0  0  0  0  0  0  0  0
   45.3403    4.7646   13.6821 H   0  0  0  0  0  0  0  0  0  0  0  0
   43.5877    4.5218   13.4690 H   0  0  0  0  0  0  0  0  0  0  0  0
   43.1897    5.9316   11.7599 H   0  0  0  0  0  0  0  0  0  0  0  0
   43.2019    5.8476    9.9920 H   0  0  0  0  0  0  0  0  0  0  0  0
   42.5085    4.5281   10.9349 H   0  0  0  0  0  0  0  0  0  0  0  0
   48.2395    7.4272   14.3216 H   0  0  0  0  0  0  0  0  0  0  0  0
   45.0163    9.7020   12.6147 H   0  0  0  0  0  0  0  0  0  0  0  0
   46.8387    9.4793   14.2827 H   0  0  0  0  0  0  0  0  0  0  0  0
  2  1  1  0
  3  1  1  0
  4  3  1  0
  1  5  1  0
  6  2  2  0
  7  2  1  0
  8  4  1  0
  3  9  1  0
 10  6  1  0
 11  7  2  0
 12 10  2  0
 12 11  1  0
 14 13  2  0
 15 13  2  0
 16 13  1  0
 17 13  1  0
 19 18  1  0
 20 18  1  0
 21 20  1  0
 18 22  1  0
 23 19  2  0
 24 19  1  0
 25 21  1  0
 20 26  1  0
 27 23  1  0
 28 24  2  0
 29 27  2  0
 29 28  1  0
  1 30  1  6
  3 31  1  1
  4 32  1  0
  5 33  1  0
  6 34  1  0
  7 35  1  0
  8 36  1  0
  8 37  1  0
  8 38  1  0
  9 39  1  0
  9 40  1  0
  9 41  1  0
 10 42  1  0
 11 43  1  0
 12 44  1  0
 16 45  1  0
 17 46  1  0
 18 47  1  1
 20 48  1  1
 21 49  1  0
 22 50  1  0
 23 51  1  0
 24 52  1  0
 25 53  1  0
 25 54  1  0
 25 55  1  0
 26 56  1  0
 26 57  1  0
 26 58  1  0
 27 59  1  0
 28 60  1  0
 29 61  1  0
M  END
> <Uni-Dock RESULT> 
ENERGY=   -5.074  LOWER_BOUND=    1.757  UPPER_BOUND=    4.210
INTER + INTRA:          -5.074
INTER:                  -5.074
INTRA:                   0.000
UNBOUND:                 0.000

$$$$

     RDKit          3D

 61 60  0  0  0  0  0  0  0  0999 V2000
   45.9516    8.0794   11.9975 C   0  0  1  0  0  0  0  0  0  0  0  0
   47.3517    7.9308   12.5640 C   0  0  0  0  0  0  0  0  0  0  0  0
   45.2234    6.7182   11.7444 C   0  0  1  0  0  0  0  0  0  0  0  0
   43.8313    6.9826   11.3049 N   0  0  0  0  0  0  0  0  0  0  0  0
   45.1512    8.8649   12.8969 O   0  0  0  0  0  0  0  0  0  0  0  0
   47.5730    7.3476   13.8227 C   0  0  0  0  0  0  0  0  0  0  0  0
   48.4572    8.3738   11.8285 C   0  0  0  0  0  0  0  0  0  0  0  0
   42.9447    5.8590   11.5703 C   0  0  0  0  0  0  0  0  0  0  0  0
   45.9559    5.8721   10.6993 C   0  0  0  0  0  0  0  0  0  0  0  0
   48.8667    7.2077   14.3283 C   0  0  0  0  0  0  0  0  0  0  0  0
   49.7518    8.2243   12.3307 C   0  0  0  0  0  0  0  0  0  0  0  0
   49.9560    7.6400   13.5768 C   0  0  0  0  0  0  0  0  0  0  0  0
   46.4861    6.6560   12.3014 S   0  0  0  0  0  0  0  0  0  0  0  0
   46.7399    5.9850   13.5545 O   0  0  0  0  0  0  0  0  0  0  0  0
   45.9581    5.9793   11.1438 O   0  0  0  0  0  0  0  0  0  0  0  0
   45.4873    7.8725   12.6044 O   0  0  0  0  0  0  0  0  0  0  0  0
   47.8204    7.4440   11.8856 O   0  0  0  0  0  0  0  0  0  0  0  0
   46.3197    5.8688   13.3575 C   0  0  1  0  0  0  0  0  0  0  0  0
   47.2752    7.0045   13.0566 C   0  0  0  0  0  0  0  0  0  0  0  0
   45.0481    5.7049   12.4559 C   0  0  1  0  0  0  0  0  0  0  0  0
   43.9640    6.6912   12.6739 N   0  0  0  0  0  0  0  0  0  0  0  0
   47.0676    4.6393   13.3460 O   0  0  0  0  0  0  0  0  0  0  0  0
   47.3219    8.1367   13.8866 C   0  0  0  0  0  0  0  0  0  0  0  0
   48.1683    6.9360   11.9748 C   0  0  0  0  0  0  0  0  0  0  0  0
   44.1696    7.9907   12.0538 C   0  0  0  0  0  0  0  0  0  0  0  0
   45.3402    5.4500   10.9696 C   0  0  0  0  0  0  0  0  0  0  0  0
   48.2174    9.1775   13.6293 C   0  0  0  0  0  0  0  0  0  0  0  0
   49.0681    7.9724   11.7207 C   0  0  0  0  0  0  0  0  0  0  0  0
   49.0901    9.0944   12.5459 C   0  0  0  0  0  0  0  0  0  0  0  0
   45.9866    8.6471   11.0583 H   0  0  0  0  0  0  0  0  0  0  0  0
   45.1881    6.1741   12.6978 H   0  0  0  0  0  0  0  0  0  0  0  0
   43.5050    7.7915   11.8482 H   0  0  0  0  0  0  0  0  0  0  0  0
   45.7182    9.1691   13.6263 H   0  0  0  0  0  0  0  0  0  0  0  0
   46.7342    6.9959   14.4205 H   0  0  0  0  0  0  0  0  0  0  0  0
   48.3179    8.8279   10.8497 H   0  0  0  0  0  0  0  0  0  0  0  0
   42.9207    5.6095   12.6354 H   0  0  0  0  0  0  0  0  0  0  0  0
   43.2355    4.9718   11.0047 H   0  0  0  0  0  0  0  0  0  0  0  0
   41.9226    6.1151   11.2691 H   0  0  0  0  0  0  0  0  0  0  0  0
   45.9967    6.3833    9.7304 H   0  0  0  0  0  0  0  0  0  0  0  0
   46.9843    5.6529   11.0083 H   0  0  0  0  0  0  0  0  0  0  0  0
   45.4622    4.9051   10.5491 H   0  0  0  0  0  0  0  0  0  0  0  0
   49.0260    6.7513   15.3017 H   0  0  0  0  0  0  0  0  0  0  0  0
   50.5993    8.5549   11.7390 H   0  0  0  0  0  0  0  0  0  0  0  0
   50.9642    7.5220   13.9683 H   0  0  0  0  0  0  0  0  0  0  0  0
   44.5950    7.5832   12.3202 H   0  0  0  0  0  0  0  0  0  0  0  0
   47.9744    8.1450   12.5469 H   0  0  0  0  0  0  0  0  0  0  0  0
   45.9735    5.9702   14.3964 H   0  0  0  0  0  0  0  0  0  0  0  0
   44.6037    4.7580   12.8036 H   0  0  0  0  0  0  0  0  0  0  0  0
   43.0997    6.3019   12.2979 H   0  0  0  0  0  0  0  0  0  0  0  0
   47.8953    4.8305   13.8209 H   0  0  0  0  0  0  0  0  0  0  0  0
   46.6540    8.2186   14.7419 H   0  0  0  0  0  0  0  0  0  0  0  0
   48.1782    6.0619   11.3270 H   0  0  0  0  0  0  0  0  0  0  0  0
   43.2770    8.6046   12.2111 H   0  0  0  0  0  0  0  0  0  0  0  0
   45.0008    8.5391   12.4981 H   0  0  0  0  0  0  0  0  0  0  0  0
   44.3142    7.9229   10.9733 H   0  0  0  0  0  0  0  0  0  0  0  0
   45.8055    6.3100   10.4817 H   0  0  0  0  0  0  0  0  0  0  0  0
   46.0055    4.5886   10.8409 H   0  0  0  0  0  0  0  0  0  0  0  0
   44.4144    5.2257   10.4245 H   0  0  0  0  0  0  0  0  0  0  0  0
   48.2338   10.0517   14.2768 H   0  0  0  0  0  0  0  0  0  0  0  0
   49.7545    7.9006   10.8801 H   0  0  0  0  0  0  0  0  0  0  0  0
   49.7924    9.9003   12.3473 H   0  0  0  0  0  0  0  0  0  0  0  0
  2  1  1  0
  3  1  1  0
  4  3  1  0
  1  5  1  0
  6  2  2  0
  7  2  1  0
  8  4  1  0
  3  9  1  0
 10  6  1  0
 11  7  2  0
 12 10  2  0
 12 11  1  0
 14 13  2  0
 15 13  2  0
 16 13  1  0
 17 13  1  0
 19 18  1  0
 20 18  1  0
 21 20  1  0
 18 22  1  0
 23 19  2  0
 24 19  1  0
 25 21  1  0
 20 26  1  0
 27 23  1  0
 28 24  2  0
 29 27  2  0
 29 28  1  0
  1 30  1  6
  3 31  1  1
  4 32  1  0
  5 33  1  0
  6 34  1  0
  7 35  1  0
  8 36  1  0
  8 37  1  0
  8 38  1  0
  9 39  1  0
  9 40  1  0
  9 41  1  0
 10 42  1  0
 11 43  1  0
 12 44  1  0
 16 45  1  0
 17 46  1  0
 18 47  1  1
 20 48  1  1
 21 49  1  0
 22 50  1  0
 23 51  1  0
 24 52  1  0
 25 53  1  0
 25 54  1  0
 25 55  1  0
 26 56  1  0
 26 57  1  0
 26 58  1  0
 27 59  1  0
 28 60  1  0
 29 61  1  0
M  END
> <Uni-Dock RESULT> 
ENERGY=   -4.764  LOWER_BOUND=    1.566  UPPER_BOUND=    4.589
INTER + INTRA:          -4.764
INTER:                  -4.764
INTRA:                   0.000
UNBOUND:                 0.000

$$$$

     RDKit          3D

 61 60  0  0  0  0  0  0  0  0999 V2000
   50.7517    3.1624   17.4162 C   0  0  1  0  0  0  0  0  0  0  0  0
   49.4707    3.9033   17.7531 C   0  0  0  0  0  0  0  0  0  0  0  0
   52.0445    3.8512   17.9651 C   0  0  1  0  0  0  0  0  0  0  0  0
   53.2169    2.9877   17.6812 N   0  0  0  0  0  0  0  0  0  0  0  0
   50.6865    1.8271   17.9447 O   0  0  0  0  0  0  0  0  0  0  0  0
   49.0557    4.0782   19.0837 C   0  0  0  0  0  0  0  0  0  0  0  0
   48.6772    4.4345   16.7297 C   0  0  0  0  0  0  0  0  0  0  0  0
   54.3254    3.2438   18.5894 C   0  0  0  0  0  0  0  0  0  0  0  0
   52.2489    5.2388   17.3506 C   0  0  0  0  0  0  0  0  0  0  0  0
   47.8803    4.7703   19.3808 C   0  0  0  0  0  0  0  0  0  0  0  0
   47.5068    5.1355   17.0283 C   0  0  0  0  0  0  0  0  0  0  0  0
   47.1108    5.3053   18.3513 C   0  0  0  0  0  0  0  0  0  0  0  0
   50.8390    4.4507   18.2744 S   0  0  0  0  0  0  0  0  0  0  0  0
   50.4393    4.7124   19.6370 O   0  0  0  0  0  0  0  0  0  0  0  0
   52.0233    5.0201   17.6828 O   0  0  0  0  0  0  0  0  0  0  0  0
   50.9764    2.8620   18.1133 O   0  0  0  0  0  0  0  0  0  0  0  0
   49.5811    4.7529   17.3254 O   0  0  0  0  0  0  0  0  0  0  0  0
   50.9063    4.6200   19.5895 C   0  0  1  0  0  0  0  0  0  0  0  0
   49.7512    4.4055   18.6339 C   0  0  0  0  0  0  0  0  0  0  0  0
   52.3565    4.2939   19.0922 C   0  0  1  0  0  0  0  0  0  0  0  0
   52.6989    2.8565   18.9815 N   0  0  0  0  0  0  0  0  0  0  0  0
   50.8605    5.9833   20.0485 O   0  0  0  0  0  0  0  0  0  0  0  0
   48.8791    3.3173   18.8014 C   0  0  0  0  0  0  0  0  0  0  0  0
   49.4937    5.3092   17.5900 C   0  0  0  0  0  0  0  0  0  0  0  0
   52.1985    2.1864   17.7915 C   0  0  0  0  0  0  0  0  0  0  0  0
   52.8245    5.1191   17.8842 C   0  0  0  0  0  0  0  0  0  0  0  0
   47.7973    3.1264   17.9384 C   0  0  0  0  0  0  0  0  0  0  0  0
   48.4093    5.1231   16.7312 C   0  0  0  0  0  0  0  0  0  0  0  0
   47.5634    4.0299   16.9033 C   0  0  0  0  0  0  0  0  0  0  0  0
   50.8417    3.0469   16.3280 H   0  0  0  0  0  0  0  0  0  0  0  0
   51.9387    3.9443   19.0544 H   0  0  0  0  0  0  0  0  0  0  0  0
   52.9020    2.0187   17.8154 H   0  0  0  0  0  0  0  0  0  0  0  0
   49.8070    1.6956   18.3385 H   0  0  0  0  0  0  0  0  0  0  0  0
   49.6490    3.6746   19.9020 H   0  0  0  0  0  0  0  0  0  0  0  0
   48.9734    4.3170   15.6894 H   0  0  0  0  0  0  0  0  0  0  0  0
   54.0345    3.0857   19.6323 H   0  0  0  0  0  0  0  0  0  0  0  0
   54.7126    4.2584   18.4790 H   0  0  0  0  0  0  0  0  0  0  0  0
   55.1500    2.5562   18.3699 H   0  0  0  0  0  0  0  0  0  0  0  0
   52.3713    5.1787   16.2629 H   0  0  0  0  0  0  0  0  0  0  0  0
   51.3997    5.8997   17.5582 H   0  0  0  0  0  0  0  0  0  0  0  0
   53.1367    5.7325   17.7623 H   0  0  0  0  0  0  0  0  0  0  0  0
   47.5712    4.9028   20.4143 H   0  0  0  0  0  0  0  0  0  0  0  0
   46.9134    5.5582   16.2240 H   0  0  0  0  0  0  0  0  0  0  0  0
   46.1999    5.8523   18.5850 H   0  0  0  0  0  0  0  0  0  0  0  0
   51.9340    2.6560   18.1487 H   0  0  0  0  0  0  0  0  0  0  0  0
   48.8824    4.1051   17.5365 H   0  0  0  0  0  0  0  0  0  0  0  0
   50.7273    4.0195   20.4933 H   0  0  0  0  0  0  0  0  0  0  0  0
   52.9986    4.6452   19.9164 H   0  0  0  0  0  0  0  0  0  0  0  0
   53.7150    2.7709   18.9811 H   0  0  0  0  0  0  0  0  0  0  0  0
   49.9231    6.1666   20.2351 H   0  0  0  0  0  0  0  0  0  0  0  0
   49.0396    2.6039   19.6073 H   0  0  0  0  0  0  0  0  0  0  0  0
   50.1330    6.1780   17.4473 H   0  0  0  0  0  0  0  0  0  0  0  0
   52.5778    1.1597   17.7760 H   0  0  0  0  0  0  0  0  0  0  0  0
   51.1107    2.1115   17.7802 H   0  0  0  0  0  0  0  0  0  0  0  0
   52.5406    2.6585   16.8679 H   0  0  0  0  0  0  0  0  0  0  0  0
   52.2601    4.8893   16.9772 H   0  0  0  0  0  0  0  0  0  0  0  0
   52.7270    6.1932   18.0791 H   0  0  0  0  0  0  0  0  0  0  0  0
   53.8833    4.9262   17.6686 H   0  0  0  0  0  0  0  0  0  0  0  0
   47.1370    2.2728   18.0766 H   0  0  0  0  0  0  0  0  0  0  0  0
   48.2236    5.8350   15.9302 H   0  0  0  0  0  0  0  0  0  0  0  0
   46.7184    3.8870   16.2343 H   0  0  0  0  0  0  0  0  0  0  0  0
  2  1  1  0
  3  1  1  0
  4  3  1  0
  1  5  1  0
  6  2  2  0
  7  2  1  0
  8  4  1  0
  3  9  1  0
 10  6  1  0
 11  7  2  0
 12 10  2  0
 12 11  1  0
 14 13  2  0
 15 13  2  0
 16 13  1  0
 17 13  1  0
 19 18  1  0
 20 18  1  0
 21 20  1  0
 18 22  1  0
 23 19  2  0
 24 19  1  0
 25 21  1  0
 20 26  1  0
 27 23  1  0
 28 24  2  0
 29 27  2  0
 29 28  1  0
  1 30  1  6
  3 31  1  1
  4 32  1  0
  5 33  1  0
  6 34  1  0
  7 35  1  0
  8 36  1  0
  8 37  1  0
  8 38  1  0
  9 39  1  0
  9 40  1  0
  9 41  1  0
 10 42  1  0
 11 43  1  0
 12 44  1  0
 16 45  1  0
 17 46  1  0
 18 47  1  1
 20 48  1  1
 21 49  1  0
 22 50  1  0
 23 51  1  0
 24 52  1  0
 25 53  1  0
 25 54  1  0
 25 55  1  0
 26 56  1  0
 26 57  1  0
 26 58  1  0
 27 59  1  0
 28 60  1  0
 29 61  1  0
M  END
> <Uni-Dock RESULT> 
ENERGY=   -4.452  LOWER_BOUND=    5.989  UPPER_BOUND=    7.726
INTER + INTRA:          -4.452
INTER:                  -4.452
INTRA:                   0.000
UNBOUND:                 0.000

$$$$

     RDKit          3D

 61 60  0  0  0  0  0  0  0  0999 V2000
   46.5121    5.5774   13.7131 C   0  0  1  0  0  0  0  0  0  0  0  0
   47.1761    6.8625   13.2538 C   0  0  0  0  0  0  0  0  0  0  0  0
   45.2701    5.1652   12.8559 C   0  0  1  0  0  0  0  0  0  0  0  0
   44.7745    3.8448   13.3162 N   0  0  0  0  0  0  0  0  0  0  0  0
   47.4679    4.5043   13.6770 O   0  0  0  0  0  0  0  0  0  0  0  0
   47.7654    6.9672   11.9829 C   0  0  0  0  0  0  0  0  0  0  0  0
   47.2063    7.9778   14.0990 C   0  0  0  0  0  0  0  0  0  0  0  0
   44.0207    3.1467   12.2850 C   0  0  0  0  0  0  0  0  0  0  0  0
   44.1529    6.2087   12.9430 C   0  0  0  0  0  0  0  0  0  0  0  0
   48.3644    8.1582   11.5686 C   0  0  0  0  0  0  0  0  0  0  0  0
   47.7969    9.1720   13.6799 C   0  0  0  0  0  0  0  0  0  0  0  0
   48.3722    9.2626   12.4163 C   0  0  0  0  0  0  0  0  0  0  0  0
   45.9485    6.3031   12.4642 S   0  0  0  0  0  0  0  0  0  0  0  0
   46.4854    6.4563   11.1326 O   0  0  0  0  0  0  0  0  0  0  0  0
   44.5438    6.1148   12.7252 O   0  0  0  0  0  0  0  0  0  0  0  0
   46.7012    5.0615   13.1431 O   0  0  0  0  0  0  0  0  0  0  0  0
   46.4893    7.5218   13.3566 O   0  0  0  0  0  0  0  0  0  0  0  0
   46.1630    6.1047   11.1691 C   0  0  1  0  0  0  0  0  0  0  0  0
   46.9162    6.8734   12.2345 C   0  0  0  0  0  0  0  0  0  0  0  0
   45.0876    5.0588   11.6234 C   0  0  1  0  0  0  0  0  0  0  0  0
   45.6094    3.7914   12.1864 N   0  0  0  0  0  0  0  0  0  0  0  0
   45.5497    7.0558   10.2799 O   0  0  0  0  0  0  0  0  0  0  0  0
   48.2572    6.5686   12.5207 C   0  0  0  0  0  0  0  0  0  0  0  0
   46.3136    7.9363   12.9271 C   0  0  0  0  0  0  0  0  0  0  0  0
   46.0498    3.8590   13.5709 C   0  0  0  0  0  0  0  0  0  0  0  0
   43.9223    5.6436   12.4353 C   0  0  0  0  0  0  0  0  0  0  0  0
   48.9657    7.2891   13.4852 C   0  0  0  0  0  0  0  0  0  0  0  0
   47.0227    8.6612   13.8863 C   0  0  0  0  0  0  0  0  0  0  0  0
   48.3474    8.3352   14.1677 C   0  0  0  0  0  0  0  0  0  0  0  0
   46.2077    5.6686   14.7641 H   0  0  0  0  0  0  0  0  0  0  0  0
   45.5998    5.0668   11.8128 H   0  0  0  0  0  0  0  0  0  0  0  0
   45.6067    3.2875   13.5462 H   0  0  0  0  0  0  0  0  0  0  0  0
   48.3329    4.8721   13.4269 H   0  0  0  0  0  0  0  0  0  0  0  0
   47.7611    6.1170   11.3034 H   0  0  0  0  0  0  0  0  0  0  0  0
   46.7566    7.9280   15.0884 H   0  0  0  0  0  0  0  0  0  0  0  0
   44.6238    2.9861   11.3863 H   0  0  0  0  0  0  0  0  0  0  0  0
   43.1131    3.6878   12.0112 H   0  0  0  0  0  0  0  0  0  0  0  0
   43.7123    2.1622   12.6547 H   0  0  0  0  0  0  0  0  0  0  0  0
   43.7921    6.3211   13.9720 H   0  0  0  0  0  0  0  0  0  0  0  0
   44.4922    7.1912   12.5957 H   0  0  0  0  0  0  0  0  0  0  0  0
   43.2979    5.9337   12.3148 H   0  0  0  0  0  0  0  0  0  0  0  0
   48.8137    8.2287   10.5815 H   0  0  0  0  0  0  0  0  0  0  0  0
   47.7942   10.0335   14.3398 H   0  0  0  0  0  0  0  0  0  0  0  0
   48.8313   10.1928   12.0884 H   0  0  0  0  0  0  0  0  0  0  0  0
   46.0862    4.2996   13.0992 H   0  0  0  0  0  0  0  0  0  0  0  0
   47.4574    7.4289   13.4378 H   0  0  0  0  0  0  0  0  0  0  0  0
   46.8926    5.5726   10.5414 H   0  0  0  0  0  0  0  0  0  0  0  0
   44.6178    4.7422   10.6779 H   0  0  0  0  0  0  0  0  0  0  0  0
   44.8707    3.0906   12.1302 H   0  0  0  0  0  0  0  0  0  0  0  0
   46.2232    7.7403   10.1219 H   0  0  0  0  0  0  0  0  0  0  0  0
   48.7610    5.7603   11.9946 H   0  0  0  0  0  0  0  0  0  0  0  0
   45.2848    8.2172   12.7119 H   0  0  0  0  0  0  0  0  0  0  0  0
   46.3357    2.8556   13.9022 H   0  0  0  0  0  0  0  0  0  0  0  0
   46.9322    4.4869   13.6987 H   0  0  0  0  0  0  0  0  0  0  0  0
   45.2614    4.1970   14.2470 H   0  0  0  0  0  0  0  0  0  0  0  0
   44.2400    6.0203   13.4106 H   0  0  0  0  0  0  0  0  0  0  0  0
   43.4407    6.4673   11.8962 H   0  0  0  0  0  0  0  0  0  0  0  0
   43.1522    4.8821   12.6135 H   0  0  0  0  0  0  0  0  0  0  0  0
   50.0009    7.0337   13.7014 H   0  0  0  0  0  0  0  0  0  0  0  0
   46.5405    9.4831   14.4106 H   0  0  0  0  0  0  0  0  0  0  0  0
   48.8987    8.9016   14.9142 H   0  0  0  0  0  0  0  0  0  0  0  0
  2  1  1  0
  3  1  1  0
  4  3  1  0
  1  5  1  0
  6  2  2  0
  7  2  1  0
  8  4  1  0
  3  9  1  0
 10  6  1  0
 11  7  2  0
 12 10  2  0
 12 11  1  0
 14 13  2  0
 15 13  2  0
 16 13  1  0
 17 13  1  0
 19 18  1  0
 20 18  1  0
 21 20  1  0
 18 22  1  0
 23 19  2  0
 24 19  1  0
 25 21  1  0
 20 26  1  0
 27 23  1  0
 28 24  2  0
 29 27  2  0
 29 28  1  0
  1 30  1  6
  3 31  1  1
  4 32  1  0
  5 33  1  0
  6 34  1  0
  7 35  1  0
  8 36  1  0
  8 37  1  0
  8 38  1  0
  9 39  1  0
  9 40  1  0
  9 41  1  0
 10 42  1  0
 11 43  1  0
 12 44  1  0
 16 45  1  0
 17 46  1  0
 18 47  1  1
 20 48  1  1
 21 49  1  0
 22 50  1  0
 23 51  1  0
 24 52  1  0
 25 53  1  0
 25 54  1  0
 25 55  1  0
 26 56  1  0
 26 57  1  0
 26 58  1  0
 27 59  1  0
 28 60  1  0
 29 61  1  0
M  END
> <Uni-Dock RESULT> 
ENERGY=   -4.393  LOWER_BOUND=    1.572  UPPER_BOUND=    4.249
INTER + INTRA:          -4.393
INTER:                  -4.393
INTRA:                   0.000
UNBOUND:                 0.000

$$$$

     RDKit          3D

 61 60  0  0  0  0  0  0  0  0999 V2000
   48.1329    8.1823   21.4690 C   0  0  1  0  0  0  0  0  0  0  0  0
   48.4879    6.8605   20.8131 C   0  0  0  0  0  0  0  0  0  0  0  0
   48.0443    9.3817   20.4687 C   0  0  1  0  0  0  0  0  0  0  0  0
   47.5799   10.5899   21.1936 N   0  0  0  0  0  0  0  0  0  0  0  0
   46.8706    8.0581   22.1456 O   0  0  0  0  0  0  0  0  0  0  0  0
   47.6426    6.2663   19.8614 C   0  0  0  0  0  0  0  0  0  0  0  0
   49.6808    6.2090   21.1476 C   0  0  0  0  0  0  0  0  0  0  0  0
   46.9568   11.5617   20.3067 C   0  0  0  0  0  0  0  0  0  0  0  0
   49.3917    9.6550   19.7945 C   0  0  0  0  0  0  0  0  0  0  0  0
   47.9855    5.0550   19.2580 C   0  0  0  0  0  0  0  0  0  0  0  0
   50.0278    5.0023   20.5361 C   0  0  0  0  0  0  0  0  0  0  0  0
   49.1830    4.4281   19.5913 C   0  0  0  0  0  0  0  0  0  0  0  0
   48.3204    8.1397   19.9305 S   0  0  0  0  0  0  0  0  0  0  0  0
   47.5063    7.5555   18.8909 O   0  0  0  0  0  0  0  0  0  0  0  0
   49.0214    9.3882   19.7674 O   0  0  0  0  0  0  0  0  0  0  0  0
   47.3912    8.3126   21.2249 O   0  0  0  0  0  0  0  0  0  0  0  0
   49.3531    7.0202   20.4350 O   0  0  0  0  0  0  0  0  0  0  0  0
   47.4362    8.0255   18.9467 C   0  0  1  0  0  0  0  0  0  0  0  0
   48.1266    7.0135   19.8371 C   0  0  0  0  0  0  0  0  0  0  0  0
   47.4560    9.5329   19.3756 C   0  0  1  0  0  0  0  0  0  0  0  0
   46.5677    9.9006   20.5031 N   0  0  0  0  0  0  0  0  0  0  0  0
   47.9856    7.9048   17.6219 O   0  0  0  0  0  0  0  0  0  0  0  0
   47.3753    6.1369   20.6370 C   0  0  0  0  0  0  0  0  0  0  0  0
   49.5258    6.8924   19.8511 C   0  0  0  0  0  0  0  0  0  0  0  0
   47.0732    9.5734   21.8271 C   0  0  0  0  0  0  0  0  0  0  0  0
   48.8567   10.1536   19.4855 C   0  0  0  0  0  0  0  0  0  0  0  0
   48.0044    5.1847   21.4427 C   0  0  0  0  0  0  0  0  0  0  0  0
   50.1551    5.9369   20.6507 C   0  0  0  0  0  0  0  0  0  0  0  0
   49.3945    5.0857   21.4490 C   0  0  0  0  0  0  0  0  0  0  0  0
   48.8664    8.4209   22.2504 H   0  0  0  0  0  0  0  0  0  0  0  0
   47.2968    9.1275   19.7050 H   0  0  0  0  0  0  0  0  0  0  0  0
   46.8773   10.2687   21.8712 H   0  0  0  0  0  0  0  0  0  0  0  0
   46.5744    7.1343   22.0754 H   0  0  0  0  0  0  0  0  0  0  0  0
   46.7066    6.7462   19.5818 H   0  0  0  0  0  0  0  0  0  0  0  0
   50.3569    6.6454   21.8798 H   0  0  0  0  0  0  0  0  0  0  0  0
   46.0984   11.1328   19.7812 H   0  0  0  0  0  0  0  0  0  0  0  0
   47.6643   11.9509   19.5722 H   0  0  0  0  0  0  0  0  0  0  0  0
   46.5928   12.4149   20.8903 H   0  0  0  0  0  0  0  0  0  0  0  0
   50.1579    9.9251   20.5306 H   0  0  0  0  0  0  0  0  0  0  0  0
   49.7497    8.7793   19.2413 H   0  0  0  0  0  0  0  0  0  0  0  0
   49.3182   10.4737   19.0695 H   0  0  0  0  0  0  0  0  0  0  0  0
   47.3255    4.6066   18.5200 H   0  0  0  0  0  0  0  0  0  0  0  0
   50.9658    4.5202   20.7921 H   0  0  0  0  0  0  0  0  0  0  0  0
   49.4530    3.4887   19.1135 H   0  0  0  0  0  0  0  0  0  0  0  0
   47.1370    9.2583   21.2662 H   0  0  0  0  0  0  0  0  0  0  0  0
   48.8396    6.3053   20.8565 H   0  0  0  0  0  0  0  0  0  0  0  0
   46.3826    7.7306   18.8352 H   0  0  0  0  0  0  0  0  0  0  0  0
   47.0035   10.0533   18.5157 H   0  0  0  0  0  0  0  0  0  0  0  0
   46.4133   10.9081   20.4708 H   0  0  0  0  0  0  0  0  0  0  0  0
   48.0562    6.9491   17.4525 H   0  0  0  0  0  0  0  0  0  0  0  0
   46.2886    6.1927   20.6418 H   0  0  0  0  0  0  0  0  0  0  0  0
   50.1379    7.5370   19.2237 H   0  0  0  0  0  0  0  0  0  0  0  0
   46.3778    9.9608   22.5786 H   0  0  0  0  0  0  0  0  0  0  0  0
   47.1386    8.4981   21.9957 H   0  0  0  0  0  0  0  0  0  0  0  0
   48.0420   10.0338   22.0330 H   0  0  0  0  0  0  0  0  0  0  0  0
   49.4431    9.7202   20.2994 H   0  0  0  0  0  0  0  0  0  0  0  0
   49.4208   10.0204   18.5553 H   0  0  0  0  0  0  0  0  0  0  0  0
   48.7898   11.2336   19.6692 H   0  0  0  0  0  0  0  0  0  0  0  0
   47.4077    4.5198   22.0635 H   0  0  0  0  0  0  0  0  0  0  0  0
   51.2397    5.8556   20.6464 H   0  0  0  0  0  0  0  0  0  0  0  0
   49.8862    4.3412   22.0703 H   0  0  0  0  0  0  0  0  0  0  0  0
  2  1  1  0
  3  1  1  0
  4  3  1  0
  1  5  1  0
  6  2  2  0
  7  2  1  0
  8  4  1  0
  3  9  1  0
 10  6  1  0
 11  7  2  0
 12 10  2  0
 12 11  1  0
 14 13  2  0
 15 13  2  0
 16 13  1  0
 17 13  1  0
 19 18  1  0
 20 18  1  0
 21 20  1  0
 18 22  1  0
 23 19  2  0
 24 19  1  0
 25 21  1  0
 20 26  1  0
 27 23  1  0
 28 24  2  0
 29 27  2  0
 29 28  1  0
  1 30  1  6
  3 31  1  1
  4 32  1  0
  5 33  1  0
  6 34  1  0
  7 35  1  0
  8 36  1  0
  8 37  1  0
  8 38  1  0
  9 39  1  0
  9 40  1  0
  9 41  1  0
 10 42  1  0
 11 43  1  0
 12 44  1  0
 16 45  1  0
 17 46  1  0
 18 47  1  1
 20 48  1  1
 21 49  1  0
 22 50  1  0
 23 51  1  0
 24 52  1  0
 25 53  1  0
 25 54  1  0
 25 55  1  0
 26 56  1  0
 26 57  1  0
 26 58  1  0
 27 59  1  0
 28 60  1  0
 29 61  1  0
M  END
> <Uni-Dock RESULT> 
ENERGY=   -4.072  LOWER_BOUND=    7.223  UPPER_BOUND=    8.793
INTER + INTRA:          -4.072
INTER:                  -4.072
INTRA:                   0.000
UNBOUND:                 0.000

$$$$

     RDKit          3D

 61 60  0  0  0  0  0  0  0  0999 V2000
   48.9486   12.0568   22.1557 C   0  0  1  0  0  0  0  0  0  0  0  0
   48.3374   12.1168   20.7678 C   0  0  0  0  0  0  0  0  0  0  0  0
   50.1145   13.0757   22.3786 C   0  0  1  0  0  0  0  0  0  0  0  0
   50.5557   13.0123   23.7935 N   0  0  0  0  0  0  0  0  0  0  0  0
   47.9303   12.3063   23.1393 O   0  0  0  0  0  0  0  0  0  0  0  0
   47.6856   13.2722   20.3053 C   0  0  0  0  0  0  0  0  0  0  0  0
   48.4202   11.0093   19.9159 C   0  0  0  0  0  0  0  0  0  0  0  0
   51.2085   14.2398   24.2250 C   0  0  0  0  0  0  0  0  0  0  0  0
   51.2946   12.7961   21.4439 C   0  0  0  0  0  0  0  0  0  0  0  0
   47.1362   13.3180   19.0228 C   0  0  0  0  0  0  0  0  0  0  0  0
   47.8791   11.0595   18.6294 C   0  0  0  0  0  0  0  0  0  0  0  0
   47.2409   12.2125   18.1830 C   0  0  0  0  0  0  0  0  0  0  0  0
   49.4840   13.1082   21.1498 S   0  0  0  0  0  0  0  0  0  0  0  0
   48.8840   14.3130   20.6267 O   0  0  0  0  0  0  0  0  0  0  0  0
   50.8874   13.0034   21.4599 O   0  0  0  0  0  0  0  0  0  0  0  0
   48.6978   12.7274   22.4936 O   0  0  0  0  0  0  0  0  0  0  0  0
   49.0666   11.8929   20.1891 O   0  0  0  0  0  0  0  0  0  0  0  0
   49.1865   14.3921   20.9888 C   0  0  1  0  0  0  0  0  0  0  0  0
   48.5405   13.1132   20.4984 C   0  0  0  0  0  0  0  0  0  0  0  0
   50.2216   14.3028   22.1624 C   0  0  1  0  0  0  0  0  0  0  0  0
   49.6577   14.0562   23.5103 N   0  0  0  0  0  0  0  0  0  0  0  0
   49.8048   15.0417   19.8631 O   0  0  0  0  0  0  0  0  0  0  0  0
   47.2018   12.8247   20.8108 C   0  0  0  0  0  0  0  0  0  0  0  0
   49.2425   12.2100   19.6835 C   0  0  0  0  0  0  0  0  0  0  0  0
   49.2996   12.6752   23.7931 C   0  0  0  0  0  0  0  0  0  0  0  0
   51.4628   13.4487   21.8636 C   0  0  0  0  0  0  0  0  0  0  0  0
   46.5917   11.6587   20.3420 C   0  0  0  0  0  0  0  0  0  0  0  0
   48.6319   11.0480   19.2091 C   0  0  0  0  0  0  0  0  0  0  0  0
   47.3078   10.7708   19.5413 C   0  0  0  0  0  0  0  0  0  0  0  0
   49.3156   11.0422   22.3591 H   0  0  0  0  0  0  0  0  0  0  0  0
   49.7221   14.0828   22.1831 H   0  0  0  0  0  0  0  0  0  0  0  0
   49.7060   12.8792   24.3560 H   0  0  0  0  0  0  0  0  0  0  0  0
   47.0760   12.3910   22.6820 H   0  0  0  0  0  0  0  0  0  0  0  0
   47.6019   14.1491   20.9446 H   0  0  0  0  0  0  0  0  0  0  0  0
   48.9204   10.1009   20.2451 H   0  0  0  0  0  0  0  0  0  0  0  0
   50.5480   15.1052   24.1160 H   0  0  0  0  0  0  0  0  0  0  0  0
   52.1300   14.4246   23.6697 H   0  0  0  0  0  0  0  0  0  0  0  0
   51.4780   14.1628   25.2844 H   0  0  0  0  0  0  0  0  0  0  0  0
   51.7180   11.8011   21.6235 H   0  0  0  0  0  0  0  0  0  0  0  0
   50.9953   12.8500   20.3909 H   0  0  0  0  0  0  0  0  0  0  0  0
   52.0957   13.5320   21.5788 H   0  0  0  0  0  0  0  0  0  0  0  0
   46.6378   14.2188   18.6743 H   0  0  0  0  0  0  0  0  0  0  0  0
   47.9694   10.1990   17.9744 H   0  0  0  0  0  0  0  0  0  0  0  0
   46.8202   12.2531   17.1805 H   0  0  0  0  0  0  0  0  0  0  0  0
   49.2632   13.0116   23.2422 H   0  0  0  0  0  0  0  0  0  0  0  0
   48.1007   11.7721   20.2589 H   0  0  0  0  0  0  0  0  0  0  0  0
   48.3930   15.0851   21.3042 H   0  0  0  0  0  0  0  0  0  0  0  0
   50.6187   15.3283   22.2369 H   0  0  0  0  0  0  0  0  0  0  0  0
   50.3494   14.3447   24.2019 H   0  0  0  0  0  0  0  0  0  0  0  0
   49.1653   14.9682   19.1332 H   0  0  0  0  0  0  0  0  0  0  0  0
   46.6225   13.5079   21.4288 H   0  0  0  0  0  0  0  0  0  0  0  0
   50.2726   12.4149   19.3996 H   0  0  0  0  0  0  0  0  0  0  0  0
   48.9736   12.5990   24.8353 H   0  0  0  0  0  0  0  0  0  0  0  0
   48.4644   12.3269   23.1846 H   0  0  0  0  0  0  0  0  0  0  0  0
   50.1429   11.9905   23.6800 H   0  0  0  0  0  0  0  0  0  0  0  0
   51.2226   12.3893   21.7455 H   0  0  0  0  0  0  0  0  0  0  0  0
   51.9617   13.7855   20.9477 H   0  0  0  0  0  0  0  0  0  0  0  0
   52.1951   13.5296   22.6771 H   0  0  0  0  0  0  0  0  0  0  0  0
   45.5568   11.4459   20.6013 H   0  0  0  0  0  0  0  0  0  0  0  0
   49.1902   10.3616   18.5766 H   0  0  0  0  0  0  0  0  0  0  0  0
   46.8333    9.8658   19.1700 H   0  0  0  0  0  0  0  0  0  0  0  0
  2  1  1  0
  3  1  1  0
  4  3  1  0
  1  5  1  0
  6  2  2  0
  7  2  1  0
  8  4  1  0
  3  9  1  0
 10  6  1  0
 11  7  2  0
 12 10  2  0
 12 11  1  0
 14 13  2  0
 15 13  2  0
 16 13  1  0
 17 13  1  0
 19 18  1  0
 20 18  1  0
 21 20  1  0
 18 22  1  0
 23 19  2  0
 24 19  1  0
 25 21  1  0
 20 26  1  0
 27 23  1  0
 28 24  2  0
 29 27  2  0
 29 28  1  0
  1 30  1  6
  3 31  1  1
  4 32  1  0
  5 33  1  0
  6 34  1  0
  7 35  1  0
  8 36  1  0
  8 37  1  0
  8 38  1  0
  9 39  1  0
  9 40  1  0
  9 41  1  0
 10 42  1  0
 11 43  1  0
 12 44  1  0
 16 45  1  0
 17 46  1  0
 18 47  1  1
 20 48  1  1
 21 49  1  0
 22 50  1  0
 23 51  1  0
 24 52  1  0
 25 53  1  0
 25 54  1  0
 25 55  1  0
 26 56  1  0
 26 57  1  0
 26 58  1  0
 27 59  1  0
 28 60  1  0
 29 61  1  0
M  END
> <Uni-Dock RESULT> 
ENERGY=   -4.040  LOWER_BOUND=    9.478  UPPER_BOUND=   11.509
INTER + INTRA:          -4.040
INTER:                  -4.040
INTRA:                   0.000
UNBOUND:                 0.000

$$$$

     RDKit          3D

 61 60  0  0  0  0  0  0  0  0999 V2000
   47.7904    7.7102   19.5345 C   0  0  1  0  0  0  0  0  0  0  0  0
   48.2799    6.9546   20.7564 C   0  0  0  0  0  0  0  0  0  0  0  0
   47.6878    9.2568   19.7457 C   0  0  1  0  0  0  0  0  0  0  0  0
   47.3154    9.9020   18.4628 N   0  0  0  0  0  0  0  0  0  0  0  0
   48.6740    7.4582   18.4290 O   0  0  0  0  0  0  0  0  0  0  0  0
   49.5638    7.1709   21.2838 C   0  0  0  0  0  0  0  0  0  0  0  0
   47.4462    6.0233   21.3864 C   0  0  0  0  0  0  0  0  0  0  0  0
   47.7202   11.2993   18.4083 C   0  0  0  0  0  0  0  0  0  0  0  0
   46.6680    9.6117   20.8314 C   0  0  0  0  0  0  0  0  0  0  0  0
   49.9986    6.4766   22.4142 C   0  0  0  0  0  0  0  0  0  0  0  0
   47.8782    5.3366   22.5231 C   0  0  0  0  0  0  0  0  0  0  0  0
   49.1507    5.5649   23.0374 C   0  0  0  0  0  0  0  0  0  0  0  0
   48.1696    8.5131   20.8056 S   0  0  0  0  0  0  0  0  0  0  0  0
   49.4527    8.7816   21.4109 O   0  0  0  0  0  0  0  0  0  0  0  0
   47.1020    9.4805   20.7720 O   0  0  0  0  0  0  0  0  0  0  0  0
   48.4387    8.0889   19.2835 O   0  0  0  0  0  0  0  0  0  0  0  0
   47.6135    7.1388   21.4189 O   0  0  0  0  0  0  0  0  0  0  0  0
   49.2913    9.1404   21.1388 C   0  0  1  0  0  0  0  0  0  0  0  0
   48.8461    7.6966   21.2417 C   0  0  0  0  0  0  0  0  0  0  0  0
   48.4845   10.1051   20.2034 C   0  0  1  0  0  0  0  0  0  0  0  0
   48.6919    9.9244   18.7474 N   0  0  0  0  0  0  0  0  0  0  0  0
   49.3287    9.6933   22.4670 O   0  0  0  0  0  0  0  0  0  0  0  0
   49.5821    6.6765   20.6167 C   0  0  0  0  0  0  0  0  0  0  0  0
   47.7201    7.3352   21.9995 C   0  0  0  0  0  0  0  0  0  0  0  0
   47.9623    8.8191   18.1462 C   0  0  0  0  0  0  0  0  0  0  0  0
   47.0072   10.2853   20.5832 C   0  0  0  0  0  0  0  0  0  0  0  0
   49.1911    5.3400   20.7271 C   0  0  0  0  0  0  0  0  0  0  0  0
   47.3324    5.9994   22.1160 C   0  0  0  0  0  0  0  0  0  0  0  0
   48.0659    5.0025   21.4770 C   0  0  0  0  0  0  0  0  0  0  0  0
   46.8100    7.3251   19.2247 H   0  0  0  0  0  0  0  0  0  0  0  0
   48.6806    9.6218   20.0414 H   0  0  0  0  0  0  0  0  0  0  0  0
   47.8138    9.3886   17.7252 H   0  0  0  0  0  0  0  0  0  0  0  0
   49.3418    6.8098   18.7115 H   0  0  0  0  0  0  0  0  0  0  0  0
   50.2371    7.8862   20.8152 H   0  0  0  0  0  0  0  0  0  0  0  0
   46.4457    5.8355   21.0024 H   0  0  0  0  0  0  0  0  0  0  0  0
   48.8007   11.4094   18.5402 H   0  0  0  0  0  0  0  0  0  0  0  0
   47.2077   11.8986   19.1631 H   0  0  0  0  0  0  0  0  0  0  0  0
   47.4633   11.7209   17.4300 H   0  0  0  0  0  0  0  0  0  0  0  0
   45.6620    9.2716   20.5595 H   0  0  0  0  0  0  0  0  0  0  0  0
   46.9294    9.1558   21.7932 H   0  0  0  0  0  0  0  0  0  0  0  0
   46.6232   10.6937   21.0007 H   0  0  0  0  0  0  0  0  0  0  0  0
   50.9926    6.6552   22.8158 H   0  0  0  0  0  0  0  0  0  0  0  0
   47.2121    4.6326   23.0113 H   0  0  0  0  0  0  0  0  0  0  0  0
   49.4878    5.0314   23.9236 H   0  0  0  0  0  0  0  0  0  0  0  0
   48.2327    8.8720   18.7311 H   0  0  0  0  0  0  0  0  0  0  0  0
   48.2083    6.4196   21.1337 H   0  0  0  0  0  0  0  0  0  0  0  0
   50.3386    9.1594   20.8037 H   0  0  0  0  0  0  0  0  0  0  0  0
   48.9306   11.0932   20.4027 H   0  0  0  0  0  0  0  0  0  0  0  0
   48.4007   10.7806   18.2761 H   0  0  0  0  0  0  0  0  0  0  0  0
   49.7360    9.0084   23.0257 H   0  0  0  0  0  0  0  0  0  0  0  0
   50.4678    6.9175   20.0322 H   0  0  0  0  0  0  0  0  0  0  0  0
   47.1421    8.0966   22.5191 H   0  0  0  0  0  0  0  0  0  0  0  0
   48.1262    8.8320   17.0640 H   0  0  0  0  0  0  0  0  0  0  0  0
   48.3114    7.8476   18.4975 H   0  0  0  0  0  0  0  0  0  0  0  0
   46.8834    8.8951   18.2985 H   0  0  0  0  0  0  0  0  0  0  0  0
   46.4270    9.3687   20.4512 H   0  0  0  0  0  0  0  0  0  0  0  0
   46.9046   10.6019   21.6275 H   0  0  0  0  0  0  0  0  0  0  0  0
   46.5387   11.0613   19.9644 H   0  0  0  0  0  0  0  0  0  0  0  0
   49.7672    4.5632   20.2287 H   0  0  0  0  0  0  0  0  0  0  0  0
   46.4594    5.7380   22.7096 H   0  0  0  0  0  0  0  0  0  0  0  0
   47.7634    3.9623   21.5697 H   0  0  0  0  0  0  0  0  0  0  0  0
  2  1  1  0
  3  1  1  0
  4  3  1  0
  1  5  1  0
  6  2  2  0
  7  2  1  0
  8  4  1  0
  3  9  1  0
 10  6  1  0
 11  7  2  0
 12 10  2  0
 12 11  1  0
 14 13  2  0
 15 13  2  0
 16 13  1  0
 17 13  1  0
 19 18  1  0
 20 18  1  0
 21 20  1  0
 18 22  1  0
 23 19  2  0
 24 19  1  0
 25 21  1  0
 20 26  1  0
 27 23  1  0
 28 24  2  0
 29 27  2  0
 29 28  1  0
  1 30  1  6
  3 31  1  1
  4 32  1  0
  5 33  1  0
  6 34  1  0
  7 35  1  0
  8 36  1  0
  8 37  1  0
  8 38  1  0
  9 39  1  0
  9 40  1  0
  9 41  1  0
 10 42  1  0
 11 43  1  0
 12 44  1  0
 16 45  1  0
 17 46  1  0
 18 47  1  1
 20 48  1  1
 21 49  1  0
 22 50  1  0
 23 51  1  0
 24 52  1  0
 25 53  1  0
 25 54  1  0
 25 55  1  0
 26 56  1  0
 26 57  1  0
 26 58  1  0
 27 59  1  0
 28 60  1  0
 29 61  1  0
M  END
> <Uni-Dock RESULT> 
ENERGY=   -3.949  LOWER_BOUND=    7.232  UPPER_BOUND=    9.399
INTER + INTRA:          -3.949
INTER:                  -3.949
INTRA:                   0.000
UNBOUND:                 0.000

$$$$

     RDKit          3D

 61 60  0  0  0  0  0  0  0  0999 V2000
   41.9841   12.2008    8.9303 C   0  0  1  0  0  0  0  0  0  0  0  0
   43.3057   12.1542    8.1856 C   0  0  0  0  0  0  0  0  0  0  0  0
   42.0268   11.5214   10.3388 C   0  0  1  0  0  0  0  0  0  0  0  0
   40.7255   11.7270   11.0207 N   0  0  0  0  0  0  0  0  0  0  0  0
   41.5749   13.5689    9.0958 O   0  0  0  0  0  0  0  0  0  0  0  0
   44.4494   12.7991    8.6850 C   0  0  0  0  0  0  0  0  0  0  0  0
   43.4063   11.4544    6.9775 C   0  0  0  0  0  0  0  0  0  0  0  0
   40.8390   11.6339   12.4690 C   0  0  0  0  0  0  0  0  0  0  0  0
   42.3386   10.0259   10.2347 C   0  0  0  0  0  0  0  0  0  0  0  0
   45.6617   12.7403    7.9953 C   0  0  0  0  0  0  0  0  0  0  0  0
   44.6220   11.3877    6.2934 C   0  0  0  0  0  0  0  0  0  0  0  0
   45.7479   12.0271    6.8028 C   0  0  0  0  0  0  0  0  0  0  0  0
   43.2094   11.5532    9.6254 S   0  0  0  0  0  0  0  0  0  0  0  0
   44.4147   12.1387   10.1634 O   0  0  0  0  0  0  0  0  0  0  0  0
   42.5383   10.4371   10.2424 O   0  0  0  0  0  0  0  0  0  0  0  0
   42.1203   12.7233    9.5092 O   0  0  0  0  0  0  0  0  0  0  0  0
   43.4728   11.2174    8.0788 O   0  0  0  0  0  0  0  0  0  0  0  0
   44.0818   12.0487   10.4950 C   0  0  1  0  0  0  0  0  0  0  0  0
   43.9880   12.0985    8.9843 C   0  0  0  0  0  0  0  0  0  0  0  0
   42.8099   11.6269   11.3080 C   0  0  1  0  0  0  0  0  0  0  0  0
   41.7292   12.6369   11.3961 N   0  0  0  0  0  0  0  0  0  0  0  0
   45.1756   11.1821   10.8474 O   0  0  0  0  0  0  0  0  0  0  0  0
   43.9312   13.3310    8.3131 C   0  0  0  0  0  0  0  0  0  0  0  0
   44.0036   10.9230    8.2157 C   0  0  0  0  0  0  0  0  0  0  0  0
   40.8773   12.7421   10.2220 C   0  0  0  0  0  0  0  0  0  0  0  0
   42.2901   10.2138   11.0046 C   0  0  0  0  0  0  0  0  0  0  0  0
   43.8688   13.3855    6.9186 C   0  0  0  0  0  0  0  0  0  0  0  0
   43.9480   10.9765    6.8220 C   0  0  0  0  0  0  0  0  0  0  0  0
   43.8770   12.2074    6.1739 C   0  0  0  0  0  0  0  0  0  0  0  0
   41.1983   11.7267    8.3275 H   0  0  0  0  0  0  0  0  0  0  0  0
   42.8089   12.0191   10.9280 H   0  0  0  0  0  0  0  0  0  0  0  0
   40.4182   12.6770   10.7776 H   0  0  0  0  0  0  0  0  0  0  0  0
   42.2132   14.1383    8.6328 H   0  0  0  0  0  0  0  0  0  0  0  0
   44.4032   13.3539    9.6202 H   0  0  0  0  0  0  0  0  0  0  0  0
   42.5384   10.9432    6.5664 H   0  0  0  0  0  0  0  0  0  0  0  0
   41.5467   12.3688   12.8640 H   0  0  0  0  0  0  0  0  0  0  0  0
   41.1485   10.6366   12.7871 H   0  0  0  0  0  0  0  0  0  0  0  0
   39.8651   11.8339   12.9300 H   0  0  0  0  0  0  0  0  0  0  0  0
   41.5677    9.4971    9.6621 H   0  0  0  0  0  0  0  0  0  0  0  0
   43.3030    9.8492    9.7448 H   0  0  0  0  0  0  0  0  0  0  0  0
   42.4013    9.5598   11.2248 H   0  0  0  0  0  0  0  0  0  0  0  0
   46.5411   13.2399    8.3934 H   0  0  0  0  0  0  0  0  0  0  0  0
   44.6879   10.8242    5.3682 H   0  0  0  0  0  0  0  0  0  0  0  0
   46.6957   11.9747    6.2712 H   0  0  0  0  0  0  0  0  0  0  0  0
   41.5100   12.6180   10.2690 H   0  0  0  0  0  0  0  0  0  0  0  0
   43.6039   12.0609    7.6058 H   0  0  0  0  0  0  0  0  0  0  0  0
   44.3888   13.0403   10.8582 H   0  0  0  0  0  0  0  0  0  0  0  0
   43.1765   11.5562   12.3451 H   0  0  0  0  0  0  0  0  0  0  0  0
   41.1349   12.3981   12.1896 H   0  0  0  0  0  0  0  0  0  0  0  0
   45.8988   11.4100   10.2373 H   0  0  0  0  0  0  0  0  0  0  0  0
   43.9306   14.2629    8.8751 H   0  0  0  0  0  0  0  0  0  0  0  0
   44.0739    9.9519    8.7012 H   0  0  0  0  0  0  0  0  0  0  0  0
   40.0723   13.4543   10.4299 H   0  0  0  0  0  0  0  0  0  0  0  0
   41.4101   13.1273    9.3520 H   0  0  0  0  0  0  0  0  0  0  0  0
   40.3967   11.7956    9.9649 H   0  0  0  0  0  0  0  0  0  0  0  0
   41.9008   10.1211    9.9877 H   0  0  0  0  0  0  0  0  0  0  0  0
   43.0819    9.4669   11.1319 H   0  0  0  0  0  0  0  0  0  0  0  0
   41.4784    9.9425   11.6917 H   0  0  0  0  0  0  0  0  0  0  0  0
   43.8156   14.3484    6.4151 H   0  0  0  0  0  0  0  0  0  0  0  0
   43.9641   10.0559    6.2431 H   0  0  0  0  0  0  0  0  0  0  0  0
   43.8350   12.2474    5.0883 H   0  0  0  0  0  0  0  0  0  0  0  0
  2  1  1  0
  3  1  1  0
  4  3  1  0
  1  5  1  0
  6  2  2  0
  7  2  1  0
  8  4  1  0
  3  9  1  0
 10  6  1  0
 11  7  2  0
 12 10  2  0
 12 11  1  0
 14 13  2  0
 15 13  2  0
 16 13  1  0
 17 13  1  0
 19 18  1  0
 20 18  1  0
 21 20  1  0
 18 22  1  0
 23 19  2  0
 24 19  1  0
 25 21  1  0
 20 26  1  0
 27 23  1  0
 28 24  2  0
 29 27  2  0
 29 28  1  0
  1 30  1  6
  3 31  1  1
  4 32  1  0
  5 33  1  0
  6 34  1  0
  7 35  1  0
  8 36  1  0
  8 37  1  0
  8 38  1  0
  9 39  1  0
  9 40  1  0
  9 41  1  0
 10 42  1  0
 11 43  1  0
 12 44  1  0
 16 45  1  0
 17 46  1  0
 18 47  1  1
 20 48  1  1
 21 49  1  0
 22 50  1  0
 23 51  1  0
 24 52  1  0
 25 53  1  0
 25 54  1  0
 25 55  1  0
 26 56  1  0
 26 57  1  0
 26 58  1  0
 27 59  1  0
 28 60  1  0
 29 61  1  0
M  END
> <Uni-Dock RESULT> 
ENERGY=   -3.942  LOWER_BOUND=    6.516  UPPER_BOUND=    8.163
INTER + INTRA:          -3.942
INTER:                  -3.942
INTRA:                   0.000
UNBOUND:                 0.000

$$$$
