
     RDKit          3D

 61 60  0  0  0  0  0  0  0  0999 V2000
   45.9386    6.8755   11.8022 C   0  0  1  0  0  0  0  0  0  0  0  0
   45.1181    5.5975   11.8677 C   0  0  0  0  0  0  0  0  0  0  0  0
   46.6501    7.2754   13.1409 C   0  0  1  0  0  0  0  0  0  0  0  0
   47.8451    6.4354   13.3799 N   0  0  0  0  0  0  0  0  0  0  0  0
   46.8978    6.8059   10.7346 O   0  0  0  0  0  0  0  0  0  0  0  0
   45.7099    4.3535   12.1330 C   0  0  0  0  0  0  0  0  0  0  0  0
   43.7338    5.6422   11.6353 C   0  0  0  0  0  0  0  0  0  0  0  0
   48.5082    6.6857   14.6466 C   0  0  0  0  0  0  0  0  0  0  0  0
   47.0289    8.7642   13.0744 C   0  0  0  0  0  0  0  0  0  0  0  0
   44.9399    3.1894   12.1740 C   0  0  0  0  0  0  0  0  0  0  0  0
   42.9645    4.4772   11.6755 C   0  0  0  0  0  0  0  0  0  0  0  0
   43.5677    3.2514   11.9456 C   0  0  0  0  0  0  0  0  0  0  0  0
   45.7556    6.2606   12.9153 S   0  0  0  0  0  0  0  0  0  0  0  0
   44.7594    7.2078   12.4842 O   0  0  0  0  0  0  0  0  0  0  0  0
   45.9123    5.8252   14.2797 O   0  0  0  0  0  0  0  0  0  0  0  0
   45.5795    4.9636   11.9877 O   0  0  0  0  0  0  0  0  0  0  0  0
   47.1940    6.7877   12.4395 O   0  0  0  0  0  0  0  0  0  0  0  0
   45.9701    6.9613   12.6744 C   0  0  1  0  0  0  0  0  0  0  0  0
   45.0595    5.8915   12.0955 C   0  0  0  0  0  0  0  0  0  0  0  0
   47.4725    6.5248   12.7755 C   0  0  1  0  0  0  0  0  0  0  0  0
   48.4220    7.5807   13.2054 N   0  0  0  0  0  0  0  0  0  0  0  0
   45.8421    8.1387   11.8660 O   0  0  0  0  0  0  0  0  0  0  0  0
   44.0647    5.3012   12.8893 C   0  0  0  0  0  0  0  0  0  0  0  0
   45.1909    5.4788   10.7597 C   0  0  0  0  0  0  0  0  0  0  0  0
   48.0741    8.2525   14.4460 C   0  0  0  0  0  0  0  0  0  0  0  0
   47.6464    5.2743   13.6504 C   0  0  0  0  0  0  0  0  0  0  0  0
   43.2268    4.3174   12.3608 C   0  0  0  0  0  0  0  0  0  0  0  0
   44.3519    4.4957   10.2336 C   0  0  0  0  0  0  0  0  0  0  0  0
   43.3712    3.9148   11.0345 C   0  0  0  0  0  0  0  0  0  0  0  0
   45.2583    7.6907   11.5256 H   0  0  0  0  0  0  0  0  0  0  0  0
   45.9370    7.1359   13.9636 H   0  0  0  0  0  0  0  0  0  0  0  0
   48.4897    6.5740   12.5984 H   0  0  0  0  0  0  0  0  0  0  0  0
   46.6913    6.0064   10.2207 H   0  0  0  0  0  0  0  0  0  0  0  0
   46.7804    4.2819   12.3152 H   0  0  0  0  0  0  0  0  0  0  0  0
   43.2404    6.5875   11.4190 H   0  0  0  0  0  0  0  0  0  0  0  0
   49.0005    7.6620   14.6704 H   0  0  0  0  0  0  0  0  0  0  0  0
   47.8083    6.6134   15.4852 H   0  0  0  0  0  0  0  0  0  0  0  0
   49.2826    5.9278   14.8024 H   0  0  0  0  0  0  0  0  0  0  0  0
   47.4046    9.1285   14.0357 H   0  0  0  0  0  0  0  0  0  0  0  0
   46.1539    9.3755   12.8268 H   0  0  0  0  0  0  0  0  0  0  0  0
   47.7949    8.9521   12.3140 H   0  0  0  0  0  0  0  0  0  0  0  0
   45.4143    2.2348   12.3871 H   0  0  0  0  0  0  0  0  0  0  0  0
   41.8936    4.5270   11.4958 H   0  0  0  0  0  0  0  0  0  0  0  0
   42.9692    2.3450   11.9788 H   0  0  0  0  0  0  0  0  0  0  0  0
   45.1975    5.2660   11.1378 H   0  0  0  0  0  0  0  0  0  0  0  0
   47.8662    6.3102   12.9685 H   0  0  0  0  0  0  0  0  0  0  0  0
   45.6038    7.2326   13.6716 H   0  0  0  0  0  0  0  0  0  0  0  0
   47.8064    6.2590   11.7640 H   0  0  0  0  0  0  0  0  0  0  0  0
   49.3588    7.1874   13.2762 H   0  0  0  0  0  0  0  0  0  0  0  0
   44.9373    8.1519   11.5126 H   0  0  0  0  0  0  0  0  0  0  0  0
   43.9353    5.6013   13.9270 H   0  0  0  0  0  0  0  0  0  0  0  0
   45.9491    5.9293   10.1209 H   0  0  0  0  0  0  0  0  0  0  0  0
   47.9983    7.5566   15.2865 H   0  0  0  0  0  0  0  0  0  0  0  0
   48.8572    8.9774   14.6913 H   0  0  0  0  0  0  0  0  0  0  0  0
   47.1413    8.8165   14.3572 H   0  0  0  0  0  0  0  0  0  0  0  0
   48.7039    5.0018   13.7436 H   0  0  0  0  0  0  0  0  0  0  0  0
   47.1367    4.4110   13.2105 H   0  0  0  0  0  0  0  0  0  0  0  0
   47.2442    5.4252   14.6575 H   0  0  0  0  0  0  0  0  0  0  0  0
   42.4600    3.8648   12.9843 H   0  0  0  0  0  0  0  0  0  0  0  0
   44.4634    4.1848    9.1980 H   0  0  0  0  0  0  0  0  0  0  0  0
   42.7178    3.1491   10.6243 H   0  0  0  0  0  0  0  0  0  0  0  0
  2  1  1  0
  3  1  1  0
  4  3  1  0
  1  5  1  0
  6  2  2  0
  7  2  1  0
  8  4  1  0
  3  9  1  0
 10  6  1  0
 11  7  2  0
 12 10  2  0
 12 11  1  0
 14 13  2  0
 15 13  2  0
 16 13  1  0
 17 13  1  0
 19 18  1  0
 20 18  1  0
 21 20  1  0
 18 22  1  0
 23 19  2  0
 24 19  1  0
 25 21  1  0
 20 26  1  0
 27 23  1  0
 28 24  2  0
 29 27  2  0
 29 28  1  0
  1 30  1  6
  3 31  1  1
  4 32  1  0
  5 33  1  0
  6 34  1  0
  7 35  1  0
  8 36  1  0
  8 37  1  0
  8 38  1  0
  9 39  1  0
  9 40  1  0
  9 41  1  0
 10 42  1  0
 11 43  1  0
 12 44  1  0
 16 45  1  0
 17 46  1  0
 18 47  1  1
 20 48  1  6
 21 49  1  0
 22 50  1  0
 23 51  1  0
 24 52  1  0
 25 53  1  0
 25 54  1  0
 25 55  1  0
 26 56  1  0
 26 57  1  0
 26 58  1  0
 27 59  1  0
 28 60  1  0
 29 61  1  0
M  END
> <Uni-Dock RESULT> 
ENERGY=   -5.307  LOWER_BOUND=    0.000  UPPER_BOUND=    0.000
INTER + INTRA:          -5.307
INTER:                  -5.307
INTRA:                   0.000
UNBOUND:                 0.000

$$$$

     RDKit          3D

 61 60  0  0  0  0  0  0  0  0999 V2000
   46.6114    6.1942   12.7011 C   0  0  1  0  0  0  0  0  0  0  0  0
   45.2720    5.6452   12.2367 C   0  0  0  0  0  0  0  0  0  0  0  0
   46.9626    7.6252   12.1653 C   0  0  1  0  0  0  0  0  0  0  0  0
   46.2025    8.6668   12.8921 N   0  0  0  0  0  0  0  0  0  0  0  0
   46.6980    6.1685   14.1351 O   0  0  0  0  0  0  0  0  0  0  0  0
   44.0613    6.2656   12.5797 C   0  0  0  0  0  0  0  0  0  0  0  0
   45.2262    4.4738   11.4634 C   0  0  0  0  0  0  0  0  0  0  0  0
   46.4067   10.0142   12.3922 C   0  0  0  0  0  0  0  0  0  0  0  0
   48.4771    7.8492   12.3084 C   0  0  0  0  0  0  0  0  0  0  0  0
   42.8410    5.7363   12.1551 C   0  0  0  0  0  0  0  0  0  0  0  0
   44.0051    3.9445   11.0399 C   0  0  0  0  0  0  0  0  0  0  0  0
   42.8130    4.5762   11.3852 C   0  0  0  0  0  0  0  0  0  0  0  0
   45.9012    6.8223   11.8341 S   0  0  0  0  0  0  0  0  0  0  0  0
   46.7979    5.7947   11.3700 O   0  0  0  0  0  0  0  0  0  0  0  0
   45.3768    7.8693   10.9947 O   0  0  0  0  0  0  0  0  0  0  0  0
   44.6688    6.0679   12.5308 O   0  0  0  0  0  0  0  0  0  0  0  0
   46.5735    7.5475   13.0972 O   0  0  0  0  0  0  0  0  0  0  0  0
   46.6327    6.8114   12.0784 C   0  0  1  0  0  0  0  0  0  0  0  0
   45.5424    5.7560   11.9993 C   0  0  0  0  0  0  0  0  0  0  0  0
   46.3083    7.9817   13.0699 C   0  0  1  0  0  0  0  0  0  0  0  0
   47.3993    8.9639   13.2852 N   0  0  0  0  0  0  0  0  0  0  0  0
   47.8547    6.1604   12.4519 O   0  0  0  0  0  0  0  0  0  0  0  0
   44.8177    5.5725   10.8121 C   0  0  0  0  0  0  0  0  0  0  0  0
   45.2439    4.9438   13.1051 C   0  0  0  0  0  0  0  0  0  0  0  0
   47.9456    9.5516   12.0738 C   0  0  0  0  0  0  0  0  0  0  0  0
   45.0123    8.7119   12.6870 C   0  0  0  0  0  0  0  0  0  0  0  0
   43.8146    4.6043   10.7362 C   0  0  0  0  0  0  0  0  0  0  0  0
   44.2413    3.9764   13.0267 C   0  0  0  0  0  0  0  0  0  0  0  0
   43.5265    3.8079   11.8429 C   0  0  0  0  0  0  0  0  0  0  0  0
   47.3897    5.5036   12.3529 H   0  0  0  0  0  0  0  0  0  0  0  0
   46.7058    7.6651   11.0989 H   0  0  0  0  0  0  0  0  0  0  0  0
   46.4500    8.6049   13.8822 H   0  0  0  0  0  0  0  0  0  0  0  0
   45.9263    5.6713   14.4561 H   0  0  0  0  0  0  0  0  0  0  0  0
   44.0598    7.1733   13.1800 H   0  0  0  0  0  0  0  0  0  0  0  0
   46.1439    3.9604   11.1838 H   0  0  0  0  0  0  0  0  0  0  0  0
   47.4138   10.3854   12.6021 H   0  0  0  0  0  0  0  0  0  0  0  0
   46.2165   10.0741   11.3159 H   0  0  0  0  0  0  0  0  0  0  0  0
   45.7019   10.6908   12.8857 H   0  0  0  0  0  0  0  0  0  0  0  0
   48.7954    8.7775   11.8236 H   0  0  0  0  0  0  0  0  0  0  0  0
   49.0354    7.0371   11.8295 H   0  0  0  0  0  0  0  0  0  0  0  0
   48.7814    7.8903   13.3600 H   0  0  0  0  0  0  0  0  0  0  0  0
   41.9129    6.2335   12.4251 H   0  0  0  0  0  0  0  0  0  0  0  0
   43.9848    3.0382   10.4399 H   0  0  0  0  0  0  0  0  0  0  0  0
   41.8629    4.1659   11.0543 H   0  0  0  0  0  0  0  0  0  0  0  0
   45.0041    5.2074   12.8577 H   0  0  0  0  0  0  0  0  0  0  0  0
   46.1110    8.4025   13.2193 H   0  0  0  0  0  0  0  0  0  0  0  0
   46.7981    7.2218   11.0752 H   0  0  0  0  0  0  0  0  0  0  0  0
   46.1470    7.5378   14.0609 H   0  0  0  0  0  0  0  0  0  0  0  0
   47.0759    9.6996   13.9109 H   0  0  0  0  0  0  0  0  0  0  0  0
   47.8241    5.2575   12.0949 H   0  0  0  0  0  0  0  0  0  0  0  0
   45.0270    6.1837    9.9368 H   0  0  0  0  0  0  0  0  0  0  0  0
   45.7994    5.0606   14.0345 H   0  0  0  0  0  0  0  0  0  0  0  0
   47.1840   10.0727   11.4865 H   0  0  0  0  0  0  0  0  0  0  0  0
   48.7086   10.2879   12.3468 H   0  0  0  0  0  0  0  0  0  0  0  0
   48.4403    8.8057   11.4453 H   0  0  0  0  0  0  0  0  0  0  0  0
   44.8167    9.5505   13.3650 H   0  0  0  0  0  0  0  0  0  0  0  0
   44.1478    8.0437   12.7557 H   0  0  0  0  0  0  0  0  0  0  0  0
   45.0543    9.1034   11.6653 H   0  0  0  0  0  0  0  0  0  0  0  0
   43.2575    4.4707    9.8125 H   0  0  0  0  0  0  0  0  0  0  0  0
   44.0196    3.3537   13.8896 H   0  0  0  0  0  0  0  0  0  0  0  0
   42.7456    3.0543   11.7822 H   0  0  0  0  0  0  0  0  0  0  0  0
  2  1  1  0
  3  1  1  0
  4  3  1  0
  1  5  1  0
  6  2  2  0
  7  2  1  0
  8  4  1  0
  3  9  1  0
 10  6  1  0
 11  7  2  0
 12 10  2  0
 12 11  1  0
 14 13  2  0
 15 13  2  0
 16 13  1  0
 17 13  1  0
 19 18  1  0
 20 18  1  0
 21 20  1  0
 18 22  1  0
 23 19  2  0
 24 19  1  0
 25 21  1  0
 20 26  1  0
 27 23  1  0
 28 24  2  0
 29 27  2  0
 29 28  1  0
  1 30  1  6
  3 31  1  1
  4 32  1  0
  5 33  1  0
  6 34  1  0
  7 35  1  0
  8 36  1  0
  8 37  1  0
  8 38  1  0
  9 39  1  0
  9 40  1  0
  9 41  1  0
 10 42  1  0
 11 43  1  0
 12 44  1  0
 16 45  1  0
 17 46  1  0
 18 47  1  1
 20 48  1  6
 21 49  1  0
 22 50  1  0
 23 51  1  0
 24 52  1  0
 25 53  1  0
 25 54  1  0
 25 55  1  0
 26 56  1  0
 26 57  1  0
 26 58  1  0
 27 59  1  0
 28 60  1  0
 29 61  1  0
M  END
> <Uni-Dock RESULT> 
ENERGY=   -5.037  LOWER_BOUND=    1.237  UPPER_BOUND=    2.392
INTER + INTRA:          -5.037
INTER:                  -5.037
INTRA:                   0.000
UNBOUND:                 0.000

$$$$

     RDKit          3D

 61 60  0  0  0  0  0  0  0  0999 V2000
   48.0591    6.3083   19.4090 C   0  0  1  0  0  0  0  0  0  0  0  0
   48.2208    5.0956   18.5067 C   0  0  0  0  0  0  0  0  0  0  0  0
   48.3344    6.0440   20.9297 C   0  0  1  0  0  0  0  0  0  0  0  0
   49.7868    5.9481   21.1986 N   0  0  0  0  0  0  0  0  0  0  0  0
   48.8713    7.3976   18.9418 O   0  0  0  0  0  0  0  0  0  0  0  0
   49.4566    4.4492   18.3539 C   0  0  0  0  0  0  0  0  0  0  0  0
   47.1200    4.6114   17.7814 C   0  0  0  0  0  0  0  0  0  0  0  0
   50.1199    5.6149   22.5716 C   0  0  0  0  0  0  0  0  0  0  0  0
   47.6966    7.1759   21.7521 C   0  0  0  0  0  0  0  0  0  0  0  0
   49.5868    3.3457   17.5083 C   0  0  0  0  0  0  0  0  0  0  0  0
   47.2514    3.5081   16.9350 C   0  0  0  0  0  0  0  0  0  0  0  0
   48.4844    2.8753   16.7993 C   0  0  0  0  0  0  0  0  0  0  0  0
   48.2795    5.1412   19.8988 S   0  0  0  0  0  0  0  0  0  0  0  0
   46.9186    5.5187   19.6144 O   0  0  0  0  0  0  0  0  0  0  0  0
   48.6467    4.0864   20.8089 O   0  0  0  0  0  0  0  0  0  0  0  0
   48.9753    4.8519   18.4825 O   0  0  0  0  0  0  0  0  0  0  0  0
   49.0783    6.4486   20.3741 O   0  0  0  0  0  0  0  0  0  0  0  0
   48.0118    5.8237   20.1385 C   0  0  1  0  0  0  0  0  0  0  0  0
   47.9861    5.1032   18.8009 C   0  0  0  0  0  0  0  0  0  0  0  0
   49.4531    6.2079   20.6213 C   0  0  1  0  0  0  0  0  0  0  0  0
   49.5208    7.0327   21.8528 N   0  0  0  0  0  0  0  0  0  0  0  0
   47.1900    6.9937   20.0287 O   0  0  0  0  0  0  0  0  0  0  0  0
   47.5658    3.7670   18.7230 C   0  0  0  0  0  0  0  0  0  0  0  0
   48.3748    5.7588   17.6215 C   0  0  0  0  0  0  0  0  0  0  0  0
   48.8030    6.4926   22.9949 C   0  0  0  0  0  0  0  0  0  0  0  0
   50.3550    4.9730   20.7661 C   0  0  0  0  0  0  0  0  0  0  0  0
   47.5417    3.1017   17.4958 C   0  0  0  0  0  0  0  0  0  0  0  0
   48.3493    5.0919   16.3960 C   0  0  0  0  0  0  0  0  0  0  0  0
   47.9340    3.7636   16.3339 C   0  0  0  0  0  0  0  0  0  0  0  0
   47.0237    6.6576   19.3098 H   0  0  0  0  0  0  0  0  0  0  0  0
   47.8499    5.0989   21.2072 H   0  0  0  0  0  0  0  0  0  0  0  0
   50.2176    6.8339   20.9246 H   0  0  0  0  0  0  0  0  0  0  0  0
   49.2228    7.1360   18.0735 H   0  0  0  0  0  0  0  0  0  0  0  0
   50.3310    4.7996   18.8988 H   0  0  0  0  0  0  0  0  0  0  0  0
   46.1473    5.0911   17.8682 H   0  0  0  0  0  0  0  0  0  0  0  0
   49.8900    6.4306   23.2629 H   0  0  0  0  0  0  0  0  0  0  0  0
   49.6031    4.7072   22.8991 H   0  0  0  0  0  0  0  0  0  0  0  0
   51.1949    5.4218   22.6435 H   0  0  0  0  0  0  0  0  0  0  0  0
   47.7407    6.9689   22.8260 H   0  0  0  0  0  0  0  0  0  0  0  0
   46.6370    7.2898   21.4972 H   0  0  0  0  0  0  0  0  0  0  0  0
   48.1906    8.1363   21.5679 H   0  0  0  0  0  0  0  0  0  0  0  0
   50.5505    2.8534   17.4067 H   0  0  0  0  0  0  0  0  0  0  0  0
   46.3902    3.1428   16.3813 H   0  0  0  0  0  0  0  0  0  0  0  0
   48.5866    2.0158   16.1424 H   0  0  0  0  0  0  0  0  0  0  0  0
   48.5057    5.3927   17.8141 H   0  0  0  0  0  0  0  0  0  0  0  0
   49.8902    6.1419   20.8284 H   0  0  0  0  0  0  0  0  0  0  0  0
   47.5360    5.1843   20.8913 H   0  0  0  0  0  0  0  0  0  0  0  0
   49.9005    6.8443   19.8468 H   0  0  0  0  0  0  0  0  0  0  0  0
   50.4953    7.1933   22.1013 H   0  0  0  0  0  0  0  0  0  0  0  0
   46.4847    6.7950   19.3909 H   0  0  0  0  0  0  0  0  0  0  0  0
   47.2554    3.2322   19.6181 H   0  0  0  0  0  0  0  0  0  0  0  0
   48.6955    6.7989   17.6550 H   0  0  0  0  0  0  0  0  0  0  0  0
   49.1634    5.4996   23.2785 H   0  0  0  0  0  0  0  0  0  0  0  0
   48.9526    7.1529   23.8555 H   0  0  0  0  0  0  0  0  0  0  0  0
   47.7248    6.4496   22.8164 H   0  0  0  0  0  0  0  0  0  0  0  0
   51.3472    5.2506   21.1398 H   0  0  0  0  0  0  0  0  0  0  0  0
   50.5090    4.4814   19.8001 H   0  0  0  0  0  0  0  0  0  0  0  0
   49.9266    4.2366   21.4538 H   0  0  0  0  0  0  0  0  0  0  0  0
   47.2160    2.0659   17.4458 H   0  0  0  0  0  0  0  0  0  0  0  0
   48.6525    5.6103   15.4900 H   0  0  0  0  0  0  0  0  0  0  0  0
   47.9142    3.2445   15.3791 H   0  0  0  0  0  0  0  0  0  0  0  0
  2  1  1  0
  3  1  1  0
  4  3  1  0
  1  5  1  0
  6  2  2  0
  7  2  1  0
  8  4  1  0
  3  9  1  0
 10  6  1  0
 11  7  2  0
 12 10  2  0
 12 11  1  0
 14 13  2  0
 15 13  2  0
 16 13  1  0
 17 13  1  0
 19 18  1  0
 20 18  1  0
 21 20  1  0
 18 22  1  0
 23 19  2  0
 24 19  1  0
 25 21  1  0
 20 26  1  0
 27 23  1  0
 28 24  2  0
 29 27  2  0
 29 28  1  0
  1 30  1  6
  3 31  1  1
  4 32  1  0
  5 33  1  0
  6 34  1  0
  7 35  1  0
  8 36  1  0
  8 37  1  0
  8 38  1  0
  9 39  1  0
  9 40  1  0
  9 41  1  0
 10 42  1  0
 11 43  1  0
 12 44  1  0
 16 45  1  0
 17 46  1  0
 18 47  1  1
 20 48  1  6
 21 49  1  0
 22 50  1  0
 23 51  1  0
 24 52  1  0
 25 53  1  0
 25 54  1  0
 25 55  1  0
 26 56  1  0
 26 57  1  0
 26 58  1  0
 27 59  1  0
 28 60  1  0
 29 61  1  0
M  END
> <Uni-Dock RESULT> 
ENERGY=   -4.895  LOWER_BOUND=    6.131  UPPER_BOUND=    7.694
INTER + INTRA:          -4.895
INTER:                  -4.895
INTRA:                   0.000
UNBOUND:                 0.000

$$$$

     RDKit          3D

 61 60  0  0  0  0  0  0  0  0999 V2000
   48.6034    6.9733   19.3053 C   0  0  1  0  0  0  0  0  0  0  0  0
   48.3376    5.5884   18.7376 C   0  0  0  0  0  0  0  0  0  0  0  0
   47.8064    7.3186   20.6106 C   0  0  1  0  0  0  0  0  0  0  0  0
   48.3967    6.6440   21.7885 N   0  0  0  0  0  0  0  0  0  0  0  0
   50.0106    7.1701   19.5190 O   0  0  0  0  0  0  0  0  0  0  0  0
   48.6554    4.4242   19.4532 C   0  0  0  0  0  0  0  0  0  0  0  0
   47.7818    5.4529   17.4550 C   0  0  0  0  0  0  0  0  0  0  0  0
   47.6598    6.8434   23.0231 C   0  0  0  0  0  0  0  0  0  0  0  0
   47.7996    8.8449   20.7972 C   0  0  0  0  0  0  0  0  0  0  0  0
   48.4166    3.1615   18.9070 C   0  0  0  0  0  0  0  0  0  0  0  0
   47.5442    4.1894   16.9091 C   0  0  0  0  0  0  0  0  0  0  0  0
   47.8610    3.0443   17.6355 C   0  0  0  0  0  0  0  0  0  0  0  0
   47.6949    6.2145   19.8047 S   0  0  0  0  0  0  0  0  0  0  0  0
   47.3506    7.0460   18.6797 O   0  0  0  0  0  0  0  0  0  0  0  0
   46.7285    5.6537   20.7142 O   0  0  0  0  0  0  0  0  0  0  0  0
   48.5975    5.0208   19.2268 O   0  0  0  0  0  0  0  0  0  0  0  0
   48.7633    7.0009   20.7065 O   0  0  0  0  0  0  0  0  0  0  0  0
   47.8842    6.9622   19.8071 C   0  0  1  0  0  0  0  0  0  0  0  0
   48.0658    5.8423   18.7963 C   0  0  0  0  0  0  0  0  0  0  0  0
   48.6812    6.7457   21.1397 C   0  0  1  0  0  0  0  0  0  0  0  0
   48.6459    7.8749   22.1015 N   0  0  0  0  0  0  0  0  0  0  0  0
   48.2749    8.1923   19.1821 O   0  0  0  0  0  0  0  0  0  0  0  0
   46.9829    5.0234   18.4428 C   0  0  0  0  0  0  0  0  0  0  0  0
   49.3131    5.6096   18.1947 C   0  0  0  0  0  0  0  0  0  0  0  0
   47.3155    8.3406   22.4546 C   0  0  0  0  0  0  0  0  0  0  0  0
   48.2730    5.4431   21.8440 C   0  0  0  0  0  0  0  0  0  0  0  0
   47.1465    3.9930   17.5150 C   0  0  0  0  0  0  0  0  0  0  0  0
   49.4740    4.5795   17.2673 C   0  0  0  0  0  0  0  0  0  0  0  0
   48.3911    3.7711   16.9288 C   0  0  0  0  0  0  0  0  0  0  0  0
   48.3237    7.7044   18.5364 H   0  0  0  0  0  0  0  0  0  0  0  0
   46.7702    6.9811   20.4795 H   0  0  0  0  0  0  0  0  0  0  0  0
   49.3623    6.9657   21.8854 H   0  0  0  0  0  0  0  0  0  0  0  0
   50.4668    6.4131   19.1133 H   0  0  0  0  0  0  0  0  0  0  0  0
   49.0897    4.4925   20.4487 H   0  0  0  0  0  0  0  0  0  0  0  0
   47.5291    6.3327   16.8669 H   0  0  0  0  0  0  0  0  0  0  0  0
   47.7300    7.8729   23.3855 H   0  0  0  0  0  0  0  0  0  0  0  0
   46.6057    6.5720   22.9076 H   0  0  0  0  0  0  0  0  0  0  0  0
   48.0795    6.1964   23.8001 H   0  0  0  0  0  0  0  0  0  0  0  0
   47.1413    9.1484   21.6173 H   0  0  0  0  0  0  0  0  0  0  0  0
   47.4281    9.3434   19.8949 H   0  0  0  0  0  0  0  0  0  0  0  0
   48.8040    9.2307   21.0036 H   0  0  0  0  0  0  0  0  0  0  0  0
   48.6634    2.2702   19.4781 H   0  0  0  0  0  0  0  0  0  0  0  0
   47.1116    4.0995   15.9160 H   0  0  0  0  0  0  0  0  0  0  0  0
   47.6746    2.0611   17.2120 H   0  0  0  0  0  0  0  0  0  0  0  0
   49.0420    5.3583   18.4217 H   0  0  0  0  0  0  0  0  0  0  0  0
   48.7701    6.5714   21.5870 H   0  0  0  0  0  0  0  0  0  0  0  0
   46.8163    7.0599   20.0354 H   0  0  0  0  0  0  0  0  0  0  0  0
   49.7426    6.6503   20.8763 H   0  0  0  0  0  0  0  0  0  0  0  0
   49.1579    7.6199   22.9442 H   0  0  0  0  0  0  0  0  0  0  0  0
   48.0811    8.1111   18.2337 H   0  0  0  0  0  0  0  0  0  0  0  0
   46.0030    5.1800   18.8887 H   0  0  0  0  0  0  0  0  0  0  0  0
   50.1663    6.2383   18.4454 H   0  0  0  0  0  0  0  0  0  0  0  0
   46.7040    7.5495   22.8979 H   0  0  0  0  0  0  0  0  0  0  0  0
   47.4027    9.1411   23.1965 H   0  0  0  0  0  0  0  0  0  0  0  0
   46.7903    8.7659   21.5947 H   0  0  0  0  0  0  0  0  0  0  0  0
   48.8095    5.3221   22.7920 H   0  0  0  0  0  0  0  0  0  0  0  0
   48.5173    4.5696   21.2308 H   0  0  0  0  0  0  0  0  0  0  0  0
   47.1991    5.4159   22.0553 H   0  0  0  0  0  0  0  0  0  0  0  0
   46.3018    3.3628   17.2487 H   0  0  0  0  0  0  0  0  0  0  0  0
   50.4445    4.4095   16.8083 H   0  0  0  0  0  0  0  0  0  0  0  0
   48.5168    2.9688   16.2063 H   0  0  0  0  0  0  0  0  0  0  0  0
  2  1  1  0
  3  1  1  0
  4  3  1  0
  1  5  1  0
  6  2  2  0
  7  2  1  0
  8  4  1  0
  3  9  1  0
 10  6  1  0
 11  7  2  0
 12 10  2  0
 12 11  1  0
 14 13  2  0
 15 13  2  0
 16 13  1  0
 17 13  1  0
 19 18  1  0
 20 18  1  0
 21 20  1  0
 18 22  1  0
 23 19  2  0
 24 19  1  0
 25 21  1  0
 20 26  1  0
 27 23  1  0
 28 24  2  0
 29 27  2  0
 29 28  1  0
  1 30  1  6
  3 31  1  1
  4 32  1  0
  5 33  1  0
  6 34  1  0
  7 35  1  0
  8 36  1  0
  8 37  1  0
  8 38  1  0
  9 39  1  0
  9 40  1  0
  9 41  1  0
 10 42  1  0
 11 43  1  0
 12 44  1  0
 16 45  1  0
 17 46  1  0
 18 47  1  1
 20 48  1  6
 21 49  1  0
 22 50  1  0
 23 51  1  0
 24 52  1  0
 25 53  1  0
 25 54  1  0
 25 55  1  0
 26 56  1  0
 26 57  1  0
 26 58  1  0
 27 59  1  0
 28 60  1  0
 29 61  1  0
M  END
> <Uni-Dock RESULT> 
ENERGY=   -4.494  LOWER_BOUND=    6.230  UPPER_BOUND=    7.763
INTER + INTRA:          -4.494
INTER:                  -4.494
INTRA:                   0.000
UNBOUND:                 0.000

$$$$

     RDKit          3D

 61 60  0  0  0  0  0  0  0  0999 V2000
   45.3798    7.5865   12.2580 C   0  0  1  0  0  0  0  0  0  0  0  0
   46.8584    7.5349   12.6075 C   0  0  0  0  0  0  0  0  0  0  0  0
   44.7404    6.2065   11.8774 C   0  0  1  0  0  0  0  0  0  0  0  0
   44.5003    5.3810   13.0823 N   0  0  0  0  0  0  0  0  0  0  0  0
   44.6312    8.2022   13.3187 O   0  0  0  0  0  0  0  0  0  0  0  0
   47.3307    6.8096   13.7117 C   0  0  0  0  0  0  0  0  0  0  0  0
   47.7865    8.2456   11.8292 C   0  0  0  0  0  0  0  0  0  0  0  0
   43.9914    4.0504   12.8037 C   0  0  0  0  0  0  0  0  0  0  0  0
   43.4294    6.4618   11.1156 C   0  0  0  0  0  0  0  0  0  0  0  0
   48.6914    6.7875   14.0239 C   0  0  0  0  0  0  0  0  0  0  0  0
   49.1474    8.2238   12.1428 C   0  0  0  0  0  0  0  0  0  0  0  0
   49.5994    7.4943   13.2395 C   0  0  0  0  0  0  0  0  0  0  0  0
   46.0573    6.5038   12.1192 S   0  0  0  0  0  0  0  0  0  0  0  0
   46.0608    7.4571   11.0392 O   0  0  0  0  0  0  0  0  0  0  0  0
   46.3955    5.1120   11.9628 O   0  0  0  0  0  0  0  0  0  0  0  0
   46.9837    7.1226   13.2734 O   0  0  0  0  0  0  0  0  0  0  0  0
   44.6170    6.5438   12.8244 O   0  0  0  0  0  0  0  0  0  0  0  0
   45.3919    6.8016   11.8671 C   0  0  1  0  0  0  0  0  0  0  0  0
   46.7203    7.4136   12.2790 C   0  0  0  0  0  0  0  0  0  0  0  0
   44.6379    6.0819   13.0382 C   0  0  1  0  0  0  0  0  0  0  0  0
   43.2754    5.5885   12.7194 N   0  0  0  0  0  0  0  0  0  0  0  0
   44.5776    7.8417   11.3092 O   0  0  0  0  0  0  0  0  0  0  0  0
   47.9234    6.9135   11.7585 C   0  0  0  0  0  0  0  0  0  0  0  0
   46.7697    8.4900   13.1794 C   0  0  0  0  0  0  0  0  0  0  0  0
   43.1898    4.7324   11.5485 C   0  0  0  0  0  0  0  0  0  0  0  0
   45.4775    4.9489   13.6471 C   0  0  0  0  0  0  0  0  0  0  0  0
   49.1457    7.4730   12.1355 C   0  0  0  0  0  0  0  0  0  0  0  0
   47.9926    9.0478   13.5542 C   0  0  0  0  0  0  0  0  0  0  0  0
   49.1799    8.5384   13.0331 C   0  0  0  0  0  0  0  0  0  0  0  0
   45.2673    8.2586   11.3981 H   0  0  0  0  0  0  0  0  0  0  0  0
   45.4331    5.6801   11.2081 H   0  0  0  0  0  0  0  0  0  0  0  0
   43.8614    5.8938   13.6940 H   0  0  0  0  0  0  0  0  0  0  0  0
   45.2781    8.5656   13.9474 H   0  0  0  0  0  0  0  0  0  0  0  0
   46.6389    6.2496   14.3379 H   0  0  0  0  0  0  0  0  0  0  0  0
   47.4571    8.8256   10.9696 H   0  0  0  0  0  0  0  0  0  0  0  0
   42.9656    4.0703   12.4252 H   0  0  0  0  0  0  0  0  0  0  0  0
   44.6297    3.5199   12.0900 H   0  0  0  0  0  0  0  0  0  0  0  0
   43.9843    3.4675   13.7302 H   0  0  0  0  0  0  0  0  0  0  0  0
   43.0128    5.5356   10.7074 H   0  0  0  0  0  0  0  0  0  0  0  0
   43.6000    7.1314   10.2653 H   0  0  0  0  0  0  0  0  0  0  0  0
   42.6722    6.9235   11.7589 H   0  0  0  0  0  0  0  0  0  0  0  0
   49.0405    6.2152   14.8795 H   0  0  0  0  0  0  0  0  0  0  0  0
   49.8548    8.7770   11.5303 H   0  0  0  0  0  0  0  0  0  0  0  0
   50.6583    7.4755   13.4827 H   0  0  0  0  0  0  0  0  0  0  0  0
   46.9536    8.0970   13.1767 H   0  0  0  0  0  0  0  0  0  0  0  0
   44.5279    5.7197   13.3465 H   0  0  0  0  0  0  0  0  0  0  0  0
   45.5713    6.0847   11.0571 H   0  0  0  0  0  0  0  0  0  0  0  0
   44.4762    6.8244   13.8305 H   0  0  0  0  0  0  0  0  0  0  0  0
   42.8903    5.1059   13.5294 H   0  0  0  0  0  0  0  0  0  0  0  0
   45.1736    8.4859   10.8926 H   0  0  0  0  0  0  0  0  0  0  0  0
   47.9187    6.0824   11.0565 H   0  0  0  0  0  0  0  0  0  0  0  0
   45.8487    8.9019   13.5893 H   0  0  0  0  0  0  0  0  0  0  0  0
   43.8178    3.8416   11.6401 H   0  0  0  0  0  0  0  0  0  0  0  0
   42.1557    4.3926   11.4294 H   0  0  0  0  0  0  0  0  0  0  0  0
   43.4514    5.2676   10.6313 H   0  0  0  0  0  0  0  0  0  0  0  0
   44.9251    4.4300   14.4388 H   0  0  0  0  0  0  0  0  0  0  0  0
   46.3924    5.3383   14.1054 H   0  0  0  0  0  0  0  0  0  0  0  0
   45.7673    4.2092   12.8938 H   0  0  0  0  0  0  0  0  0  0  0  0
   50.0727    7.0775   11.7280 H   0  0  0  0  0  0  0  0  0  0  0  0
   48.0177    9.8809   14.2519 H   0  0  0  0  0  0  0  0  0  0  0  0
   50.1323    8.9732   13.3252 H   0  0  0  0  0  0  0  0  0  0  0  0
  2  1  1  0
  3  1  1  0
  4  3  1  0
  1  5  1  0
  6  2  2  0
  7  2  1  0
  8  4  1  0
  3  9  1  0
 10  6  1  0
 11  7  2  0
 12 10  2  0
 12 11  1  0
 14 13  2  0
 15 13  2  0
 16 13  1  0
 17 13  1  0
 19 18  1  0
 20 18  1  0
 21 20  1  0
 18 22  1  0
 23 19  2  0
 24 19  1  0
 25 21  1  0
 20 26  1  0
 27 23  1  0
 28 24  2  0
 29 27  2  0
 29 28  1  0
  1 30  1  6
  3 31  1  1
  4 32  1  0
  5 33  1  0
  6 34  1  0
  7 35  1  0
  8 36  1  0
  8 37  1  0
  8 38  1  0
  9 39  1  0
  9 40  1  0
  9 41  1  0
 10 42  1  0
 11 43  1  0
 12 44  1  0
 16 45  1  0
 17 46  1  0
 18 47  1  1
 20 48  1  6
 21 49  1  0
 22 50  1  0
 23 51  1  0
 24 52  1  0
 25 53  1  0
 25 54  1  0
 25 55  1  0
 26 56  1  0
 26 57  1  0
 26 58  1  0
 27 59  1  0
 28 60  1  0
 29 61  1  0
M  END
> <Uni-Dock RESULT> 
ENERGY=   -4.399  LOWER_BOUND=    1.595  UPPER_BOUND=    4.452
INTER + INTRA:          -4.399
INTER:                  -4.399
INTRA:                   0.000
UNBOUND:                 0.000

$$$$

     RDKit          3D

 61 60  0  0  0  0  0  0  0  0999 V2000
   48.0160   13.0673   17.1764 C   0  0  1  0  0  0  0  0  0  0  0  0
   47.9054   12.4500   18.5611 C   0  0  0  0  0  0  0  0  0  0  0  0
   48.7253   14.4647   17.1286 C   0  0  1  0  0  0  0  0  0  0  0  0
   50.1926   14.3214   17.2605 N   0  0  0  0  0  0  0  0  0  0  0  0
   48.6560   12.1571   16.2672 O   0  0  0  0  0  0  0  0  0  0  0  0
   49.0417   12.0982   19.3051 C   0  0  0  0  0  0  0  0  0  0  0  0
   46.6400   12.1966   19.1151 C   0  0  0  0  0  0  0  0  0  0  0  0
   50.9137   15.5800   17.3151 C   0  0  0  0  0  0  0  0  0  0  0  0
   48.3573   15.1616   15.8082 C   0  0  0  0  0  0  0  0  0  0  0  0
   48.9176   11.5185   20.5693 C   0  0  0  0  0  0  0  0  0  0  0  0
   46.5168   11.6158   20.3793 C   0  0  0  0  0  0  0  0  0  0  0  0
   47.6555   11.2776   21.1062 C   0  0  0  0  0  0  0  0  0  0  0  0
   48.3700   13.7205   18.2245 S   0  0  0  0  0  0  0  0  0  0  0  0
   46.9857   13.7606   17.8274 O   0  0  0  0  0  0  0  0  0  0  0  0
   48.9875   14.6987   19.0833 O   0  0  0  0  0  0  0  0  0  0  0  0
   48.6194   12.2660   18.8534 O   0  0  0  0  0  0  0  0  0  0  0  0
   49.2736   13.6441   16.9012 O   0  0  0  0  0  0  0  0  0  0  0  0
   48.1846   13.8685   17.4905 C   0  0  1  0  0  0  0  0  0  0  0  0
   47.7673   12.7896   18.4757 C   0  0  0  0  0  0  0  0  0  0  0  0
   49.7043   13.8209   17.1080 C   0  0  1  0  0  0  0  0  0  0  0  0
   50.1307   14.7657   16.0464 N   0  0  0  0  0  0  0  0  0  0  0  0
   47.3674   13.7407   16.3192 O   0  0  0  0  0  0  0  0  0  0  0  0
   47.3420   13.1347   19.7673 C   0  0  0  0  0  0  0  0  0  0  0  0
   47.7932   11.4333   18.1130 C   0  0  0  0  0  0  0  0  0  0  0  0
   49.7794   16.1557   16.2829 C   0  0  0  0  0  0  0  0  0  0  0  0
   50.6085   13.9729   18.3404 C   0  0  0  0  0  0  0  0  0  0  0  0
   46.9586   12.1459   20.6753 C   0  0  0  0  0  0  0  0  0  0  0  0
   47.4090   10.4469   19.0221 C   0  0  0  0  0  0  0  0  0  0  0  0
   46.9931   10.8034   20.3030 C   0  0  0  0  0  0  0  0  0  0  0  0
   46.9972   13.1930   16.7888 H   0  0  0  0  0  0  0  0  0  0  0  0
   48.3431   15.0723   17.9591 H   0  0  0  0  0  0  0  0  0  0  0  0
   50.5245   13.7457   16.4835 H   0  0  0  0  0  0  0  0  0  0  0  0
   48.7371   11.3055   16.7300 H   0  0  0  0  0  0  0  0  0  0  0  0
   50.0377   12.2780   18.9051 H   0  0  0  0  0  0  0  0  0  0  0  0
   45.7358   12.4488   18.5651 H   0  0  0  0  0  0  0  0  0  0  0  0
   50.8971   16.1085   16.3577 H   0  0  0  0  0  0  0  0  0  0  0  0
   50.5153   16.2351   18.0964 H   0  0  0  0  0  0  0  0  0  0  0  0
   51.9624   15.3826   17.5588 H   0  0  0  0  0  0  0  0  0  0  0  0
   48.7144   16.1960   15.7846 H   0  0  0  0  0  0  0  0  0  0  0  0
   47.2697   15.2016   15.6818 H   0  0  0  0  0  0  0  0  0  0  0  0
   48.7760   14.6349   14.9436 H   0  0  0  0  0  0  0  0  0  0  0  0
   49.8088   11.2578   21.1342 H   0  0  0  0  0  0  0  0  0  0  0  0
   45.5309   11.4273   20.7966 H   0  0  0  0  0  0  0  0  0  0  0  0
   47.5600   10.8275   22.0906 H   0  0  0  0  0  0  0  0  0  0  0  0
   47.9747   11.6569   18.4375 H   0  0  0  0  0  0  0  0  0  0  0  0
   50.1829   13.9037   17.1570 H   0  0  0  0  0  0  0  0  0  0  0  0
   47.9503   14.8487   17.9225 H   0  0  0  0  0  0  0  0  0  0  0  0
   49.9051   12.8294   16.6817 H   0  0  0  0  0  0  0  0  0  0  0  0
   51.1354   14.6830   15.9011 H   0  0  0  0  0  0  0  0  0  0  0  0
   46.5059   13.3922   16.6022 H   0  0  0  0  0  0  0  0  0  0  0  0
   47.3077   14.1768   20.0779 H   0  0  0  0  0  0  0  0  0  0  0  0
   48.1100   11.1413   17.1129 H   0  0  0  0  0  0  0  0  0  0  0  0
   50.2066   16.5380   17.2143 H   0  0  0  0  0  0  0  0  0  0  0  0
   50.1752   16.7680   15.4659 H   0  0  0  0  0  0  0  0  0  0  0  0
   48.6963   16.3072   16.2918 H   0  0  0  0  0  0  0  0  0  0  0  0
   51.6668   13.9757   18.0555 H   0  0  0  0  0  0  0  0  0  0  0  0
   50.4720   13.1380   19.0353 H   0  0  0  0  0  0  0  0  0  0  0  0
   50.4003   14.9003   18.8839 H   0  0  0  0  0  0  0  0  0  0  0  0
   46.6321   12.4230   21.6744 H   0  0  0  0  0  0  0  0  0  0  0  0
   47.4332    9.4003   18.7294 H   0  0  0  0  0  0  0  0  0  0  0  0
   46.6939   10.0348   21.0108 H   0  0  0  0  0  0  0  0  0  0  0  0
  2  1  1  0
  3  1  1  0
  4  3  1  0
  1  5  1  0
  6  2  2  0
  7  2  1  0
  8  4  1  0
  3  9  1  0
 10  6  1  0
 11  7  2  0
 12 10  2  0
 12 11  1  0
 14 13  2  0
 15 13  2  0
 16 13  1  0
 17 13  1  0
 19 18  1  0
 20 18  1  0
 21 20  1  0
 18 22  1  0
 23 19  2  0
 24 19  1  0
 25 21  1  0
 20 26  1  0
 27 23  1  0
 28 24  2  0
 29 27  2  0
 29 28  1  0
  1 30  1  6
  3 31  1  1
  4 32  1  0
  5 33  1  0
  6 34  1  0
  7 35  1  0
  8 36  1  0
  8 37  1  0
  8 38  1  0
  9 39  1  0
  9 40  1  0
  9 41  1  0
 10 42  1  0
 11 43  1  0
 12 44  1  0
 16 45  1  0
 17 46  1  0
 18 47  1  1
 20 48  1  6
 21 49  1  0
 22 50  1  0
 23 51  1  0
 24 52  1  0
 25 53  1  0
 25 54  1  0
 25 55  1  0
 26 56  1  0
 26 57  1  0
 26 58  1  0
 27 59  1  0
 28 60  1  0
 29 61  1  0
M  END
> <Uni-Dock RESULT> 
ENERGY=   -4.241  LOWER_BOUND=    8.533  UPPER_BOUND=    9.910
INTER + INTRA:          -4.241
INTER:                  -4.241
INTRA:                   0.000
UNBOUND:                 0.000

$$$$

     RDKit          3D

 61 60  0  0  0  0  0  0  0  0999 V2000
   53.6147    8.3735    6.1947 C   0  0  1  0  0  0  0  0  0  0  0  0
   54.0266    7.4070    7.2934 C   0  0  0  0  0  0  0  0  0  0  0  0
   52.7876    9.6141    6.6794 C   0  0  1  0  0  0  0  0  0  0  0  0
   53.6621   10.6150    7.3309 N   0  0  0  0  0  0  0  0  0  0  0  0
   54.7624    8.8065    5.4465 O   0  0  0  0  0  0  0  0  0  0  0  0
   54.8824    7.7954    8.3351 C   0  0  0  0  0  0  0  0  0  0  0  0
   53.5664    6.0804    7.2670 C   0  0  0  0  0  0  0  0  0  0  0  0
   52.9555   11.7544    7.8871 C   0  0  0  0  0  0  0  0  0  0  0  0
   52.0578   10.2248    5.4715 C   0  0  0  0  0  0  0  0  0  0  0  0
   55.2603    6.8875    9.3263 C   0  0  0  0  0  0  0  0  0  0  0  0
   53.9457    5.1727    8.2584 C   0  0  0  0  0  0  0  0  0  0  0  0
   54.7919    5.5766    9.2880 C   0  0  0  0  0  0  0  0  0  0  0  0
   53.1940    8.5201    7.3997 S   0  0  0  0  0  0  0  0  0  0  0  0
   52.4620    7.6446    6.5205 O   0  0  0  0  0  0  0  0  0  0  0  0
   52.6395    9.1058    8.5936 O   0  0  0  0  0  0  0  0  0  0  0  0
   54.5401    7.7427    7.7961 O   0  0  0  0  0  0  0  0  0  0  0  0
   53.7823    9.7333    6.5305 O   0  0  0  0  0  0  0  0  0  0  0  0
   53.0030    8.7585    6.6915 C   0  0  1  0  0  0  0  0  0  0  0  0
   53.6684    7.5014    7.2262 C   0  0  0  0  0  0  0  0  0  0  0  0
   53.8446   10.0623    6.9145 C   0  0  1  0  0  0  0  0  0  0  0  0
   53.3019   11.2935    6.2893 N   0  0  0  0  0  0  0  0  0  0  0  0
   52.7403    8.5626    5.2954 O   0  0  0  0  0  0  0  0  0  0  0  0
   53.0986    6.7986    8.2984 C   0  0  0  0  0  0  0  0  0  0  0  0
   54.8574    7.0174    6.6570 C   0  0  0  0  0  0  0  0  0  0  0  0
   51.9215   11.5973    6.6264 C   0  0  0  0  0  0  0  0  0  0  0  0
   54.1289   10.3109    8.4034 C   0  0  0  0  0  0  0  0  0  0  0  0
   53.7078    5.6436    8.7927 C   0  0  0  0  0  0  0  0  0  0  0  0
   55.4640    5.8626    7.1525 C   0  0  0  0  0  0  0  0  0  0  0  0
   54.8897    5.1770    8.2206 C   0  0  0  0  0  0  0  0  0  0  0  0
   52.9977    7.8159    5.4790 H   0  0  0  0  0  0  0  0  0  0  0  0
   52.0353    9.2655    7.3986 H   0  0  0  0  0  0  0  0  0  0  0  0
   54.3591   10.9179    6.6469 H   0  0  0  0  0  0  0  0  0  0  0  0
   55.5129    8.2618    5.7395 H   0  0  0  0  0  0  0  0  0  0  0  0
   55.2599    8.8148    8.3849 H   0  0  0  0  0  0  0  0  0  0  0  0
   52.9073    5.7403    6.4710 H   0  0  0  0  0  0  0  0  0  0  0  0
   52.5357   12.4004    7.1109 H   0  0  0  0  0  0  0  0  0  0  0  0
   52.1562   11.4371    8.5644 H   0  0  0  0  0  0  0  0  0  0  0  0
   53.6554   12.3609    8.4707 H   0  0  0  0  0  0  0  0  0  0  0  0
   51.3585   11.0095    5.7769 H   0  0  0  0  0  0  0  0  0  0  0  0
   51.4675    9.4630    4.9504 H   0  0  0  0  0  0  0  0  0  0  0  0
   52.7614   10.6550    4.7502 H   0  0  0  0  0  0  0  0  0  0  0  0
   55.9193    7.2073   10.1294 H   0  0  0  0  0  0  0  0  0  0  0  0
   53.5801    4.1494    8.2265 H   0  0  0  0  0  0  0  0  0  0  0  0
   55.0857    4.8713   10.0606 H   0  0  0  0  0  0  0  0  0  0  0  0
   54.7459    7.1283    7.0614 H   0  0  0  0  0  0  0  0  0  0  0  0
   54.0189   10.4489    7.1564 H   0  0  0  0  0  0  0  0  0  0  0  0
   52.0253    8.8713    7.1746 H   0  0  0  0  0  0  0  0  0  0  0  0
   54.8146    9.9158    6.4216 H   0  0  0  0  0  0  0  0  0  0  0  0
   53.8975   12.0854    6.5247 H   0  0  0  0  0  0  0  0  0  0  0  0
   52.5816    7.6138    5.1597 H   0  0  0  0  0  0  0  0  0  0  0  0
   52.1763    7.1459    8.7591 H   0  0  0  0  0  0  0  0  0  0  0  0
   55.3134    7.5400    5.8175 H   0  0  0  0  0  0  0  0  0  0  0  0
   51.7753   11.7181    7.7036 H   0  0  0  0  0  0  0  0  0  0  0  0
   51.6370   12.5411    6.1498 H   0  0  0  0  0  0  0  0  0  0  0  0
   51.2323   10.8359    6.2502 H   0  0  0  0  0  0  0  0  0  0  0  0
   54.6851   11.2440    8.5486 H   0  0  0  0  0  0  0  0  0  0  0  0
   54.7430    9.5096    8.8270 H   0  0  0  0  0  0  0  0  0  0  0  0
   53.2050   10.3713    8.9878 H   0  0  0  0  0  0  0  0  0  0  0  0
   53.2595    5.1068    9.6249 H   0  0  0  0  0  0  0  0  0  0  0  0
   56.3842    5.4978    6.7033 H   0  0  0  0  0  0  0  0  0  0  0  0
   55.3625    4.2775    8.6062 H   0  0  0  0  0  0  0  0  0  0  0  0
  2  1  1  0
  3  1  1  0
  4  3  1  0
  1  5  1  0
  6  2  2  0
  7  2  1  0
  8  4  1  0
  3  9  1  0
 10  6  1  0
 11  7  2  0
 12 10  2  0
 12 11  1  0
 14 13  2  0
 15 13  2  0
 16 13  1  0
 17 13  1  0
 19 18  1  0
 20 18  1  0
 21 20  1  0
 18 22  1  0
 23 19  2  0
 24 19  1  0
 25 21  1  0
 20 26  1  0
 27 23  1  0
 28 24  2  0
 29 27  2  0
 29 28  1  0
  1 30  1  6
  3 31  1  1
  4 32  1  0
  5 33  1  0
  6 34  1  0
  7 35  1  0
  8 36  1  0
  8 37  1  0
  8 38  1  0
  9 39  1  0
  9 40  1  0
  9 41  1  0
 10 42  1  0
 11 43  1  0
 12 44  1  0
 16 45  1  0
 17 46  1  0
 18 47  1  1
 20 48  1  6
 21 49  1  0
 22 50  1  0
 23 51  1  0
 24 52  1  0
 25 53  1  0
 25 54  1  0
 25 55  1  0
 26 56  1  0
 26 57  1  0
 26 58  1  0
 27 59  1  0
 28 60  1  0
 29 61  1  0
M  END
> <Uni-Dock RESULT> 
ENERGY=   -4.111  LOWER_BOUND=    8.914  UPPER_BOUND=   10.147
INTER + INTRA:          -4.111
INTER:                  -4.111
INTRA:                   0.000
UNBOUND:                 0.000

$$$$

     RDKit          3D

 61 60  0  0  0  0  0  0  0  0999 V2000
   48.9449    4.1936   19.4242 C   0  0  1  0  0  0  0  0  0  0  0  0
   48.7522    5.2864   20.4631 C   0  0  0  0  0  0  0  0  0  0  0  0
   48.1217    4.3825   18.1032 C   0  0  1  0  0  0  0  0  0  0  0  0
   48.7353    5.4139   17.2369 N   0  0  0  0  0  0  0  0  0  0  0  0
   50.3390    4.0277   19.1181 O   0  0  0  0  0  0  0  0  0  0  0  0
   49.1215    6.6165   20.2122 C   0  0  0  0  0  0  0  0  0  0  0  0
   48.2138    4.9690   21.7208 C   0  0  0  0  0  0  0  0  0  0  0  0
   47.9800    5.7102   16.0332 C   0  0  0  0  0  0  0  0  0  0  0  0
   48.0381    3.0310   17.3746 C   0  0  0  0  0  0  0  0  0  0  0  0
   48.9496    7.6023   21.1860 C   0  0  0  0  0  0  0  0  0  0  0  0
   48.0431    5.9556   22.6946 C   0  0  0  0  0  0  0  0  0  0  0  0
   48.4104    7.2719   22.4266 C   0  0  0  0  0  0  0  0  0  0  0  0
   48.0711    5.1207   19.2580 S   0  0  0  0  0  0  0  0  0  0  0  0
   47.6949    3.9521   20.0119 O   0  0  0  0  0  0  0  0  0  0  0  0
   47.1265    6.0155   18.6394 O   0  0  0  0  0  0  0  0  0  0  0  0
   49.0360    5.9815   20.2074 O   0  0  0  0  0  0  0  0  0  0  0  0
   49.0923    4.6717   18.1052 O   0  0  0  0  0  0  0  0  0  0  0  0
   48.2232    4.4178   18.9791 C   0  0  1  0  0  0  0  0  0  0  0  0
   48.4678    5.0833   20.3230 C   0  0  0  0  0  0  0  0  0  0  0  0
   49.0195    5.0706   17.7968 C   0  0  1  0  0  0  0  0  0  0  0  0
   48.9210    4.3723   16.4914 N   0  0  0  0  0  0  0  0  0  0  0  0
   48.5576    3.0290   19.1038 O   0  0  0  0  0  0  0  0  0  0  0  0
   47.4294    5.7630   20.9773 C   0  0  0  0  0  0  0  0  0  0  0  0
   49.7297    5.0267   20.9364 C   0  0  0  0  0  0  0  0  0  0  0  0
   47.5666    4.1251   16.0268 C   0  0  0  0  0  0  0  0  0  0  0  0
   48.6707    6.5566   17.6250 C   0  0  0  0  0  0  0  0  0  0  0  0
   47.6509    6.3763   22.2119 C   0  0  0  0  0  0  0  0  0  0  0  0
   49.9484    5.6400   22.1705 C   0  0  0  0  0  0  0  0  0  0  0  0
   48.9094    6.3154   22.8071 C   0  0  0  0  0  0  0  0  0  0  0  0
   48.6354    3.2454   19.8813 H   0  0  0  0  0  0  0  0  0  0  0  0
   47.1044    4.6934   18.3742 H   0  0  0  0  0  0  0  0  0  0  0  0
   49.6831    5.1083   17.0052 H   0  0  0  0  0  0  0  0  0  0  0  0
   50.8351    4.5644   19.7597 H   0  0  0  0  0  0  0  0  0  0  0  0
   49.5441    6.8971   19.2494 H   0  0  0  0  0  0  0  0  0  0  0  0
   47.9226    3.9472   21.9549 H   0  0  0  0  0  0  0  0  0  0  0  0
   47.9964    4.8816   15.3196 H   0  0  0  0  0  0  0  0  0  0  0  0
   46.9414    5.9660   16.2661 H   0  0  0  0  0  0  0  0  0  0  0  0
   48.4250    6.5771   15.5344 H   0  0  0  0  0  0  0  0  0  0  0  0
   47.3593    3.0761   16.5172 H   0  0  0  0  0  0  0  0  0  0  0  0
   47.6495    2.2545   18.0428 H   0  0  0  0  0  0  0  0  0  0  0  0
   49.0206    2.7041   17.0167 H   0  0  0  0  0  0  0  0  0  0  0  0
   49.2356    8.6289   20.9721 H   0  0  0  0  0  0  0  0  0  0  0  0
   47.6232    5.6959   23.6630 H   0  0  0  0  0  0  0  0  0  0  0  0
   48.2760    8.0401   23.1833 H   0  0  0  0  0  0  0  0  0  0  0  0
   49.4696    5.3550   20.8232 H   0  0  0  0  0  0  0  0  0  0  0  0
   49.1135    5.3919   17.4415 H   0  0  0  0  0  0  0  0  0  0  0  0
   47.1501    4.4562   18.7579 H   0  0  0  0  0  0  0  0  0  0  0  0
   50.0864    5.0176   18.0500 H   0  0  0  0  0  0  0  0  0  0  0  0
   49.4384    4.8945   15.7865 H   0  0  0  0  0  0  0  0  0  0  0  0
   48.3754    2.7672   20.0214 H   0  0  0  0  0  0  0  0  0  0  0  0
   46.4395    5.8222   20.5299 H   0  0  0  0  0  0  0  0  0  0  0  0
   50.5488    4.4966   20.4527 H   0  0  0  0  0  0  0  0  0  0  0  0
   46.9915    5.0490   15.9172 H   0  0  0  0  0  0  0  0  0  0  0  0
   47.6084    3.6471   15.0426 H   0  0  0  0  0  0  0  0  0  0  0  0
   47.0277    3.4387   16.6861 H   0  0  0  0  0  0  0  0  0  0  0  0
   49.2051    6.9915   16.7727 H   0  0  0  0  0  0  0  0  0  0  0  0
   48.9625    7.1350   18.5075 H   0  0  0  0  0  0  0  0  0  0  0  0
   47.5978    6.7052   17.4653 H   0  0  0  0  0  0  0  0  0  0  0  0
   46.8404    6.9019   22.7103 H   0  0  0  0  0  0  0  0  0  0  0  0
   50.9297    5.5890   22.6353 H   0  0  0  0  0  0  0  0  0  0  0  0
   49.0802    6.7929   23.7684 H   0  0  0  0  0  0  0  0  0  0  0  0
  2  1  1  0
  3  1  1  0
  4  3  1  0
  1  5  1  0
  6  2  2  0
  7  2  1  0
  8  4  1  0
  3  9  1  0
 10  6  1  0
 11  7  2  0
 12 10  2  0
 12 11  1  0
 14 13  2  0
 15 13  2  0
 16 13  1  0
 17 13  1  0
 19 18  1  0
 20 18  1  0
 21 20  1  0
 18 22  1  0
 23 19  2  0
 24 19  1  0
 25 21  1  0
 20 26  1  0
 27 23  1  0
 28 24  2  0
 29 27  2  0
 29 28  1  0
  1 30  1  6
  3 31  1  1
  4 32  1  0
  5 33  1  0
  6 34  1  0
  7 35  1  0
  8 36  1  0
  8 37  1  0
  8 38  1  0
  9 39  1  0
  9 40  1  0
  9 41  1  0
 10 42  1  0
 11 43  1  0
 12 44  1  0
 16 45  1  0
 17 46  1  0
 18 47  1  1
 20 48  1  6
 21 49  1  0
 22 50  1  0
 23 51  1  0
 24 52  1  0
 25 53  1  0
 25 54  1  0
 25 55  1  0
 26 56  1  0
 26 57  1  0
 26 58  1  0
 27 59  1  0
 28 60  1  0
 29 61  1  0
M  END
> <Uni-Dock RESULT> 
ENERGY=   -4.003  LOWER_BOUND=    5.906  UPPER_BOUND=    8.752
INTER + INTRA:          -4.003
INTER:                  -4.003
INTRA:                   0.000
UNBOUND:                 0.000

$$$$

     RDKit          3D

 61 60  0  0  0  0  0  0  0  0999 V2000
   47.5467    5.6645   19.1534 C   0  0  1  0  0  0  0  0  0  0  0  0
   48.1090    7.0709   19.2829 C   0  0  0  0  0  0  0  0  0  0  0  0
   48.2606    4.7610   18.0894 C   0  0  1  0  0  0  0  0  0  0  0  0
   49.5627    4.2712   18.5950 N   0  0  0  0  0  0  0  0  0  0  0  0
   47.5325    5.0065   20.4307 O   0  0  0  0  0  0  0  0  0  0  0  0
   49.4259    7.3029   19.7076 C   0  0  0  0  0  0  0  0  0  0  0  0
   47.2948    8.1789   18.9970 C   0  0  0  0  0  0  0  0  0  0  0  0
   50.3262    3.4994   17.6313 C   0  0  0  0  0  0  0  0  0  0  0  0
   47.3324    3.5878   17.7336 C   0  0  0  0  0  0  0  0  0  0  0  0
   49.9179    8.6035   19.8341 C   0  0  0  0  0  0  0  0  0  0  0  0
   47.7875    9.4796   19.1247 C   0  0  0  0  0  0  0  0  0  0  0  0
   49.0989    9.6914   19.5425 C   0  0  0  0  0  0  0  0  0  0  0  0
   48.4531    6.0936   18.3503 S   0  0  0  0  0  0  0  0  0  0  0  0
   47.0744    6.3737   18.0398 O   0  0  0  0  0  0  0  0  0  0  0  0
   49.5172    6.1254   17.3795 O   0  0  0  0  0  0  0  0  0  0  0  0
   48.8495    7.0611   19.5669 O   0  0  0  0  0  0  0  0  0  0  0  0
   48.5298    4.6571   19.0602 O   0  0  0  0  0  0  0  0  0  0  0  0
   47.9303    5.5271   18.3768 C   0  0  1  0  0  0  0  0  0  0  0  0
   47.9802    6.9300   18.9585 C   0  0  0  0  0  0  0  0  0  0  0  0
   49.0202    4.5625   18.9595 C   0  0  1  0  0  0  0  0  0  0  0  0
   48.9253    3.1469   18.5252 N   0  0  0  0  0  0  0  0  0  0  0  0
   46.6171    4.9981   18.6050 O   0  0  0  0  0  0  0  0  0  0  0  0
   48.3200    8.0227   18.1468 C   0  0  0  0  0  0  0  0  0  0  0  0
   47.6832    7.1602   20.3114 C   0  0  0  0  0  0  0  0  0  0  0  0
   48.8836    2.9465   17.0867 C   0  0  0  0  0  0  0  0  0  0  0  0
   50.4411    5.0925   18.7158 C   0  0  0  0  0  0  0  0  0  0  0  0
   48.3677    9.3128   18.6782 C   0  0  0  0  0  0  0  0  0  0  0  0
   47.7311    8.4507   20.8401 C   0  0  0  0  0  0  0  0  0  0  0  0
   48.0743    9.5261   20.0237 C   0  0  0  0  0  0  0  0  0  0  0  0
   46.4921    5.7560   18.8646 H   0  0  0  0  0  0  0  0  0  0  0  0
   48.4240    5.3602   17.1843 H   0  0  0  0  0  0  0  0  0  0  0  0
   49.3874    3.7249   19.4412 H   0  0  0  0  0  0  0  0  0  0  0  0
   47.7583    5.6779   21.0971 H   0  0  0  0  0  0  0  0  0  0  0  0
   50.0834    6.4675   19.9401 H   0  0  0  0  0  0  0  0  0  0  0  0
   46.2659    8.0390   18.6722 H   0  0  0  0  0  0  0  0  0  0  0  0
   49.8682    2.5284   17.4226 H   0  0  0  0  0  0  0  0  0  0  0  0
   50.4550    4.0475   16.6926 H   0  0  0  0  0  0  0  0  0  0  0  0
   51.3249    3.3070   18.0360 H   0  0  0  0  0  0  0  0  0  0  0  0
   47.7242    3.0030   16.8954 H   0  0  0  0  0  0  0  0  0  0  0  0
   46.3460    3.9538   17.4277 H   0  0  0  0  0  0  0  0  0  0  0  0
   47.1903    2.9132   18.5850 H   0  0  0  0  0  0  0  0  0  0  0  0
   50.9427    8.7645   20.1585 H   0  0  0  0  0  0  0  0  0  0  0  0
   47.1467   10.3278   18.8979 H   0  0  0  0  0  0  0  0  0  0  0  0
   49.4832   10.7031   19.6402 H   0  0  0  0  0  0  0  0  0  0  0  0
   48.0271    7.2527   20.0635 H   0  0  0  0  0  0  0  0  0  0  0  0
   49.4605    4.3566   19.0043 H   0  0  0  0  0  0  0  0  0  0  0  0
   48.0494    5.5932   17.2888 H   0  0  0  0  0  0  0  0  0  0  0  0
   48.8744    4.5203   20.0468 H   0  0  0  0  0  0  0  0  0  0  0  0
   49.6965    2.6159   18.9260 H   0  0  0  0  0  0  0  0  0  0  0  0
   45.9971    5.7460   18.5987 H   0  0  0  0  0  0  0  0  0  0  0  0
   48.5525    7.8778   17.0939 H   0  0  0  0  0  0  0  0  0  0  0  0
   47.4072    6.3295   20.9592 H   0  0  0  0  0  0  0  0  0  0  0  0
   49.7656    3.3557   16.5859 H   0  0  0  0  0  0  0  0  0  0  0  0
   48.8570    1.8722   16.8765 H   0  0  0  0  0  0  0  0  0  0  0  0
   47.9818    3.3756   16.6407 H   0  0  0  0  0  0  0  0  0  0  0  0
   51.1940    4.3917   19.0942 H   0  0  0  0  0  0  0  0  0  0  0  0
   50.6035    6.0408   19.2381 H   0  0  0  0  0  0  0  0  0  0  0  0
   50.6350    5.2575   17.6510 H   0  0  0  0  0  0  0  0  0  0  0  0
   48.6336   10.1529   18.0416 H   0  0  0  0  0  0  0  0  0  0  0  0
   47.4989    8.6162   21.8890 H   0  0  0  0  0  0  0  0  0  0  0  0
   48.1114   10.5311   20.4359 H   0  0  0  0  0  0  0  0  0  0  0  0
  2  1  1  0
  3  1  1  0
  4  3  1  0
  1  5  1  0
  6  2  2  0
  7  2  1  0
  8  4  1  0
  3  9  1  0
 10  6  1  0
 11  7  2  0
 12 10  2  0
 12 11  1  0
 14 13  2  0
 15 13  2  0
 16 13  1  0
 17 13  1  0
 19 18  1  0
 20 18  1  0
 21 20  1  0
 18 22  1  0
 23 19  2  0
 24 19  1  0
 25 21  1  0
 20 26  1  0
 27 23  1  0
 28 24  2  0
 29 27  2  0
 29 28  1  0
  1 30  1  6
  3 31  1  1
  4 32  1  0
  5 33  1  0
  6 34  1  0
  7 35  1  0
  8 36  1  0
  8 37  1  0
  8 38  1  0
  9 39  1  0
  9 40  1  0
  9 41  1  0
 10 42  1  0
 11 43  1  0
 12 44  1  0
 16 45  1  0
 17 46  1  0
 18 47  1  1
 20 48  1  6
 21 49  1  0
 22 50  1  0
 23 51  1  0
 24 52  1  0
 25 53  1  0
 25 54  1  0
 25 55  1  0
 26 56  1  0
 26 57  1  0
 26 58  1  0
 27 59  1  0
 28 60  1  0
 29 61  1  0
M  END
> <Uni-Dock RESULT> 
ENERGY=   -3.947  LOWER_BOUND=    6.248  UPPER_BOUND=    8.119
INTER + INTRA:          -3.947
INTER:                  -3.947
INTRA:                   0.000
UNBOUND:                 0.000

$$$$
