
     RDKit          3D

 61 60  0  0  0  0  0  0  0  0999 V2000
   46.3490    5.4554   13.0445 C   0  0  1  0  0  0  0  0  0  0  0  0
   46.9833    6.8189   12.8274 C   0  0  0  0  0  0  0  0  0  0  0  0
   45.0854    5.1456   12.1648 C   0  0  1  0  0  0  0  0  0  0  0  0
   43.8810    5.8572   12.6491 N   0  0  0  0  0  0  0  0  0  0  0  0
   47.3245    4.4193   12.8505 O   0  0  0  0  0  0  0  0  0  0  0  0
   46.3557    7.9734   13.3227 C   0  0  0  0  0  0  0  0  0  0  0  0
   48.1942    6.9695   12.1325 C   0  0  0  0  0  0  0  0  0  0  0  0
   42.6559    5.4453   11.9764 C   0  0  0  0  0  0  0  0  0  0  0  0
   45.3632    5.3929   10.6751 C   0  0  0  0  0  0  0  0  0  0  0  0
   46.9205    9.2365   13.1297 C   0  0  0  0  0  0  0  0  0  0  0  0
   48.7598    8.2323   11.9404 C   0  0  0  0  0  0  0  0  0  0  0  0
   48.1228    9.3654   12.4393 C   0  0  0  0  0  0  0  0  0  0  0  0
   45.6439    6.7419   12.0535 S   0  0  0  0  0  0  0  0  0  0  0  0
   45.3882    8.0300   12.6462 O   0  0  0  0  0  0  0  0  0  0  0  0
   45.0880    6.3123   10.7957 O   0  0  0  0  0  0  0  0  0  0  0  0
   45.2691    5.6089   13.1256 O   0  0  0  0  0  0  0  0  0  0  0  0
   47.2387    6.5843   11.9819 O   0  0  0  0  0  0  0  0  0  0  0  0
   45.6478    6.4547   13.2992 C   0  0  1  0  0  0  0  0  0  0  0  0
   46.7696    7.3380   12.7995 C   0  0  0  0  0  0  0  0  0  0  0  0
   45.0141    5.5534   12.1910 C   0  0  1  0  0  0  0  0  0  0  0  0
   44.1280    4.5639   12.8631 N   0  0  0  0  0  0  0  0  0  0  0  0
   46.1599    5.6046   14.3374 O   0  0  0  0  0  0  0  0  0  0  0  0
   46.5626    8.7153   12.6261 C   0  0  0  0  0  0  0  0  0  0  0  0
   48.0268    6.8025   12.4793 C   0  0  0  0  0  0  0  0  0  0  0  0
   43.8609    3.3992   12.0271 C   0  0  0  0  0  0  0  0  0  0  0  0
   44.2474    6.3868   11.1606 C   0  0  0  0  0  0  0  0  0  0  0  0
   47.5850    9.5330   12.1399 C   0  0  0  0  0  0  0  0  0  0  0  0
   49.0483    7.6209   11.9945 C   0  0  0  0  0  0  0  0  0  0  0  0
   48.8263    8.9853   11.8229 C   0  0  0  0  0  0  0  0  0  0  0  0
   46.0727    5.3895   14.1057 H   0  0  0  0  0  0  0  0  0  0  0  0
   44.8950    4.0687   12.2760 H   0  0  0  0  0  0  0  0  0  0  0  0
   43.7741    5.6909   13.6496 H   0  0  0  0  0  0  0  0  0  0  0  0
   46.9449    3.6023   13.2135 H   0  0  0  0  0  0  0  0  0  0  0  0
   45.4116    7.8976   13.8573 H   0  0  0  0  0  0  0  0  0  0  0  0
   48.7075    6.0971   11.7333 H   0  0  0  0  0  0  0  0  0  0  0  0
   42.5034    4.3633   12.0399 H   0  0  0  0  0  0  0  0  0  0  0  0
   42.6442    5.7543   10.9274 H   0  0  0  0  0  0  0  0  0  0  0  0
   41.8012    5.9305   12.4587 H   0  0  0  0  0  0  0  0  0  0  0  0
   46.3089    4.9318   10.3708 H   0  0  0  0  0  0  0  0  0  0  0  0
   44.5820    4.9546   10.0457 H   0  0  0  0  0  0  0  0  0  0  0  0
   45.4165    6.4625   10.4453 H   0  0  0  0  0  0  0  0  0  0  0  0
   46.4178   10.1191   13.5161 H   0  0  0  0  0  0  0  0  0  0  0  0
   49.6974    8.3277   11.3998 H   0  0  0  0  0  0  0  0  0  0  0  0
   48.5616   10.3477   12.2879 H   0  0  0  0  0  0  0  0  0  0  0  0
   45.1691    4.7677   12.6337 H   0  0  0  0  0  0  0  0  0  0  0  0
   47.6156    7.1306   12.7025 H   0  0  0  0  0  0  0  0  0  0  0  0
   44.8691    7.0693   13.7683 H   0  0  0  0  0  0  0  0  0  0  0  0
   45.8227    5.0062   11.6890 H   0  0  0  0  0  0  0  0  0  0  0  0
   43.2419    5.0123   13.1030 H   0  0  0  0  0  0  0  0  0  0  0  0
   45.5439    4.8427   14.3352 H   0  0  0  0  0  0  0  0  0  0  0  0
   45.6019    9.1623   12.8712 H   0  0  0  0  0  0  0  0  0  0  0  0
   48.2164    5.7405   12.6229 H   0  0  0  0  0  0  0  0  0  0  0  0
   43.2486    2.6869   12.5892 H   0  0  0  0  0  0  0  0  0  0  0  0
   44.7886    2.8863   11.7539 H   0  0  0  0  0  0  0  0  0  0  0  0
   43.3127    3.6603   11.1176 H   0  0  0  0  0  0  0  0  0  0  0  0
   44.9119    7.0920   10.6513 H   0  0  0  0  0  0  0  0  0  0  0  0
   43.8012    5.7566   10.3850 H   0  0  0  0  0  0  0  0  0  0  0  0
   43.4431    6.9620   11.6322 H   0  0  0  0  0  0  0  0  0  0  0  0
   47.4138   10.5986   12.0126 H   0  0  0  0  0  0  0  0  0  0  0  0
   50.0188    7.1929   11.7581 H   0  0  0  0  0  0  0  0  0  0  0  0
   49.6233    9.6228   11.4495 H   0  0  0  0  0  0  0  0  0  0  0  0
  2  1  1  0
  3  1  1  0
  4  3  1  0
  1  5  1  0
  6  2  2  0
  7  2  1  0
  8  4  1  0
  3  9  1  0
 10  6  1  0
 11  7  2  0
 12 10  2  0
 12 11  1  0
 14 13  2  0
 15 13  2  0
 16 13  1  0
 17 13  1  0
 19 18  1  0
 20 18  1  0
 21 20  1  0
 18 22  1  0
 23 19  2  0
 24 19  1  0
 25 21  1  0
 20 26  1  0
 27 23  1  0
 28 24  2  0
 29 27  2  0
 29 28  1  0
  1 30  1  6
  3 31  1  1
  4 32  1  0
  5 33  1  0
  6 34  1  0
  7 35  1  0
  8 36  1  0
  8 37  1  0
  8 38  1  0
  9 39  1  0
  9 40  1  0
  9 41  1  0
 10 42  1  0
 11 43  1  0
 12 44  1  0
 16 45  1  0
 17 46  1  0
 18 47  1  6
 20 48  1  1
 21 49  1  0
 22 50  1  0
 23 51  1  0
 24 52  1  0
 25 53  1  0
 25 54  1  0
 25 55  1  0
 26 56  1  0
 26 57  1  0
 26 58  1  0
 27 59  1  0
 28 60  1  0
 29 61  1  0
M  END
> <Uni-Dock RESULT> 
ENERGY=   -5.397  LOWER_BOUND=    0.000  UPPER_BOUND=    0.000
INTER + INTRA:          -5.397
INTER:                  -5.397
INTRA:                   0.000
UNBOUND:                 0.000

$$$$

     RDKit          3D

 61 60  0  0  0  0  0  0  0  0999 V2000
   45.1336    7.3290   11.9806 C   0  0  1  0  0  0  0  0  0  0  0  0
   44.8560    5.8514   11.7613 C   0  0  0  0  0  0  0  0  0  0  0  0
   46.5863    7.6838   12.4606 C   0  0  1  0  0  0  0  0  0  0  0  0
   46.7945    7.3639   13.8909 N   0  0  0  0  0  0  0  0  0  0  0  0
   44.8367    8.0708   10.7872 O   0  0  0  0  0  0  0  0  0  0  0  0
   44.7014    4.9938   12.8625 C   0  0  0  0  0  0  0  0  0  0  0  0
   44.7513    5.3013   10.4735 C   0  0  0  0  0  0  0  0  0  0  0  0
   48.0621    7.8550   14.4152 C   0  0  0  0  0  0  0  0  0  0  0  0
   47.6492    7.0530   11.5495 C   0  0  0  0  0  0  0  0  0  0  0  0
   44.4501    3.6315   12.6819 C   0  0  0  0  0  0  0  0  0  0  0  0
   44.4988    3.9393   10.2926 C   0  0  0  0  0  0  0  0  0  0  0  0
   44.3481    3.1049   11.3969 C   0  0  0  0  0  0  0  0  0  0  0  0
   46.2446    6.0242   12.4254 S   0  0  0  0  0  0  0  0  0  0  0  0
   45.7930    4.9851   13.3155 O   0  0  0  0  0  0  0  0  0  0  0  0
   47.6291    6.2618   12.1055 O   0  0  0  0  0  0  0  0  0  0  0  0
   45.6513    7.4232   12.9395 O   0  0  0  0  0  0  0  0  0  0  0  0
   45.4347    5.8301   11.0543 O   0  0  0  0  0  0  0  0  0  0  0  0
   45.2315    6.5797   12.9727 C   0  0  1  0  0  0  0  0  0  0  0  0
   44.9565    5.3947   12.0733 C   0  0  0  0  0  0  0  0  0  0  0  0
   46.5720    7.3162   12.6523 C   0  0  1  0  0  0  0  0  0  0  0  0
   46.5820    8.5929   13.4177 N   0  0  0  0  0  0  0  0  0  0  0  0
   44.1540    7.5194   12.8370 O   0  0  0  0  0  0  0  0  0  0  0  0
   45.1067    4.0868   12.5597 C   0  0  0  0  0  0  0  0  0  0  0  0
   44.5693    5.5734   10.7362 C   0  0  0  0  0  0  0  0  0  0  0  0
   47.5147    9.5667   12.8622 C   0  0  0  0  0  0  0  0  0  0  0  0
   47.7852    6.4465   12.9925 C   0  0  0  0  0  0  0  0  0  0  0  0
   44.8806    2.9879   11.7282 C   0  0  0  0  0  0  0  0  0  0  0  0
   44.3425    4.4744    9.9062 C   0  0  0  0  0  0  0  0  0  0  0  0
   44.5003    3.1821   10.4019 C   0  0  0  0  0  0  0  0  0  0  0  0
   44.4112    7.6895   12.7255 H   0  0  0  0  0  0  0  0  0  0  0  0
   46.6840    8.7734   12.3523 H   0  0  0  0  0  0  0  0  0  0  0  0
   46.0366    7.7714   14.4384 H   0  0  0  0  0  0  0  0  0  0  0  0
   44.8096    9.0089   11.0370 H   0  0  0  0  0  0  0  0  0  0  0  0
   44.7858    5.3813   13.8752 H   0  0  0  0  0  0  0  0  0  0  0  0
   44.8672    5.9357    9.5971 H   0  0  0  0  0  0  0  0  0  0  0  0
   48.1788    8.9308   14.2504 H   0  0  0  0  0  0  0  0  0  0  0  0
   48.9146    7.3251   13.9809 H   0  0  0  0  0  0  0  0  0  0  0  0
   48.0965    7.6784   15.4951 H   0  0  0  0  0  0  0  0  0  0  0  0
   47.4150    7.2285   10.4941 H   0  0  0  0  0  0  0  0  0  0  0  0
   48.6376    7.4879   11.7296 H   0  0  0  0  0  0  0  0  0  0  0  0
   47.7264    5.9717   11.7059 H   0  0  0  0  0  0  0  0  0  0  0  0
   44.3381    2.9824   13.5462 H   0  0  0  0  0  0  0  0  0  0  0  0
   44.4215    3.5331    9.2879 H   0  0  0  0  0  0  0  0  0  0  0  0
   44.1539    2.0453   11.2561 H   0  0  0  0  0  0  0  0  0  0  0  0
   46.1808    8.1329   12.5203 H   0  0  0  0  0  0  0  0  0  0  0  0
   44.5856    5.3963   11.2793 H   0  0  0  0  0  0  0  0  0  0  0  0
   45.2246    6.2611   14.0227 H   0  0  0  0  0  0  0  0  0  0  0  0
   46.5844    7.5570   11.5812 H   0  0  0  0  0  0  0  0  0  0  0  0
   46.8376    8.4026   14.3885 H   0  0  0  0  0  0  0  0  0  0  0  0
   44.5561    8.3708   13.1078 H   0  0  0  0  0  0  0  0  0  0  0  0
   45.3993    3.9144   13.5929 H   0  0  0  0  0  0  0  0  0  0  0  0
   44.4287    6.5781   10.3419 H   0  0  0  0  0  0  0  0  0  0  0  0
   47.4427   10.4982   13.4325 H   0  0  0  0  0  0  0  0  0  0  0  0
   47.2688    9.8023   11.8219 H   0  0  0  0  0  0  0  0  0  0  0  0
   48.5517    9.2242   12.9183 H   0  0  0  0  0  0  0  0  0  0  0  0
   47.7850    5.5229   12.4048 H   0  0  0  0  0  0  0  0  0  0  0  0
   48.7248    6.9620   12.7706 H   0  0  0  0  0  0  0  0  0  0  0  0
   47.7935    6.1713   14.0529 H   0  0  0  0  0  0  0  0  0  0  0  0
   44.9971    1.9798   12.1169 H   0  0  0  0  0  0  0  0  0  0  0  0
   44.0356    4.6286    8.8752 H   0  0  0  0  0  0  0  0  0  0  0  0
   44.3195    2.3267    9.7565 H   0  0  0  0  0  0  0  0  0  0  0  0
  2  1  1  0
  3  1  1  0
  4  3  1  0
  1  5  1  0
  6  2  2  0
  7  2  1  0
  8  4  1  0
  3  9  1  0
 10  6  1  0
 11  7  2  0
 12 10  2  0
 12 11  1  0
 14 13  2  0
 15 13  2  0
 16 13  1  0
 17 13  1  0
 19 18  1  0
 20 18  1  0
 21 20  1  0
 18 22  1  0
 23 19  2  0
 24 19  1  0
 25 21  1  0
 20 26  1  0
 27 23  1  0
 28 24  2  0
 29 27  2  0
 29 28  1  0
  1 30  1  6
  3 31  1  1
  4 32  1  0
  5 33  1  0
  6 34  1  0
  7 35  1  0
  8 36  1  0
  8 37  1  0
  8 38  1  0
  9 39  1  0
  9 40  1  0
  9 41  1  0
 10 42  1  0
 11 43  1  0
 12 44  1  0
 16 45  1  0
 17 46  1  0
 18 47  1  6
 20 48  1  1
 21 49  1  0
 22 50  1  0
 23 51  1  0
 24 52  1  0
 25 53  1  0
 25 54  1  0
 25 55  1  0
 26 56  1  0
 26 57  1  0
 26 58  1  0
 27 59  1  0
 28 60  1  0
 29 61  1  0
M  END
> <Uni-Dock RESULT> 
ENERGY=   -5.353  LOWER_BOUND=    1.431  UPPER_BOUND=    4.513
INTER + INTRA:          -5.353
INTER:                  -5.353
INTRA:                   0.000
UNBOUND:                 0.000

$$$$

     RDKit          3D

 61 60  0  0  0  0  0  0  0  0999 V2000
   49.7624    6.2082   19.3050 C   0  0  1  0  0  0  0  0  0  0  0  0
   49.1195    5.1330   18.4453 C   0  0  0  0  0  0  0  0  0  0  0  0
   49.2332    6.3055   20.7805 C   0  0  1  0  0  0  0  0  0  0  0  0
   47.9019    6.9487   20.8540 N   0  0  0  0  0  0  0  0  0  0  0  0
   51.1884    6.0384   19.3255 O   0  0  0  0  0  0  0  0  0  0  0  0
   47.8114    5.3058   17.9645 C   0  0  0  0  0  0  0  0  0  0  0  0
   49.7967    3.9489   18.1119 C   0  0  0  0  0  0  0  0  0  0  0  0
   47.4683    7.2275   22.2167 C   0  0  0  0  0  0  0  0  0  0  0  0
   49.2737    4.9409   21.4833 C   0  0  0  0  0  0  0  0  0  0  0  0
   47.2010    4.3272   17.1763 C   0  0  0  0  0  0  0  0  0  0  0  0
   49.1870    2.9706   17.3228 C   0  0  0  0  0  0  0  0  0  0  0  0
   47.8894    3.1602   16.8550 C   0  0  0  0  0  0  0  0  0  0  0  0
   48.3584    5.2446   19.7896 S   0  0  0  0  0  0  0  0  0  0  0  0
   47.1794    5.2488   18.9616 O   0  0  0  0  0  0  0  0  0  0  0  0
   48.3845    4.7624   21.1470 O   0  0  0  0  0  0  0  0  0  0  0  0
   48.9562    6.7329   19.8255 O   0  0  0  0  0  0  0  0  0  0  0  0
   49.4940    4.4754   18.9576 O   0  0  0  0  0  0  0  0  0  0  0  0
   48.5365    6.3049   19.0978 C   0  0  1  0  0  0  0  0  0  0  0  0
   48.5840    4.9888   18.3533 C   0  0  0  0  0  0  0  0  0  0  0  0
   48.8720    6.1808   20.6191 C   0  0  1  0  0  0  0  0  0  0  0  0
   49.0496    7.5570   21.1579 N   0  0  0  0  0  0  0  0  0  0  0  0
   49.4792    7.2068   18.4975 O   0  0  0  0  0  0  0  0  0  0  0  0
   47.3954    4.3543   17.9604 C   0  0  0  0  0  0  0  0  0  0  0  0
   49.8066    4.3653   18.0597 C   0  0  0  0  0  0  0  0  0  0  0  0
   49.8109    7.5730   22.4016 C   0  0  0  0  0  0  0  0  0  0  0  0
   47.7805    5.4173   21.3738 C   0  0  0  0  0  0  0  0  0  0  0  0
   47.4300    3.1262   17.2964 C   0  0  0  0  0  0  0  0  0  0  0  0
   49.8402    3.1384   17.3950 C   0  0  0  0  0  0  0  0  0  0  0  0
   48.6519    2.5183   17.0156 C   0  0  0  0  0  0  0  0  0  0  0  0
   49.5987    7.1702   18.8007 H   0  0  0  0  0  0  0  0  0  0  0  0
   49.9402    6.9565   21.3141 H   0  0  0  0  0  0  0  0  0  0  0  0
   47.9254    7.8261   20.3345 H   0  0  0  0  0  0  0  0  0  0  0  0
   51.5653    6.8573   19.6869 H   0  0  0  0  0  0  0  0  0  0  0  0
   47.2514    6.2053   18.2101 H   0  0  0  0  0  0  0  0  0  0  0  0
   50.8109    3.7804   18.4683 H   0  0  0  0  0  0  0  0  0  0  0  0
   48.2050    7.8263   22.7615 H   0  0  0  0  0  0  0  0  0  0  0  0
   47.2613    6.3092   22.7736 H   0  0  0  0  0  0  0  0  0  0  0  0
   46.5337    7.7968   22.1867 H   0  0  0  0  0  0  0  0  0  0  0  0
   50.2408    4.4500   21.3309 H   0  0  0  0  0  0  0  0  0  0  0  0
   49.1404    5.0454   22.5649 H   0  0  0  0  0  0  0  0  0  0  0  0
   48.4899    4.2714   21.1132 H   0  0  0  0  0  0  0  0  0  0  0  0
   46.1862    4.4764   16.8173 H   0  0  0  0  0  0  0  0  0  0  0  0
   49.7279    2.0612   17.0760 H   0  0  0  0  0  0  0  0  0  0  0  0
   47.4146    2.3984   16.2431 H   0  0  0  0  0  0  0  0  0  0  0  0
   49.5608    6.7828   20.5947 H   0  0  0  0  0  0  0  0  0  0  0  0
   49.2842    4.5909   18.0076 H   0  0  0  0  0  0  0  0  0  0  0  0
   47.5506    6.7699   18.9718 H   0  0  0  0  0  0  0  0  0  0  0  0
   49.8261    5.6466   20.7181 H   0  0  0  0  0  0  0  0  0  0  0  0
   48.1324    7.9760   21.3230 H   0  0  0  0  0  0  0  0  0  0  0  0
   49.6772    7.8435   19.2153 H   0  0  0  0  0  0  0  0  0  0  0  0
   46.4319    4.8144   18.1673 H   0  0  0  0  0  0  0  0  0  0  0  0
   50.7418    4.8472   18.3383 H   0  0  0  0  0  0  0  0  0  0  0  0
   49.9520    8.6099   22.7226 H   0  0  0  0  0  0  0  0  0  0  0  0
   50.8054    7.1370   22.2631 H   0  0  0  0  0  0  0  0  0  0  0  0
   49.2954    7.0446   23.2084 H   0  0  0  0  0  0  0  0  0  0  0  0
   47.6760    4.3974   20.9901 H   0  0  0  0  0  0  0  0  0  0  0  0
   48.0132    5.3315   22.4398 H   0  0  0  0  0  0  0  0  0  0  0  0
   46.8087    5.9142   21.2795 H   0  0  0  0  0  0  0  0  0  0  0  0
   46.5032    2.6460   16.9944 H   0  0  0  0  0  0  0  0  0  0  0  0
   50.7949    2.6717   17.1678 H   0  0  0  0  0  0  0  0  0  0  0  0
   48.6787    1.5652   16.4943 H   0  0  0  0  0  0  0  0  0  0  0  0
  2  1  1  0
  3  1  1  0
  4  3  1  0
  1  5  1  0
  6  2  2  0
  7  2  1  0
  8  4  1  0
  3  9  1  0
 10  6  1  0
 11  7  2  0
 12 10  2  0
 12 11  1  0
 14 13  2  0
 15 13  2  0
 16 13  1  0
 17 13  1  0
 19 18  1  0
 20 18  1  0
 21 20  1  0
 18 22  1  0
 23 19  2  0
 24 19  1  0
 25 21  1  0
 20 26  1  0
 27 23  1  0
 28 24  2  0
 29 27  2  0
 29 28  1  0
  1 30  1  6
  3 31  1  1
  4 32  1  0
  5 33  1  0
  6 34  1  0
  7 35  1  0
  8 36  1  0
  8 37  1  0
  8 38  1  0
  9 39  1  0
  9 40  1  0
  9 41  1  0
 10 42  1  0
 11 43  1  0
 12 44  1  0
 16 45  1  0
 17 46  1  0
 18 47  1  6
 20 48  1  1
 21 49  1  0
 22 50  1  0
 23 51  1  0
 24 52  1  0
 25 53  1  0
 25 54  1  0
 25 55  1  0
 26 56  1  0
 26 57  1  0
 26 58  1  0
 27 59  1  0
 28 60  1  0
 29 61  1  0
M  END
> <Uni-Dock RESULT> 
ENERGY=   -5.139  LOWER_BOUND=    6.939  UPPER_BOUND=    8.381
INTER + INTRA:          -5.139
INTER:                  -5.139
INTRA:                   0.000
UNBOUND:                 0.000

$$$$

     RDKit          3D

 61 60  0  0  0  0  0  0  0  0999 V2000
   50.7391    5.4707   17.9663 C   0  0  1  0  0  0  0  0  0  0  0  0
   51.1366    4.0159   17.7824 C   0  0  0  0  0  0  0  0  0  0  0  0
   49.6460    5.7437   19.0605 C   0  0  1  0  0  0  0  0  0  0  0  0
   48.2911    5.3620   18.6023 N   0  0  0  0  0  0  0  0  0  0  0  0
   51.8993    6.2687   18.2491 O   0  0  0  0  0  0  0  0  0  0  0  0
   50.2655    3.1254   17.1341 C   0  0  0  0  0  0  0  0  0  0  0  0
   52.3640    3.5192   18.2501 C   0  0  0  0  0  0  0  0  0  0  0  0
   47.2334    5.7774   19.5142 C   0  0  0  0  0  0  0  0  0  0  0  0
   50.0223    5.1015   20.4035 C   0  0  0  0  0  0  0  0  0  0  0  0
   50.6106    1.7831   16.9590 C   0  0  0  0  0  0  0  0  0  0  0  0
   52.7098    2.1773   18.0742 C   0  0  0  0  0  0  0  0  0  0  0  0
   51.8331    1.3096   17.4285 C   0  0  0  0  0  0  0  0  0  0  0  0
   49.9169    4.1030   18.7330 S   0  0  0  0  0  0  0  0  0  0  0  0
   49.3761    3.0523   17.9090 O   0  0  0  0  0  0  0  0  0  0  0  0
   49.5757    4.2918   20.1200 O   0  0  0  0  0  0  0  0  0  0  0  0
   49.6466    5.5065   18.0045 O   0  0  0  0  0  0  0  0  0  0  0  0
   51.5131    3.9958   18.6149 O   0  0  0  0  0  0  0  0  0  0  0  0
   49.8479    4.6814   17.5950 C   0  0  1  0  0  0  0  0  0  0  0  0
   50.8370    3.5439   17.7230 C   0  0  0  0  0  0  0  0  0  0  0  0
   49.5003    5.3702   18.9540 C   0  0  1  0  0  0  0  0  0  0  0  0
   48.7438    6.6158   18.6506 N   0  0  0  0  0  0  0  0  0  0  0  0
   50.3980    5.6717   16.7122 O   0  0  0  0  0  0  0  0  0  0  0  0
   50.4043    2.2135   17.6113 C   0  0  0  0  0  0  0  0  0  0  0  0
   52.1955    3.7891   17.9763 C   0  0  0  0  0  0  0  0  0  0  0  0
   48.7752    7.5681   19.7547 C   0  0  0  0  0  0  0  0  0  0  0  0
   48.7033    4.4363   19.8686 C   0  0  0  0  0  0  0  0  0  0  0  0
   51.3065    1.1572   17.7548 C   0  0  0  0  0  0  0  0  0  0  0  0
   53.0966    2.7327   18.1185 C   0  0  0  0  0  0  0  0  0  0  0  0
   52.6514    1.4172   18.0098 C   0  0  0  0  0  0  0  0  0  0  0  0
   50.3746    5.8344   16.9960 H   0  0  0  0  0  0  0  0  0  0  0  0
   49.6420    6.8313   19.2207 H   0  0  0  0  0  0  0  0  0  0  0  0
   48.1164    5.7814   17.6892 H   0  0  0  0  0  0  0  0  0  0  0  0
   51.6383    7.1972   18.1345 H   0  0  0  0  0  0  0  0  0  0  0  0
   49.3017    3.4709   16.7671 H   0  0  0  0  0  0  0  0  0  0  0  0
   53.0630    4.1802   18.7586 H   0  0  0  0  0  0  0  0  0  0  0  0
   47.2722    6.8525   19.7162 H   0  0  0  0  0  0  0  0  0  0  0  0
   47.2713    5.2273   20.4587 H   0  0  0  0  0  0  0  0  0  0  0  0
   46.2616    5.5593   19.0598 H   0  0  0  0  0  0  0  0  0  0  0  0
   51.0610    5.3263   20.6682 H   0  0  0  0  0  0  0  0  0  0  0  0
   49.3995    5.4859   21.2176 H   0  0  0  0  0  0  0  0  0  0  0  0
   49.9053    4.0129   20.3786 H   0  0  0  0  0  0  0  0  0  0  0  0
   49.9214    1.1077   16.4591 H   0  0  0  0  0  0  0  0  0  0  0  0
   53.6643    1.8125   18.4435 H   0  0  0  0  0  0  0  0  0  0  0  0
   52.1012    0.2655   17.2936 H   0  0  0  0  0  0  0  0  0  0  0  0
   49.7490    6.2075   18.6810 H   0  0  0  0  0  0  0  0  0  0  0  0
   51.7118    3.5913   17.7450 H   0  0  0  0  0  0  0  0  0  0  0  0
   48.9285    4.3246   17.1138 H   0  0  0  0  0  0  0  0  0  0  0  0
   50.4402    5.6500   19.4478 H   0  0  0  0  0  0  0  0  0  0  0  0
   47.7721    6.3785   18.4425 H   0  0  0  0  0  0  0  0  0  0  0  0
   49.9323    6.4941   16.9706 H   0  0  0  0  0  0  0  0  0  0  0  0
   49.3593    1.9901   17.4090 H   0  0  0  0  0  0  0  0  0  0  0  0
   52.5575    4.8129   18.0488 H   0  0  0  0  0  0  0  0  0  0  0  0
   48.2478    8.4799   19.4571 H   0  0  0  0  0  0  0  0  0  0  0  0
   49.8025    7.8527   20.0035 H   0  0  0  0  0  0  0  0  0  0  0  0
   48.2827    7.1788   20.6501 H   0  0  0  0  0  0  0  0  0  0  0  0
   49.2778    3.5362   20.1095 H   0  0  0  0  0  0  0  0  0  0  0  0
   48.4573    4.9182   20.8200 H   0  0  0  0  0  0  0  0  0  0  0  0
   47.7657    4.1217   19.3974 H   0  0  0  0  0  0  0  0  0  0  0  0
   50.9602    0.1313   17.6632 H   0  0  0  0  0  0  0  0  0  0  0  0
   54.1468    2.9385   18.3067 H   0  0  0  0  0  0  0  0  0  0  0  0
   53.3541    0.5951   18.1163 H   0  0  0  0  0  0  0  0  0  0  0  0
  2  1  1  0
  3  1  1  0
  4  3  1  0
  1  5  1  0
  6  2  2  0
  7  2  1  0
  8  4  1  0
  3  9  1  0
 10  6  1  0
 11  7  2  0
 12 10  2  0
 12 11  1  0
 14 13  2  0
 15 13  2  0
 16 13  1  0
 17 13  1  0
 19 18  1  0
 20 18  1  0
 21 20  1  0
 18 22  1  0
 23 19  2  0
 24 19  1  0
 25 21  1  0
 20 26  1  0
 27 23  1  0
 28 24  2  0
 29 27  2  0
 29 28  1  0
  1 30  1  6
  3 31  1  1
  4 32  1  0
  5 33  1  0
  6 34  1  0
  7 35  1  0
  8 36  1  0
  8 37  1  0
  8 38  1  0
  9 39  1  0
  9 40  1  0
  9 41  1  0
 10 42  1  0
 11 43  1  0
 12 44  1  0
 16 45  1  0
 17 46  1  0
 18 47  1  6
 20 48  1  1
 21 49  1  0
 22 50  1  0
 23 51  1  0
 24 52  1  0
 25 53  1  0
 25 54  1  0
 25 55  1  0
 26 56  1  0
 26 57  1  0
 26 58  1  0
 27 59  1  0
 28 60  1  0
 29 61  1  0
M  END
> <Uni-Dock RESULT> 
ENERGY=   -5.102  LOWER_BOUND=    7.150  UPPER_BOUND=    8.528
INTER + INTRA:          -5.102
INTER:                  -5.102
INTRA:                   0.000
UNBOUND:                 0.000

$$$$

     RDKit          3D

 61 60  0  0  0  0  0  0  0  0999 V2000
   46.7643    5.4481   13.4980 C   0  0  1  0  0  0  0  0  0  0  0  0
   45.5138    5.3431   12.6413 C   0  0  0  0  0  0  0  0  0  0  0  0
   47.5575    6.7984   13.3803 C   0  0  1  0  0  0  0  0  0  0  0  0
   48.3320    6.8821   12.1214 N   0  0  0  0  0  0  0  0  0  0  0  0
   46.4410    5.2095   14.8768 O   0  0  0  0  0  0  0  0  0  0  0  0
   45.6254    5.1564   11.2540 C   0  0  0  0  0  0  0  0  0  0  0  0
   44.2270    5.4324   13.1963 C   0  0  0  0  0  0  0  0  0  0  0  0
   49.2262    8.0312   12.0674 C   0  0  0  0  0  0  0  0  0  0  0  0
   46.6394    8.0103   13.5950 C   0  0  0  0  0  0  0  0  0  0  0  0
   44.4879    5.0618   10.4485 C   0  0  0  0  0  0  0  0  0  0  0  0
   43.0894    5.3368   12.3913 C   0  0  0  0  0  0  0  0  0  0  0  0
   43.2202    5.1512   11.0176 C   0  0  0  0  0  0  0  0  0  0  0  0
   46.2924    6.6282   12.2654 S   0  0  0  0  0  0  0  0  0  0  0  0
   46.0867    6.1884   10.9090 O   0  0  0  0  0  0  0  0  0  0  0  0
   46.4470    8.0088   12.6471 O   0  0  0  0  0  0  0  0  0  0  0  0
   47.5602    5.8477   12.8630 O   0  0  0  0  0  0  0  0  0  0  0  0
   45.1016    5.9937   13.1332 O   0  0  0  0  0  0  0  0  0  0  0  0
   46.9161    5.5122   12.2618 C   0  0  1  0  0  0  0  0  0  0  0  0
   45.4131    5.4540   12.0995 C   0  0  0  0  0  0  0  0  0  0  0  0
   47.4221    6.8000   12.9882 C   0  0  1  0  0  0  0  0  0  0  0  0
   48.8610    6.6013   13.3133 N   0  0  0  0  0  0  0  0  0  0  0  0
   47.3412    4.3679   13.0185 O   0  0  0  0  0  0  0  0  0  0  0  0
   44.8273    5.6796   10.8443 C   0  0  0  0  0  0  0  0  0  0  0  0
   44.5747    5.1972   13.1953 C   0  0  0  0  0  0  0  0  0  0  0  0
   49.3179    7.4875   14.3777 C   0  0  0  0  0  0  0  0  0  0  0  0
   47.2062    8.0495   12.1302 C   0  0  0  0  0  0  0  0  0  0  0  0
   43.4394    5.6539   10.6916 C   0  0  0  0  0  0  0  0  0  0  0  0
   43.1876    5.1708   13.0415 C   0  0  0  0  0  0  0  0  0  0  0  0
   42.6204    5.4013   11.7903 C   0  0  0  0  0  0  0  0  0  0  0  0
   47.4249    4.6177   13.2139 H   0  0  0  0  0  0  0  0  0  0  0  0
   48.2801    6.7990   14.2087 H   0  0  0  0  0  0  0  0  0  0  0  0
   48.8867    6.0332   12.0131 H   0  0  0  0  0  0  0  0  0  0  0  0
   47.2805    5.0630   15.3426 H   0  0  0  0  0  0  0  0  0  0  0  0
   46.6054    5.0926   10.7864 H   0  0  0  0  0  0  0  0  0  0  0  0
   44.1026    5.5787   14.2673 H   0  0  0  0  0  0  0  0  0  0  0  0
   49.9033    8.0580   12.9270 H   0  0  0  0  0  0  0  0  0  0  0  0
   48.6744    8.9736   12.0083 H   0  0  0  0  0  0  0  0  0  0  0  0
   49.8396    7.9664   11.1629 H   0  0  0  0  0  0  0  0  0  0  0  0
   46.0128    7.8749   14.4830 H   0  0  0  0  0  0  0  0  0  0  0  0
   47.2182    8.9257   13.7545 H   0  0  0  0  0  0  0  0  0  0  0  0
   45.9809    8.1767   12.7358 H   0  0  0  0  0  0  0  0  0  0  0  0
   44.5941    4.9222    9.3760 H   0  0  0  0  0  0  0  0  0  0  0  0
   42.1025    5.4085   12.8400 H   0  0  0  0  0  0  0  0  0  0  0  0
   42.3354    5.0790   10.3913 H   0  0  0  0  0  0  0  0  0  0  0  0
   47.8614    6.3464   13.6505 H   0  0  0  0  0  0  0  0  0  0  0  0
   44.8196    5.1724   12.6796 H   0  0  0  0  0  0  0  0  0  0  0  0
   47.4013    5.4239   11.2816 H   0  0  0  0  0  0  0  0  0  0  0  0
   46.8675    6.9037   13.9301 H   0  0  0  0  0  0  0  0  0  0  0  0
   49.4226    6.7685   12.4763 H   0  0  0  0  0  0  0  0  0  0  0  0
   48.1953    4.6525   13.4050 H   0  0  0  0  0  0  0  0  0  0  0  0
   45.4496    5.8749    9.9740 H   0  0  0  0  0  0  0  0  0  0  0  0
   45.0069    5.0013   14.1748 H   0  0  0  0  0  0  0  0  0  0  0  0
   50.3643    7.2629   14.6071 H   0  0  0  0  0  0  0  0  0  0  0  0
   48.7428    7.3329   15.2962 H   0  0  0  0  0  0  0  0  0  0  0  0
   49.2613    8.5413   14.0907 H   0  0  0  0  0  0  0  0  0  0  0  0
   46.1431    8.2038   11.9195 H   0  0  0  0  0  0  0  0  0  0  0  0
   47.5621    8.9520   12.6369 H   0  0  0  0  0  0  0  0  0  0  0  0
   47.7318    7.9708   11.1722 H   0  0  0  0  0  0  0  0  0  0  0  0
   42.9974    5.8270    9.7141 H   0  0  0  0  0  0  0  0  0  0  0  0
   42.5518    4.9629   13.8979 H   0  0  0  0  0  0  0  0  0  0  0  0
   41.5407    5.3764   11.6701 H   0  0  0  0  0  0  0  0  0  0  0  0
  2  1  1  0
  3  1  1  0
  4  3  1  0
  1  5  1  0
  6  2  2  0
  7  2  1  0
  8  4  1  0
  3  9  1  0
 10  6  1  0
 11  7  2  0
 12 10  2  0
 12 11  1  0
 14 13  2  0
 15 13  2  0
 16 13  1  0
 17 13  1  0
 19 18  1  0
 20 18  1  0
 21 20  1  0
 18 22  1  0
 23 19  2  0
 24 19  1  0
 25 21  1  0
 20 26  1  0
 27 23  1  0
 28 24  2  0
 29 27  2  0
 29 28  1  0
  1 30  1  6
  3 31  1  1
  4 32  1  0
  5 33  1  0
  6 34  1  0
  7 35  1  0
  8 36  1  0
  8 37  1  0
  8 38  1  0
  9 39  1  0
  9 40  1  0
  9 41  1  0
 10 42  1  0
 11 43  1  0
 12 44  1  0
 16 45  1  0
 17 46  1  0
 18 47  1  6
 20 48  1  1
 21 49  1  0
 22 50  1  0
 23 51  1  0
 24 52  1  0
 25 53  1  0
 25 54  1  0
 25 55  1  0
 26 56  1  0
 26 57  1  0
 26 58  1  0
 27 59  1  0
 28 60  1  0
 29 61  1  0
M  END
> <Uni-Dock RESULT> 
ENERGY=   -5.020  LOWER_BOUND=    1.566  UPPER_BOUND=    4.370
INTER + INTRA:          -5.020
INTER:                  -5.020
INTRA:                   0.000
UNBOUND:                 0.000

$$$$

     RDKit          3D

 61 60  0  0  0  0  0  0  0  0999 V2000
   48.6411    7.4212   12.6874 C   0  0  1  0  0  0  0  0  0  0  0  0
   47.4908    6.4287   12.6757 C   0  0  0  0  0  0  0  0  0  0  0  0
   48.2562    8.9039   13.0337 C   0  0  1  0  0  0  0  0  0  0  0  0
   47.5911    9.5863   11.9009 N   0  0  0  0  0  0  0  0  0  0  0  0
   49.6682    6.9777   13.5880 O   0  0  0  0  0  0  0  0  0  0  0  0
   46.5666    6.4356   11.6183 C   0  0  0  0  0  0  0  0  0  0  0  0
   47.3122    5.4907   13.7053 C   0  0  0  0  0  0  0  0  0  0  0  0
   47.3944   11.0133   12.1198 C   0  0  0  0  0  0  0  0  0  0  0  0
   47.4457    8.9849   14.3353 C   0  0  0  0  0  0  0  0  0  0  0  0
   45.4997    5.5343   11.5913 C   0  0  0  0  0  0  0  0  0  0  0  0
   46.2460    4.5885   13.6781 C   0  0  0  0  0  0  0  0  0  0  0  0
   45.3402    4.6104   12.6209 C   0  0  0  0  0  0  0  0  0  0  0  0
   46.9329    7.8660   12.8241 S   0  0  0  0  0  0  0  0  0  0  0  0
   46.0142    7.4665   11.7887 O   0  0  0  0  0  0  0  0  0  0  0  0
   46.6375    8.8671   13.8172 O   0  0  0  0  0  0  0  0  0  0  0  0
   48.3127    8.3054   12.1337 O   0  0  0  0  0  0  0  0  0  0  0  0
   47.3787    6.5219   13.5779 O   0  0  0  0  0  0  0  0  0  0  0  0
   47.7312    7.6167   11.8573 C   0  0  1  0  0  0  0  0  0  0  0  0
   46.9798    6.4409   12.4417 C   0  0  0  0  0  0  0  0  0  0  0  0
   47.8965    8.8141   12.8477 C   0  0  1  0  0  0  0  0  0  0  0  0
   48.8665    9.7695   12.2459 N   0  0  0  0  0  0  0  0  0  0  0  0
   49.0380    7.1744   11.4582 O   0  0  0  0  0  0  0  0  0  0  0  0
   45.6573    6.1807   12.0504 C   0  0  0  0  0  0  0  0  0  0  0  0
   47.5745    5.6026   13.3973 C   0  0  0  0  0  0  0  0  0  0  0  0
   49.4594   10.6586   13.2383 C   0  0  0  0  0  0  0  0  0  0  0  0
   46.5535    9.4869   13.1435 C   0  0  0  0  0  0  0  0  0  0  0  0
   44.9479    5.1132   12.6050 C   0  0  0  0  0  0  0  0  0  0  0  0
   46.8650    4.5353   13.9503 C   0  0  0  0  0  0  0  0  0  0  0  0
   45.5513    4.2924   13.5556 C   0  0  0  0  0  0  0  0  0  0  0  0
   49.1055    7.3938   11.6923 H   0  0  0  0  0  0  0  0  0  0  0  0
   49.2045    9.4281   13.2192 H   0  0  0  0  0  0  0  0  0  0  0  0
   48.1526    9.4610   11.0588 H   0  0  0  0  0  0  0  0  0  0  0  0
   50.4598    7.5067   13.3964 H   0  0  0  0  0  0  0  0  0  0  0  0
   46.6663    7.1541   10.8079 H   0  0  0  0  0  0  0  0  0  0  0  0
   48.0079    5.4576   14.5413 H   0  0  0  0  0  0  0  0  0  0  0  0
   48.3343   11.5189   12.3629 H   0  0  0  0  0  0  0  0  0  0  0  0
   46.6618   11.2067   12.9085 H   0  0  0  0  0  0  0  0  0  0  0  0
   47.0005   11.4660   11.2041 H   0  0  0  0  0  0  0  0  0  0  0  0
   47.9161    8.3929   15.1276 H   0  0  0  0  0  0  0  0  0  0  0  0
   47.3857   10.0139   14.7043 H   0  0  0  0  0  0  0  0  0  0  0  0
   46.4225    8.6187   14.1986 H   0  0  0  0  0  0  0  0  0  0  0  0
   44.7918    5.5578   10.7672 H   0  0  0  0  0  0  0  0  0  0  0  0
   46.1252    3.8705   14.4845 H   0  0  0  0  0  0  0  0  0  0  0  0
   44.5098    3.9101   12.6009 H   0  0  0  0  0  0  0  0  0  0  0  0
   48.8098    8.8335   12.7923 H   0  0  0  0  0  0  0  0  0  0  0  0
   47.2985    5.7888   12.9329 H   0  0  0  0  0  0  0  0  0  0  0  0
   47.2347    7.9589   10.9405 H   0  0  0  0  0  0  0  0  0  0  0  0
   48.3262    8.4303   13.7823 H   0  0  0  0  0  0  0  0  0  0  0  0
   48.3917   10.3311   11.5366 H   0  0  0  0  0  0  0  0  0  0  0  0
   49.5710    7.9965   11.4651 H   0  0  0  0  0  0  0  0  0  0  0  0
   45.1701    6.8077   11.3072 H   0  0  0  0  0  0  0  0  0  0  0  0
   48.6050    5.7738   13.7027 H   0  0  0  0  0  0  0  0  0  0  0  0
   50.1974   11.3016   12.7485 H   0  0  0  0  0  0  0  0  0  0  0  0
   49.9848   10.0924   14.0140 H   0  0  0  0  0  0  0  0  0  0  0  0
   48.7155   11.3079   13.7082 H   0  0  0  0  0  0  0  0  0  0  0  0
   45.8559    8.7851   13.6115 H   0  0  0  0  0  0  0  0  0  0  0  0
   46.6682   10.3272   13.8354 H   0  0  0  0  0  0  0  0  0  0  0  0
   46.0871    9.8654   12.2273 H   0  0  0  0  0  0  0  0  0  0  0  0
   43.9255    4.9198   12.2919 H   0  0  0  0  0  0  0  0  0  0  0  0
   47.3415    3.8903   14.6835 H   0  0  0  0  0  0  0  0  0  0  0  0
   45.0007    3.4588   13.9832 H   0  0  0  0  0  0  0  0  0  0  0  0
  2  1  1  0
  3  1  1  0
  4  3  1  0
  1  5  1  0
  6  2  2  0
  7  2  1  0
  8  4  1  0
  3  9  1  0
 10  6  1  0
 11  7  2  0
 12 10  2  0
 12 11  1  0
 14 13  2  0
 15 13  2  0
 16 13  1  0
 17 13  1  0
 19 18  1  0
 20 18  1  0
 21 20  1  0
 18 22  1  0
 23 19  2  0
 24 19  1  0
 25 21  1  0
 20 26  1  0
 27 23  1  0
 28 24  2  0
 29 27  2  0
 29 28  1  0
  1 30  1  6
  3 31  1  1
  4 32  1  0
  5 33  1  0
  6 34  1  0
  7 35  1  0
  8 36  1  0
  8 37  1  0
  8 38  1  0
  9 39  1  0
  9 40  1  0
  9 41  1  0
 10 42  1  0
 11 43  1  0
 12 44  1  0
 16 45  1  0
 17 46  1  0
 18 47  1  6
 20 48  1  1
 21 49  1  0
 22 50  1  0
 23 51  1  0
 24 52  1  0
 25 53  1  0
 25 54  1  0
 25 55  1  0
 26 56  1  0
 26 57  1  0
 26 58  1  0
 27 59  1  0
 28 60  1  0
 29 61  1  0
M  END
> <Uni-Dock RESULT> 
ENERGY=   -4.655  LOWER_BOUND=    2.036  UPPER_BOUND=    4.459
INTER + INTRA:          -4.655
INTER:                  -4.655
INTRA:                   0.000
UNBOUND:                 0.000

$$$$

     RDKit          3D

 61 60  0  0  0  0  0  0  0  0999 V2000
   47.3816    5.8973   19.3835 C   0  0  1  0  0  0  0  0  0  0  0  0
   48.0448    4.7609   18.6238 C   0  0  0  0  0  0  0  0  0  0  0  0
   48.0089    7.3201   19.1624 C   0  0  1  0  0  0  0  0  0  0  0  0
   49.2848    7.4866   19.8942 N   0  0  0  0  0  0  0  0  0  0  0  0
   45.9797    5.9467   19.0754 O   0  0  0  0  0  0  0  0  0  0  0  0
   49.2953    4.2737   19.0376 C   0  0  0  0  0  0  0  0  0  0  0  0
   47.4439    4.1725   17.4992 C   0  0  0  0  0  0  0  0  0  0  0  0
   49.7939    8.8515   19.8667 C   0  0  0  0  0  0  0  0  0  0  0  0
   48.1322    7.6541   17.6688 C   0  0  0  0  0  0  0  0  0  0  0  0
   49.9235    3.2326   18.3500 C   0  0  0  0  0  0  0  0  0  0  0  0
   48.0714    3.1306   16.8121 C   0  0  0  0  0  0  0  0  0  0  0  0
   49.3109    2.6608   17.2379 C   0  0  0  0  0  0  0  0  0  0  0  0
   48.8917    6.0488   18.4718 S   0  0  0  0  0  0  0  0  0  0  0  0
   50.0018    5.1900   18.7968 O   0  0  0  0  0  0  0  0  0  0  0  0
   49.0056    7.2385   17.6673 O   0  0  0  0  0  0  0  0  0  0  0  0
   48.1786    6.4922   19.8386 O   0  0  0  0  0  0  0  0  0  0  0  0
   47.7643    5.1077   17.8262 O   0  0  0  0  0  0  0  0  0  0  0  0
   48.5768    5.6592   19.6480 C   0  0  1  0  0  0  0  0  0  0  0  0
   48.5820    4.6081   18.5600 C   0  0  0  0  0  0  0  0  0  0  0  0
   48.3661    7.1140   19.1177 C   0  0  1  0  0  0  0  0  0  0  0  0
   48.1170    7.9932   20.2927 N   0  0  0  0  0  0  0  0  0  0  0  0
   47.5217    5.3567   20.5741 O   0  0  0  0  0  0  0  0  0  0  0  0
   49.7862    4.0067   18.1623 C   0  0  0  0  0  0  0  0  0  0  0  0
   47.3961    4.2285   17.9125 C   0  0  0  0  0  0  0  0  0  0  0  0
   47.4511    9.2374   19.9248 C   0  0  0  0  0  0  0  0  0  0  0  0
   49.5692    7.5932   18.3011 C   0  0  0  0  0  0  0  0  0  0  0  0
   49.8030    3.0550   17.1404 C   0  0  0  0  0  0  0  0  0  0  0  0
   47.4138    3.2764   16.8920 C   0  0  0  0  0  0  0  0  0  0  0  0
   48.6174    2.6917   16.5049 C   0  0  0  0  0  0  0  0  0  0  0  0
   47.4283    5.6464   20.4519 H   0  0  0  0  0  0  0  0  0  0  0  0
   47.2925    8.0370   19.5882 H   0  0  0  0  0  0  0  0  0  0  0  0
   49.1513    7.2090   20.8665 H   0  0  0  0  0  0  0  0  0  0  0  0
   45.5649    6.5231   19.7379 H   0  0  0  0  0  0  0  0  0  0  0  0
   49.7965    4.7110   19.8982 H   0  0  0  0  0  0  0  0  0  0  0  0
   46.4760    4.5257   17.1492 H   0  0  0  0  0  0  0  0  0  0  0  0
   49.0531    9.5674   20.2365 H   0  0  0  0  0  0  0  0  0  0  0  0
   50.1160    9.1454   18.8637 H   0  0  0  0  0  0  0  0  0  0  0  0
   50.6740    8.9194   20.5142 H   0  0  0  0  0  0  0  0  0  0  0  0
   47.1999    7.4315   17.1390 H   0  0  0  0  0  0  0  0  0  0  0  0
   48.3362    8.7185   17.5139 H   0  0  0  0  0  0  0  0  0  0  0  0
   48.9385    7.0865   17.1922 H   0  0  0  0  0  0  0  0  0  0  0  0
   50.8934    2.8720   18.6822 H   0  0  0  0  0  0  0  0  0  0  0  0
   47.5899    2.6888   15.9442 H   0  0  0  0  0  0  0  0  0  0  0  0
   49.7999    1.8520   16.7021 H   0  0  0  0  0  0  0  0  0  0  0  0
   47.6305    7.2786   19.6366 H   0  0  0  0  0  0  0  0  0  0  0  0
   47.8931    4.2088   18.1940 H   0  0  0  0  0  0  0  0  0  0  0  0
   49.5093    5.6053   20.2238 H   0  0  0  0  0  0  0  0  0  0  0  0
   47.4688    7.1226   18.4850 H   0  0  0  0  0  0  0  0  0  0  0  0
   49.0065    8.2124   20.7451 H   0  0  0  0  0  0  0  0  0  0  0  0
   47.3259    6.2219   20.9901 H   0  0  0  0  0  0  0  0  0  0  0  0
   50.7215    4.2743   18.6486 H   0  0  0  0  0  0  0  0  0  0  0  0
   46.4478    4.6678   18.2163 H   0  0  0  0  0  0  0  0  0  0  0  0
   47.2499    9.8181   20.8305 H   0  0  0  0  0  0  0  0  0  0  0  0
   46.4880    9.0436   19.4418 H   0  0  0  0  0  0  0  0  0  0  0  0
   48.0663    9.8560   19.2655 H   0  0  0  0  0  0  0  0  0  0  0  0
   49.7280    6.9581   17.4238 H   0  0  0  0  0  0  0  0  0  0  0  0
   49.4239    8.6129   17.9308 H   0  0  0  0  0  0  0  0  0  0  0  0
   50.4875    7.5788   18.8984 H   0  0  0  0  0  0  0  0  0  0  0  0
   50.7411    2.5940   16.8432 H   0  0  0  0  0  0  0  0  0  0  0  0
   46.4863    2.9871   16.4053 H   0  0  0  0  0  0  0  0  0  0  0  0
   48.6301    1.9474   15.7132 H   0  0  0  0  0  0  0  0  0  0  0  0
  2  1  1  0
  3  1  1  0
  4  3  1  0
  1  5  1  0
  6  2  2  0
  7  2  1  0
  8  4  1  0
  3  9  1  0
 10  6  1  0
 11  7  2  0
 12 10  2  0
 12 11  1  0
 14 13  2  0
 15 13  2  0
 16 13  1  0
 17 13  1  0
 19 18  1  0
 20 18  1  0
 21 20  1  0
 18 22  1  0
 23 19  2  0
 24 19  1  0
 25 21  1  0
 20 26  1  0
 27 23  1  0
 28 24  2  0
 29 27  2  0
 29 28  1  0
  1 30  1  6
  3 31  1  1
  4 32  1  0
  5 33  1  0
  6 34  1  0
  7 35  1  0
  8 36  1  0
  8 37  1  0
  8 38  1  0
  9 39  1  0
  9 40  1  0
  9 41  1  0
 10 42  1  0
 11 43  1  0
 12 44  1  0
 16 45  1  0
 17 46  1  0
 18 47  1  6
 20 48  1  1
 21 49  1  0
 22 50  1  0
 23 51  1  0
 24 52  1  0
 25 53  1  0
 25 54  1  0
 25 55  1  0
 26 56  1  0
 26 57  1  0
 26 58  1  0
 27 59  1  0
 28 60  1  0
 29 61  1  0
M  END
> <Uni-Dock RESULT> 
ENERGY=   -4.623  LOWER_BOUND=    6.153  UPPER_BOUND=    7.795
INTER + INTRA:          -4.623
INTER:                  -4.623
INTRA:                   0.000
UNBOUND:                 0.000

$$$$

     RDKit          3D

 61 60  0  0  0  0  0  0  0  0999 V2000
   48.3195   12.9603   17.1230 C   0  0  1  0  0  0  0  0  0  0  0  0
   47.7253   12.0658   18.1978 C   0  0  0  0  0  0  0  0  0  0  0  0
   49.5117   13.8741   17.5816 C   0  0  1  0  0  0  0  0  0  0  0  0
   49.0514   15.0302   18.3834 N   0  0  0  0  0  0  0  0  0  0  0  0
   48.7357   12.1716   15.9972 O   0  0  0  0  0  0  0  0  0  0  0  0
   46.9151   12.6177   19.2034 C   0  0  0  0  0  0  0  0  0  0  0  0
   47.9651   10.6825   18.2253 C   0  0  0  0  0  0  0  0  0  0  0  0
   50.1048   15.9977   18.6614 C   0  0  0  0  0  0  0  0  0  0  0  0
   50.6054   13.0592   18.2869 C   0  0  0  0  0  0  0  0  0  0  0  0
   46.3629   11.8130   20.2029 C   0  0  0  0  0  0  0  0  0  0  0  0
   47.4122    9.8773   19.2240 C   0  0  0  0  0  0  0  0  0  0  0  0
   46.6111   10.4428   20.2124 C   0  0  0  0  0  0  0  0  0  0  0  0
   48.7371   13.0461   18.8414 S   0  0  0  0  0  0  0  0  0  0  0  0
   47.6945   13.2659   19.8111 O   0  0  0  0  0  0  0  0  0  0  0  0
   50.1416   13.1969   19.1244 O   0  0  0  0  0  0  0  0  0  0  0  0
   48.4329   13.9578   17.5569 O   0  0  0  0  0  0  0  0  0  0  0  0
   48.4966   11.5777   18.2420 O   0  0  0  0  0  0  0  0  0  0  0  0
   47.8042   13.5235   18.1091 C   0  0  1  0  0  0  0  0  0  0  0  0
   47.5591   12.1640   18.7258 C   0  0  0  0  0  0  0  0  0  0  0  0
   49.3174   13.8788   17.9481 C   0  0  1  0  0  0  0  0  0  0  0  0
   49.4089   15.0988   17.1001 N   0  0  0  0  0  0  0  0  0  0  0  0
   47.1898   13.5570   16.8114 O   0  0  0  0  0  0  0  0  0  0  0  0
   47.1187   12.0581   20.0542 C   0  0  0  0  0  0  0  0  0  0  0  0
   47.7853   10.9858   17.9975 C   0  0  0  0  0  0  0  0  0  0  0  0
   50.7252   15.2557   16.4921 C   0  0  0  0  0  0  0  0  0  0  0  0
   49.9927   14.0856   19.3064 C   0  0  0  0  0  0  0  0  0  0  0  0
   46.9158   10.8063   20.6391 C   0  0  0  0  0  0  0  0  0  0  0  0
   47.5811    9.7351   18.5827 C   0  0  0  0  0  0  0  0  0  0  0  0
   47.1485    9.6458   19.9038 C   0  0  0  0  0  0  0  0  0  0  0  0
   47.5079   13.5940   16.7406 H   0  0  0  0  0  0  0  0  0  0  0  0
   49.9598   14.2733   16.6606 H   0  0  0  0  0  0  0  0  0  0  0  0
   48.2982   15.5040   17.8851 H   0  0  0  0  0  0  0  0  0  0  0  0
   48.8926   12.7878   15.2630 H   0  0  0  0  0  0  0  0  0  0  0  0
   46.7150   13.6867   19.2210 H   0  0  0  0  0  0  0  0  0  0  0  0
   48.5895   10.2208   17.4630 H   0  0  0  0  0  0  0  0  0  0  0  0
   50.5870   16.3463   17.7427 H   0  0  0  0  0  0  0  0  0  0  0  0
   50.8613   15.5920   19.3390 H   0  0  0  0  0  0  0  0  0  0  0  0
   49.6689   16.8697   19.1596 H   0  0  0  0  0  0  0  0  0  0  0  0
   50.8568   12.1610   17.7129 H   0  0  0  0  0  0  0  0  0  0  0  0
   51.5298   13.6369   18.3888 H   0  0  0  0  0  0  0  0  0  0  0  0
   50.2945   12.7467   19.2895 H   0  0  0  0  0  0  0  0  0  0  0  0
   45.7424   12.2588   20.9756 H   0  0  0  0  0  0  0  0  0  0  0  0
   47.6099    8.8090   19.2278 H   0  0  0  0  0  0  0  0  0  0  0  0
   46.1829    9.8169   20.9903 H   0  0  0  0  0  0  0  0  0  0  0  0
   49.2661   14.0243   17.0461 H   0  0  0  0  0  0  0  0  0  0  0  0
   47.5392   11.3859   18.3230 H   0  0  0  0  0  0  0  0  0  0  0  0
   47.3018   14.2985   18.7016 H   0  0  0  0  0  0  0  0  0  0  0  0
   49.8097   13.0532   17.4176 H   0  0  0  0  0  0  0  0  0  0  0  0
   49.2044   15.9221   17.6696 H   0  0  0  0  0  0  0  0  0  0  0  0
   47.6889   14.2552   16.3388 H   0  0  0  0  0  0  0  0  0  0  0  0
   46.9280   12.9522   20.6433 H   0  0  0  0  0  0  0  0  0  0  0  0
   48.1094   11.0432   16.9601 H   0  0  0  0  0  0  0  0  0  0  0  0
   50.7180   16.1375   15.8436 H   0  0  0  0  0  0  0  0  0  0  0  0
   50.9781   14.3937   15.8666 H   0  0  0  0  0  0  0  0  0  0  0  0
   51.5105   15.4013   17.2390 H   0  0  0  0  0  0  0  0  0  0  0  0
   49.9457   13.1752   19.9124 H   0  0  0  0  0  0  0  0  0  0  0  0
   51.0522   14.3367   19.1951 H   0  0  0  0  0  0  0  0  0  0  0  0
   49.5124   14.8919   19.8716 H   0  0  0  0  0  0  0  0  0  0  0  0
   46.5717   10.7370   21.6675 H   0  0  0  0  0  0  0  0  0  0  0  0
   47.7532    8.8318   18.0037 H   0  0  0  0  0  0  0  0  0  0  0  0
   46.9856    8.6720   20.3577 H   0  0  0  0  0  0  0  0  0  0  0  0
  2  1  1  0
  3  1  1  0
  4  3  1  0
  1  5  1  0
  6  2  2  0
  7  2  1  0
  8  4  1  0
  3  9  1  0
 10  6  1  0
 11  7  2  0
 12 10  2  0
 12 11  1  0
 14 13  2  0
 15 13  2  0
 16 13  1  0
 17 13  1  0
 19 18  1  0
 20 18  1  0
 21 20  1  0
 18 22  1  0
 23 19  2  0
 24 19  1  0
 25 21  1  0
 20 26  1  0
 27 23  1  0
 28 24  2  0
 29 27  2  0
 29 28  1  0
  1 30  1  6
  3 31  1  1
  4 32  1  0
  5 33  1  0
  6 34  1  0
  7 35  1  0
  8 36  1  0
  8 37  1  0
  8 38  1  0
  9 39  1  0
  9 40  1  0
  9 41  1  0
 10 42  1  0
 11 43  1  0
 12 44  1  0
 16 45  1  0
 17 46  1  0
 18 47  1  6
 20 48  1  1
 21 49  1  0
 22 50  1  0
 23 51  1  0
 24 52  1  0
 25 53  1  0
 25 54  1  0
 25 55  1  0
 26 56  1  0
 26 57  1  0
 26 58  1  0
 27 59  1  0
 28 60  1  0
 29 61  1  0
M  END
> <Uni-Dock RESULT> 
ENERGY=   -4.608  LOWER_BOUND=    7.864  UPPER_BOUND=    9.759
INTER + INTRA:          -4.608
INTER:                  -4.608
INTRA:                   0.000
UNBOUND:                 0.000

$$$$

     RDKit          3D

 61 60  0  0  0  0  0  0  0  0999 V2000
   48.8557    9.1286   14.0011 C   0  0  1  0  0  0  0  0  0  0  0  0
   47.7457    8.2283   13.4856 C   0  0  0  0  0  0  0  0  0  0  0  0
   50.1061    9.2720   13.0617 C   0  0  1  0  0  0  0  0  0  0  0  0
   50.9715    8.0715   13.0984 N   0  0  0  0  0  0  0  0  0  0  0  0
   48.3363   10.4343   14.2978 O   0  0  0  0  0  0  0  0  0  0  0  0
   47.9107    6.8338   13.4927 C   0  0  0  0  0  0  0  0  0  0  0  0
   46.5403    8.7501   12.9887 C   0  0  0  0  0  0  0  0  0  0  0  0
   52.2332    8.2458   12.3907 C   0  0  0  0  0  0  0  0  0  0  0  0
   49.6955    9.6655   11.6354 C   0  0  0  0  0  0  0  0  0  0  0  0
   46.9038    5.9892   13.0191 C   0  0  0  0  0  0  0  0  0  0  0  0
   45.5329    7.9058   12.5160 C   0  0  0  0  0  0  0  0  0  0  0  0
   45.7148    6.5255   12.5316 C   0  0  0  0  0  0  0  0  0  0  0  0
   48.9826    8.1058   12.5616 S   0  0  0  0  0  0  0  0  0  0  0  0
   48.7571    6.6878   12.6808 O   0  0  0  0  0  0  0  0  0  0  0  0
   49.6082    8.7262   11.4216 O   0  0  0  0  0  0  0  0  0  0  0  0
   49.8002    8.5978   13.8511 O   0  0  0  0  0  0  0  0  0  0  0  0
   47.5637    8.8127   12.8069 O   0  0  0  0  0  0  0  0  0  0  0  0
   49.1378    7.9277   13.8180 C   0  0  1  0  0  0  0  0  0  0  0  0
   47.7463    7.7112   13.2652 C   0  0  0  0  0  0  0  0  0  0  0  0
   50.0193    8.8822   12.9496 C   0  0  1  0  0  0  0  0  0  0  0  0
   51.2396    9.2124   13.7356 N   0  0  0  0  0  0  0  0  0  0  0  0
   49.0268    8.4869   15.1362 O   0  0  0  0  0  0  0  0  0  0  0  0
   47.4112    6.4966   12.6469 C   0  0  0  0  0  0  0  0  0  0  0  0
   46.7723    8.7191   13.3372 C   0  0  0  0  0  0  0  0  0  0  0  0
   51.8924   10.4282   13.2639 C   0  0  0  0  0  0  0  0  0  0  0  0
   50.3725    8.2481   11.6016 C   0  0  0  0  0  0  0  0  0  0  0  0
   46.1371    6.2988   12.1105 C   0  0  0  0  0  0  0  0  0  0  0  0
   45.4988    8.5201   12.8016 C   0  0  0  0  0  0  0  0  0  0  0  0
   45.1824    7.3109   12.1866 C   0  0  0  0  0  0  0  0  0  0  0  0
   49.1792    8.7252   14.9703 H   0  0  0  0  0  0  0  0  0  0  0  0
   50.6932   10.1100   13.4637 H   0  0  0  0  0  0  0  0  0  0  0  0
   51.1737    7.8347   14.0695 H   0  0  0  0  0  0  0  0  0  0  0  0
   49.0104   10.8934   14.8251 H   0  0  0  0  0  0  0  0  0  0  0  0
   48.8345    6.3930   13.8606 H   0  0  0  0  0  0  0  0  0  0  0  0
   46.3785    9.8259   12.9664 H   0  0  0  0  0  0  0  0  0  0  0  0
   52.7851    9.1176   12.7559 H   0  0  0  0  0  0  0  0  0  0  0  0
   52.0850    8.3343   11.3107 H   0  0  0  0  0  0  0  0  0  0  0  0
   52.8605    7.3633   12.5527 H   0  0  0  0  0  0  0  0  0  0  0  0
   48.9823   10.4965   11.6480 H   0  0  0  0  0  0  0  0  0  0  0  0
   50.5582    9.9995   11.0500 H   0  0  0  0  0  0  0  0  0  0  0  0
   49.2333    8.8282   11.1016 H   0  0  0  0  0  0  0  0  0  0  0  0
   47.0515    4.9126   13.0280 H   0  0  0  0  0  0  0  0  0  0  0  0
   44.6075    8.3293   12.1354 H   0  0  0  0  0  0  0  0  0  0  0  0
   44.9321    5.8690   12.1619 H   0  0  0  0  0  0  0  0  0  0  0  0
   50.1903    9.4689   13.6307 H   0  0  0  0  0  0  0  0  0  0  0  0
   47.0380    8.2148   13.3779 H   0  0  0  0  0  0  0  0  0  0  0  0
   49.6453    6.9626   13.9406 H   0  0  0  0  0  0  0  0  0  0  0  0
   49.4573    9.8100   12.7805 H   0  0  0  0  0  0  0  0  0  0  0  0
   51.9000    8.4350   13.6765 H   0  0  0  0  0  0  0  0  0  0  0  0
   49.8840    8.9433   15.2651 H   0  0  0  0  0  0  0  0  0  0  0  0
   48.1413    5.6933   12.5808 H   0  0  0  0  0  0  0  0  0  0  0  0
   47.0034    9.6626   13.8281 H   0  0  0  0  0  0  0  0  0  0  0  0
   52.7504   10.6475   13.9072 H   0  0  0  0  0  0  0  0  0  0  0  0
   51.2166   11.2876   13.3184 H   0  0  0  0  0  0  0  0  0  0  0  0
   52.2642   10.3271   12.2404 H   0  0  0  0  0  0  0  0  0  0  0  0
   49.4710    8.0345   11.0185 H   0  0  0  0  0  0  0  0  0  0  0  0
   50.9917    8.9147   10.9932 H   0  0  0  0  0  0  0  0  0  0  0  0
   50.9187    7.3078   11.7344 H   0  0  0  0  0  0  0  0  0  0  0  0
   45.8883    5.3530   11.6368 H   0  0  0  0  0  0  0  0  0  0  0  0
   44.7529    9.3071   12.8718 H   0  0  0  0  0  0  0  0  0  0  0  0
   44.1894    7.1548   11.7736 H   0  0  0  0  0  0  0  0  0  0  0  0
  2  1  1  0
  3  1  1  0
  4  3  1  0
  1  5  1  0
  6  2  2  0
  7  2  1  0
  8  4  1  0
  3  9  1  0
 10  6  1  0
 11  7  2  0
 12 10  2  0
 12 11  1  0
 14 13  2  0
 15 13  2  0
 16 13  1  0
 17 13  1  0
 19 18  1  0
 20 18  1  0
 21 20  1  0
 18 22  1  0
 23 19  2  0
 24 19  1  0
 25 21  1  0
 20 26  1  0
 27 23  1  0
 28 24  2  0
 29 27  2  0
 29 28  1  0
  1 30  1  6
  3 31  1  1
  4 32  1  0
  5 33  1  0
  6 34  1  0
  7 35  1  0
  8 36  1  0
  8 37  1  0
  8 38  1  0
  9 39  1  0
  9 40  1  0
  9 41  1  0
 10 42  1  0
 11 43  1  0
 12 44  1  0
 16 45  1  0
 17 46  1  0
 18 47  1  6
 20 48  1  1
 21 49  1  0
 22 50  1  0
 23 51  1  0
 24 52  1  0
 25 53  1  0
 25 54  1  0
 25 55  1  0
 26 56  1  0
 26 57  1  0
 26 58  1  0
 27 59  1  0
 28 60  1  0
 29 61  1  0
M  END
> <Uni-Dock RESULT> 
ENERGY=   -4.446  LOWER_BOUND=    2.963  UPPER_BOUND=    5.211
INTER + INTRA:          -4.446
INTER:                  -4.446
INTRA:                   0.000
UNBOUND:                 0.000

$$$$
