
     RDKit          3D

 61 60  0  0  0  0  0  0  0  0999 V2000
   44.7633    6.6894   11.7779 C   0  0  1  0  0  0  0  0  0  0  0  0
   46.1085    7.3101   12.1161 C   0  0  0  0  0  0  0  0  0  0  0  0
   44.7393    5.1868   11.3345 C   0  0  1  0  0  0  0  0  0  0  0  0
   44.8824    4.2909   12.5101 N   0  0  0  0  0  0  0  0  0  0  0  0
   43.9089    6.8508   12.9197 O   0  0  0  0  0  0  0  0  0  0  0  0
   47.2759    6.5665   12.3359 C   0  0  0  0  0  0  0  0  0  0  0  0
   46.1839    8.7101   12.2375 C   0  0  0  0  0  0  0  0  0  0  0  0
   45.2848    2.9402   12.1425 C   0  0  0  0  0  0  0  0  0  0  0  0
   43.4127    4.8957   10.6138 C   0  0  0  0  0  0  0  0  0  0  0  0
   48.4819    7.2013   12.6480 C   0  0  0  0  0  0  0  0  0  0  0  0
   47.3878    9.3445   12.5492 C   0  0  0  0  0  0  0  0  0  0  0  0
   48.5386    8.5888   12.7517 C   0  0  0  0  0  0  0  0  0  0  0  0
   45.2775    6.3072   12.2001 S   0  0  0  0  0  0  0  0  0  0  0  0
   44.9388    6.7084   13.5417 O   0  0  0  0  0  0  0  0  0  0  0  0
   44.4532    6.5760   11.0495 O   0  0  0  0  0  0  0  0  0  0  0  0
   46.7480    6.8805   11.9134 O   0  0  0  0  0  0  0  0  0  0  0  0
   45.5561    4.7275   12.1996 O   0  0  0  0  0  0  0  0  0  0  0  0
   45.3398    6.8669   12.0496 C   0  0  1  0  0  0  0  0  0  0  0  0
   44.8236    5.4950   11.6607 C   0  0  0  0  0  0  0  0  0  0  0  0
   46.8977    6.9743   12.0899 C   0  0  1  0  0  0  0  0  0  0  0  0
   47.3741    8.3774   12.2018 N   0  0  0  0  0  0  0  0  0  0  0  0
   44.8268    7.8367   11.1189 O   0  0  0  0  0  0  0  0  0  0  0  0
   44.1174    4.7156   12.5891 C   0  0  0  0  0  0  0  0  0  0  0  0
   45.0376    4.9805   10.3720 C   0  0  0  0  0  0  0  0  0  0  0  0
   47.1277    9.0000   13.4952 C   0  0  0  0  0  0  0  0  0  0  0  0
   47.5205    6.0588   13.1479 C   0  0  0  0  0  0  0  0  0  0  0  0
   43.6402    3.4517   12.2371 C   0  0  0  0  0  0  0  0  0  0  0  0
   44.5591    3.7170   10.0223 C   0  0  0  0  0  0  0  0  0  0  0  0
   43.8609    2.9532   10.9549 C   0  0  0  0  0  0  0  0  0  0  0  0
   44.3300    7.2881   10.9661 H   0  0  0  0  0  0  0  0  0  0  0  0
   45.5579    5.0216   10.6225 H   0  0  0  0  0  0  0  0  0  0  0  0
   43.9876    4.2547   13.0023 H   0  0  0  0  0  0  0  0  0  0  0  0
   44.3799    6.3777   13.6314 H   0  0  0  0  0  0  0  0  0  0  0  0
   47.2697    5.4813   12.2788 H   0  0  0  0  0  0  0  0  0  0  0  0
   45.2888    9.3138   12.0954 H   0  0  0  0  0  0  0  0  0  0  0  0
   44.5314    2.4335   11.5333 H   0  0  0  0  0  0  0  0  0  0  0  0
   46.2383    2.9442   11.6049 H   0  0  0  0  0  0  0  0  0  0  0  0
   45.4264    2.3478   13.0520 H   0  0  0  0  0  0  0  0  0  0  0  0
   43.2855    5.5673    9.7575 H   0  0  0  0  0  0  0  0  0  0  0  0
   42.5522    5.0345   11.2778 H   0  0  0  0  0  0  0  0  0  0  0  0
   43.3797    3.8731   10.2252 H   0  0  0  0  0  0  0  0  0  0  0  0
   49.3770    6.6078   12.8158 H   0  0  0  0  0  0  0  0  0  0  0  0
   47.4233   10.4269   12.6387 H   0  0  0  0  0  0  0  0  0  0  0  0
   49.4766    9.0791   12.9974 H   0  0  0  0  0  0  0  0  0  0  0  0
   47.2019    6.9568   12.7782 H   0  0  0  0  0  0  0  0  0  0  0  0
   45.5034    4.4250   11.2692 H   0  0  0  0  0  0  0  0  0  0  0  0
   44.9284    7.1416   13.0278 H   0  0  0  0  0  0  0  0  0  0  0  0
   47.2808    6.6414   11.1166 H   0  0  0  0  0  0  0  0  0  0  0  0
   46.8468    8.9042   11.4965 H   0  0  0  0  0  0  0  0  0  0  0  0
   43.9666    7.5042   10.8087 H   0  0  0  0  0  0  0  0  0  0  0  0
   43.9356    5.0847   13.5964 H   0  0  0  0  0  0  0  0  0  0  0  0
   45.5796    5.5664    9.6313 H   0  0  0  0  0  0  0  0  0  0  0  0
   47.4599   10.0426   13.4566 H   0  0  0  0  0  0  0  0  0  0  0  0
   47.6970    8.5165   14.2941 H   0  0  0  0  0  0  0  0  0  0  0  0
   46.0664    9.0056   13.7586 H   0  0  0  0  0  0  0  0  0  0  0  0
   47.1031    6.2425   14.1434 H   0  0  0  0  0  0  0  0  0  0  0  0
   48.6059    6.2019   13.1986 H   0  0  0  0  0  0  0  0  0  0  0  0
   47.3470    5.0054   12.9037 H   0  0  0  0  0  0  0  0  0  0  0  0
   43.0963    2.8542   12.9647 H   0  0  0  0  0  0  0  0  0  0  0  0
   44.7324    3.3288    9.0218 H   0  0  0  0  0  0  0  0  0  0  0  0
   43.4898    1.9684   10.6825 H   0  0  0  0  0  0  0  0  0  0  0  0
  2  1  1  0
  3  1  1  0
  4  3  1  0
  1  5  1  0
  6  2  2  0
  7  2  1  0
  8  4  1  0
  3  9  1  0
 10  6  1  0
 11  7  2  0
 12 10  2  0
 12 11  1  0
 14 13  2  0
 15 13  2  0
 16 13  1  0
 17 13  1  0
 19 18  1  0
 20 18  1  0
 21 20  1  0
 18 22  1  0
 23 19  2  0
 24 19  1  0
 25 21  1  0
 20 26  1  0
 27 23  1  0
 28 24  2  0
 29 27  2  0
 29 28  1  0
  1 30  1  6
  3 31  1  6
  4 32  1  0
  5 33  1  0
  6 34  1  0
  7 35  1  0
  8 36  1  0
  8 37  1  0
  8 38  1  0
  9 39  1  0
  9 40  1  0
  9 41  1  0
 10 42  1  0
 11 43  1  0
 12 44  1  0
 16 45  1  0
 17 46  1  0
 18 47  1  1
 20 48  1  6
 21 49  1  0
 22 50  1  0
 23 51  1  0
 24 52  1  0
 25 53  1  0
 25 54  1  0
 25 55  1  0
 26 56  1  0
 26 57  1  0
 26 58  1  0
 27 59  1  0
 28 60  1  0
 29 61  1  0
M  END
> <Uni-Dock RESULT> 
ENERGY=   -5.461  LOWER_BOUND=    0.000  UPPER_BOUND=    0.000
INTER + INTRA:          -5.461
INTER:                  -5.461
INTRA:                   0.000
UNBOUND:                 0.000

$$$$

     RDKit          3D

 61 60  0  0  0  0  0  0  0  0999 V2000
   45.7581    7.6212   11.8447 C   0  0  1  0  0  0  0  0  0  0  0  0
   44.8117    6.4853   12.1956 C   0  0  0  0  0  0  0  0  0  0  0  0
   46.9539    7.9066   12.8162 C   0  0  1  0  0  0  0  0  0  0  0  0
   48.0386    6.9120   12.6189 N   0  0  0  0  0  0  0  0  0  0  0  0
   46.2772    7.3666   10.5311 O   0  0  0  0  0  0  0  0  0  0  0  0
   45.0942    5.5053   13.1567 C   0  0  0  0  0  0  0  0  0  0  0  0
   43.5906    6.3978   11.5016 C   0  0  0  0  0  0  0  0  0  0  0  0
   48.9643    6.8586   13.7422 C   0  0  0  0  0  0  0  0  0  0  0  0
   47.4895    9.3236   12.5527 C   0  0  0  0  0  0  0  0  0  0  0  0
   44.1796    4.4833   13.4286 C   0  0  0  0  0  0  0  0  0  0  0  0
   42.6770    5.3775   11.7725 C   0  0  0  0  0  0  0  0  0  0  0  0
   42.9712    4.4210   12.7394 C   0  0  0  0  0  0  0  0  0  0  0  0
   46.0279    6.9484   12.0961 S   0  0  0  0  0  0  0  0  0  0  0  0
   46.2035    6.2069   10.8735 O   0  0  0  0  0  0  0  0  0  0  0  0
   45.7558    8.3623   12.1455 O   0  0  0  0  0  0  0  0  0  0  0  0
   44.8894    6.1850   12.9294 O   0  0  0  0  0  0  0  0  0  0  0  0
   47.3108    6.7005   13.0268 O   0  0  0  0  0  0  0  0  0  0  0  0
   45.4682    7.0379   11.9602 C   0  0  1  0  0  0  0  0  0  0  0  0
   46.7493    7.6214   12.5241 C   0  0  0  0  0  0  0  0  0  0  0  0
   44.8039    5.9575   12.8721 C   0  0  1  0  0  0  0  0  0  0  0  0
   43.4274    5.6056   12.4367 N   0  0  0  0  0  0  0  0  0  0  0  0
   44.5299    8.1058   11.7386 O   0  0  0  0  0  0  0  0  0  0  0  0
   47.9752    7.3879   11.8832 C   0  0  0  0  0  0  0  0  0  0  0  0
   46.7357    8.4042   13.6896 C   0  0  0  0  0  0  0  0  0  0  0  0
   43.3596    4.8454   11.1962 C   0  0  0  0  0  0  0  0  0  0  0  0
   45.6915    4.7237   13.0599 C   0  0  0  0  0  0  0  0  0  0  0  0
   49.1580    7.9219   12.3979 C   0  0  0  0  0  0  0  0  0  0  0  0
   47.9192    8.9375   14.2019 C   0  0  0  0  0  0  0  0  0  0  0  0
   49.1297    8.6960   13.5561 C   0  0  0  0  0  0  0  0  0  0  0  0
   45.1516    8.5338   11.7784 H   0  0  0  0  0  0  0  0  0  0  0  0
   46.5801    7.8694   13.8474 H   0  0  0  0  0  0  0  0  0  0  0  0
   48.5520    7.1547   11.7693 H   0  0  0  0  0  0  0  0  0  0  0  0
   46.7295    6.5069   10.6223 H   0  0  0  0  0  0  0  0  0  0  0  0
   46.0323    5.5104   13.7053 H   0  0  0  0  0  0  0  0  0  0  0  0
   43.3525    7.1311   10.7325 H   0  0  0  0  0  0  0  0  0  0  0  0
   49.5085    7.7974   13.8771 H   0  0  0  0  0  0  0  0  0  0  0  0
   48.4437    6.6083   14.6720 H   0  0  0  0  0  0  0  0  0  0  0  0
   49.7036    6.0720   13.5611 H   0  0  0  0  0  0  0  0  0  0  0  0
   46.6912   10.0643   12.6728 H   0  0  0  0  0  0  0  0  0  0  0  0
   47.8878    9.4234   11.5368 H   0  0  0  0  0  0  0  0  0  0  0  0
   48.2836    9.5928   13.2561 H   0  0  0  0  0  0  0  0  0  0  0  0
   44.4165    3.7315   14.1771 H   0  0  0  0  0  0  0  0  0  0  0  0
   41.7402    5.3286   11.2241 H   0  0  0  0  0  0  0  0  0  0  0  0
   42.2638    3.6239   12.9507 H   0  0  0  0  0  0  0  0  0  0  0  0
   44.9115    5.2450   12.6544 H   0  0  0  0  0  0  0  0  0  0  0  0
   47.3177    7.4085   13.7039 H   0  0  0  0  0  0  0  0  0  0  0  0
   45.6733    6.6079   10.9729 H   0  0  0  0  0  0  0  0  0  0  0  0
   44.6619    6.4009   13.8662 H   0  0  0  0  0  0  0  0  0  0  0  0
   42.9509    6.5009   12.2802 H   0  0  0  0  0  0  0  0  0  0  0  0
   45.0505    8.9037   11.5407 H   0  0  0  0  0  0  0  0  0  0  0  0
   48.0203    6.7846   10.9788 H   0  0  0  0  0  0  0  0  0  0  0  0
   45.7972    8.6038   14.2045 H   0  0  0  0  0  0  0  0  0  0  0  0
   42.3086    4.6882   10.9328 H   0  0  0  0  0  0  0  0  0  0  0  0
   43.8104    3.8546   11.3016 H   0  0  0  0  0  0  0  0  0  0  0  0
   43.8301    5.3706   10.3604 H   0  0  0  0  0  0  0  0  0  0  0  0
   45.9839    4.2816   12.1017 H   0  0  0  0  0  0  0  0  0  0  0  0
   45.1756    3.9569   13.6489 H   0  0  0  0  0  0  0  0  0  0  0  0
   46.6082    4.9808   13.6011 H   0  0  0  0  0  0  0  0  0  0  0  0
   50.1034    7.7329   11.8953 H   0  0  0  0  0  0  0  0  0  0  0  0
   47.8960    9.5409   15.1058 H   0  0  0  0  0  0  0  0  0  0  0  0
   50.0515    9.1103   13.9563 H   0  0  0  0  0  0  0  0  0  0  0  0
  2  1  1  0
  3  1  1  0
  4  3  1  0
  1  5  1  0
  6  2  2  0
  7  2  1  0
  8  4  1  0
  3  9  1  0
 10  6  1  0
 11  7  2  0
 12 10  2  0
 12 11  1  0
 14 13  2  0
 15 13  2  0
 16 13  1  0
 17 13  1  0
 19 18  1  0
 20 18  1  0
 21 20  1  0
 18 22  1  0
 23 19  2  0
 24 19  1  0
 25 21  1  0
 20 26  1  0
 27 23  1  0
 28 24  2  0
 29 27  2  0
 29 28  1  0
  1 30  1  6
  3 31  1  6
  4 32  1  0
  5 33  1  0
  6 34  1  0
  7 35  1  0
  8 36  1  0
  8 37  1  0
  8 38  1  0
  9 39  1  0
  9 40  1  0
  9 41  1  0
 10 42  1  0
 11 43  1  0
 12 44  1  0
 16 45  1  0
 17 46  1  0
 18 47  1  1
 20 48  1  6
 21 49  1  0
 22 50  1  0
 23 51  1  0
 24 52  1  0
 25 53  1  0
 25 54  1  0
 25 55  1  0
 26 56  1  0
 26 57  1  0
 26 58  1  0
 27 59  1  0
 28 60  1  0
 29 61  1  0
M  END
> <Uni-Dock RESULT> 
ENERGY=   -5.004  LOWER_BOUND=    1.300  UPPER_BOUND=    4.483
INTER + INTRA:          -5.004
INTER:                  -5.004
INTRA:                   0.000
UNBOUND:                 0.000

$$$$

     RDKit          3D

 61 60  0  0  0  0  0  0  0  0999 V2000
   47.5322    5.8797   19.6122 C   0  0  1  0  0  0  0  0  0  0  0  0
   47.8694    4.7929   18.6051 C   0  0  0  0  0  0  0  0  0  0  0  0
   48.2041    5.8044   21.0256 C   0  0  1  0  0  0  0  0  0  0  0  0
   49.6130    6.2692   20.9620 N   0  0  0  0  0  0  0  0  0  0  0  0
   47.8513    7.1441   19.0127 O   0  0  0  0  0  0  0  0  0  0  0  0
   48.9438    3.9046   18.7487 C   0  0  0  0  0  0  0  0  0  0  0  0
   47.0718    4.6843   17.4508 C   0  0  0  0  0  0  0  0  0  0  0  0
   50.4001    5.8382   22.1092 C   0  0  0  0  0  0  0  0  0  0  0  0
   47.4088    6.6794   22.0084 C   0  0  0  0  0  0  0  0  0  0  0  0
   49.2012    2.9288   17.7811 C   0  0  0  0  0  0  0  0  0  0  0  0
   47.3285    3.7102   16.4842 C   0  0  0  0  0  0  0  0  0  0  0  0
   48.3930    2.8297   16.6515 C   0  0  0  0  0  0  0  0  0  0  0  0
   48.2550    5.6391   19.5209 S   0  0  0  0  0  0  0  0  0  0  0  0
   48.7484    6.5184   18.4918 O   0  0  0  0  0  0  0  0  0  0  0  0
   47.0071    5.8348   20.2137 O   0  0  0  0  0  0  0  0  0  0  0  0
   48.2598    4.1619   18.8953 O   0  0  0  0  0  0  0  0  0  0  0  0
   49.3846    5.4997   20.6514 O   0  0  0  0  0  0  0  0  0  0  0  0
   47.8175    5.4773   19.1714 C   0  0  1  0  0  0  0  0  0  0  0  0
   48.2516    5.8554   20.5744 C   0  0  0  0  0  0  0  0  0  0  0  0
   48.3727    4.1020   18.6808 C   0  0  1  0  0  0  0  0  0  0  0  0
   47.7208    3.6321   17.4309 N   0  0  0  0  0  0  0  0  0  0  0  0
   46.3800    5.4470   19.1227 O   0  0  0  0  0  0  0  0  0  0  0  0
   49.0963    6.9563   20.7810 C   0  0  0  0  0  0  0  0  0  0  0  0
   47.8186    5.1187   21.6885 C   0  0  0  0  0  0  0  0  0  0  0  0
   48.0744    4.3923   16.2399 C   0  0  0  0  0  0  0  0  0  0  0  0
   49.9010    4.0883   18.5844 C   0  0  0  0  0  0  0  0  0  0  0  0
   49.4998    7.3089   22.0702 C   0  0  0  0  0  0  0  0  0  0  0  0
   48.2228    5.4735   22.9763 C   0  0  0  0  0  0  0  0  0  0  0  0
   49.0632    6.5681   23.1665 C   0  0  0  0  0  0  0  0  0  0  0  0
   46.4439    5.8577   19.7539 H   0  0  0  0  0  0  0  0  0  0  0  0
   48.1566    4.7660   21.3778 H   0  0  0  0  0  0  0  0  0  0  0  0
   49.6169    7.2899   20.9139 H   0  0  0  0  0  0  0  0  0  0  0  0
   48.8070    7.0788   18.8267 H   0  0  0  0  0  0  0  0  0  0  0  0
   49.6066    3.9589   19.6083 H   0  0  0  0  0  0  0  0  0  0  0  0
   46.2437    5.3751   17.2993 H   0  0  0  0  0  0  0  0  0  0  0  0
   50.0379    6.2683   23.0469 H   0  0  0  0  0  0  0  0  0  0  0  0
   50.4097    4.7469   22.1945 H   0  0  0  0  0  0  0  0  0  0  0  0
   51.4368    6.1633   21.9759 H   0  0  0  0  0  0  0  0  0  0  0  0
   46.3614    6.3599   22.0460 H   0  0  0  0  0  0  0  0  0  0  0  0
   47.4257    7.7351   21.7156 H   0  0  0  0  0  0  0  0  0  0  0  0
   47.8025    6.6037   23.0268 H   0  0  0  0  0  0  0  0  0  0  0  0
   50.0398    2.2489   17.9094 H   0  0  0  0  0  0  0  0  0  0  0  0
   46.7002    3.6446   15.6001 H   0  0  0  0  0  0  0  0  0  0  0  0
   48.5974    2.0723   15.8998 H   0  0  0  0  0  0  0  0  0  0  0  0
   48.9539    4.1432   18.2043 H   0  0  0  0  0  0  0  0  0  0  0  0
   48.9477    5.1474   21.4545 H   0  0  0  0  0  0  0  0  0  0  0  0
   48.1256    6.2659   18.4752 H   0  0  0  0  0  0  0  0  0  0  0  0
   48.0946    3.3448   19.4253 H   0  0  0  0  0  0  0  0  0  0  0  0
   46.7129    3.7467   17.5862 H   0  0  0  0  0  0  0  0  0  0  0  0
   46.0608    6.0952   19.7744 H   0  0  0  0  0  0  0  0  0  0  0  0
   49.4505    7.5472   19.9388 H   0  0  0  0  0  0  0  0  0  0  0  0
   47.1597    4.2620   21.5562 H   0  0  0  0  0  0  0  0  0  0  0  0
   47.5015    4.0077   15.3899 H   0  0  0  0  0  0  0  0  0  0  0  0
   49.1319    4.2796   15.9850 H   0  0  0  0  0  0  0  0  0  0  0  0
   47.8367    5.4550   16.3391 H   0  0  0  0  0  0  0  0  0  0  0  0
   50.2771    4.8963   17.9483 H   0  0  0  0  0  0  0  0  0  0  0  0
   50.2585    3.1357   18.1773 H   0  0  0  0  0  0  0  0  0  0  0  0
   50.3557    4.2049   19.5739 H   0  0  0  0  0  0  0  0  0  0  0  0
   50.1568    8.1622   22.2195 H   0  0  0  0  0  0  0  0  0  0  0  0
   47.8820    4.8945   23.8309 H   0  0  0  0  0  0  0  0  0  0  0  0
   49.3790    6.8431   24.1696 H   0  0  0  0  0  0  0  0  0  0  0  0
  2  1  1  0
  3  1  1  0
  4  3  1  0
  1  5  1  0
  6  2  2  0
  7  2  1  0
  8  4  1  0
  3  9  1  0
 10  6  1  0
 11  7  2  0
 12 10  2  0
 12 11  1  0
 14 13  2  0
 15 13  2  0
 16 13  1  0
 17 13  1  0
 19 18  1  0
 20 18  1  0
 21 20  1  0
 18 22  1  0
 23 19  2  0
 24 19  1  0
 25 21  1  0
 20 26  1  0
 27 23  1  0
 28 24  2  0
 29 27  2  0
 29 28  1  0
  1 30  1  6
  3 31  1  6
  4 32  1  0
  5 33  1  0
  6 34  1  0
  7 35  1  0
  8 36  1  0
  8 37  1  0
  8 38  1  0
  9 39  1  0
  9 40  1  0
  9 41  1  0
 10 42  1  0
 11 43  1  0
 12 44  1  0
 16 45  1  0
 17 46  1  0
 18 47  1  1
 20 48  1  6
 21 49  1  0
 22 50  1  0
 23 51  1  0
 24 52  1  0
 25 53  1  0
 25 54  1  0
 25 55  1  0
 26 56  1  0
 26 57  1  0
 26 58  1  0
 27 59  1  0
 28 60  1  0
 29 61  1  0
M  END
> <Uni-Dock RESULT> 
ENERGY=   -4.969  LOWER_BOUND=    7.178  UPPER_BOUND=    9.063
INTER + INTRA:          -4.969
INTER:                  -4.969
INTRA:                   0.000
UNBOUND:                 0.000

$$$$

     RDKit          3D

 61 60  0  0  0  0  0  0  0  0999 V2000
   47.8808    8.7099   20.1481 C   0  0  1  0  0  0  0  0  0  0  0  0
   47.7189    7.7207   21.2902 C   0  0  0  0  0  0  0  0  0  0  0  0
   47.4231   10.1891   20.3881 C   0  0  1  0  0  0  0  0  0  0  0  0
   48.4281   10.9242   21.1970 N   0  0  0  0  0  0  0  0  0  0  0  0
   49.2631    8.7080   19.7619 O   0  0  0  0  0  0  0  0  0  0  0  0
   47.4630    8.0970   22.6158 C   0  0  0  0  0  0  0  0  0  0  0  0
   47.8551    6.3489   21.0072 C   0  0  0  0  0  0  0  0  0  0  0  0
   47.8883   12.1351   21.8002 C   0  0  0  0  0  0  0  0  0  0  0  0
   47.2352   10.8845   19.0297 C   0  0  0  0  0  0  0  0  0  0  0  0
   47.3289    7.1345   23.6209 C   0  0  0  0  0  0  0  0  0  0  0  0
   47.7215    5.3874   22.0105 C   0  0  0  0  0  0  0  0  0  0  0  0
   47.4552    5.7811   23.3183 C   0  0  0  0  0  0  0  0  0  0  0  0
   48.0681    8.9047   20.8662 S   0  0  0  0  0  0  0  0  0  0  0  0
   49.4534    8.5168   20.9430 O   0  0  0  0  0  0  0  0  0  0  0  0
   47.3156    8.9563   19.6387 O   0  0  0  0  0  0  0  0  0  0  0  0
   47.2780    7.9714   21.9046 O   0  0  0  0  0  0  0  0  0  0  0  0
   47.9063   10.3428   21.5582 O   0  0  0  0  0  0  0  0  0  0  0  0
   47.9258    8.3618   20.7088 C   0  0  1  0  0  0  0  0  0  0  0  0
   47.7059    9.8470   20.4953 C   0  0  0  0  0  0  0  0  0  0  0  0
   47.3898    7.8276   22.0755 C   0  0  1  0  0  0  0  0  0  0  0  0
   47.3686    6.3434   22.1438 N   0  0  0  0  0  0  0  0  0  0  0  0
   47.2879    7.6397   19.6404 O   0  0  0  0  0  0  0  0  0  0  0  0
   48.8006   10.7217   20.4276 C   0  0  0  0  0  0  0  0  0  0  0  0
   46.4116   10.3740   20.3591 C   0  0  0  0  0  0  0  0  0  0  0  0
   48.6831    5.7212   22.2224 C   0  0  0  0  0  0  0  0  0  0  0  0
   48.1073    8.4582   23.2726 C   0  0  0  0  0  0  0  0  0  0  0  0
   48.6044   12.0900   20.2316 C   0  0  0  0  0  0  0  0  0  0  0  0
   46.2180   11.7420   20.1627 C   0  0  0  0  0  0  0  0  0  0  0  0
   47.3142   12.5994   20.0993 C   0  0  0  0  0  0  0  0  0  0  0  0
   47.3101    8.3133   19.2984 H   0  0  0  0  0  0  0  0  0  0  0  0
   46.4528   10.1736   20.9007 H   0  0  0  0  0  0  0  0  0  0  0  0
   49.2152   11.1696   20.5933 H   0  0  0  0  0  0  0  0  0  0  0  0
   49.7316    8.9810   20.5731 H   0  0  0  0  0  0  0  0  0  0  0  0
   47.3724    9.1433   22.8952 H   0  0  0  0  0  0  0  0  0  0  0  0
   48.0771    6.0264   19.9910 H   0  0  0  0  0  0  0  0  0  0  0  0
   47.5835   12.8718   21.0519 H   0  0  0  0  0  0  0  0  0  0  0  0
   47.0361   11.9078   22.4486 H   0  0  0  0  0  0  0  0  0  0  0  0
   48.6580   12.5989   22.4251 H   0  0  0  0  0  0  0  0  0  0  0  0
   46.5123   10.3371   18.4148 H   0  0  0  0  0  0  0  0  0  0  0  0
   48.1754   10.9404   18.4699 H   0  0  0  0  0  0  0  0  0  0  0  0
   46.8493   11.9020   19.1466 H   0  0  0  0  0  0  0  0  0  0  0  0
   47.1312    7.4455   24.6436 H   0  0  0  0  0  0  0  0  0  0  0  0
   47.8311    4.3335   21.7697 H   0  0  0  0  0  0  0  0  0  0  0  0
   47.3535    5.0356   24.1021 H   0  0  0  0  0  0  0  0  0  0  0  0
   47.9152    7.7114   22.6018 H   0  0  0  0  0  0  0  0  0  0  0  0
   47.0513   10.7141   21.2567 H   0  0  0  0  0  0  0  0  0  0  0  0
   48.9963    8.1412   20.6240 H   0  0  0  0  0  0  0  0  0  0  0  0
   46.3323    8.1114   22.1534 H   0  0  0  0  0  0  0  0  0  0  0  0
   46.9288    6.0339   21.2698 H   0  0  0  0  0  0  0  0  0  0  0  0
   47.3066    8.2173   18.8576 H   0  0  0  0  0  0  0  0  0  0  0  0
   49.8163   10.3453   20.5304 H   0  0  0  0  0  0  0  0  0  0  0  0
   45.5449    9.7165   20.4042 H   0  0  0  0  0  0  0  0  0  0  0  0
   48.5625    4.6331   22.2093 H   0  0  0  0  0  0  0  0  0  0  0  0
   49.1958    5.9710   23.1556 H   0  0  0  0  0  0  0  0  0  0  0  0
   49.3211    5.9887   21.3755 H   0  0  0  0  0  0  0  0  0  0  0  0
   49.1925    8.3253   23.2143 H   0  0  0  0  0  0  0  0  0  0  0  0
   47.7573    8.0191   24.2137 H   0  0  0  0  0  0  0  0  0  0  0  0
   47.9062    9.5334   23.3262 H   0  0  0  0  0  0  0  0  0  0  0  0
   49.4593   12.7600   20.1834 H   0  0  0  0  0  0  0  0  0  0  0  0
   45.2110   12.1385   20.0602 H   0  0  0  0  0  0  0  0  0  0  0  0
   47.1629   13.6651   19.9479 H   0  0  0  0  0  0  0  0  0  0  0  0
  2  1  1  0
  3  1  1  0
  4  3  1  0
  1  5  1  0
  6  2  2  0
  7  2  1  0
  8  4  1  0
  3  9  1  0
 10  6  1  0
 11  7  2  0
 12 10  2  0
 12 11  1  0
 14 13  2  0
 15 13  2  0
 16 13  1  0
 17 13  1  0
 19 18  1  0
 20 18  1  0
 21 20  1  0
 18 22  1  0
 23 19  2  0
 24 19  1  0
 25 21  1  0
 20 26  1  0
 27 23  1  0
 28 24  2  0
 29 27  2  0
 29 28  1  0
  1 30  1  6
  3 31  1  6
  4 32  1  0
  5 33  1  0
  6 34  1  0
  7 35  1  0
  8 36  1  0
  8 37  1  0
  8 38  1  0
  9 39  1  0
  9 40  1  0
  9 41  1  0
 10 42  1  0
 11 43  1  0
 12 44  1  0
 16 45  1  0
 17 46  1  0
 18 47  1  1
 20 48  1  6
 21 49  1  0
 22 50  1  0
 23 51  1  0
 24 52  1  0
 25 53  1  0
 25 54  1  0
 25 55  1  0
 26 56  1  0
 26 57  1  0
 26 58  1  0
 27 59  1  0
 28 60  1  0
 29 61  1  0
M  END
> <Uni-Dock RESULT> 
ENERGY=   -4.790  LOWER_BOUND=    8.849  UPPER_BOUND=   10.612
INTER + INTRA:          -4.790
INTER:                  -4.790
INTRA:                   0.000
UNBOUND:                 0.000

$$$$

     RDKit          3D

 61 60  0  0  0  0  0  0  0  0999 V2000
   41.9841   10.5749   10.8648 C   0  0  1  0  0  0  0  0  0  0  0  0
   40.4808   10.7148   10.6935 C   0  0  0  0  0  0  0  0  0  0  0  0
   42.9113   11.3172    9.8429 C   0  0  1  0  0  0  0  0  0  0  0  0
   42.9874   12.7658   10.1602 N   0  0  0  0  0  0  0  0  0  0  0  0
   42.3143   11.0091   12.1923 O   0  0  0  0  0  0  0  0  0  0  0  0
   39.8768   11.6793    9.8756 C   0  0  0  0  0  0  0  0  0  0  0  0
   39.6446    9.8412   11.4134 C   0  0  0  0  0  0  0  0  0  0  0  0
   43.4694   13.5626    9.0403 C   0  0  0  0  0  0  0  0  0  0  0  0
   44.3168   10.6960    9.8949 C   0  0  0  0  0  0  0  0  0  0  0  0
   38.4851   11.7562    9.7660 C   0  0  0  0  0  0  0  0  0  0  0  0
   38.2549    9.9177   11.3044 C   0  0  0  0  0  0  0  0  0  0  0  0
   37.6750   10.8747   10.4772 C   0  0  0  0  0  0  0  0  0  0  0  0
   41.6684   11.2559   10.7063 S   0  0  0  0  0  0  0  0  0  0  0  0
   41.4043   11.7896   12.0182 O   0  0  0  0  0  0  0  0  0  0  0  0
   42.4727   10.0858   10.4626 O   0  0  0  0  0  0  0  0  0  0  0  0
   40.2400   11.0420   10.0082 O   0  0  0  0  0  0  0  0  0  0  0  0
   42.2839   12.4266    9.7985 O   0  0  0  0  0  0  0  0  0  0  0  0
   41.3563   10.7815   10.8376 C   0  0  1  0  0  0  0  0  0  0  0  0
   42.5998   11.3430   10.1756 C   0  0  0  0  0  0  0  0  0  0  0  0
   40.0259   11.1335   10.0984 C   0  0  1  0  0  0  0  0  0  0  0  0
   38.8652   10.3543   10.6022 N   0  0  0  0  0  0  0  0  0  0  0  0
   41.4814    9.3507   10.9221 O   0  0  0  0  0  0  0  0  0  0  0  0
   43.3625   12.3269   10.8224 C   0  0  0  0  0  0  0  0  0  0  0  0
   43.0125   10.8918    8.9118 C   0  0  0  0  0  0  0  0  0  0  0  0
   38.4200   10.7251   11.9384 C   0  0  0  0  0  0  0  0  0  0  0  0
   39.7519   12.6400   10.0717 C   0  0  0  0  0  0  0  0  0  0  0  0
   44.5079   12.8481   10.2178 C   0  0  0  0  0  0  0  0  0  0  0  0
   44.1582   11.4138    8.3096 C   0  0  0  0  0  0  0  0  0  0  0  0
   44.9051   12.3918    8.9626 C   0  0  0  0  0  0  0  0  0  0  0  0
   42.2135    9.5026   10.8120 H   0  0  0  0  0  0  0  0  0  0  0  0
   42.5080   11.1646    8.8336 H   0  0  0  0  0  0  0  0  0  0  0  0
   43.6130   12.8915   10.9583 H   0  0  0  0  0  0  0  0  0  0  0  0
   42.0118   11.9365   12.2157 H   0  0  0  0  0  0  0  0  0  0  0  0
   40.4735   12.3948    9.3161 H   0  0  0  0  0  0  0  0  0  0  0  0
   40.0835    9.0961   12.0752 H   0  0  0  0  0  0  0  0  0  0  0  0
   44.4979   13.3134    8.7653 H   0  0  0  0  0  0  0  0  0  0  0  0
   42.8244   13.4439    8.1640 H   0  0  0  0  0  0  0  0  0  0  0  0
   43.4497   14.6212    9.3180 H   0  0  0  0  0  0  0  0  0  0  0  0
   44.2699    9.6217    9.6850 H   0  0  0  0  0  0  0  0  0  0  0  0
   44.7798   10.8240   10.8797 H   0  0  0  0  0  0  0  0  0  0  0  0
   44.9823   11.1387    9.1473 H   0  0  0  0  0  0  0  0  0  0  0  0
   38.0345   12.5116    9.1271 H   0  0  0  0  0  0  0  0  0  0  0  0
   37.6280    9.2334   11.8698 H   0  0  0  0  0  0  0  0  0  0  0  0
   36.5937   10.9389   10.3924 H   0  0  0  0  0  0  0  0  0  0  0  0
   39.6217   11.6854   10.4126 H   0  0  0  0  0  0  0  0  0  0  0  0
   42.7132   11.9996    9.0283 H   0  0  0  0  0  0  0  0  0  0  0  0
   41.3065   11.1408   11.8721 H   0  0  0  0  0  0  0  0  0  0  0  0
   40.1285   10.8107    9.0543 H   0  0  0  0  0  0  0  0  0  0  0  0
   39.1833    9.3792   10.6388 H   0  0  0  0  0  0  0  0  0  0  0  0
   42.4313    9.1534   10.9968 H   0  0  0  0  0  0  0  0  0  0  0  0
   43.0691   12.6989   11.8019 H   0  0  0  0  0  0  0  0  0  0  0  0
   42.4406   10.1263    8.3898 H   0  0  0  0  0  0  0  0  0  0  0  0
   37.6048   10.0589   12.2389 H   0  0  0  0  0  0  0  0  0  0  0  0
   38.0222   11.7435   11.9662 H   0  0  0  0  0  0  0  0  0  0  0  0
   39.2139   10.6256   12.6838 H   0  0  0  0  0  0  0  0  0  0  0  0
   39.7513   13.0727   11.0775 H   0  0  0  0  0  0  0  0  0  0  0  0
   38.7833   12.8529    9.6054 H   0  0  0  0  0  0  0  0  0  0  0  0
   40.5127   13.1649    9.4843 H   0  0  0  0  0  0  0  0  0  0  0  0
   45.0907   13.6124   10.7261 H   0  0  0  0  0  0  0  0  0  0  0  0
   44.4669   11.0574    7.3302 H   0  0  0  0  0  0  0  0  0  0  0  0
   45.7965   12.7992    8.4926 H   0  0  0  0  0  0  0  0  0  0  0  0
  2  1  1  0
  3  1  1  0
  4  3  1  0
  1  5  1  0
  6  2  2  0
  7  2  1  0
  8  4  1  0
  3  9  1  0
 10  6  1  0
 11  7  2  0
 12 10  2  0
 12 11  1  0
 14 13  2  0
 15 13  2  0
 16 13  1  0
 17 13  1  0
 19 18  1  0
 20 18  1  0
 21 20  1  0
 18 22  1  0
 23 19  2  0
 24 19  1  0
 25 21  1  0
 20 26  1  0
 27 23  1  0
 28 24  2  0
 29 27  2  0
 29 28  1  0
  1 30  1  6
  3 31  1  6
  4 32  1  0
  5 33  1  0
  6 34  1  0
  7 35  1  0
  8 36  1  0
  8 37  1  0
  8 38  1  0
  9 39  1  0
  9 40  1  0
  9 41  1  0
 10 42  1  0
 11 43  1  0
 12 44  1  0
 16 45  1  0
 17 46  1  0
 18 47  1  1
 20 48  1  6
 21 49  1  0
 22 50  1  0
 23 51  1  0
 24 52  1  0
 25 53  1  0
 25 54  1  0
 25 55  1  0
 26 56  1  0
 26 57  1  0
 26 58  1  0
 27 59  1  0
 28 60  1  0
 29 61  1  0
M  END
> <Uni-Dock RESULT> 
ENERGY=   -4.780  LOWER_BOUND=    6.011  UPPER_BOUND=    8.022
INTER + INTRA:          -4.780
INTER:                  -4.780
INTRA:                   0.000
UNBOUND:                 0.000

$$$$

     RDKit          3D

 61 60  0  0  0  0  0  0  0  0999 V2000
   48.5391    4.8923   20.7909 C   0  0  1  0  0  0  0  0  0  0  0  0
   48.0904    6.1440   21.5266 C   0  0  0  0  0  0  0  0  0  0  0  0
   48.3579    4.8510   19.2351 C   0  0  1  0  0  0  0  0  0  0  0  0
   49.4127    5.6514   18.5630 N   0  0  0  0  0  0  0  0  0  0  0  0
   49.9228    4.6749   21.1036 O   0  0  0  0  0  0  0  0  0  0  0  0
   47.7988    7.3584   20.8908 C   0  0  0  0  0  0  0  0  0  0  0  0
   47.9820    6.0892   22.9286 C   0  0  0  0  0  0  0  0  0  0  0  0
   49.0678    5.9976   17.1909 C   0  0  0  0  0  0  0  0  0  0  0  0
   48.4264    3.3907   18.7589 C   0  0  0  0  0  0  0  0  0  0  0  0
   47.3944    8.4748   21.6290 C   0  0  0  0  0  0  0  0  0  0  0  0
   47.5783    7.2037   23.6662 C   0  0  0  0  0  0  0  0  0  0  0  0
   47.2814    8.3969   23.0147 C   0  0  0  0  0  0  0  0  0  0  0  0
   48.6978    5.5897   20.5130 S   0  0  0  0  0  0  0  0  0  0  0  0
   49.9697    5.8853   21.1215 O   0  0  0  0  0  0  0  0  0  0  0  0
   48.0785    4.2891   20.5386 O   0  0  0  0  0  0  0  0  0  0  0  0
   47.6552    6.6577   21.1008 O   0  0  0  0  0  0  0  0  0  0  0  0
   48.7588    6.0328   18.9725 O   0  0  0  0  0  0  0  0  0  0  0  0
   48.4672    5.5006   21.0409 C   0  0  1  0  0  0  0  0  0  0  0  0
   48.5586    5.0409   19.5986 C   0  0  0  0  0  0  0  0  0  0  0  0
   47.7217    6.8602   21.2310 C   0  0  1  0  0  0  0  0  0  0  0  0
   47.4074    7.1490   22.6542 N   0  0  0  0  0  0  0  0  0  0  0  0
   47.7960    4.4864   21.8095 O   0  0  0  0  0  0  0  0  0  0  0  0
   49.8038    4.9701   18.9563 C   0  0  0  0  0  0  0  0  0  0  0  0
   47.4078    4.6766   18.8815 C   0  0  0  0  0  0  0  0  0  0  0  0
   48.5645    7.4736   23.4770 C   0  0  0  0  0  0  0  0  0  0  0  0
   48.4417    8.0238   20.5431 C   0  0  0  0  0  0  0  0  0  0  0  0
   49.8943    4.5482   17.6286 C   0  0  0  0  0  0  0  0  0  0  0  0
   47.5008    4.2546   17.5545 C   0  0  0  0  0  0  0  0  0  0  0  0
   48.7438    4.1908   16.9286 C   0  0  0  0  0  0  0  0  0  0  0  0
   47.9778    4.0515   21.2188 H   0  0  0  0  0  0  0  0  0  0  0  0
   47.3624    5.2433   18.9909 H   0  0  0  0  0  0  0  0  0  0  0  0
   50.2816    5.1135   18.5675 H   0  0  0  0  0  0  0  0  0  0  0  0
   50.3636    5.4846   20.7839 H   0  0  0  0  0  0  0  0  0  0  0  0
   47.8891    7.4641   19.8130 H   0  0  0  0  0  0  0  0  0  0  0  0
   48.2242    5.1664   23.4536 H   0  0  0  0  0  0  0  0  0  0  0  0
   48.9774    5.1162   16.5501 H   0  0  0  0  0  0  0  0  0  0  0  0
   48.1350    6.5689   17.1498 H   0  0  0  0  0  0  0  0  0  0  0  0
   49.8560    6.6308   16.7714 H   0  0  0  0  0  0  0  0  0  0  0  0
   47.6669    2.7854   19.2661 H   0  0  0  0  0  0  0  0  0  0  0  0
   49.4044    2.9425   18.9668 H   0  0  0  0  0  0  0  0  0  0  0  0
   48.2365    3.3067   17.6843 H   0  0  0  0  0  0  0  0  0  0  0  0
   47.1731    9.4086   21.1183 H   0  0  0  0  0  0  0  0  0  0  0  0
   47.5019    7.1393   24.7482 H   0  0  0  0  0  0  0  0  0  0  0  0
   46.9699    9.2671   23.5859 H   0  0  0  0  0  0  0  0  0  0  0  0
   48.1672    7.4557   21.3472 H   0  0  0  0  0  0  0  0  0  0  0  0
   48.0213    5.5810   18.5123 H   0  0  0  0  0  0  0  0  0  0  0  0
   49.4777    5.5755   21.4589 H   0  0  0  0  0  0  0  0  0  0  0  0
   46.7366    6.7704   20.7551 H   0  0  0  0  0  0  0  0  0  0  0  0
   46.9930    6.2865   23.0251 H   0  0  0  0  0  0  0  0  0  0  0  0
   47.9938    3.6329   21.3863 H   0  0  0  0  0  0  0  0  0  0  0  0
   50.7145    5.2465   19.4837 H   0  0  0  0  0  0  0  0  0  0  0  0
   46.4294    4.7190   19.3575 H   0  0  0  0  0  0  0  0  0  0  0  0
   48.2368    7.6110   24.5126 H   0  0  0  0  0  0  0  0  0  0  0  0
   49.0333    8.4118   23.1669 H   0  0  0  0  0  0  0  0  0  0  0  0
   49.3130    6.6763   23.4750 H   0  0  0  0  0  0  0  0  0  0  0  0
   49.4815    8.1133   20.8742 H   0  0  0  0  0  0  0  0  0  0  0  0
   47.9333    8.9731   20.7465 H   0  0  0  0  0  0  0  0  0  0  0  0
   48.4491    7.8905   19.4561 H   0  0  0  0  0  0  0  0  0  0  0  0
   50.8638    4.4994   17.1389 H   0  0  0  0  0  0  0  0  0  0  0  0
   46.6025    3.9765   17.0091 H   0  0  0  0  0  0  0  0  0  0  0  0
   48.8156    3.8636   15.8945 H   0  0  0  0  0  0  0  0  0  0  0  0
  2  1  1  0
  3  1  1  0
  4  3  1  0
  1  5  1  0
  6  2  2  0
  7  2  1  0
  8  4  1  0
  3  9  1  0
 10  6  1  0
 11  7  2  0
 12 10  2  0
 12 11  1  0
 14 13  2  0
 15 13  2  0
 16 13  1  0
 17 13  1  0
 19 18  1  0
 20 18  1  0
 21 20  1  0
 18 22  1  0
 23 19  2  0
 24 19  1  0
 25 21  1  0
 20 26  1  0
 27 23  1  0
 28 24  2  0
 29 27  2  0
 29 28  1  0
  1 30  1  6
  3 31  1  6
  4 32  1  0
  5 33  1  0
  6 34  1  0
  7 35  1  0
  8 36  1  0
  8 37  1  0
  8 38  1  0
  9 39  1  0
  9 40  1  0
  9 41  1  0
 10 42  1  0
 11 43  1  0
 12 44  1  0
 16 45  1  0
 17 46  1  0
 18 47  1  1
 20 48  1  6
 21 49  1  0
 22 50  1  0
 23 51  1  0
 24 52  1  0
 25 53  1  0
 25 54  1  0
 25 55  1  0
 26 56  1  0
 26 57  1  0
 26 58  1  0
 27 59  1  0
 28 60  1  0
 29 61  1  0
M  END
> <Uni-Dock RESULT> 
ENERGY=   -4.404  LOWER_BOUND=    7.854  UPPER_BOUND=    9.324
INTER + INTRA:          -4.404
INTER:                  -4.404
INTRA:                   0.000
UNBOUND:                 0.000

$$$$

     RDKit          3D

 61 60  0  0  0  0  0  0  0  0999 V2000
   40.7276   14.0238   13.4041 C   0  0  1  0  0  0  0  0  0  0  0  0
   42.0246   14.7940   13.5877 C   0  0  0  0  0  0  0  0  0  0  0  0
   39.9036   13.6582   14.6857 C   0  0  1  0  0  0  0  0  0  0  0  0
   39.1569   14.8410   15.1841 N   0  0  0  0  0  0  0  0  0  0  0  0
   39.8929   14.7806   12.5151 O   0  0  0  0  0  0  0  0  0  0  0  0
   42.3835   15.4422   14.7773 C   0  0  0  0  0  0  0  0  0  0  0  0
   42.9075   14.8811   12.4953 C   0  0  0  0  0  0  0  0  0  0  0  0
   38.7248   14.6919   16.5670 C   0  0  0  0  0  0  0  0  0  0  0  0
   38.9216   12.5248   14.3464 C   0  0  0  0  0  0  0  0  0  0  0  0
   43.5920   16.1380   14.8779 C   0  0  0  0  0  0  0  0  0  0  0  0
   44.1143   15.5758   12.5952 C   0  0  0  0  0  0  0  0  0  0  0  0
   44.4578   16.2024   13.7892 C   0  0  0  0  0  0  0  0  0  0  0  0
   40.7679   14.6153   13.8911 S   0  0  0  0  0  0  0  0  0  0  0  0
   40.4133   15.7328   13.0539 O   0  0  0  0  0  0  0  0  0  0  0  0
   40.6152   13.2376   13.4984 O   0  0  0  0  0  0  0  0  0  0  0  0
   42.2913   14.8482   14.3365 O   0  0  0  0  0  0  0  0  0  0  0  0
   40.0078   14.7737   15.2949 O   0  0  0  0  0  0  0  0  0  0  0  0
   41.1963   14.4756   13.5215 C   0  0  1  0  0  0  0  0  0  0  0  0
   40.0710   13.9811   14.4096 C   0  0  0  0  0  0  0  0  0  0  0  0
   42.4148   15.0626   14.3032 C   0  0  1  0  0  0  0  0  0  0  0  0
   43.6013   15.2832   13.4363 N   0  0  0  0  0  0  0  0  0  0  0  0
   41.6489   13.3873   12.6964 O   0  0  0  0  0  0  0  0  0  0  0  0
   38.8256   14.6269   14.3991 C   0  0  0  0  0  0  0  0  0  0  0  0
   40.2493   12.8730   15.2532 C   0  0  0  0  0  0  0  0  0  0  0  0
   43.4640   16.3800   12.4880 C   0  0  0  0  0  0  0  0  0  0  0  0
   42.0446   16.3068   15.1159 C   0  0  0  0  0  0  0  0  0  0  0  0
   37.7859   14.1766   15.2148 C   0  0  0  0  0  0  0  0  0  0  0  0
   39.2083   12.4243   16.0673 C   0  0  0  0  0  0  0  0  0  0  0  0
   37.9774   13.0763   16.0479 C   0  0  0  0  0  0  0  0  0  0  0  0
   40.9813   13.0890   12.8875 H   0  0  0  0  0  0  0  0  0  0  0  0
   40.5980   13.2902   15.4518 H   0  0  0  0  0  0  0  0  0  0  0  0
   38.3392   14.9842   14.5882 H   0  0  0  0  0  0  0  0  0  0  0  0
   39.7702   15.6306   12.9784 H   0  0  0  0  0  0  0  0  0  0  0  0
   41.7286   15.4279   15.6444 H   0  0  0  0  0  0  0  0  0  0  0  0
   42.6460   14.4074   11.5502 H   0  0  0  0  0  0  0  0  0  0  0  0
   38.0096   13.8744   16.6930 H   0  0  0  0  0  0  0  0  0  0  0  0
   39.5783   14.5283   17.2325 H   0  0  0  0  0  0  0  0  0  0  0  0
   38.2318   15.6141   16.8905 H   0  0  0  0  0  0  0  0  0  0  0  0
   39.4601   11.6543   13.9555 H   0  0  0  0  0  0  0  0  0  0  0  0
   38.1923   12.8340   13.5895 H   0  0  0  0  0  0  0  0  0  0  0  0
   38.3709   12.1890   15.2307 H   0  0  0  0  0  0  0  0  0  0  0  0
   43.8530   16.6353   15.8087 H   0  0  0  0  0  0  0  0  0  0  0  0
   44.7809   15.6309   11.7388 H   0  0  0  0  0  0  0  0  0  0  0  0
   45.3948   16.7465   13.8695 H   0  0  0  0  0  0  0  0  0  0  0  0
   42.4528   15.8142   14.3188 H   0  0  0  0  0  0  0  0  0  0  0  0
   40.0241   13.8975   15.7329 H   0  0  0  0  0  0  0  0  0  0  0  0
   40.8042   15.2327   12.8326 H   0  0  0  0  0  0  0  0  0  0  0  0
   42.7489   14.3022   15.0209 H   0  0  0  0  0  0  0  0  0  0  0  0
   43.7133   14.4170   12.8973 H   0  0  0  0  0  0  0  0  0  0  0  0
   40.8833   12.8046   12.5512 H   0  0  0  0  0  0  0  0  0  0  0  0
   38.6553   15.4891   13.7576 H   0  0  0  0  0  0  0  0  0  0  0  0
   41.2048   12.3514   15.2779 H   0  0  0  0  0  0  0  0  0  0  0  0
   44.3608   16.4224   11.8615 H   0  0  0  0  0  0  0  0  0  0  0  0
   43.3857   17.3467   12.9933 H   0  0  0  0  0  0  0  0  0  0  0  0
   42.6068   16.2488   11.8217 H   0  0  0  0  0  0  0  0  0  0  0  0
   41.5877   17.0813   14.4911 H   0  0  0  0  0  0  0  0  0  0  0  0
   42.9294   16.7343   15.6011 H   0  0  0  0  0  0  0  0  0  0  0  0
   41.3328   16.0571   15.9098 H   0  0  0  0  0  0  0  0  0  0  0  0
   36.8253   14.6857   15.2014 H   0  0  0  0  0  0  0  0  0  0  0  0
   39.3589   11.5661   16.7173 H   0  0  0  0  0  0  0  0  0  0  0  0
   37.1674   12.7275   16.6834 H   0  0  0  0  0  0  0  0  0  0  0  0
  2  1  1  0
  3  1  1  0
  4  3  1  0
  1  5  1  0
  6  2  2  0
  7  2  1  0
  8  4  1  0
  3  9  1  0
 10  6  1  0
 11  7  2  0
 12 10  2  0
 12 11  1  0
 14 13  2  0
 15 13  2  0
 16 13  1  0
 17 13  1  0
 19 18  1  0
 20 18  1  0
 21 20  1  0
 18 22  1  0
 23 19  2  0
 24 19  1  0
 25 21  1  0
 20 26  1  0
 27 23  1  0
 28 24  2  0
 29 27  2  0
 29 28  1  0
  1 30  1  6
  3 31  1  6
  4 32  1  0
  5 33  1  0
  6 34  1  0
  7 35  1  0
  8 36  1  0
  8 37  1  0
  8 38  1  0
  9 39  1  0
  9 40  1  0
  9 41  1  0
 10 42  1  0
 11 43  1  0
 12 44  1  0
 16 45  1  0
 17 46  1  0
 18 47  1  1
 20 48  1  6
 21 49  1  0
 22 50  1  0
 23 51  1  0
 24 52  1  0
 25 53  1  0
 25 54  1  0
 25 55  1  0
 26 56  1  0
 26 57  1  0
 26 58  1  0
 27 59  1  0
 28 60  1  0
 29 61  1  0
M  END
> <Uni-Dock RESULT> 
ENERGY=   -4.363  LOWER_BOUND=    9.090  UPPER_BOUND=   10.076
INTER + INTRA:          -4.363
INTER:                  -4.363
INTRA:                   0.000
UNBOUND:                 0.000

$$$$

     RDKit          3D

 61 60  0  0  0  0  0  0  0  0999 V2000
   50.8743    3.9565   18.0396 C   0  0  1  0  0  0  0  0  0  0  0  0
   51.4909    4.3836   19.3611 C   0  0  0  0  0  0  0  0  0  0  0  0
   49.3117    3.8913   17.9460 C   0  0  1  0  0  0  0  0  0  0  0  0
   48.7379    5.2530   17.7992 N   0  0  0  0  0  0  0  0  0  0  0  0
   51.3643    4.8431   17.0228 O   0  0  0  0  0  0  0  0  0  0  0  0
   50.7688    4.9926   20.3964 C   0  0  0  0  0  0  0  0  0  0  0  0
   52.8700    4.1768   19.5500 C   0  0  0  0  0  0  0  0  0  0  0  0
   47.3193    5.3041   18.1256 C   0  0  0  0  0  0  0  0  0  0  0  0
   48.9153    3.0242   16.7397 C   0  0  0  0  0  0  0  0  0  0  0  0
   51.3994    5.3651   21.5873 C   0  0  0  0  0  0  0  0  0  0  0  0
   53.5002    4.5487   20.7389 C   0  0  0  0  0  0  0  0  0  0  0  0
   52.7629    5.1409   21.7597 C   0  0  0  0  0  0  0  0  0  0  0  0
   50.5862    4.5477   18.4348 S   0  0  0  0  0  0  0  0  0  0  0  0
   51.3320    5.6643   17.9129 O   0  0  0  0  0  0  0  0  0  0  0  0
   50.5955    3.2317   17.8485 O   0  0  0  0  0  0  0  0  0  0  0  0
   50.9916    4.4150   19.9812 O   0  0  0  0  0  0  0  0  0  0  0  0
   49.0461    4.9798   18.5550 O   0  0  0  0  0  0  0  0  0  0  0  0
   51.0853    4.2816   18.5757 C   0  0  1  0  0  0  0  0  0  0  0  0
   49.6879    4.1437   18.0029 C   0  0  0  0  0  0  0  0  0  0  0  0
   51.1195    4.5888   20.1070 C   0  0  1  0  0  0  0  0  0  0  0  0
   52.4785    4.4480   20.6910 N   0  0  0  0  0  0  0  0  0  0  0  0
   51.8116    3.0652   18.3252 O   0  0  0  0  0  0  0  0  0  0  0  0
   49.2073    5.0814   17.0768 C   0  0  0  0  0  0  0  0  0  0  0  0
   48.8524    3.0810   18.3825 C   0  0  0  0  0  0  0  0  0  0  0  0
   53.4213    5.4829   20.2893 C   0  0  0  0  0  0  0  0  0  0  0  0
   50.4723    5.9341   20.4488 C   0  0  0  0  0  0  0  0  0  0  0  0
   47.9216    4.9601   16.5463 C   0  0  0  0  0  0  0  0  0  0  0  0
   47.5678    2.9615   17.8505 C   0  0  0  0  0  0  0  0  0  0  0  0
   47.1029    3.9010   16.9330 C   0  0  0  0  0  0  0  0  0  0  0  0
   51.2684    2.9577   17.8109 H   0  0  0  0  0  0  0  0  0  0  0  0
   48.9292    3.4080   18.8540 H   0  0  0  0  0  0  0  0  0  0  0  0
   48.8739    5.5611   16.8345 H   0  0  0  0  0  0  0  0  0  0  0  0
   51.0641    5.7235   17.3176 H   0  0  0  0  0  0  0  0  0  0  0  0
   49.7065    5.1982   20.2950 H   0  0  0  0  0  0  0  0  0  0  0  0
   53.4627    3.7270   18.7549 H   0  0  0  0  0  0  0  0  0  0  0  0
   46.7137    4.7035   17.4416 H   0  0  0  0  0  0  0  0  0  0  0  0
   47.1377    4.9717   19.1526 H   0  0  0  0  0  0  0  0  0  0  0  0
   46.9711    6.3392   18.0522 H   0  0  0  0  0  0  0  0  0  0  0  0
   49.3528    2.0234   16.8259 H   0  0  0  0  0  0  0  0  0  0  0  0
   49.2621    3.4602   15.7962 H   0  0  0  0  0  0  0  0  0  0  0  0
   47.8305    2.8941   16.6745 H   0  0  0  0  0  0  0  0  0  0  0  0
   50.8229    5.8371   22.3790 H   0  0  0  0  0  0  0  0  0  0  0  0
   54.5665    4.3802   20.8633 H   0  0  0  0  0  0  0  0  0  0  0  0
   53.2508    5.4343   22.6851 H   0  0  0  0  0  0  0  0  0  0  0  0
   51.2619    5.3059   20.2863 H   0  0  0  0  0  0  0  0  0  0  0  0
   48.5201    4.1569   18.6326 H   0  0  0  0  0  0  0  0  0  0  0  0
   51.6203    5.0690   18.0323 H   0  0  0  0  0  0  0  0  0  0  0  0
   50.5309    3.8147   20.6162 H   0  0  0  0  0  0  0  0  0  0  0  0
   52.8351    3.5500   20.3451 H   0  0  0  0  0  0  0  0  0  0  0  0
   51.4557    2.6871   17.5023 H   0  0  0  0  0  0  0  0  0  0  0  0
   49.8292    5.9172   16.7627 H   0  0  0  0  0  0  0  0  0  0  0  0
   49.2022    2.3374   19.0969 H   0  0  0  0  0  0  0  0  0  0  0  0
   54.4014    5.2583   20.7226 H   0  0  0  0  0  0  0  0  0  0  0  0
   53.1282    6.4675   20.6646 H   0  0  0  0  0  0  0  0  0  0  0  0
   53.5480    5.5316   19.2043 H   0  0  0  0  0  0  0  0  0  0  0  0
   50.9241    6.7586   19.8877 H   0  0  0  0  0  0  0  0  0  0  0  0
   50.5677    6.1532   21.5183 H   0  0  0  0  0  0  0  0  0  0  0  0
   49.4018    5.9221   20.2183 H   0  0  0  0  0  0  0  0  0  0  0  0
   47.5574    5.6936   15.8312 H   0  0  0  0  0  0  0  0  0  0  0  0
   46.9297    2.1351   18.1532 H   0  0  0  0  0  0  0  0  0  0  0  0
   46.1017    3.8084   16.5200 H   0  0  0  0  0  0  0  0  0  0  0  0
  2  1  1  0
  3  1  1  0
  4  3  1  0
  1  5  1  0
  6  2  2  0
  7  2  1  0
  8  4  1  0
  3  9  1  0
 10  6  1  0
 11  7  2  0
 12 10  2  0
 12 11  1  0
 14 13  2  0
 15 13  2  0
 16 13  1  0
 17 13  1  0
 19 18  1  0
 20 18  1  0
 21 20  1  0
 18 22  1  0
 23 19  2  0
 24 19  1  0
 25 21  1  0
 20 26  1  0
 27 23  1  0
 28 24  2  0
 29 27  2  0
 29 28  1  0
  1 30  1  6
  3 31  1  6
  4 32  1  0
  5 33  1  0
  6 34  1  0
  7 35  1  0
  8 36  1  0
  8 37  1  0
  8 38  1  0
  9 39  1  0
  9 40  1  0
  9 41  1  0
 10 42  1  0
 11 43  1  0
 12 44  1  0
 16 45  1  0
 17 46  1  0
 18 47  1  1
 20 48  1  6
 21 49  1  0
 22 50  1  0
 23 51  1  0
 24 52  1  0
 25 53  1  0
 25 54  1  0
 25 55  1  0
 26 56  1  0
 26 57  1  0
 26 58  1  0
 27 59  1  0
 28 60  1  0
 29 61  1  0
M  END
> <Uni-Dock RESULT> 
ENERGY=   -4.356  LOWER_BOUND=    7.458  UPPER_BOUND=    8.892
INTER + INTRA:          -4.356
INTER:                  -4.356
INTRA:                   0.000
UNBOUND:                 0.000

$$$$

     RDKit          3D

 61 60  0  0  0  0  0  0  0  0999 V2000
   47.1478    8.5800   13.0198 C   0  0  1  0  0  0  0  0  0  0  0  0
   46.2557    7.3644   12.8313 C   0  0  0  0  0  0  0  0  0  0  0  0
   48.1931    8.5493   14.1866 C   0  0  1  0  0  0  0  0  0  0  0  0
   49.3665    7.7175   13.8176 N   0  0  0  0  0  0  0  0  0  0  0  0
   47.8385    8.8102   11.7829 O   0  0  0  0  0  0  0  0  0  0  0  0
   46.4950    6.1221   13.4343 C   0  0  0  0  0  0  0  0  0  0  0  0
   45.1369    7.4843   11.9861 C   0  0  0  0  0  0  0  0  0  0  0  0
   50.1522    7.3084   14.9738 C   0  0  0  0  0  0  0  0  0  0  0  0
   48.6466    9.9859   14.4942 C   0  0  0  0  0  0  0  0  0  0  0  0
   45.6352    5.0416   13.2152 C   0  0  0  0  0  0  0  0  0  0  0  0
   44.2781    6.4057   11.7669 C   0  0  0  0  0  0  0  0  0  0  0  0
   44.5264    5.1838   12.3848 C   0  0  0  0  0  0  0  0  0  0  0  0
   47.4361    7.8704   13.0640 S   0  0  0  0  0  0  0  0  0  0  0  0
   47.8132    7.6018   11.6997 O   0  0  0  0  0  0  0  0  0  0  0  0
   47.0528    9.1714   13.5497 O   0  0  0  0  0  0  0  0  0  0  0  0
   46.2676    6.8319   13.4238 O   0  0  0  0  0  0  0  0  0  0  0  0
   48.6133    7.3561   14.0248 O   0  0  0  0  0  0  0  0  0  0  0  0
   46.8916    7.9841   12.8900 C   0  0  1  0  0  0  0  0  0  0  0  0
   48.0474    8.3763   13.7900 C   0  0  0  0  0  0  0  0  0  0  0  0
   46.2072    6.6356   13.2818 C   0  0  1  0  0  0  0  0  0  0  0  0
   44.9238    6.4135   12.5664 N   0  0  0  0  0  0  0  0  0  0  0  0
   45.9078    9.0336   12.9141 O   0  0  0  0  0  0  0  0  0  0  0  0
   49.3556    8.4158   13.2847 C   0  0  0  0  0  0  0  0  0  0  0  0
   47.8343    8.7082   15.1374 C   0  0  0  0  0  0  0  0  0  0  0  0
   45.0635    6.1262   11.1455 C   0  0  0  0  0  0  0  0  0  0  0  0
   47.1575    5.4406   13.1631 C   0  0  0  0  0  0  0  0  0  0  0  0
   50.4238    8.7755   14.1084 C   0  0  0  0  0  0  0  0  0  0  0  0
   48.9036    9.0681   15.9588 C   0  0  0  0  0  0  0  0  0  0  0  0
   50.1977    9.1014   15.4441 C   0  0  0  0  0  0  0  0  0  0  0  0
   46.4856    9.4404   13.1820 H   0  0  0  0  0  0  0  0  0  0  0  0
   47.7023    8.1473   15.0821 H   0  0  0  0  0  0  0  0  0  0  0  0
   49.9579    8.2539   13.1799 H   0  0  0  0  0  0  0  0  0  0  0  0
   48.3410    7.9860   11.6403 H   0  0  0  0  0  0  0  0  0  0  0  0
   47.3574    5.9664   14.0770 H   0  0  0  0  0  0  0  0  0  0  0  0
   44.9375    8.4302   11.4848 H   0  0  0  0  0  0  0  0  0  0  0  0
   50.6029    8.1592   15.4920 H   0  0  0  0  0  0  0  0  0  0  0  0
   49.5445    6.7369   15.6826 H   0  0  0  0  0  0  0  0  0  0  0  0
   50.9658    6.6555   14.6422 H   0  0  0  0  0  0  0  0  0  0  0  0
   47.7854   10.6150   14.7453 H   0  0  0  0  0  0  0  0  0  0  0  0
   49.1550   10.4422   13.6375 H   0  0  0  0  0  0  0  0  0  0  0  0
   49.3276   10.0202   15.3503 H   0  0  0  0  0  0  0  0  0  0  0  0
   45.8374    4.0853   13.6910 H   0  0  0  0  0  0  0  0  0  0  0  0
   43.4203    6.5202   11.1098 H   0  0  0  0  0  0  0  0  0  0  0  0
   43.8618    4.3415   12.2140 H   0  0  0  0  0  0  0  0  0  0  0  0
   46.3943    6.0456   12.8534 H   0  0  0  0  0  0  0  0  0  0  0  0
   48.4849    7.7870   14.8953 H   0  0  0  0  0  0  0  0  0  0  0  0
   47.2458    7.9275   11.8542 H   0  0  0  0  0  0  0  0  0  0  0  0
   45.9136    6.7044   14.3372 H   0  0  0  0  0  0  0  0  0  0  0  0
   44.4024    7.2928   12.6570 H   0  0  0  0  0  0  0  0  0  0  0  0
   46.3858    9.8664   13.0716 H   0  0  0  0  0  0  0  0  0  0  0  0
   49.5547    8.1631   12.2452 H   0  0  0  0  0  0  0  0  0  0  0  0
   46.8284    8.6891   15.5538 H   0  0  0  0  0  0  0  0  0  0  0  0
   44.0668    6.0373   10.7013 H   0  0  0  0  0  0  0  0  0  0  0  0
   45.5729    5.1741   10.9716 H   0  0  0  0  0  0  0  0  0  0  0  0
   45.5893    6.9216   10.6101 H   0  0  0  0  0  0  0  0  0  0  0  0
   47.5957    5.3653   12.1624 H   0  0  0  0  0  0  0  0  0  0  0  0
   46.6348    4.5023   13.3809 H   0  0  0  0  0  0  0  0  0  0  0  0
   47.9804    5.5233   13.8811 H   0  0  0  0  0  0  0  0  0  0  0  0
   51.4343    8.8005   13.7079 H   0  0  0  0  0  0  0  0  0  0  0  0
   48.7262    9.3216   17.0009 H   0  0  0  0  0  0  0  0  0  0  0  0
   51.0305    9.3802   16.0846 H   0  0  0  0  0  0  0  0  0  0  0  0
  2  1  1  0
  3  1  1  0
  4  3  1  0
  1  5  1  0
  6  2  2  0
  7  2  1  0
  8  4  1  0
  3  9  1  0
 10  6  1  0
 11  7  2  0
 12 10  2  0
 12 11  1  0
 14 13  2  0
 15 13  2  0
 16 13  1  0
 17 13  1  0
 19 18  1  0
 20 18  1  0
 21 20  1  0
 18 22  1  0
 23 19  2  0
 24 19  1  0
 25 21  1  0
 20 26  1  0
 27 23  1  0
 28 24  2  0
 29 27  2  0
 29 28  1  0
  1 30  1  6
  3 31  1  6
  4 32  1  0
  5 33  1  0
  6 34  1  0
  7 35  1  0
  8 36  1  0
  8 37  1  0
  8 38  1  0
  9 39  1  0
  9 40  1  0
  9 41  1  0
 10 42  1  0
 11 43  1  0
 12 44  1  0
 16 45  1  0
 17 46  1  0
 18 47  1  1
 20 48  1  6
 21 49  1  0
 22 50  1  0
 23 51  1  0
 24 52  1  0
 25 53  1  0
 25 54  1  0
 25 55  1  0
 26 56  1  0
 26 57  1  0
 26 58  1  0
 27 59  1  0
 28 60  1  0
 29 61  1  0
M  END
> <Uni-Dock RESULT> 
ENERGY=   -4.346  LOWER_BOUND=    1.904  UPPER_BOUND=    5.090
INTER + INTRA:          -4.346
INTER:                  -4.346
INTRA:                   0.000
UNBOUND:                 0.000

$$$$
