
     RDKit          3D

 61 60  0  0  0  0  0  0  0  0999 V2000
   45.1916    7.4500   12.8492 C   0  0  1  0  0  0  0  0  0  0  0  0
   44.7216    6.1584   12.1997 C   0  0  0  0  0  0  0  0  0  0  0  0
   46.7291    7.5471   13.1233 C   0  0  1  0  0  0  0  0  0  0  0  0
   47.1663    6.5055   14.0785 N   0  0  0  0  0  0  0  0  0  0  0  0
   44.7588    8.5738   12.0710 O   0  0  0  0  0  0  0  0  0  0  0  0
   44.7128    5.9945   10.8054 C   0  0  0  0  0  0  0  0  0  0  0  0
   44.2912    5.0902   13.0025 C   0  0  0  0  0  0  0  0  0  0  0  0
   48.4913    6.7487   14.6282 C   0  0  0  0  0  0  0  0  0  0  0  0
   47.5538    7.5255   11.8283 C   0  0  0  0  0  0  0  0  0  0  0  0
   44.2816    4.7973   10.2309 C   0  0  0  0  0  0  0  0  0  0  0  0
   43.8602    3.8937   12.4269 C   0  0  0  0  0  0  0  0  0  0  0  0
   43.8548    3.7480   11.0416 C   0  0  0  0  0  0  0  0  0  0  0  0
   46.1803    5.9510   12.4224 S   0  0  0  0  0  0  0  0  0  0  0  0
   47.0479    5.6182   13.5235 O   0  0  0  0  0  0  0  0  0  0  0  0
   46.2141    5.2863   11.1446 O   0  0  0  0  0  0  0  0  0  0  0  0
   46.3424    7.5282   12.1768 O   0  0  0  0  0  0  0  0  0  0  0  0
   44.6621    5.8720   12.9341 O   0  0  0  0  0  0  0  0  0  0  0  0
   45.7892    7.1396   12.3674 C   0  0  1  0  0  0  0  0  0  0  0  0
   44.8972    5.9627   12.0231 C   0  0  0  0  0  0  0  0  0  0  0  0
   47.3019    6.7756   12.5096 C   0  0  1  0  0  0  0  0  0  0  0  0
   48.1767    7.9751   12.5659 N   0  0  0  0  0  0  0  0  0  0  0  0
   45.6409    8.1440   11.3479 O   0  0  0  0  0  0  0  0  0  0  0  0
   45.0153    5.3035   10.7891 C   0  0  0  0  0  0  0  0  0  0  0  0
   43.9301    5.5165   12.9361 C   0  0  0  0  0  0  0  0  0  0  0  0
   48.0811    8.7382   13.8027 C   0  0  0  0  0  0  0  0  0  0  0  0
   47.5622    5.8046   13.6653 C   0  0  0  0  0  0  0  0  0  0  0  0
   44.1903    4.2217   10.4790 C   0  0  0  0  0  0  0  0  0  0  0  0
   43.1059    4.4338   12.6237 C   0  0  0  0  0  0  0  0  0  0  0  0
   43.2368    3.7866   11.3966 C   0  0  0  0  0  0  0  0  0  0  0  0
   44.6715    7.5557   13.8108 H   0  0  0  0  0  0  0  0  0  0  0  0
   46.8872    8.5324   13.5840 H   0  0  0  0  0  0  0  0  0  0  0  0
   47.1531    5.5986   13.6084 H   0  0  0  0  0  0  0  0  0  0  0  0
   43.8357    8.3927   11.8225 H   0  0  0  0  0  0  0  0  0  0  0  0
   45.0481    6.8016   10.1564 H   0  0  0  0  0  0  0  0  0  0  0  0
   44.2961    5.1848   14.0873 H   0  0  0  0  0  0  0  0  0  0  0  0
   48.5495    7.7302   15.1093 H   0  0  0  0  0  0  0  0  0  0  0  0
   49.2743    6.6723   13.8684 H   0  0  0  0  0  0  0  0  0  0  0  0
   48.7051    5.9971   15.3947 H   0  0  0  0  0  0  0  0  0  0  0  0
   47.1597    8.2380   11.0962 H   0  0  0  0  0  0  0  0  0  0  0  0
   47.5609    6.5325   11.3670 H   0  0  0  0  0  0  0  0  0  0  0  0
   48.5942    7.8098   12.0168 H   0  0  0  0  0  0  0  0  0  0  0  0
   44.2810    4.6838    9.1499 H   0  0  0  0  0  0  0  0  0  0  0  0
   43.5304    3.0750   13.0613 H   0  0  0  0  0  0  0  0  0  0  0  0
   43.5198    2.8161   10.5940 H   0  0  0  0  0  0  0  0  0  0  0  0
   46.5994    7.9295   13.0327 H   0  0  0  0  0  0  0  0  0  0  0  0
   44.0930    5.7990   12.1396 H   0  0  0  0  0  0  0  0  0  0  0  0
   45.4356    7.5998   13.2978 H   0  0  0  0  0  0  0  0  0  0  0  0
   47.6118    6.2645   11.5887 H   0  0  0  0  0  0  0  0  0  0  0  0
   47.8628    8.5809   11.7991 H   0  0  0  0  0  0  0  0  0  0  0  0
   44.7242    8.0849   11.0272 H   0  0  0  0  0  0  0  0  0  0  0  0
   45.7542    5.6335   10.0603 H   0  0  0  0  0  0  0  0  0  0  0  0
   43.8121    6.0065   13.9005 H   0  0  0  0  0  0  0  0  0  0  0  0
   48.7070    9.6325   13.7178 H   0  0  0  0  0  0  0  0  0  0  0  0
   48.4566    8.1702   14.6591 H   0  0  0  0  0  0  0  0  0  0  0  0
   47.0603    9.0721   14.0085 H   0  0  0  0  0  0  0  0  0  0  0  0
   47.1700    6.1859   14.6139 H   0  0  0  0  0  0  0  0  0  0  0  0
   47.0891    4.8355   13.4756 H   0  0  0  0  0  0  0  0  0  0  0  0
   48.6353    5.6196   13.7869 H   0  0  0  0  0  0  0  0  0  0  0  0
   44.2929    3.7186    9.5210 H   0  0  0  0  0  0  0  0  0  0  0  0
   42.3625    4.0926   13.3395 H   0  0  0  0  0  0  0  0  0  0  0  0
   42.5956    2.9428   11.1554 H   0  0  0  0  0  0  0  0  0  0  0  0
  2  1  1  0
  3  1  1  0
  4  3  1  0
  1  5  1  0
  6  2  2  0
  7  2  1  0
  8  4  1  0
  3  9  1  0
 10  6  1  0
 11  7  2  0
 12 10  2  0
 12 11  1  0
 14 13  2  0
 15 13  2  0
 16 13  1  0
 17 13  1  0
 19 18  1  0
 20 18  1  0
 21 20  1  0
 18 22  1  0
 23 19  2  0
 24 19  1  0
 25 21  1  0
 20 26  1  0
 27 23  1  0
 28 24  2  0
 29 27  2  0
 29 28  1  0
  1 30  1  1
  3 31  1  6
  4 32  1  0
  5 33  1  0
  6 34  1  0
  7 35  1  0
  8 36  1  0
  8 37  1  0
  8 38  1  0
  9 39  1  0
  9 40  1  0
  9 41  1  0
 10 42  1  0
 11 43  1  0
 12 44  1  0
 16 45  1  0
 17 46  1  0
 18 47  1  6
 20 48  1  1
 21 49  1  0
 22 50  1  0
 23 51  1  0
 24 52  1  0
 25 53  1  0
 25 54  1  0
 25 55  1  0
 26 56  1  0
 26 57  1  0
 26 58  1  0
 27 59  1  0
 28 60  1  0
 29 61  1  0
M  END
> <Uni-Dock RESULT> 
ENERGY=   -5.647  LOWER_BOUND=    0.000  UPPER_BOUND=    0.000
INTER + INTRA:          -5.647
INTER:                  -5.647
INTRA:                   0.000
UNBOUND:                 0.000

$$$$

     RDKit          3D

 61 60  0  0  0  0  0  0  0  0999 V2000
   46.9405    6.8385   11.6873 C   0  0  1  0  0  0  0  0  0  0  0  0
   45.6992    5.9676   11.7946 C   0  0  0  0  0  0  0  0  0  0  0  0
   46.8047    8.2827   12.2741 C   0  0  1  0  0  0  0  0  0  0  0  0
   45.7783    9.0592   11.5445 N   0  0  0  0  0  0  0  0  0  0  0  0
   48.0600    6.1690   12.2827 O   0  0  0  0  0  0  0  0  0  0  0  0
   45.4373    5.1940   12.9365 C   0  0  0  0  0  0  0  0  0  0  0  0
   44.7775    5.9331   10.7363 C   0  0  0  0  0  0  0  0  0  0  0  0
   45.8411   10.4882   11.8107 C   0  0  0  0  0  0  0  0  0  0  0  0
   46.5537    8.2744   13.7888 C   0  0  0  0  0  0  0  0  0  0  0  0
   44.2880    4.4053   13.0152 C   0  0  0  0  0  0  0  0  0  0  0  0
   43.6287    5.1441   10.8161 C   0  0  0  0  0  0  0  0  0  0  0  0
   43.3849    4.3799   11.9549 C   0  0  0  0  0  0  0  0  0  0  0  0
   45.2729    7.2880   12.3379 S   0  0  0  0  0  0  0  0  0  0  0  0
   44.8842    8.5736   11.8163 O   0  0  0  0  0  0  0  0  0  0  0  0
   44.5198    6.5631   13.3295 O   0  0  0  0  0  0  0  0  0  0  0  0
   46.7800    7.4480   12.8643 O   0  0  0  0  0  0  0  0  0  0  0  0
   45.4809    6.2843   11.1040 O   0  0  0  0  0  0  0  0  0  0  0  0
   46.5021    7.0488   12.3575 C   0  0  1  0  0  0  0  0  0  0  0  0
   45.4650    6.0002   12.0054 C   0  0  0  0  0  0  0  0  0  0  0  0
   45.9070    8.3556   12.9732 C   0  0  1  0  0  0  0  0  0  0  0  0
   46.9481    9.2372   13.5616 N   0  0  0  0  0  0  0  0  0  0  0  0
   47.4399    6.4759   13.2862 O   0  0  0  0  0  0  0  0  0  0  0  0
   44.7068    5.3700   13.0049 C   0  0  0  0  0  0  0  0  0  0  0  0
   45.2511    5.6374   10.6672 C   0  0  0  0  0  0  0  0  0  0  0  0
   47.8050    9.8981   12.5869 C   0  0  0  0  0  0  0  0  0  0  0  0
   44.9938    9.0989   11.9935 C   0  0  0  0  0  0  0  0  0  0  0  0
   43.7548    4.4052   12.6733 C   0  0  0  0  0  0  0  0  0  0  0  0
   44.2979    4.6720   10.3378 C   0  0  0  0  0  0  0  0  0  0  0  0
   43.5499    4.0574   11.3400 C   0  0  0  0  0  0  0  0  0  0  0  0
   47.2000    6.9308   10.6240 H   0  0  0  0  0  0  0  0  0  0  0  0
   47.7818    8.7605   12.1167 H   0  0  0  0  0  0  0  0  0  0  0  0
   44.8539    8.7053   11.7970 H   0  0  0  0  0  0  0  0  0  0  0  0
   48.0146    5.2446   11.9825 H   0  0  0  0  0  0  0  0  0  0  0  0
   46.1289    5.2057   13.7770 H   0  0  0  0  0  0  0  0  0  0  0  0
   44.9492    6.5301    9.8420 H   0  0  0  0  0  0  0  0  0  0  0  0
   46.8324   10.8931   11.5836 H   0  0  0  0  0  0  0  0  0  0  0  0
   45.5823   10.7274   12.8461 H   0  0  0  0  0  0  0  0  0  0  0  0
   45.1229   11.0049   11.1663 H   0  0  0  0  0  0  0  0  0  0  0  0
   47.2655    7.6213   14.3044 H   0  0  0  0  0  0  0  0  0  0  0  0
   45.5418    7.9337   14.0316 H   0  0  0  0  0  0  0  0  0  0  0  0
   46.6770    9.2750   14.2159 H   0  0  0  0  0  0  0  0  0  0  0  0
   44.0973    3.8120   13.9058 H   0  0  0  0  0  0  0  0  0  0  0  0
   42.9237    5.1280    9.9890 H   0  0  0  0  0  0  0  0  0  0  0  0
   42.4901    3.7663   12.0169 H   0  0  0  0  0  0  0  0  0  0  0  0
   47.1955    8.1633   12.3395 H   0  0  0  0  0  0  0  0  0  0  0  0
   45.4441    5.3733   11.4634 H   0  0  0  0  0  0  0  0  0  0  0  0
   47.0808    7.2989   11.4602 H   0  0  0  0  0  0  0  0  0  0  0  0
   45.2861    8.0690   13.8320 H   0  0  0  0  0  0  0  0  0  0  0  0
   47.5393    8.6220   14.1321 H   0  0  0  0  0  0  0  0  0  0  0  0
   47.5082    5.5300   13.0683 H   0  0  0  0  0  0  0  0  0  0  0  0
   44.8573    5.6292   14.0519 H   0  0  0  0  0  0  0  0  0  0  0  0
   45.8231    6.1059    9.8689 H   0  0  0  0  0  0  0  0  0  0  0  0
   48.5762   10.4650   13.1184 H   0  0  0  0  0  0  0  0  0  0  0  0
   47.2475   10.6168   11.9788 H   0  0  0  0  0  0  0  0  0  0  0  0
   48.3156    9.1873   11.9311 H   0  0  0  0  0  0  0  0  0  0  0  0
   45.5025    9.3185   11.0491 H   0  0  0  0  0  0  0  0  0  0  0  0
   44.1039    8.5046   11.7612 H   0  0  0  0  0  0  0  0  0  0  0  0
   44.6452   10.0443   12.4239 H   0  0  0  0  0  0  0  0  0  0  0  0
   43.1729    3.9259   13.4563 H   0  0  0  0  0  0  0  0  0  0  0  0
   44.1362    4.4009    9.2977 H   0  0  0  0  0  0  0  0  0  0  0  0
   42.8070    3.3072   11.0820 H   0  0  0  0  0  0  0  0  0  0  0  0
  2  1  1  0
  3  1  1  0
  4  3  1  0
  1  5  1  0
  6  2  2  0
  7  2  1  0
  8  4  1  0
  3  9  1  0
 10  6  1  0
 11  7  2  0
 12 10  2  0
 12 11  1  0
 14 13  2  0
 15 13  2  0
 16 13  1  0
 17 13  1  0
 19 18  1  0
 20 18  1  0
 21 20  1  0
 18 22  1  0
 23 19  2  0
 24 19  1  0
 25 21  1  0
 20 26  1  0
 27 23  1  0
 28 24  2  0
 29 27  2  0
 29 28  1  0
  1 30  1  1
  3 31  1  6
  4 32  1  0
  5 33  1  0
  6 34  1  0
  7 35  1  0
  8 36  1  0
  8 37  1  0
  8 38  1  0
  9 39  1  0
  9 40  1  0
  9 41  1  0
 10 42  1  0
 11 43  1  0
 12 44  1  0
 16 45  1  0
 17 46  1  0
 18 47  1  6
 20 48  1  1
 21 49  1  0
 22 50  1  0
 23 51  1  0
 24 52  1  0
 25 53  1  0
 25 54  1  0
 25 55  1  0
 26 56  1  0
 26 57  1  0
 26 58  1  0
 27 59  1  0
 28 60  1  0
 29 61  1  0
M  END
> <Uni-Dock RESULT> 
ENERGY=   -5.438  LOWER_BOUND=    1.296  UPPER_BOUND=    2.613
INTER + INTRA:          -5.438
INTER:                  -5.438
INTRA:                   0.000
UNBOUND:                 0.000

$$$$

     RDKit          3D

 61 60  0  0  0  0  0  0  0  0999 V2000
   43.3945    5.6922   11.9217 C   0  0  1  0  0  0  0  0  0  0  0  0
   44.2189    6.9685   11.9712 C   0  0  0  0  0  0  0  0  0  0  0  0
   44.0731    4.4778   11.2053 C   0  0  1  0  0  0  0  0  0  0  0  0
   44.3276    4.7758    9.7788 N   0  0  0  0  0  0  0  0  0  0  0  0
   42.9914    5.3193   13.2462 O   0  0  0  0  0  0  0  0  0  0  0  0
   45.1389    7.2128   13.0031 C   0  0  0  0  0  0  0  0  0  0  0  0
   44.0736    7.9325   10.9610 C   0  0  0  0  0  0  0  0  0  0  0  0
   44.6369    3.5927    8.9903 C   0  0  0  0  0  0  0  0  0  0  0  0
   45.3413    4.0076   11.9320 C   0  0  0  0  0  0  0  0  0  0  0  0
   45.8891    8.3901   13.0255 C   0  0  0  0  0  0  0  0  0  0  0  0
   44.8242    9.1092   10.9845 C   0  0  0  0  0  0  0  0  0  0  0  0
   45.7309    9.3379   12.0170 C   0  0  0  0  0  0  0  0  0  0  0  0
   45.0494    6.0223   11.1742 S   0  0  0  0  0  0  0  0  0  0  0  0
   45.0782    5.5130    9.8267 O   0  0  0  0  0  0  0  0  0  0  0  0
   46.1996    6.5637   11.8523 O   0  0  0  0  0  0  0  0  0  0  0  0
   44.4251    4.8594   12.0863 O   0  0  0  0  0  0  0  0  0  0  0  0
   43.9015    7.1389   11.2675 O   0  0  0  0  0  0  0  0  0  0  0  0
   44.2019    5.5093   11.9403 C   0  0  1  0  0  0  0  0  0  0  0  0
   44.5344    6.9886   11.9532 C   0  0  0  0  0  0  0  0  0  0  0  0
   45.1981    4.6370   11.1113 C   0  0  1  0  0  0  0  0  0  0  0  0
   45.0157    3.1810   11.3447 N   0  0  0  0  0  0  0  0  0  0  0  0
   44.1747    5.0313   13.2971 O   0  0  0  0  0  0  0  0  0  0  0  0
   45.7044    7.4606   12.5693 C   0  0  0  0  0  0  0  0  0  0  0  0
   43.6688    7.9141   11.3514 C   0  0  0  0  0  0  0  0  0  0  0  0
   43.8001    2.6221   10.7694 C   0  0  0  0  0  0  0  0  0  0  0  0
   45.1906    4.9981    9.6227 C   0  0  0  0  0  0  0  0  0  0  0  0
   46.0033    8.8236   12.5779 C   0  0  0  0  0  0  0  0  0  0  0  0
   43.9701    9.2773   11.3611 C   0  0  0  0  0  0  0  0  0  0  0  0
   45.1368    9.7312   11.9730 C   0  0  0  0  0  0  0  0  0  0  0  0
   42.4573    5.9132   11.3933 H   0  0  0  0  0  0  0  0  0  0  0  0
   43.3483    3.6539   11.2663 H   0  0  0  0  0  0  0  0  0  0  0  0
   45.0994    5.4417    9.7122 H   0  0  0  0  0  0  0  0  0  0  0  0
   42.7017    6.1392   13.6828 H   0  0  0  0  0  0  0  0  0  0  0  0
   45.2800    6.4810   13.7964 H   0  0  0  0  0  0  0  0  0  0  0  0
   43.3747    7.7660   10.1428 H   0  0  0  0  0  0  0  0  0  0  0  0
   43.8438    2.8425    9.0687 H   0  0  0  0  0  0  0  0  0  0  0  0
   45.5904    3.1413    9.2792 H   0  0  0  0  0  0  0  0  0  0  0  0
   44.7150    3.8750    7.9356 H   0  0  0  0  0  0  0  0  0  0  0  0
   45.1590    3.8805   13.0041 H   0  0  0  0  0  0  0  0  0  0  0  0
   46.1670    4.7162   11.8089 H   0  0  0  0  0  0  0  0  0  0  0  0
   45.6787    3.0378   11.5520 H   0  0  0  0  0  0  0  0  0  0  0  0
   46.5986    8.5658   13.8299 H   0  0  0  0  0  0  0  0  0  0  0  0
   44.7015    9.8462   10.1951 H   0  0  0  0  0  0  0  0  0  0  0  0
   46.3154   10.2539   12.0346 H   0  0  0  0  0  0  0  0  0  0  0  0
   43.8418    4.3222   11.5111 H   0  0  0  0  0  0  0  0  0  0  0  0
   44.0858    7.6765   12.0659 H   0  0  0  0  0  0  0  0  0  0  0  0
   43.1858    5.3717   11.5517 H   0  0  0  0  0  0  0  0  0  0  0  0
   46.2110    4.8400   11.4829 H   0  0  0  0  0  0  0  0  0  0  0  0
   44.9594    3.0706   12.3636 H   0  0  0  0  0  0  0  0  0  0  0  0
   43.8650    5.7705   13.8489 H   0  0  0  0  0  0  0  0  0  0  0  0
   46.3904    6.7638   13.0487 H   0  0  0  0  0  0  0  0  0  0  0  0
   42.7533    7.5810   10.8667 H   0  0  0  0  0  0  0  0  0  0  0  0
   43.7247    1.5675   11.0537 H   0  0  0  0  0  0  0  0  0  0  0  0
   43.8178    2.6538    9.6759 H   0  0  0  0  0  0  0  0  0  0  0  0
   42.8985    3.1236   11.1321 H   0  0  0  0  0  0  0  0  0  0  0  0
   44.1845    4.9405    9.1946 H   0  0  0  0  0  0  0  0  0  0  0  0
   45.5607    6.0167    9.4659 H   0  0  0  0  0  0  0  0  0  0  0  0
   45.8448    4.3278    9.0541 H   0  0  0  0  0  0  0  0  0  0  0  0
   46.9133    9.1762   13.0566 H   0  0  0  0  0  0  0  0  0  0  0  0
   43.2955    9.9862   10.8881 H   0  0  0  0  0  0  0  0  0  0  0  0
   45.3709   10.7925   11.9783 H   0  0  0  0  0  0  0  0  0  0  0  0
  2  1  1  0
  3  1  1  0
  4  3  1  0
  1  5  1  0
  6  2  2  0
  7  2  1  0
  8  4  1  0
  3  9  1  0
 10  6  1  0
 11  7  2  0
 12 10  2  0
 12 11  1  0
 14 13  2  0
 15 13  2  0
 16 13  1  0
 17 13  1  0
 19 18  1  0
 20 18  1  0
 21 20  1  0
 18 22  1  0
 23 19  2  0
 24 19  1  0
 25 21  1  0
 20 26  1  0
 27 23  1  0
 28 24  2  0
 29 27  2  0
 29 28  1  0
  1 30  1  1
  3 31  1  6
  4 32  1  0
  5 33  1  0
  6 34  1  0
  7 35  1  0
  8 36  1  0
  8 37  1  0
  8 38  1  0
  9 39  1  0
  9 40  1  0
  9 41  1  0
 10 42  1  0
 11 43  1  0
 12 44  1  0
 16 45  1  0
 17 46  1  0
 18 47  1  6
 20 48  1  1
 21 49  1  0
 22 50  1  0
 23 51  1  0
 24 52  1  0
 25 53  1  0
 25 54  1  0
 25 55  1  0
 26 56  1  0
 26 57  1  0
 26 58  1  0
 27 59  1  0
 28 60  1  0
 29 61  1  0
M  END
> <Uni-Dock RESULT> 
ENERGY=   -5.385  LOWER_BOUND=    2.045  UPPER_BOUND=    4.390
INTER + INTRA:          -5.385
INTER:                  -5.385
INTRA:                   0.000
UNBOUND:                 0.000

$$$$

     RDKit          3D

 61 60  0  0  0  0  0  0  0  0999 V2000
   47.9811    6.5775   19.1103 C   0  0  1  0  0  0  0  0  0  0  0  0
   48.3235    5.2574   18.4387 C   0  0  0  0  0  0  0  0  0  0  0  0
   48.2788    6.6514   20.6447 C   0  0  1  0  0  0  0  0  0  0  0  0
   47.4664    5.6669   21.3924 N   0  0  0  0  0  0  0  0  0  0  0  0
   48.6362    7.6562   18.4297 O   0  0  0  0  0  0  0  0  0  0  0  0
   49.6074    4.9977   17.9338 C   0  0  0  0  0  0  0  0  0  0  0  0
   47.3431    4.2595   18.3214 C   0  0  0  0  0  0  0  0  0  0  0  0
   47.4427    5.9114   22.8265 C   0  0  0  0  0  0  0  0  0  0  0  0
   49.7768    6.5178   20.9541 C   0  0  0  0  0  0  0  0  0  0  0  0
   49.9007    3.7759   17.3253 C   0  0  0  0  0  0  0  0  0  0  0  0
   47.6374    3.0382   17.7127 C   0  0  0  0  0  0  0  0  0  0  0  0
   48.9156    2.7972   17.2142 C   0  0  0  0  0  0  0  0  0  0  0  0
   48.6184    5.0262   19.8809 S   0  0  0  0  0  0  0  0  0  0  0  0
   47.8755    4.7469   21.0834 O   0  0  0  0  0  0  0  0  0  0  0  0
   49.7716    4.2740   19.4569 O   0  0  0  0  0  0  0  0  0  0  0  0
   49.0221    6.5776   19.9463 O   0  0  0  0  0  0  0  0  0  0  0  0
   47.5966    5.0242   18.6443 O   0  0  0  0  0  0  0  0  0  0  0  0
   48.6192    6.2183   19.4969 C   0  0  1  0  0  0  0  0  0  0  0  0
   48.5358    5.0452   18.5398 C   0  0  0  0  0  0  0  0  0  0  0  0
   48.9966    5.8239   20.9607 C   0  0  1  0  0  0  0  0  0  0  0  0
   49.3440    7.0002   21.7993 N   0  0  0  0  0  0  0  0  0  0  0  0
   49.5913    7.1534   18.9960 O   0  0  0  0  0  0  0  0  0  0  0  0
   49.6786    4.2992   18.2101 C   0  0  0  0  0  0  0  0  0  0  0  0
   47.3084    4.6899   17.9607 C   0  0  0  0  0  0  0  0  0  0  0  0
   48.2143    7.8493   22.1510 C   0  0  0  0  0  0  0  0  0  0  0  0
   47.9398    4.9286   21.6147 C   0  0  0  0  0  0  0  0  0  0  0  0
   49.5942    3.2215   17.3278 C   0  0  0  0  0  0  0  0  0  0  0  0
   47.2264    3.6110   17.0784 C   0  0  0  0  0  0  0  0  0  0  0  0
   48.3682    2.8771   16.7632 C   0  0  0  0  0  0  0  0  0  0  0  0
   46.9082    6.7637   18.9668 H   0  0  0  0  0  0  0  0  0  0  0  0
   47.9789    7.6615   20.9573 H   0  0  0  0  0  0  0  0  0  0  0  0
   47.8323    4.7304   21.2119 H   0  0  0  0  0  0  0  0  0  0  0  0
   48.5266    7.4835   17.4784 H   0  0  0  0  0  0  0  0  0  0  0  0
   50.3913    5.7485   18.0168 H   0  0  0  0  0  0  0  0  0  0  0  0
   46.3409    4.4288   18.7124 H   0  0  0  0  0  0  0  0  0  0  0  0
   47.0880    6.9218   23.0531 H   0  0  0  0  0  0  0  0  0  0  0  0
   48.4231    5.7612   23.2876 H   0  0  0  0  0  0  0  0  0  0  0  0
   46.7483    5.2090   23.2986 H   0  0  0  0  0  0  0  0  0  0  0  0
   50.3721    7.1884   20.3258 H   0  0  0  0  0  0  0  0  0  0  0  0
   50.1353    5.4953   20.7957 H   0  0  0  0  0  0  0  0  0  0  0  0
   49.9917    6.7859   21.9937 H   0  0  0  0  0  0  0  0  0  0  0  0
   50.8993    3.5879   16.9397 H   0  0  0  0  0  0  0  0  0  0  0  0
   46.8682    2.2747   17.6297 H   0  0  0  0  0  0  0  0  0  0  0  0
   49.1445    1.8460   16.7410 H   0  0  0  0  0  0  0  0  0  0  0  0
   48.3456    7.0301   20.4915 H   0  0  0  0  0  0  0  0  0  0  0  0
   48.1295    4.9120   17.8295 H   0  0  0  0  0  0  0  0  0  0  0  0
   47.6609    6.7513   19.4981 H   0  0  0  0  0  0  0  0  0  0  0  0
   49.9268    5.2421   20.9219 H   0  0  0  0  0  0  0  0  0  0  0  0
   49.9922    7.5598   21.2334 H   0  0  0  0  0  0  0  0  0  0  0  0
   49.5603    7.0973   18.0252 H   0  0  0  0  0  0  0  0  0  0  0  0
   50.6447    4.5577   18.6413 H   0  0  0  0  0  0  0  0  0  0  0  0
   46.4043    5.2484   18.1943 H   0  0  0  0  0  0  0  0  0  0  0  0
   48.5822    8.7182   22.7063 H   0  0  0  0  0  0  0  0  0  0  0  0
   47.5073    7.3319   22.8063 H   0  0  0  0  0  0  0  0  0  0  0  0
   47.6849    8.2244   21.2706 H   0  0  0  0  0  0  0  0  0  0  0  0
   46.9450    5.3851   21.5862 H   0  0  0  0  0  0  0  0  0  0  0  0
   47.8766    3.9619   21.1042 H   0  0  0  0  0  0  0  0  0  0  0  0
   48.1938    4.7232   22.6606 H   0  0  0  0  0  0  0  0  0  0  0  0
   50.4860    2.6506   17.0822 H   0  0  0  0  0  0  0  0  0  0  0  0
   46.2700    3.3405   16.6383 H   0  0  0  0  0  0  0  0  0  0  0  0
   48.3026    2.0365   16.0775 H   0  0  0  0  0  0  0  0  0  0  0  0
  2  1  1  0
  3  1  1  0
  4  3  1  0
  1  5  1  0
  6  2  2  0
  7  2  1  0
  8  4  1  0
  3  9  1  0
 10  6  1  0
 11  7  2  0
 12 10  2  0
 12 11  1  0
 14 13  2  0
 15 13  2  0
 16 13  1  0
 17 13  1  0
 19 18  1  0
 20 18  1  0
 21 20  1  0
 18 22  1  0
 23 19  2  0
 24 19  1  0
 25 21  1  0
 20 26  1  0
 27 23  1  0
 28 24  2  0
 29 27  2  0
 29 28  1  0
  1 30  1  1
  3 31  1  6
  4 32  1  0
  5 33  1  0
  6 34  1  0
  7 35  1  0
  8 36  1  0
  8 37  1  0
  8 38  1  0
  9 39  1  0
  9 40  1  0
  9 41  1  0
 10 42  1  0
 11 43  1  0
 12 44  1  0
 16 45  1  0
 17 46  1  0
 18 47  1  6
 20 48  1  1
 21 49  1  0
 22 50  1  0
 23 51  1  0
 24 52  1  0
 25 53  1  0
 25 54  1  0
 25 55  1  0
 26 56  1  0
 26 57  1  0
 26 58  1  0
 27 59  1  0
 28 60  1  0
 29 61  1  0
M  END
> <Uni-Dock RESULT> 
ENERGY=   -5.226  LOWER_BOUND=    6.535  UPPER_BOUND=    7.927
INTER + INTRA:          -5.226
INTER:                  -5.226
INTRA:                   0.000
UNBOUND:                 0.000

$$$$

     RDKit          3D

 61 60  0  0  0  0  0  0  0  0999 V2000
   49.2540    6.3155   19.2615 C   0  0  1  0  0  0  0  0  0  0  0  0
   48.8993    5.0838   18.4443 C   0  0  0  0  0  0  0  0  0  0  0  0
   49.3250    6.1008   20.8099 C   0  0  1  0  0  0  0  0  0  0  0  0
   48.0088    5.6983   21.3522 N   0  0  0  0  0  0  0  0  0  0  0  0
   50.4836    6.8796   18.7863 O   0  0  0  0  0  0  0  0  0  0  0  0
   49.8810    4.1800   18.0081 C   0  0  0  0  0  0  0  0  0  0  0  0
   47.5586    4.8256   18.1176 C   0  0  0  0  0  0  0  0  0  0  0  0
   47.9241    5.8125   22.8002 C   0  0  0  0  0  0  0  0  0  0  0  0
   50.4384    5.1228   21.2115 C   0  0  0  0  0  0  0  0  0  0  0  0
   49.5315    3.0523   17.2628 C   0  0  0  0  0  0  0  0  0  0  0  0
   47.2102    3.6978   17.3723 C   0  0  0  0  0  0  0  0  0  0  0  0
   48.1967    2.8122   16.9446 C   0  0  0  0  0  0  0  0  0  0  0  0
   48.8122    4.6263   19.8597 S   0  0  0  0  0  0  0  0  0  0  0  0
   47.8795    4.7324   20.9528 O   0  0  0  0  0  0  0  0  0  0  0  0
   49.4030    3.3858   19.4264 O   0  0  0  0  0  0  0  0  0  0  0  0
   49.9924    5.6689   20.1667 O   0  0  0  0  0  0  0  0  0  0  0  0
   48.1445    5.2884   18.5602 O   0  0  0  0  0  0  0  0  0  0  0  0
   49.5256    5.6326   19.6431 C   0  0  1  0  0  0  0  0  0  0  0  0
   48.9422    4.7823   18.5314 C   0  0  0  0  0  0  0  0  0  0  0  0
   49.4130    4.9929   21.0639 C   0  0  1  0  0  0  0  0  0  0  0  0
   50.2315    5.7049   22.0791 N   0  0  0  0  0  0  0  0  0  0  0  0
   50.9110    5.8870   19.3500 O   0  0  0  0  0  0  0  0  0  0  0  0
   49.5147    3.5462   18.1912 C   0  0  0  0  0  0  0  0  0  0  0  0
   47.8184    5.2242   17.8174 C   0  0  0  0  0  0  0  0  0  0  0  0
   49.7237    7.0168   22.4561 C   0  0  0  0  0  0  0  0  0  0  0  0
   47.9585    4.8083   21.5072 C   0  0  0  0  0  0  0  0  0  0  0  0
   48.9729    2.7696   17.1664 C   0  0  0  0  0  0  0  0  0  0  0  0
   47.2779    4.4453   16.7926 C   0  0  0  0  0  0  0  0  0  0  0  0
   47.8542    3.2188   16.4682 C   0  0  0  0  0  0  0  0  0  0  0  0
   48.4955    7.0848   19.0634 H   0  0  0  0  0  0  0  0  0  0  0  0
   49.5933    7.0788   21.2335 H   0  0  0  0  0  0  0  0  0  0  0  0
   47.8169    4.7343   21.0741 H   0  0  0  0  0  0  0  0  0  0  0  0
   50.4310    6.8660   17.8148 H   0  0  0  0  0  0  0  0  0  0  0  0
   50.9284    4.3484   18.2522 H   0  0  0  0  0  0  0  0  0  0  0  0
   46.7743    5.5038   18.4505 H   0  0  0  0  0  0  0  0  0  0  0  0
   48.1597    6.8278   23.1348 H   0  0  0  0  0  0  0  0  0  0  0  0
   48.5820    5.1029   23.3100 H   0  0  0  0  0  0  0  0  0  0  0  0
   46.8994    5.5946   23.1178 H   0  0  0  0  0  0  0  0  0  0  0  0
   51.3860    5.3816   20.7277 H   0  0  0  0  0  0  0  0  0  0  0  0
   50.1898    4.0908   20.9429 H   0  0  0  0  0  0  0  0  0  0  0  0
   50.6179    5.1492   22.2913 H   0  0  0  0  0  0  0  0  0  0  0  0
   50.3018    2.3604   16.9325 H   0  0  0  0  0  0  0  0  0  0  0  0
   46.1679    3.5106   17.1276 H   0  0  0  0  0  0  0  0  0  0  0  0
   47.9250    1.9340   16.3649 H   0  0  0  0  0  0  0  0  0  0  0  0
   49.6106    6.3850   20.7154 H   0  0  0  0  0  0  0  0  0  0  0  0
   48.6341    4.9520   17.7808 H   0  0  0  0  0  0  0  0  0  0  0  0
   49.0328    6.6122   19.6439 H   0  0  0  0  0  0  0  0  0  0  0  0
   49.8610    3.9916   21.0172 H   0  0  0  0  0  0  0  0  0  0  0  0
   51.1524    5.8382   21.6459 H   0  0  0  0  0  0  0  0  0  0  0  0
   50.9903    5.9262   18.3811 H   0  0  0  0  0  0  0  0  0  0  0  0
   50.3910    3.1827   18.7260 H   0  0  0  0  0  0  0  0  0  0  0  0
   47.3519    6.1780   18.0553 H   0  0  0  0  0  0  0  0  0  0  0  0
   50.4287    7.4844   23.1512 H   0  0  0  0  0  0  0  0  0  0  0  0
   48.7653    6.9452   22.9789 H   0  0  0  0  0  0  0  0  0  0  0  0
   49.6192    7.6858   21.5973 H   0  0  0  0  0  0  0  0  0  0  0  0
   47.3976    5.7478   21.4655 H   0  0  0  0  0  0  0  0  0  0  0  0
   47.4435    4.0851   20.8663 H   0  0  0  0  0  0  0  0  0  0  0  0
   47.9075    4.4229   22.5316 H   0  0  0  0  0  0  0  0  0  0  0  0
   49.4242    1.8135   16.9139 H   0  0  0  0  0  0  0  0  0  0  0  0
   46.4043    4.7941   16.2481 H   0  0  0  0  0  0  0  0  0  0  0  0
   47.4314    2.6127   15.6713 H   0  0  0  0  0  0  0  0  0  0  0  0
  2  1  1  0
  3  1  1  0
  4  3  1  0
  1  5  1  0
  6  2  2  0
  7  2  1  0
  8  4  1  0
  3  9  1  0
 10  6  1  0
 11  7  2  0
 12 10  2  0
 12 11  1  0
 14 13  2  0
 15 13  2  0
 16 13  1  0
 17 13  1  0
 19 18  1  0
 20 18  1  0
 21 20  1  0
 18 22  1  0
 23 19  2  0
 24 19  1  0
 25 21  1  0
 20 26  1  0
 27 23  1  0
 28 24  2  0
 29 27  2  0
 29 28  1  0
  1 30  1  1
  3 31  1  6
  4 32  1  0
  5 33  1  0
  6 34  1  0
  7 35  1  0
  8 36  1  0
  8 37  1  0
  8 38  1  0
  9 39  1  0
  9 40  1  0
  9 41  1  0
 10 42  1  0
 11 43  1  0
 12 44  1  0
 16 45  1  0
 17 46  1  0
 18 47  1  6
 20 48  1  1
 21 49  1  0
 22 50  1  0
 23 51  1  0
 24 52  1  0
 25 53  1  0
 25 54  1  0
 25 55  1  0
 26 56  1  0
 26 57  1  0
 26 58  1  0
 27 59  1  0
 28 60  1  0
 29 61  1  0
M  END
> <Uni-Dock RESULT> 
ENERGY=   -5.104  LOWER_BOUND=    6.319  UPPER_BOUND=    8.148
INTER + INTRA:          -5.104
INTER:                  -5.104
INTRA:                   0.000
UNBOUND:                 0.000

$$$$

     RDKit          3D

 61 60  0  0  0  0  0  0  0  0999 V2000
   46.0214    6.0210   13.7815 C   0  0  1  0  0  0  0  0  0  0  0  0
   46.9275    7.0577   13.1372 C   0  0  0  0  0  0  0  0  0  0  0  0
   44.9613    5.3685   12.8334 C   0  0  1  0  0  0  0  0  0  0  0  0
   44.0119    6.3804   12.3203 N   0  0  0  0  0  0  0  0  0  0  0  0
   46.8127    5.0030   14.4090 O   0  0  0  0  0  0  0  0  0  0  0  0
   48.1187    6.6952   12.4887 C   0  0  0  0  0  0  0  0  0  0  0  0
   46.5721    8.4153   13.1758 C   0  0  0  0  0  0  0  0  0  0  0  0
   42.8212    5.7993   11.7191 C   0  0  0  0  0  0  0  0  0  0  0  0
   45.6117    4.5607   11.7012 C   0  0  0  0  0  0  0  0  0  0  0  0
   48.9330    7.6642   11.8994 C   0  0  0  0  0  0  0  0  0  0  0  0
   47.3871    9.3832   12.5862 C   0  0  0  0  0  0  0  0  0  0  0  0
   48.5675    9.0074   11.9491 C   0  0  0  0  0  0  0  0  0  0  0  0
   45.9783    6.6723   12.0552 S   0  0  0  0  0  0  0  0  0  0  0  0
   44.6165    6.9643   11.6857 O   0  0  0  0  0  0  0  0  0  0  0  0
   47.0909    6.7463   11.1428 O   0  0  0  0  0  0  0  0  0  0  0  0
   45.9656    5.2124   12.7205 O   0  0  0  0  0  0  0  0  0  0  0  0
   46.3657    7.5841   13.3168 O   0  0  0  0  0  0  0  0  0  0  0  0
   46.1335    5.8429   12.9807 C   0  0  1  0  0  0  0  0  0  0  0  0
   46.9986    7.0790   12.8293 C   0  0  0  0  0  0  0  0  0  0  0  0
   45.2363    5.5342   11.7395 C   0  0  1  0  0  0  0  0  0  0  0  0
   44.6207    4.1834   11.7996 N   0  0  0  0  0  0  0  0  0  0  0  0
   46.9858    4.7126   13.2379 O   0  0  0  0  0  0  0  0  0  0  0  0
   48.0289    7.1273   11.8767 C   0  0  0  0  0  0  0  0  0  0  0  0
   46.7849    8.1974   13.6488 C   0  0  0  0  0  0  0  0  0  0  0  0
   43.5673    4.0406   12.7951 C   0  0  0  0  0  0  0  0  0  0  0  0
   44.2068    6.6371   11.4749 C   0  0  0  0  0  0  0  0  0  0  0  0
   48.8216    8.2680   11.7438 C   0  0  0  0  0  0  0  0  0  0  0  0
   47.5792    9.3376   13.5138 C   0  0  0  0  0  0  0  0  0  0  0  0
   48.5958    9.3729   12.5615 C   0  0  0  0  0  0  0  0  0  0  0  0
   45.4815    6.5066   14.6056 H   0  0  0  0  0  0  0  0  0  0  0  0
   44.4064    4.6526   13.4560 H   0  0  0  0  0  0  0  0  0  0  0  0
   44.4907    6.9650   11.6329 H   0  0  0  0  0  0  0  0  0  0  0  0
   47.5301    5.4659   14.8756 H   0  0  0  0  0  0  0  0  0  0  0  0
   48.4175    5.6499   12.4351 H   0  0  0  0  0  0  0  0  0  0  0  0
   45.6490    8.7252   13.6633 H   0  0  0  0  0  0  0  0  0  0  0  0
   42.3028    5.1374   12.4201 H   0  0  0  0  0  0  0  0  0  0  0  0
   43.0483    5.2473   10.8026 H   0  0  0  0  0  0  0  0  0  0  0  0
   42.1254    6.6016   11.4537 H   0  0  0  0  0  0  0  0  0  0  0  0
   46.3781    3.8817   12.0892 H   0  0  0  0  0  0  0  0  0  0  0  0
   46.0794    5.2108   10.9544 H   0  0  0  0  0  0  0  0  0  0  0  0
   44.8734    3.9401   11.1831 H   0  0  0  0  0  0  0  0  0  0  0  0
   49.8521    7.3693   11.3997 H   0  0  0  0  0  0  0  0  0  0  0  0
   47.0986   10.4305   12.6234 H   0  0  0  0  0  0  0  0  0  0  0  0
   49.2014    9.7612   11.4897 H   0  0  0  0  0  0  0  0  0  0  0  0
   45.0746    5.0771   13.1046 H   0  0  0  0  0  0  0  0  0  0  0  0
   47.3441    7.6068   13.3671 H   0  0  0  0  0  0  0  0  0  0  0  0
   45.5012    5.9523   13.8698 H   0  0  0  0  0  0  0  0  0  0  0  0
   45.8883    5.4893   10.8573 H   0  0  0  0  0  0  0  0  0  0  0  0
   45.3824    3.5450   12.0559 H   0  0  0  0  0  0  0  0  0  0  0  0
   47.7503    5.0460   13.7390 H   0  0  0  0  0  0  0  0  0  0  0  0
   48.2195    6.2706   11.2319 H   0  0  0  0  0  0  0  0  0  0  0  0
   45.9956    8.1916   14.3977 H   0  0  0  0  0  0  0  0  0  0  0  0
   43.2291    2.9993   12.8077 H   0  0  0  0  0  0  0  0  0  0  0  0
   42.6941    4.6532   12.5516 H   0  0  0  0  0  0  0  0  0  0  0  0
   43.9115    4.2846   13.8040 H   0  0  0  0  0  0  0  0  0  0  0  0
   43.5865    6.8350   12.3552 H   0  0  0  0  0  0  0  0  0  0  0  0
   44.7007    7.5746   11.1988 H   0  0  0  0  0  0  0  0  0  0  0  0
   43.5468    6.3651   10.6436 H   0  0  0  0  0  0  0  0  0  0  0  0
   49.6149    8.2936   11.0012 H   0  0  0  0  0  0  0  0  0  0  0  0
   47.4030   10.2009   14.1503 H   0  0  0  0  0  0  0  0  0  0  0  0
   49.2122   10.2619   12.4564 H   0  0  0  0  0  0  0  0  0  0  0  0
  2  1  1  0
  3  1  1  0
  4  3  1  0
  1  5  1  0
  6  2  2  0
  7  2  1  0
  8  4  1  0
  3  9  1  0
 10  6  1  0
 11  7  2  0
 12 10  2  0
 12 11  1  0
 14 13  2  0
 15 13  2  0
 16 13  1  0
 17 13  1  0
 19 18  1  0
 20 18  1  0
 21 20  1  0
 18 22  1  0
 23 19  2  0
 24 19  1  0
 25 21  1  0
 20 26  1  0
 27 23  1  0
 28 24  2  0
 29 27  2  0
 29 28  1  0
  1 30  1  1
  3 31  1  6
  4 32  1  0
  5 33  1  0
  6 34  1  0
  7 35  1  0
  8 36  1  0
  8 37  1  0
  8 38  1  0
  9 39  1  0
  9 40  1  0
  9 41  1  0
 10 42  1  0
 11 43  1  0
 12 44  1  0
 16 45  1  0
 17 46  1  0
 18 47  1  6
 20 48  1  1
 21 49  1  0
 22 50  1  0
 23 51  1  0
 24 52  1  0
 25 53  1  0
 25 54  1  0
 25 55  1  0
 26 56  1  0
 26 57  1  0
 26 58  1  0
 27 59  1  0
 28 60  1  0
 29 61  1  0
M  END
> <Uni-Dock RESULT> 
ENERGY=   -4.986  LOWER_BOUND=    1.636  UPPER_BOUND=    4.496
INTER + INTRA:          -4.986
INTER:                  -4.986
INTRA:                   0.000
UNBOUND:                 0.000

$$$$

     RDKit          3D

 61 60  0  0  0  0  0  0  0  0999 V2000
   48.8508    7.4851   14.0135 C   0  0  1  0  0  0  0  0  0  0  0  0
   47.5239    7.5596   13.2755 C   0  0  0  0  0  0  0  0  0  0  0  0
   50.0604    8.1739   13.2986 C   0  0  1  0  0  0  0  0  0  0  0  0
   50.3532    7.5234   12.0025 N   0  0  0  0  0  0  0  0  0  0  0  0
   48.7017    8.0072   15.3406 O   0  0  0  0  0  0  0  0  0  0  0  0
   46.6539    8.6505   13.4303 C   0  0  0  0  0  0  0  0  0  0  0  0
   47.1498    6.5225   12.4065 C   0  0  0  0  0  0  0  0  0  0  0  0
   51.6521    7.8870   11.4570 C   0  0  0  0  0  0  0  0  0  0  0  0
   49.8639    9.6897   13.1523 C   0  0  0  0  0  0  0  0  0  0  0  0
   45.4423    8.7000   12.7384 C   0  0  0  0  0  0  0  0  0  0  0  0
   45.9381    6.5730   11.7152 C   0  0  0  0  0  0  0  0  0  0  0  0
   45.0845    7.6611   11.8820 C   0  0  0  0  0  0  0  0  0  0  0  0
   48.4985    8.2029   12.3500 S   0  0  0  0  0  0  0  0  0  0  0  0
   49.5146    7.7809   11.4197 O   0  0  0  0  0  0  0  0  0  0  0  0
   47.4676    9.1583   12.0336 O   0  0  0  0  0  0  0  0  0  0  0  0
   49.2674    8.7051   13.6657 O   0  0  0  0  0  0  0  0  0  0  0  0
   47.7510    6.8978   12.9076 O   0  0  0  0  0  0  0  0  0  0  0  0
   48.8147    8.1781   13.5616 C   0  0  1  0  0  0  0  0  0  0  0  0
   47.4407    7.7773   13.0610 C   0  0  0  0  0  0  0  0  0  0  0  0
   49.7001    8.8964   12.4935 C   0  0  1  0  0  0  0  0  0  0  0  0
   50.9131    9.5212   13.0815 N   0  0  0  0  0  0  0  0  0  0  0  0
   48.6561    9.0433   14.7002 O   0  0  0  0  0  0  0  0  0  0  0  0
   46.4922    8.7474   12.6997 C   0  0  0  0  0  0  0  0  0  0  0  0
   47.0925    6.4222   12.9572 C   0  0  0  0  0  0  0  0  0  0  0  0
   51.9305    8.5758   13.5199 C   0  0  0  0  0  0  0  0  0  0  0  0
   50.0254    7.9917   11.3011 C   0  0  0  0  0  0  0  0  0  0  0  0
   45.2294    8.3709   12.2407 C   0  0  0  0  0  0  0  0  0  0  0  0
   45.8285    6.0480   12.4974 C   0  0  0  0  0  0  0  0  0  0  0  0
   44.8984    7.0216   12.1387 C   0  0  0  0  0  0  0  0  0  0  0  0
   49.1027    6.4253   14.1539 H   0  0  0  0  0  0  0  0  0  0  0  0
   50.9219    8.0283   13.9653 H   0  0  0  0  0  0  0  0  0  0  0  0
   49.6211    7.7715   11.3347 H   0  0  0  0  0  0  0  0  0  0  0  0
   47.8661    7.6445   15.6827 H   0  0  0  0  0  0  0  0  0  0  0  0
   46.9194    9.4740   14.0908 H   0  0  0  0  0  0  0  0  0  0  0  0
   47.8088    5.6682   12.2590 H   0  0  0  0  0  0  0  0  0  0  0  0
   52.4578    7.6663   12.1644 H   0  0  0  0  0  0  0  0  0  0  0  0
   51.7004    8.9421   11.1729 H   0  0  0  0  0  0  0  0  0  0  0  0
   51.8402    7.2964   10.5547 H   0  0  0  0  0  0  0  0  0  0  0  0
   49.5572   10.1424   14.1010 H   0  0  0  0  0  0  0  0  0  0  0  0
   49.1063    9.9310   12.3995 H   0  0  0  0  0  0  0  0  0  0  0  0
   50.7950   10.1825   12.8539 H   0  0  0  0  0  0  0  0  0  0  0  0
   44.7787    9.5511   12.8669 H   0  0  0  0  0  0  0  0  0  0  0  0
   45.6621    5.7628   11.0452 H   0  0  0  0  0  0  0  0  0  0  0  0
   44.1416    7.7003   11.3432 H   0  0  0  0  0  0  0  0  0  0  0  0
   50.1188    8.2221   13.7054 H   0  0  0  0  0  0  0  0  0  0  0  0
   46.8963    7.1936   13.2849 H   0  0  0  0  0  0  0  0  0  0  0  0
   49.3379    7.2876   13.9302 H   0  0  0  0  0  0  0  0  0  0  0  0
   49.1278    9.7470   12.1008 H   0  0  0  0  0  0  0  0  0  0  0  0
   50.5853   10.0341   13.9080 H   0  0  0  0  0  0  0  0  0  0  0  0
   47.8462    8.7586   15.1582 H   0  0  0  0  0  0  0  0  0  0  0  0
   46.7351    9.8062   12.7764 H   0  0  0  0  0  0  0  0  0  0  0  0
   47.8041    5.6458   13.2305 H   0  0  0  0  0  0  0  0  0  0  0  0
   52.7465    9.1280   13.9974 H   0  0  0  0  0  0  0  0  0  0  0  0
   52.3680    8.0319   12.6773 H   0  0  0  0  0  0  0  0  0  0  0  0
   51.5469    7.8608   14.2531 H   0  0  0  0  0  0  0  0  0  0  0  0
   50.4934    7.0536   11.6173 H   0  0  0  0  0  0  0  0  0  0  0  0
   49.1176    7.7387   10.7435 H   0  0  0  0  0  0  0  0  0  0  0  0
   50.7022    8.4946   10.6015 H   0  0  0  0  0  0  0  0  0  0  0  0
   44.5046    9.1316   11.9622 H   0  0  0  0  0  0  0  0  0  0  0  0
   45.5696    4.9955   12.4161 H   0  0  0  0  0  0  0  0  0  0  0  0
   43.9153    6.7288   11.7794 H   0  0  0  0  0  0  0  0  0  0  0  0
  2  1  1  0
  3  1  1  0
  4  3  1  0
  1  5  1  0
  6  2  2  0
  7  2  1  0
  8  4  1  0
  3  9  1  0
 10  6  1  0
 11  7  2  0
 12 10  2  0
 12 11  1  0
 14 13  2  0
 15 13  2  0
 16 13  1  0
 17 13  1  0
 19 18  1  0
 20 18  1  0
 21 20  1  0
 18 22  1  0
 23 19  2  0
 24 19  1  0
 25 21  1  0
 20 26  1  0
 27 23  1  0
 28 24  2  0
 29 27  2  0
 29 28  1  0
  1 30  1  1
  3 31  1  6
  4 32  1  0
  5 33  1  0
  6 34  1  0
  7 35  1  0
  8 36  1  0
  8 37  1  0
  8 38  1  0
  9 39  1  0
  9 40  1  0
  9 41  1  0
 10 42  1  0
 11 43  1  0
 12 44  1  0
 16 45  1  0
 17 46  1  0
 18 47  1  6
 20 48  1  1
 21 49  1  0
 22 50  1  0
 23 51  1  0
 24 52  1  0
 25 53  1  0
 25 54  1  0
 25 55  1  0
 26 56  1  0
 26 57  1  0
 26 58  1  0
 27 59  1  0
 28 60  1  0
 29 61  1  0
M  END
> <Uni-Dock RESULT> 
ENERGY=   -4.768  LOWER_BOUND=    2.281  UPPER_BOUND=    3.842
INTER + INTRA:          -4.768
INTER:                  -4.768
INTRA:                   0.000
UNBOUND:                 0.000

$$$$

     RDKit          3D

 61 60  0  0  0  0  0  0  0  0999 V2000
   42.3723   10.4398   10.6318 C   0  0  1  0  0  0  0  0  0  0  0  0
   41.0746   10.8918   11.2819 C   0  0  0  0  0  0  0  0  0  0  0  0
   43.0650   11.4926    9.7043 C   0  0  1  0  0  0  0  0  0  0  0  0
   42.2048   11.8325    8.5498 N   0  0  0  0  0  0  0  0  0  0  0  0
   43.2909    9.9894   11.6364 O   0  0  0  0  0  0  0  0  0  0  0  0
   41.0633   11.5841   12.5031 C   0  0  0  0  0  0  0  0  0  0  0  0
   39.8488   10.6250   10.6517 C   0  0  0  0  0  0  0  0  0  0  0  0
   42.9147   12.5322    7.4899 C   0  0  0  0  0  0  0  0  0  0  0  0
   43.5155   12.7413   10.4760 C   0  0  0  0  0  0  0  0  0  0  0  0
   39.8595   11.9941   13.0793 C   0  0  0  0  0  0  0  0  0  0  0  0
   38.6457   11.0354   11.2287 C   0  0  0  0  0  0  0  0  0  0  0  0
   38.6515   11.7188   12.4425 C   0  0  0  0  0  0  0  0  0  0  0  0
   41.4642   12.0302   10.4030 S   0  0  0  0  0  0  0  0  0  0  0  0
   41.4084   12.3541    9.0002 O   0  0  0  0  0  0  0  0  0  0  0  0
   41.0050   12.9088   11.4485 O   0  0  0  0  0  0  0  0  0  0  0  0
   42.9845   11.6234   10.7153 O   0  0  0  0  0  0  0  0  0  0  0  0
   40.7164   10.6291   10.6279 O   0  0  0  0  0  0  0  0  0  0  0  0
   42.3856   11.2585   10.7552 C   0  0  1  0  0  0  0  0  0  0  0  0
   40.9874   11.1910   11.3380 C   0  0  0  0  0  0  0  0  0  0  0  0
   42.6637   12.5404    9.9066 C   0  0  1  0  0  0  0  0  0  0  0  0
   44.1045   12.7156    9.5890 N   0  0  0  0  0  0  0  0  0  0  0  0
   43.3374   11.1915   11.8321 O   0  0  0  0  0  0  0  0  0  0  0  0
   40.5634   12.1142   12.3071 C   0  0  0  0  0  0  0  0  0  0  0  0
   40.0931   10.1945   10.9191 C   0  0  0  0  0  0  0  0  0  0  0  0
   44.6315   11.7663    8.6183 C   0  0  0  0  0  0  0  0  0  0  0  0
   41.7745   12.6205    8.6620 C   0  0  0  0  0  0  0  0  0  0  0  0
   39.2754   12.0453   12.8395 C   0  0  0  0  0  0  0  0  0  0  0  0
   38.8049   10.1277   11.4531 C   0  0  0  0  0  0  0  0  0  0  0  0
   38.3964   11.0529   12.4116 C   0  0  0  0  0  0  0  0  0  0  0  0
   42.1570    9.5489   10.0266 H   0  0  0  0  0  0  0  0  0  0  0  0
   43.9760   11.0049    9.3298 H   0  0  0  0  0  0  0  0  0  0  0  0
   41.4254   12.4069    8.8754 H   0  0  0  0  0  0  0  0  0  0  0  0
   42.7722    9.4457   12.2545 H   0  0  0  0  0  0  0  0  0  0  0  0
   41.9979   11.8129   13.0122 H   0  0  0  0  0  0  0  0  0  0  0  0
   39.8270   10.0983    9.6989 H   0  0  0  0  0  0  0  0  0  0  0  0
   43.7791   11.9579    7.1420 H   0  0  0  0  0  0  0  0  0  0  0  0
   43.2443   13.5278    7.8006 H   0  0  0  0  0  0  0  0  0  0  0  0
   42.2443   12.6620    6.6343 H   0  0  0  0  0  0  0  0  0  0  0  0
   44.0728   12.4692   11.3784 H   0  0  0  0  0  0  0  0  0  0  0  0
   42.6654   13.3631   10.7754 H   0  0  0  0  0  0  0  0  0  0  0  0
   44.1819   13.3627    9.8689 H   0  0  0  0  0  0  0  0  0  0  0  0
   39.8656   12.5302   14.0247 H   0  0  0  0  0  0  0  0  0  0  0  0
   37.7044   10.8223   10.7288 H   0  0  0  0  0  0  0  0  0  0  0  0
   37.7147   12.0387   12.8910 H   0  0  0  0  0  0  0  0  0  0  0  0
   43.3673   11.2742    9.8839 H   0  0  0  0  0  0  0  0  0  0  0  0
   40.4965   10.5688   11.5810 H   0  0  0  0  0  0  0  0  0  0  0  0
   42.5630   10.3681   10.1402 H   0  0  0  0  0  0  0  0  0  0  0  0
   42.4212   13.4127   10.5276 H   0  0  0  0  0  0  0  0  0  0  0  0
   44.6015   12.5664   10.4746 H   0  0  0  0  0  0  0  0  0  0  0  0
   42.9391   10.6357   12.5244 H   0  0  0  0  0  0  0  0  0  0  0  0
   41.2399   12.8941   12.6537 H   0  0  0  0  0  0  0  0  0  0  0  0
   40.3910    9.4631   10.1707 H   0  0  0  0  0  0  0  0  0  0  0  0
   45.7076   11.9336    8.5059 H   0  0  0  0  0  0  0  0  0  0  0  0
   44.1849   11.9081    7.6296 H   0  0  0  0  0  0  0  0  0  0  0  0
   44.4933   10.7282    8.9332 H   0  0  0  0  0  0  0  0  0  0  0  0
   41.8627   11.7237    8.0399 H   0  0  0  0  0  0  0  0  0  0  0  0
   40.7212   12.7293    8.9406 H   0  0  0  0  0  0  0  0  0  0  0  0
   42.0361   13.4905    8.0495 H   0  0  0  0  0  0  0  0  0  0  0  0
   38.9586   12.7671   13.5879 H   0  0  0  0  0  0  0  0  0  0  0  0
   38.1177    9.3547   11.1189 H   0  0  0  0  0  0  0  0  0  0  0  0
   37.3926   11.0008   12.8251 H   0  0  0  0  0  0  0  0  0  0  0  0
  2  1  1  0
  3  1  1  0
  4  3  1  0
  1  5  1  0
  6  2  2  0
  7  2  1  0
  8  4  1  0
  3  9  1  0
 10  6  1  0
 11  7  2  0
 12 10  2  0
 12 11  1  0
 14 13  2  0
 15 13  2  0
 16 13  1  0
 17 13  1  0
 19 18  1  0
 20 18  1  0
 21 20  1  0
 18 22  1  0
 23 19  2  0
 24 19  1  0
 25 21  1  0
 20 26  1  0
 27 23  1  0
 28 24  2  0
 29 27  2  0
 29 28  1  0
  1 30  1  1
  3 31  1  6
  4 32  1  0
  5 33  1  0
  6 34  1  0
  7 35  1  0
  8 36  1  0
  8 37  1  0
  8 38  1  0
  9 39  1  0
  9 40  1  0
  9 41  1  0
 10 42  1  0
 11 43  1  0
 12 44  1  0
 16 45  1  0
 17 46  1  0
 18 47  1  6
 20 48  1  1
 21 49  1  0
 22 50  1  0
 23 51  1  0
 24 52  1  0
 25 53  1  0
 25 54  1  0
 25 55  1  0
 26 56  1  0
 26 57  1  0
 26 58  1  0
 27 59  1  0
 28 60  1  0
 29 61  1  0
M  END
> <Uni-Dock RESULT> 
ENERGY=   -4.661  LOWER_BOUND=    6.325  UPPER_BOUND=    7.665
INTER + INTRA:          -4.661
INTER:                  -4.661
INTRA:                   0.000
UNBOUND:                 0.000

$$$$

     RDKit          3D

 61 60  0  0  0  0  0  0  0  0999 V2000
   49.0018    6.9811   16.4563 C   0  0  1  0  0  0  0  0  0  0  0  0
   48.9299    5.5116   16.8389 C   0  0  0  0  0  0  0  0  0  0  0  0
   48.9206    7.9932   17.6469 C   0  0  1  0  0  0  0  0  0  0  0  0
   47.6228    7.8860   18.3489 N   0  0  0  0  0  0  0  0  0  0  0  0
   50.1830    7.2269   15.6815 O   0  0  0  0  0  0  0  0  0  0  0  0
   50.0779    4.7838   17.1903 C   0  0  0  0  0  0  0  0  0  0  0  0
   47.6894    4.8546   16.8545 C   0  0  0  0  0  0  0  0  0  0  0  0
   47.3523    9.0098   19.2325 C   0  0  0  0  0  0  0  0  0  0  0  0
   50.1100    7.8577   18.6084 C   0  0  0  0  0  0  0  0  0  0  0  0
   49.9873    3.4360   17.5432 C   0  0  0  0  0  0  0  0  0  0  0  0
   47.6000    3.5070   17.2074 C   0  0  0  0  0  0  0  0  0  0  0  0
   48.7489    2.7981   17.5507 C   0  0  0  0  0  0  0  0  0  0  0  0
   48.7446    6.2385   18.1263 S   0  0  0  0  0  0  0  0  0  0  0  0
   47.6842    6.9389   18.8053 O   0  0  0  0  0  0  0  0  0  0  0  0
   49.5574    5.2209   18.7423 O   0  0  0  0  0  0  0  0  0  0  0  0
   49.7151    7.3624   17.5186 O   0  0  0  0  0  0  0  0  0  0  0  0
   48.1450    5.5903   16.7871 O   0  0  0  0  0  0  0  0  0  0  0  0
   49.3235    6.8671   17.2107 C   0  0  1  0  0  0  0  0  0  0  0  0
   49.0060    5.3872   17.1200 C   0  0  0  0  0  0  0  0  0  0  0  0
   49.1393    7.4744   18.6383 C   0  0  1  0  0  0  0  0  0  0  0  0
   49.7193    8.8368   18.7603 N   0  0  0  0  0  0  0  0  0  0  0  0
   50.6816    7.0740   16.7831 O   0  0  0  0  0  0  0  0  0  0  0  0
   49.7892    4.4376   17.7954 C   0  0  0  0  0  0  0  0  0  0  0  0
   47.9216    4.9417   16.3495 C   0  0  0  0  0  0  0  0  0  0  0  0
   48.9842    9.8749   18.0511 C   0  0  0  0  0  0  0  0  0  0  0  0
   47.6854    7.4107   19.1163 C   0  0  0  0  0  0  0  0  0  0  0  0
   49.4914    3.0773   17.7065 C   0  0  0  0  0  0  0  0  0  0  0  0
   47.6255    3.5801   16.2622 C   0  0  0  0  0  0  0  0  0  0  0  0
   48.4092    2.6492   16.9409 C   0  0  0  0  0  0  0  0  0  0  0  0
   48.1676    7.1961   15.7749 H   0  0  0  0  0  0  0  0  0  0  0  0
   48.9911    8.9918   17.1933 H   0  0  0  0  0  0  0  0  0  0  0  0
   47.6082    7.0177   18.8868 H   0  0  0  0  0  0  0  0  0  0  0  0
   50.2477    6.4938   15.0451 H   0  0  0  0  0  0  0  0  0  0  0  0
   51.0532    5.2671   17.1954 H   0  0  0  0  0  0  0  0  0  0  0  0
   46.7806    5.3960   16.5960 H   0  0  0  0  0  0  0  0  0  0  0  0
   47.3957    9.9611   18.6928 H   0  0  0  0  0  0  0  0  0  0  0  0
   48.0423    9.0443   20.0805 H   0  0  0  0  0  0  0  0  0  0  0  0
   46.3404    8.9115   19.6383 H   0  0  0  0  0  0  0  0  0  0  0  0
   51.0598    7.8461   18.0638 H   0  0  0  0  0  0  0  0  0  0  0  0
   50.0485    6.9416   19.2050 H   0  0  0  0  0  0  0  0  0  0  0  0
   50.1552    8.7024   19.3036 H   0  0  0  0  0  0  0  0  0  0  0  0
   50.8841    2.8848   17.8140 H   0  0  0  0  0  0  0  0  0  0  0  0
   46.6325    3.0118   17.2157 H   0  0  0  0  0  0  0  0  0  0  0  0
   48.6789    1.7491   17.8261 H   0  0  0  0  0  0  0  0  0  0  0  0
   49.1706    8.1618   17.3635 H   0  0  0  0  0  0  0  0  0  0  0  0
   48.7670    4.8885   16.5025 H   0  0  0  0  0  0  0  0  0  0  0  0
   48.6961    7.4146   16.4974 H   0  0  0  0  0  0  0  0  0  0  0  0
   49.7312    6.8707   19.3385 H   0  0  0  0  0  0  0  0  0  0  0  0
   50.6554    8.7756   18.3436 H   0  0  0  0  0  0  0  0  0  0  0  0
   50.8679    6.4015   16.1051 H   0  0  0  0  0  0  0  0  0  0  0  0
   50.6401    4.7565   18.3957 H   0  0  0  0  0  0  0  0  0  0  0  0
   47.2958    5.6517   15.8127 H   0  0  0  0  0  0  0  0  0  0  0  0
   49.5263   10.8215   18.1450 H   0  0  0  0  0  0  0  0  0  0  0  0
   47.9917   10.0353   18.4827 H   0  0  0  0  0  0  0  0  0  0  0  0
   48.8849    9.6598   16.9834 H   0  0  0  0  0  0  0  0  0  0  0  0
   47.0019    7.8883   18.4065 H   0  0  0  0  0  0  0  0  0  0  0  0
   47.3609    6.3726   19.2430 H   0  0  0  0  0  0  0  0  0  0  0  0
   47.5710    7.9037   20.0881 H   0  0  0  0  0  0  0  0  0  0  0  0
   50.1043    2.3522   18.2357 H   0  0  0  0  0  0  0  0  0  0  0  0
   46.7804    3.2451   15.6663 H   0  0  0  0  0  0  0  0  0  0  0  0
   48.1765    1.5897   16.8734 H   0  0  0  0  0  0  0  0  0  0  0  0
  2  1  1  0
  3  1  1  0
  4  3  1  0
  1  5  1  0
  6  2  2  0
  7  2  1  0
  8  4  1  0
  3  9  1  0
 10  6  1  0
 11  7  2  0
 12 10  2  0
 12 11  1  0
 14 13  2  0
 15 13  2  0
 16 13  1  0
 17 13  1  0
 19 18  1  0
 20 18  1  0
 21 20  1  0
 18 22  1  0
 23 19  2  0
 24 19  1  0
 25 21  1  0
 20 26  1  0
 27 23  1  0
 28 24  2  0
 29 27  2  0
 29 28  1  0
  1 30  1  1
  3 31  1  6
  4 32  1  0
  5 33  1  0
  6 34  1  0
  7 35  1  0
  8 36  1  0
  8 37  1  0
  8 38  1  0
  9 39  1  0
  9 40  1  0
  9 41  1  0
 10 42  1  0
 11 43  1  0
 12 44  1  0
 16 45  1  0
 17 46  1  0
 18 47  1  6
 20 48  1  1
 21 49  1  0
 22 50  1  0
 23 51  1  0
 24 52  1  0
 25 53  1  0
 25 54  1  0
 25 55  1  0
 26 56  1  0
 26 57  1  0
 26 58  1  0
 27 59  1  0
 28 60  1  0
 29 61  1  0
M  END
> <Uni-Dock RESULT> 
ENERGY=   -4.605  LOWER_BOUND=    5.397  UPPER_BOUND=    6.640
INTER + INTRA:          -4.605
INTER:                  -4.605
INTRA:                   0.000
UNBOUND:                 0.000

$$$$
