
     RDKit          3D

 52 49  0  0  0  0  0  0  0  0999 V2000
    0.0000    0.0000    0.0000 Na  0  0  0  0  0 15  0  0  0  0  0  0
    0.1823   -2.0576    0.8438 C   0  0  0  0  0  0  0  0  0  0  0  0
   -0.0710   -3.1916    0.3443 O   0  0  0  0  0  0  0  0  0  0  0  0
    0.6226   -1.7679    1.9916 O   0  0  0  0  0  0  0  0  0  0  0  0
   -0.0989   -0.8674   -0.0971 C   0  0  0  0  0  0  0  0  0  0  0  0
   -1.4394   -0.2885    0.3898 C   0  0  0  0  0  0  0  0  0  0  0  0
    1.0352    0.1664   -0.0820 C   0  0  0  0  0  0  0  0  0  0  0  0
    2.3507   -0.4049   -0.6222 C   0  0  0  0  0  0  0  0  0  0  0  0
   -2.0553    0.7092   -0.5950 C   0  0  0  0  0  0  0  0  0  0  0  0
   -3.4234    1.1797   -0.1244 C   0  0  0  0  0  0  0  0  0  0  0  0
    3.4455    0.6507   -0.6465 C   0  0  0  0  0  0  0  0  0  0  0  0
    0.1857    1.5283    0.7219 C   0  0  0  0  0  0  0  0  0  0  0  0
   -0.3445    2.4411    0.1119 O   0  0  0  0  0  0  0  0  0  0  0  0
    0.4097    0.1096    0.2400 C   0  0  0  0  0  0  0  0  0  0  0  0
    0.6357    1.7204    1.9779 O   0  0  0  0  0  0  0  0  0  0  0  0
    0.4944    0.0390   -1.2952 C   0  0  0  0  0  0  0  0  0  0  0  0
   -0.6760   -0.8171    0.8202 C   0  0  0  0  0  0  0  0  0  0  0  0
    1.7192    0.7361   -1.9028 C   0  0  0  0  0  0  0  0  0  0  0  0
   -2.0917   -0.5667    0.2905 C   0  0  0  0  0  0  0  0  0  0  0  0
   -3.1020   -1.4855    0.9623 C   0  0  0  0  0  0  0  0  0  0  0  0
    3.0423    0.0868   -1.5267 C   0  0  0  0  0  0  0  0  0  0  0  0
   -0.2221   -1.2493   -1.1192 H   0  0  0  0  0  0  0  0  0  0  0  0
   -1.3072    0.1991    1.3647 H   0  0  0  0  0  0  0  0  0  0  0  0
   -2.1549   -1.1065    0.5499 H   0  0  0  0  0  0  0  0  0  0  0  0
    0.7565    1.0269   -0.7008 H   0  0  0  0  0  0  0  0  0  0  0  0
    1.1936    0.5501    0.9336 H   0  0  0  0  0  0  0  0  0  0  0  0
    2.6851   -1.2457   -0.0046 H   0  0  0  0  0  0  0  0  0  0  0  0
    2.1993   -0.7879   -1.6381 H   0  0  0  0  0  0  0  0  0  0  0  0
   -2.1566    0.2438   -1.5822 H   0  0  0  0  0  0  0  0  0  0  0  0
   -1.4069    1.5837   -0.7107 H   0  0  0  0  0  0  0  0  0  0  0  0
   -3.8458    1.8919   -0.8401 H   0  0  0  0  0  0  0  0  0  0  0  0
   -4.1181    0.3387   -0.0326 H   0  0  0  0  0  0  0  0  0  0  0  0
   -3.3537    1.6764    0.8487 H   0  0  0  0  0  0  0  0  0  0  0  0
    3.1651    1.4925   -1.2877 H   0  0  0  0  0  0  0  0  0  0  0  0
    3.6421    1.0348    0.3595 H   0  0  0  0  0  0  0  0  0  0  0  0
    4.3752    0.2233   -1.0349 H   0  0  0  0  0  0  0  0  0  0  0  0
    1.3705   -0.2215    0.6522 H   0  0  0  0  0  0  0  0  0  0  0  0
    0.4239    2.6594    2.1628 H   0  0  0  0  0  0  0  0  0  0  0  0
   -0.3982    0.4966   -1.7396 H   0  0  0  0  0  0  0  0  0  0  0  0
    0.4982   -1.0121   -1.6106 H   0  0  0  0  0  0  0  0  0  0  0  0
   -0.6845   -0.7173    1.9135 H   0  0  0  0  0  0  0  0  0  0  0  0
   -0.3975   -1.8574    0.6076 H   0  0  0  0  0  0  0  0  0  0  0  0
    1.7392    1.7942   -1.6201 H   0  0  0  0  0  0  0  0  0  0  0  0
    1.6208    0.7073   -2.9949 H   0  0  0  0  0  0  0  0  0  0  0  0
   -2.1300   -0.7388   -0.7903 H   0  0  0  0  0  0  0  0  0  0  0  0
   -2.3871    0.4729    0.4682 H   0  0  0  0  0  0  0  0  0  0  0  0
   -4.1064   -1.2940    0.5719 H   0  0  0  0  0  0  0  0  0  0  0  0
   -3.1217   -1.3226    2.0445 H   0  0  0  0  0  0  0  0  0  0  0  0
   -2.8601   -2.5367    0.7766 H   0  0  0  0  0  0  0  0  0  0  0  0
    3.8599    0.5505   -2.0883 H   0  0  0  0  0  0  0  0  0  0  0  0
    3.0367   -0.9827   -1.7592 H   0  0  0  0  0  0  0  0  0  0  0  0
    3.2636    0.2103   -0.4628 H   0  0  0  0  0  0  0  0  0  0  0  0
  3  2  1  0
  4  2  2  0
  5  2  1  0
  6  5  1  0
  7  5  1  0
  8  7  1  0
  9  6  1  0
 10  9  1  0
 11  8  1  0
 13 12  2  0
 14 12  1  0
 15 12  1  0
 16 14  1  0
 17 14  1  0
 18 16  1  0
 19 17  1  0
 20 19  1  0
 21 18  1  0
  5 22  1  0
  6 23  1  0
  6 24  1  0
  7 25  1  0
  7 26  1  0
  8 27  1  0
  8 28  1  0
  9 29  1  0
  9 30  1  0
 10 31  1  0
 10 32  1  0
 10 33  1  0
 11 34  1  0
 11 35  1  0
 11 36  1  0
 14 37  1  0
 15 38  1  0
 16 39  1  0
 16 40  1  0
 17 41  1  0
 17 42  1  0
 18 43  1  0
 18 44  1  0
 19 45  1  0
 19 46  1  0
 20 47  1  0
 20 48  1  0
 20 49  1  0
 21 50  1  0
 21 51  1  0
 21 52  1  0
M  CHG  2   1   1   3  -1
M  END
$$$$
