
     RDKit          3D

 52 49  0  0  0  0  0  0  0  0999 V2000
    0.0000    0.0000    0.0000 Na  0  0  0  0  0 15  0  0  0  0  0  0
    0.2970   -1.4324    0.5474 C   0  0  0  0  0  0  0  0  0  0  0  0
    0.1889   -1.6883    1.7816 O   0  0  0  0  0  0  0  0  0  0  0  0
    0.5143   -2.2186   -0.4167 O   0  0  0  0  0  0  0  0  0  0  0  0
    0.1297    0.0579    0.1876 C   0  0  0  0  0  0  0  0  0  0  0  0
    1.2641    0.5678   -0.7190 C   0  0  0  0  0  0  0  0  0  0  0  0
   -1.2260    0.2051   -0.5325 C   0  0  0  0  0  0  0  0  0  0  0  0
   -2.4259   -0.0933    0.3733 C   0  0  0  0  0  0  0  0  0  0  0  0
    2.5761    0.8780    0.0125 C   0  0  0  0  0  0  0  0  0  0  0  0
    3.3238   -0.3427    0.5213 C   0  0  0  0  0  0  0  0  0  0  0  0
   -3.7412    0.1571   -0.3489 C   0  0  0  0  0  0  0  0  0  0  0  0
    0.1371   -1.6329   -0.2692 C   0  0  0  0  0  0  0  0  0  0  0  0
    0.1354   -2.3040    0.7492 O   0  0  0  0  0  0  0  0  0  0  0  0
    0.0247   -0.1266   -0.3635 C   0  0  0  0  0  0  0  0  0  0  0  0
    0.2471   -2.2203   -1.4761 O   0  0  0  0  0  0  0  0  0  0  0  0
    1.2052    0.5284    0.3743 C   0  0  0  0  0  0  0  0  0  0  0  0
   -1.3141    0.3319    0.2403 C   0  0  0  0  0  0  0  0  0  0  0  0
    2.5483    0.2639   -0.3135 C   0  0  0  0  0  0  0  0  0  0  0  0
   -2.5201   -0.1315   -0.5830 C   0  0  0  0  0  0  0  0  0  0  0  0
   -3.8246    0.3820    0.0067 C   0  0  0  0  0  0  0  0  0  0  0  0
    3.6882    0.9681    0.4062 C   0  0  0  0  0  0  0  0  0  0  0  0
    0.1090    0.6604    1.1049 H   0  0  0  0  0  0  0  0  0  0  0  0
    1.4610   -0.1324   -1.5399 H   0  0  0  0  0  0  0  0  0  0  0  0
    0.9404    1.5047   -1.1913 H   0  0  0  0  0  0  0  0  0  0  0  0
   -1.2645   -0.4470   -1.4146 H   0  0  0  0  0  0  0  0  0  0  0  0
   -1.3228    1.2345   -0.9013 H   0  0  0  0  0  0  0  0  0  0  0  0
   -2.4037   -1.1361    0.7077 H   0  0  0  0  0  0  0  0  0  0  0  0
   -2.3825    0.5381    1.2682 H   0  0  0  0  0  0  0  0  0  0  0  0
    2.3873    1.5655    0.8453 H   0  0  0  0  0  0  0  0  0  0  0  0
    3.2336    1.4096   -0.6868 H   0  0  0  0  0  0  0  0  0  0  0  0
    2.8074   -0.8083    1.3641 H   0  0  0  0  0  0  0  0  0  0  0  0
    4.3188   -0.0507    0.8734 H   0  0  0  0  0  0  0  0  0  0  0  0
    3.4519   -1.0879   -0.2698 H   0  0  0  0  0  0  0  0  0  0  0  0
   -3.8226    1.2017   -0.6661 H   0  0  0  0  0  0  0  0  0  0  0  0
   -4.5847   -0.0631    0.3129 H   0  0  0  0  0  0  0  0  0  0  0  0
   -3.8292   -0.4795   -1.2351 H   0  0  0  0  0  0  0  0  0  0  0  0
    0.0574    0.1724   -1.4190 H   0  0  0  0  0  0  0  0  0  0  0  0
    0.3107   -3.1762   -1.2687 H   0  0  0  0  0  0  0  0  0  0  0  0
    1.0434    1.6128    0.4219 H   0  0  0  0  0  0  0  0  0  0  0  0
    1.2503    0.1681    1.4101 H   0  0  0  0  0  0  0  0  0  0  0  0
   -1.4118   -0.0396    1.2685 H   0  0  0  0  0  0  0  0  0  0  0  0
   -1.3279    1.4278    0.2959 H   0  0  0  0  0  0  0  0  0  0  0  0
    2.5094    0.6134   -1.3517 H   0  0  0  0  0  0  0  0  0  0  0  0
    2.7580   -0.8112   -0.3398 H   0  0  0  0  0  0  0  0  0  0  0  0
   -2.5570   -1.2258   -0.6224 H   0  0  0  0  0  0  0  0  0  0  0  0
   -2.4265    0.2283   -1.6142 H   0  0  0  0  0  0  0  0  0  0  0  0
   -3.9638    0.0157    1.0289 H   0  0  0  0  0  0  0  0  0  0  0  0
   -4.6727    0.0408   -0.5951 H   0  0  0  0  0  0  0  0  0  0  0  0
   -3.8420    1.4764    0.0280 H   0  0  0  0  0  0  0  0  0  0  0  0
    3.5339    2.0518    0.4201 H   0  0  0  0  0  0  0  0  0  0  0  0
    3.7739    0.6193    1.4402 H   0  0  0  0  0  0  0  0  0  0  0  0
    4.6376    0.7671   -0.1001 H   0  0  0  0  0  0  0  0  0  0  0  0
  3  2  1  0
  4  2  2  0
  5  2  1  0
  6  5  1  0
  7  5  1  0
  8  7  1  0
  9  6  1  0
 10  9  1  0
 11  8  1  0
 13 12  2  0
 14 12  1  0
 15 12  1  0
 16 14  1  0
 17 14  1  0
 18 16  1  0
 19 17  1  0
 20 19  1  0
 21 18  1  0
  5 22  1  0
  6 23  1  0
  6 24  1  0
  7 25  1  0
  7 26  1  0
  8 27  1  0
  8 28  1  0
  9 29  1  0
  9 30  1  0
 10 31  1  0
 10 32  1  0
 10 33  1  0
 11 34  1  0
 11 35  1  0
 11 36  1  0
 14 37  1  0
 15 38  1  0
 16 39  1  0
 16 40  1  0
 17 41  1  0
 17 42  1  0
 18 43  1  0
 18 44  1  0
 19 45  1  0
 19 46  1  0
 20 47  1  0
 20 48  1  0
 20 49  1  0
 21 50  1  0
 21 51  1  0
 21 52  1  0
M  CHG  2   1   1   3  -1
M  END
$$$$
