
     RDKit          3D

 52 49  0  0  0  0  0  0  0  0999 V2000
    0.0000    0.0000    0.0000 Na  0  0  0  0  0 15  0  0  0  0  0  0
    0.1202    1.2701    0.0948 C   0  0  0  0  0  0  0  0  0  0  0  0
    0.3252    1.9814   -0.9312 O   0  0  0  0  0  0  0  0  0  0  0  0
    0.0102    1.6210    1.3031 O   0  0  0  0  0  0  0  0  0  0  0  0
   -0.0098   -0.2360   -0.1903 C   0  0  0  0  0  0  0  0  0  0  0  0
   -1.3873   -0.7481    0.2786 C   0  0  0  0  0  0  0  0  0  0  0  0
    1.1069   -1.0056    0.5452 C   0  0  0  0  0  0  0  0  0  0  0  0
    2.5083   -0.8511   -0.0605 C   0  0  0  0  0  0  0  0  0  0  0  0
   -2.5660   -0.3556   -0.6219 C   0  0  0  0  0  0  0  0  0  0  0  0
   -3.0565    1.0713   -0.4389 C   0  0  0  0  0  0  0  0  0  0  0  0
    3.2353    0.4210    0.3451 C   0  0  0  0  0  0  0  0  0  0  0  0
   -0.1118    1.6980   -1.0992 C   0  0  0  0  0  0  0  0  0  0  0  0
    0.0517    2.4985   -0.1942 O   0  0  0  0  0  0  0  0  0  0  0  0
   -0.2221    0.1899   -0.9844 C   0  0  0  0  0  0  0  0  0  0  0  0
   -0.2038    2.1237   -2.3750 O   0  0  0  0  0  0  0  0  0  0  0  0
    1.1129   -0.4653   -1.3901 C   0  0  0  0  0  0  0  0  0  0  0  0
   -0.7206   -0.2352    0.4049 C   0  0  0  0  0  0  0  0  0  0  0  0
    2.3128   -0.2005   -0.4705 C   0  0  0  0  0  0  0  0  0  0  0  0
   -2.1911    0.1325    0.6361 C   0  0  0  0  0  0  0  0  0  0  0  0
   -2.6668   -0.3219    2.0074 C   0  0  0  0  0  0  0  0  0  0  0  0
    2.4961   -1.2517    0.6148 C   0  0  0  0  0  0  0  0  0  0  0  0
    0.0866   -0.4205   -1.2679 H   0  0  0  0  0  0  0  0  0  0  0  0
   -1.3591   -1.8459    0.2882 H   0  0  0  0  0  0  0  0  0  0  0  0
   -1.5926   -0.4425    1.3120 H   0  0  0  0  0  0  0  0  0  0  0  0
    1.1304   -0.7464    1.6109 H   0  0  0  0  0  0  0  0  0  0  0  0
    0.8674   -2.0765    0.4995 H   0  0  0  0  0  0  0  0  0  0  0  0
    3.1153   -1.6987    0.2823 H   0  0  0  0  0  0  0  0  0  0  0  0
    2.4636   -0.9232   -1.1531 H   0  0  0  0  0  0  0  0  0  0  0  0
   -2.3160   -0.5305   -1.6745 H   0  0  0  0  0  0  0  0  0  0  0  0
   -3.4031   -1.0248   -0.3859 H   0  0  0  0  0  0  0  0  0  0  0  0
   -2.3492    1.7990   -0.8415 H   0  0  0  0  0  0  0  0  0  0  0  0
   -3.2312    1.2984    0.6173 H   0  0  0  0  0  0  0  0  0  0  0  0
   -4.0019    1.2112   -0.9737 H   0  0  0  0  0  0  0  0  0  0  0  0
    3.2296    0.5512    1.4317 H   0  0  0  0  0  0  0  0  0  0  0  0
    2.7946    1.3075   -0.1150 H   0  0  0  0  0  0  0  0  0  0  0  0
    4.2794    0.3731    0.0180 H   0  0  0  0  0  0  0  0  0  0  0  0
   -0.9793   -0.1274   -1.7150 H   0  0  0  0  0  0  0  0  0  0  0  0
   -0.1120    3.0971   -2.3055 H   0  0  0  0  0  0  0  0  0  0  0  0
    0.9644   -1.5463   -1.5045 H   0  0  0  0  0  0  0  0  0  0  0  0
    1.3784   -0.0932   -2.3890 H   0  0  0  0  0  0  0  0  0  0  0  0
   -0.1121    0.2297    1.1897 H   0  0  0  0  0  0  0  0  0  0  0  0
   -0.6157   -1.3223    0.5081 H   0  0  0  0  0  0  0  0  0  0  0  0
    2.2587    0.7954   -0.0192 H   0  0  0  0  0  0  0  0  0  0  0  0
    3.2200   -0.2110   -1.0879 H   0  0  0  0  0  0  0  0  0  0  0  0
   -2.3321    1.2157    0.5529 H   0  0  0  0  0  0  0  0  0  0  0  0
   -2.8165   -0.3360   -0.1327 H   0  0  0  0  0  0  0  0  0  0  0  0
   -2.5759   -1.4076    2.1146 H   0  0  0  0  0  0  0  0  0  0  0  0
   -2.0823    0.1525    2.8022 H   0  0  0  0  0  0  0  0  0  0  0  0
   -3.7179   -0.0534    2.1521 H   0  0  0  0  0  0  0  0  0  0  0  0
    1.6694   -1.2559    1.3280 H   0  0  0  0  0  0  0  0  0  0  0  0
    3.4149   -1.0521    1.1759 H   0  0  0  0  0  0  0  0  0  0  0  0
    2.5805   -2.2530    0.1804 H   0  0  0  0  0  0  0  0  0  0  0  0
  3  2  1  0
  4  2  2  0
  5  2  1  0
  6  5  1  0
  7  5  1  0
  8  7  1  0
  9  6  1  0
 10  9  1  0
 11  8  1  0
 13 12  2  0
 14 12  1  0
 15 12  1  0
 16 14  1  0
 17 14  1  0
 18 16  1  0
 19 17  1  0
 20 19  1  0
 21 18  1  0
  5 22  1  0
  6 23  1  0
  6 24  1  0
  7 25  1  0
  7 26  1  0
  8 27  1  0
  8 28  1  0
  9 29  1  0
  9 30  1  0
 10 31  1  0
 10 32  1  0
 10 33  1  0
 11 34  1  0
 11 35  1  0
 11 36  1  0
 14 37  1  0
 15 38  1  0
 16 39  1  0
 16 40  1  0
 17 41  1  0
 17 42  1  0
 18 43  1  0
 18 44  1  0
 19 45  1  0
 19 46  1  0
 20 47  1  0
 20 48  1  0
 20 49  1  0
 21 50  1  0
 21 51  1  0
 21 52  1  0
M  CHG  2   1   1   3  -1
M  END
$$$$
