
     RDKit          2D

 21 18  0  0  0  0  0  0  0  0999 V2000
    0.3542    0.5000    0.0000 Na  0  0  0  0  0 15  0  0  0  0  0  0
   -1.6208    0.1208    0.0000 C   0  0  0  0  0  0  0  0  0  0  0  0
   -0.4958    0.7750    0.0000 O   0  0  0  0  0  0  0  0  0  0  0  0
   -1.6250   -1.1917    0.0000 O   0  0  0  0  0  0  0  0  0  0  0  0
   -2.7583    0.7833    0.0000 C   0  0  0  0  0  0  0  0  0  0  0  0
   -2.7583    2.0875    0.0000 C   0  0  0  0  0  0  0  0  0  0  0  0
   -3.8958    0.1208    0.0000 C   0  0  0  0  0  0  0  0  0  0  0  0
   -5.0333    0.7625    0.0000 C   0  0  0  0  0  0  0  0  0  0  0  0
   -1.6208    2.7375    0.0000 C   0  0  0  0  0  0  0  0  0  0  0  0
   -1.6208    4.0292    0.0000 C   0  0  0  0  0  0  0  0  0  0  0  0
   -6.1500    0.1083    0.0000 C   0  0  0  0  0  0  0  0  0  0  0  0
    2.7125   -0.0292    0.0000 C   0  0  0  0  0  0  0  0  0  0  0  0
    3.8417    0.6333    0.0000 O   0  0  0  0  0  0  0  0  0  0  0  0
    2.7167   -1.3417    0.0000 C   0  0  0  0  0  0  0  0  0  0  0  0
    1.5792    0.6208    0.0000 O   0  0  0  0  0  0  0  0  0  0  0  0
    1.5875   -2.0042    0.0000 C   0  0  0  0  0  0  0  0  0  0  0  0
    3.8542   -1.9917    0.0000 C   0  0  0  0  0  0  0  0  0  0  0  0
    0.4500   -1.3542    0.0000 C   0  0  0  0  0  0  0  0  0  0  0  0
    4.9792   -1.3250    0.0000 C   0  0  0  0  0  0  0  0  0  0  0  0
    6.1167   -1.9792    0.0000 C   0  0  0  0  0  0  0  0  0  0  0  0
   -0.6750   -2.0167    0.0000 C   0  0  0  0  0  0  0  0  0  0  0  0
  3  2  1  0
  4  2  2  0
  5  2  1  0
  6  5  1  0
  7  5  1  0
  8  7  1  0
  9  6  1  0
 10  9  1  0
 11  8  1  0
 13 12  2  0
 14 12  1  0
 15 12  1  0
 16 14  1  0
 17 14  1  0
 18 16  1  0
 19 17  1  0
 20 19  1  0
 21 18  1  0
M  CHG  2   1   1   3  -1
M  END
> <chembl_id>
CHEMBL2105613

> <chembl_pref_name>
DIVALPROEX SODIUM
