
     RDKit          3D

 52 49  0  0  0  0  0  0  0  0999 V2000
    0.0000    0.0000    0.0000 Na  0  0  0  0  0 15  0  0  0  0  0  0
    0.5508   -2.1462    0.8971 C   0  0  0  0  0  0  0  0  0  0  0  0
    1.0840   -2.7872   -0.0521 O   0  0  0  0  0  0  0  0  0  0  0  0
    0.4767   -2.4427    2.1241 O   0  0  0  0  0  0  0  0  0  0  0  0
   -0.1181   -0.8067    0.5213 C   0  0  0  0  0  0  0  0  0  0  0  0
   -1.3807   -1.1589   -0.2886 C   0  0  0  0  0  0  0  0  0  0  0  0
    0.8541    0.0758   -0.2771 C   0  0  0  0  0  0  0  0  0  0  0  0
    2.0320    0.5597    0.5748 C   0  0  0  0  0  0  0  0  0  0  0  0
   -2.6051   -0.3074    0.0710 C   0  0  0  0  0  0  0  0  0  0  0  0
   -2.4484    1.1726   -0.2358 C   0  0  0  0  0  0  0  0  0  0  0  0
    2.9561    1.4686   -0.2208 C   0  0  0  0  0  0  0  0  0  0  0  0
    0.1762   -0.0199    1.8754 C   0  0  0  0  0  0  0  0  0  0  0  0
   -0.0839    1.1361    2.1622 O   0  0  0  0  0  0  0  0  0  0  0  0
    0.4064   -0.5943    0.4920 C   0  0  0  0  0  0  0  0  0  0  0  0
    0.2755   -0.9549    2.8415 O   0  0  0  0  0  0  0  0  0  0  0  0
    0.8648    0.4868   -0.5024 C   0  0  0  0  0  0  0  0  0  0  0  0
   -0.8543   -1.3418    0.0191 C   0  0  0  0  0  0  0  0  0  0  0  0
    2.2913    0.9712   -0.2195 C   0  0  0  0  0  0  0  0  0  0  0  0
   -2.0672   -0.4462   -0.2542 C   0  0  0  0  0  0  0  0  0  0  0  0
   -3.2798   -1.2692   -0.6642 C   0  0  0  0  0  0  0  0  0  0  0  0
    2.7310    2.0206   -1.2288 C   0  0  0  0  0  0  0  0  0  0  0  0
   -0.4010   -0.2912    1.4482 H   0  0  0  0  0  0  0  0  0  0  0  0
   -1.1835   -1.0697   -1.3644 H   0  0  0  0  0  0  0  0  0  0  0  0
   -1.6656   -2.2059   -0.1199 H   0  0  0  0  0  0  0  0  0  0  0  0
    0.3228    0.9511   -0.6669 H   0  0  0  0  0  0  0  0  0  0  0  0
    1.2382   -0.4640   -1.1519 H   0  0  0  0  0  0  0  0  0  0  0  0
    1.6583    1.1055    1.4489 H   0  0  0  0  0  0  0  0  0  0  0  0
    2.6097   -0.2938    0.9467 H   0  0  0  0  0  0  0  0  0  0  0  0
   -3.4661   -0.6885   -0.4916 H   0  0  0  0  0  0  0  0  0  0  0  0
   -2.8442   -0.4345    1.1335 H   0  0  0  0  0  0  0  0  0  0  0  0
   -1.6893    1.6348    0.4020 H   0  0  0  0  0  0  0  0  0  0  0  0
   -3.3930    1.6953   -0.0539 H   0  0  0  0  0  0  0  0  0  0  0  0
   -2.1708    1.3309   -1.2826 H   0  0  0  0  0  0  0  0  0  0  0  0
    2.4225    2.3551   -0.5783 H   0  0  0  0  0  0  0  0  0  0  0  0
    3.3711    0.9441   -1.0873 H   0  0  0  0  0  0  0  0  0  0  0  0
    3.7893    1.8033    0.4050 H   0  0  0  0  0  0  0  0  0  0  0  0
    1.2179   -1.3292    0.5814 H   0  0  0  0  0  0  0  0  0  0  0  0
    0.1002   -0.4586    3.6684 H   0  0  0  0  0  0  0  0  0  0  0  0
    0.8293    0.0789   -1.5205 H   0  0  0  0  0  0  0  0  0  0  0  0
    0.1850    1.3473   -0.4771 H   0  0  0  0  0  0  0  0  0  0  0  0
   -1.1301   -2.0931    0.7706 H   0  0  0  0  0  0  0  0  0  0  0  0
   -0.6096   -1.8962   -0.8962 H   0  0  0  0  0  0  0  0  0  0  0  0
    2.9859    0.1240   -0.2589 H   0  0  0  0  0  0  0  0  0  0  0  0
    2.3571    1.3979    0.7873 H   0  0  0  0  0  0  0  0  0  0  0  0
   -2.3206    0.1350    0.6390 H   0  0  0  0  0  0  0  0  0  0  0  0
   -1.8423    0.2658   -1.0554 H   0  0  0  0  0  0  0  0  0  0  0  0
   -3.5638   -1.9705    0.1269 H   0  0  0  0  0  0  0  0  0  0  0  0
   -4.1340   -0.6133   -0.8593 H   0  0  0  0  0  0  0  0  0  0  0  0
   -3.0758   -1.8415   -1.5748 H   0  0  0  0  0  0  0  0  0  0  0  0
    2.7136    1.6178   -2.2466 H   0  0  0  0  0  0  0  0  0  0  0  0
    3.7517    2.3507   -1.0118 H   0  0  0  0  0  0  0  0  0  0  0  0
    2.0756    2.8966   -1.1942 H   0  0  0  0  0  0  0  0  0  0  0  0
  3  2  1  0
  4  2  2  0
  5  2  1  0
  6  5  1  0
  7  5  1  0
  8  7  1  0
  9  6  1  0
 10  9  1  0
 11  8  1  0
 13 12  2  0
 14 12  1  0
 15 12  1  0
 16 14  1  0
 17 14  1  0
 18 16  1  0
 19 17  1  0
 20 19  1  0
 21 18  1  0
  5 22  1  0
  6 23  1  0
  6 24  1  0
  7 25  1  0
  7 26  1  0
  8 27  1  0
  8 28  1  0
  9 29  1  0
  9 30  1  0
 10 31  1  0
 10 32  1  0
 10 33  1  0
 11 34  1  0
 11 35  1  0
 11 36  1  0
 14 37  1  0
 15 38  1  0
 16 39  1  0
 16 40  1  0
 17 41  1  0
 17 42  1  0
 18 43  1  0
 18 44  1  0
 19 45  1  0
 19 46  1  0
 20 47  1  0
 20 48  1  0
 20 49  1  0
 21 50  1  0
 21 51  1  0
 21 52  1  0
M  CHG  2   1   1   3  -1
M  END
$$$$
