
     RDKit          3D

 52 49  0  0  0  0  0  0  0  0999 V2000
    0.0000    0.0000    0.0000 Na  0  0  0  0  0 15  0  0  0  0  0  0
   -0.3608    1.5073   -0.0848 C   0  0  0  0  0  0  0  0  0  0  0  0
   -0.4260    1.7704   -1.3182 O   0  0  0  0  0  0  0  0  0  0  0  0
   -0.4334    2.2898    0.9066 O   0  0  0  0  0  0  0  0  0  0  0  0
   -0.1566    0.0244    0.2863 C   0  0  0  0  0  0  0  0  0  0  0  0
   -1.1498   -0.8990   -0.4416 C   0  0  0  0  0  0  0  0  0  0  0  0
    1.2889   -0.3489   -0.0999 C   0  0  0  0  0  0  0  0  0  0  0  0
    2.3450    0.3887    0.7307 C   0  0  0  0  0  0  0  0  0  0  0  0
   -2.5582   -0.9274    0.1651 C   0  0  0  0  0  0  0  0  0  0  0  0
   -3.3610    0.3473   -0.0326 C   0  0  0  0  0  0  0  0  0  0  0  0
    3.7500   -0.0801    0.3834 C   0  0  0  0  0  0  0  0  0  0  0  0
   -0.1951    1.0281    1.5821 C   0  0  0  0  0  0  0  0  0  0  0  0
   -0.6239    2.0243    2.1435 O   0  0  0  0  0  0  0  0  0  0  0  0
   -0.0952    0.8431    0.0810 C   0  0  0  0  0  0  0  0  0  0  0  0
    0.1779   -0.0421    2.3050 O   0  0  0  0  0  0  0  0  0  0  0  0
    1.0235   -0.1164   -0.3618 C   0  0  0  0  0  0  0  0  0  0  0  0
   -1.4748    0.4585   -0.4851 C   0  0  0  0  0  0  0  0  0  0  0  0
    2.4205    0.4470   -0.0784 C   0  0  0  0  0  0  0  0  0  0  0  0
   -1.9479   -0.9547   -0.1306 C   0  0  0  0  0  0  0  0  0  0  0  0
   -3.3320   -1.2317   -0.6994 C   0  0  0  0  0  0  0  0  0  0  0  0
    3.5087   -0.5049   -0.5506 C   0  0  0  0  0  0  0  0  0  0  0  0
   -0.2772   -0.1065    1.3694 H   0  0  0  0  0  0  0  0  0  0  0  0
   -0.7690   -1.9278   -0.3962 H   0  0  0  0  0  0  0  0  0  0  0  0
   -1.2168   -0.6481   -1.5072 H   0  0  0  0  0  0  0  0  0  0  0  0
    1.4634   -0.1546   -1.1660 H   0  0  0  0  0  0  0  0  0  0  0  0
    1.4292   -1.4276    0.0475 H   0  0  0  0  0  0  0  0  0  0  0  0
    2.1640    0.2185    1.7983 H   0  0  0  0  0  0  0  0  0  0  0  0
    2.2838    1.4684    0.5571 H   0  0  0  0  0  0  0  0  0  0  0  0
   -2.5009   -1.1620    1.2344 H   0  0  0  0  0  0  0  0  0  0  0  0
   -3.1105   -1.7506   -0.3050 H   0  0  0  0  0  0  0  0  0  0  0  0
   -3.3638    0.6556   -1.0826 H   0  0  0  0  0  0  0  0  0  0  0  0
   -2.9700    1.1671    0.5746 H   0  0  0  0  0  0  0  0  0  0  0  0
   -4.3998    0.1852    0.2738 H   0  0  0  0  0  0  0  0  0  0  0  0
    4.4887    0.4589    0.9848 H   0  0  0  0  0  0  0  0  0  0  0  0
    3.8671   -1.1503    0.5811 H   0  0  0  0  0  0  0  0  0  0  0  0
    3.9737    0.1014   -0.6727 H   0  0  0  0  0  0  0  0  0  0  0  0
    0.1538    1.8359   -0.3195 H   0  0  0  0  0  0  0  0  0  0  0  0
    0.0223    0.2338    3.2325 H   0  0  0  0  0  0  0  0  0  0  0  0
    0.9325   -0.2972   -1.4405 H   0  0  0  0  0  0  0  0  0  0  0  0
    0.9229   -1.0905    0.1313 H   0  0  0  0  0  0  0  0  0  0  0  0
   -1.4437    0.5572   -1.5779 H   0  0  0  0  0  0  0  0  0  0  0  0
   -2.2211    1.1817   -0.1307 H   0  0  0  0  0  0  0  0  0  0  0  0
    2.5427    1.4103   -0.5871 H   0  0  0  0  0  0  0  0  0  0  0  0
    2.5491    0.6285    0.9943 H   0  0  0  0  0  0  0  0  0  0  0  0
   -1.9821   -1.0838    0.9564 H   0  0  0  0  0  0  0  0  0  0  0  0
   -1.2520   -1.7009   -0.5282 H   0  0  0  0  0  0  0  0  0  0  0  0
   -4.0692   -0.5291   -0.2978 H   0  0  0  0  0  0  0  0  0  0  0  0
   -3.6524   -2.2454   -0.4393 H   0  0  0  0  0  0  0  0  0  0  0  0
   -3.3323   -1.1448   -1.7907 H   0  0  0  0  0  0  0  0  0  0  0  0
    3.4357   -1.4692   -0.0376 H   0  0  0  0  0  0  0  0  0  0  0  0
    3.4349   -0.6818   -1.6283 H   0  0  0  0  0  0  0  0  0  0  0  0
    4.4971   -0.0834   -0.3426 H   0  0  0  0  0  0  0  0  0  0  0  0
  3  2  1  0
  4  2  2  0
  5  2  1  0
  6  5  1  0
  7  5  1  0
  8  7  1  0
  9  6  1  0
 10  9  1  0
 11  8  1  0
 13 12  2  0
 14 12  1  0
 15 12  1  0
 16 14  1  0
 17 14  1  0
 18 16  1  0
 19 17  1  0
 20 19  1  0
 21 18  1  0
  5 22  1  0
  6 23  1  0
  6 24  1  0
  7 25  1  0
  7 26  1  0
  8 27  1  0
  8 28  1  0
  9 29  1  0
  9 30  1  0
 10 31  1  0
 10 32  1  0
 10 33  1  0
 11 34  1  0
 11 35  1  0
 11 36  1  0
 14 37  1  0
 15 38  1  0
 16 39  1  0
 16 40  1  0
 17 41  1  0
 17 42  1  0
 18 43  1  0
 18 44  1  0
 19 45  1  0
 19 46  1  0
 20 47  1  0
 20 48  1  0
 20 49  1  0
 21 50  1  0
 21 51  1  0
 21 52  1  0
M  CHG  2   1   1   3  -1
M  END
$$$$
