
     RDKit          3D

 52 49  0  0  0  0  0  0  0  0999 V2000
    0.0000    0.0000    0.0000 Na  0  0  0  0  0 15  0  0  0  0  0  0
   -0.7668    0.3990   -2.0122 C   0  0  0  0  0  0  0  0  0  0  0  0
   -0.9145    1.5886   -2.4155 O   0  0  0  0  0  0  0  0  0  0  0  0
   -1.0035   -0.6865   -2.6132 O   0  0  0  0  0  0  0  0  0  0  0  0
   -0.2114    0.2744   -0.5787 C   0  0  0  0  0  0  0  0  0  0  0  0
    1.2621   -0.1365   -0.7558 C   0  0  0  0  0  0  0  0  0  0  0  0
   -1.0090   -0.7320    0.2629 C   0  0  0  0  0  0  0  0  0  0  0  0
   -2.4976   -0.3971    0.4219 C   0  0  0  0  0  0  0  0  0  0  0  0
    2.0701   -0.0454    0.5415 C   0  0  0  0  0  0  0  0  0  0  0  0
    3.5398   -0.3576    0.3022 C   0  0  0  0  0  0  0  0  0  0  0  0
   -2.7517    0.9227    1.1334 C   0  0  0  0  0  0  0  0  0  0  0  0
    0.0995   -2.2375    0.5285 C   0  0  0  0  0  0  0  0  0  0  0  0
    0.3955   -2.8603    1.5368 O   0  0  0  0  0  0  0  0  0  0  0  0
   -0.3809   -0.7983    0.4962 C   0  0  0  0  0  0  0  0  0  0  0  0
    0.2428   -2.8109   -0.6788 O   0  0  0  0  0  0  0  0  0  0  0  0
   -1.1810   -0.4671   -0.7783 C   0  0  0  0  0  0  0  0  0  0  0  0
    0.8007    0.1436    0.7882 C   0  0  0  0  0  0  0  0  0  0  0  0
   -1.7788    0.9426   -0.8332 C   0  0  0  0  0  0  0  0  0  0  0  0
    1.8282    0.2501   -0.3429 C   0  0  0  0  0  0  0  0  0  0  0  0
    2.9882    1.1536    0.0491 C   0  0  0  0  0  0  0  0  0  0  0  0
   -2.7717    1.2286    0.2825 C   0  0  0  0  0  0  0  0  0  0  0  0
   -0.2432    1.2605   -0.0994 H   0  0  0  0  0  0  0  0  0  0  0  0
    1.7329    0.5116   -1.5075 H   0  0  0  0  0  0  0  0  0  0  0  0
    1.3247   -1.1594   -1.1500 H   0  0  0  0  0  0  0  0  0  0  0  0
   -0.9292   -1.7342   -0.1772 H   0  0  0  0  0  0  0  0  0  0  0  0
   -0.5695   -0.8027    1.2647 H   0  0  0  0  0  0  0  0  0  0  0  0
   -2.9954   -0.3865   -0.5540 H   0  0  0  0  0  0  0  0  0  0  0  0
   -2.9692   -1.2000    1.0016 H   0  0  0  0  0  0  0  0  0  0  0  0
    1.9822    0.9615    0.9655 H   0  0  0  0  0  0  0  0  0  0  0  0
    1.6808   -0.7487    1.2848 H   0  0  0  0  0  0  0  0  0  0  0  0
    4.0989   -0.2905    1.2407 H   0  0  0  0  0  0  0  0  0  0  0  0
    3.9813    0.3498   -0.4070 H   0  0  0  0  0  0  0  0  0  0  0  0
    3.6657   -1.3691   -0.0970 H   0  0  0  0  0  0  0  0  0  0  0  0
   -3.8238    1.0509    1.3144 H   0  0  0  0  0  0  0  0  0  0  0  0
   -2.4145    1.7733    0.5339 H   0  0  0  0  0  0  0  0  0  0  0  0
   -2.2392    0.9538    2.1000 H   0  0  0  0  0  0  0  0  0  0  0  0
   -1.0798   -0.7295    1.3407 H   0  0  0  0  0  0  0  0  0  0  0  0
    0.5815   -3.7078   -0.4751 H   0  0  0  0  0  0  0  0  0  0  0  0
   -0.5514   -0.6035   -1.6663 H   0  0  0  0  0  0  0  0  0  0  0  0
   -1.9959   -1.1963   -0.8826 H   0  0  0  0  0  0  0  0  0  0  0  0
    1.3130   -0.1995    1.6969 H   0  0  0  0  0  0  0  0  0  0  0  0
    0.4163    1.1446    1.0194 H   0  0  0  0  0  0  0  0  0  0  0  0
   -2.2956    1.0576   -1.7938 H   0  0  0  0  0  0  0  0  0  0  0  0
   -0.9848    1.6968   -0.8189 H   0  0  0  0  0  0  0  0  0  0  0  0
    1.3616    0.6555   -1.2466 H   0  0  0  0  0  0  0  0  0  0  0  0
    2.2213   -0.7411   -0.5938 H   0  0  0  0  0  0  0  0  0  0  0  0
    3.7100    1.2204   -0.7710 H   0  0  0  0  0  0  0  0  0  0  0  0
    2.6377    2.1654    0.2765 H   0  0  0  0  0  0  0  0  0  0  0  0
    3.5096    0.7637    0.9291 H   0  0  0  0  0  0  0  0  0  0  0  0
   -3.2428    2.2041    0.1244 H   0  0  0  0  0  0  0  0  0  0  0  0
   -3.5618    0.4716    0.3095 H   0  0  0  0  0  0  0  0  0  0  0  0
   -2.2812    1.2537    1.2598 H   0  0  0  0  0  0  0  0  0  0  0  0
  3  2  1  0
  4  2  2  0
  5  2  1  0
  6  5  1  0
  7  5  1  0
  8  7  1  0
  9  6  1  0
 10  9  1  0
 11  8  1  0
 13 12  2  0
 14 12  1  0
 15 12  1  0
 16 14  1  0
 17 14  1  0
 18 16  1  0
 19 17  1  0
 20 19  1  0
 21 18  1  0
  5 22  1  0
  6 23  1  0
  6 24  1  0
  7 25  1  0
  7 26  1  0
  8 27  1  0
  8 28  1  0
  9 29  1  0
  9 30  1  0
 10 31  1  0
 10 32  1  0
 10 33  1  0
 11 34  1  0
 11 35  1  0
 11 36  1  0
 14 37  1  0
 15 38  1  0
 16 39  1  0
 16 40  1  0
 17 41  1  0
 17 42  1  0
 18 43  1  0
 18 44  1  0
 19 45  1  0
 19 46  1  0
 20 47  1  0
 20 48  1  0
 20 49  1  0
 21 50  1  0
 21 51  1  0
 21 52  1  0
M  CHG  2   1   1   3  -1
M  END
$$$$
