
     RDKit          3D

 52 49  0  0  0  0  0  0  0  0999 V2000
    0.0000    0.0000    0.0000 Na  0  0  0  0  0 15  0  0  0  0  0  0
   -0.7056   -1.7057    1.1894 C   0  0  0  0  0  0  0  0  0  0  0  0
   -0.6612   -2.7578    0.4922 O   0  0  0  0  0  0  0  0  0  0  0  0
   -1.3230   -1.5017    2.2748 O   0  0  0  0  0  0  0  0  0  0  0  0
    0.1266   -0.5038    0.6745 C   0  0  0  0  0  0  0  0  0  0  0  0
    0.8940   -0.8076   -0.6247 C   0  0  0  0  0  0  0  0  0  0  0  0
   -0.7113    0.7902    0.6322 C   0  0  0  0  0  0  0  0  0  0  0  0
   -1.6737    0.9652   -0.5495 C   0  0  0  0  0  0  0  0  0  0  0  0
    1.8428    0.2942   -1.1104 C   0  0  0  0  0  0  0  0  0  0  0  0
    2.9634    0.6072   -0.1309 C   0  0  0  0  0  0  0  0  0  0  0  0
   -2.8006   -0.0522   -0.6037 C   0  0  0  0  0  0  0  0  0  0  0  0
   -0.0592   -0.4691    1.2973 C   0  0  0  0  0  0  0  0  0  0  0  0
    0.2087    0.2233    2.2662 O   0  0  0  0  0  0  0  0  0  0  0  0
    0.0412   -0.0376   -0.1498 C   0  0  0  0  0  0  0  0  0  0  0  0
   -0.4473   -1.7466    1.4633 O   0  0  0  0  0  0  0  0  0  0  0  0
   -1.2597   -0.3125   -0.9322 C   0  0  0  0  0  0  0  0  0  0  0  0
    1.2298   -0.7549   -0.8215 C   0  0  0  0  0  0  0  0  0  0  0  0
   -2.3911    0.6901   -0.6714 C   0  0  0  0  0  0  0  0  0  0  0  0
    2.5984   -0.4953   -0.1796 C   0  0  0  0  0  0  0  0  0  0  0  0
    3.0223    0.9647   -0.2163 C   0  0  0  0  0  0  0  0  0  0  0  0
   -3.0125    0.6007    0.7122 C   0  0  0  0  0  0  0  0  0  0  0  0
    0.8751   -0.3646    1.4678 H   0  0  0  0  0  0  0  0  0  0  0  0
    1.4836   -1.7238   -0.4864 H   0  0  0  0  0  0  0  0  0  0  0  0
    0.1838   -1.0333   -1.4299 H   0  0  0  0  0  0  0  0  0  0  0  0
   -0.0210    1.6437    0.6222 H   0  0  0  0  0  0  0  0  0  0  0  0
   -1.2835    0.8992    1.5621 H   0  0  0  0  0  0  0  0  0  0  0  0
   -2.1220    1.9636   -0.4697 H   0  0  0  0  0  0  0  0  0  0  0  0
   -1.1282    0.9545   -1.4988 H   0  0  0  0  0  0  0  0  0  0  0  0
    2.2922   -0.0347   -2.0555 H   0  0  0  0  0  0  0  0  0  0  0  0
    1.2894    1.2114   -1.3366 H   0  0  0  0  0  0  0  0  0  0  0  0
    3.6650    1.3186   -0.5785 H   0  0  0  0  0  0  0  0  0  0  0  0
    3.5205   -0.2975    0.1317 H   0  0  0  0  0  0  0  0  0  0  0  0
    2.5789    1.0573    0.7888 H   0  0  0  0  0  0  0  0  0  0  0  0
   -2.4302   -1.0475   -0.8618 H   0  0  0  0  0  0  0  0  0  0  0  0
   -3.3300   -0.1089    0.3524 H   0  0  0  0  0  0  0  0  0  0  0  0
   -3.5252    0.2340   -1.3731 H   0  0  0  0  0  0  0  0  0  0  0  0
    0.2209    1.0439   -0.1610 H   0  0  0  0  0  0  0  0  0  0  0  0
   -0.4427   -1.8701    2.4356 H   0  0  0  0  0  0  0  0  0  0  0  0
   -1.0378   -0.2602   -2.0062 H   0  0  0  0  0  0  0  0  0  0  0  0
   -1.6241   -1.3301   -0.7463 H   0  0  0  0  0  0  0  0  0  0  0  0
    1.2823   -0.4540   -1.8758 H   0  0  0  0  0  0  0  0  0  0  0  0
    1.0533   -1.8384   -0.8187 H   0  0  0  0  0  0  0  0  0  0  0  0
   -3.1813    0.5048   -1.4096 H   0  0  0  0  0  0  0  0  0  0  0  0
   -2.0345    1.7116   -0.8475 H   0  0  0  0  0  0  0  0  0  0  0  0
    3.3472   -1.0869   -0.7203 H   0  0  0  0  0  0  0  0  0  0  0  0
    2.6108   -0.8538    0.8557 H   0  0  0  0  0  0  0  0  0  0  0  0
    4.0488    1.0664    0.1506 H   0  0  0  0  0  0  0  0  0  0  0  0
    2.9869    1.3592   -1.2366 H   0  0  0  0  0  0  0  0  0  0  0  0
    2.3827    1.5848    0.4183 H   0  0  0  0  0  0  0  0  0  0  0  0
   -3.9162    1.2175    0.7558 H   0  0  0  0  0  0  0  0  0  0  0  0
   -2.3322    0.9710    1.4829 H   0  0  0  0  0  0  0  0  0  0  0  0
   -3.2948   -0.4284    0.9549 H   0  0  0  0  0  0  0  0  0  0  0  0
  3  2  1  0
  4  2  2  0
  5  2  1  0
  6  5  1  0
  7  5  1  0
  8  7  1  0
  9  6  1  0
 10  9  1  0
 11  8  1  0
 13 12  2  0
 14 12  1  0
 15 12  1  0
 16 14  1  0
 17 14  1  0
 18 16  1  0
 19 17  1  0
 20 19  1  0
 21 18  1  0
  5 22  1  0
  6 23  1  0
  6 24  1  0
  7 25  1  0
  7 26  1  0
  8 27  1  0
  8 28  1  0
  9 29  1  0
  9 30  1  0
 10 31  1  0
 10 32  1  0
 10 33  1  0
 11 34  1  0
 11 35  1  0
 11 36  1  0
 14 37  1  0
 15 38  1  0
 16 39  1  0
 16 40  1  0
 17 41  1  0
 17 42  1  0
 18 43  1  0
 18 44  1  0
 19 45  1  0
 19 46  1  0
 20 47  1  0
 20 48  1  0
 20 49  1  0
 21 50  1  0
 21 51  1  0
 21 52  1  0
M  CHG  2   1   1   3  -1
M  END
$$$$
