
     RDKit          3D

 29 28  0  0  0  0  0  0  0  0999 V2000
    2.9479   -1.2647   -0.0362 O   0  0  0  0  0  0  0  0  0  0  0  0
    2.4142   -0.1282    0.0786 C   0  0  0  0  0  0  0  0  0  0  0  0
    2.9378    1.0164    0.2354 O   0  0  0  0  0  0  0  0  0  0  0  0
    0.8553   -0.0850    0.0231 C   0  0  0  0  0  0  0  0  0  0  0  0
    0.1436   -1.2069   -0.1384 C   0  0  0  0  0  0  0  0  0  0  0  0
   -1.3264   -1.1178   -0.1849 C   0  0  0  0  0  0  0  0  0  0  0  0
   -2.0274   -2.1153   -0.3311 O   0  0  0  0  0  0  0  0  0  0  0  0
   -1.8619    0.1342   -0.0564 N   0  0  0  0  0  0  0  0  0  0  0  0
   -1.1444    1.2875    0.1091 C   0  0  0  0  0  0  0  0  0  0  0  0
   -1.7003    2.3774    0.2174 O   0  0  0  0  0  0  0  0  0  0  0  0
    0.2071    1.1298    0.1428 N   0  0  0  0  0  0  0  0  0  0  0  0
    0.0000    0.0000    0.0000 Mg  0  0  0  0  0 15  0  0  0  0  0  0
    2.6858    1.5490    0.3253 O   0  0  0  0  0  0  0  0  0  0  0  0
    2.3935    0.3363    0.0956 C   0  0  0  0  0  0  0  0  0  0  0  0
    3.1369   -0.6666   -0.0809 O   0  0  0  0  0  0  0  0  0  0  0  0
    0.8556    0.0806    0.0268 C   0  0  0  0  0  0  0  0  0  0  0  0
    0.3742   -1.1458   -0.2081 C   0  0  0  0  0  0  0  0  0  0  0  0
   -1.0852   -1.3399   -0.2643 C   0  0  0  0  0  0  0  0  0  0  0  0
   -1.5802   -2.4435   -0.4766 O   0  0  0  0  0  0  0  0  0  0  0  0
   -1.8528   -0.2250   -0.0674 N   0  0  0  0  0  0  0  0  0  0  0  0
   -1.3718    1.0332    0.1734 C   0  0  0  0  0  0  0  0  0  0  0  0
   -2.1280    1.9866    0.3404 O   0  0  0  0  0  0  0  0  0  0  0  0
   -0.0153    1.1379    0.2116 N   0  0  0  0  0  0  0  0  0  0  0  0
    0.6005   -2.1834   -0.2371 H   0  0  0  0  0  0  0  0  0  0  0  0
   -2.8623    0.2178   -0.0853 H   0  0  0  0  0  0  0  0  0  0  0  0
    0.8164    1.9381    0.2629 H   0  0  0  0  0  0  0  0  0  0  0  0
    1.0114   -2.0079   -0.3598 H   0  0  0  0  0  0  0  0  0  0  0  0
   -2.8504   -0.3347   -0.1016 H   0  0  0  0  0  0  0  0  0  0  0  0
    0.4263    2.0400    0.3856 H   0  0  0  0  0  0  0  0  0  0  0  0
  1  2  1  0
  2  3  2  0
  2  4  1  0
  4  5  2  0
  5  6  1  0
  6  7  2  0
  6  8  1  0
  8  9  1  0
  9 10  2  0
  9 11  1  0
  4 11  1  0
 13 14  1  0
 14 15  2  0
 14 16  1  0
 16 17  2  0
 17 18  1  0
 18 19  2  0
 18 20  1  0
 20 21  1  0
 21 22  2  0
 21 23  1  0
 16 23  1  0
  5 24  1  0
  8 25  1  0
 11 26  1  0
 17 27  1  0
 20 28  1  0
 23 29  1  0
M  CHG  3   1  -1  12   2  13  -1
M  END
$$$$
