
     RDKit          3D

 29 28  0  0  0  0  0  0  0  0999 V2000
    2.8775    1.4094   -0.1559 O   0  0  0  0  0  0  0  0  0  0  0  0
    2.4038    0.2416   -0.1192 C   0  0  0  0  0  0  0  0  0  0  0  0
    2.9862   -0.8852   -0.1341 O   0  0  0  0  0  0  0  0  0  0  0  0
    0.8495    0.1254   -0.0426 C   0  0  0  0  0  0  0  0  0  0  0  0
    0.0805    1.2204   -0.0183 C   0  0  0  0  0  0  0  0  0  0  0  0
   -1.3826    1.0623    0.0543 C   0  0  0  0  0  0  0  0  0  0  0  0
   -2.1345    2.0328    0.0793 O   0  0  0  0  0  0  0  0  0  0  0  0
   -1.8521   -0.2218    0.0923 N   0  0  0  0  0  0  0  0  0  0  0  0
   -1.0756   -1.3483    0.0680 C   0  0  0  0  0  0  0  0  0  0  0  0
   -1.5739   -2.4703    0.1054 O   0  0  0  0  0  0  0  0  0  0  0  0
    0.2656   -1.1266    0.0005 N   0  0  0  0  0  0  0  0  0  0  0  0
    0.0000    0.0000    0.0000 Mg  0  0  0  0  0 15  0  0  0  0  0  0
    3.0084    0.7760   -0.2571 O   0  0  0  0  0  0  0  0  0  0  0  0
    2.3955   -0.3224   -0.0936 C   0  0  0  0  0  0  0  0  0  0  0  0
    2.8367   -1.4978    0.0211 O   0  0  0  0  0  0  0  0  0  0  0  0
    0.8455   -0.1537   -0.0283 C   0  0  0  0  0  0  0  0  0  0  0  0
    0.0469   -1.2142    0.1409 C   0  0  0  0  0  0  0  0  0  0  0  0
   -1.4108   -1.0070    0.1965 C   0  0  0  0  0  0  0  0  0  0  0  0
   -2.1889   -1.9444    0.3501 O   0  0  0  0  0  0  0  0  0  0  0  0
   -1.8447    0.2838    0.0678 N   0  0  0  0  0  0  0  0  0  0  0  0
   -1.0378    1.3752   -0.1055 C   0  0  0  0  0  0  0  0  0  0  0  0
   -1.5048    2.5061   -0.2134 O   0  0  0  0  0  0  0  0  0  0  0  0
    0.2964    1.1091   -0.1474 N   0  0  0  0  0  0  0  0  0  0  0  0
    0.4859    2.2239   -0.0498 H   0  0  0  0  0  0  0  0  0  0  0  0
   -2.8465   -0.3526    0.1419 H   0  0  0  0  0  0  0  0  0  0  0  0
    0.9161   -1.9111   -0.0217 H   0  0  0  0  0  0  0  0  0  0  0  0
    0.4243   -2.2241    0.2395 H   0  0  0  0  0  0  0  0  0  0  0  0
   -2.8348    0.4478    0.1029 H   0  0  0  0  0  0  0  0  0  0  0  0
    0.9680    1.8655   -0.2737 H   0  0  0  0  0  0  0  0  0  0  0  0
  1  2  1  0
  2  3  2  0
  2  4  1  0
  4  5  2  0
  5  6  1  0
  6  7  2  0
  6  8  1  0
  8  9  1  0
  9 10  2  0
  9 11  1  0
  4 11  1  0
 13 14  1  0
 14 15  2  0
 14 16  1  0
 16 17  2  0
 17 18  1  0
 18 19  2  0
 18 20  1  0
 20 21  1  0
 21 22  2  0
 21 23  1  0
 16 23  1  0
  5 24  1  0
  8 25  1  0
 11 26  1  0
 17 27  1  0
 20 28  1  0
 23 29  1  0
M  CHG  3   1  -1  12   2  13  -1
M  END
$$$$
