
     RDKit          2D

 23 22  0  0  0  0  0  0  0  0999 V2000
   -0.7145   -2.8500    0.0000 O   0  0  0  0  0  0  0  0  0  0  0  0
    0.0000   -3.2625    0.0000 C   0  0  0  0  0  0  0  0  0  0  0  0
    0.7145   -2.8500    0.0000 O   0  0  0  0  0  0  0  0  0  0  0  0
    0.0000   -4.0875    0.0000 C   0  0  0  0  0  0  0  0  0  0  0  0
    0.7145   -4.5000    0.0000 C   0  0  0  0  0  0  0  0  0  0  0  0
    0.7145   -5.3250    0.0000 C   0  0  0  0  0  0  0  0  0  0  0  0
    1.4289   -5.7375    0.0000 O   0  0  0  0  0  0  0  0  0  0  0  0
    0.0000   -5.7375    0.0000 N   0  0  0  0  0  0  0  0  0  0  0  0
   -0.7145   -5.3250    0.0000 C   0  0  0  0  0  0  0  0  0  0  0  0
   -1.4289   -5.7375    0.0000 O   0  0  0  0  0  0  0  0  0  0  0  0
   -0.7145   -4.5000    0.0000 N   0  0  0  0  0  0  0  0  0  0  0  0
    0.0000    0.0000    0.0000 Mg  0  0  0  0  0 15  0  0  0  0  0  0
    2.7180    1.6875    0.0000 O   0  0  0  0  0  0  0  0  0  0  0  0
    3.4325    1.2750    0.0000 C   0  0  0  0  0  0  0  0  0  0  0  0
    4.1470    1.6875    0.0000 O   0  0  0  0  0  0  0  0  0  0  0  0
    3.4325    0.4500    0.0000 C   0  0  0  0  0  0  0  0  0  0  0  0
    4.1470    0.0375    0.0000 C   0  0  0  0  0  0  0  0  0  0  0  0
    4.1470   -0.7875    0.0000 C   0  0  0  0  0  0  0  0  0  0  0  0
    4.8615   -1.2000    0.0000 O   0  0  0  0  0  0  0  0  0  0  0  0
    3.4325   -1.2000    0.0000 N   0  0  0  0  0  0  0  0  0  0  0  0
    2.7180   -0.7875    0.0000 C   0  0  0  0  0  0  0  0  0  0  0  0
    2.0036   -1.2000    0.0000 O   0  0  0  0  0  0  0  0  0  0  0  0
    2.7180    0.0375    0.0000 N   0  0  0  0  0  0  0  0  0  0  0  0
  1  2  1  0
  2  3  2  0
  2  4  1  0
  4  5  2  0
  5  6  1  0
  6  7  2  0
  6  8  1  0
  8  9  1  0
  9 10  2  0
  9 11  1  0
  4 11  1  0
 13 14  1  0
 14 15  2  0
 14 16  1  0
 16 17  2  0
 17 18  1  0
 18 19  2  0
 18 20  1  0
 20 21  1  0
 21 22  2  0
 21 23  1  0
 16 23  1  0
M  CHG  3   1  -1  12   2  13  -1
M  END
> <chembl_id>
CHEMBL3707282

> <chembl_pref_name>
MAGNESIUM OROTATE
