
     RDKit          3D

 23 22  0  0  0  0  0  0  0  0999 V2000
    3.0127    0.7900   -0.1386 O   0  0  0  0  0  0  0  0  0  0  0  0
    2.1587   -0.2975   -0.0388 C   0  0  0  0  0  0  0  0  0  0  0  0
    2.5803   -1.4655    0.0315 O   0  0  0  0  0  0  0  0  0  0  0  0
    0.7193   -0.0777   -0.0144 C   0  0  0  0  0  0  0  0  0  0  0  0
    0.1699    1.1948   -0.0885 C   0  0  0  0  0  0  0  0  0  0  0  0
   -1.2086    1.3283   -0.0598 C   0  0  0  0  0  0  0  0  0  0  0  0
   -1.7265    2.4787   -0.1261 O   0  0  0  0  0  0  0  0  0  0  0  0
   -2.0037    0.2355    0.0388 N   0  0  0  0  0  0  0  0  0  0  0  0
   -1.4401   -0.9990    0.1098 C   0  0  0  0  0  0  0  0  0  0  0  0
   -2.1730   -2.0399    0.2031 O   0  0  0  0  0  0  0  0  0  0  0  0
   -0.0891   -1.1477    0.0829 N   0  0  0  0  0  0  0  0  0  0  0  0
    0.0000    0.0000    0.0000 Mg  0  0  0  0  0 15  0  0  0  0  0  0
    3.0484   -0.8352    0.3040 O   0  0  0  0  0  0  0  0  0  0  0  0
    2.1662    0.1758   -0.0482 C   0  0  0  0  0  0  0  0  0  0  0  0
    2.6115    1.2901   -0.4284 O   0  0  0  0  0  0  0  0  0  0  0  0
    0.7174    0.0143   -0.0009 C   0  0  0  0  0  0  0  0  0  0  0  0
    0.1135   -1.1573    0.3981 C   0  0  0  0  0  0  0  0  0  0  0  0
   -1.2846   -1.2021    0.4056 C   0  0  0  0  0  0  0  0  0  0  0  0
   -1.8833   -2.2351    0.7570 O   0  0  0  0  0  0  0  0  0  0  0  0
   -2.0271   -0.1361    0.0353 N   0  0  0  0  0  0  0  0  0  0  0  0
   -1.4027    0.9954   -0.3497 C   0  0  0  0  0  0  0  0  0  0  0  0
   -2.0155    2.0342   -0.7099 O   0  0  0  0  0  0  0  0  0  0  0  0
   -0.0437    1.0559   -0.3628 N   0  0  0  0  0  0  0  0  0  0  0  0
  1  2  1  0
  2  3  2  0
  2  4  1  0
  4  5  2  0
  5  6  1  0
  6  7  2  0
  6  8  1  0
  8  9  1  0
  9 10  2  0
  9 11  1  0
  4 11  1  0
 13 14  1  0
 14 15  2  0
 14 16  1  0
 16 17  2  0
 17 18  1  0
 18 19  2  0
 18 20  1  0
 20 21  1  0
 21 22  2  0
 21 23  1  0
 16 23  1  0
M  CHG  3   1  -1  12   2  13  -1
M  END
