
     RDKit          3D

 29 28  0  0  0  0  0  0  0  0999 V2000
    2.9518    0.8106    0.5905 O   0  0  0  0  0  0  0  0  0  0  0  0
    2.4097   -0.2037    0.0555 C   0  0  0  0  0  0  0  0  0  0  0  0
    2.9238   -1.2491   -0.4265 O   0  0  0  0  0  0  0  0  0  0  0  0
    0.8530   -0.1079    0.0020 C   0  0  0  0  0  0  0  0  0  0  0  0
    0.1233   -1.0948   -0.5316 C   0  0  0  0  0  0  0  0  0  0  0  0
   -1.3438   -0.9608   -0.5605 C   0  0  0  0  0  0  0  0  0  0  0  0
   -2.0608   -1.8358   -1.0381 O   0  0  0  0  0  0  0  0  0  0  0  0
   -1.8578    0.1890   -0.0270 N   0  0  0  0  0  0  0  0  0  0  0  0
   -1.1218    1.2041    0.5209 C   0  0  0  0  0  0  0  0  0  0  0  0
   -1.6588    2.2082    0.9811 O   0  0  0  0  0  0  0  0  0  0  0  0
    0.2258    1.0124    0.5136 N   0  0  0  0  0  0  0  0  0  0  0  0
    0.0000    0.0000    0.0000 Mg  0  0  0  0  0 15  0  0  0  0  0  0
    3.1217    0.7256   -0.1399 O   0  0  0  0  0  0  0  0  0  0  0  0
    2.4008   -0.2878    0.0672 C   0  0  0  0  0  0  0  0  0  0  0  0
    2.7202   -1.4898    0.3164 O   0  0  0  0  0  0  0  0  0  0  0  0
    0.8573   -0.0635    0.0159 C   0  0  0  0  0  0  0  0  0  0  0  0
    0.3486    1.1485   -0.2361 C   0  0  0  0  0  0  0  0  0  0  0  0
   -1.1151    1.3131   -0.2748 C   0  0  0  0  0  0  0  0  0  0  0  0
   -1.6346    2.4024   -0.5014 O   0  0  0  0  0  0  0  0  0  0  0  0
   -1.8576    0.1876   -0.0447 N   0  0  0  0  0  0  0  0  0  0  0  0
   -1.3486   -1.0559    0.2138 C   0  0  0  0  0  0  0  0  0  0  0  0
   -2.0834   -2.0203    0.4106 O   0  0  0  0  0  0  0  0  0  0  0  0
    0.0102   -1.1335    0.2342 N   0  0  0  0  0  0  0  0  0  0  0  0
    0.5634   -1.9930   -0.9459 H   0  0  0  0  0  0  0  0  0  0  0  0
   -2.8558    0.3009   -0.0364 H   0  0  0  0  0  0  0  0  0  0  0  0
    0.8480    1.7200    0.9026 H   0  0  0  0  0  0  0  0  0  0  0  0
    0.9664    2.0196   -0.4140 H   0  0  0  0  0  0  0  0  0  0  0  0
   -2.8576    0.2773   -0.0664 H   0  0  0  0  0  0  0  0  0  0  0  0
    0.4718   -2.0233    0.4194 H   0  0  0  0  0  0  0  0  0  0  0  0
  1  2  1  0
  2  3  2  0
  2  4  1  0
  4  5  2  0
  5  6  1  0
  6  7  2  0
  6  8  1  0
  8  9  1  0
  9 10  2  0
  9 11  1  0
  4 11  1  0
 13 14  1  0
 14 15  2  0
 14 16  1  0
 16 17  2  0
 17 18  1  0
 18 19  2  0
 18 20  1  0
 20 21  1  0
 21 22  2  0
 21 23  1  0
 16 23  1  0
  5 24  1  0
  8 25  1  0
 11 26  1  0
 17 27  1  0
 20 28  1  0
 23 29  1  0
M  CHG  3   1  -1  12   2  13  -1
M  END
$$$$
