
     RDKit          3D

 61 65  0  0  0  0  0  0  0  0999 V2000
   51.3079    7.0492   18.5546 C   0  0  0  0  0  0  0  0  0  0  0  0
   52.6023    6.6112   18.8007 C   0  0  0  0  0  0  0  0  0  0  0  0
   53.5925    6.6304   17.8103 C   0  0  0  0  0  0  0  0  0  0  0  0
   53.2804    7.1097   16.5271 C   0  0  0  0  0  0  0  0  0  0  0  0
   51.9824    7.5508   16.2653 C   0  0  0  0  0  0  0  0  0  0  0  0
   50.9890    7.5226   17.2697 C   0  0  0  0  0  0  0  0  0  0  0  0
   49.6609    7.9403   17.0599 C   0  0  0  0  0  0  0  0  0  0  0  0
   48.7299    7.9187   18.0920 C   0  0  0  0  0  0  0  0  0  0  0  0
   49.1510    7.4385   19.3116 C   0  0  0  0  0  0  0  0  0  0  0  0
   50.4069    7.0035   19.5538 N   0  0  0  0  0  0  0  0  0  0  0  0
   54.8868    6.2138   18.0010 O   0  0  0  0  0  0  0  0  0  0  0  0
   54.3003    7.1061   15.6106 O   0  0  0  0  0  0  0  0  0  0  0  0
   49.2882    8.4424   15.8325 O   0  0  0  0  0  0  0  0  0  0  0  0
   48.4242    7.6846   15.0726 C   0  0  0  0  0  0  0  0  0  0  0  0
   48.3336    6.2929   15.1276 C   0  0  0  0  0  0  0  0  0  0  0  0
   47.6448    8.3884   14.1554 C   0  0  0  0  0  0  0  0  0  0  0  0
   46.7602    7.7059   13.3129 C   0  0  0  0  0  0  0  0  0  0  0  0
   46.6549    6.3104   13.3710 C   0  0  0  0  0  0  0  0  0  0  0  0
   47.4463    5.6110   14.2840 C   0  0  0  0  0  0  0  0  0  0  0  0
   45.7477    5.6967   12.4857 N   0  0  0  0  0  0  0  0  0  0  0  0
   45.5228    4.3473   12.3158 C   0  0  0  0  0  0  0  0  0  0  0  0
   46.0619    3.4097   12.8862 O   0  0  0  0  0  0  0  0  0  0  0  0
   44.4987    4.0515   11.2624 C   0  0  0  0  0  0  0  0  0  0  0  0
   43.4178    3.0188   11.5819 C   0  0  0  0  0  0  0  0  0  0  0  0
   43.0539    4.4687   11.5427 C   0  0  0  0  0  0  0  0  0  0  0  0
   44.9954    4.1514    9.8515 C   0  0  0  0  0  0  0  0  0  0  0  0
   45.5485    2.9824    9.3836 N   0  0  0  0  0  0  0  0  0  0  0  0
   44.8869    5.2220    9.2715 O   0  0  0  0  0  0  0  0  0  0  0  0
   46.1666    2.7586    8.1376 C   0  0  0  0  0  0  0  0  0  0  0  0
   47.2608    1.1605    6.6660 C   0  0  0  0  0  0  0  0  0  0  0  0
   46.6226    1.4576    7.8724 C   0  0  0  0  0  0  0  0  0  0  0  0
   46.3572    3.7543    7.1744 C   0  0  0  0  0  0  0  0  0  0  0  0
   47.0016    3.4580    5.9689 C   0  0  0  0  0  0  0  0  0  0  0  0
   47.4495    2.1673    5.7267 C   0  0  0  0  0  0  0  0  0  0  0  0
   48.0682    1.8874    4.5738 F   0  0  0  0  0  0  0  0  0  0  0  0
   55.1949    5.5752   19.2327 C   0  0  0  0  0  0  0  0  0  0  0  0
   53.9987    7.5132   14.2850 C   0  0  0  0  0  0  0  0  0  0  0  0
   52.8145    6.2544   19.8040 H   0  0  0  0  0  0  0  0  0  0  0  0
   51.7094    7.9234   15.2834 H   0  0  0  0  0  0  0  0  0  0  0  0
   47.7129    8.2614   17.9473 H   0  0  0  0  0  0  0  0  0  0  0  0
   48.4722    7.3881   20.1588 H   0  0  0  0  0  0  0  0  0  0  0  0
   48.9488    5.7105   15.8079 H   0  0  0  0  0  0  0  0  0  0  0  0
   47.7246    9.4708   14.0923 H   0  0  0  0  0  0  0  0  0  0  0  0
   46.1658    8.2820   12.6067 H   0  0  0  0  0  0  0  0  0  0  0  0
   47.4060    4.5290   14.3652 H   0  0  0  0  0  0  0  0  0  0  0  0
   45.2395    6.3143   11.8615 H   0  0  0  0  0  0  0  0  0  0  0  0
   43.4512    2.5285   12.5497 H   0  0  0  0  0  0  0  0  0  0  0  0
   43.0424    2.3867   10.7850 H   0  0  0  0  0  0  0  0  0  0  0  0
   42.4516    4.8201   10.7109 H   0  0  0  0  0  0  0  0  0  0  0  0
   42.8291    4.9585   12.4842 H   0  0  0  0  0  0  0  0  0  0  0  0
   45.5344    2.1942   10.0241 H   0  0  0  0  0  0  0  0  0  0  0  0
   47.6153    0.1601    6.4591 H   0  0  0  0  0  0  0  0  0  0  0  0
   46.4870    0.6598    8.5994 H   0  0  0  0  0  0  0  0  0  0  0  0
   46.0249    4.7744    7.3323 H   0  0  0  0  0  0  0  0  0  0  0  0
   47.1577    4.2314    5.2227 H   0  0  0  0  0  0  0  0  0  0  0  0
   55.1021    6.2722   20.0707 H   0  0  0  0  0  0  0  0  0  0  0  0
   54.5717    4.6870   19.3855 H   0  0  0  0  0  0  0  0  0  0  0  0
   56.2381    5.2487   19.1869 H   0  0  0  0  0  0  0  0  0  0  0  0
   54.9150    7.4308   13.6930 H   0  0  0  0  0  0  0  0  0  0  0  0
   53.6762    8.5605   14.2552 H   0  0  0  0  0  0  0  0  0  0  0  0
   53.2489    6.8564   13.8341 H   0  0  0  0  0  0  0  0  0  0  0  0
  1  2  2  0
  1  6  1  0
  1 10  1  0
  2  3  1  0
  3  4  2  0
  4  5  1  0
  5  6  2  0
  6  7  1  0
  7  8  2  0
  8  9  1  0
  9 10  2  0
  3 11  1  0
  4 12  1  0
  7 13  1  0
 13 14  1  0
 15 14  2  0
 14 16  1  0
 15 19  1  0
 16 17  2  0
 17 18  1  0
 18 19  2  0
 18 20  1  0
 20 21  1  0
 21 22  2  0
 21 23  1  0
 23 24  1  0
 24 25  1  0
 25 23  1  0
 23 26  1  0
 26 27  1  0
 26 28  2  0
 27 29  1  0
 31 29  1  0
 29 32  2  0
 30 31  2  0
 30 34  1  0
 32 33  1  0
 33 34  2  0
 34 35  1  0
 11 36  1  0
 12 37  1  0
  2 38  1  0
  5 39  1  0
  8 40  1  0
  9 41  1  0
 15 42  1  0
 16 43  1  0
 17 44  1  0
 19 45  1  0
 20 46  1  0
 24 47  1  0
 24 48  1  0
 25 49  1  0
 25 50  1  0
 27 51  1  0
 30 52  1  0
 31 53  1  0
 32 54  1  0
 33 55  1  0
 36 56  1  0
 36 57  1  0
 36 58  1  0
 37 59  1  0
 37 60  1  0
 37 61  1  0
M  END
> <Uni-Dock RESULT> 
ENERGY=   -7.325  LOWER_BOUND=    0.000  UPPER_BOUND=    0.000
INTER + INTRA:          -7.325
INTER:                  -7.325
INTRA:                   0.000
UNBOUND:                 0.000

$$$$

     RDKit          3D

 61 65  0  0  0  0  0  0  0  0999 V2000
   51.7841    8.4394   13.6473 C   0  0  0  0  0  0  0  0  0  0  0  0
   52.6277    8.8501   14.6708 C   0  0  0  0  0  0  0  0  0  0  0  0
   52.2135    8.8741   16.0086 C   0  0  0  0  0  0  0  0  0  0  0  0
   50.9096    8.4679   16.3380 C   0  0  0  0  0  0  0  0  0  0  0  0
   50.0502    8.0549   15.3187 C   0  0  0  0  0  0  0  0  0  0  0  0
   50.4758    8.0392   13.9714 C   0  0  0  0  0  0  0  0  0  0  0  0
   49.6496    7.6470   12.9010 C   0  0  0  0  0  0  0  0  0  0  0  0
   50.1285    7.6225   11.5961 C   0  0  0  0  0  0  0  0  0  0  0  0
   51.4270    8.0319   11.3927 C   0  0  0  0  0  0  0  0  0  0  0  0
   52.2490    8.4403   12.3840 N   0  0  0  0  0  0  0  0  0  0  0  0
   53.0070    9.2666   17.0581 O   0  0  0  0  0  0  0  0  0  0  0  0
   50.5758    8.5105   17.6672 O   0  0  0  0  0  0  0  0  0  0  0  0
   48.3656    7.2156   13.1512 O   0  0  0  0  0  0  0  0  0  0  0  0
   47.3315    8.0221   12.7286 C   0  0  0  0  0  0  0  0  0  0  0  0
   47.4108    9.4097   12.6005 C   0  0  0  0  0  0  0  0  0  0  0  0
   46.1212    7.3767   12.4778 C   0  0  0  0  0  0  0  0  0  0  0  0
   45.0007    8.1128   12.0768 C   0  0  0  0  0  0  0  0  0  0  0  0
   45.0761    9.5041   11.9341 C   0  0  0  0  0  0  0  0  0  0  0  0
   46.2880   10.1451   12.1976 C   0  0  0  0  0  0  0  0  0  0  0  0
   43.9036   10.1739   11.5342 N   0  0  0  0  0  0  0  0  0  0  0  0
   43.7195   11.5327   11.3927 C   0  0  0  0  0  0  0  0  0  0  0  0
   44.5238   12.4326   11.5888 O   0  0  0  0  0  0  0  0  0  0  0  0
   42.3273   11.8953   10.9727 C   0  0  0  0  0  0  0  0  0  0  0  0
   42.1599   12.9203    9.8510 C   0  0  0  0  0  0  0  0  0  0  0  0
   41.8796   11.4785    9.5706 C   0  0  0  0  0  0  0  0  0  0  0  0
   41.3075   11.8665   12.0711 C   0  0  0  0  0  0  0  0  0  0  0  0
   41.2134   13.0533   12.7596 N   0  0  0  0  0  0  0  0  0  0  0  0
   40.6886   10.8298   12.2625 O   0  0  0  0  0  0  0  0  0  0  0  0
   40.4127   13.3375   13.8834 C   0  0  0  0  0  0  0  0  0  0  0  0
   39.7069   15.0013   15.5114 C   0  0  0  0  0  0  0  0  0  0  0  0
   40.4593   14.6463   14.3895 C   0  0  0  0  0  0  0  0  0  0  0  0
   39.5987   12.3934   14.5168 C   0  0  0  0  0  0  0  0  0  0  0  0
   38.8499   12.7475   15.6437 C   0  0  0  0  0  0  0  0  0  0  0  0
   38.9124   14.0448   16.1321 C   0  0  0  0  0  0  0  0  0  0  0  0
   38.1972   14.3800   17.2121 F   0  0  0  0  0  0  0  0  0  0  0  0
   54.2720    9.8347   16.7465 C   0  0  0  0  0  0  0  0  0  0  0  0
   49.2430    8.1786   18.0246 C   0  0  0  0  0  0  0  0  0  0  0  0
   53.6315    9.1502   14.3853 H   0  0  0  0  0  0  0  0  0  0  0  0
   49.0362    7.7386   15.5407 H   0  0  0  0  0  0  0  0  0  0  0  0
   49.5087    7.2985   10.7693 H   0  0  0  0  0  0  0  0  0  0  0  0
   51.8615    8.0435   10.3967 H   0  0  0  0  0  0  0  0  0  0  0  0
   48.3290    9.9482   12.8185 H   0  0  0  0  0  0  0  0  0  0  0  0
   46.0460    6.2986   12.5952 H   0  0  0  0  0  0  0  0  0  0  0  0
   44.0697    7.5816   11.8892 H   0  0  0  0  0  0  0  0  0  0  0  0
   46.3977   11.2215   12.1068 H   0  0  0  0  0  0  0  0  0  0  0  0
   43.0830    9.5961   11.3853 H   0  0  0  0  0  0  0  0  0  0  0  0
   43.0560   13.3573    9.4218 H   0  0  0  0  0  0  0  0  0  0  0  0
   41.3143   13.5982    9.8801 H   0  0  0  0  0  0  0  0  0  0  0  0
   40.8458   11.1786    9.4310 H   0  0  0  0  0  0  0  0  0  0  0  0
   42.5807   10.9410    8.9409 H   0  0  0  0  0  0  0  0  0  0  0  0
   41.8138   13.8059   12.4361 H   0  0  0  0  0  0  0  0  0  0  0  0
   39.7419   16.0078   15.9053 H   0  0  0  0  0  0  0  0  0  0  0  0
   41.0800   15.4050   13.9180 H   0  0  0  0  0  0  0  0  0  0  0  0
   39.5297   11.3696   14.1656 H   0  0  0  0  0  0  0  0  0  0  0  0
   38.2230   12.0139   16.1419 H   0  0  0  0  0  0  0  0  0  0  0  0
   54.9323    9.0946   16.2851 H   0  0  0  0  0  0  0  0  0  0  0  0
   54.1630   10.7198   16.1097 H   0  0  0  0  0  0  0  0  0  0  0  0
   54.7348   10.1524   17.6855 H   0  0  0  0  0  0  0  0  0  0  0  0
   49.1516    8.2833   19.1097 H   0  0  0  0  0  0  0  0  0  0  0  0
   49.0115    7.1377   17.7700 H   0  0  0  0  0  0  0  0  0  0  0  0
   48.5298    8.8663   17.5607 H   0  0  0  0  0  0  0  0  0  0  0  0
  1  2  2  0
  1  6  1  0
  1 10  1  0
  2  3  1  0
  3  4  2  0
  4  5  1  0
  5  6  2  0
  6  7  1  0
  7  8  2  0
  8  9  1  0
  9 10  2  0
  3 11  1  0
  4 12  1  0
  7 13  1  0
 13 14  1  0
 15 14  2  0
 14 16  1  0
 15 19  1  0
 16 17  2  0
 17 18  1  0
 18 19  2  0
 18 20  1  0
 20 21  1  0
 21 22  2  0
 21 23  1  0
 23 24  1  0
 24 25  1  0
 25 23  1  0
 23 26  1  0
 26 27  1  0
 26 28  2  0
 27 29  1  0
 31 29  1  0
 29 32  2  0
 30 31  2  0
 30 34  1  0
 32 33  1  0
 33 34  2  0
 34 35  1  0
 11 36  1  0
 12 37  1  0
  2 38  1  0
  5 39  1  0
  8 40  1  0
  9 41  1  0
 15 42  1  0
 16 43  1  0
 17 44  1  0
 19 45  1  0
 20 46  1  0
 24 47  1  0
 24 48  1  0
 25 49  1  0
 25 50  1  0
 27 51  1  0
 30 52  1  0
 31 53  1  0
 32 54  1  0
 33 55  1  0
 36 56  1  0
 36 57  1  0
 36 58  1  0
 37 59  1  0
 37 60  1  0
 37 61  1  0
M  END
> <Uni-Dock RESULT> 
ENERGY=   -5.491  LOWER_BOUND=    6.512  UPPER_BOUND=    9.038
INTER + INTRA:          -5.491
INTER:                  -5.491
INTRA:                   0.000
UNBOUND:                 0.000

$$$$

     RDKit          3D

 61 65  0  0  0  0  0  0  0  0999 V2000
   55.8223    1.8576   16.7787 C   0  0  0  0  0  0  0  0  0  0  0  0
   56.1963    2.1061   15.4648 C   0  0  0  0  0  0  0  0  0  0  0  0
   56.5406    3.3895   15.0219 C   0  0  0  0  0  0  0  0  0  0  0  0
   56.5157    4.4647   15.9257 C   0  0  0  0  0  0  0  0  0  0  0  0
   56.1393    4.2295   17.2490 C   0  0  0  0  0  0  0  0  0  0  0  0
   55.7886    2.9319   17.6849 C   0  0  0  0  0  0  0  0  0  0  0  0
   55.3872    2.6377   19.0020 C   0  0  0  0  0  0  0  0  0  0  0  0
   55.0807    1.3371   19.3854 C   0  0  0  0  0  0  0  0  0  0  0  0
   55.1499    0.3609   18.4171 C   0  0  0  0  0  0  0  0  0  0  0  0
   55.5052    0.5989   17.1357 N   0  0  0  0  0  0  0  0  0  0  0  0
   56.9212    3.6893   13.7372 O   0  0  0  0  0  0  0  0  0  0  0  0
   56.8716    5.6903   15.4245 O   0  0  0  0  0  0  0  0  0  0  0  0
   55.3601    3.6385   19.9480 O   0  0  0  0  0  0  0  0  0  0  0  0
   54.1265    4.0385   20.4134 C   0  0  0  0  0  0  0  0  0  0  0  0
   52.9422    3.9695   19.6783 C   0  0  0  0  0  0  0  0  0  0  0  0
   54.1117    4.6000   21.6897 C   0  0  0  0  0  0  0  0  0  0  0  0
   52.9129    5.0686   22.2388 C   0  0  0  0  0  0  0  0  0  0  0  0
   51.7182    4.9912   21.5118 C   0  0  0  0  0  0  0  0  0  0  0  0
   51.7423    4.4380   20.2302 C   0  0  0  0  0  0  0  0  0  0  0  0
   50.5557    5.4907   22.1303 N   0  0  0  0  0  0  0  0  0  0  0  0
   49.2903    5.5814   21.5909 C   0  0  0  0  0  0  0  0  0  0  0  0
   48.9164    5.2575   20.4727 O   0  0  0  0  0  0  0  0  0  0  0  0
   48.2946    6.1911   22.5304 C   0  0  0  0  0  0  0  0  0  0  0  0
   46.9337    5.5101   22.6750 C   0  0  0  0  0  0  0  0  0  0  0  0
   47.9282    5.3979   23.7861 C   0  0  0  0  0  0  0  0  0  0  0  0
   48.3604    7.6847   22.6399 C   0  0  0  0  0  0  0  0  0  0  0  0
   47.5971    8.3350   21.6986 N   0  0  0  0  0  0  0  0  0  0  0  0
   49.0704    8.1733   23.5067 O   0  0  0  0  0  0  0  0  0  0  0  0
   47.4931    9.7231   21.4814 C   0  0  0  0  0  0  0  0  0  0  0  0
   46.4639   11.5100   20.1912 C   0  0  0  0  0  0  0  0  0  0  0  0
   46.6097   10.1507   20.4775 C   0  0  0  0  0  0  0  0  0  0  0  0
   48.2239   10.6784   22.1946 C   0  0  0  0  0  0  0  0  0  0  0  0
   48.0821   12.0391   21.9038 C   0  0  0  0  0  0  0  0  0  0  0  0
   47.2075   12.4422   20.9049 C   0  0  0  0  0  0  0  0  0  0  0  0
   47.0761   13.7445   20.6269 F   0  0  0  0  0  0  0  0  0  0  0  0
   56.8024    2.6621   12.7621 C   0  0  0  0  0  0  0  0  0  0  0  0
   56.7843    6.8097   16.2925 C   0  0  0  0  0  0  0  0  0  0  0  0
   56.2136    1.2535   14.7926 H   0  0  0  0  0  0  0  0  0  0  0  0
   56.1069    5.0397   17.9701 H   0  0  0  0  0  0  0  0  0  0  0  0
   54.7953    1.0966   20.4019 H   0  0  0  0  0  0  0  0  0  0  0  0
   54.9166   -0.6751   18.6481 H   0  0  0  0  0  0  0  0  0  0  0  0
   52.9232    3.5672   18.6691 H   0  0  0  0  0  0  0  0  0  0  0  0
   55.0337    4.6761   22.2605 H   0  0  0  0  0  0  0  0  0  0  0  0
   52.9326    5.5026   23.2364 H   0  0  0  0  0  0  0  0  0  0  0  0
   50.8451    4.3595   19.6238 H   0  0  0  0  0  0  0  0  0  0  0  0
   50.6715    5.8793   23.0603 H   0  0  0  0  0  0  0  0  0  0  0  0
   46.7392    4.6268   22.0750 H   0  0  0  0  0  0  0  0  0  0  0  0
   46.0555    6.1217   22.8491 H   0  0  0  0  0  0  0  0  0  0  0  0
   47.7336    5.9484   24.7011 H   0  0  0  0  0  0  0  0  0  0  0  0
   48.3995    4.4340   23.9463 H   0  0  0  0  0  0  0  0  0  0  0  0
   47.0669    7.7423   21.0668 H   0  0  0  0  0  0  0  0  0  0  0  0
   45.7860   11.8429   19.4173 H   0  0  0  0  0  0  0  0  0  0  0  0
   46.0244    9.4331   19.9067 H   0  0  0  0  0  0  0  0  0  0  0  0
   48.9200   10.3989   22.9778 H   0  0  0  0  0  0  0  0  0  0  0  0
   48.6544   12.7823   22.4510 H   0  0  0  0  0  0  0  0  0  0  0  0
   57.4940    1.8406   12.9703 H   0  0  0  0  0  0  0  0  0  0  0  0
   55.7700    2.3020   12.6894 H   0  0  0  0  0  0  0  0  0  0  0  0
   57.0772    3.0894   11.7931 H   0  0  0  0  0  0  0  0  0  0  0  0
   57.0847    7.6963   15.7264 H   0  0  0  0  0  0  0  0  0  0  0  0
   57.4708    6.7082   17.1411 H   0  0  0  0  0  0  0  0  0  0  0  0
   55.7559    6.9627   16.6329 H   0  0  0  0  0  0  0  0  0  0  0  0
  1  2  2  0
  1  6  1  0
  1 10  1  0
  2  3  1  0
  3  4  2  0
  4  5  1  0
  5  6  2  0
  6  7  1  0
  7  8  2  0
  8  9  1  0
  9 10  2  0
  3 11  1  0
  4 12  1  0
  7 13  1  0
 13 14  1  0
 15 14  2  0
 14 16  1  0
 15 19  1  0
 16 17  2  0
 17 18  1  0
 18 19  2  0
 18 20  1  0
 20 21  1  0
 21 22  2  0
 21 23  1  0
 23 24  1  0
 24 25  1  0
 25 23  1  0
 23 26  1  0
 26 27  1  0
 26 28  2  0
 27 29  1  0
 31 29  1  0
 29 32  2  0
 30 31  2  0
 30 34  1  0
 32 33  1  0
 33 34  2  0
 34 35  1  0
 11 36  1  0
 12 37  1  0
  2 38  1  0
  5 39  1  0
  8 40  1  0
  9 41  1  0
 15 42  1  0
 16 43  1  0
 17 44  1  0
 19 45  1  0
 20 46  1  0
 24 47  1  0
 24 48  1  0
 25 49  1  0
 25 50  1  0
 27 51  1  0
 30 52  1  0
 31 53  1  0
 32 54  1  0
 33 55  1  0
 36 56  1  0
 36 57  1  0
 36 58  1  0
 37 59  1  0
 37 60  1  0
 37 61  1  0
M  END
> <Uni-Dock RESULT> 
ENERGY=   -4.882  LOWER_BOUND=    8.762  UPPER_BOUND=   11.216
INTER + INTRA:          -4.882
INTER:                  -4.882
INTRA:                   0.000
UNBOUND:                 0.000

$$$$

     RDKit          3D

 61 65  0  0  0  0  0  0  0  0999 V2000
   49.8608    2.8487   17.4129 C   0  0  0  0  0  0  0  0  0  0  0  0
   50.9700    2.0167   17.4861 C   0  0  0  0  0  0  0  0  0  0  0  0
   52.2295    2.4923   17.8726 C   0  0  0  0  0  0  0  0  0  0  0  0
   52.3868    3.8486   18.2034 C   0  0  0  0  0  0  0  0  0  0  0  0
   51.2806    4.6967   18.1317 C   0  0  0  0  0  0  0  0  0  0  0  0
   50.0152    4.2083   17.7357 C   0  0  0  0  0  0  0  0  0  0  0  0
   48.8685    5.0186   17.6312 C   0  0  0  0  0  0  0  0  0  0  0  0
   47.6403    4.4805   17.2645 C   0  0  0  0  0  0  0  0  0  0  0  0
   47.6022    3.1355   16.9733 C   0  0  0  0  0  0  0  0  0  0  0  0
   48.6802    2.3236   17.0351 N   0  0  0  0  0  0  0  0  0  0  0  0
   53.3564    1.7134   17.9657 O   0  0  0  0  0  0  0  0  0  0  0  0
   53.6453    4.2419   18.5795 O   0  0  0  0  0  0  0  0  0  0  0  0
   48.9429    6.3540   17.9606 O   0  0  0  0  0  0  0  0  0  0  0  0
   48.8184    7.2680   16.9372 C   0  0  0  0  0  0  0  0  0  0  0  0
   49.1808    7.0265   15.6112 C   0  0  0  0  0  0  0  0  0  0  0  0
   48.3492    8.5292   17.3028 C   0  0  0  0  0  0  0  0  0  0  0  0
   48.2198    9.5380   16.3417 C   0  0  0  0  0  0  0  0  0  0  0  0
   48.5697    9.2992   15.0067 C   0  0  0  0  0  0  0  0  0  0  0  0
   49.0493    8.0375   14.6498 C   0  0  0  0  0  0  0  0  0  0  0  0
   48.4178   10.3671   14.1013 N   0  0  0  0  0  0  0  0  0  0  0  0
   48.7555   10.3896   12.7650 C   0  0  0  0  0  0  0  0  0  0  0  0
   49.2584    9.4999   12.0936 O   0  0  0  0  0  0  0  0  0  0  0  0
   48.4764   11.7091   12.1116 C   0  0  0  0  0  0  0  0  0  0  0  0
   47.7791   11.7033   10.7513 C   0  0  0  0  0  0  0  0  0  0  0  0
   47.0132   12.1298   11.9626 C   0  0  0  0  0  0  0  0  0  0  0  0
   49.4881   12.7796   12.3904 C   0  0  0  0  0  0  0  0  0  0  0  0
   50.5451   12.7739   11.5105 N   0  0  0  0  0  0  0  0  0  0  0  0
   49.3026   13.5203   13.3450 O   0  0  0  0  0  0  0  0  0  0  0  0
   51.6911   13.5929   11.5335 C   0  0  0  0  0  0  0  0  0  0  0  0
   53.7899   14.1877   10.4572 C   0  0  0  0  0  0  0  0  0  0  0  0
   52.6206   13.4247   10.4948 C   0  0  0  0  0  0  0  0  0  0  0  0
   51.9507   14.5390   12.5300 C   0  0  0  0  0  0  0  0  0  0  0  0
   53.1243   15.2988   12.4954 C   0  0  0  0  0  0  0  0  0  0  0  0
   54.0333   15.1151   11.4632 C   0  0  0  0  0  0  0  0  0  0  0  0
   55.1567   15.8414   11.4342 F   0  0  0  0  0  0  0  0  0  0  0  0
   53.2716    0.3784   17.4855 C   0  0  0  0  0  0  0  0  0  0  0  0
   53.8543    5.6198   18.8472 C   0  0  0  0  0  0  0  0  0  0  0  0
   50.8146    0.9724   17.2323 H   0  0  0  0  0  0  0  0  0  0  0  0
   51.3707    5.7497   18.3776 H   0  0  0  0  0  0  0  0  0  0  0  0
   46.7474    5.0905   17.2055 H   0  0  0  0  0  0  0  0  0  0  0  0
   46.6757    2.6530   16.6737 H   0  0  0  0  0  0  0  0  0  0  0  0
   49.5796    6.0656   15.2978 H   0  0  0  0  0  0  0  0  0  0  0  0
   48.0843    8.7313   18.3376 H   0  0  0  0  0  0  0  0  0  0  0  0
   47.8519   10.5123   16.6571 H   0  0  0  0  0  0  0  0  0  0  0  0
   49.3387    7.8028   13.6300 H   0  0  0  0  0  0  0  0  0  0  0  0
   48.0709   11.2391   14.4870 H   0  0  0  0  0  0  0  0  0  0  0  0
   47.5356   10.7433   10.3072 H   0  0  0  0  0  0  0  0  0  0  0  0
   48.0349   12.4675   10.0259 H   0  0  0  0  0  0  0  0  0  0  0  0
   46.7698   13.1825   12.0665 H   0  0  0  0  0  0  0  0  0  0  0  0
   46.2417   11.4630   12.3329 H   0  0  0  0  0  0  0  0  0  0  0  0
   50.5080   12.0769   10.7726 H   0  0  0  0  0  0  0  0  0  0  0  0
   54.5090   14.0594    9.6599 H   0  0  0  0  0  0  0  0  0  0  0  0
   52.4470   12.6994    9.7028 H   0  0  0  0  0  0  0  0  0  0  0  0
   51.2652   14.7051   13.3538 H   0  0  0  0  0  0  0  0  0  0  0  0
   53.3317   16.0287   13.2724 H   0  0  0  0  0  0  0  0  0  0  0  0
   52.5873   -0.2166   18.0972 H   0  0  0  0  0  0  0  0  0  0  0  0
   52.9810    0.3548   16.4292 H   0  0  0  0  0  0  0  0  0  0  0  0
   54.2663   -0.0695   17.5694 H   0  0  0  0  0  0  0  0  0  0  0  0
   54.9075    5.7534   19.1113 H   0  0  0  0  0  0  0  0  0  0  0  0
   53.2523    5.9541   19.7002 H   0  0  0  0  0  0  0  0  0  0  0  0
   53.6525    6.2268   17.9596 H   0  0  0  0  0  0  0  0  0  0  0  0
  1  2  2  0
  1  6  1  0
  1 10  1  0
  2  3  1  0
  3  4  2  0
  4  5  1  0
  5  6  2  0
  6  7  1  0
  7  8  2  0
  8  9  1  0
  9 10  2  0
  3 11  1  0
  4 12  1  0
  7 13  1  0
 13 14  1  0
 15 14  2  0
 14 16  1  0
 15 19  1  0
 16 17  2  0
 17 18  1  0
 18 19  2  0
 18 20  1  0
 20 21  1  0
 21 22  2  0
 21 23  1  0
 23 24  1  0
 24 25  1  0
 25 23  1  0
 23 26  1  0
 26 27  1  0
 26 28  2  0
 27 29  1  0
 31 29  1  0
 29 32  2  0
 30 31  2  0
 30 34  1  0
 32 33  1  0
 33 34  2  0
 34 35  1  0
 11 36  1  0
 12 37  1  0
  2 38  1  0
  5 39  1  0
  8 40  1  0
  9 41  1  0
 15 42  1  0
 16 43  1  0
 17 44  1  0
 19 45  1  0
 20 46  1  0
 24 47  1  0
 24 48  1  0
 25 49  1  0
 25 50  1  0
 27 51  1  0
 30 52  1  0
 31 53  1  0
 32 54  1  0
 33 55  1  0
 36 56  1  0
 36 57  1  0
 36 58  1  0
 37 59  1  0
 37 60  1  0
 37 61  1  0
M  END
> <Uni-Dock RESULT> 
ENERGY=   -4.446  LOWER_BOUND=    6.203  UPPER_BOUND=    8.308
INTER + INTRA:          -4.446
INTER:                  -4.446
INTRA:                   0.000
UNBOUND:                 0.000

$$$$
