
     RDKit          3D

 61 65  0  0  0  0  0  0  0  0999 V2000
   52.8837   10.7204   13.2990 C   0  0  0  0  0  0  0  0  0  0  0  0
   53.4224   11.9929   13.4327 C   0  0  0  0  0  0  0  0  0  0  0  0
   52.9782   12.8883   14.4133 C   0  0  0  0  0  0  0  0  0  0  0  0
   51.9497   12.5019   15.2886 C   0  0  0  0  0  0  0  0  0  0  0  0
   51.4026   11.2230   15.1702 C   0  0  0  0  0  0  0  0  0  0  0  0
   51.8620   10.3234   14.1812 C   0  0  0  0  0  0  0  0  0  0  0  0
   51.3457    9.0230   14.0150 C   0  0  0  0  0  0  0  0  0  0  0  0
   51.8593    8.1753   13.0354 C   0  0  0  0  0  0  0  0  0  0  0  0
   52.8519    8.6693   12.2206 C   0  0  0  0  0  0  0  0  0  0  0  0
   53.3632    9.9140   12.3345 N   0  0  0  0  0  0  0  0  0  0  0  0
   53.4777   14.1546   14.5924 O   0  0  0  0  0  0  0  0  0  0  0  0
   51.5653   13.4314   16.2218 O   0  0  0  0  0  0  0  0  0  0  0  0
   50.3790    8.5839   14.8986 O   0  0  0  0  0  0  0  0  0  0  0  0
   49.2764    7.9602   14.3652 C   0  0  0  0  0  0  0  0  0  0  0  0
   48.5403    8.5029   13.3119 C   0  0  0  0  0  0  0  0  0  0  0  0
   48.8718    6.7699   14.9623 C   0  0  0  0  0  0  0  0  0  0  0  0
   47.7569    6.0902   14.4671 C   0  0  0  0  0  0  0  0  0  0  0  0
   47.0335    6.6009   13.3812 C   0  0  0  0  0  0  0  0  0  0  0  0
   47.4230    7.8198   12.8205 C   0  0  0  0  0  0  0  0  0  0  0  0
   45.9545    5.8282   12.9098 N   0  0  0  0  0  0  0  0  0  0  0  0
   45.1868    6.0612   11.7893 C   0  0  0  0  0  0  0  0  0  0  0  0
   45.2461    7.0035   11.0110 O   0  0  0  0  0  0  0  0  0  0  0  0
   44.2322    4.9476   11.4821 C   0  0  0  0  0  0  0  0  0  0  0  0
   42.7717    5.3121   11.2133 C   0  0  0  0  0  0  0  0  0  0  0  0
   43.1329    4.6294   12.4940 C   0  0  0  0  0  0  0  0  0  0  0  0
   44.8187    3.8254   10.6755 C   0  0  0  0  0  0  0  0  0  0  0  0
   45.1386    4.2023    9.3879 N   0  0  0  0  0  0  0  0  0  0  0  0
   44.9814    2.7362   11.2071 O   0  0  0  0  0  0  0  0  0  0  0  0
   45.7953    3.4381    8.4065 C   0  0  0  0  0  0  0  0  0  0  0  0
   46.7467    3.3921    6.1685 C   0  0  0  0  0  0  0  0  0  0  0  0
   46.0710    4.0721    7.1852 C   0  0  0  0  0  0  0  0  0  0  0  0
   46.1953    2.1103    8.5890 C   0  0  0  0  0  0  0  0  0  0  0  0
   46.8734    1.4308    7.5713 C   0  0  0  0  0  0  0  0  0  0  0  0
   47.1459    2.0775    6.3726 C   0  0  0  0  0  0  0  0  0  0  0  0
   47.8075    1.4311    5.4039 F   0  0  0  0  0  0  0  0  0  0  0  0
   54.5311   14.5787   13.7386 C   0  0  0  0  0  0  0  0  0  0  0  0
   50.4507   13.1143   17.0487 C   0  0  0  0  0  0  0  0  0  0  0  0
   54.2122   12.2646   12.7395 H   0  0  0  0  0  0  0  0  0  0  0  0
   50.6166   10.8943   15.8427 H   0  0  0  0  0  0  0  0  0  0  0  0
   51.5004    7.1612   12.9099 H   0  0  0  0  0  0  0  0  0  0  0  0
   53.2861    8.0603   11.4326 H   0  0  0  0  0  0  0  0  0  0  0  0
   48.8237    9.4529   12.8622 H   0  0  0  0  0  0  0  0  0  0  0  0
   49.4333    6.3614   15.7972 H   0  0  0  0  0  0  0  0  0  0  0  0
   47.4736    5.1511   14.9335 H   0  0  0  0  0  0  0  0  0  0  0  0
   46.8801    8.2678   11.9937 H   0  0  0  0  0  0  0  0  0  0  0  0
   45.7897    4.9489   13.3877 H   0  0  0  0  0  0  0  0  0  0  0  0
   42.2241    4.7389   10.4719 H   0  0  0  0  0  0  0  0  0  0  0  0
   42.4894    6.3594   11.2548 H   0  0  0  0  0  0  0  0  0  0  0  0
   43.0748    5.2135   13.4065 H   0  0  0  0  0  0  0  0  0  0  0  0
   42.8354    3.5927   12.6175 H   0  0  0  0  0  0  0  0  0  0  0  0
   44.9574    5.1746    9.1501 H   0  0  0  0  0  0  0  0  0  0  0  0
   46.9670    3.8819    5.2257 H   0  0  0  0  0  0  0  0  0  0  0  0
   45.7704    5.1038    7.0120 H   0  0  0  0  0  0  0  0  0  0  0  0
   46.0042    1.5763    9.5152 H   0  0  0  0  0  0  0  0  0  0  0  0
   47.1922    0.4021    7.7125 H   0  0  0  0  0  0  0  0  0  0  0  0
   55.4205   13.9493   13.8597 H   0  0  0  0  0  0  0  0  0  0  0  0
   54.8049   15.5975   14.0287 H   0  0  0  0  0  0  0  0  0  0  0  0
   54.2059   14.6087   12.6939 H   0  0  0  0  0  0  0  0  0  0  0  0
   49.5500   12.9296   16.4497 H   0  0  0  0  0  0  0  0  0  0  0  0
   50.6746   12.2630   17.7037 H   0  0  0  0  0  0  0  0  0  0  0  0
   50.2521   13.9802   17.6886 H   0  0  0  0  0  0  0  0  0  0  0  0
  1  2  2  0
  1  6  1  0
  1 10  1  0
  2  3  1  0
  3  4  2  0
  4  5  1  0
  5  6  2  0
  6  7  1  0
  7  8  2  0
  8  9  1  0
  9 10  2  0
  3 11  1  0
  4 12  1  0
  7 13  1  0
 13 14  1  0
 15 14  2  0
 14 16  1  0
 15 19  1  0
 16 17  2  0
 17 18  1  0
 18 19  2  0
 18 20  1  0
 20 21  1  0
 21 22  2  0
 21 23  1  0
 23 24  1  0
 24 25  1  0
 25 23  1  0
 23 26  1  0
 26 27  1  0
 26 28  2  0
 27 29  1  0
 31 29  1  0
 29 32  2  0
 30 31  2  0
 30 34  1  0
 32 33  1  0
 33 34  2  0
 34 35  1  0
 11 36  1  0
 12 37  1  0
  2 38  1  0
  5 39  1  0
  8 40  1  0
  9 41  1  0
 15 42  1  0
 16 43  1  0
 17 44  1  0
 19 45  1  0
 20 46  1  0
 24 47  1  0
 24 48  1  0
 25 49  1  0
 25 50  1  0
 27 51  1  0
 30 52  1  0
 31 53  1  0
 32 54  1  0
 33 55  1  0
 36 56  1  0
 36 57  1  0
 36 58  1  0
 37 59  1  0
 37 60  1  0
 37 61  1  0
M  END
> <Uni-Dock RESULT> 
ENERGY=   -5.598  LOWER_BOUND=    0.000  UPPER_BOUND=    0.000
INTER + INTRA:          -5.598
INTER:                  -5.598
INTRA:                   0.000
UNBOUND:                 0.000

$$$$

     RDKit          3D

 61 65  0  0  0  0  0  0  0  0999 V2000
   41.8733   13.8839    8.9523 C   0  0  0  0  0  0  0  0  0  0  0  0
   41.6412   14.6320    7.8061 C   0  0  0  0  0  0  0  0  0  0  0  0
   42.0015   14.1725    6.5334 C   0  0  0  0  0  0  0  0  0  0  0  0
   42.6264   12.9215    6.4005 C   0  0  0  0  0  0  0  0  0  0  0  0
   42.8606   12.1551    7.5437 C   0  0  0  0  0  0  0  0  0  0  0  0
   42.4875   12.6245    8.8239 C   0  0  0  0  0  0  0  0  0  0  0  0
   42.7010   11.8953   10.0104 C   0  0  0  0  0  0  0  0  0  0  0  0
   42.2873   12.4038   11.2401 C   0  0  0  0  0  0  0  0  0  0  0  0
   41.7051   13.6505   11.2519 C   0  0  0  0  0  0  0  0  0  0  0  0
   41.4972   14.3897   10.1410 N   0  0  0  0  0  0  0  0  0  0  0  0
   41.7918   14.8680    5.3683 O   0  0  0  0  0  0  0  0  0  0  0  0
   42.9522   12.5379    5.1241 O   0  0  0  0  0  0  0  0  0  0  0  0
   43.2534   10.6330    9.9134 O   0  0  0  0  0  0  0  0  0  0  0  0
   44.2763   10.3261   10.7787 C   0  0  0  0  0  0  0  0  0  0  0  0
   45.3809   11.1576   10.9640 C   0  0  0  0  0  0  0  0  0  0  0  0
   44.2031    9.1017   11.4364 C   0  0  0  0  0  0  0  0  0  0  0  0
   45.2135    8.7318   12.3266 C   0  0  0  0  0  0  0  0  0  0  0  0
   46.3074    9.5767   12.5562 C   0  0  0  0  0  0  0  0  0  0  0  0
   46.3916   10.7821   11.8550 C   0  0  0  0  0  0  0  0  0  0  0  0
   47.2554    9.1532   13.5077 N   0  0  0  0  0  0  0  0  0  0  0  0
   48.3334    9.8656   13.9872 C   0  0  0  0  0  0  0  0  0  0  0  0
   48.7181   10.9777   13.6519 O   0  0  0  0  0  0  0  0  0  0  0  0
   49.0386    9.1837   15.1200 C   0  0  0  0  0  0  0  0  0  0  0  0
   50.5599    9.0522   15.0392 C   0  0  0  0  0  0  0  0  0  0  0  0
   49.7084    7.8363   14.8568 C   0  0  0  0  0  0  0  0  0  0  0  0
   48.4436    9.4426   16.4739 C   0  0  0  0  0  0  0  0  0  0  0  0
   48.5891   10.7524   16.8807 N   0  0  0  0  0  0  0  0  0  0  0  0
   47.8844    8.5265   17.0599 O   0  0  0  0  0  0  0  0  0  0  0  0
   48.0627   11.3572   18.0364 C   0  0  0  0  0  0  0  0  0  0  0  0
   47.7790   13.4148   19.3019 C   0  0  0  0  0  0  0  0  0  0  0  0
   48.2932   12.7323   18.1962 C   0  0  0  0  0  0  0  0  0  0  0  0
   47.3208   10.6747   19.0060 C   0  0  0  0  0  0  0  0  0  0  0  0
   46.8049   11.3591   20.1117 C   0  0  0  0  0  0  0  0  0  0  0  0
   47.0351   12.7221   20.2484 C   0  0  0  0  0  0  0  0  0  0  0  0
   46.5290   13.3797   21.2998 F   0  0  0  0  0  0  0  0  0  0  0  0
   41.1469   16.1307    5.4569 C   0  0  0  0  0  0  0  0  0  0  0  0
   43.6872   11.3291    4.9657 C   0  0  0  0  0  0  0  0  0  0  0  0
   41.1610   15.5961    7.9407 H   0  0  0  0  0  0  0  0  0  0  0  0
   43.3293   11.1790    7.4675 H   0  0  0  0  0  0  0  0  0  0  0  0
   42.4119   11.8478   12.1612 H   0  0  0  0  0  0  0  0  0  0  0  0
   41.3702   14.1048   12.1802 H   0  0  0  0  0  0  0  0  0  0  0  0
   45.4686   12.0997   10.4257 H   0  0  0  0  0  0  0  0  0  0  0  0
   43.3533    8.4458   11.2727 H   0  0  0  0  0  0  0  0  0  0  0  0
   45.1236    7.7824   12.8465 H   0  0  0  0  0  0  0  0  0  0  0  0
   47.2314   11.4588   11.9808 H   0  0  0  0  0  0  0  0  0  0  0  0
   47.0665    8.2687   13.9666 H   0  0  0  0  0  0  0  0  0  0  0  0
   51.1351    9.1336   15.9560 H   0  0  0  0  0  0  0  0  0  0  0  0
   51.0632    9.4586   14.1675 H   0  0  0  0  0  0  0  0  0  0  0  0
   49.6530    7.4084   13.8612 H   0  0  0  0  0  0  0  0  0  0  0  0
   49.7023    7.0975   15.6522 H   0  0  0  0  0  0  0  0  0  0  0  0
   49.0569   11.3734   16.2248 H   0  0  0  0  0  0  0  0  0  0  0  0
   47.9499   14.4793   19.4246 H   0  0  0  0  0  0  0  0  0  0  0  0
   48.8686   13.2907   17.4602 H   0  0  0  0  0  0  0  0  0  0  0  0
   47.1166    9.6109   18.9277 H   0  0  0  0  0  0  0  0  0  0  0  0
   46.2218   10.8337   20.8626 H   0  0  0  0  0  0  0  0  0  0  0  0
   40.1341   16.0336    5.8653 H   0  0  0  0  0  0  0  0  0  0  0  0
   41.0576   16.5307    4.4424 H   0  0  0  0  0  0  0  0  0  0  0  0
   41.7432   16.8395    6.0401 H   0  0  0  0  0  0  0  0  0  0  0  0
   44.6456   11.3728    5.4983 H   0  0  0  0  0  0  0  0  0  0  0  0
   43.0945   10.4621    5.2833 H   0  0  0  0  0  0  0  0  0  0  0  0
   43.9051   11.2076    3.8996 H   0  0  0  0  0  0  0  0  0  0  0  0
  1  2  2  0
  1  6  1  0
  1 10  1  0
  2  3  1  0
  3  4  2  0
  4  5  1  0
  5  6  2  0
  6  7  1  0
  7  8  2  0
  8  9  1  0
  9 10  2  0
  3 11  1  0
  4 12  1  0
  7 13  1  0
 13 14  1  0
 15 14  2  0
 14 16  1  0
 15 19  1  0
 16 17  2  0
 17 18  1  0
 18 19  2  0
 18 20  1  0
 20 21  1  0
 21 22  2  0
 21 23  1  0
 23 24  1  0
 24 25  1  0
 25 23  1  0
 23 26  1  0
 26 27  1  0
 26 28  2  0
 27 29  1  0
 31 29  1  0
 29 32  2  0
 30 31  2  0
 30 34  1  0
 32 33  1  0
 33 34  2  0
 34 35  1  0
 11 36  1  0
 12 37  1  0
  2 38  1  0
  5 39  1  0
  8 40  1  0
  9 41  1  0
 15 42  1  0
 16 43  1  0
 17 44  1  0
 19 45  1  0
 20 46  1  0
 24 47  1  0
 24 48  1  0
 25 49  1  0
 25 50  1  0
 27 51  1  0
 30 52  1  0
 31 53  1  0
 32 54  1  0
 33 55  1  0
 36 56  1  0
 36 57  1  0
 36 58  1  0
 37 59  1  0
 37 60  1  0
 37 61  1  0
M  END
> <Uni-Dock RESULT> 
ENERGY=   -4.821  LOWER_BOUND=    6.992  UPPER_BOUND=   11.475
INTER + INTRA:          -4.821
INTER:                  -4.821
INTRA:                   0.000
UNBOUND:                 0.000

$$$$

     RDKit          3D

 61 65  0  0  0  0  0  0  0  0999 V2000
   51.3217    5.4815   22.0224 C   0  0  0  0  0  0  0  0  0  0  0  0
   52.4625    5.1462   22.7390 C   0  0  0  0  0  0  0  0  0  0  0  0
   53.4705    6.0795   23.0100 C   0  0  0  0  0  0  0  0  0  0  0  0
   53.3392    7.3965   22.5394 C   0  0  0  0  0  0  0  0  0  0  0  0
   52.1946    7.7500   21.8226 C   0  0  0  0  0  0  0  0  0  0  0  0
   51.1789    6.8025   21.5593 C   0  0  0  0  0  0  0  0  0  0  0  0
   50.0050    7.1028   20.8405 C   0  0  0  0  0  0  0  0  0  0  0  0
   49.0295    6.1289   20.6356 C   0  0  0  0  0  0  0  0  0  0  0  0
   49.2760    4.8664   21.1238 C   0  0  0  0  0  0  0  0  0  0  0  0
   50.3942    4.5318   21.8029 N   0  0  0  0  0  0  0  0  0  0  0  0
   54.6151    5.8034   23.7163 O   0  0  0  0  0  0  0  0  0  0  0  0
   54.3664    8.2546   22.8414 O   0  0  0  0  0  0  0  0  0  0  0  0
   49.8099    8.4034   20.4180 O   0  0  0  0  0  0  0  0  0  0  0  0
   49.4015    8.5879   19.1186 C   0  0  0  0  0  0  0  0  0  0  0  0
   50.0373    7.9799   18.0360 C   0  0  0  0  0  0  0  0  0  0  0  0
   48.3450    9.4686   18.9061 C   0  0  0  0  0  0  0  0  0  0  0  0
   47.8861    9.6998   17.6076 C   0  0  0  0  0  0  0  0  0  0  0  0
   48.4865    9.0621   16.5139 C   0  0  0  0  0  0  0  0  0  0  0  0
   49.5756    8.2160   16.7369 C   0  0  0  0  0  0  0  0  0  0  0  0
   47.9302    9.3088   15.2438 N   0  0  0  0  0  0  0  0  0  0  0  0
   48.2666    8.7031   14.0525 C   0  0  0  0  0  0  0  0  0  0  0  0
   49.1431    7.8754   13.8427 O   0  0  0  0  0  0  0  0  0  0  0  0
   47.3586    9.0759   12.9202 C   0  0  0  0  0  0  0  0  0  0  0  0
   48.0009    9.5257   11.6075 C   0  0  0  0  0  0  0  0  0  0  0  0
   47.3142   10.5353   12.4711 C   0  0  0  0  0  0  0  0  0  0  0  0
   46.1071    8.2521   12.8245 C   0  0  0  0  0  0  0  0  0  0  0  0
   46.3558    6.9389   12.4838 N   0  0  0  0  0  0  0  0  0  0  0  0
   45.0313    8.7787   13.0708 O   0  0  0  0  0  0  0  0  0  0  0  0
   45.4328    5.8801   12.4112 C   0  0  0  0  0  0  0  0  0  0  0  0
   45.0987    3.4989   12.0446 C   0  0  0  0  0  0  0  0  0  0  0  0
   45.9448    4.6093   12.1067 C   0  0  0  0  0  0  0  0  0  0  0  0
   44.0604    6.0234   12.6398 C   0  0  0  0  0  0  0  0  0  0  0  0
   43.2143    4.9109   12.5793 C   0  0  0  0  0  0  0  0  0  0  0  0
   43.7403    3.6592   12.2859 C   0  0  0  0  0  0  0  0  0  0  0  0
   42.9321    2.5921   12.2419 F   0  0  0  0  0  0  0  0  0  0  0  0
   54.7791    4.4871   24.2249 C   0  0  0  0  0  0  0  0  0  0  0  0
   54.3183    9.5635   22.2837 C   0  0  0  0  0  0  0  0  0  0  0  0
   52.5379    4.1204   23.0857 H   0  0  0  0  0  0  0  0  0  0  0  0
   52.0618    8.7643   21.4597 H   0  0  0  0  0  0  0  0  0  0  0  0
   48.1053    6.3447   20.1138 H   0  0  0  0  0  0  0  0  0  0  0  0
   48.5583    4.0621   20.9879 H   0  0  0  0  0  0  0  0  0  0  0  0
   50.8896    7.3197   18.1863 H   0  0  0  0  0  0  0  0  0  0  0  0
   47.8668    9.9585   19.7490 H   0  0  0  0  0  0  0  0  0  0  0  0
   47.0450   10.3727   17.4678 H   0  0  0  0  0  0  0  0  0  0  0  0
   50.0891    7.7182   15.9199 H   0  0  0  0  0  0  0  0  0  0  0  0
   47.1241    9.9237   15.2187 H   0  0  0  0  0  0  0  0  0  0  0  0
   47.5200    9.2476   10.6750 H   0  0  0  0  0  0  0  0  0  0  0  0
   49.0845    9.5544   11.5512 H   0  0  0  0  0  0  0  0  0  0  0  0
   47.9362   11.2613   12.9843 H   0  0  0  0  0  0  0  0  0  0  0  0
   46.3660   10.9363   12.1267 H   0  0  0  0  0  0  0  0  0  0  0  0
   47.3335    6.6890   12.3563 H   0  0  0  0  0  0  0  0  0  0  0  0
   45.4928    2.5141   11.8161 H   0  0  0  0  0  0  0  0  0  0  0  0
   47.0076    4.4659   11.9214 H   0  0  0  0  0  0  0  0  0  0  0  0
   43.6164    6.9856   12.8776 H   0  0  0  0  0  0  0  0  0  0  0  0
   42.1492    5.0173   12.7639 H   0  0  0  0  0  0  0  0  0  0  0  0
   53.9876    4.2343   24.9400 H   0  0  0  0  0  0  0  0  0  0  0  0
   55.7323    4.4538   24.7609 H   0  0  0  0  0  0  0  0  0  0  0  0
   54.8301    3.7533   23.4143 H   0  0  0  0  0  0  0  0  0  0  0  0
   54.2955    9.5288   21.1872 H   0  0  0  0  0  0  0  0  0  0  0  0
   53.4680   10.1312   22.6818 H   0  0  0  0  0  0  0  0  0  0  0  0
   55.2331   10.0870   22.5804 H   0  0  0  0  0  0  0  0  0  0  0  0
  1  2  2  0
  1  6  1  0
  1 10  1  0
  2  3  1  0
  3  4  2  0
  4  5  1  0
  5  6  2  0
  6  7  1  0
  7  8  2  0
  8  9  1  0
  9 10  2  0
  3 11  1  0
  4 12  1  0
  7 13  1  0
 13 14  1  0
 15 14  2  0
 14 16  1  0
 15 19  1  0
 16 17  2  0
 17 18  1  0
 18 19  2  0
 18 20  1  0
 20 21  1  0
 21 22  2  0
 21 23  1  0
 23 24  1  0
 24 25  1  0
 25 23  1  0
 23 26  1  0
 26 27  1  0
 26 28  2  0
 27 29  1  0
 31 29  1  0
 29 32  2  0
 30 31  2  0
 30 34  1  0
 32 33  1  0
 33 34  2  0
 34 35  1  0
 11 36  1  0
 12 37  1  0
  2 38  1  0
  5 39  1  0
  8 40  1  0
  9 41  1  0
 15 42  1  0
 16 43  1  0
 17 44  1  0
 19 45  1  0
 20 46  1  0
 24 47  1  0
 24 48  1  0
 25 49  1  0
 25 50  1  0
 27 51  1  0
 30 52  1  0
 31 53  1  0
 32 54  1  0
 33 55  1  0
 36 56  1  0
 36 57  1  0
 36 58  1  0
 37 59  1  0
 37 60  1  0
 37 61  1  0
M  END
> <Uni-Dock RESULT> 
ENERGY=   -4.388  LOWER_BOUND=    5.718  UPPER_BOUND=    7.629
INTER + INTRA:          -4.388
INTER:                  -4.388
INTRA:                   0.000
UNBOUND:                 0.000

$$$$

     RDKit          3D

 61 65  0  0  0  0  0  0  0  0999 V2000
   51.2219    7.5793   15.3786 C   0  0  0  0  0  0  0  0  0  0  0  0
   51.9073    7.5818   16.5858 C   0  0  0  0  0  0  0  0  0  0  0  0
   51.3124    7.1534   17.7788 C   0  0  0  0  0  0  0  0  0  0  0  0
   49.9781    6.7142   17.7681 C   0  0  0  0  0  0  0  0  0  0  0  0
   49.2780    6.7001   16.5604 C   0  0  0  0  0  0  0  0  0  0  0  0
   49.8891    7.1285   15.3596 C   0  0  0  0  0  0  0  0  0  0  0  0
   49.2306    7.1375   14.1141 C   0  0  0  0  0  0  0  0  0  0  0  0
   49.8974    7.5491   12.9617 C   0  0  0  0  0  0  0  0  0  0  0  0
   51.1974    7.9794   13.0960 C   0  0  0  0  0  0  0  0  0  0  0  0
   51.8600    8.0030   14.2724 N   0  0  0  0  0  0  0  0  0  0  0  0
   51.9442    7.1309   18.9976 O   0  0  0  0  0  0  0  0  0  0  0  0
   49.4616    6.3115   18.9737 O   0  0  0  0  0  0  0  0  0  0  0  0
   47.9391    6.6514   14.0521 O   0  0  0  0  0  0  0  0  0  0  0  0
   47.0162    7.4043   13.3661 C   0  0  0  0  0  0  0  0  0  0  0  0
   46.8453    8.7709   13.5873 C   0  0  0  0  0  0  0  0  0  0  0  0
   46.1962    6.7328   12.4640 C   0  0  0  0  0  0  0  0  0  0  0  0
   45.2370    7.4425   11.7385 C   0  0  0  0  0  0  0  0  0  0  0  0
   45.0837    8.8237   11.9179 C   0  0  0  0  0  0  0  0  0  0  0  0
   45.8819    9.4775   12.8599 C   0  0  0  0  0  0  0  0  0  0  0  0
   44.1302    9.4729   11.1099 N   0  0  0  0  0  0  0  0  0  0  0  0
   43.8957   10.8279   11.0192 C   0  0  0  0  0  0  0  0  0  0  0  0
   44.4218   11.7333   11.6522 O   0  0  0  0  0  0  0  0  0  0  0  0
   42.9281   11.1912    9.9341 C   0  0  0  0  0  0  0  0  0  0  0  0
   41.7731   12.1277   10.2908 C   0  0  0  0  0  0  0  0  0  0  0  0
   41.4919   10.6809   10.0368 C   0  0  0  0  0  0  0  0  0  0  0  0
   43.5435   11.3484    8.5738 C   0  0  0  0  0  0  0  0  0  0  0  0
   44.3863   12.4370    8.4905 N   0  0  0  0  0  0  0  0  0  0  0  0
   43.2824   10.5261    7.7072 O   0  0  0  0  0  0  0  0  0  0  0  0
   45.1999   12.8133    7.4065 C   0  0  0  0  0  0  0  0  0  0  0  0
   46.8878   14.3534    6.5730 C   0  0  0  0  0  0  0  0  0  0  0  0
   46.0276   13.9317    7.5903 C   0  0  0  0  0  0  0  0  0  0  0  0
   45.2380   12.1323    6.1854 C   0  0  0  0  0  0  0  0  0  0  0  0
   46.1008   12.5541    5.1682 C   0  0  0  0  0  0  0  0  0  0  0  0
   46.9197   13.6575    5.3714 C   0  0  0  0  0  0  0  0  0  0  0  0
   47.7559   14.0524    4.4024 F   0  0  0  0  0  0  0  0  0  0  0  0
   53.3004    7.5512   19.0491 C   0  0  0  0  0  0  0  0  0  0  0  0
   48.0807    5.9686   19.0186 C   0  0  0  0  0  0  0  0  0  0  0  0
   52.9350    7.9306   16.5636 H   0  0  0  0  0  0  0  0  0  0  0  0
   48.2505    6.3525   16.5219 H   0  0  0  0  0  0  0  0  0  0  0  0
   49.4221    7.5344   11.9887 H   0  0  0  0  0  0  0  0  0  0  0  0
   51.7671    8.3213   12.2364 H   0  0  0  0  0  0  0  0  0  0  0  0
   47.4539    9.2998   14.3186 H   0  0  0  0  0  0  0  0  0  0  0  0
   46.3158    5.6644   12.3107 H   0  0  0  0  0  0  0  0  0  0  0  0
   44.6244    6.9019   11.0228 H   0  0  0  0  0  0  0  0  0  0  0  0
   45.7838   10.5417   13.0519 H   0  0  0  0  0  0  0  0  0  0  0  0
   43.6325    8.8893   10.4463 H   0  0  0  0  0  0  0  0  0  0  0  0
   41.4411   12.8452    9.5471 H   0  0  0  0  0  0  0  0  0  0  0  0
   41.7042   12.4897   11.3118 H   0  0  0  0  0  0  0  0  0  0  0  0
   41.2124   10.0682   10.8876 H   0  0  0  0  0  0  0  0  0  0  0  0
   40.9751   10.4182    9.1189 H   0  0  0  0  0  0  0  0  0  0  0  0
   44.4986   12.9800    9.3432 H   0  0  0  0  0  0  0  0  0  0  0  0
   47.5338   15.2136    6.7147 H   0  0  0  0  0  0  0  0  0  0  0  0
   46.0190   14.4839    8.5281 H   0  0  0  0  0  0  0  0  0  0  0  0
   44.6162   11.2625    5.9946 H   0  0  0  0  0  0  0  0  0  0  0  0
   46.1385   12.0229    4.2214 H   0  0  0  0  0  0  0  0  0  0  0  0
   53.9407    6.9085   18.4336 H   0  0  0  0  0  0  0  0  0  0  0  0
   53.6381    7.4592   20.0857 H   0  0  0  0  0  0  0  0  0  0  0  0
   53.4000    8.6025   18.7612 H   0  0  0  0  0  0  0  0  0  0  0  0
   47.4504    6.8129   18.7119 H   0  0  0  0  0  0  0  0  0  0  0  0
   47.8752    5.0776   18.4123 H   0  0  0  0  0  0  0  0  0  0  0  0
   47.8298    5.7270   20.0566 H   0  0  0  0  0  0  0  0  0  0  0  0
  1  2  2  0
  1  6  1  0
  1 10  1  0
  2  3  1  0
  3  4  2  0
  4  5  1  0
  5  6  2  0
  6  7  1  0
  7  8  2  0
  8  9  1  0
  9 10  2  0
  3 11  1  0
  4 12  1  0
  7 13  1  0
 13 14  1  0
 15 14  2  0
 14 16  1  0
 15 19  1  0
 16 17  2  0
 17 18  1  0
 18 19  2  0
 18 20  1  0
 20 21  1  0
 21 22  2  0
 21 23  1  0
 23 24  1  0
 24 25  1  0
 25 23  1  0
 23 26  1  0
 26 27  1  0
 26 28  2  0
 27 29  1  0
 31 29  1  0
 29 32  2  0
 30 31  2  0
 30 34  1  0
 32 33  1  0
 33 34  2  0
 34 35  1  0
 11 36  1  0
 12 37  1  0
  2 38  1  0
  5 39  1  0
  8 40  1  0
  9 41  1  0
 15 42  1  0
 16 43  1  0
 17 44  1  0
 19 45  1  0
 20 46  1  0
 24 47  1  0
 24 48  1  0
 25 49  1  0
 25 50  1  0
 27 51  1  0
 30 52  1  0
 31 53  1  0
 32 54  1  0
 33 55  1  0
 36 56  1  0
 36 57  1  0
 36 58  1  0
 37 59  1  0
 37 60  1  0
 37 61  1  0
M  END
> <Uni-Dock RESULT> 
ENERGY=   -4.322  LOWER_BOUND=    5.435  UPPER_BOUND=    6.971
INTER + INTRA:          -4.322
INTER:                  -4.322
INTRA:                   0.000
UNBOUND:                 0.000

$$$$

     RDKit          3D

 61 65  0  0  0  0  0  0  0  0999 V2000
   42.4359   12.6840    8.7295 C   0  0  0  0  0  0  0  0  0  0  0  0
   41.5029   13.5293    9.3145 C   0  0  0  0  0  0  0  0  0  0  0  0
   41.1298   14.7442    8.7268 C   0  0  0  0  0  0  0  0  0  0  0  0
   41.7178   15.1351    7.5125 C   0  0  0  0  0  0  0  0  0  0  0  0
   42.6531   14.2924    6.9091 C   0  0  0  0  0  0  0  0  0  0  0  0
   43.0189   13.0645    7.5067 C   0  0  0  0  0  0  0  0  0  0  0  0
   43.9573   12.1768    6.9442 C   0  0  0  0  0  0  0  0  0  0  0  0
   44.2565   10.9691    7.5716 C   0  0  0  0  0  0  0  0  0  0  0  0
   43.6349   10.7011    8.7695 C   0  0  0  0  0  0  0  0  0  0  0  0
   42.7428   11.5311    9.3516 N   0  0  0  0  0  0  0  0  0  0  0  0
   40.2108   15.6146    9.2588 O   0  0  0  0  0  0  0  0  0  0  0  0
   41.3051   16.3380    6.9973 O   0  0  0  0  0  0  0  0  0  0  0  0
   44.5082   12.4960    5.7183 O   0  0  0  0  0  0  0  0  0  0  0  0
   45.8701   12.3639    5.5874 C   0  0  0  0  0  0  0  0  0  0  0  0
   46.7707   12.9037    6.5058 C   0  0  0  0  0  0  0  0  0  0  0  0
   46.3363   11.7098    4.4508 C   0  0  0  0  0  0  0  0  0  0  0  0
   47.7099   11.5463    4.2598 C   0  0  0  0  0  0  0  0  0  0  0  0
   48.6254   12.0447    5.1962 C   0  0  0  0  0  0  0  0  0  0  0  0
   48.1458   12.7394    6.3094 C   0  0  0  0  0  0  0  0  0  0  0  0
   49.9898   11.7919    4.9556 N   0  0  0  0  0  0  0  0  0  0  0  0
   51.0507   12.0695    5.7904 C   0  0  0  0  0  0  0  0  0  0  0  0
   51.0350   12.6344    6.8757 O   0  0  0  0  0  0  0  0  0  0  0  0
   52.3527   11.5127    5.3003 C   0  0  0  0  0  0  0  0  0  0  0  0
   53.5606   12.4495    5.2596 C   0  0  0  0  0  0  0  0  0  0  0  0
   52.9152   12.0296    3.9774 C   0  0  0  0  0  0  0  0  0  0  0  0
   52.6060   10.0835    5.6838 C   0  0  0  0  0  0  0  0  0  0  0  0
   52.7930    9.9187    7.0404 N   0  0  0  0  0  0  0  0  0  0  0  0
   52.5979    9.2260    4.8120 O   0  0  0  0  0  0  0  0  0  0  0  0
   52.9465    8.7120    7.7467 C   0  0  0  0  0  0  0  0  0  0  0  0
   53.1794    7.6473    9.9211 C   0  0  0  0  0  0  0  0  0  0  0  0
   53.0541    8.8013    9.1432 C   0  0  0  0  0  0  0  0  0  0  0  0
   52.9788    7.4515    7.1414 C   0  0  0  0  0  0  0  0  0  0  0  0
   53.1025    6.2966    7.9211 C   0  0  0  0  0  0  0  0  0  0  0  0
   53.1983    6.4038    9.3027 C   0  0  0  0  0  0  0  0  0  0  0  0
   53.3024    5.2971   10.0498 F   0  0  0  0  0  0  0  0  0  0  0  0
   39.5798   15.2489   10.4780 C   0  0  0  0  0  0  0  0  0  0  0  0
   41.9630   16.8159    5.8288 C   0  0  0  0  0  0  0  0  0  0  0  0
   41.0691   13.2027   10.2543 H   0  0  0  0  0  0  0  0  0  0  0  0
   43.1122   14.5641    5.9638 H   0  0  0  0  0  0  0  0  0  0  0  0
   44.9503   10.2569    7.1422 H   0  0  0  0  0  0  0  0  0  0  0  0
   43.8336    9.7808    9.3115 H   0  0  0  0  0  0  0  0  0  0  0  0
   46.4192   13.4514    7.3784 H   0  0  0  0  0  0  0  0  0  0  0  0
   45.6334   11.3107    3.7257 H   0  0  0  0  0  0  0  0  0  0  0  0
   48.0501   11.0118    3.3776 H   0  0  0  0  0  0  0  0  0  0  0  0
   48.8164   13.1649    7.0499 H   0  0  0  0  0  0  0  0  0  0  0  0
   50.2067   11.2540    4.1237 H   0  0  0  0  0  0  0  0  0  0  0  0
   54.5394   12.0411    5.4903 H   0  0  0  0  0  0  0  0  0  0  0  0
   53.4242   13.4751    5.5879 H   0  0  0  0  0  0  0  0  0  0  0  0
   52.3575   12.7807    3.4279 H   0  0  0  0  0  0  0  0  0  0  0  0
   53.4540   11.3325    3.3430 H   0  0  0  0  0  0  0  0  0  0  0  0
   52.7236   10.7616    7.6055 H   0  0  0  0  0  0  0  0  0  0  0  0
   53.2561    7.7130   11.0015 H   0  0  0  0  0  0  0  0  0  0  0  0
   53.0346    9.7678    9.6434 H   0  0  0  0  0  0  0  0  0  0  0  0
   52.9002    7.3305    6.0649 H   0  0  0  0  0  0  0  0  0  0  0  0
   53.1202    5.3157    7.4549 H   0  0  0  0  0  0  0  0  0  0  0  0
   39.0001   14.3252   10.3657 H   0  0  0  0  0  0  0  0  0  0  0  0
   38.8810   16.0478   10.7437 H   0  0  0  0  0  0  0  0  0  0  0  0
   40.3083   15.1635   11.2905 H   0  0  0  0  0  0  0  0  0  0  0  0
   43.0398   16.9393    6.0001 H   0  0  0  0  0  0  0  0  0  0  0  0
   41.7690   16.1606    4.9705 H   0  0  0  0  0  0  0  0  0  0  0  0
   41.5494   17.8017    5.5919 H   0  0  0  0  0  0  0  0  0  0  0  0
  1  2  2  0
  1  6  1  0
  1 10  1  0
  2  3  1  0
  3  4  2  0
  4  5  1  0
  5  6  2  0
  6  7  1  0
  7  8  2  0
  8  9  1  0
  9 10  2  0
  3 11  1  0
  4 12  1  0
  7 13  1  0
 13 14  1  0
 15 14  2  0
 14 16  1  0
 15 19  1  0
 16 17  2  0
 17 18  1  0
 18 19  2  0
 18 20  1  0
 20 21  1  0
 21 22  2  0
 21 23  1  0
 23 24  1  0
 24 25  1  0
 25 23  1  0
 23 26  1  0
 26 27  1  0
 26 28  2  0
 27 29  1  0
 31 29  1  0
 29 32  2  0
 30 31  2  0
 30 34  1  0
 32 33  1  0
 33 34  2  0
 34 35  1  0
 11 36  1  0
 12 37  1  0
  2 38  1  0
  5 39  1  0
  8 40  1  0
  9 41  1  0
 15 42  1  0
 16 43  1  0
 17 44  1  0
 19 45  1  0
 20 46  1  0
 24 47  1  0
 24 48  1  0
 25 49  1  0
 25 50  1  0
 27 51  1  0
 30 52  1  0
 31 53  1  0
 32 54  1  0
 33 55  1  0
 36 56  1  0
 36 57  1  0
 36 58  1  0
 37 59  1  0
 37 60  1  0
 37 61  1  0
M  END
> <Uni-Dock RESULT> 
ENERGY=   -4.143  LOWER_BOUND=    8.050  UPPER_BOUND=   11.276
INTER + INTRA:          -4.143
INTER:                  -4.143
INTRA:                   0.000
UNBOUND:                 0.000

$$$$

     RDKit          3D

 61 65  0  0  0  0  0  0  0  0999 V2000
   49.9225    3.9322   17.5000 C   0  0  0  0  0  0  0  0  0  0  0  0
   50.7311    2.8127   17.6418 C   0  0  0  0  0  0  0  0  0  0  0  0
   52.1239    2.9109   17.7474 C   0  0  0  0  0  0  0  0  0  0  0  0
   52.7342    4.1752   17.7002 C   0  0  0  0  0  0  0  0  0  0  0  0
   51.9334    5.3107   17.5643 C   0  0  0  0  0  0  0  0  0  0  0  0
   50.5273    5.2021   17.4649 C   0  0  0  0  0  0  0  0  0  0  0  0
   49.6713    6.3124   17.3246 C   0  0  0  0  0  0  0  0  0  0  0  0
   48.2902    6.1396   17.2563 C   0  0  0  0  0  0  0  0  0  0  0  0
   47.8058    4.8523   17.2906 C   0  0  0  0  0  0  0  0  0  0  0  0
   48.5913    3.7600   17.4071 N   0  0  0  0  0  0  0  0  0  0  0  0
   52.9694    1.8389   17.8931 O   0  0  0  0  0  0  0  0  0  0  0  0
   54.1019    4.1938   17.8078 O   0  0  0  0  0  0  0  0  0  0  0  0
   50.2292    7.5760   17.3399 O   0  0  0  0  0  0  0  0  0  0  0  0
   49.8157    8.4577   16.3699 C   0  0  0  0  0  0  0  0  0  0  0  0
   49.7838    8.1262   15.0153 C   0  0  0  0  0  0  0  0  0  0  0  0
   49.4778    9.7425   16.7848 C   0  0  0  0  0  0  0  0  0  0  0  0
   49.0525   10.6845   15.8457 C   0  0  0  0  0  0  0  0  0  0  0  0
   48.9734   10.3526   14.4867 C   0  0  0  0  0  0  0  0  0  0  0  0
   49.3593    9.0736   14.0779 C   0  0  0  0  0  0  0  0  0  0  0  0
   48.4853   11.3431   13.6126 N   0  0  0  0  0  0  0  0  0  0  0  0
   48.2024   11.2072   12.2707 C   0  0  0  0  0  0  0  0  0  0  0  0
   48.3646   10.2272   11.5561 O   0  0  0  0  0  0  0  0  0  0  0  0
   47.5344   12.4117   11.6802 C   0  0  0  0  0  0  0  0  0  0  0  0
   48.1039   12.9788   10.3793 C   0  0  0  0  0  0  0  0  0  0  0  0
   48.3016   13.7325   11.6559 C   0  0  0  0  0  0  0  0  0  0  0  0
   46.0430   12.4454   11.8481 C   0  0  0  0  0  0  0  0  0  0  0  0
   45.4009   11.4615   11.1256 N   0  0  0  0  0  0  0  0  0  0  0  0
   45.5497   13.2798   12.5937 O   0  0  0  0  0  0  0  0  0  0  0  0
   44.0308   11.1431   11.1357 C   0  0  0  0  0  0  0  0  0  0  0  0
   42.2882    9.6453   10.3383 C   0  0  0  0  0  0  0  0  0  0  0  0
   43.6269   10.0456   10.3598 C   0  0  0  0  0  0  0  0  0  0  0  0
   43.0726   11.8401   11.8789 C   0  0  0  0  0  0  0  0  0  0  0  0
   41.7329   11.4375   11.8582 C   0  0  0  0  0  0  0  0  0  0  0  0
   41.3531   10.3430   11.0918 C   0  0  0  0  0  0  0  0  0  0  0  0
   40.0729    9.9493   11.0835 F   0  0  0  0  0  0  0  0  0  0  0  0
   52.3911    0.5431   17.9625 C   0  0  0  0  0  0  0  0  0  0  0  0
   54.7593    5.4467   17.6502 C   0  0  0  0  0  0  0  0  0  0  0  0
   50.2316    1.8495   17.6705 H   0  0  0  0  0  0  0  0  0  0  0  0
   52.3784    6.3004   17.5391 H   0  0  0  0  0  0  0  0  0  0  0  0
   47.6109    6.9796   17.1804 H   0  0  0  0  0  0  0  0  0  0  0  0
   46.7395    4.6521   17.2318 H   0  0  0  0  0  0  0  0  0  0  0  0
   50.0832    7.1368   14.6741 H   0  0  0  0  0  0  0  0  0  0  0  0
   49.5256   10.0048   17.8375 H   0  0  0  0  0  0  0  0  0  0  0  0
   48.7712   11.6737   16.1953 H   0  0  0  0  0  0  0  0  0  0  0  0
   49.3384    8.7770   13.0336 H   0  0  0  0  0  0  0  0  0  0  0  0
   48.2147   12.2232   14.0379 H   0  0  0  0  0  0  0  0  0  0  0  0
   47.4142   13.3919    9.6501 H   0  0  0  0  0  0  0  0  0  0  0  0
   48.9647   12.4852    9.9392 H   0  0  0  0  0  0  0  0  0  0  0  0
   49.3046   13.7643   12.0686 H   0  0  0  0  0  0  0  0  0  0  0  0
   47.7416   14.6523   11.7937 H   0  0  0  0  0  0  0  0  0  0  0  0
   46.0008   10.8376   10.5912 H   0  0  0  0  0  0  0  0  0  0  0  0
   41.9742    8.7931    9.7446 H   0  0  0  0  0  0  0  0  0  0  0  0
   44.3484    9.4846    9.7687 H   0  0  0  0  0  0  0  0  0  0  0  0
   43.3354   12.6961   12.4935 H   0  0  0  0  0  0  0  0  0  0  0  0
   40.9875   11.9718   12.4402 H   0  0  0  0  0  0  0  0  0  0  0  0
   51.7288    0.4478   18.8309 H   0  0  0  0  0  0  0  0  0  0  0  0
   53.2045   -0.1781   18.0859 H   0  0  0  0  0  0  0  0  0  0  0  0
   51.8665    0.2939   17.0347 H   0  0  0  0  0  0  0  0  0  0  0  0
   54.5497    5.8855   16.6666 H   0  0  0  0  0  0  0  0  0  0  0  0
   54.4917    6.1375   18.4595 H   0  0  0  0  0  0  0  0  0  0  0  0
   55.8378    5.2682   17.7112 H   0  0  0  0  0  0  0  0  0  0  0  0
  1  2  2  0
  1  6  1  0
  1 10  1  0
  2  3  1  0
  3  4  2  0
  4  5  1  0
  5  6  2  0
  6  7  1  0
  7  8  2  0
  8  9  1  0
  9 10  2  0
  3 11  1  0
  4 12  1  0
  7 13  1  0
 13 14  1  0
 15 14  2  0
 14 16  1  0
 15 19  1  0
 16 17  2  0
 17 18  1  0
 18 19  2  0
 18 20  1  0
 20 21  1  0
 21 22  2  0
 21 23  1  0
 23 24  1  0
 24 25  1  0
 25 23  1  0
 23 26  1  0
 26 27  1  0
 26 28  2  0
 27 29  1  0
 31 29  1  0
 29 32  2  0
 30 31  2  0
 30 34  1  0
 32 33  1  0
 33 34  2  0
 34 35  1  0
 11 36  1  0
 12 37  1  0
  2 38  1  0
  5 39  1  0
  8 40  1  0
  9 41  1  0
 15 42  1  0
 16 43  1  0
 17 44  1  0
 19 45  1  0
 20 46  1  0
 24 47  1  0
 24 48  1  0
 25 49  1  0
 25 50  1  0
 27 51  1  0
 30 52  1  0
 31 53  1  0
 32 54  1  0
 33 55  1  0
 36 56  1  0
 36 57  1  0
 36 58  1  0
 37 59  1  0
 37 60  1  0
 37 61  1  0
M  END
> <Uni-Dock RESULT> 
ENERGY=   -4.129  LOWER_BOUND=    5.775  UPPER_BOUND=    8.450
INTER + INTRA:          -4.129
INTER:                  -4.129
INTRA:                   0.000
UNBOUND:                 0.000

$$$$

     RDKit          3D

 61 65  0  0  0  0  0  0  0  0999 V2000
   48.4554    7.1750   17.6009 C   0  0  0  0  0  0  0  0  0  0  0  0
   48.7130    5.8108   17.6102 C   0  0  0  0  0  0  0  0  0  0  0  0
   48.5126    5.0247   18.7515 C   0  0  0  0  0  0  0  0  0  0  0  0
   48.0459    5.6253   19.9324 C   0  0  0  0  0  0  0  0  0  0  0  0
   47.7765    6.9951   19.9365 C   0  0  0  0  0  0  0  0  0  0  0  0
   47.9757    7.7797   18.7774 C   0  0  0  0  0  0  0  0  0  0  0  0
   47.7225    9.1647   18.7248 C   0  0  0  0  0  0  0  0  0  0  0  0
   47.9163    9.8772   17.5430 C   0  0  0  0  0  0  0  0  0  0  0  0
   48.3978    9.1879   16.4539 C   0  0  0  0  0  0  0  0  0  0  0  0
   48.6694    7.8651   16.4659 N   0  0  0  0  0  0  0  0  0  0  0  0
   48.7466    3.6733   18.8147 O   0  0  0  0  0  0  0  0  0  0  0  0
   47.8752    4.7937   21.0103 O   0  0  0  0  0  0  0  0  0  0  0  0
   47.2008    9.7785   19.8470 O   0  0  0  0  0  0  0  0  0  0  0  0
   47.7802   10.9600   20.2440 C   0  0  0  0  0  0  0  0  0  0  0  0
   49.1588   11.1090   20.3959 C   0  0  0  0  0  0  0  0  0  0  0  0
   46.9235   12.0120   20.5547 C   0  0  0  0  0  0  0  0  0  0  0  0
   47.4518   13.2373   20.9667 C   0  0  0  0  0  0  0  0  0  0  0  0
   48.8369   13.4153   21.0816 C   0  0  0  0  0  0  0  0  0  0  0  0
   49.6834   12.3374   20.8108 C   0  0  0  0  0  0  0  0  0  0  0  0
   49.2897   14.6963   21.4521 N   0  0  0  0  0  0  0  0  0  0  0  0
   50.5939   15.1386   21.5045 C   0  0  0  0  0  0  0  0  0  0  0  0
   51.6194   14.5046   21.2955 O   0  0  0  0  0  0  0  0  0  0  0  0
   50.7117   16.6084   21.7715 C   0  0  0  0  0  0  0  0  0  0  0  0
   51.6701   17.0599   22.8741 C   0  0  0  0  0  0  0  0  0  0  0  0
   50.1950   17.1516   23.1025 C   0  0  0  0  0  0  0  0  0  0  0  0
   50.6139   17.4760   20.5502 C   0  0  0  0  0  0  0  0  0  0  0  0
   51.6860   17.3209   19.6965 N   0  0  0  0  0  0  0  0  0  0  0  0
   49.6307   18.1891   20.4076 O   0  0  0  0  0  0  0  0  0  0  0  0
   51.8624   17.8954   18.4248 C   0  0  0  0  0  0  0  0  0  0  0  0
   53.2511   18.0307   16.4325 C   0  0  0  0  0  0  0  0  0  0  0  0
   53.0159   17.5278   17.7149 C   0  0  0  0  0  0  0  0  0  0  0  0
   50.9556   18.7830   17.8363 C   0  0  0  0  0  0  0  0  0  0  0  0
   51.1910   19.2846   16.5517 C   0  0  0  0  0  0  0  0  0  0  0  0
   52.3334   18.9022   15.8603 C   0  0  0  0  0  0  0  0  0  0  0  0
   52.5512   19.3716   14.6249 F   0  0  0  0  0  0  0  0  0  0  0  0
   49.2034    3.0237   17.6366 C   0  0  0  0  0  0  0  0  0  0  0  0
   47.5126    5.3885   22.2518 C   0  0  0  0  0  0  0  0  0  0  0  0
   49.0768    5.3759   16.6846 H   0  0  0  0  0  0  0  0  0  0  0  0
   47.4019    7.4815   20.8316 H   0  0  0  0  0  0  0  0  0  0  0  0
   47.6983   10.9356   17.4699 H   0  0  0  0  0  0  0  0  0  0  0  0
   48.5784    9.6894   15.5073 H   0  0  0  0  0  0  0  0  0  0  0  0
   49.8367   10.2816   20.1936 H   0  0  0  0  0  0  0  0  0  0  0  0
   45.8493   11.8860   20.4578 H   0  0  0  0  0  0  0  0  0  0  0  0
   46.7654   14.0513   21.1811 H   0  0  0  0  0  0  0  0  0  0  0  0
   50.7617   12.4191   20.9088 H   0  0  0  0  0  0  0  0  0  0  0  0
   48.5745   15.4007   21.5966 H   0  0  0  0  0  0  0  0  0  0  0  0
   52.2186   17.9861   22.7348 H   0  0  0  0  0  0  0  0  0  0  0  0
   52.2241   16.2985   23.4143 H   0  0  0  0  0  0  0  0  0  0  0  0
   49.7547   16.4620   23.8152 H   0  0  0  0  0  0  0  0  0  0  0  0
   49.7436   18.1389   23.1119 H   0  0  0  0  0  0  0  0  0  0  0  0
   52.3889   16.6435   19.9823 H   0  0  0  0  0  0  0  0  0  0  0  0
   54.1387   17.7430   15.8787 H   0  0  0  0  0  0  0  0  0  0  0  0
   53.7414   16.8410   18.1467 H   0  0  0  0  0  0  0  0  0  0  0  0
   50.0496   19.0982   18.3456 H   0  0  0  0  0  0  0  0  0  0  0  0
   50.4850   19.9680   16.0887 H   0  0  0  0  0  0  0  0  0  0  0  0
   48.4688    3.1036   16.8267 H   0  0  0  0  0  0  0  0  0  0  0  0
   49.3259    1.9615   17.8685 H   0  0  0  0  0  0  0  0  0  0  0  0
   50.1797    3.4088   17.3258 H   0  0  0  0  0  0  0  0  0  0  0  0
   48.2636    6.1191   22.5779 H   0  0  0  0  0  0  0  0  0  0  0  0
   46.5147    5.8412   22.1962 H   0  0  0  0  0  0  0  0  0  0  0  0
   47.4735    4.5941   23.0042 H   0  0  0  0  0  0  0  0  0  0  0  0
  1  2  2  0
  1  6  1  0
  1 10  1  0
  2  3  1  0
  3  4  2  0
  4  5  1  0
  5  6  2  0
  6  7  1  0
  7  8  2  0
  8  9  1  0
  9 10  2  0
  3 11  1  0
  4 12  1  0
  7 13  1  0
 13 14  1  0
 15 14  2  0
 14 16  1  0
 15 19  1  0
 16 17  2  0
 17 18  1  0
 18 19  2  0
 18 20  1  0
 20 21  1  0
 21 22  2  0
 21 23  1  0
 23 24  1  0
 24 25  1  0
 25 23  1  0
 23 26  1  0
 26 27  1  0
 26 28  2  0
 27 29  1  0
 31 29  1  0
 29 32  2  0
 30 31  2  0
 30 34  1  0
 32 33  1  0
 33 34  2  0
 34 35  1  0
 11 36  1  0
 12 37  1  0
  2 38  1  0
  5 39  1  0
  8 40  1  0
  9 41  1  0
 15 42  1  0
 16 43  1  0
 17 44  1  0
 19 45  1  0
 20 46  1  0
 24 47  1  0
 24 48  1  0
 25 49  1  0
 25 50  1  0
 27 51  1  0
 30 52  1  0
 31 53  1  0
 32 54  1  0
 33 55  1  0
 36 56  1  0
 36 57  1  0
 36 58  1  0
 37 59  1  0
 37 60  1  0
 37 61  1  0
M  END
> <Uni-Dock RESULT> 
ENERGY=   -4.102  LOWER_BOUND=    7.664  UPPER_BOUND=   13.542
INTER + INTRA:          -4.102
INTER:                  -4.102
INTRA:                   0.000
UNBOUND:                 0.000

$$$$

     RDKit          3D

 61 65  0  0  0  0  0  0  0  0999 V2000
   50.0241   14.9365   16.1243 C   0  0  0  0  0  0  0  0  0  0  0  0
   49.9245   15.9906   15.2264 C   0  0  0  0  0  0  0  0  0  0  0  0
   48.7125   16.3333   14.6145 C   0  0  0  0  0  0  0  0  0  0  0  0
   47.5567   15.5888   14.9030 C   0  0  0  0  0  0  0  0  0  0  0  0
   47.6401   14.5298   15.8088 C   0  0  0  0  0  0  0  0  0  0  0  0
   48.8669   14.1952   16.4266 C   0  0  0  0  0  0  0  0  0  0  0  0
   49.0096   13.1370   17.3458 C   0  0  0  0  0  0  0  0  0  0  0  0
   50.2428   12.8737   17.9390 C   0  0  0  0  0  0  0  0  0  0  0  0
   51.3112   13.6552   17.5638 C   0  0  0  0  0  0  0  0  0  0  0  0
   51.2220   14.6677   16.6747 N   0  0  0  0  0  0  0  0  0  0  0  0
   48.5568   17.3668   13.7241 O   0  0  0  0  0  0  0  0  0  0  0  0
   46.4069   15.9810   14.2653 O   0  0  0  0  0  0  0  0  0  0  0  0
   47.8822   12.4237   17.7041 O   0  0  0  0  0  0  0  0  0  0  0  0
   47.9806   11.0527   17.7085 C   0  0  0  0  0  0  0  0  0  0  0  0
   48.5009   10.3317   16.6336 C   0  0  0  0  0  0  0  0  0  0  0  0
   47.4780   10.3856   18.8218 C   0  0  0  0  0  0  0  0  0  0  0  0
   47.5467    8.9922   18.8841 C   0  0  0  0  0  0  0  0  0  0  0  0
   48.1068    8.2571   17.8309 C   0  0  0  0  0  0  0  0  0  0  0  0
   48.5658    8.9361   16.6995 C   0  0  0  0  0  0  0  0  0  0  0  0
   48.1858    6.8606   17.9952 N   0  0  0  0  0  0  0  0  0  0  0  0
   48.8042    5.9549   17.1606 C   0  0  0  0  0  0  0  0  0  0  0  0
   49.3590    6.1649   16.0904 O   0  0  0  0  0  0  0  0  0  0  0  0
   48.8497    4.5661   17.7217 C   0  0  0  0  0  0  0  0  0  0  0  0
   48.3913    3.4170   16.8230 C   0  0  0  0  0  0  0  0  0  0  0  0
   47.5307    3.8371   17.9718 C   0  0  0  0  0  0  0  0  0  0  0  0
   50.0078    4.2995   18.6389 C   0  0  0  0  0  0  0  0  0  0  0  0
   51.2221    4.3124   17.9851 N   0  0  0  0  0  0  0  0  0  0  0  0
   49.7925    4.1300   19.8307 O   0  0  0  0  0  0  0  0  0  0  0  0
   52.5050    4.2050   18.5519 C   0  0  0  0  0  0  0  0  0  0  0  0
   54.9060    4.2495   18.1657 C   0  0  0  0  0  0  0  0  0  0  0  0
   53.5979    4.3156   17.6785 C   0  0  0  0  0  0  0  0  0  0  0  0
   52.7420    4.0150   19.9172 C   0  0  0  0  0  0  0  0  0  0  0  0
   54.0518    3.9508   20.4044 C   0  0  0  0  0  0  0  0  0  0  0  0
   55.1213    4.0718   19.5263 C   0  0  0  0  0  0  0  0  0  0  0  0
   56.3751    4.0244   19.9951 F   0  0  0  0  0  0  0  0  0  0  0  0
   49.6980   18.1557   13.4179 C   0  0  0  0  0  0  0  0  0  0  0  0
   45.2448   15.1792   14.4478 C   0  0  0  0  0  0  0  0  0  0  0  0
   50.8349   16.5444   15.0200 H   0  0  0  0  0  0  0  0  0  0  0  0
   46.7593   13.9474   16.0599 H   0  0  0  0  0  0  0  0  0  0  0  0
   50.3695   12.0863   18.6718 H   0  0  0  0  0  0  0  0  0  0  0  0
   52.3000   13.4931   17.9838 H   0  0  0  0  0  0  0  0  0  0  0  0
   48.8611   10.8399   15.7409 H   0  0  0  0  0  0  0  0  0  0  0  0
   47.0524   10.9483   19.6473 H   0  0  0  0  0  0  0  0  0  0  0  0
   47.1699    8.4944   19.7729 H   0  0  0  0  0  0  0  0  0  0  0  0
   48.9856    8.4090   15.8480 H   0  0  0  0  0  0  0  0  0  0  0  0
   47.8402    6.4919   18.8746 H   0  0  0  0  0  0  0  0  0  0  0  0
   48.9063    2.4645   16.8991 H   0  0  0  0  0  0  0  0  0  0  0  0
   48.0548    3.6552   15.8189 H   0  0  0  0  0  0  0  0  0  0  0  0
   46.5993    4.3435   17.7409 H   0  0  0  0  0  0  0  0  0  0  0  0
   47.4676    3.1724   18.8278 H   0  0  0  0  0  0  0  0  0  0  0  0
   51.1894    4.5109   16.9880 H   0  0  0  0  0  0  0  0  0  0  0  0
   55.7529    4.3415   17.4937 H   0  0  0  0  0  0  0  0  0  0  0  0
   53.4461    4.4615   16.6107 H   0  0  0  0  0  0  0  0  0  0  0  0
   51.9299    3.9227   20.6325 H   0  0  0  0  0  0  0  0  0  0  0  0
   54.2395    3.8110   21.4651 H   0  0  0  0  0  0  0  0  0  0  0  0
   50.0838   18.6622   14.3103 H   0  0  0  0  0  0  0  0  0  0  0  0
   49.3880   18.9276   12.7073 H   0  0  0  0  0  0  0  0  0  0  0  0
   50.4759   17.5555   12.9353 H   0  0  0  0  0  0  0  0  0  0  0  0
   45.4146   14.1489   14.1106 H   0  0  0  0  0  0  0  0  0  0  0  0
   44.9066   15.2059   15.4912 H   0  0  0  0  0  0  0  0  0  0  0  0
   44.4459   15.6031   13.8306 H   0  0  0  0  0  0  0  0  0  0  0  0
  1  2  2  0
  1  6  1  0
  1 10  1  0
  2  3  1  0
  3  4  2  0
  4  5  1  0
  5  6  2  0
  6  7  1  0
  7  8  2  0
  8  9  1  0
  9 10  2  0
  3 11  1  0
  4 12  1  0
  7 13  1  0
 13 14  1  0
 15 14  2  0
 14 16  1  0
 15 19  1  0
 16 17  2  0
 17 18  1  0
 18 19  2  0
 18 20  1  0
 20 21  1  0
 21 22  2  0
 21 23  1  0
 23 24  1  0
 24 25  1  0
 25 23  1  0
 23 26  1  0
 26 27  1  0
 26 28  2  0
 27 29  1  0
 31 29  1  0
 29 32  2  0
 30 31  2  0
 30 34  1  0
 32 33  1  0
 33 34  2  0
 34 35  1  0
 11 36  1  0
 12 37  1  0
  2 38  1  0
  5 39  1  0
  8 40  1  0
  9 41  1  0
 15 42  1  0
 16 43  1  0
 17 44  1  0
 19 45  1  0
 20 46  1  0
 24 47  1  0
 24 48  1  0
 25 49  1  0
 25 50  1  0
 27 51  1  0
 30 52  1  0
 31 53  1  0
 32 54  1  0
 33 55  1  0
 36 56  1  0
 36 57  1  0
 36 58  1  0
 37 59  1  0
 37 60  1  0
 37 61  1  0
M  END
> <Uni-Dock RESULT> 
ENERGY=   -4.064  LOWER_BOUND=    6.821  UPPER_BOUND=    8.585
INTER + INTRA:          -4.064
INTER:                  -4.064
INTRA:                   0.000
UNBOUND:                 0.000

$$$$

     RDKit          3D

 61 65  0  0  0  0  0  0  0  0999 V2000
   45.8840    8.1883   12.3322 C   0  0  0  0  0  0  0  0  0  0  0  0
   44.7702    7.3722   12.1880 C   0  0  0  0  0  0  0  0  0  0  0  0
   44.7691    6.0360   12.6066 C   0  0  0  0  0  0  0  0  0  0  0  0
   45.9280    5.4903   13.1829 C   0  0  0  0  0  0  0  0  0  0  0  0
   47.0539    6.3006   13.3402 C   0  0  0  0  0  0  0  0  0  0  0  0
   47.0436    7.6506   12.9205 C   0  0  0  0  0  0  0  0  0  0  0  0
   48.1500    8.5128   13.0527 C   0  0  0  0  0  0  0  0  0  0  0  0
   48.0675    9.8415   12.6410 C   0  0  0  0  0  0  0  0  0  0  0  0
   46.8880   10.2605   12.0698 C   0  0  0  0  0  0  0  0  0  0  0  0
   45.8099    9.4633   11.9088 N   0  0  0  0  0  0  0  0  0  0  0  0
   43.6961    5.1871   12.4921 O   0  0  0  0  0  0  0  0  0  0  0  0
   45.8538    4.1752   13.5671 O   0  0  0  0  0  0  0  0  0  0  0  0
   49.2857    8.0310   13.6742 O   0  0  0  0  0  0  0  0  0  0  0  0
   50.4912    8.2814   13.0631 C   0  0  0  0  0  0  0  0  0  0  0  0
   50.7183    8.0225   11.7113 C   0  0  0  0  0  0  0  0  0  0  0  0
   51.5219    8.7576   13.8679 C   0  0  0  0  0  0  0  0  0  0  0  0
   52.7712    9.0287   13.3057 C   0  0  0  0  0  0  0  0  0  0  0  0
   53.0013    8.8151   11.9402 C   0  0  0  0  0  0  0  0  0  0  0  0
   51.9717    8.2935   11.1529 C   0  0  0  0  0  0  0  0  0  0  0  0
   54.2719    9.1632   11.4424 N   0  0  0  0  0  0  0  0  0  0  0  0
   54.6828    9.1618   10.1269 C   0  0  0  0  0  0  0  0  0  0  0  0
   54.0560    8.8114    9.1362 O   0  0  0  0  0  0  0  0  0  0  0  0
   56.0455    9.7534    9.9304 C   0  0  0  0  0  0  0  0  0  0  0  0
   57.0561    8.9604    9.1010 C   0  0  0  0  0  0  0  0  0  0  0  0
   57.2418    9.0616   10.5815 C   0  0  0  0  0  0  0  0  0  0  0  0
   56.0643   11.2479    9.7887 C   0  0  0  0  0  0  0  0  0  0  0  0
   55.4659   11.6824    8.6244 N   0  0  0  0  0  0  0  0  0  0  0  0
   56.5570   11.9214   10.6826 O   0  0  0  0  0  0  0  0  0  0  0  0
   55.2184   13.0093    8.2284 C   0  0  0  0  0  0  0  0  0  0  0  0
   54.2163   14.4804    6.5708 C   0  0  0  0  0  0  0  0  0  0  0  0
   54.5279   13.1946    7.0207 C   0  0  0  0  0  0  0  0  0  0  0  0
   55.6024   14.1304    8.9712 C   0  0  0  0  0  0  0  0  0  0  0  0
   55.2885   15.4173    8.5210 C   0  0  0  0  0  0  0  0  0  0  0  0
   54.5962   15.5811    7.3280 C   0  0  0  0  0  0  0  0  0  0  0  0
   54.2835   16.8127    6.9045 F   0  0  0  0  0  0  0  0  0  0  0  0
   42.4983    5.7045   11.9298 C   0  0  0  0  0  0  0  0  0  0  0  0
   47.0438    3.5605   14.0495 C   0  0  0  0  0  0  0  0  0  0  0  0
   43.8913    7.8204   11.7354 H   0  0  0  0  0  0  0  0  0  0  0  0
   47.9577    5.9078   13.7952 H   0  0  0  0  0  0  0  0  0  0  0  0
   48.8940   10.5310   12.7616 H   0  0  0  0  0  0  0  0  0  0  0  0
   46.7652   11.2819   11.7204 H   0  0  0  0  0  0  0  0  0  0  0  0
   49.9315    7.6130   11.0801 H   0  0  0  0  0  0  0  0  0  0  0  0
   51.3490    8.9365   14.9249 H   0  0  0  0  0  0  0  0  0  0  0  0
   53.5537    9.4221   13.9481 H   0  0  0  0  0  0  0  0  0  0  0  0
   52.1089    8.0882   10.0955 H   0  0  0  0  0  0  0  0  0  0  0  0
   54.9241    9.5562   12.1122 H   0  0  0  0  0  0  0  0  0  0  0  0
   57.7463    9.5072    8.4665 H   0  0  0  0  0  0  0  0  0  0  0  0
   56.7438    8.0056    8.6896 H   0  0  0  0  0  0  0  0  0  0  0  0
   57.0734    8.1656   11.1698 H   0  0  0  0  0  0  0  0  0  0  0  0
   58.0535    9.6814   10.9496 H   0  0  0  0  0  0  0  0  0  0  0  0
   55.0801   10.9575    8.0242 H   0  0  0  0  0  0  0  0  0  0  0  0
   53.6767   14.6264    5.6409 H   0  0  0  0  0  0  0  0  0  0  0  0
   54.2178   12.3423    6.4191 H   0  0  0  0  0  0  0  0  0  0  0  0
   56.1391   14.0390    9.9110 H   0  0  0  0  0  0  0  0  0  0  0  0
   55.5784   16.2898    9.0992 H   0  0  0  0  0  0  0  0  0  0  0  0
   42.0943    6.5234   12.5364 H   0  0  0  0  0  0  0  0  0  0  0  0
   41.7577    4.8992   11.9257 H   0  0  0  0  0  0  0  0  0  0  0  0
   42.6515    6.0179   10.8923 H   0  0  0  0  0  0  0  0  0  0  0  0
   47.8401    3.5874   13.2950 H   0  0  0  0  0  0  0  0  0  0  0  0
   47.3715    4.0192   14.9908 H   0  0  0  0  0  0  0  0  0  0  0  0
   46.8171    2.5093   14.2556 H   0  0  0  0  0  0  0  0  0  0  0  0
  1  2  2  0
  1  6  1  0
  1 10  1  0
  2  3  1  0
  3  4  2  0
  4  5  1  0
  5  6  2  0
  6  7  1  0
  7  8  2  0
  8  9  1  0
  9 10  2  0
  3 11  1  0
  4 12  1  0
  7 13  1  0
 13 14  1  0
 15 14  2  0
 14 16  1  0
 15 19  1  0
 16 17  2  0
 17 18  1  0
 18 19  2  0
 18 20  1  0
 20 21  1  0
 21 22  2  0
 21 23  1  0
 23 24  1  0
 24 25  1  0
 25 23  1  0
 23 26  1  0
 26 27  1  0
 26 28  2  0
 27 29  1  0
 31 29  1  0
 29 32  2  0
 30 31  2  0
 30 34  1  0
 32 33  1  0
 33 34  2  0
 34 35  1  0
 11 36  1  0
 12 37  1  0
  2 38  1  0
  5 39  1  0
  8 40  1  0
  9 41  1  0
 15 42  1  0
 16 43  1  0
 17 44  1  0
 19 45  1  0
 20 46  1  0
 24 47  1  0
 24 48  1  0
 25 49  1  0
 25 50  1  0
 27 51  1  0
 30 52  1  0
 31 53  1  0
 32 54  1  0
 33 55  1  0
 36 56  1  0
 36 57  1  0
 36 58  1  0
 37 59  1  0
 37 60  1  0
 37 61  1  0
M  END
> <Uni-Dock RESULT> 
ENERGY=   -3.985  LOWER_BOUND=    4.679  UPPER_BOUND=   10.797
INTER + INTRA:          -3.985
INTER:                  -3.985
INTRA:                   0.000
UNBOUND:                 0.000

$$$$
