
     RDKit          3D

 61 65  0  0  0  0  0  0  0  0999 V2000
   52.0435    7.5013   17.7384 C   0  0  0  0  0  0  0  0  0  0  0  0
   52.4558    7.4286   19.0620 C   0  0  0  0  0  0  0  0  0  0  0  0
   51.6395    7.8546   20.1172 C   0  0  0  0  0  0  0  0  0  0  0  0
   50.3765    8.3973   19.8352 C   0  0  0  0  0  0  0  0  0  0  0  0
   49.9375    8.4568   18.5115 C   0  0  0  0  0  0  0  0  0  0  0  0
   50.7640    8.0145   17.4544 C   0  0  0  0  0  0  0  0  0  0  0  0
   50.3775    8.0499   16.1000 C   0  0  0  0  0  0  0  0  0  0  0  0
   51.2492    7.6382   15.1012 C   0  0  0  0  0  0  0  0  0  0  0  0
   52.4806    7.1587   15.4908 C   0  0  0  0  0  0  0  0  0  0  0  0
   52.8829    7.0772   16.7769 N   0  0  0  0  0  0  0  0  0  0  0  0
   52.0031    7.8110   21.4428 O   0  0  0  0  0  0  0  0  0  0  0  0
   49.6205    8.8006   20.9029 O   0  0  0  0  0  0  0  0  0  0  0  0
   49.1401    8.5717   15.7738 O   0  0  0  0  0  0  0  0  0  0  0  0
   48.3145    7.7904   14.9956 C   0  0  0  0  0  0  0  0  0  0  0  0
   48.1658    6.4133   15.1706 C   0  0  0  0  0  0  0  0  0  0  0  0
   47.5574    8.4512   14.0322 C   0  0  0  0  0  0  0  0  0  0  0  0
   46.6874    7.7290   13.2100 C   0  0  0  0  0  0  0  0  0  0  0  0
   46.5654    6.3399   13.3468 C   0  0  0  0  0  0  0  0  0  0  0  0
   47.3000    5.6911   14.3414 C   0  0  0  0  0  0  0  0  0  0  0  0
   45.6875    5.6778   12.4670 N   0  0  0  0  0  0  0  0  0  0  0  0
   45.5372    4.3198   12.3002 C   0  0  0  0  0  0  0  0  0  0  0  0
   46.1473    3.4180   12.8535 O   0  0  0  0  0  0  0  0  0  0  0  0
   44.5220    3.9666   11.2569 C   0  0  0  0  0  0  0  0  0  0  0  0
   43.0584    4.3073   11.5439 C   0  0  0  0  0  0  0  0  0  0  0  0
   43.5004    2.8783   11.5867 C   0  0  0  0  0  0  0  0  0  0  0  0
   44.9978    4.0947    9.8431 C   0  0  0  0  0  0  0  0  0  0  0  0
   45.6504    2.9740    9.3835 N   0  0  0  0  0  0  0  0  0  0  0  0
   44.8024    5.1490    9.2578 O   0  0  0  0  0  0  0  0  0  0  0  0
   46.2335    2.7770    8.1168 C   0  0  0  0  0  0  0  0  0  0  0  0
   46.8226    3.4558    5.8623 C   0  0  0  0  0  0  0  0  0  0  0  0
   46.2082    3.7261    7.0904 C   0  0  0  0  0  0  0  0  0  0  0  0
   46.8761    1.5489    7.8928 C   0  0  0  0  0  0  0  0  0  0  0  0
   47.4885    1.2794    6.6664 C   0  0  0  0  0  0  0  0  0  0  0  0
   47.4580    2.2364    5.6619 C   0  0  0  0  0  0  0  0  0  0  0  0
   48.0504    1.9805    4.4874 F   0  0  0  0  0  0  0  0  0  0  0  0
   53.1198    6.9989   21.7791 C   0  0  0  0  0  0  0  0  0  0  0  0
   48.6613    9.8183   20.6464 C   0  0  0  0  0  0  0  0  0  0  0  0
   53.4518    7.0364   19.2442 H   0  0  0  0  0  0  0  0  0  0  0  0
   48.9454    8.8313   18.2778 H   0  0  0  0  0  0  0  0  0  0  0  0
   50.9837    7.6939   14.0527 H   0  0  0  0  0  0  0  0  0  0  0  0
   53.2044    6.8167   14.7570 H   0  0  0  0  0  0  0  0  0  0  0  0
   48.7137    5.8867   15.9463 H   0  0  0  0  0  0  0  0  0  0  0  0
   47.6535    9.5281   13.9090 H   0  0  0  0  0  0  0  0  0  0  0  0
   46.1220    8.2689   12.4532 H   0  0  0  0  0  0  0  0  0  0  0  0
   47.2132    4.6225   14.5062 H   0  0  0  0  0  0  0  0  0  0  0  0
   45.1819    6.2623   11.8087 H   0  0  0  0  0  0  0  0  0  0  0  0
   42.8131    4.7909   12.4842 H   0  0  0  0  0  0  0  0  0  0  0  0
   42.4337    4.6215   10.7132 H   0  0  0  0  0  0  0  0  0  0  0  0
   43.5582    2.3951   12.5579 H   0  0  0  0  0  0  0  0  0  0  0  0
   43.1639    2.2232   10.7908 H   0  0  0  0  0  0  0  0  0  0  0  0
   45.7587    2.2178   10.0503 H   0  0  0  0  0  0  0  0  0  0  0  0
   46.8071    4.1916    5.0644 H   0  0  0  0  0  0  0  0  0  0  0  0
   45.7186    4.6872    7.2138 H   0  0  0  0  0  0  0  0  0  0  0  0
   46.9115    0.7875    8.6680 H   0  0  0  0  0  0  0  0  0  0  0  0
   47.9854    0.3325    6.4898 H   0  0  0  0  0  0  0  0  0  0  0  0
   53.0033    5.9790   21.3985 H   0  0  0  0  0  0  0  0  0  0  0  0
   54.0509    7.4483   21.4215 H   0  0  0  0  0  0  0  0  0  0  0  0
   53.1734    6.9401   22.8715 H   0  0  0  0  0  0  0  0  0  0  0  0
   49.0893   10.6382   20.0633 H   0  0  0  0  0  0  0  0  0  0  0  0
   48.3389   10.2259   21.6079 H   0  0  0  0  0  0  0  0  0  0  0  0
   47.7779    9.4039   20.1494 H   0  0  0  0  0  0  0  0  0  0  0  0
  1  2  2  0
  1  6  1  0
  1 10  1  0
  2  3  1  0
  3  4  2  0
  4  5  1  0
  5  6  2  0
  6  7  1  0
  7  8  2  0
  8  9  1  0
  9 10  2  0
  3 11  1  0
  4 12  1  0
  7 13  1  0
 13 14  1  0
 15 14  2  0
 14 16  1  0
 15 19  1  0
 16 17  2  0
 17 18  1  0
 18 19  2  0
 18 20  1  0
 20 21  1  0
 21 22  2  0
 21 23  1  0
 23 24  1  0
 24 25  1  0
 25 23  1  0
 23 26  1  0
 26 27  1  0
 26 28  2  0
 27 29  1  0
 31 29  1  0
 29 32  2  0
 30 31  2  0
 30 34  1  0
 32 33  1  0
 33 34  2  0
 34 35  1  0
 11 36  1  0
 12 37  1  0
  2 38  1  0
  5 39  1  0
  8 40  1  0
  9 41  1  0
 15 42  1  0
 16 43  1  0
 17 44  1  0
 19 45  1  0
 20 46  1  0
 24 47  1  0
 24 48  1  0
 25 49  1  0
 25 50  1  0
 27 51  1  0
 30 52  1  0
 31 53  1  0
 32 54  1  0
 33 55  1  0
 36 56  1  0
 36 57  1  0
 36 58  1  0
 37 59  1  0
 37 60  1  0
 37 61  1  0
M  END
> <Uni-Dock RESULT> 
ENERGY=   -6.352  LOWER_BOUND=    0.000  UPPER_BOUND=    0.000
INTER + INTRA:          -6.352
INTER:                  -6.352
INTRA:                   0.000
UNBOUND:                 0.000

$$$$

     RDKit          3D

 61 65  0  0  0  0  0  0  0  0999 V2000
   51.8615    9.6142   14.2006 C   0  0  0  0  0  0  0  0  0  0  0  0
   53.1913    9.7450   13.8243 C   0  0  0  0  0  0  0  0  0  0  0  0
   53.6771    9.2160   12.6220 C   0  0  0  0  0  0  0  0  0  0  0  0
   52.8065    8.5077   11.7796 C   0  0  0  0  0  0  0  0  0  0  0  0
   51.4613    8.3863   12.1322 C   0  0  0  0  0  0  0  0  0  0  0  0
   50.9782    8.9330   13.3422 C   0  0  0  0  0  0  0  0  0  0  0  0
   49.6334    8.8425   13.7525 C   0  0  0  0  0  0  0  0  0  0  0  0
   49.2259    9.3650   14.9722 C   0  0  0  0  0  0  0  0  0  0  0  0
   50.1750   10.0067   15.7374 C   0  0  0  0  0  0  0  0  0  0  0  0
   51.4672   10.1448   15.3719 N   0  0  0  0  0  0  0  0  0  0  0  0
   54.9848    9.3114   12.2072 O   0  0  0  0  0  0  0  0  0  0  0  0
   53.3332    8.0092   10.6185 O   0  0  0  0  0  0  0  0  0  0  0  0
   48.7377    8.1582   12.9529 O   0  0  0  0  0  0  0  0  0  0  0  0
   47.5835    8.8195   12.5949 C   0  0  0  0  0  0  0  0  0  0  0  0
   47.5490   10.1645   12.2224 C   0  0  0  0  0  0  0  0  0  0  0  0
   46.4170    8.0605   12.5551 C   0  0  0  0  0  0  0  0  0  0  0  0
   45.2066    8.6571   12.1903 C   0  0  0  0  0  0  0  0  0  0  0  0
   45.1533   10.0175   11.8593 C   0  0  0  0  0  0  0  0  0  0  0  0
   46.3348   10.7618   11.8648 C   0  0  0  0  0  0  0  0  0  0  0  0
   43.8945   10.5534   11.5256 N   0  0  0  0  0  0  0  0  0  0  0  0
   43.5726   11.8784   11.3379 C   0  0  0  0  0  0  0  0  0  0  0  0
   44.2970   12.8554   11.4487 O   0  0  0  0  0  0  0  0  0  0  0  0
   42.1258   12.0893   11.0121 C   0  0  0  0  0  0  0  0  0  0  0  0
   41.6126   11.5557    9.6733 C   0  0  0  0  0  0  0  0  0  0  0  0
   41.7779   13.0312    9.8595 C   0  0  0  0  0  0  0  0  0  0  0  0
   41.1976   12.0227   12.1850 C   0  0  0  0  0  0  0  0  0  0  0  0
   41.0747   13.2197   12.8521 N   0  0  0  0  0  0  0  0  0  0  0  0
   40.6787   10.9502   12.4549 O   0  0  0  0  0  0  0  0  0  0  0  0
   40.3035   13.4900   13.9991 C   0  0  0  0  0  0  0  0  0  0  0  0
   38.7683   12.8907   15.7808 C   0  0  0  0  0  0  0  0  0  0  0  0
   39.4957   12.5435   14.6367 C   0  0  0  0  0  0  0  0  0  0  0  0
   40.3659   14.7928   14.5189 C   0  0  0  0  0  0  0  0  0  0  0  0
   39.6388   15.1390   15.6605 C   0  0  0  0  0  0  0  0  0  0  0  0
   38.8474   14.1840   16.2829 C   0  0  0  0  0  0  0  0  0  0  0  0
   38.1544   14.5141   17.3815 F   0  0  0  0  0  0  0  0  0  0  0  0
   55.8032   10.2671   12.8680 C   0  0  0  0  0  0  0  0  0  0  0  0
   52.6814    6.8712   10.0693 C   0  0  0  0  0  0  0  0  0  0  0  0
   53.8468   10.2681   14.5142 H   0  0  0  0  0  0  0  0  0  0  0  0
   50.7633    7.8813   11.4713 H   0  0  0  0  0  0  0  0  0  0  0  0
   48.2049    9.2715   15.3212 H   0  0  0  0  0  0  0  0  0  0  0  0
   49.9170   10.4410   16.6987 H   0  0  0  0  0  0  0  0  0  0  0  0
   48.4556   10.7621   12.2035 H   0  0  0  0  0  0  0  0  0  0  0  0
   46.4448    7.0060   12.8222 H   0  0  0  0  0  0  0  0  0  0  0  0
   44.3076    8.0442   12.1859 H   0  0  0  0  0  0  0  0  0  0  0  0
   46.3478   11.8094   11.5840 H   0  0  0  0  0  0  0  0  0  0  0  0
   43.1137    9.9045   11.5231 H   0  0  0  0  0  0  0  0  0  0  0  0
   42.3103   11.0459    9.0162 H   0  0  0  0  0  0  0  0  0  0  0  0
   40.6029   11.1583    9.6339 H   0  0  0  0  0  0  0  0  0  0  0  0
   42.5912   13.5203    9.3308 H   0  0  0  0  0  0  0  0  0  0  0  0
   40.8789   13.6332    9.9336 H   0  0  0  0  0  0  0  0  0  0  0  0
   41.6381   13.9853   12.4990 H   0  0  0  0  0  0  0  0  0  0  0  0
   38.1425   12.1575   16.2798 H   0  0  0  0  0  0  0  0  0  0  0  0
   39.4103   11.5256   14.2689 H   0  0  0  0  0  0  0  0  0  0  0  0
   40.9813   15.5541   14.0460 H   0  0  0  0  0  0  0  0  0  0  0  0
   39.6843   16.1436   16.0647 H   0  0  0  0  0  0  0  0  0  0  0  0
   55.3443   11.2611   12.8614 H   0  0  0  0  0  0  0  0  0  0  0  0
   56.0317    9.9460   13.8885 H   0  0  0  0  0  0  0  0  0  0  0  0
   56.7478   10.3354   12.3181 H   0  0  0  0  0  0  0  0  0  0  0  0
   52.4793    6.1147   10.8324 H   0  0  0  0  0  0  0  0  0  0  0  0
   53.3501    6.4264    9.3280 H   0  0  0  0  0  0  0  0  0  0  0  0
   51.7607    7.1618    9.5526 H   0  0  0  0  0  0  0  0  0  0  0  0
  1  2  2  0
  1  6  1  0
  1 10  1  0
  2  3  1  0
  3  4  2  0
  4  5  1  0
  5  6  2  0
  6  7  1  0
  7  8  2  0
  8  9  1  0
  9 10  2  0
  3 11  1  0
  4 12  1  0
  7 13  1  0
 13 14  1  0
 15 14  2  0
 14 16  1  0
 15 19  1  0
 16 17  2  0
 17 18  1  0
 18 19  2  0
 18 20  1  0
 20 21  1  0
 21 22  2  0
 21 23  1  0
 23 24  1  0
 24 25  1  0
 25 23  1  0
 23 26  1  0
 26 27  1  0
 26 28  2  0
 27 29  1  0
 31 29  1  0
 29 32  2  0
 30 31  2  0
 30 34  1  0
 32 33  1  0
 33 34  2  0
 34 35  1  0
 11 36  1  0
 12 37  1  0
  2 38  1  0
  5 39  1  0
  8 40  1  0
  9 41  1  0
 15 42  1  0
 16 43  1  0
 17 44  1  0
 19 45  1  0
 20 46  1  0
 24 47  1  0
 24 48  1  0
 25 49  1  0
 25 50  1  0
 27 51  1  0
 30 52  1  0
 31 53  1  0
 32 54  1  0
 33 55  1  0
 36 56  1  0
 36 57  1  0
 36 58  1  0
 37 59  1  0
 37 60  1  0
 37 61  1  0
M  END
> <Uni-Dock RESULT> 
ENERGY=   -4.847  LOWER_BOUND=    6.825  UPPER_BOUND=    9.727
INTER + INTRA:          -4.847
INTER:                  -4.847
INTRA:                   0.000
UNBOUND:                 0.000

$$$$

     RDKit          3D

 61 65  0  0  0  0  0  0  0  0999 V2000
   45.5702    8.5304   12.2435 C   0  0  0  0  0  0  0  0  0  0  0  0
   44.4469    9.1516   11.7147 C   0  0  0  0  0  0  0  0  0  0  0  0
   44.4141   10.5272   11.4538 C   0  0  0  0  0  0  0  0  0  0  0  0
   45.5362   11.3128   11.7583 C   0  0  0  0  0  0  0  0  0  0  0  0
   46.6819   10.7006   12.2694 C   0  0  0  0  0  0  0  0  0  0  0  0
   46.7091    9.3102   12.5190 C   0  0  0  0  0  0  0  0  0  0  0  0
   47.8340    8.6361   13.0341 C   0  0  0  0  0  0  0  0  0  0  0  0
   47.7875    7.2737   13.2964 C   0  0  0  0  0  0  0  0  0  0  0  0
   46.6195    6.6083   12.9946 C   0  0  0  0  0  0  0  0  0  0  0  0
   45.5277    7.2056   12.4717 N   0  0  0  0  0  0  0  0  0  0  0  0
   43.3255   11.1910   10.9386 O   0  0  0  0  0  0  0  0  0  0  0  0
   45.4502   12.6518   11.4861 O   0  0  0  0  0  0  0  0  0  0  0  0
   48.9645    9.3676   13.3448 O   0  0  0  0  0  0  0  0  0  0  0  0
   50.1563    8.9436   12.7993 C   0  0  0  0  0  0  0  0  0  0  0  0
   50.2857    8.4934   11.4841 C   0  0  0  0  0  0  0  0  0  0  0  0
   51.2827    9.0394   13.6118 C   0  0  0  0  0  0  0  0  0  0  0  0
   52.5311    8.6391   13.1265 C   0  0  0  0  0  0  0  0  0  0  0  0
   52.6636    8.1422   11.8231 C   0  0  0  0  0  0  0  0  0  0  0  0
   51.5351    8.0859   11.0027 C   0  0  0  0  0  0  0  0  0  0  0  0
   53.9482    7.7361   11.4130 N   0  0  0  0  0  0  0  0  0  0  0  0
   54.2848    7.0660   10.2588 C   0  0  0  0  0  0  0  0  0  0  0  0
   53.5443    6.6639    9.3748 O   0  0  0  0  0  0  0  0  0  0  0  0
   55.7506    6.7744   10.1570 C   0  0  0  0  0  0  0  0  0  0  0  0
   56.7029    7.9610    9.9976 C   0  0  0  0  0  0  0  0  0  0  0  0
   56.4505    7.0614    8.8287 C   0  0  0  0  0  0  0  0  0  0  0  0
   56.2225    5.6139   10.9768 C   0  0  0  0  0  0  0  0  0  0  0  0
   56.0825    4.4027   10.3392 N   0  0  0  0  0  0  0  0  0  0  0  0
   56.6418    5.8309   12.1035 O   0  0  0  0  0  0  0  0  0  0  0  0
   56.4082    3.1261   10.8366 C   0  0  0  0  0  0  0  0  0  0  0  0
   57.2540    1.5968   12.5207 C   0  0  0  0  0  0  0  0  0  0  0  0
   56.9702    2.8999   12.0967 C   0  0  0  0  0  0  0  0  0  0  0  0
   56.1423    2.0282   10.0028 C   0  0  0  0  0  0  0  0  0  0  0  0
   56.4266    0.7276   10.4262 C   0  0  0  0  0  0  0  0  0  0  0  0
   56.9786    0.5229   11.6829 C   0  0  0  0  0  0  0  0  0  0  0  0
   57.2461   -0.7250   12.0918 F   0  0  0  0  0  0  0  0  0  0  0  0
   42.3090   10.3974   10.3415 C   0  0  0  0  0  0  0  0  0  0  0  0
   46.2762   13.5069   12.2659 C   0  0  0  0  0  0  0  0  0  0  0  0
   43.5832    8.5219   11.5230 H   0  0  0  0  0  0  0  0  0  0  0  0
   47.5752   11.2850   12.4682 H   0  0  0  0  0  0  0  0  0  0  0  0
   48.6292    6.7460   13.7276 H   0  0  0  0  0  0  0  0  0  0  0  0
   46.5230    5.5412   13.1718 H   0  0  0  0  0  0  0  0  0  0  0  0
   49.4270    8.4538   10.8205 H   0  0  0  0  0  0  0  0  0  0  0  0
   51.1891    9.4122   14.6298 H   0  0  0  0  0  0  0  0  0  0  0  0
   53.3909    8.7075   13.7897 H   0  0  0  0  0  0  0  0  0  0  0  0
   51.5953    7.7398    9.9765 H   0  0  0  0  0  0  0  0  0  0  0  0
   54.6972    7.8580   12.0875 H   0  0  0  0  0  0  0  0  0  0  0  0
   56.2840    8.9620    9.9671 H   0  0  0  0  0  0  0  0  0  0  0  0
   57.6738    7.9065   10.4806 H   0  0  0  0  0  0  0  0  0  0  0  0
   55.8565    7.4527    8.0077 H   0  0  0  0  0  0  0  0  0  0  0  0
   57.2560    6.4072    8.5138 H   0  0  0  0  0  0  0  0  0  0  0  0
   55.6569    4.4312    9.4193 H   0  0  0  0  0  0  0  0  0  0  0  0
   57.6877    1.4176   13.4996 H   0  0  0  0  0  0  0  0  0  0  0  0
   57.1994    3.7167   12.7743 H   0  0  0  0  0  0  0  0  0  0  0  0
   55.7088    2.1685    9.0156 H   0  0  0  0  0  0  0  0  0  0  0  0
   56.2228   -0.1224    9.7854 H   0  0  0  0  0  0  0  0  0  0  0  0
   42.7198    9.7245    9.5818 H   0  0  0  0  0  0  0  0  0  0  0  0
   41.7524    9.8405   11.1008 H   0  0  0  0  0  0  0  0  0  0  0  0
   41.6083   11.0736    9.8401 H   0  0  0  0  0  0  0  0  0  0  0  0
   46.2219   13.2600   13.3296 H   0  0  0  0  0  0  0  0  0  0  0  0
   45.9118   14.5299   12.1422 H   0  0  0  0  0  0  0  0  0  0  0  0
   47.3112   13.4787   11.9097 H   0  0  0  0  0  0  0  0  0  0  0  0
  1  2  2  0
  1  6  1  0
  1 10  1  0
  2  3  1  0
  3  4  2  0
  4  5  1  0
  5  6  2  0
  6  7  1  0
  7  8  2  0
  8  9  1  0
  9 10  2  0
  3 11  1  0
  4 12  1  0
  7 13  1  0
 13 14  1  0
 15 14  2  0
 14 16  1  0
 15 19  1  0
 16 17  2  0
 17 18  1  0
 18 19  2  0
 18 20  1  0
 20 21  1  0
 21 22  2  0
 21 23  1  0
 23 24  1  0
 24 25  1  0
 25 23  1  0
 23 26  1  0
 26 27  1  0
 26 28  2  0
 27 29  1  0
 31 29  1  0
 29 32  2  0
 30 31  2  0
 30 34  1  0
 32 33  1  0
 33 34  2  0
 34 35  1  0
 11 36  1  0
 12 37  1  0
  2 38  1  0
  5 39  1  0
  8 40  1  0
  9 41  1  0
 15 42  1  0
 16 43  1  0
 17 44  1  0
 19 45  1  0
 20 46  1  0
 24 47  1  0
 24 48  1  0
 25 49  1  0
 25 50  1  0
 27 51  1  0
 30 52  1  0
 31 53  1  0
 32 54  1  0
 33 55  1  0
 36 56  1  0
 36 57  1  0
 36 58  1  0
 37 59  1  0
 37 60  1  0
 37 61  1  0
M  END
> <Uni-Dock RESULT> 
ENERGY=   -4.625  LOWER_BOUND=    5.878  UPPER_BOUND=    9.772
INTER + INTRA:          -4.625
INTER:                  -4.625
INTRA:                   0.000
UNBOUND:                 0.000

$$$$

     RDKit          3D

 61 65  0  0  0  0  0  0  0  0999 V2000
   41.4440   12.7185    9.9366 C   0  0  0  0  0  0  0  0  0  0  0  0
   40.5339   13.7367   10.1858 C   0  0  0  0  0  0  0  0  0  0  0  0
   40.0754   14.0215   11.4781 C   0  0  0  0  0  0  0  0  0  0  0  0
   40.5236   13.2418   12.5553 C   0  0  0  0  0  0  0  0  0  0  0  0
   41.4560   12.2287   12.3254 C   0  0  0  0  0  0  0  0  0  0  0  0
   41.9210   11.9560   11.0193 C   0  0  0  0  0  0  0  0  0  0  0  0
   42.8597   10.9476   10.7245 C   0  0  0  0  0  0  0  0  0  0  0  0
   43.2488   10.6998    9.4152 C   0  0  0  0  0  0  0  0  0  0  0  0
   42.7147   11.5025    8.4311 C   0  0  0  0  0  0  0  0  0  0  0  0
   41.8366   12.4999    8.6689 N   0  0  0  0  0  0  0  0  0  0  0  0
   39.1699   15.0125   11.7768 O   0  0  0  0  0  0  0  0  0  0  0  0
   40.0422   13.5608   13.7965 O   0  0  0  0  0  0  0  0  0  0  0  0
   43.3334   10.1568   11.7541 O   0  0  0  0  0  0  0  0  0  0  0  0
   44.7005   10.0554   11.8899 C   0  0  0  0  0  0  0  0  0  0  0  0
   45.5723   11.1361   11.7441 C   0  0  0  0  0  0  0  0  0  0  0  0
   45.2001    8.8073   12.2516 C   0  0  0  0  0  0  0  0  0  0  0  0
   46.5760    8.6267   12.4197 C   0  0  0  0  0  0  0  0  0  0  0  0
   47.4637    9.6942   12.2303 C   0  0  0  0  0  0  0  0  0  0  0  0
   46.9503   10.9514   11.9054 C   0  0  0  0  0  0  0  0  0  0  0  0
   48.8373    9.4301   12.3937 N   0  0  0  0  0  0  0  0  0  0  0  0
   49.8907   10.2641   12.0948 C   0  0  0  0  0  0  0  0  0  0  0  0
   49.8543   11.3821   11.6047 O   0  0  0  0  0  0  0  0  0  0  0  0
   51.2256    9.6461   12.3775 C   0  0  0  0  0  0  0  0  0  0  0  0
   51.5855    9.3666   13.8379 C   0  0  0  0  0  0  0  0  0  0  0  0
   52.2657   10.4876   13.1170 C   0  0  0  0  0  0  0  0  0  0  0  0
   51.6995    8.6672   11.3486 C   0  0  0  0  0  0  0  0  0  0  0  0
   52.3562    9.2589   10.2943 N   0  0  0  0  0  0  0  0  0  0  0  0
   51.4442    7.4837   11.5118 O   0  0  0  0  0  0  0  0  0  0  0  0
   52.9038    8.6296    9.1596 C   0  0  0  0  0  0  0  0  0  0  0  0
   53.4372    6.7023    7.7843 C   0  0  0  0  0  0  0  0  0  0  0  0
   52.8798    7.2480    8.9462 C   0  0  0  0  0  0  0  0  0  0  0  0
   53.5023    9.4570    8.1960 C   0  0  0  0  0  0  0  0  0  0  0  0
   54.0594    8.9116    7.0368 C   0  0  0  0  0  0  0  0  0  0  0  0
   54.0204    7.5385    6.8400 C   0  0  0  0  0  0  0  0  0  0  0  0
   54.5495    7.0154    5.7253 F   0  0  0  0  0  0  0  0  0  0  0  0
   38.9404   15.9987   10.7796 C   0  0  0  0  0  0  0  0  0  0  0  0
   40.0129   12.5067   14.7503 C   0  0  0  0  0  0  0  0  0  0  0  0
   40.1799   14.2987    9.3267 H   0  0  0  0  0  0  0  0  0  0  0  0
   41.8487   11.6450   13.1526 H   0  0  0  0  0  0  0  0  0  0  0  0
   43.9400    9.9042    9.1656 H   0  0  0  0  0  0  0  0  0  0  0  0
   42.9841   11.3619    7.3885 H   0  0  0  0  0  0  0  0  0  0  0  0
   45.1980   12.1273   11.5065 H   0  0  0  0  0  0  0  0  0  0  0  0
   44.5208    7.9684   12.3891 H   0  0  0  0  0  0  0  0  0  0  0  0
   46.9400    7.6361   12.6842 H   0  0  0  0  0  0  0  0  0  0  0  0
   47.5959   11.8142   11.7815 H   0  0  0  0  0  0  0  0  0  0  0  0
   49.0862    8.4840   12.6651 H   0  0  0  0  0  0  0  0  0  0  0  0
   50.8644    9.6221   14.6080 H   0  0  0  0  0  0  0  0  0  0  0  0
   52.1681    8.4776   14.0603 H   0  0  0  0  0  0  0  0  0  0  0  0
   52.0016   11.5036   13.3967 H   0  0  0  0  0  0  0  0  0  0  0  0
   53.3124   10.3612   12.8629 H   0  0  0  0  0  0  0  0  0  0  0  0
   52.4160   10.2708   10.3193 H   0  0  0  0  0  0  0  0  0  0  0  0
   53.4177    5.6303    7.6143 H   0  0  0  0  0  0  0  0  0  0  0  0
   52.4340    6.5672    9.6649 H   0  0  0  0  0  0  0  0  0  0  0  0
   53.5412   10.5350    8.3319 H   0  0  0  0  0  0  0  0  0  0  0  0
   54.5223    9.5471    6.2907 H   0  0  0  0  0  0  0  0  0  0  0  0
   39.8777   16.4507   10.4392 H   0  0  0  0  0  0  0  0  0  0  0  0
   38.3774   15.5809    9.9399 H   0  0  0  0  0  0  0  0  0  0  0  0
   38.3342   16.7929   11.2283 H   0  0  0  0  0  0  0  0  0  0  0  0
   39.5920   11.5910   14.3266 H   0  0  0  0  0  0  0  0  0  0  0  0
   39.3684   12.8188   15.5760 H   0  0  0  0  0  0  0  0  0  0  0  0
   41.0119   12.3253   15.1603 H   0  0  0  0  0  0  0  0  0  0  0  0
  1  2  2  0
  1  6  1  0
  1 10  1  0
  2  3  1  0
  3  4  2  0
  4  5  1  0
  5  6  2  0
  6  7  1  0
  7  8  2  0
  8  9  1  0
  9 10  2  0
  3 11  1  0
  4 12  1  0
  7 13  1  0
 13 14  1  0
 15 14  2  0
 14 16  1  0
 15 19  1  0
 16 17  2  0
 17 18  1  0
 18 19  2  0
 18 20  1  0
 20 21  1  0
 21 22  2  0
 21 23  1  0
 23 24  1  0
 24 25  1  0
 25 23  1  0
 23 26  1  0
 26 27  1  0
 26 28  2  0
 27 29  1  0
 31 29  1  0
 29 32  2  0
 30 31  2  0
 30 34  1  0
 32 33  1  0
 33 34  2  0
 34 35  1  0
 11 36  1  0
 12 37  1  0
  2 38  1  0
  5 39  1  0
  8 40  1  0
  9 41  1  0
 15 42  1  0
 16 43  1  0
 17 44  1  0
 19 45  1  0
 20 46  1  0
 24 47  1  0
 24 48  1  0
 25 49  1  0
 25 50  1  0
 27 51  1  0
 30 52  1  0
 31 53  1  0
 32 54  1  0
 33 55  1  0
 36 56  1  0
 36 57  1  0
 36 58  1  0
 37 59  1  0
 37 60  1  0
 37 61  1  0
M  END
> <Uni-Dock RESULT> 
ENERGY=   -4.566  LOWER_BOUND=    6.794  UPPER_BOUND=   10.561
INTER + INTRA:          -4.566
INTER:                  -4.566
INTRA:                   0.000
UNBOUND:                 0.000

$$$$

     RDKit          3D

 61 65  0  0  0  0  0  0  0  0999 V2000
   50.8652   12.4244   10.7017 C   0  0  0  0  0  0  0  0  0  0  0  0
   50.7146   13.7873   10.4851 C   0  0  0  0  0  0  0  0  0  0  0  0
   49.4536   14.3940   10.4273 C   0  0  0  0  0  0  0  0  0  0  0  0
   48.3022   13.6037   10.5644 C   0  0  0  0  0  0  0  0  0  0  0  0
   48.4362   12.2353   10.8052 C   0  0  0  0  0  0  0  0  0  0  0  0
   49.7131   11.6341   10.8728 C   0  0  0  0  0  0  0  0  0  0  0  0
   49.9123   10.2600   11.1120 C   0  0  0  0  0  0  0  0  0  0  0  0
   51.1908    9.7194   11.1275 C   0  0  0  0  0  0  0  0  0  0  0  0
   52.2480   10.5833   10.9427 C   0  0  0  0  0  0  0  0  0  0  0  0
   52.1076   11.9107   10.7410 N   0  0  0  0  0  0  0  0  0  0  0  0
   49.2503   15.7363   10.2079 O   0  0  0  0  0  0  0  0  0  0  0  0
   47.0953   14.2464   10.4972 O   0  0  0  0  0  0  0  0  0  0  0  0
   48.8078    9.4424   11.2582 O   0  0  0  0  0  0  0  0  0  0  0  0
   48.7566    8.6520   12.3853 C   0  0  0  0  0  0  0  0  0  0  0  0
   49.1333    9.0938   13.6550 C   0  0  0  0  0  0  0  0  0  0  0  0
   48.2398    7.3694   12.2243 C   0  0  0  0  0  0  0  0  0  0  0  0
   48.1450    6.5105   13.3231 C   0  0  0  0  0  0  0  0  0  0  0  0
   48.5637    6.9286   14.5932 C   0  0  0  0  0  0  0  0  0  0  0  0
   49.0447    8.2298   14.7525 C   0  0  0  0  0  0  0  0  0  0  0  0
   48.4601    6.0000   15.6468 N   0  0  0  0  0  0  0  0  0  0  0  0
   48.9619    6.1231   16.9226 C   0  0  0  0  0  0  0  0  0  0  0  0
   49.6181    7.0402   17.3917 O   0  0  0  0  0  0  0  0  0  0  0  0
   48.6823    4.9271   17.7800 C   0  0  0  0  0  0  0  0  0  0  0  0
   47.2259    4.6431   18.1524 C   0  0  0  0  0  0  0  0  0  0  0  0
   48.1616    5.1641   19.1975 C   0  0  0  0  0  0  0  0  0  0  0  0
   49.5756    3.7509   17.5347 C   0  0  0  0  0  0  0  0  0  0  0  0
   50.7545    3.8043   18.2419 N   0  0  0  0  0  0  0  0  0  0  0  0
   49.2100    2.9001   16.7379 O   0  0  0  0  0  0  0  0  0  0  0  0
   51.8124    2.8749   18.2222 C   0  0  0  0  0  0  0  0  0  0  0  0
   52.9018    0.8320   17.4939 C   0  0  0  0  0  0  0  0  0  0  0  0
   51.8032    1.6986   17.4664 C   0  0  0  0  0  0  0  0  0  0  0  0
   52.9349    3.1670   19.0135 C   0  0  0  0  0  0  0  0  0  0  0  0
   54.0309    2.3011   19.0411 C   0  0  0  0  0  0  0  0  0  0  0  0
   54.0056    1.1414   18.2793 C   0  0  0  0  0  0  0  0  0  0  0  0
   55.0591    0.3135   18.3010 F   0  0  0  0  0  0  0  0  0  0  0  0
   50.3712   16.5942   10.3731 C   0  0  0  0  0  0  0  0  0  0  0  0
   45.9878   13.4628   10.0717 C   0  0  0  0  0  0  0  0  0  0  0  0
   51.6237   14.3652   10.3482 H   0  0  0  0  0  0  0  0  0  0  0  0
   47.5579   11.6157   10.9593 H   0  0  0  0  0  0  0  0  0  0  0  0
   51.3611    8.6597   11.2719 H   0  0  0  0  0  0  0  0  0  0  0  0
   53.2720   10.2220   10.9496 H   0  0  0  0  0  0  0  0  0  0  0  0
   49.4965   10.1055   13.8091 H   0  0  0  0  0  0  0  0  0  0  0  0
   47.9232    7.0300   11.2400 H   0  0  0  0  0  0  0  0  0  0  0  0
   47.7546    5.5074   13.1644 H   0  0  0  0  0  0  0  0  0  0  0  0
   49.3492    8.6084   15.7223 H   0  0  0  0  0  0  0  0  0  0  0  0
   48.0618    5.0956   15.4142 H   0  0  0  0  0  0  0  0  0  0  0  0
   46.4557    5.3124   17.7819 H   0  0  0  0  0  0  0  0  0  0  0  0
   46.9088    3.6072   18.2249 H   0  0  0  0  0  0  0  0  0  0  0  0
   48.0270    6.1889   19.5320 H   0  0  0  0  0  0  0  0  0  0  0  0
   48.4674    4.4831   19.9841 H   0  0  0  0  0  0  0  0  0  0  0  0
   50.8936    4.6310   18.8124 H   0  0  0  0  0  0  0  0  0  0  0  0
   52.8989   -0.0806   16.9060 H   0  0  0  0  0  0  0  0  0  0  0  0
   50.9559    1.4266   16.8443 H   0  0  0  0  0  0  0  0  0  0  0  0
   52.9737    4.0712   19.6159 H   0  0  0  0  0  0  0  0  0  0  0  0
   54.8991    2.5231   19.6507 H   0  0  0  0  0  0  0  0  0  0  0  0
   50.8453   16.4512   11.3496 H   0  0  0  0  0  0  0  0  0  0  0  0
   51.0918   16.4552    9.5619 H   0  0  0  0  0  0  0  0  0  0  0  0
   50.0108   17.6274   10.3286 H   0  0  0  0  0  0  0  0  0  0  0  0
   46.2305   12.8685    9.1867 H   0  0  0  0  0  0  0  0  0  0  0  0
   45.1773   14.1451    9.8030 H   0  0  0  0  0  0  0  0  0  0  0  0
   45.6274   12.8246   10.8851 H   0  0  0  0  0  0  0  0  0  0  0  0
  1  2  2  0
  1  6  1  0
  1 10  1  0
  2  3  1  0
  3  4  2  0
  4  5  1  0
  5  6  2  0
  6  7  1  0
  7  8  2  0
  8  9  1  0
  9 10  2  0
  3 11  1  0
  4 12  1  0
  7 13  1  0
 13 14  1  0
 15 14  2  0
 14 16  1  0
 15 19  1  0
 16 17  2  0
 17 18  1  0
 18 19  2  0
 18 20  1  0
 20 21  1  0
 21 22  2  0
 21 23  1  0
 23 24  1  0
 24 25  1  0
 25 23  1  0
 23 26  1  0
 26 27  1  0
 26 28  2  0
 27 29  1  0
 31 29  1  0
 29 32  2  0
 30 31  2  0
 30 34  1  0
 32 33  1  0
 33 34  2  0
 34 35  1  0
 11 36  1  0
 12 37  1  0
  2 38  1  0
  5 39  1  0
  8 40  1  0
  9 41  1  0
 15 42  1  0
 16 43  1  0
 17 44  1  0
 19 45  1  0
 20 46  1  0
 24 47  1  0
 24 48  1  0
 25 49  1  0
 25 50  1  0
 27 51  1  0
 30 52  1  0
 31 53  1  0
 32 54  1  0
 33 55  1  0
 36 56  1  0
 36 57  1  0
 36 58  1  0
 37 59  1  0
 37 60  1  0
 37 61  1  0
M  END
> <Uni-Dock RESULT> 
ENERGY=   -4.450  LOWER_BOUND=    5.744  UPPER_BOUND=    9.484
INTER + INTRA:          -4.450
INTER:                  -4.450
INTRA:                   0.000
UNBOUND:                 0.000

$$$$

     RDKit          3D

 61 65  0  0  0  0  0  0  0  0999 V2000
   49.5325   12.0461   11.3481 C   0  0  0  0  0  0  0  0  0  0  0  0
   49.1969   13.3890   11.2438 C   0  0  0  0  0  0  0  0  0  0  0  0
   47.8711   13.8312   11.3345 C   0  0  0  0  0  0  0  0  0  0  0  0
   46.8426   12.8927   11.5090 C   0  0  0  0  0  0  0  0  0  0  0  0
   47.1647   11.5406   11.6384 C   0  0  0  0  0  0  0  0  0  0  0  0
   48.5064   11.1054   11.5563 C   0  0  0  0  0  0  0  0  0  0  0  0
   48.8935    9.7562   11.6783 C   0  0  0  0  0  0  0  0  0  0  0  0
   50.2246    9.3843   11.5488 C   0  0  0  0  0  0  0  0  0  0  0  0
   51.1467   10.3865   11.3400 C   0  0  0  0  0  0  0  0  0  0  0  0
   50.8268   11.6947   11.2471 N   0  0  0  0  0  0  0  0  0  0  0  0
   47.4857   15.1471   11.2303 O   0  0  0  0  0  0  0  0  0  0  0  0
   45.5649   13.3779   11.5886 O   0  0  0  0  0  0  0  0  0  0  0  0
   47.9156    8.7961   11.8560 O   0  0  0  0  0  0  0  0  0  0  0  0
   48.0646    7.9381   12.9234 C   0  0  0  0  0  0  0  0  0  0  0  0
   48.4986    8.3460   14.1861 C   0  0  0  0  0  0  0  0  0  0  0  0
   47.6964    6.6120   12.7134 C   0  0  0  0  0  0  0  0  0  0  0  0
   47.8082    5.6823   13.7514 C   0  0  0  0  0  0  0  0  0  0  0  0
   48.2866    6.0722   15.0093 C   0  0  0  0  0  0  0  0  0  0  0  0
   48.6171    7.4121   15.2218 C   0  0  0  0  0  0  0  0  0  0  0  0
   48.3942    5.0751   15.9980 N   0  0  0  0  0  0  0  0  0  0  0  0
   48.9914    5.1832   17.2334 C   0  0  0  0  0  0  0  0  0  0  0  0
   49.5703    6.1465   17.7116 O   0  0  0  0  0  0  0  0  0  0  0  0
   48.9399    3.9109   18.0223 C   0  0  0  0  0  0  0  0  0  0  0  0
   47.5694    3.4200   18.4925 C   0  0  0  0  0  0  0  0  0  0  0  0
   48.5256    3.9918   19.4915 C   0  0  0  0  0  0  0  0  0  0  0  0
   49.9445    2.8764   17.6195 C   0  0  0  0  0  0  0  0  0  0  0  0
   51.1675    3.0374   18.2287 N   0  0  0  0  0  0  0  0  0  0  0  0
   49.6148    2.0362   16.7963 O   0  0  0  0  0  0  0  0  0  0  0  0
   52.3251    2.2544   18.0544 C   0  0  0  0  0  0  0  0  0  0  0  0
   53.5856    0.4169   17.0925 C   0  0  0  0  0  0  0  0  0  0  0  0
   52.3912    1.1353   17.2189 C   0  0  0  0  0  0  0  0  0  0  0  0
   53.4708    2.6392   18.7689 C   0  0  0  0  0  0  0  0  0  0  0  0
   54.6626    1.9211   18.6431 C   0  0  0  0  0  0  0  0  0  0  0  0
   54.7102    0.8167   17.8042 C   0  0  0  0  0  0  0  0  0  0  0  0
   55.8548    0.1311   17.6786 F   0  0  0  0  0  0  0  0  0  0  0  0
   48.5033   16.1301   11.3637 C   0  0  0  0  0  0  0  0  0  0  0  0
   44.5276   12.4862   11.2007 C   0  0  0  0  0  0  0  0  0  0  0  0
   50.0120   14.0862   11.0741 H   0  0  0  0  0  0  0  0  0  0  0  0
   46.3867   10.8051   11.8194 H   0  0  0  0  0  0  0  0  0  0  0  0
   50.5360    8.3483   11.6017 H   0  0  0  0  0  0  0  0  0  0  0  0
   52.2036   10.1599   11.2359 H   0  0  0  0  0  0  0  0  0  0  0  0
   48.7476    9.3846   14.3824 H   0  0  0  0  0  0  0  0  0  0  0  0
   47.3353    6.2958   11.7368 H   0  0  0  0  0  0  0  0  0  0  0  0
   47.5309    4.6490   13.5535 H   0  0  0  0  0  0  0  0  0  0  0  0
   48.9601    7.7665   16.1879 H   0  0  0  0  0  0  0  0  0  0  0  0
   48.0902    4.1430   15.7344 H   0  0  0  0  0  0  0  0  0  0  0  0
   46.6924    4.0063   18.2364 H   0  0  0  0  0  0  0  0  0  0  0  0
   47.3896    2.3494   18.5160 H   0  0  0  0  0  0  0  0  0  0  0  0
   48.2976    4.9684   19.9092 H   0  0  0  0  0  0  0  0  0  0  0  0
   48.9830    3.3088   20.1988 H   0  0  0  0  0  0  0  0  0  0  0  0
   51.2557    3.8386   18.8440 H   0  0  0  0  0  0  0  0  0  0  0  0
   53.6410   -0.4508   16.4425 H   0  0  0  0  0  0  0  0  0  0  0  0
   51.5305    0.7953   16.6510 H   0  0  0  0  0  0  0  0  0  0  0  0
   53.4533    3.5023   19.4299 H   0  0  0  0  0  0  0  0  0  0  0  0
   55.5490    2.2150   19.1931 H   0  0  0  0  0  0  0  0  0  0  0  0
   49.0784   15.9896   12.2847 H   0  0  0  0  0  0  0  0  0  0  0  0
   49.1585   16.1348   10.4877 H   0  0  0  0  0  0  0  0  0  0  0  0
   48.0164   17.1093   11.4241 H   0  0  0  0  0  0  0  0  0  0  0  0
   44.7596   11.9833   10.2580 H   0  0  0  0  0  0  0  0  0  0  0  0
   43.6185   13.0739   11.0501 H   0  0  0  0  0  0  0  0  0  0  0  0
   44.3239   11.7583   11.9930 H   0  0  0  0  0  0  0  0  0  0  0  0
  1  2  2  0
  1  6  1  0
  1 10  1  0
  2  3  1  0
  3  4  2  0
  4  5  1  0
  5  6  2  0
  6  7  1  0
  7  8  2  0
  8  9  1  0
  9 10  2  0
  3 11  1  0
  4 12  1  0
  7 13  1  0
 13 14  1  0
 15 14  2  0
 14 16  1  0
 15 19  1  0
 16 17  2  0
 17 18  1  0
 18 19  2  0
 18 20  1  0
 20 21  1  0
 21 22  2  0
 21 23  1  0
 23 24  1  0
 24 25  1  0
 25 23  1  0
 23 26  1  0
 26 27  1  0
 26 28  2  0
 27 29  1  0
 31 29  1  0
 29 32  2  0
 30 31  2  0
 30 34  1  0
 32 33  1  0
 33 34  2  0
 34 35  1  0
 11 36  1  0
 12 37  1  0
  2 38  1  0
  5 39  1  0
  8 40  1  0
  9 41  1  0
 15 42  1  0
 16 43  1  0
 17 44  1  0
 19 45  1  0
 20 46  1  0
 24 47  1  0
 24 48  1  0
 25 49  1  0
 25 50  1  0
 27 51  1  0
 30 52  1  0
 31 53  1  0
 32 54  1  0
 33 55  1  0
 36 56  1  0
 36 57  1  0
 36 58  1  0
 37 59  1  0
 37 60  1  0
 37 61  1  0
M  END
> <Uni-Dock RESULT> 
ENERGY=   -4.384  LOWER_BOUND=    5.513  UPPER_BOUND=    9.292
INTER + INTRA:          -4.384
INTER:                  -4.384
INTRA:                   0.000
UNBOUND:                 0.000

$$$$

     RDKit          3D

 61 65  0  0  0  0  0  0  0  0999 V2000
   43.8739   11.1668    8.6034 C   0  0  0  0  0  0  0  0  0  0  0  0
   43.6329   11.1030    7.2378 C   0  0  0  0  0  0  0  0  0  0  0  0
   44.5007   11.6827    6.3038 C   0  0  0  0  0  0  0  0  0  0  0  0
   45.6356   12.3739    6.7546 C   0  0  0  0  0  0  0  0  0  0  0  0
   45.9049   12.4282    8.1233 C   0  0  0  0  0  0  0  0  0  0  0  0
   45.0291   11.8308    9.0573 C   0  0  0  0  0  0  0  0  0  0  0  0
   45.2463   11.8529   10.4492 C   0  0  0  0  0  0  0  0  0  0  0  0
   44.3287   11.2826   11.3208 C   0  0  0  0  0  0  0  0  0  0  0  0
   43.2286   10.6634   10.7690 C   0  0  0  0  0  0  0  0  0  0  0  0
   42.9942   10.5903    9.4416 N   0  0  0  0  0  0  0  0  0  0  0  0
   44.3036   11.6542    4.9431 O   0  0  0  0  0  0  0  0  0  0  0  0
   46.4486   12.9238    5.8003 O   0  0  0  0  0  0  0  0  0  0  0  0
   46.3539   12.5179   10.9400 O   0  0  0  0  0  0  0  0  0  0  0  0
   47.1822   11.8168   11.7885 C   0  0  0  0  0  0  0  0  0  0  0  0
   47.5377   10.4813   11.5901 C   0  0  0  0  0  0  0  0  0  0  0  0
   47.7240   12.5256   12.8573 C   0  0  0  0  0  0  0  0  0  0  0  0
   48.5828   11.8868   13.7565 C   0  0  0  0  0  0  0  0  0  0  0  0
   48.9091   10.5341   13.5925 C   0  0  0  0  0  0  0  0  0  0  0  0
   48.3916    9.8416   12.4959 C   0  0  0  0  0  0  0  0  0  0  0  0
   49.7608    9.9531   14.5518 N   0  0  0  0  0  0  0  0  0  0  0  0
   50.0754    8.6205   14.6934 C   0  0  0  0  0  0  0  0  0  0  0  0
   49.6634    7.6732   14.0419 O   0  0  0  0  0  0  0  0  0  0  0  0
   51.0006    8.3558   15.8413 C   0  0  0  0  0  0  0  0  0  0  0  0
   52.4270    8.9005   15.7458 C   0  0  0  0  0  0  0  0  0  0  0  0
   52.1932    7.4292   15.6049 C   0  0  0  0  0  0  0  0  0  0  0  0
   50.3500    8.3527   17.1897 C   0  0  0  0  0  0  0  0  0  0  0  0
   49.8081    7.1351   17.5311 N   0  0  0  0  0  0  0  0  0  0  0  0
   50.3293    9.3947   17.8270 O   0  0  0  0  0  0  0  0  0  0  0  0
   49.1136    6.8028   18.7104 C   0  0  0  0  0  0  0  0  0  0  0  0
   48.1779    7.2902   20.8962 C   0  0  0  0  0  0  0  0  0  0  0  0
   48.8886    7.6972   19.7613 C   0  0  0  0  0  0  0  0  0  0  0  0
   48.6238    5.4913   18.8160 C   0  0  0  0  0  0  0  0  0  0  0  0
   47.9152    5.0853   19.9494 C   0  0  0  0  0  0  0  0  0  0  0  0
   47.6967    5.9892   20.9795 C   0  0  0  0  0  0  0  0  0  0  0  0
   47.0119    5.6019   22.0644 F   0  0  0  0  0  0  0  0  0  0  0  0
   43.3558   10.7183    4.4478 C   0  0  0  0  0  0  0  0  0  0  0  0
   47.2227   14.0462    6.2035 C   0  0  0  0  0  0  0  0  0  0  0  0
   42.7282   10.5914    6.9232 H   0  0  0  0  0  0  0  0  0  0  0  0
   46.8021   12.9192    8.4879 H   0  0  0  0  0  0  0  0  0  0  0  0
   44.4598   11.3232   12.3951 H   0  0  0  0  0  0  0  0  0  0  0  0
   42.4779   10.1942   11.3981 H   0  0  0  0  0  0  0  0  0  0  0  0
   47.1615    9.9241   10.7374 H   0  0  0  0  0  0  0  0  0  0  0  0
   47.4674   13.5732   13.0012 H   0  0  0  0  0  0  0  0  0  0  0  0
   48.9766   12.4603   14.5931 H   0  0  0  0  0  0  0  0  0  0  0  0
   48.6427    8.8029   12.3098 H   0  0  0  0  0  0  0  0  0  0  0  0
   50.1012   10.5676   15.2848 H   0  0  0  0  0  0  0  0  0  0  0  0
   52.7118    9.4563   14.8580 H   0  0  0  0  0  0  0  0  0  0  0  0
   52.9015    9.2549   16.6560 H   0  0  0  0  0  0  0  0  0  0  0  0
   52.3160    6.9892   14.6193 H   0  0  0  0  0  0  0  0  0  0  0  0
   52.5211    6.7874   16.4152 H   0  0  0  0  0  0  0  0  0  0  0  0
   49.8830    6.4036   16.8329 H   0  0  0  0  0  0  0  0  0  0  0  0
   47.9991    7.9829   21.7126 H   0  0  0  0  0  0  0  0  0  0  0  0
   49.2529    8.7195   19.7286 H   0  0  0  0  0  0  0  0  0  0  0  0
   48.7837    4.7694   18.0189 H   0  0  0  0  0  0  0  0  0  0  0  0
   47.5356    4.0737   20.0346 H   0  0  0  0  0  0  0  0  0  0  0  0
   43.5658    9.7059    4.8079 H   0  0  0  0  0  0  0  0  0  0  0  0
   42.3366   11.0231    4.7030 H   0  0  0  0  0  0  0  0  0  0  0  0
   43.4386   10.7047    3.3558 H   0  0  0  0  0  0  0  0  0  0  0  0
   46.6213   14.7737    6.7553 H   0  0  0  0  0  0  0  0  0  0  0  0
   47.5962   14.5379    5.3018 H   0  0  0  0  0  0  0  0  0  0  0  0
   48.0904   13.7293    6.7914 H   0  0  0  0  0  0  0  0  0  0  0  0
  1  2  2  0
  1  6  1  0
  1 10  1  0
  2  3  1  0
  3  4  2  0
  4  5  1  0
  5  6  2  0
  6  7  1  0
  7  8  2  0
  8  9  1  0
  9 10  2  0
  3 11  1  0
  4 12  1  0
  7 13  1  0
 13 14  1  0
 15 14  2  0
 14 16  1  0
 15 19  1  0
 16 17  2  0
 17 18  1  0
 18 19  2  0
 18 20  1  0
 20 21  1  0
 21 22  2  0
 21 23  1  0
 23 24  1  0
 24 25  1  0
 25 23  1  0
 23 26  1  0
 26 27  1  0
 26 28  2  0
 27 29  1  0
 31 29  1  0
 29 32  2  0
 30 31  2  0
 30 34  1  0
 32 33  1  0
 33 34  2  0
 34 35  1  0
 11 36  1  0
 12 37  1  0
  2 38  1  0
  5 39  1  0
  8 40  1  0
  9 41  1  0
 15 42  1  0
 16 43  1  0
 17 44  1  0
 19 45  1  0
 20 46  1  0
 24 47  1  0
 24 48  1  0
 25 49  1  0
 25 50  1  0
 27 51  1  0
 30 52  1  0
 31 53  1  0
 32 54  1  0
 33 55  1  0
 36 56  1  0
 36 57  1  0
 36 58  1  0
 37 59  1  0
 37 60  1  0
 37 61  1  0
M  END
> <Uni-Dock RESULT> 
ENERGY=   -4.195  LOWER_BOUND=    6.140  UPPER_BOUND=   11.859
INTER + INTRA:          -4.195
INTER:                  -4.195
INTRA:                   0.000
UNBOUND:                 0.000

$$$$
