
     RDKit          3D

 61 65  0  0  0  0  0  0  0  0999 V2000
   52.1458    7.3116   17.5940 C   0  0  0  0  0  0  0  0  0  0  0  0
   52.5841    7.0878   18.8917 C   0  0  0  0  0  0  0  0  0  0  0  0
   51.7865    7.3824   20.0045 C   0  0  0  0  0  0  0  0  0  0  0  0
   50.5177    7.9477   19.8108 C   0  0  0  0  0  0  0  0  0  0  0  0
   50.0528    8.1582   18.5113 C   0  0  0  0  0  0  0  0  0  0  0  0
   50.8570    7.8408   17.3956 C   0  0  0  0  0  0  0  0  0  0  0  0
   50.4382    8.0125   16.0622 C   0  0  0  0  0  0  0  0  0  0  0  0
   51.2952    7.7261   15.0036 C   0  0  0  0  0  0  0  0  0  0  0  0
   52.5387    7.2228   15.3130 C   0  0  0  0  0  0  0  0  0  0  0  0
   52.9681    7.0052   16.5740 N   0  0  0  0  0  0  0  0  0  0  0  0
   52.1692    7.1808   21.3068 O   0  0  0  0  0  0  0  0  0  0  0  0
   49.7833    8.2236   20.9359 O   0  0  0  0  0  0  0  0  0  0  0  0
   49.1799    8.5240   15.8150 O   0  0  0  0  0  0  0  0  0  0  0  0
   48.3442    7.7691   15.0213 C   0  0  0  0  0  0  0  0  0  0  0  0
   47.5211    8.4651   14.1392 C   0  0  0  0  0  0  0  0  0  0  0  0
   48.2535    6.3789   15.1035 C   0  0  0  0  0  0  0  0  0  0  0  0
   47.3782    5.6822   14.2633 C   0  0  0  0  0  0  0  0  0  0  0  0
   46.5776    6.3685   13.3478 C   0  0  0  0  0  0  0  0  0  0  0  0
   46.6454    7.7671   13.3025 C   0  0  0  0  0  0  0  0  0  0  0  0
   45.6870    5.7378   12.4587 N   0  0  0  0  0  0  0  0  0  0  0  0
   45.5215    4.3837   12.2575 C   0  0  0  0  0  0  0  0  0  0  0  0
   46.1170    3.4600   12.7918 O   0  0  0  0  0  0  0  0  0  0  0  0
   44.4970    4.0653   11.2120 C   0  0  0  0  0  0  0  0  0  0  0  0
   43.0436    4.4413   11.5028 C   0  0  0  0  0  0  0  0  0  0  0  0
   43.4455    3.0018   11.5337 C   0  0  0  0  0  0  0  0  0  0  0  0
   44.9800    4.1647    9.7970 C   0  0  0  0  0  0  0  0  0  0  0  0
   45.6534    3.0405    9.3732 N   0  0  0  0  0  0  0  0  0  0  0  0
   44.7701    5.1976    9.1796 O   0  0  0  0  0  0  0  0  0  0  0  0
   46.2412    2.8175    8.1128 C   0  0  0  0  0  0  0  0  0  0  0  0
   47.5946    1.3444    6.7269 C   0  0  0  0  0  0  0  0  0  0  0  0
   46.9797    1.6359    7.9484 C   0  0  0  0  0  0  0  0  0  0  0  0
   46.1202    3.6981    7.0322 C   0  0  0  0  0  0  0  0  0  0  0  0
   46.7403    3.4078    5.8111 C   0  0  0  0  0  0  0  0  0  0  0  0
   47.4700    2.2357    5.6694 C   0  0  0  0  0  0  0  0  0  0  0  0
   48.0612    1.9597    4.4995 F   0  0  0  0  0  0  0  0  0  0  0  0
   53.3425    6.4100   21.5309 C   0  0  0  0  0  0  0  0  0  0  0  0
   48.8105    9.2530   20.8165 C   0  0  0  0  0  0  0  0  0  0  0  0
   53.5816    6.6760   19.0087 H   0  0  0  0  0  0  0  0  0  0  0  0
   49.0557    8.5516   18.3409 H   0  0  0  0  0  0  0  0  0  0  0  0
   51.0021    7.8839   13.9730 H   0  0  0  0  0  0  0  0  0  0  0  0
   53.2510    6.9680   14.5330 H   0  0  0  0  0  0  0  0  0  0  0  0
   47.5676    9.5498   14.0909 H   0  0  0  0  0  0  0  0  0  0  0  0
   48.8560    5.8188   15.8122 H   0  0  0  0  0  0  0  0  0  0  0  0
   47.3430    4.6014   14.3565 H   0  0  0  0  0  0  0  0  0  0  0  0
   46.0253    8.3326   12.6117 H   0  0  0  0  0  0  0  0  0  0  0  0
   45.1551    6.3461   11.8447 H   0  0  0  0  0  0  0  0  0  0  0  0
   42.4303    4.7825   10.6754 H   0  0  0  0  0  0  0  0  0  0  0  0
   42.8064    4.9168   12.4474 H   0  0  0  0  0  0  0  0  0  0  0  0
   43.0855    2.3631   10.7342 H   0  0  0  0  0  0  0  0  0  0  0  0
   43.4976    2.5072   12.4984 H   0  0  0  0  0  0  0  0  0  0  0  0
   45.8113    2.3254   10.0778 H   0  0  0  0  0  0  0  0  0  0  0  0
   48.1716    0.4355    6.5986 H   0  0  0  0  0  0  0  0  0  0  0  0
   47.0869    0.9281    8.7655 H   0  0  0  0  0  0  0  0  0  0  0  0
   45.5502    4.6191    7.1053 H   0  0  0  0  0  0  0  0  0  0  0  0
   46.6489    4.0923    4.9729 H   0  0  0  0  0  0  0  0  0  0  0  0
   53.2754    5.4325   21.0441 H   0  0  0  0  0  0  0  0  0  0  0  0
   54.2369    6.9536   21.2089 H   0  0  0  0  0  0  0  0  0  0  0  0
   53.4286    6.2367   22.6079 H   0  0  0  0  0  0  0  0  0  0  0  0
   49.2240   10.1454   20.3335 H   0  0  0  0  0  0  0  0  0  0  0  0
   47.9272    8.8927   20.2803 H   0  0  0  0  0  0  0  0  0  0  0  0
   48.4956    9.5357   21.8251 H   0  0  0  0  0  0  0  0  0  0  0  0
  1  2  2  0
  1  6  1  0
  1 10  1  0
  2  3  1  0
  3  4  2  0
  4  5  1  0
  5  6  2  0
  6  7  1  0
  7  8  2  0
  8  9  1  0
  9 10  2  0
  3 11  1  0
  4 12  1  0
  7 13  1  0
 13 14  1  0
 15 14  2  0
 14 16  1  0
 15 19  1  0
 16 17  2  0
 17 18  1  0
 18 19  2  0
 18 20  1  0
 20 21  1  0
 21 22  2  0
 21 23  1  0
 23 24  1  0
 24 25  1  0
 25 23  1  0
 23 26  1  0
 26 27  1  0
 26 28  2  0
 27 29  1  0
 31 29  1  0
 29 32  2  0
 30 31  2  0
 30 34  1  0
 32 33  1  0
 33 34  2  0
 34 35  1  0
 11 36  1  0
 12 37  1  0
  2 38  1  0
  5 39  1  0
  8 40  1  0
  9 41  1  0
 15 42  1  0
 16 43  1  0
 17 44  1  0
 19 45  1  0
 20 46  1  0
 24 47  1  0
 24 48  1  0
 25 49  1  0
 25 50  1  0
 27 51  1  0
 30 52  1  0
 31 53  1  0
 32 54  1  0
 33 55  1  0
 36 56  1  0
 36 57  1  0
 36 58  1  0
 37 59  1  0
 37 60  1  0
 37 61  1  0
M  END
> <Uni-Dock RESULT> 
ENERGY=   -5.859  LOWER_BOUND=    0.000  UPPER_BOUND=    0.000
INTER + INTRA:          -5.859
INTER:                  -5.859
INTRA:                   0.000
UNBOUND:                 0.000

$$$$

     RDKit          3D

 61 65  0  0  0  0  0  0  0  0999 V2000
   51.5478    9.2294   14.4374 C   0  0  0  0  0  0  0  0  0  0  0  0
   52.8773    9.4654   14.1164 C   0  0  0  0  0  0  0  0  0  0  0  0
   53.4206    9.0848   12.8830 C   0  0  0  0  0  0  0  0  0  0  0  0
   52.6112    8.4187   11.9513 C   0  0  0  0  0  0  0  0  0  0  0  0
   51.2660    8.1938   12.2496 C   0  0  0  0  0  0  0  0  0  0  0  0
   50.7230    8.5977   13.4883 C   0  0  0  0  0  0  0  0  0  0  0  0
   49.3718    8.4158   13.8403 C   0  0  0  0  0  0  0  0  0  0  0  0
   48.9059    8.7923   15.0966 C   0  0  0  0  0  0  0  0  0  0  0  0
   49.8026    9.3924   15.9517 C   0  0  0  0  0  0  0  0  0  0  0  0
   51.0962    9.6221   15.6425 N   0  0  0  0  0  0  0  0  0  0  0  0
   54.7257    9.2939   12.5141 O   0  0  0  0  0  0  0  0  0  0  0  0
   53.1974    8.0617   10.7637 O   0  0  0  0  0  0  0  0  0  0  0  0
   48.5207    7.8053   12.9409 O   0  0  0  0  0  0  0  0  0  0  0  0
   47.3873    8.5018   12.5826 C   0  0  0  0  0  0  0  0  0  0  0  0
   46.2258    7.7555   12.3985 C   0  0  0  0  0  0  0  0  0  0  0  0
   47.3711    9.8778   12.3500 C   0  0  0  0  0  0  0  0  0  0  0  0
   46.1790   10.5138   11.9870 C   0  0  0  0  0  0  0  0  0  0  0  0
   45.0004    9.7797   11.8387 C   0  0  0  0  0  0  0  0  0  0  0  0
   45.0364    8.3928   12.0332 C   0  0  0  0  0  0  0  0  0  0  0  0
   43.7605   10.3497   11.4935 N   0  0  0  0  0  0  0  0  0  0  0  0
   43.4646   11.6886   11.3479 C   0  0  0  0  0  0  0  0  0  0  0  0
   44.2044   12.6491   11.5010 O   0  0  0  0  0  0  0  0  0  0  0  0
   42.0303   11.9389   10.9954 C   0  0  0  0  0  0  0  0  0  0  0  0
   41.5331   11.4373    9.6392 C   0  0  0  0  0  0  0  0  0  0  0  0
   41.7281   12.9045    9.8481 C   0  0  0  0  0  0  0  0  0  0  0  0
   41.0765   11.9062   12.1507 C   0  0  0  0  0  0  0  0  0  0  0  0
   41.0333   13.0905   12.8526 N   0  0  0  0  0  0  0  0  0  0  0  0
   40.4693   10.8708   12.3773 O   0  0  0  0  0  0  0  0  0  0  0  0
   40.2569   13.3849   13.9903 C   0  0  0  0  0  0  0  0  0  0  0  0
   39.7363   14.9912   15.7426 C   0  0  0  0  0  0  0  0  0  0  0  0
   40.4674   14.6270   14.6078 C   0  0  0  0  0  0  0  0  0  0  0  0
   39.2963   12.5171   14.5212 C   0  0  0  0  0  0  0  0  0  0  0  0
   38.5683   12.8805   15.6604 C   0  0  0  0  0  0  0  0  0  0  0  0
   38.7939   14.1120   16.2595 C   0  0  0  0  0  0  0  0  0  0  0  0
   38.0949   14.4578   17.3487 F   0  0  0  0  0  0  0  0  0  0  0  0
   55.5055   10.1561   13.3322 C   0  0  0  0  0  0  0  0  0  0  0  0
   52.6185    6.9568   10.0824 C   0  0  0  0  0  0  0  0  0  0  0  0
   53.4843    9.9571   14.8699 H   0  0  0  0  0  0  0  0  0  0  0  0
   50.6131    7.7213   11.5227 H   0  0  0  0  0  0  0  0  0  0  0  0
   47.8781    8.6293   15.3967 H   0  0  0  0  0  0  0  0  0  0  0  0
   49.5000    9.7200   16.9425 H   0  0  0  0  0  0  0  0  0  0  0  0
   46.2392    6.6796   12.5511 H   0  0  0  0  0  0  0  0  0  0  0  0
   48.2737   10.4734   12.4478 H   0  0  0  0  0  0  0  0  0  0  0  0
   46.2099   11.5861   11.8210 H   0  0  0  0  0  0  0  0  0  0  0  0
   44.1401    7.7900   11.9116 H   0  0  0  0  0  0  0  0  0  0  0  0
   42.9769    9.7102   11.4103 H   0  0  0  0  0  0  0  0  0  0  0  0
   40.5175   11.0610    9.5762 H   0  0  0  0  0  0  0  0  0  0  0  0
   42.2295   10.9264    8.9844 H   0  0  0  0  0  0  0  0  0  0  0  0
   40.8404   13.5253    9.9066 H   0  0  0  0  0  0  0  0  0  0  0  0
   42.5648   13.3842    9.3501 H   0  0  0  0  0  0  0  0  0  0  0  0
   41.6968   13.8033   12.5621 H   0  0  0  0  0  0  0  0  0  0  0  0
   39.9013   15.9474   16.2262 H   0  0  0  0  0  0  0  0  0  0  0  0
   41.2007   15.3262   14.2162 H   0  0  0  0  0  0  0  0  0  0  0  0
   39.0881   11.5503   14.0733 H   0  0  0  0  0  0  0  0  0  0  0  0
   37.8244   12.2062   16.0745 H   0  0  0  0  0  0  0  0  0  0  0  0
   55.0276   11.1332   13.4494 H   0  0  0  0  0  0  0  0  0  0  0  0
   55.7112    9.6954   14.3041 H   0  0  0  0  0  0  0  0  0  0  0  0
   56.4648   10.3164   12.8307 H   0  0  0  0  0  0  0  0  0  0  0  0
   52.4463    6.1112   10.7576 H   0  0  0  0  0  0  0  0  0  0  0  0
   51.6912    7.2515    9.5815 H   0  0  0  0  0  0  0  0  0  0  0  0
   53.3236    6.6304    9.3126 H   0  0  0  0  0  0  0  0  0  0  0  0
  1  2  2  0
  1  6  1  0
  1 10  1  0
  2  3  1  0
  3  4  2  0
  4  5  1  0
  5  6  2  0
  6  7  1  0
  7  8  2  0
  8  9  1  0
  9 10  2  0
  3 11  1  0
  4 12  1  0
  7 13  1  0
 13 14  1  0
 15 14  2  0
 14 16  1  0
 15 19  1  0
 16 17  2  0
 17 18  1  0
 18 19  2  0
 18 20  1  0
 20 21  1  0
 21 22  2  0
 21 23  1  0
 23 24  1  0
 24 25  1  0
 25 23  1  0
 23 26  1  0
 26 27  1  0
 26 28  2  0
 27 29  1  0
 31 29  1  0
 29 32  2  0
 30 31  2  0
 30 34  1  0
 32 33  1  0
 33 34  2  0
 34 35  1  0
 11 36  1  0
 12 37  1  0
  2 38  1  0
  5 39  1  0
  8 40  1  0
  9 41  1  0
 15 42  1  0
 16 43  1  0
 17 44  1  0
 19 45  1  0
 20 46  1  0
 24 47  1  0
 24 48  1  0
 25 49  1  0
 25 50  1  0
 27 51  1  0
 30 52  1  0
 31 53  1  0
 32 54  1  0
 33 55  1  0
 36 56  1  0
 36 57  1  0
 36 58  1  0
 37 59  1  0
 37 60  1  0
 37 61  1  0
M  END
> <Uni-Dock RESULT> 
ENERGY=   -4.887  LOWER_BOUND=    6.708  UPPER_BOUND=    9.590
INTER + INTRA:          -4.887
INTER:                  -4.887
INTRA:                   0.000
UNBOUND:                 0.000

$$$$

     RDKit          3D

 61 65  0  0  0  0  0  0  0  0999 V2000
   49.5373   12.1879   11.6634 C   0  0  0  0  0  0  0  0  0  0  0  0
   49.2180   13.5377   11.7138 C   0  0  0  0  0  0  0  0  0  0  0  0
   47.8947   13.9827   11.8230 C   0  0  0  0  0  0  0  0  0  0  0  0
   46.8537   13.0433   11.8533 C   0  0  0  0  0  0  0  0  0  0  0  0
   47.1592   11.6812   11.8264 C   0  0  0  0  0  0  0  0  0  0  0  0
   48.4975   11.2423   11.7347 C   0  0  0  0  0  0  0  0  0  0  0  0
   48.8706    9.8845   11.7219 C   0  0  0  0  0  0  0  0  0  0  0  0
   50.2045    9.5133   11.5812 C   0  0  0  0  0  0  0  0  0  0  0  0
   51.1390   10.5218   11.5092 C   0  0  0  0  0  0  0  0  0  0  0  0
   50.8314   11.8351   11.5568 N   0  0  0  0  0  0  0  0  0  0  0  0
   47.5234   15.3026   11.8774 O   0  0  0  0  0  0  0  0  0  0  0  0
   45.5772   13.5351   11.9526 O   0  0  0  0  0  0  0  0  0  0  0  0
   47.8873    8.9182   11.7948 O   0  0  0  0  0  0  0  0  0  0  0  0
   47.9929    7.9958   12.8127 C   0  0  0  0  0  0  0  0  0  0  0  0
   47.6191    6.6878   12.5138 C   0  0  0  0  0  0  0  0  0  0  0  0
   48.3954    8.3226   14.1085 C   0  0  0  0  0  0  0  0  0  0  0  0
   48.4762    7.3285   15.0896 C   0  0  0  0  0  0  0  0  0  0  0  0
   48.1414    6.0066   14.7887 C   0  0  0  0  0  0  0  0  0  0  0  0
   47.6982    5.6967   13.4964 C   0  0  0  0  0  0  0  0  0  0  0  0
   48.2138    4.9496   15.7156 N   0  0  0  0  0  0  0  0  0  0  0  0
   48.7064    4.9954   17.0027 C   0  0  0  0  0  0  0  0  0  0  0  0
   49.1908    5.9480   17.5952 O   0  0  0  0  0  0  0  0  0  0  0  0
   48.6512    3.6712   17.7009 C   0  0  0  0  0  0  0  0  0  0  0  0
   47.2724    3.0793   17.9954 C   0  0  0  0  0  0  0  0  0  0  0  0
   48.0868    3.6288   19.1221 C   0  0  0  0  0  0  0  0  0  0  0  0
   49.7647    2.7271   17.3629 C   0  0  0  0  0  0  0  0  0  0  0  0
   50.9180    2.9708   18.0754 N   0  0  0  0  0  0  0  0  0  0  0  0
   49.5719    1.8805   16.5037 O   0  0  0  0  0  0  0  0  0  0  0  0
   52.1421    2.2797   17.9876 C   0  0  0  0  0  0  0  0  0  0  0  0
   54.4673    2.1545   18.6947 C   0  0  0  0  0  0  0  0  0  0  0  0
   53.2195    2.7844   18.7312 C   0  0  0  0  0  0  0  0  0  0  0  0
   52.3310    1.1290   17.2143 C   0  0  0  0  0  0  0  0  0  0  0  0
   53.5820    0.5018   17.1744 C   0  0  0  0  0  0  0  0  0  0  0  0
   54.6367    1.0187   17.9139 C   0  0  0  0  0  0  0  0  0  0  0  0
   55.8323    0.4159   17.8750 F   0  0  0  0  0  0  0  0  0  0  0  0
   48.5529   16.2630   12.0745 C   0  0  0  0  0  0  0  0  0  0  0  0
   44.5416   12.7081   11.4391 C   0  0  0  0  0  0  0  0  0  0  0  0
   50.0441   14.2397   11.6595 H   0  0  0  0  0  0  0  0  0  0  0  0
   46.3701   10.9392   11.8955 H   0  0  0  0  0  0  0  0  0  0  0  0
   50.5062    8.4741   11.5355 H   0  0  0  0  0  0  0  0  0  0  0  0
   52.1980   10.2995   11.4102 H   0  0  0  0  0  0  0  0  0  0  0  0
   47.2783    6.4333   11.5137 H   0  0  0  0  0  0  0  0  0  0  0  0
   48.6525    9.3434   14.3748 H   0  0  0  0  0  0  0  0  0  0  0  0
   48.7989    7.6252   16.0826 H   0  0  0  0  0  0  0  0  0  0  0  0
   47.4160    4.6805   13.2332 H   0  0  0  0  0  0  0  0  0  0  0  0
   47.9381    4.0331   15.3780 H   0  0  0  0  0  0  0  0  0  0  0  0
   47.1549    2.0028   17.9278 H   0  0  0  0  0  0  0  0  0  0  0  0
   46.3912    3.6344   17.6954 H   0  0  0  0  0  0  0  0  0  0  0  0
   48.5049    2.9215   19.8304 H   0  0  0  0  0  0  0  0  0  0  0  0
   47.7685    4.5630   19.5736 H   0  0  0  0  0  0  0  0  0  0  0  0
   50.9056    3.7929   18.6728 H   0  0  0  0  0  0  0  0  0  0  0  0
   55.3037    2.5458   19.2627 H   0  0  0  0  0  0  0  0  0  0  0  0
   53.1038    3.6717   19.3470 H   0  0  0  0  0  0  0  0  0  0  0  0
   51.5262    0.6929   16.6306 H   0  0  0  0  0  0  0  0  0  0  0  0
   53.7299   -0.3898   16.5722 H   0  0  0  0  0  0  0  0  0  0  0  0
   49.1385   16.0402   12.9713 H   0  0  0  0  0  0  0  0  0  0  0  0
   49.1941   16.3384   11.1900 H   0  0  0  0  0  0  0  0  0  0  0  0
   48.0777   17.2372   12.2246 H   0  0  0  0  0  0  0  0  0  0  0  0
   44.7873   12.3253   10.4422 H   0  0  0  0  0  0  0  0  0  0  0  0
   44.3214   11.8875   12.1289 H   0  0  0  0  0  0  0  0  0  0  0  0
   43.6385   13.3184   11.3484 H   0  0  0  0  0  0  0  0  0  0  0  0
  1  2  2  0
  1  6  1  0
  1 10  1  0
  2  3  1  0
  3  4  2  0
  4  5  1  0
  5  6  2  0
  6  7  1  0
  7  8  2  0
  8  9  1  0
  9 10  2  0
  3 11  1  0
  4 12  1  0
  7 13  1  0
 13 14  1  0
 15 14  2  0
 14 16  1  0
 15 19  1  0
 16 17  2  0
 17 18  1  0
 18 19  2  0
 18 20  1  0
 20 21  1  0
 21 22  2  0
 21 23  1  0
 23 24  1  0
 24 25  1  0
 25 23  1  0
 23 26  1  0
 26 27  1  0
 26 28  2  0
 27 29  1  0
 31 29  1  0
 29 32  2  0
 30 31  2  0
 30 34  1  0
 32 33  1  0
 33 34  2  0
 34 35  1  0
 11 36  1  0
 12 37  1  0
  2 38  1  0
  5 39  1  0
  8 40  1  0
  9 41  1  0
 15 42  1  0
 16 43  1  0
 17 44  1  0
 19 45  1  0
 20 46  1  0
 24 47  1  0
 24 48  1  0
 25 49  1  0
 25 50  1  0
 27 51  1  0
 30 52  1  0
 31 53  1  0
 32 54  1  0
 33 55  1  0
 36 56  1  0
 36 57  1  0
 36 58  1  0
 37 59  1  0
 37 60  1  0
 37 61  1  0
M  END
> <Uni-Dock RESULT> 
ENERGY=   -4.790  LOWER_BOUND=    5.431  UPPER_BOUND=    9.205
INTER + INTRA:          -4.790
INTER:                  -4.790
INTRA:                   0.000
UNBOUND:                 0.000

$$$$

     RDKit          3D

 61 65  0  0  0  0  0  0  0  0999 V2000
   51.0833   12.3798   10.9430 C   0  0  0  0  0  0  0  0  0  0  0  0
   51.0059   13.7637   10.8711 C   0  0  0  0  0  0  0  0  0  0  0  0
   49.7801   14.4401   10.9049 C   0  0  0  0  0  0  0  0  0  0  0  0
   48.5898   13.7025   10.9840 C   0  0  0  0  0  0  0  0  0  0  0  0
   48.6513   12.3111   11.0798 C   0  0  0  0  0  0  0  0  0  0  0  0
   49.8926   11.6395   11.0635 C   0  0  0  0  0  0  0  0  0  0  0  0
   50.0211   10.2417   11.1750 C   0  0  0  0  0  0  0  0  0  0  0  0
   51.2708    9.6331   11.1041 C   0  0  0  0  0  0  0  0  0  0  0  0
   52.3689   10.4532   10.9747 C   0  0  0  0  0  0  0  0  0  0  0  0
   52.2965   11.7991   10.9034 N   0  0  0  0  0  0  0  0  0  0  0  0
   49.6461   15.8041   10.8380 O   0  0  0  0  0  0  0  0  0  0  0  0
   47.4185   14.4159   11.0052 O   0  0  0  0  0  0  0  0  0  0  0  0
   48.8823    9.4714   11.3004 O   0  0  0  0  0  0  0  0  0  0  0  0
   48.8103    8.6372   12.3945 C   0  0  0  0  0  0  0  0  0  0  0  0
   48.2163    7.3933   12.1955 C   0  0  0  0  0  0  0  0  0  0  0  0
   49.2465    9.0010   13.6693 C   0  0  0  0  0  0  0  0  0  0  0  0
   49.1380    8.0976   14.7321 C   0  0  0  0  0  0  0  0  0  0  0  0
   48.5799    6.8330   14.5335 C   0  0  0  0  0  0  0  0  0  0  0  0
   48.1065    6.4932   13.2595 C   0  0  0  0  0  0  0  0  0  0  0  0
   48.4528    5.8647   15.5472 N   0  0  0  0  0  0  0  0  0  0  0  0
   48.9283    5.9363   16.8396 C   0  0  0  0  0  0  0  0  0  0  0  0
   49.5648    6.8382   17.3639 O   0  0  0  0  0  0  0  0  0  0  0  0
   48.6316    4.7081   17.6443 C   0  0  0  0  0  0  0  0  0  0  0  0
   47.1664    4.3934   17.9478 C   0  0  0  0  0  0  0  0  0  0  0  0
   48.0495    4.8890   19.0473 C   0  0  0  0  0  0  0  0  0  0  0  0
   49.5662    3.5587   17.4184 C   0  0  0  0  0  0  0  0  0  0  0  0
   50.7346    3.6592   18.1407 N   0  0  0  0  0  0  0  0  0  0  0  0
   49.2390    2.6868   16.6279 O   0  0  0  0  0  0  0  0  0  0  0  0
   51.8192    2.7606   18.1461 C   0  0  0  0  0  0  0  0  0  0  0  0
   54.0763    2.2948   18.9273 C   0  0  0  0  0  0  0  0  0  0  0  0
   52.9584    3.1330   18.8753 C   0  0  0  0  0  0  0  0  0  0  0  0
   51.8131    1.5315   17.4775 C   0  0  0  0  0  0  0  0  0  0  0  0
   52.9347    0.6951   17.5260 C   0  0  0  0  0  0  0  0  0  0  0  0
   54.0538    1.0830   18.2495 C   0  0  0  0  0  0  0  0  0  0  0  0
   55.1251    0.2802   18.2954 F   0  0  0  0  0  0  0  0  0  0  0  0
   50.8257   16.5841   10.9834 C   0  0  0  0  0  0  0  0  0  0  0  0
   46.2606   13.7401   10.5333 C   0  0  0  0  0  0  0  0  0  0  0  0
   51.9432   14.3037   10.7819 H   0  0  0  0  0  0  0  0  0  0  0  0
   47.7431   11.7267   11.1882 H   0  0  0  0  0  0  0  0  0  0  0  0
   51.3855    8.5573   11.1541 H   0  0  0  0  0  0  0  0  0  0  0  0
   53.3735   10.0422   10.9250 H   0  0  0  0  0  0  0  0  0  0  0  0
   47.8495    7.1156   11.2109 H   0  0  0  0  0  0  0  0  0  0  0  0
   49.6755    9.9808   13.8566 H   0  0  0  0  0  0  0  0  0  0  0  0
   49.4944    8.4192   15.7056 H   0  0  0  0  0  0  0  0  0  0  0  0
   47.6536    5.5227   13.0743 H   0  0  0  0  0  0  0  0  0  0  0  0
   48.0247    4.9843   15.2798 H   0  0  0  0  0  0  0  0  0  0  0  0
   46.8623    3.3521   17.9671 H   0  0  0  0  0  0  0  0  0  0  0  0
   46.4007    5.0650   17.5773 H   0  0  0  0  0  0  0  0  0  0  0  0
   48.3271    4.1844   19.8240 H   0  0  0  0  0  0  0  0  0  0  0  0
   47.8944    5.9002   19.4097 H   0  0  0  0  0  0  0  0  0  0  0  0
   50.8590    4.5199   18.6666 H   0  0  0  0  0  0  0  0  0  0  0  0
   54.9608    2.5826   19.4843 H   0  0  0  0  0  0  0  0  0  0  0  0
   52.9923    4.0774   19.4112 H   0  0  0  0  0  0  0  0  0  0  0  0
   50.9521    1.1928   16.9096 H   0  0  0  0  0  0  0  0  0  0  0  0
   52.9315   -0.2578   17.0050 H   0  0  0  0  0  0  0  0  0  0  0  0
   51.3509   16.3420   11.9121 H   0  0  0  0  0  0  0  0  0  0  0  0
   51.4821   16.4691   10.1144 H   0  0  0  0  0  0  0  0  0  0  0  0
   50.5273   17.6355   11.0378 H   0  0  0  0  0  0  0  0  0  0  0  0
   46.4486   13.2348    9.5793 H   0  0  0  0  0  0  0  0  0  0  0  0
   45.8901   13.0339   11.2827 H   0  0  0  0  0  0  0  0  0  0  0  0
   45.4802   14.4880   10.3660 H   0  0  0  0  0  0  0  0  0  0  0  0
  1  2  2  0
  1  6  1  0
  1 10  1  0
  2  3  1  0
  3  4  2  0
  4  5  1  0
  5  6  2  0
  6  7  1  0
  7  8  2  0
  8  9  1  0
  9 10  2  0
  3 11  1  0
  4 12  1  0
  7 13  1  0
 13 14  1  0
 15 14  2  0
 14 16  1  0
 15 19  1  0
 16 17  2  0
 17 18  1  0
 18 19  2  0
 18 20  1  0
 20 21  1  0
 21 22  2  0
 21 23  1  0
 23 24  1  0
 24 25  1  0
 25 23  1  0
 23 26  1  0
 26 27  1  0
 26 28  2  0
 27 29  1  0
 31 29  1  0
 29 32  2  0
 30 31  2  0
 30 34  1  0
 32 33  1  0
 33 34  2  0
 34 35  1  0
 11 36  1  0
 12 37  1  0
  2 38  1  0
  5 39  1  0
  8 40  1  0
  9 41  1  0
 15 42  1  0
 16 43  1  0
 17 44  1  0
 19 45  1  0
 20 46  1  0
 24 47  1  0
 24 48  1  0
 25 49  1  0
 25 50  1  0
 27 51  1  0
 30 52  1  0
 31 53  1  0
 32 54  1  0
 33 55  1  0
 36 56  1  0
 36 57  1  0
 36 58  1  0
 37 59  1  0
 37 60  1  0
 37 61  1  0
M  END
> <Uni-Dock RESULT> 
ENERGY=   -4.658  LOWER_BOUND=    5.677  UPPER_BOUND=    9.389
INTER + INTRA:          -4.658
INTER:                  -4.658
INTRA:                   0.000
UNBOUND:                 0.000

$$$$

     RDKit          3D

 61 65  0  0  0  0  0  0  0  0999 V2000
   41.6472   12.9001   10.0032 C   0  0  0  0  0  0  0  0  0  0  0  0
   40.8616   14.0024   10.3097 C   0  0  0  0  0  0  0  0  0  0  0  0
   40.4284   14.2637   11.6155 C   0  0  0  0  0  0  0  0  0  0  0  0
   40.7698   13.3737   12.6442 C   0  0  0  0  0  0  0  0  0  0  0  0
   41.5783   12.2723   12.3568 C   0  0  0  0  0  0  0  0  0  0  0  0
   42.0253   12.0276   11.0406 C   0  0  0  0  0  0  0  0  0  0  0  0
   42.8565   10.9460   10.6910 C   0  0  0  0  0  0  0  0  0  0  0  0
   43.2253   10.7298    9.3665 C   0  0  0  0  0  0  0  0  0  0  0  0
   42.7897   11.6405    8.4304 C   0  0  0  0  0  0  0  0  0  0  0  0
   42.0247   12.7127    8.7254 N   0  0  0  0  0  0  0  0  0  0  0  0
   39.6521   15.3371   11.9738 O   0  0  0  0  0  0  0  0  0  0  0  0
   40.3117   13.6740   13.9017 O   0  0  0  0  0  0  0  0  0  0  0  0
   43.2591   10.0644   11.6743 O   0  0  0  0  0  0  0  0  0  0  0  0
   44.6153    9.8754   11.8258 C   0  0  0  0  0  0  0  0  0  0  0  0
   45.0371    8.5839   12.1323 C   0  0  0  0  0  0  0  0  0  0  0  0
   45.5503   10.9081   11.7414 C   0  0  0  0  0  0  0  0  0  0  0  0
   46.9125   10.6365   11.9091 C   0  0  0  0  0  0  0  0  0  0  0  0
   47.3485    9.3372   12.1774 C   0  0  0  0  0  0  0  0  0  0  0  0
   46.3985    8.3153   12.3021 C   0  0  0  0  0  0  0  0  0  0  0  0
   48.7010    8.9828   12.3410 N   0  0  0  0  0  0  0  0  0  0  0  0
   49.8059    9.7900   12.1703 C   0  0  0  0  0  0  0  0  0  0  0  0
   49.8419   10.9633   11.8307 O   0  0  0  0  0  0  0  0  0  0  0  0
   51.0999    9.0731   12.4061 C   0  0  0  0  0  0  0  0  0  0  0  0
   51.3881    8.5729   13.8221 C   0  0  0  0  0  0  0  0  0  0  0  0
   52.1462    9.7483   13.2946 C   0  0  0  0  0  0  0  0  0  0  0  0
   51.5886    8.2475   11.2550 C   0  0  0  0  0  0  0  0  0  0  0  0
   52.2567    8.9853   10.3030 N   0  0  0  0  0  0  0  0  0  0  0  0
   51.3388    7.0518   11.2464 O   0  0  0  0  0  0  0  0  0  0  0  0
   52.8257    8.5201    9.1015 C   0  0  0  0  0  0  0  0  0  0  0  0
   53.9364    9.0976    7.0146 C   0  0  0  0  0  0  0  0  0  0  0  0
   53.3561    9.4811    8.2275 C   0  0  0  0  0  0  0  0  0  0  0  0
   52.8938    7.1685    8.7463 C   0  0  0  0  0  0  0  0  0  0  0  0
   53.4706    6.7858    7.5294 C   0  0  0  0  0  0  0  0  0  0  0  0
   53.9862    7.7517    6.6763 C   0  0  0  0  0  0  0  0  0  0  0  0
   54.5388    7.3827    5.5132 F   0  0  0  0  0  0  0  0  0  0  0  0
   39.4785   16.3679   11.0104 C   0  0  0  0  0  0  0  0  0  0  0  0
   40.1557   12.5786   14.7937 C   0  0  0  0  0  0  0  0  0  0  0  0
   40.5909   14.6561    9.4866 H   0  0  0  0  0  0  0  0  0  0  0  0
   41.8910   11.5984   13.1480 H   0  0  0  0  0  0  0  0  0  0  0  0
   43.8360    9.8843    9.0747 H   0  0  0  0  0  0  0  0  0  0  0  0
   43.0518   11.5356    7.3811 H   0  0  0  0  0  0  0  0  0  0  0  0
   44.3106    7.7811   12.2268 H   0  0  0  0  0  0  0  0  0  0  0  0
   45.2405   11.9299   11.5437 H   0  0  0  0  0  0  0  0  0  0  0  0
   47.6058   11.4678   11.8300 H   0  0  0  0  0  0  0  0  0  0  0  0
   46.7031    7.2959   12.5247 H   0  0  0  0  0  0  0  0  0  0  0  0
   48.8912    8.0057   12.5385 H   0  0  0  0  0  0  0  0  0  0  0  0
   51.9168    7.6319   13.9323 H   0  0  0  0  0  0  0  0  0  0  0  0
   50.6553    8.7557   14.5994 H   0  0  0  0  0  0  0  0  0  0  0  0
   53.1971    9.6060   13.0663 H   0  0  0  0  0  0  0  0  0  0  0  0
   51.9160   10.7281   13.7009 H   0  0  0  0  0  0  0  0  0  0  0  0
   52.2689    9.9911   10.4485 H   0  0  0  0  0  0  0  0  0  0  0  0
   54.3411    9.8381    6.3339 H   0  0  0  0  0  0  0  0  0  0  0  0
   53.3252   10.5379    8.4770 H   0  0  0  0  0  0  0  0  0  0  0  0
   52.5084    6.3864    9.3930 H   0  0  0  0  0  0  0  0  0  0  0  0
   53.5214    5.7370    7.2520 H   0  0  0  0  0  0  0  0  0  0  0  0
   40.4413   16.7505   10.6590 H   0  0  0  0  0  0  0  0  0  0  0  0
   38.8587   16.0246   10.1753 H   0  0  0  0  0  0  0  0  0  0  0  0
   38.9525   17.1953   11.4965 H   0  0  0  0  0  0  0  0  0  0  0  0
   39.6236   11.7454   14.3210 H   0  0  0  0  0  0  0  0  0  0  0  0
   41.1254   12.2523   15.1821 H   0  0  0  0  0  0  0  0  0  0  0  0
   39.5549   12.9193   15.6418 H   0  0  0  0  0  0  0  0  0  0  0  0
  1  2  2  0
  1  6  1  0
  1 10  1  0
  2  3  1  0
  3  4  2  0
  4  5  1  0
  5  6  2  0
  6  7  1  0
  7  8  2  0
  8  9  1  0
  9 10  2  0
  3 11  1  0
  4 12  1  0
  7 13  1  0
 13 14  1  0
 15 14  2  0
 14 16  1  0
 15 19  1  0
 16 17  2  0
 17 18  1  0
 18 19  2  0
 18 20  1  0
 20 21  1  0
 21 22  2  0
 21 23  1  0
 23 24  1  0
 24 25  1  0
 25 23  1  0
 23 26  1  0
 26 27  1  0
 26 28  2  0
 27 29  1  0
 31 29  1  0
 29 32  2  0
 30 31  2  0
 30 34  1  0
 32 33  1  0
 33 34  2  0
 34 35  1  0
 11 36  1  0
 12 37  1  0
  2 38  1  0
  5 39  1  0
  8 40  1  0
  9 41  1  0
 15 42  1  0
 16 43  1  0
 17 44  1  0
 19 45  1  0
 20 46  1  0
 24 47  1  0
 24 48  1  0
 25 49  1  0
 25 50  1  0
 27 51  1  0
 30 52  1  0
 31 53  1  0
 32 54  1  0
 33 55  1  0
 36 56  1  0
 36 57  1  0
 36 58  1  0
 37 59  1  0
 37 60  1  0
 37 61  1  0
M  END
> <Uni-Dock RESULT> 
ENERGY=   -4.603  LOWER_BOUND=    6.717  UPPER_BOUND=   10.478
INTER + INTRA:          -4.603
INTER:                  -4.603
INTRA:                   0.000
UNBOUND:                 0.000

$$$$

     RDKit          3D

 61 65  0  0  0  0  0  0  0  0999 V2000
   43.9816   11.0366    8.7803 C   0  0  0  0  0  0  0  0  0  0  0  0
   43.7163   11.0482    7.4180 C   0  0  0  0  0  0  0  0  0  0  0  0
   44.4829   11.8013    6.5201 C   0  0  0  0  0  0  0  0  0  0  0  0
   45.5330   12.5927    7.0080 C   0  0  0  0  0  0  0  0  0  0  0  0
   45.8273   12.5747    8.3726 C   0  0  0  0  0  0  0  0  0  0  0  0
   45.0602   11.7979    9.2673 C   0  0  0  0  0  0  0  0  0  0  0  0
   45.3183   11.7238   10.6496 C   0  0  0  0  0  0  0  0  0  0  0  0
   44.4964   10.9775   11.4890 C   0  0  0  0  0  0  0  0  0  0  0  0
   43.4622   10.2796   10.9069 C   0  0  0  0  0  0  0  0  0  0  0  0
   43.2012   10.2899    9.5827 N   0  0  0  0  0  0  0  0  0  0  0  0
   44.2653   11.8484    5.1660 O   0  0  0  0  0  0  0  0  0  0  0  0
   46.2450   13.3159    6.0853 O   0  0  0  0  0  0  0  0  0  0  0  0
   46.3691   12.4486   11.1755 O   0  0  0  0  0  0  0  0  0  0  0  0
   47.3181   11.7465   11.8858 C   0  0  0  0  0  0  0  0  0  0  0  0
   47.8548   12.3764   13.0060 C   0  0  0  0  0  0  0  0  0  0  0  0
   47.7885   10.4886   11.5060 C   0  0  0  0  0  0  0  0  0  0  0  0
   48.7563    9.8388   12.2797 C   0  0  0  0  0  0  0  0  0  0  0  0
   49.2716   10.4458   13.4269 C   0  0  0  0  0  0  0  0  0  0  0  0
   48.8236   11.7264   13.7760 C   0  0  0  0  0  0  0  0  0  0  0  0
   50.2327    9.8490   14.2646 N   0  0  0  0  0  0  0  0  0  0  0  0
   50.7443    8.5715   14.1766 C   0  0  0  0  0  0  0  0  0  0  0  0
   50.4625    7.6962   13.3718 O   0  0  0  0  0  0  0  0  0  0  0  0
   51.7378    8.2604   15.2538 C   0  0  0  0  0  0  0  0  0  0  0  0
   53.0517    9.0425   15.2570 C   0  0  0  0  0  0  0  0  0  0  0  0
   53.0589    7.6047   14.8481 C   0  0  0  0  0  0  0  0  0  0  0  0
   51.1440    7.8766   16.5751 C   0  0  0  0  0  0  0  0  0  0  0  0
   50.7720    6.5520   16.6387 N   0  0  0  0  0  0  0  0  0  0  0  0
   51.0201    8.7384   17.4319 O   0  0  0  0  0  0  0  0  0  0  0  0
   50.1765    5.8800   17.7239 C   0  0  0  0  0  0  0  0  0  0  0  0
   49.1764    3.8186   18.5439 C   0  0  0  0  0  0  0  0  0  0  0  0
   49.7765    4.5515   17.5154 C   0  0  0  0  0  0  0  0  0  0  0  0
   49.9748    6.4602   18.9810 C   0  0  0  0  0  0  0  0  0  0  0  0
   49.3694    5.7273   20.0087 C   0  0  0  0  0  0  0  0  0  0  0  0
   48.9769    4.4155   19.7817 C   0  0  0  0  0  0  0  0  0  0  0  0
   48.3991    3.7160   20.7672 F   0  0  0  0  0  0  0  0  0  0  0  0
   43.3649   10.8959    4.6157 C   0  0  0  0  0  0  0  0  0  0  0  0
   46.8905   14.4877    6.5653 C   0  0  0  0  0  0  0  0  0  0  0  0
   42.8793   10.4476    7.0759 H   0  0  0  0  0  0  0  0  0  0  0  0
   46.6650   13.1445    8.7620 H   0  0  0  0  0  0  0  0  0  0  0  0
   44.6597   10.9362   12.5588 H   0  0  0  0  0  0  0  0  0  0  0  0
   42.7909    9.6690   11.5045 H   0  0  0  0  0  0  0  0  0  0  0  0
   47.5122   13.3678   13.2904 H   0  0  0  0  0  0  0  0  0  0  0  0
   47.4140    9.9961   10.6137 H   0  0  0  0  0  0  0  0  0  0  0  0
   49.0903    8.8596   11.9513 H   0  0  0  0  0  0  0  0  0  0  0  0
   49.2148   12.2329   14.6546 H   0  0  0  0  0  0  0  0  0  0  0  0
   50.5332   10.3934   15.0667 H   0  0  0  0  0  0  0  0  0  0  0  0
   53.4874    9.3029   16.2159 H   0  0  0  0  0  0  0  0  0  0  0  0
   53.2191    9.7848   14.4853 H   0  0  0  0  0  0  0  0  0  0  0  0
   53.5195    6.8929   15.5250 H   0  0  0  0  0  0  0  0  0  0  0  0
   53.2136    7.3732   13.7991 H   0  0  0  0  0  0  0  0  0  0  0  0
   50.8659    6.0225   15.7764 H   0  0  0  0  0  0  0  0  0  0  0  0
   48.8600    2.7940   18.3841 H   0  0  0  0  0  0  0  0  0  0  0  0
   49.9253    4.0697   16.5532 H   0  0  0  0  0  0  0  0  0  0  0  0
   50.2772    7.4805   19.1959 H   0  0  0  0  0  0  0  0  0  0  0  0
   49.2103    6.1780   20.9839 H   0  0  0  0  0  0  0  0  0  0  0  0
   43.6591    9.8744    4.8745 H   0  0  0  0  0  0  0  0  0  0  0  0
   42.3355   11.1035    4.9261 H   0  0  0  0  0  0  0  0  0  0  0  0
   43.4079   10.9852    3.5259 H   0  0  0  0  0  0  0  0  0  0  0  0
   46.2162   15.0990    7.1755 H   0  0  0  0  0  0  0  0  0  0  0  0
   47.7969   14.2316    7.1225 H   0  0  0  0  0  0  0  0  0  0  0  0
   47.1895   15.0848    5.6991 H   0  0  0  0  0  0  0  0  0  0  0  0
  1  2  2  0
  1  6  1  0
  1 10  1  0
  2  3  1  0
  3  4  2  0
  4  5  1  0
  5  6  2  0
  6  7  1  0
  7  8  2  0
  8  9  1  0
  9 10  2  0
  3 11  1  0
  4 12  1  0
  7 13  1  0
 13 14  1  0
 15 14  2  0
 14 16  1  0
 15 19  1  0
 16 17  2  0
 17 18  1  0
 18 19  2  0
 18 20  1  0
 20 21  1  0
 21 22  2  0
 21 23  1  0
 23 24  1  0
 24 25  1  0
 25 23  1  0
 23 26  1  0
 26 27  1  0
 26 28  2  0
 27 29  1  0
 31 29  1  0
 29 32  2  0
 30 31  2  0
 30 34  1  0
 32 33  1  0
 33 34  2  0
 34 35  1  0
 11 36  1  0
 12 37  1  0
  2 38  1  0
  5 39  1  0
  8 40  1  0
  9 41  1  0
 15 42  1  0
 16 43  1  0
 17 44  1  0
 19 45  1  0
 20 46  1  0
 24 47  1  0
 24 48  1  0
 25 49  1  0
 25 50  1  0
 27 51  1  0
 30 52  1  0
 31 53  1  0
 32 54  1  0
 33 55  1  0
 36 56  1  0
 36 57  1  0
 36 58  1  0
 37 59  1  0
 37 60  1  0
 37 61  1  0
M  END
> <Uni-Dock RESULT> 
ENERGY=   -4.485  LOWER_BOUND=    5.970  UPPER_BOUND=   11.563
INTER + INTRA:          -4.485
INTER:                  -4.485
INTRA:                   0.000
UNBOUND:                 0.000

$$$$

     RDKit          3D

 61 65  0  0  0  0  0  0  0  0999 V2000
   45.8449    8.3052   12.4943 C   0  0  0  0  0  0  0  0  0  0  0  0
   44.7007    8.8249   11.9052 C   0  0  0  0  0  0  0  0  0  0  0  0
   44.6121   10.1671   11.5156 C   0  0  0  0  0  0  0  0  0  0  0  0
   45.6967   11.0246   11.7512 C   0  0  0  0  0  0  0  0  0  0  0  0
   46.8632   10.5124   12.3222 C   0  0  0  0  0  0  0  0  0  0  0  0
   46.9495    9.1537   12.6946 C   0  0  0  0  0  0  0  0  0  0  0  0
   48.1031    8.5742   13.2571 C   0  0  0  0  0  0  0  0  0  0  0  0
   48.1112    7.2386   13.6484 C   0  0  0  0  0  0  0  0  0  0  0  0
   46.9712    6.5028   13.4153 C   0  0  0  0  0  0  0  0  0  0  0  0
   45.8568    7.0058   12.8437 N   0  0  0  0  0  0  0  0  0  0  0  0
   43.5074   10.7321   10.9295 O   0  0  0  0  0  0  0  0  0  0  0  0
   45.5520   12.3304   11.3572 O   0  0  0  0  0  0  0  0  0  0  0  0
   49.2153    9.3642   13.4689 O   0  0  0  0  0  0  0  0  0  0  0  0
   50.3956    8.9478   12.8928 C   0  0  0  0  0  0  0  0  0  0  0  0
   51.5586    9.1498   13.6321 C   0  0  0  0  0  0  0  0  0  0  0  0
   50.4748    8.3984   11.6124 C   0  0  0  0  0  0  0  0  0  0  0  0
   51.7125    8.0007   11.0952 C   0  0  0  0  0  0  0  0  0  0  0  0
   52.8793    8.1628   11.8451 C   0  0  0  0  0  0  0  0  0  0  0  0
   52.7944    8.7540   13.1122 C   0  0  0  0  0  0  0  0  0  0  0  0
   54.1567    7.7719   11.4010 N   0  0  0  0  0  0  0  0  0  0  0  0
   54.4700    7.0910   10.2436 C   0  0  0  0  0  0  0  0  0  0  0  0
   53.7118    6.6765    9.3795 O   0  0  0  0  0  0  0  0  0  0  0  0
   55.9360    6.8184   10.1002 C   0  0  0  0  0  0  0  0  0  0  0  0
   56.8691    8.0178    9.9298 C   0  0  0  0  0  0  0  0  0  0  0  0
   56.5991    7.1306    8.7575 C   0  0  0  0  0  0  0  0  0  0  0  0
   56.4417    5.6373   10.8713 C   0  0  0  0  0  0  0  0  0  0  0  0
   56.2316    4.4381   10.2272 N   0  0  0  0  0  0  0  0  0  0  0  0
   56.9471    5.8282   11.9669 O   0  0  0  0  0  0  0  0  0  0  0  0
   56.5728    3.1494   10.6817 C   0  0  0  0  0  0  0  0  0  0  0  0
   56.4508    0.7509   10.2889 C   0  0  0  0  0  0  0  0  0  0  0  0
   56.1519    2.0611    9.9027 C   0  0  0  0  0  0  0  0  0  0  0  0
   57.3056    2.9058   11.8485 C   0  0  0  0  0  0  0  0  0  0  0  0
   57.6000    1.5935   12.2371 C   0  0  0  0  0  0  0  0  0  0  0  0
   57.1714    0.5299   11.4552 C   0  0  0  0  0  0  0  0  0  0  0  0
   57.4557   -0.7248   11.8285 F   0  0  0  0  0  0  0  0  0  0  0  0
   42.4871    9.8524   10.4757 C   0  0  0  0  0  0  0  0  0  0  0  0
   46.3395   13.2888   12.0510 C   0  0  0  0  0  0  0  0  0  0  0  0
   43.8689    8.1424   11.7626 H   0  0  0  0  0  0  0  0  0  0  0  0
   47.7291   11.1500   12.4696 H   0  0  0  0  0  0  0  0  0  0  0  0
   48.9779    6.7852   14.1134 H   0  0  0  0  0  0  0  0  0  0  0  0
   46.9162    5.4521   13.6867 H   0  0  0  0  0  0  0  0  0  0  0  0
   51.5057    9.6029   14.6185 H   0  0  0  0  0  0  0  0  0  0  0  0
   49.5862    8.2692   11.0019 H   0  0  0  0  0  0  0  0  0  0  0  0
   51.7282    7.5732   10.0976 H   0  0  0  0  0  0  0  0  0  0  0  0
   53.6852    8.9079   13.7158 H   0  0  0  0  0  0  0  0  0  0  0  0
   54.9289    7.9476   12.0356 H   0  0  0  0  0  0  0  0  0  0  0  0
   57.8499    7.9699   10.3912 H   0  0  0  0  0  0  0  0  0  0  0  0
   56.4417    9.0136    9.9149 H   0  0  0  0  0  0  0  0  0  0  0  0
   57.4076    6.4948    8.4127 H   0  0  0  0  0  0  0  0  0  0  0  0
   55.9758    7.5175    7.9575 H   0  0  0  0  0  0  0  0  0  0  0  0
   55.6983    4.4856    9.3633 H   0  0  0  0  0  0  0  0  0  0  0  0
   56.1212   -0.0926    9.6928 H   0  0  0  0  0  0  0  0  0  0  0  0
   55.5875    2.2166    8.9877 H   0  0  0  0  0  0  0  0  0  0  0  0
   57.6638    3.7139   12.4789 H   0  0  0  0  0  0  0  0  0  0  0  0
   58.1665    1.4038   13.1440 H   0  0  0  0  0  0  0  0  0  0  0  0
   42.8864    9.1010    9.7881 H   0  0  0  0  0  0  0  0  0  0  0  0
   41.9689    9.3837   11.3189 H   0  0  0  0  0  0  0  0  0  0  0  0
   41.7531   10.4474    9.9237 H   0  0  0  0  0  0  0  0  0  0  0  0
   46.2815   13.1497   13.1364 H   0  0  0  0  0  0  0  0  0  0  0  0
   47.3785   13.2593   11.7087 H   0  0  0  0  0  0  0  0  0  0  0  0
   45.9409   14.2809   11.8205 H   0  0  0  0  0  0  0  0  0  0  0  0
  1  2  2  0
  1  6  1  0
  1 10  1  0
  2  3  1  0
  3  4  2  0
  4  5  1  0
  5  6  2  0
  6  7  1  0
  7  8  2  0
  8  9  1  0
  9 10  2  0
  3 11  1  0
  4 12  1  0
  7 13  1  0
 13 14  1  0
 15 14  2  0
 14 16  1  0
 15 19  1  0
 16 17  2  0
 17 18  1  0
 18 19  2  0
 18 20  1  0
 20 21  1  0
 21 22  2  0
 21 23  1  0
 23 24  1  0
 24 25  1  0
 25 23  1  0
 23 26  1  0
 26 27  1  0
 26 28  2  0
 27 29  1  0
 31 29  1  0
 29 32  2  0
 30 31  2  0
 30 34  1  0
 32 33  1  0
 33 34  2  0
 34 35  1  0
 11 36  1  0
 12 37  1  0
  2 38  1  0
  5 39  1  0
  8 40  1  0
  9 41  1  0
 15 42  1  0
 16 43  1  0
 17 44  1  0
 19 45  1  0
 20 46  1  0
 24 47  1  0
 24 48  1  0
 25 49  1  0
 25 50  1  0
 27 51  1  0
 30 52  1  0
 31 53  1  0
 32 54  1  0
 33 55  1  0
 36 56  1  0
 36 57  1  0
 36 58  1  0
 37 59  1  0
 37 60  1  0
 37 61  1  0
M  END
> <Uni-Dock RESULT> 
ENERGY=   -4.432  LOWER_BOUND=    5.838  UPPER_BOUND=    9.803
INTER + INTRA:          -4.432
INTER:                  -4.432
INTRA:                   0.000
UNBOUND:                 0.000

$$$$
