
     RDKit          3D

 61 65  0  0  0  0  0  0  0  0999 V2000
   50.5870   11.3052   14.9852 C   0  0  0  0  0  0  0  0  0  0  0  0
   51.5785   11.9527   14.2627 C   0  0  0  0  0  0  0  0  0  0  0  0
   52.4963   11.2528   13.4720 C   0  0  0  0  0  0  0  0  0  0  0  0
   52.4177    9.8518   13.4014 C   0  0  0  0  0  0  0  0  0  0  0  0
   51.4226    9.1876   14.1168 C   0  0  0  0  0  0  0  0  0  0  0  0
   50.5002    9.9040   14.9105 C   0  0  0  0  0  0  0  0  0  0  0  0
   49.4715    9.2936   15.6526 C   0  0  0  0  0  0  0  0  0  0  0  0
   48.6220   10.0445   16.4537 C   0  0  0  0  0  0  0  0  0  0  0  0
   48.7988   11.4098   16.4525 C   0  0  0  0  0  0  0  0  0  0  0  0
   49.7493   12.0424   15.7332 N   0  0  0  0  0  0  0  0  0  0  0  0
   53.5018   11.8431   12.7408 O   0  0  0  0  0  0  0  0  0  0  0  0
   53.3470    9.2288   12.6116 O   0  0  0  0  0  0  0  0  0  0  0  0
   49.3262    7.9270   15.6518 O   0  0  0  0  0  0  0  0  0  0  0  0
   48.3977    7.3762   14.7938 C   0  0  0  0  0  0  0  0  0  0  0  0
   47.6197    8.0756   13.8716 C   0  0  0  0  0  0  0  0  0  0  0  0
   48.2682    5.9876   14.8759 C   0  0  0  0  0  0  0  0  0  0  0  0
   47.3722    5.3028   14.0479 C   0  0  0  0  0  0  0  0  0  0  0  0
   46.5915    6.0018   13.1272 C   0  0  0  0  0  0  0  0  0  0  0  0
   46.7174    7.3921   13.0517 C   0  0  0  0  0  0  0  0  0  0  0  0
   45.6523    5.3952   12.2708 N   0  0  0  0  0  0  0  0  0  0  0  0
   45.4378    4.0487   12.0846 C   0  0  0  0  0  0  0  0  0  0  0  0
   46.0685    3.1147   12.5591 O   0  0  0  0  0  0  0  0  0  0  0  0
   44.3162    3.7544   11.1335 C   0  0  0  0  0  0  0  0  0  0  0  0
   42.9156    4.1973   11.5516 C   0  0  0  0  0  0  0  0  0  0  0  0
   43.2563    2.7479   11.5601 C   0  0  0  0  0  0  0  0  0  0  0  0
   44.6647    3.8074    9.6731 C   0  0  0  0  0  0  0  0  0  0  0  0
   45.6904    2.9618    9.3145 N   0  0  0  0  0  0  0  0  0  0  0  0
   44.0538    4.5820    8.9495 O   0  0  0  0  0  0  0  0  0  0  0  0
   46.2654    2.7976    8.0340 C   0  0  0  0  0  0  0  0  0  0  0  0
   46.4891    3.2968    5.6677 C   0  0  0  0  0  0  0  0  0  0  0  0
   45.8595    3.5073    6.9000 C   0  0  0  0  0  0  0  0  0  0  0  0
   47.3109    1.8704    7.9128 C   0  0  0  0  0  0  0  0  0  0  0  0
   47.9375    1.6641    6.6820 C   0  0  0  0  0  0  0  0  0  0  0  0
   47.5213    2.3811    5.5684 C   0  0  0  0  0  0  0  0  0  0  0  0
   48.1215    2.1788    4.3840 F   0  0  0  0  0  0  0  0  0  0  0  0
   53.5685   13.2700   12.7356 C   0  0  0  0  0  0  0  0  0  0  0  0
   53.2745    7.8163   12.4904 C   0  0  0  0  0  0  0  0  0  0  0  0
   51.6155   13.0327   14.3448 H   0  0  0  0  0  0  0  0  0  0  0  0
   51.3466    8.1061   14.0842 H   0  0  0  0  0  0  0  0  0  0  0  0
   47.8480    9.5776   17.0522 H   0  0  0  0  0  0  0  0  0  0  0  0
   48.1656   12.0601   17.0494 H   0  0  0  0  0  0  0  0  0  0  0  0
   47.6921    9.1519   13.7653 H   0  0  0  0  0  0  0  0  0  0  0  0
   48.8624    5.4308   15.5962 H   0  0  0  0  0  0  0  0  0  0  0  0
   47.2999    4.2237   14.1549 H   0  0  0  0  0  0  0  0  0  0  0  0
   46.1263    7.9667   12.3418 H   0  0  0  0  0  0  0  0  0  0  0  0
   45.0896    6.0226   11.7077 H   0  0  0  0  0  0  0  0  0  0  0  0
   42.7876    4.6904   12.5088 H   0  0  0  0  0  0  0  0  0  0  0  0
   42.2373    4.5518   10.7885 H   0  0  0  0  0  0  0  0  0  0  0  0
   42.8092    2.1179   10.7989 H   0  0  0  0  0  0  0  0  0  0  0  0
   43.3798    2.2630   12.5165 H   0  0  0  0  0  0  0  0  0  0  0  0
   46.0961    2.4082   10.0639 H   0  0  0  0  0  0  0  0  0  0  0  0
   46.1777    3.8440    4.7824 H   0  0  0  0  0  0  0  0  0  0  0  0
   45.0641    4.2501    6.9393 H   0  0  0  0  0  0  0  0  0  0  0  0
   47.6554    1.3038    8.7762 H   0  0  0  0  0  0  0  0  0  0  0  0
   48.7434    0.9388    6.5860 H   0  0  0  0  0  0  0  0  0  0  0  0
   53.7829   13.6617   13.7383 H   0  0  0  0  0  0  0  0  0  0  0  0
   54.3958   13.5662   12.0883 H   0  0  0  0  0  0  0  0  0  0  0  0
   52.6479   13.7091   12.3271 H   0  0  0  0  0  0  0  0  0  0  0  0
   53.4787    7.3367   13.4481 H   0  0  0  0  0  0  0  0  0  0  0  0
   52.3130    7.5014   12.0880 H   0  0  0  0  0  0  0  0  0  0  0  0
   54.0464    7.5005   11.7905 H   0  0  0  0  0  0  0  0  0  0  0  0
  1  2  2  0
  1  6  1  0
  1 10  1  0
  2  3  1  0
  3  4  2  0
  4  5  1  0
  5  6  2  0
  6  7  1  0
  7  8  2  0
  8  9  1  0
  9 10  2  0
  3 11  1  0
  4 12  1  0
  7 13  1  0
 13 14  1  0
 15 14  2  0
 14 16  1  0
 15 19  1  0
 16 17  2  0
 17 18  1  0
 18 19  2  0
 18 20  1  0
 20 21  1  0
 21 22  2  0
 21 23  1  0
 23 24  1  0
 24 25  1  0
 25 23  1  0
 23 26  1  0
 26 27  1  0
 26 28  2  0
 27 29  1  0
 31 29  1  0
 29 32  2  0
 30 31  2  0
 30 34  1  0
 32 33  1  0
 33 34  2  0
 34 35  1  0
 11 36  1  0
 12 37  1  0
  2 38  1  0
  5 39  1  0
  8 40  1  0
  9 41  1  0
 15 42  1  0
 16 43  1  0
 17 44  1  0
 19 45  1  0
 20 46  1  0
 24 47  1  0
 24 48  1  0
 25 49  1  0
 25 50  1  0
 27 51  1  0
 30 52  1  0
 31 53  1  0
 32 54  1  0
 33 55  1  0
 36 56  1  0
 36 57  1  0
 36 58  1  0
 37 59  1  0
 37 60  1  0
 37 61  1  0
M  END
> <Uni-Dock RESULT> 
ENERGY=   -4.941  LOWER_BOUND=    0.000  UPPER_BOUND=    0.000
INTER + INTRA:          -4.941
INTER:                  -4.941
INTRA:                   0.000
UNBOUND:                 0.000

$$$$

     RDKit          3D

 61 65  0  0  0  0  0  0  0  0999 V2000
   41.8438   12.9464    8.2674 C   0  0  0  0  0  0  0  0  0  0  0  0
   40.9162   13.9456    8.5236 C   0  0  0  0  0  0  0  0  0  0  0  0
   40.2054   14.0060    9.7272 C   0  0  0  0  0  0  0  0  0  0  0  0
   40.4327   13.0295   10.7115 C   0  0  0  0  0  0  0  0  0  0  0  0
   41.3665   12.0229   10.4709 C   0  0  0  0  0  0  0  0  0  0  0  0
   42.0797   11.9723    9.2533 C   0  0  0  0  0  0  0  0  0  0  0  0
   43.0371   10.9855    8.9512 C   0  0  0  0  0  0  0  0  0  0  0  0
   43.6741   10.9576    7.7180 C   0  0  0  0  0  0  0  0  0  0  0  0
   43.3650   11.9604    6.8267 C   0  0  0  0  0  0  0  0  0  0  0  0
   42.4787   12.9451    7.0834 N   0  0  0  0  0  0  0  0  0  0  0  0
   39.2712   14.9698   10.0310 O   0  0  0  0  0  0  0  0  0  0  0  0
   39.7028   13.1457   11.8644 O   0  0  0  0  0  0  0  0  0  0  0  0
   43.3156    9.9843    9.8503 O   0  0  0  0  0  0  0  0  0  0  0  0
   44.4154   10.1375   10.6681 C   0  0  0  0  0  0  0  0  0  0  0  0
   45.2530   11.2516   10.7128 C   0  0  0  0  0  0  0  0  0  0  0  0
   44.6678    9.0641   11.5259 C   0  0  0  0  0  0  0  0  0  0  0  0
   45.7444    9.1002   12.4188 C   0  0  0  0  0  0  0  0  0  0  0  0
   46.5844   10.2128   12.4621 C   0  0  0  0  0  0  0  0  0  0  0  0
   46.3343   11.2829   11.5978 C   0  0  0  0  0  0  0  0  0  0  0  0
   47.7000   10.3239   13.3146 N   0  0  0  0  0  0  0  0  0  0  0  0
   48.0732    9.4616   14.3200 C   0  0  0  0  0  0  0  0  0  0  0  0
   47.4727    8.4773   14.7272 O   0  0  0  0  0  0  0  0  0  0  0  0
   49.3517    9.8591   14.9958 C   0  0  0  0  0  0  0  0  0  0  0  0
   50.6201    9.8495   14.1451 C   0  0  0  0  0  0  0  0  0  0  0  0
   50.4277    8.7978   15.1813 C   0  0  0  0  0  0  0  0  0  0  0  0
   49.2291   10.9071   16.0653 C   0  0  0  0  0  0  0  0  0  0  0  0
   48.3600   10.5696   17.0784 N   0  0  0  0  0  0  0  0  0  0  0  0
   49.8643   11.9460   15.9474 O   0  0  0  0  0  0  0  0  0  0  0  0
   48.0086   11.3439   18.2073 C   0  0  0  0  0  0  0  0  0  0  0  0
   48.1041   13.3321   19.5988 C   0  0  0  0  0  0  0  0  0  0  0  0
   48.5120   12.6228   18.4632 C   0  0  0  0  0  0  0  0  0  0  0  0
   47.0915   10.7854   19.1098 C   0  0  0  0  0  0  0  0  0  0  0  0
   46.6859   11.4967   20.2409 C   0  0  0  0  0  0  0  0  0  0  0  0
   47.1956   12.7665   20.4755 C   0  0  0  0  0  0  0  0  0  0  0  0
   46.8083   13.4482   21.5661 F   0  0  0  0  0  0  0  0  0  0  0  0
   39.0648   16.0165    9.0811 C   0  0  0  0  0  0  0  0  0  0  0  0
   39.9329   12.1956   12.8938 C   0  0  0  0  0  0  0  0  0  0  0  0
   40.7600   14.6785    7.7409 H   0  0  0  0  0  0  0  0  0  0  0  0
   41.5535   11.2536   11.2124 H   0  0  0  0  0  0  0  0  0  0  0  0
   44.3890   10.1822    7.4672 H   0  0  0  0  0  0  0  0  0  0  0  0
   43.8308   12.0058    5.8464 H   0  0  0  0  0  0  0  0  0  0  0  0
   45.0914   12.1119   10.0733 H   0  0  0  0  0  0  0  0  0  0  0  0
   44.0279    8.1858   11.4957 H   0  0  0  0  0  0  0  0  0  0  0  0
   45.9060    8.2374   13.0596 H   0  0  0  0  0  0  0  0  0  0  0  0
   46.9679   12.1672   11.6092 H   0  0  0  0  0  0  0  0  0  0  0  0
   48.2777   11.1474   13.1905 H   0  0  0  0  0  0  0  0  0  0  0  0
   50.5494    9.5511   13.1051 H   0  0  0  0  0  0  0  0  0  0  0  0
   51.3694   10.6068   14.3276 H   0  0  0  0  0  0  0  0  0  0  0  0
   51.0471    8.8433   16.0704 H   0  0  0  0  0  0  0  0  0  0  0  0
   50.2069    7.7949   14.8491 H   0  0  0  0  0  0  0  0  0  0  0  0
   47.9006    9.6674   16.9912 H   0  0  0  0  0  0  0  0  0  0  0  0
   48.4924   14.3257   19.8043 H   0  0  0  0  0  0  0  0  0  0  0  0
   49.2141   13.1111   17.7890 H   0  0  0  0  0  0  0  0  0  0  0  0
   46.6760    9.7937   18.9390 H   0  0  0  0  0  0  0  0  0  0  0  0
   45.9804   11.0602   20.9456 H   0  0  0  0  0  0  0  0  0  0  0  0
   38.6605   15.6245    8.1390 H   0  0  0  0  0  0  0  0  0  0  0  0
   38.3219   16.7025    9.4919 H   0  0  0  0  0  0  0  0  0  0  0  0
   39.9892   16.5851    8.9095 H   0  0  0  0  0  0  0  0  0  0  0  0
   39.6321   11.1984   12.5717 H   0  0  0  0  0  0  0  0  0  0  0  0
   40.9714   12.2086   13.2208 H   0  0  0  0  0  0  0  0  0  0  0  0
   39.3135   12.4693   13.7463 H   0  0  0  0  0  0  0  0  0  0  0  0
  1  2  2  0
  1  6  1  0
  1 10  1  0
  2  3  1  0
  3  4  2  0
  4  5  1  0
  5  6  2  0
  6  7  1  0
  7  8  2  0
  8  9  1  0
  9 10  2  0
  3 11  1  0
  4 12  1  0
  7 13  1  0
 13 14  1  0
 15 14  2  0
 14 16  1  0
 15 19  1  0
 16 17  2  0
 17 18  1  0
 18 19  2  0
 18 20  1  0
 20 21  1  0
 21 22  2  0
 21 23  1  0
 23 24  1  0
 24 25  1  0
 25 23  1  0
 23 26  1  0
 26 27  1  0
 26 28  2  0
 27 29  1  0
 31 29  1  0
 29 32  2  0
 30 31  2  0
 30 34  1  0
 32 33  1  0
 33 34  2  0
 34 35  1  0
 11 36  1  0
 12 37  1  0
  2 38  1  0
  5 39  1  0
  8 40  1  0
  9 41  1  0
 15 42  1  0
 16 43  1  0
 17 44  1  0
 19 45  1  0
 20 46  1  0
 24 47  1  0
 24 48  1  0
 25 49  1  0
 25 50  1  0
 27 51  1  0
 30 52  1  0
 31 53  1  0
 32 54  1  0
 33 55  1  0
 36 56  1  0
 36 57  1  0
 36 58  1  0
 37 59  1  0
 37 60  1  0
 37 61  1  0
M  END
> <Uni-Dock RESULT> 
ENERGY=   -4.753  LOWER_BOUND=    7.020  UPPER_BOUND=   11.693
INTER + INTRA:          -4.753
INTER:                  -4.753
INTRA:                   0.000
UNBOUND:                 0.000

$$$$

     RDKit          3D

 61 65  0  0  0  0  0  0  0  0999 V2000
   50.6979    5.6411   22.7423 C   0  0  0  0  0  0  0  0  0  0  0  0
   51.9679    5.8903   23.2417 C   0  0  0  0  0  0  0  0  0  0  0  0
   53.1238    5.5364   22.5373 C   0  0  0  0  0  0  0  0  0  0  0  0
   53.0033    4.9102   21.2854 C   0  0  0  0  0  0  0  0  0  0  0  0
   51.7337    4.6592   20.7676 C   0  0  0  0  0  0  0  0  0  0  0  0
   50.5735    5.0221   21.4862 C   0  0  0  0  0  0  0  0  0  0  0  0
   49.2650    4.7999   21.0173 C   0  0  0  0  0  0  0  0  0  0  0  0
   48.1600    5.1350   21.7882 C   0  0  0  0  0  0  0  0  0  0  0  0
   48.3991    5.7349   23.0040 C   0  0  0  0  0  0  0  0  0  0  0  0
   49.6339    5.9972   23.4811 N   0  0  0  0  0  0  0  0  0  0  0  0
   54.4060    5.7542   22.9875 O   0  0  0  0  0  0  0  0  0  0  0  0
   54.1733    4.5886   20.6504 O   0  0  0  0  0  0  0  0  0  0  0  0
   49.0518    4.1830   19.8080 O   0  0  0  0  0  0  0  0  0  0  0  0
   48.8097    4.9805   18.7094 C   0  0  0  0  0  0  0  0  0  0  0  0
   48.8164    6.3749   18.6930 C   0  0  0  0  0  0  0  0  0  0  0  0
   48.5564    4.2894   17.5219 C   0  0  0  0  0  0  0  0  0  0  0  0
   48.3116    4.9807   16.3304 C   0  0  0  0  0  0  0  0  0  0  0  0
   48.3152    6.3754   16.3138 C   0  0  0  0  0  0  0  0  0  0  0  0
   48.5618    7.0651   17.5046 C   0  0  0  0  0  0  0  0  0  0  0  0
   48.0597    7.1493   15.1652 N   0  0  0  0  0  0  0  0  0  0  0  0
   47.9076    6.7024   13.8726 C   0  0  0  0  0  0  0  0  0  0  0  0
   48.0433    5.5628   13.4507 O   0  0  0  0  0  0  0  0  0  0  0  0
   47.5898    7.7998   12.9010 C   0  0  0  0  0  0  0  0  0  0  0  0
   46.2648    8.5353   13.0917 C   0  0  0  0  0  0  0  0  0  0  0  0
   46.4217    7.5985   11.9451 C   0  0  0  0  0  0  0  0  0  0  0  0
   48.7649    8.5862   12.3934 C   0  0  0  0  0  0  0  0  0  0  0  0
   49.7293    7.8152   11.7841 N   0  0  0  0  0  0  0  0  0  0  0  0
   48.7862    9.7960   12.5739 O   0  0  0  0  0  0  0  0  0  0  0  0
   50.9560    8.2466   11.2306 C   0  0  0  0  0  0  0  0  0  0  0  0
   52.6225    9.9225   10.6713 C   0  0  0  0  0  0  0  0  0  0  0  0
   51.3859    9.5769   11.2287 C   0  0  0  0  0  0  0  0  0  0  0  0
   51.7842    7.2679   10.6617 C   0  0  0  0  0  0  0  0  0  0  0  0
   53.0177    7.6163   10.1078 C   0  0  0  0  0  0  0  0  0  0  0  0
   53.4275    8.9428   10.1184 C   0  0  0  0  0  0  0  0  0  0  0  0
   54.6122    9.2778    9.5815 F   0  0  0  0  0  0  0  0  0  0  0  0
   54.5654    6.4498   24.2250 C   0  0  0  0  0  0  0  0  0  0  0  0
   54.0880    3.9862   19.3678 C   0  0  0  0  0  0  0  0  0  0  0  0
   52.0251    6.3681   24.2127 H   0  0  0  0  0  0  0  0  0  0  0  0
   51.6153    4.1700   19.8068 H   0  0  0  0  0  0  0  0  0  0  0  0
   47.1503    4.9376   21.4466 H   0  0  0  0  0  0  0  0  0  0  0  0
   47.5823    6.0311   23.6560 H   0  0  0  0  0  0  0  0  0  0  0  0
   49.0170    6.9542   19.5870 H   0  0  0  0  0  0  0  0  0  0  0  0
   48.5399    3.2023   17.5220 H   0  0  0  0  0  0  0  0  0  0  0  0
   48.1105    4.3995   15.4344 H   0  0  0  0  0  0  0  0  0  0  0  0
   48.5757    8.1528   17.5251 H   0  0  0  0  0  0  0  0  0  0  0  0
   48.0095    8.1522   15.3035 H   0  0  0  0  0  0  0  0  0  0  0  0
   45.6120    8.2337   13.9031 H   0  0  0  0  0  0  0  0  0  0  0  0
   46.2269    9.5939   12.8770 H   0  0  0  0  0  0  0  0  0  0  0  0
   46.4925    8.0234   10.9497 H   0  0  0  0  0  0  0  0  0  0  0  0
   45.8956    6.6570   11.9857 H   0  0  0  0  0  0  0  0  0  0  0  0
   49.5470    6.8161   11.7497 H   0  0  0  0  0  0  0  0  0  0  0  0
   52.9619   10.9545   10.6654 H   0  0  0  0  0  0  0  0  0  0  0  0
   50.7911   10.3751   11.6702 H   0  0  0  0  0  0  0  0  0  0  0  0
   51.4828    6.2217   10.6501 H   0  0  0  0  0  0  0  0  0  0  0  0
   53.6570    6.8581    9.6591 H   0  0  0  0  0  0  0  0  0  0  0  0
   54.1462    5.8752   25.0610 H   0  0  0  0  0  0  0  0  0  0  0  0
   55.6347    6.5618   24.4130 H   0  0  0  0  0  0  0  0  0  0  0  0
   54.1255    7.4552   24.1750 H   0  0  0  0  0  0  0  0  0  0  0  0
   53.6249    3.0014   19.4350 H   0  0  0  0  0  0  0  0  0  0  0  0
   53.5572    4.6251   18.6638 H   0  0  0  0  0  0  0  0  0  0  0  0
   55.1015    3.8509   18.9936 H   0  0  0  0  0  0  0  0  0  0  0  0
  1  2  2  0
  1  6  1  0
  1 10  1  0
  2  3  1  0
  3  4  2  0
  4  5  1  0
  5  6  2  0
  6  7  1  0
  7  8  2  0
  8  9  1  0
  9 10  2  0
  3 11  1  0
  4 12  1  0
  7 13  1  0
 13 14  1  0
 15 14  2  0
 14 16  1  0
 15 19  1  0
 16 17  2  0
 17 18  1  0
 18 19  2  0
 18 20  1  0
 20 21  1  0
 21 22  2  0
 21 23  1  0
 23 24  1  0
 24 25  1  0
 25 23  1  0
 23 26  1  0
 26 27  1  0
 26 28  2  0
 27 29  1  0
 31 29  1  0
 29 32  2  0
 30 31  2  0
 30 34  1  0
 32 33  1  0
 33 34  2  0
 34 35  1  0
 11 36  1  0
 12 37  1  0
  2 38  1  0
  5 39  1  0
  8 40  1  0
  9 41  1  0
 15 42  1  0
 16 43  1  0
 17 44  1  0
 19 45  1  0
 20 46  1  0
 24 47  1  0
 24 48  1  0
 25 49  1  0
 25 50  1  0
 27 51  1  0
 30 52  1  0
 31 53  1  0
 32 54  1  0
 33 55  1  0
 36 56  1  0
 36 57  1  0
 36 58  1  0
 37 59  1  0
 37 60  1  0
 37 61  1  0
M  END
> <Uni-Dock RESULT> 
ENERGY=   -4.422  LOWER_BOUND=    5.807  UPPER_BOUND=    7.920
INTER + INTRA:          -4.422
INTER:                  -4.422
INTRA:                   0.000
UNBOUND:                 0.000

$$$$

     RDKit          3D

 61 65  0  0  0  0  0  0  0  0999 V2000
   49.6691   15.6579   16.4885 C   0  0  0  0  0  0  0  0  0  0  0  0
   50.8460   16.3621   16.6965 C   0  0  0  0  0  0  0  0  0  0  0  0
   51.6037   16.2113   17.8629 C   0  0  0  0  0  0  0  0  0  0  0  0
   51.1668   15.3210   18.8582 C   0  0  0  0  0  0  0  0  0  0  0  0
   49.9893   14.6015   18.6606 C   0  0  0  0  0  0  0  0  0  0  0  0
   49.2331   14.7601   17.4787 C   0  0  0  0  0  0  0  0  0  0  0  0
   48.0394   14.0612   17.2174 C   0  0  0  0  0  0  0  0  0  0  0  0
   47.3118   14.2923   16.0579 C   0  0  0  0  0  0  0  0  0  0  0  0
   47.8317   15.1949   15.1577 C   0  0  0  0  0  0  0  0  0  0  0  0
   48.9875   15.8644   15.3494 N   0  0  0  0  0  0  0  0  0  0  0  0
   52.7735   16.8879   18.1233 O   0  0  0  0  0  0  0  0  0  0  0  0
   51.9534   15.2224   19.9749 O   0  0  0  0  0  0  0  0  0  0  0  0
   47.5310   13.1783   18.1396 O   0  0  0  0  0  0  0  0  0  0  0  0
   47.8048   11.8375   17.9699 C   0  0  0  0  0  0  0  0  0  0  0  0
   48.6067   11.2860   16.9711 C   0  0  0  0  0  0  0  0  0  0  0  0
   47.2207   10.9909   18.9155 C   0  0  0  0  0  0  0  0  0  0  0  0
   47.4330    9.6089   18.8660 C   0  0  0  0  0  0  0  0  0  0  0  0
   48.2325    9.0562   17.8656 C   0  0  0  0  0  0  0  0  0  0  0  0
   48.8102    9.9043   16.9160 C   0  0  0  0  0  0  0  0  0  0  0  0
   48.4826    7.6769   17.7303 N   0  0  0  0  0  0  0  0  0  0  0  0
   48.1227    6.6726   18.5995 C   0  0  0  0  0  0  0  0  0  0  0  0
   47.5900    6.7819   19.6947 O   0  0  0  0  0  0  0  0  0  0  0  0
   48.5035    5.3056   18.1142 C   0  0  0  0  0  0  0  0  0  0  0  0
   47.8329    4.8102   16.8344 C   0  0  0  0  0  0  0  0  0  0  0  0
   47.4447    4.2116   18.1412 C   0  0  0  0  0  0  0  0  0  0  0  0
   49.9250    4.8920   18.3697 C   0  0  0  0  0  0  0  0  0  0  0  0
   50.2858    4.9310   19.6978 N   0  0  0  0  0  0  0  0  0  0  0  0
   50.6304    4.5888   17.4173 O   0  0  0  0  0  0  0  0  0  0  0  0
   51.5477    4.6291   20.2582 C   0  0  0  0  0  0  0  0  0  0  0  0
   53.8811    3.9666   20.1373 C   0  0  0  0  0  0  0  0  0  0  0  0
   52.6601    4.2359   19.5082 C   0  0  0  0  0  0  0  0  0  0  0  0
   51.6775    4.7450   21.6500 C   0  0  0  0  0  0  0  0  0  0  0  0
   52.8976    4.4767   22.2738 C   0  0  0  0  0  0  0  0  0  0  0  0
   53.9911    4.0902   21.5107 C   0  0  0  0  0  0  0  0  0  0  0  0
   55.1632    3.8281   22.1121 F   0  0  0  0  0  0  0  0  0  0  0  0
   53.2823   17.7498   17.1040 C   0  0  0  0  0  0  0  0  0  0  0  0
   51.5593   14.3061   20.9850 C   0  0  0  0  0  0  0  0  0  0  0  0
   51.1507   17.0453   15.9124 H   0  0  0  0  0  0  0  0  0  0  0  0
   49.6278   13.9142   19.4178 H   0  0  0  0  0  0  0  0  0  0  0  0
   46.3756   13.7807   15.8653 H   0  0  0  0  0  0  0  0  0  0  0  0
   47.3202   15.4190   14.2259 H   0  0  0  0  0  0  0  0  0  0  0  0
   49.0882   11.9034   16.2214 H   0  0  0  0  0  0  0  0  0  0  0  0
   46.5865   11.4065   19.6946 H   0  0  0  0  0  0  0  0  0  0  0  0
   46.9500    8.9903   19.6177 H   0  0  0  0  0  0  0  0  0  0  0  0
   49.4424    9.5058   16.1253 H   0  0  0  0  0  0  0  0  0  0  0  0
   49.0118    7.3961   16.9127 H   0  0  0  0  0  0  0  0  0  0  0  0
   47.1122    5.4521   16.3401 H   0  0  0  0  0  0  0  0  0  0  0  0
   48.4096    4.2020   16.1520 H   0  0  0  0  0  0  0  0  0  0  0  0
   47.7608    3.1947   18.3465 H   0  0  0  0  0  0  0  0  0  0  0  0
   46.4746    4.4609   18.5433 H   0  0  0  0  0  0  0  0  0  0  0  0
   49.5663    5.2349   20.3478 H   0  0  0  0  0  0  0  0  0  0  0  0
   54.7491    3.6594   19.5606 H   0  0  0  0  0  0  0  0  0  0  0  0
   52.6208    4.1447   18.4237 H   0  0  0  0  0  0  0  0  0  0  0  0
   50.8330    5.0531   22.2641 H   0  0  0  0  0  0  0  0  0  0  0  0
   52.9963    4.5588   23.3547 H   0  0  0  0  0  0  0  0  0  0  0  0
   52.5971   18.5853   16.9112 H   0  0  0  0  0  0  0  0  0  0  0  0
   54.2211   18.1766   17.4616 H   0  0  0  0  0  0  0  0  0  0  0  0
   53.4960   17.1917   16.1822 H   0  0  0  0  0  0  0  0  0  0  0  0
   50.6159   14.6135   21.4370 H   0  0  0  0  0  0  0  0  0  0  0  0
   51.4994   13.2903   20.5978 H   0  0  0  0  0  0  0  0  0  0  0  0
   52.3198   14.3197   21.7641 H   0  0  0  0  0  0  0  0  0  0  0  0
  1  2  2  0
  1  6  1  0
  1 10  1  0
  2  3  1  0
  3  4  2  0
  4  5  1  0
  5  6  2  0
  6  7  1  0
  7  8  2  0
  8  9  1  0
  9 10  2  0
  3 11  1  0
  4 12  1  0
  7 13  1  0
 13 14  1  0
 15 14  2  0
 14 16  1  0
 15 19  1  0
 16 17  2  0
 17 18  1  0
 18 19  2  0
 18 20  1  0
 20 21  1  0
 21 22  2  0
 21 23  1  0
 23 24  1  0
 24 25  1  0
 25 23  1  0
 23 26  1  0
 26 27  1  0
 26 28  2  0
 27 29  1  0
 31 29  1  0
 29 32  2  0
 30 31  2  0
 30 34  1  0
 32 33  1  0
 33 34  2  0
 34 35  1  0
 11 36  1  0
 12 37  1  0
  2 38  1  0
  5 39  1  0
  8 40  1  0
  9 41  1  0
 15 42  1  0
 16 43  1  0
 17 44  1  0
 19 45  1  0
 20 46  1  0
 24 47  1  0
 24 48  1  0
 25 49  1  0
 25 50  1  0
 27 51  1  0
 30 52  1  0
 31 53  1  0
 32 54  1  0
 33 55  1  0
 36 56  1  0
 36 57  1  0
 36 58  1  0
 37 59  1  0
 37 60  1  0
 37 61  1  0
M  END
> <Uni-Dock RESULT> 
ENERGY=   -4.345  LOWER_BOUND=    7.280  UPPER_BOUND=    9.535
INTER + INTRA:          -4.345
INTER:                  -4.345
INTRA:                   0.000
UNBOUND:                 0.000

$$$$

     RDKit          3D

 61 65  0  0  0  0  0  0  0  0999 V2000
   47.5629    8.7738   20.5053 C   0  0  0  0  0  0  0  0  0  0  0  0
   47.5346    7.6797   21.3577 C   0  0  0  0  0  0  0  0  0  0  0  0
   47.5523    6.3657   20.8777 C   0  0  0  0  0  0  0  0  0  0  0  0
   47.6009    6.1387   19.4920 C   0  0  0  0  0  0  0  0  0  0  0  0
   47.6363    7.2282   18.6232 C   0  0  0  0  0  0  0  0  0  0  0  0
   47.6197    8.5505   19.1184 C   0  0  0  0  0  0  0  0  0  0  0  0
   47.6573    9.6917   18.2951 C   0  0  0  0  0  0  0  0  0  0  0  0
   47.5910   10.9688   18.8354 C   0  0  0  0  0  0  0  0  0  0  0  0
   47.5358   11.0699   20.2073 C   0  0  0  0  0  0  0  0  0  0  0  0
   47.5300   10.0066   21.0382 N   0  0  0  0  0  0  0  0  0  0  0  0
   47.5199    5.2455   21.6766 O   0  0  0  0  0  0  0  0  0  0  0  0
   47.6137    4.8298   19.0895 O   0  0  0  0  0  0  0  0  0  0  0  0
   47.6944    9.5650   16.9272 O   0  0  0  0  0  0  0  0  0  0  0  0
   48.9213    9.6482   16.3034 C   0  0  0  0  0  0  0  0  0  0  0  0
   50.1542    9.7936   16.9388 C   0  0  0  0  0  0  0  0  0  0  0  0
   48.8830    9.5569   14.9098 C   0  0  0  0  0  0  0  0  0  0  0  0
   50.0611    9.6106   14.1570 C   0  0  0  0  0  0  0  0  0  0  0  0
   51.2944    9.7590   14.7915 C   0  0  0  0  0  0  0  0  0  0  0  0
   51.3299    9.8574   16.1856 C   0  0  0  0  0  0  0  0  0  0  0  0
   52.5246    9.8416   14.1109 N   0  0  0  0  0  0  0  0  0  0  0  0
   52.7504    9.6564   12.7662 C   0  0  0  0  0  0  0  0  0  0  0  0
   51.9497    9.3055   11.9112 O   0  0  0  0  0  0  0  0  0  0  0  0
   54.1807    9.8743   12.3711 C   0  0  0  0  0  0  0  0  0  0  0  0
   54.7447   11.2824   12.5498 C   0  0  0  0  0  0  0  0  0  0  0  0
   54.4683   10.7750   11.1775 C   0  0  0  0  0  0  0  0  0  0  0  0
   55.1060    8.7117   12.5929 C   0  0  0  0  0  0  0  0  0  0  0  0
   54.7131    7.5576   11.9531 N   0  0  0  0  0  0  0  0  0  0  0  0
   56.0825    8.8655   13.3136 O   0  0  0  0  0  0  0  0  0  0  0  0
   55.3482    6.2954   11.9835 C   0  0  0  0  0  0  0  0  0  0  0  0
   57.0764    4.7445   12.6951 C   0  0  0  0  0  0  0  0  0  0  0  0
   56.5149    6.0266   12.7054 C   0  0  0  0  0  0  0  0  0  0  0  0
   54.7544    5.2590   11.2482 C   0  0  0  0  0  0  0  0  0  0  0  0
   55.3168    3.9809   11.2415 C   0  0  0  0  0  0  0  0  0  0  0  0
   56.4743    3.7339   11.9672 C   0  0  0  0  0  0  0  0  0  0  0  0
   57.0171    2.5054   11.9567 F   0  0  0  0  0  0  0  0  0  0  0  0
   47.5389    5.4392   23.0918 C   0  0  0  0  0  0  0  0  0  0  0  0
   47.6977    4.5647   17.6974 C   0  0  0  0  0  0  0  0  0  0  0  0
   47.4902    7.8899   22.4198 H   0  0  0  0  0  0  0  0  0  0  0  0
   47.6662    7.0783   17.5494 H   0  0  0  0  0  0  0  0  0  0  0  0
   47.5876   11.8509   18.2053 H   0  0  0  0  0  0  0  0  0  0  0  0
   47.4901   12.0374   20.6992 H   0  0  0  0  0  0  0  0  0  0  0  0
   50.2348    9.8593   18.0178 H   0  0  0  0  0  0  0  0  0  0  0  0
   47.9280    9.4518   14.4010 H   0  0  0  0  0  0  0  0  0  0  0  0
   49.9798    9.5447   13.0753 H   0  0  0  0  0  0  0  0  0  0  0  0
   52.2756    9.9696   16.7117 H   0  0  0  0  0  0  0  0  0  0  0  0
   53.3399   10.0323   14.6820 H   0  0  0  0  0  0  0  0  0  0  0  0
   54.0966   12.0592   12.9399 H   0  0  0  0  0  0  0  0  0  0  0  0
   55.7775   11.3902   12.8495 H   0  0  0  0  0  0  0  0  0  0  0  0
   55.3165   10.5360   10.5453 H   0  0  0  0  0  0  0  0  0  0  0  0
   53.6253   11.1890   10.6456 H   0  0  0  0  0  0  0  0  0  0  0  0
   53.8531    7.6154   11.4150 H   0  0  0  0  0  0  0  0  0  0  0  0
   57.9836    4.5292   13.2528 H   0  0  0  0  0  0  0  0  0  0  0  0
   57.0094    6.7888   13.3057 H   0  0  0  0  0  0  0  0  0  0  0  0
   53.8430    5.4321   10.6785 H   0  0  0  0  0  0  0  0  0  0  0  0
   54.8607    3.1786   10.6645 H   0  0  0  0  0  0  0  0  0  0  0  0
   46.6377    5.9644   23.4334 H   0  0  0  0  0  0  0  0  0  0  0  0
   47.5404    4.4563   23.5663 H   0  0  0  0  0  0  0  0  0  0  0  0
   48.4492    5.9668   23.4083 H   0  0  0  0  0  0  0  0  0  0  0  0
   46.8035    4.9186   17.1835 H   0  0  0  0  0  0  0  0  0  0  0  0
   48.5987    4.9965   17.2648 H   0  0  0  0  0  0  0  0  0  0  0  0
   47.7506    3.4853   17.5649 H   0  0  0  0  0  0  0  0  0  0  0  0
  1  2  2  0
  1  6  1  0
  1 10  1  0
  2  3  1  0
  3  4  2  0
  4  5  1  0
  5  6  2  0
  6  7  1  0
  7  8  2  0
  8  9  1  0
  9 10  2  0
  3 11  1  0
  4 12  1  0
  7 13  1  0
 13 14  1  0
 15 14  2  0
 14 16  1  0
 15 19  1  0
 16 17  2  0
 17 18  1  0
 18 19  2  0
 18 20  1  0
 20 21  1  0
 21 22  2  0
 21 23  1  0
 23 24  1  0
 24 25  1  0
 25 23  1  0
 23 26  1  0
 26 27  1  0
 26 28  2  0
 27 29  1  0
 31 29  1  0
 29 32  2  0
 30 31  2  0
 30 34  1  0
 32 33  1  0
 33 34  2  0
 34 35  1  0
 11 36  1  0
 12 37  1  0
  2 38  1  0
  5 39  1  0
  8 40  1  0
  9 41  1  0
 15 42  1  0
 16 43  1  0
 17 44  1  0
 19 45  1  0
 20 46  1  0
 24 47  1  0
 24 48  1  0
 25 49  1  0
 25 50  1  0
 27 51  1  0
 30 52  1  0
 31 53  1  0
 32 54  1  0
 33 55  1  0
 36 56  1  0
 36 57  1  0
 36 58  1  0
 37 59  1  0
 37 60  1  0
 37 61  1  0
M  END
> <Uni-Dock RESULT> 
ENERGY=   -4.182  LOWER_BOUND=    6.191  UPPER_BOUND=    9.222
INTER + INTRA:          -4.182
INTER:                  -4.182
INTRA:                   0.000
UNBOUND:                 0.000

$$$$

     RDKit          3D

 61 65  0  0  0  0  0  0  0  0999 V2000
   49.9302   11.6412   10.8468 C   0  0  0  0  0  0  0  0  0  0  0  0
   51.0973   11.9251   10.1528 C   0  0  0  0  0  0  0  0  0  0  0  0
   52.3422   11.9827   10.7886 C   0  0  0  0  0  0  0  0  0  0  0  0
   52.4215   11.7463   12.1713 C   0  0  0  0  0  0  0  0  0  0  0  0
   51.2580   11.4533   12.8810 C   0  0  0  0  0  0  0  0  0  0  0  0
   50.0068   11.3960   12.2290 C   0  0  0  0  0  0  0  0  0  0  0  0
   48.7977   11.1021   12.8872 C   0  0  0  0  0  0  0  0  0  0  0  0
   47.5894   11.1058   12.2036 C   0  0  0  0  0  0  0  0  0  0  0  0
   47.6317   11.3609   10.8514 C   0  0  0  0  0  0  0  0  0  0  0  0
   48.7691   11.6159   10.1715 N   0  0  0  0  0  0  0  0  0  0  0  0
   53.5287   12.2654   10.1510 O   0  0  0  0  0  0  0  0  0  0  0  0
   53.6692   11.8200   12.7311 O   0  0  0  0  0  0  0  0  0  0  0  0
   48.7786   10.8683   14.2413 O   0  0  0  0  0  0  0  0  0  0  0  0
   48.7897    9.5581   14.6712 C   0  0  0  0  0  0  0  0  0  0  0  0
   48.8773    8.4301   13.8559 C   0  0  0  0  0  0  0  0  0  0  0  0
   48.7231    9.3904   16.0565 C   0  0  0  0  0  0  0  0  0  0  0  0
   48.7428    8.1116   16.6238 C   0  0  0  0  0  0  0  0  0  0  0  0
   48.8274    6.9826   15.8090 C   0  0  0  0  0  0  0  0  0  0  0  0
   48.8868    7.1524   14.4226 C   0  0  0  0  0  0  0  0  0  0  0  0
   48.8333    5.6606   16.2943 N   0  0  0  0  0  0  0  0  0  0  0  0
   48.8991    5.2518   17.6066 C   0  0  0  0  0  0  0  0  0  0  0  0
   49.0469    5.9450   18.6030 O   0  0  0  0  0  0  0  0  0  0  0  0
   48.8291    3.7622   17.7664 C   0  0  0  0  0  0  0  0  0  0  0  0
   47.5351    3.0764   17.3329 C   0  0  0  0  0  0  0  0  0  0  0  0
   47.8495    3.1928   18.7835 C   0  0  0  0  0  0  0  0  0  0  0  0
   50.1202    3.0205   17.5665 C   0  0  0  0  0  0  0  0  0  0  0  0
   51.1363    3.4380   18.3965 N   0  0  0  0  0  0  0  0  0  0  0  0
   50.1753    2.1563   16.7024 O   0  0  0  0  0  0  0  0  0  0  0  0
   52.4666    2.9629   18.4380 C   0  0  0  0  0  0  0  0  0  0  0  0
   54.2990    1.5531   17.6941 C   0  0  0  0  0  0  0  0  0  0  0  0
   52.9631    1.9601   17.5998 C   0  0  0  0  0  0  0  0  0  0  0  0
   53.3300    3.5494   19.3750 C   0  0  0  0  0  0  0  0  0  0  0  0
   54.6624    3.1417   19.4651 C   0  0  0  0  0  0  0  0  0  0  0  0
   55.1367    2.1461   18.6217 C   0  0  0  0  0  0  0  0  0  0  0  0
   56.4173    1.7513   18.7120 F   0  0  0  0  0  0  0  0  0  0  0  0
   53.4943   12.4439    8.7341 C   0  0  0  0  0  0  0  0  0  0  0  0
   53.7899   11.5522   14.1200 C   0  0  0  0  0  0  0  0  0  0  0  0
   50.9999   12.1093    9.0893 H   0  0  0  0  0  0  0  0  0  0  0  0
   51.2929   11.2747   13.9502 H   0  0  0  0  0  0  0  0  0  0  0  0
   46.6511   10.9114   12.7107 H   0  0  0  0  0  0  0  0  0  0  0  0
   46.7259   11.3719   10.2518 H   0  0  0  0  0  0  0  0  0  0  0  0
   48.9405    8.5106   12.7768 H   0  0  0  0  0  0  0  0  0  0  0  0
   48.6460   10.2607   16.7035 H   0  0  0  0  0  0  0  0  0  0  0  0
   48.6794    8.0313   17.7058 H   0  0  0  0  0  0  0  0  0  0  0  0
   48.9575    6.2930   13.7592 H   0  0  0  0  0  0  0  0  0  0  0  0
   48.8145    4.9271   15.5949 H   0  0  0  0  0  0  0  0  0  0  0  0
   46.7271    3.6846   16.9420 H   0  0  0  0  0  0  0  0  0  0  0  0
   47.5970    2.0970   16.8801 H   0  0  0  0  0  0  0  0  0  0  0  0
   48.1275    2.2897   19.3158 H   0  0  0  0  0  0  0  0  0  0  0  0
   47.2731    3.8908   19.3714 H   0  0  0  0  0  0  0  0  0  0  0  0
   50.9080    4.1922   19.0382 H   0  0  0  0  0  0  0  0  0  0  0  0
   54.6908    0.7736   17.0467 H   0  0  0  0  0  0  0  0  0  0  0  0
   52.3423    1.4812   16.8441 H   0  0  0  0  0  0  0  0  0  0  0  0
   52.9779    4.3361   20.0403 H   0  0  0  0  0  0  0  0  0  0  0  0
   55.3304    3.5911   20.1977 H   0  0  0  0  0  0  0  0  0  0  0  0
   52.8956   13.3215    8.4583 H   0  0  0  0  0  0  0  0  0  0  0  0
   54.5146   12.6275    8.3929 H   0  0  0  0  0  0  0  0  0  0  0  0
   53.1282   11.5396    8.2287 H   0  0  0  0  0  0  0  0  0  0  0  0
   53.2680   12.3100   14.7050 H   0  0  0  0  0  0  0  0  0  0  0  0
   53.4356   10.5519   14.3635 H   0  0  0  0  0  0  0  0  0  0  0  0
   54.8461   11.6023   14.3798 H   0  0  0  0  0  0  0  0  0  0  0  0
  1  2  2  0
  1  6  1  0
  1 10  1  0
  2  3  1  0
  3  4  2  0
  4  5  1  0
  5  6  2  0
  6  7  1  0
  7  8  2  0
  8  9  1  0
  9 10  2  0
  3 11  1  0
  4 12  1  0
  7 13  1  0
 13 14  1  0
 15 14  2  0
 14 16  1  0
 15 19  1  0
 16 17  2  0
 17 18  1  0
 18 19  2  0
 18 20  1  0
 20 21  1  0
 21 22  2  0
 21 23  1  0
 23 24  1  0
 24 25  1  0
 25 23  1  0
 23 26  1  0
 26 27  1  0
 26 28  2  0
 27 29  1  0
 31 29  1  0
 29 32  2  0
 30 31  2  0
 30 34  1  0
 32 33  1  0
 33 34  2  0
 34 35  1  0
 11 36  1  0
 12 37  1  0
  2 38  1  0
  5 39  1  0
  8 40  1  0
  9 41  1  0
 15 42  1  0
 16 43  1  0
 17 44  1  0
 19 45  1  0
 20 46  1  0
 24 47  1  0
 24 48  1  0
 25 49  1  0
 25 50  1  0
 27 51  1  0
 30 52  1  0
 31 53  1  0
 32 54  1  0
 33 55  1  0
 36 56  1  0
 36 57  1  0
 36 58  1  0
 37 59  1  0
 37 60  1  0
 37 61  1  0
M  END
> <Uni-Dock RESULT> 
ENERGY=   -4.015  LOWER_BOUND=    6.033  UPPER_BOUND=    7.897
INTER + INTRA:          -4.015
INTER:                  -4.015
INTRA:                   0.000
UNBOUND:                 0.000

$$$$

     RDKit          3D

 61 65  0  0  0  0  0  0  0  0999 V2000
   41.4031   17.4457   15.4320 C   0  0  0  0  0  0  0  0  0  0  0  0
   40.4728   17.0506   16.3822 C   0  0  0  0  0  0  0  0  0  0  0  0
   39.7884   15.8340   16.2882 C   0  0  0  0  0  0  0  0  0  0  0  0
   40.0459   14.9805   15.2022 C   0  0  0  0  0  0  0  0  0  0  0  0
   40.9829   15.3611   14.2429 C   0  0  0  0  0  0  0  0  0  0  0  0
   41.6693   16.5906   14.3484 C   0  0  0  0  0  0  0  0  0  0  0  0
   42.6283   17.0302   13.4164 C   0  0  0  0  0  0  0  0  0  0  0  0
   43.2380   18.2708   13.5454 C   0  0  0  0  0  0  0  0  0  0  0  0
   42.9004   19.0270   14.6452 C   0  0  0  0  0  0  0  0  0  0  0  0
   42.0115   18.6341   15.5814 N   0  0  0  0  0  0  0  0  0  0  0  0
   38.8527   15.3959   17.1975 O   0  0  0  0  0  0  0  0  0  0  0  0
   39.3408   13.8069   15.1696 O   0  0  0  0  0  0  0  0  0  0  0  0
   42.9355   16.2654   12.3169 O   0  0  0  0  0  0  0  0  0  0  0  0
   44.0517   15.4583   12.3823 C   0  0  0  0  0  0  0  0  0  0  0  0
   44.8804   15.2962   13.4922 C   0  0  0  0  0  0  0  0  0  0  0  0
   44.3325   14.7427   11.2158 C   0  0  0  0  0  0  0  0  0  0  0  0
   45.4283   13.8748   11.1556 C   0  0  0  0  0  0  0  0  0  0  0  0
   46.2594   13.7143   12.2642 C   0  0  0  0  0  0  0  0  0  0  0  0
   45.9808   14.4368   13.4282 C   0  0  0  0  0  0  0  0  0  0  0  0
   47.3925   12.8782   12.2838 N   0  0  0  0  0  0  0  0  0  0  0  0
   47.7955   11.9929   11.3104 C   0  0  0  0  0  0  0  0  0  0  0  0
   47.2128   11.6958   10.2772 O   0  0  0  0  0  0  0  0  0  0  0  0
   49.0851   11.3008   11.6375 C   0  0  0  0  0  0  0  0  0  0  0  0
   50.3344   12.1729   11.7455 C   0  0  0  0  0  0  0  0  0  0  0  0
   50.1742   11.2682   10.5738 C   0  0  0  0  0  0  0  0  0  0  0  0
   48.9771   10.1097   12.5467 C   0  0  0  0  0  0  0  0  0  0  0  0
   48.1338    9.1271   12.0790 N   0  0  0  0  0  0  0  0  0  0  0  0
   49.6005   10.1139   13.5993 O   0  0  0  0  0  0  0  0  0  0  0  0
   47.8007    7.9054   12.7067 C   0  0  0  0  0  0  0  0  0  0  0  0
   47.9097    6.2851   14.5126 C   0  0  0  0  0  0  0  0  0  0  0  0
   48.2986    7.5067   13.9508 C   0  0  0  0  0  0  0  0  0  0  0  0
   46.9089    7.0584   12.0326 C   0  0  0  0  0  0  0  0  0  0  0  0
   46.5222    5.8410   12.5969 C   0  0  0  0  0  0  0  0  0  0  0  0
   47.0260    5.4647   13.8346 C   0  0  0  0  0  0  0  0  0  0  0  0
   46.6570    4.2916   14.3747 F   0  0  0  0  0  0  0  0  0  0  0  0
   38.6162   16.2072   18.3492 C   0  0  0  0  0  0  0  0  0  0  0  0
   39.6020   12.9056   14.1045 C   0  0  0  0  0  0  0  0  0  0  0  0
   40.2928   17.7352   17.2028 H   0  0  0  0  0  0  0  0  0  0  0  0
   41.1930   14.7226   13.3916 H   0  0  0  0  0  0  0  0  0  0  0  0
   43.9539   18.6288   12.8142 H   0  0  0  0  0  0  0  0  0  0  0  0
   43.3440   20.0041   14.8144 H   0  0  0  0  0  0  0  0  0  0  0  0
   44.6972   15.8230   14.4217 H   0  0  0  0  0  0  0  0  0  0  0  0
   43.6997   14.8658   10.3403 H   0  0  0  0  0  0  0  0  0  0  0  0
   45.6116   13.3469   10.2234 H   0  0  0  0  0  0  0  0  0  0  0  0
   46.6067   14.3315   14.3118 H   0  0  0  0  0  0  0  0  0  0  0  0
   47.9602   12.9135   13.1228 H   0  0  0  0  0  0  0  0  0  0  0  0
   50.2432   13.2397   11.5746 H   0  0  0  0  0  0  0  0  0  0  0  0
   51.0809   11.9156   12.4835 H   0  0  0  0  0  0  0  0  0  0  0  0
   50.8128   10.3933   10.5182 H   0  0  0  0  0  0  0  0  0  0  0  0
   49.9549   11.7150    9.6161 H   0  0  0  0  0  0  0  0  0  0  0  0
   47.6804    9.3135   11.1889 H   0  0  0  0  0  0  0  0  0  0  0  0
   48.2939    5.9687   15.4783 H   0  0  0  0  0  0  0  0  0  0  0  0
   48.9813    8.1312   14.5251 H   0  0  0  0  0  0  0  0  0  0  0  0
   46.4983    7.3395   11.0643 H   0  0  0  0  0  0  0  0  0  0  0  0
   45.8364    5.1799   12.0702 H   0  0  0  0  0  0  0  0  0  0  0  0
   38.1945   17.1812   18.0696 H   0  0  0  0  0  0  0  0  0  0  0  0
   37.8766   15.7006   18.9718 H   0  0  0  0  0  0  0  0  0  0  0  0
   39.5315   16.3278   18.9448 H   0  0  0  0  0  0  0  0  0  0  0  0
   39.3028   13.3401   13.1502 H   0  0  0  0  0  0  0  0  0  0  0  0
   40.6473   12.6013   14.0895 H   0  0  0  0  0  0  0  0  0  0  0  0
   38.9992   12.0134   14.2658 H   0  0  0  0  0  0  0  0  0  0  0  0
  1  2  2  0
  1  6  1  0
  1 10  1  0
  2  3  1  0
  3  4  2  0
  4  5  1  0
  5  6  2  0
  6  7  1  0
  7  8  2  0
  8  9  1  0
  9 10  2  0
  3 11  1  0
  4 12  1  0
  7 13  1  0
 13 14  1  0
 15 14  2  0
 14 16  1  0
 15 19  1  0
 16 17  2  0
 17 18  1  0
 18 19  2  0
 18 20  1  0
 20 21  1  0
 21 22  2  0
 21 23  1  0
 23 24  1  0
 24 25  1  0
 25 23  1  0
 23 26  1  0
 26 27  1  0
 26 28  2  0
 27 29  1  0
 31 29  1  0
 29 32  2  0
 30 31  2  0
 30 34  1  0
 32 33  1  0
 33 34  2  0
 34 35  1  0
 11 36  1  0
 12 37  1  0
  2 38  1  0
  5 39  1  0
  8 40  1  0
  9 41  1  0
 15 42  1  0
 16 43  1  0
 17 44  1  0
 19 45  1  0
 20 46  1  0
 24 47  1  0
 24 48  1  0
 25 49  1  0
 25 50  1  0
 27 51  1  0
 30 52  1  0
 31 53  1  0
 32 54  1  0
 33 55  1  0
 36 56  1  0
 36 57  1  0
 36 58  1  0
 37 59  1  0
 37 60  1  0
 37 61  1  0
M  END
> <Uni-Dock RESULT> 
ENERGY=   -4.008  LOWER_BOUND=    7.484  UPPER_BOUND=   10.504
INTER + INTRA:          -4.008
INTER:                  -4.008
INTRA:                   0.000
UNBOUND:                 0.000

$$$$

     RDKit          3D

 61 65  0  0  0  0  0  0  0  0999 V2000
   44.1808    8.8443   11.2598 C   0  0  0  0  0  0  0  0  0  0  0  0
   43.5153    9.8139   10.5240 C   0  0  0  0  0  0  0  0  0  0  0  0
   43.8629   11.1672   10.5957 C   0  0  0  0  0  0  0  0  0  0  0  0
   44.9171   11.5645   11.4353 C   0  0  0  0  0  0  0  0  0  0  0  0
   45.5994   10.6007   12.1760 C   0  0  0  0  0  0  0  0  0  0  0  0
   45.2415    9.2371   12.0948 C   0  0  0  0  0  0  0  0  0  0  0  0
   45.8925    8.2163   12.8130 C   0  0  0  0  0  0  0  0  0  0  0  0
   45.4671    6.8974   12.7303 C   0  0  0  0  0  0  0  0  0  0  0  0
   44.4168    6.6266   11.8824 C   0  0  0  0  0  0  0  0  0  0  0  0
   43.7828    7.5660   11.1498 N   0  0  0  0  0  0  0  0  0  0  0  0
   43.2337   12.1699    9.8936 O   0  0  0  0  0  0  0  0  0  0  0  0
   45.2041   12.9033   11.4604 O   0  0  0  0  0  0  0  0  0  0  0  0
   46.9272    8.5140   13.6670 O   0  0  0  0  0  0  0  0  0  0  0  0
   48.2154    8.3645   13.1983 C   0  0  0  0  0  0  0  0  0  0  0  0
   48.5773    7.9897   11.9047 C   0  0  0  0  0  0  0  0  0  0  0  0
   49.2189    8.6398   14.1305 C   0  0  0  0  0  0  0  0  0  0  0  0
   50.5692    8.5420   13.7776 C   0  0  0  0  0  0  0  0  0  0  0  0
   50.9321    8.1644   12.4848 C   0  0  0  0  0  0  0  0  0  0  0  0
   49.9264    7.8824   11.5555 C   0  0  0  0  0  0  0  0  0  0  0  0
   52.2644    8.0224   12.0512 N   0  0  0  0  0  0  0  0  0  0  0  0
   53.4082    8.3518   12.7419 C   0  0  0  0  0  0  0  0  0  0  0  0
   53.4966    8.9050   13.8288 O   0  0  0  0  0  0  0  0  0  0  0  0
   54.6661    8.0155   11.9976 C   0  0  0  0  0  0  0  0  0  0  0  0
   54.9342    6.5383   11.7170 C   0  0  0  0  0  0  0  0  0  0  0  0
   55.7556    7.2491   12.7353 C   0  0  0  0  0  0  0  0  0  0  0  0
   55.1076    9.0188   10.9703 C   0  0  0  0  0  0  0  0  0  0  0  0
   55.2994   10.2852   11.4755 N   0  0  0  0  0  0  0  0  0  0  0  0
   55.2340    8.6558    9.8089 O   0  0  0  0  0  0  0  0  0  0  0  0
   55.6857   11.4465   10.7688 C   0  0  0  0  0  0  0  0  0  0  0  0
   56.2996   12.6713    8.7634 C   0  0  0  0  0  0  0  0  0  0  0  0
   55.9330   11.4762    9.3931 C   0  0  0  0  0  0  0  0  0  0  0  0
   55.8147   12.6337   11.5044 C   0  0  0  0  0  0  0  0  0  0  0  0
   56.1792   13.8243   10.8725 C   0  0  0  0  0  0  0  0  0  0  0  0
   56.4179   13.8332    9.5049 C   0  0  0  0  0  0  0  0  0  0  0  0
   56.7728   14.9779    8.8985 F   0  0  0  0  0  0  0  0  0  0  0  0
   42.2028   11.7934    8.9793 C   0  0  0  0  0  0  0  0  0  0  0  0
   46.2862   13.3346   12.2717 C   0  0  0  0  0  0  0  0  0  0  0  0
   42.7030    9.4746    9.8920 H   0  0  0  0  0  0  0  0  0  0  0  0
   46.4114   10.8839   12.8369 H   0  0  0  0  0  0  0  0  0  0  0  0
   45.9438    6.1114   13.3050 H   0  0  0  0  0  0  0  0  0  0  0  0
   44.0365    5.6162   11.7619 H   0  0  0  0  0  0  0  0  0  0  0  0
   47.8345    7.7753   11.1449 H   0  0  0  0  0  0  0  0  0  0  0  0
   48.9511    8.9249   15.1450 H   0  0  0  0  0  0  0  0  0  0  0  0
   51.3136    8.7570   14.5397 H   0  0  0  0  0  0  0  0  0  0  0  0
   50.1754    7.5892   10.5378 H   0  0  0  0  0  0  0  0  0  0  0  0
   52.3936    7.6619   11.1127 H   0  0  0  0  0  0  0  0  0  0  0  0
   54.2210    5.8017   12.0696 H   0  0  0  0  0  0  0  0  0  0  0  0
   55.4092    6.2683   10.7844 H   0  0  0  0  0  0  0  0  0  0  0  0
   56.7904    7.4637   12.4917 H   0  0  0  0  0  0  0  0  0  0  0  0
   55.5878    7.0128   13.7750 H   0  0  0  0  0  0  0  0  0  0  0  0
   55.1195   10.4022   12.4687 H   0  0  0  0  0  0  0  0  0  0  0  0
   56.4945   12.7010    7.6950 H   0  0  0  0  0  0  0  0  0  0  0  0
   55.8330   10.5884    8.7705 H   0  0  0  0  0  0  0  0  0  0  0  0
   55.6252   12.6477   12.5765 H   0  0  0  0  0  0  0  0  0  0  0  0
   56.2872   14.7440   11.4446 H   0  0  0  0  0  0  0  0  0  0  0  0
   41.3514   11.3412    9.5042 H   0  0  0  0  0  0  0  0  0  0  0  0
   41.8384   12.6990    8.4910 H   0  0  0  0  0  0  0  0  0  0  0  0
   42.5890   11.1229    8.1994 H   0  0  0  0  0  0  0  0  0  0  0  0
   46.0697   13.1613   13.3262 H   0  0  0  0  0  0  0  0  0  0  0  0
   47.2188   12.8567   11.9762 H   0  0  0  0  0  0  0  0  0  0  0  0
   46.4039   14.4076   12.1297 H   0  0  0  0  0  0  0  0  0  0  0  0
  1  2  2  0
  1  6  1  0
  1 10  1  0
  2  3  1  0
  3  4  2  0
  4  5  1  0
  5  6  2  0
  6  7  1  0
  7  8  2  0
  8  9  1  0
  9 10  2  0
  3 11  1  0
  4 12  1  0
  7 13  1  0
 13 14  1  0
 15 14  2  0
 14 16  1  0
 15 19  1  0
 16 17  2  0
 17 18  1  0
 18 19  2  0
 18 20  1  0
 20 21  1  0
 21 22  2  0
 21 23  1  0
 23 24  1  0
 24 25  1  0
 25 23  1  0
 23 26  1  0
 26 27  1  0
 26 28  2  0
 27 29  1  0
 31 29  1  0
 29 32  2  0
 30 31  2  0
 30 34  1  0
 32 33  1  0
 33 34  2  0
 34 35  1  0
 11 36  1  0
 12 37  1  0
  2 38  1  0
  5 39  1  0
  8 40  1  0
  9 41  1  0
 15 42  1  0
 16 43  1  0
 17 44  1  0
 19 45  1  0
 20 46  1  0
 24 47  1  0
 24 48  1  0
 25 49  1  0
 25 50  1  0
 27 51  1  0
 30 52  1  0
 31 53  1  0
 32 54  1  0
 33 55  1  0
 36 56  1  0
 36 57  1  0
 36 58  1  0
 37 59  1  0
 37 60  1  0
 37 61  1  0
M  END
> <Uni-Dock RESULT> 
ENERGY=   -3.977  LOWER_BOUND=    4.882  UPPER_BOUND=    9.903
INTER + INTRA:          -3.977
INTER:                  -3.977
INTRA:                   0.000
UNBOUND:                 0.000

$$$$
