
     RDKit          3D

 61 65  0  0  0  0  0  0  0  0999 V2000
   53.1088    9.0292   17.0059 C   0  0  0  0  0  0  0  0  0  0  0  0
   53.7216    9.4925   18.1617 C   0  0  0  0  0  0  0  0  0  0  0  0
   53.1729   10.5297   18.9289 C   0  0  0  0  0  0  0  0  0  0  0  0
   51.9616   11.1187   18.5304 C   0  0  0  0  0  0  0  0  0  0  0  0
   51.3328   10.6597   17.3699 C   0  0  0  0  0  0  0  0  0  0  0  0
   51.8976    9.6181   16.5978 C   0  0  0  0  0  0  0  0  0  0  0  0
   51.3101    9.1187   15.4162 C   0  0  0  0  0  0  0  0  0  0  0  0
   51.9365    8.1142   14.6836 C   0  0  0  0  0  0  0  0  0  0  0  0
   53.1164    7.6050   15.1797 C   0  0  0  0  0  0  0  0  0  0  0  0
   53.7006    8.0364   16.3170 N   0  0  0  0  0  0  0  0  0  0  0  0
   53.7397   11.0307   20.0758 O   0  0  0  0  0  0  0  0  0  0  0  0
   51.4861   12.1313   19.3274 O   0  0  0  0  0  0  0  0  0  0  0  0
   50.1444    9.7090   14.9644 O   0  0  0  0  0  0  0  0  0  0  0  0
   49.1400    8.8769   14.5269 C   0  0  0  0  0  0  0  0  0  0  0  0
   48.6963    7.7768   15.2592 C   0  0  0  0  0  0  0  0  0  0  0  0
   48.5171    9.2121   13.3276 C   0  0  0  0  0  0  0  0  0  0  0  0
   47.4794    8.4176   12.8288 C   0  0  0  0  0  0  0  0  0  0  0  0
   47.0489    7.2908   13.5352 C   0  0  0  0  0  0  0  0  0  0  0  0
   47.6577    6.9846   14.7590 C   0  0  0  0  0  0  0  0  0  0  0  0
   46.0291    6.4278   13.0890 N   0  0  0  0  0  0  0  0  0  0  0  0
   45.3561    6.4812   11.8874 C   0  0  0  0  0  0  0  0  0  0  0  0
   45.4971    7.2828   10.9753 O   0  0  0  0  0  0  0  0  0  0  0  0
   44.3730    5.3655   11.6981 C   0  0  0  0  0  0  0  0  0  0  0  0
   42.9208    5.7513   11.4047 C   0  0  0  0  0  0  0  0  0  0  0  0
   43.2701    5.1760   12.7399 C   0  0  0  0  0  0  0  0  0  0  0  0
   44.9005    4.1646   10.9685 C   0  0  0  0  0  0  0  0  0  0  0  0
   45.2286    4.4400    9.6572 N   0  0  0  0  0  0  0  0  0  0  0  0
   45.0054    3.1042   11.5646 O   0  0  0  0  0  0  0  0  0  0  0  0
   45.7289    3.5491    8.6896 C   0  0  0  0  0  0  0  0  0  0  0  0
   46.5910    3.2797    6.4307 C   0  0  0  0  0  0  0  0  0  0  0  0
   46.0912    4.0966    7.4489 C   0  0  0  0  0  0  0  0  0  0  0  0
   45.8706    2.1730    8.8940 C   0  0  0  0  0  0  0  0  0  0  0  0
   46.3659    1.3550    7.8711 C   0  0  0  0  0  0  0  0  0  0  0  0
   46.7231    1.9152    6.6509 C   0  0  0  0  0  0  0  0  0  0  0  0
   47.1918    1.1298    5.6710 F   0  0  0  0  0  0  0  0  0  0  0  0
   55.0047   10.5145   20.4681 C   0  0  0  0  0  0  0  0  0  0  0  0
   50.2340   12.7097   18.9848 C   0  0  0  0  0  0  0  0  0  0  0  0
   54.6547    9.0137   18.4435 H   0  0  0  0  0  0  0  0  0  0  0  0
   50.3997   11.1006   17.0336 H   0  0  0  0  0  0  0  0  0  0  0  0
   51.5277    7.7409   13.7515 H   0  0  0  0  0  0  0  0  0  0  0  0
   53.6481    6.8142   14.6582 H   0  0  0  0  0  0  0  0  0  0  0  0
   49.1508    7.5263   16.2142 H   0  0  0  0  0  0  0  0  0  0  0  0
   48.8421   10.0871   12.7709 H   0  0  0  0  0  0  0  0  0  0  0  0
   47.0273    8.7121   11.8872 H   0  0  0  0  0  0  0  0  0  0  0  0
   47.3384    6.1230   15.3405 H   0  0  0  0  0  0  0  0  0  0  0  0
   45.8015    5.6456   13.6949 H   0  0  0  0  0  0  0  0  0  0  0  0
   42.6736    6.8049   11.3478 H   0  0  0  0  0  0  0  0  0  0  0  0
   42.3494    5.1306   10.7214 H   0  0  0  0  0  0  0  0  0  0  0  0
   42.9414    4.1648   12.9595 H   0  0  0  0  0  0  0  0  0  0  0  0
   43.2271    5.8446   13.5928 H   0  0  0  0  0  0  0  0  0  0  0  0
   45.1452    5.4146    9.3737 H   0  0  0  0  0  0  0  0  0  0  0  0
   46.8723    3.7016    5.4697 H   0  0  0  0  0  0  0  0  0  0  0  0
   45.9939    5.1649    7.2602 H   0  0  0  0  0  0  0  0  0  0  0  0
   45.5949    1.7022    9.8331 H   0  0  0  0  0  0  0  0  0  0  0  0
   46.4723    0.2846    8.0227 H   0  0  0  0  0  0  0  0  0  0  0  0
   54.9341    9.4513   20.7234 H   0  0  0  0  0  0  0  0  0  0  0  0
   55.3215   11.0524   21.3696 H   0  0  0  0  0  0  0  0  0  0  0  0
   55.7611   10.6897   19.6946 H   0  0  0  0  0  0  0  0  0  0  0  0
   49.4308   11.9635   19.0234 H   0  0  0  0  0  0  0  0  0  0  0  0
   50.2776   13.1975   18.0032 H   0  0  0  0  0  0  0  0  0  0  0  0
   50.0085   13.4818   19.7281 H   0  0  0  0  0  0  0  0  0  0  0  0
  1  2  2  0
  1  6  1  0
  1 10  1  0
  2  3  1  0
  3  4  2  0
  4  5  1  0
  5  6  2  0
  6  7  1  0
  7  8  2  0
  8  9  1  0
  9 10  2  0
  3 11  1  0
  4 12  1  0
  7 13  1  0
 13 14  1  0
 15 14  2  0
 14 16  1  0
 15 19  1  0
 16 17  2  0
 17 18  1  0
 18 19  2  0
 18 20  1  0
 20 21  1  0
 21 22  2  0
 21 23  1  0
 23 24  1  0
 24 25  1  0
 25 23  1  0
 23 26  1  0
 26 27  1  0
 26 28  2  0
 27 29  1  0
 31 29  1  0
 29 32  2  0
 30 31  2  0
 30 34  1  0
 32 33  1  0
 33 34  2  0
 34 35  1  0
 11 36  1  0
 12 37  1  0
  2 38  1  0
  5 39  1  0
  8 40  1  0
  9 41  1  0
 15 42  1  0
 16 43  1  0
 17 44  1  0
 19 45  1  0
 20 46  1  0
 24 47  1  0
 24 48  1  0
 25 49  1  0
 25 50  1  0
 27 51  1  0
 30 52  1  0
 31 53  1  0
 32 54  1  0
 33 55  1  0
 36 56  1  0
 36 57  1  0
 36 58  1  0
 37 59  1  0
 37 60  1  0
 37 61  1  0
M  END
> <Uni-Dock RESULT> 
ENERGY=   -4.912  LOWER_BOUND=    0.000  UPPER_BOUND=    0.000
INTER + INTRA:          -4.912
INTER:                  -4.912
INTRA:                   0.000
UNBOUND:                 0.000

$$$$

     RDKit          3D

 61 65  0  0  0  0  0  0  0  0999 V2000
   45.2523    8.4621   12.0582 C   0  0  0  0  0  0  0  0  0  0  0  0
   44.1028    9.0696   11.5729 C   0  0  0  0  0  0  0  0  0  0  0  0
   44.0183   10.4563   11.3844 C   0  0  0  0  0  0  0  0  0  0  0  0
   45.1280   11.2639   11.6832 C   0  0  0  0  0  0  0  0  0  0  0  0
   46.2927   10.6644   12.1701 C   0  0  0  0  0  0  0  0  0  0  0  0
   46.3662    9.2655   12.3646 C   0  0  0  0  0  0  0  0  0  0  0  0
   47.5129    8.6075   12.8574 C   0  0  0  0  0  0  0  0  0  0  0  0
   47.5075    7.2299   13.0584 C   0  0  0  0  0  0  0  0  0  0  0  0
   46.3646    6.5407   12.7176 C   0  0  0  0  0  0  0  0  0  0  0  0
   45.2548    7.1264   12.2214 N   0  0  0  0  0  0  0  0  0  0  0  0
   42.9049   11.1096   10.9140 O   0  0  0  0  0  0  0  0  0  0  0  0
   44.9717   12.6130   11.4782 O   0  0  0  0  0  0  0  0  0  0  0  0
   48.6068    9.3751   13.2117 O   0  0  0  0  0  0  0  0  0  0  0  0
   49.8481    8.9303   12.8193 C   0  0  0  0  0  0  0  0  0  0  0  0
   50.1298    8.5279   11.5147 C   0  0  0  0  0  0  0  0  0  0  0  0
   50.8611    8.9555   13.7743 C   0  0  0  0  0  0  0  0  0  0  0  0
   52.1512    8.5291   13.4414 C   0  0  0  0  0  0  0  0  0  0  0  0
   52.4386    8.0889   12.1462 C   0  0  0  0  0  0  0  0  0  0  0  0
   51.4208    8.1032   11.1839 C   0  0  0  0  0  0  0  0  0  0  0  0
   53.7035    7.6217   11.7393 N   0  0  0  0  0  0  0  0  0  0  0  0
   54.8193    7.4382   12.5274 C   0  0  0  0  0  0  0  0  0  0  0  0
   54.9432    7.6477   13.7254 O   0  0  0  0  0  0  0  0  0  0  0  0
   55.9886    6.8589   11.7897 C   0  0  0  0  0  0  0  0  0  0  0  0
   57.3019    7.6447   11.8270 C   0  0  0  0  0  0  0  0  0  0  0  0
   56.5146    7.5942   10.5568 C   0  0  0  0  0  0  0  0  0  0  0  0
   56.1082    5.3641   11.8528 C   0  0  0  0  0  0  0  0  0  0  0  0
   56.3587    4.9034   13.1288 N   0  0  0  0  0  0  0  0  0  0  0  0
   55.9670    4.7115   10.8305 O   0  0  0  0  0  0  0  0  0  0  0  0
   56.5454    3.5712   13.5420 C   0  0  0  0  0  0  0  0  0  0  0  0
   56.8728    2.0533   15.4148 C   0  0  0  0  0  0  0  0  0  0  0  0
   56.6781    3.3466   14.9212 C   0  0  0  0  0  0  0  0  0  0  0  0
   56.6143    2.4839   12.6654 C   0  0  0  0  0  0  0  0  0  0  0  0
   56.8153    1.1898   13.1607 C   0  0  0  0  0  0  0  0  0  0  0  0
   56.9405    0.9860   14.5294 C   0  0  0  0  0  0  0  0  0  0  0  0
   57.1384   -0.2529   15.0013 F   0  0  0  0  0  0  0  0  0  0  0  0
   41.7365   10.3363   10.6749 C   0  0  0  0  0  0  0  0  0  0  0  0
   46.0938   13.4522   11.7158 C   0  0  0  0  0  0  0  0  0  0  0  0
   43.2645    8.4167   11.3487 H   0  0  0  0  0  0  0  0  0  0  0  0
   47.1634   11.2639   12.4165 H   0  0  0  0  0  0  0  0  0  0  0  0
   48.3604    6.7051   13.4738 H   0  0  0  0  0  0  0  0  0  0  0  0
   46.3018    5.4635   12.8430 H   0  0  0  0  0  0  0  0  0  0  0  0
   49.3557    8.5382   10.7516 H   0  0  0  0  0  0  0  0  0  0  0  0
   50.6497    9.2977   14.7838 H   0  0  0  0  0  0  0  0  0  0  0  0
   52.9079    8.5591   14.2186 H   0  0  0  0  0  0  0  0  0  0  0  0
   51.6133    7.7798   10.1638 H   0  0  0  0  0  0  0  0  0  0  0  0
   53.7890    7.3352   10.7691 H   0  0  0  0  0  0  0  0  0  0  0  0
   57.3245    8.5759   12.3810 H   0  0  0  0  0  0  0  0  0  0  0  0
   58.2346    7.0905   11.8651 H   0  0  0  0  0  0  0  0  0  0  0  0
   56.9096    7.0020    9.7370 H   0  0  0  0  0  0  0  0  0  0  0  0
   56.0287    8.5106   10.2397 H   0  0  0  0  0  0  0  0  0  0  0  0
   56.3577    5.6084   13.8637 H   0  0  0  0  0  0  0  0  0  0  0  0
   56.9753    1.8773   16.4821 H   0  0  0  0  0  0  0  0  0  0  0  0
   56.6271    4.1728   15.6291 H   0  0  0  0  0  0  0  0  0  0  0  0
   56.5268    2.6090   11.5900 H   0  0  0  0  0  0  0  0  0  0  0  0
   56.8756    0.3424   12.4836 H   0  0  0  0  0  0  0  0  0  0  0  0
   41.9021    9.6109    9.8706 H   0  0  0  0  0  0  0  0  0  0  0  0
   40.9432   11.0194   10.3483 H   0  0  0  0  0  0  0  0  0  0  0  0
   41.3930    9.8438   11.5918 H   0  0  0  0  0  0  0  0  0  0  0  0
   46.9277   13.1937   11.0516 H   0  0  0  0  0  0  0  0  0  0  0  0
   46.3985   13.4185   12.7691 H   0  0  0  0  0  0  0  0  0  0  0  0
   45.7944   14.4814   11.4909 H   0  0  0  0  0  0  0  0  0  0  0  0
  1  2  2  0
  1  6  1  0
  1 10  1  0
  2  3  1  0
  3  4  2  0
  4  5  1  0
  5  6  2  0
  6  7  1  0
  7  8  2  0
  8  9  1  0
  9 10  2  0
  3 11  1  0
  4 12  1  0
  7 13  1  0
 13 14  1  0
 15 14  2  0
 14 16  1  0
 15 19  1  0
 16 17  2  0
 17 18  1  0
 18 19  2  0
 18 20  1  0
 20 21  1  0
 21 22  2  0
 21 23  1  0
 23 24  1  0
 24 25  1  0
 25 23  1  0
 23 26  1  0
 26 27  1  0
 26 28  2  0
 27 29  1  0
 31 29  1  0
 29 32  2  0
 30 31  2  0
 30 34  1  0
 32 33  1  0
 33 34  2  0
 34 35  1  0
 11 36  1  0
 12 37  1  0
  2 38  1  0
  5 39  1  0
  8 40  1  0
  9 41  1  0
 15 42  1  0
 16 43  1  0
 17 44  1  0
 19 45  1  0
 20 46  1  0
 24 47  1  0
 24 48  1  0
 25 49  1  0
 25 50  1  0
 27 51  1  0
 30 52  1  0
 31 53  1  0
 32 54  1  0
 33 55  1  0
 36 56  1  0
 36 57  1  0
 36 58  1  0
 37 59  1  0
 37 60  1  0
 37 61  1  0
M  END
> <Uni-Dock RESULT> 
ENERGY=   -4.545  LOWER_BOUND=    5.098  UPPER_BOUND=   10.128
INTER + INTRA:          -4.545
INTER:                  -4.545
INTRA:                   0.000
UNBOUND:                 0.000

$$$$

     RDKit          3D

 61 65  0  0  0  0  0  0  0  0999 V2000
   51.9486    9.7837   14.2417 C   0  0  0  0  0  0  0  0  0  0  0  0
   53.3029    9.6050   13.9972 C   0  0  0  0  0  0  0  0  0  0  0  0
   53.7687    8.8613   12.9038 C   0  0  0  0  0  0  0  0  0  0  0  0
   52.8456    8.2832   12.0168 C   0  0  0  0  0  0  0  0  0  0  0  0
   51.4788    8.4578   12.2500 C   0  0  0  0  0  0  0  0  0  0  0  0
   51.0180    9.2030   13.3601 C   0  0  0  0  0  0  0  0  0  0  0  0
   49.6517    9.4075   13.6472 C   0  0  0  0  0  0  0  0  0  0  0  0
   49.2648   10.1230   14.7770 C   0  0  0  0  0  0  0  0  0  0  0  0
   50.2605   10.6536   15.5672 C   0  0  0  0  0  0  0  0  0  0  0  0
   51.5778   10.5026   15.3170 N   0  0  0  0  0  0  0  0  0  0  0  0
   55.0956    8.6476   12.6187 O   0  0  0  0  0  0  0  0  0  0  0  0
   53.3735    7.5655   10.9714 O   0  0  0  0  0  0  0  0  0  0  0  0
   48.7136    8.8101   12.8260 O   0  0  0  0  0  0  0  0  0  0  0  0
   47.6319    9.5683   12.4419 C   0  0  0  0  0  0  0  0  0  0  0  0
   47.7566   10.8571   11.9255 C   0  0  0  0  0  0  0  0  0  0  0  0
   46.3773    8.9700   12.5254 C   0  0  0  0  0  0  0  0  0  0  0  0
   45.2342    9.6782   12.1398 C   0  0  0  0  0  0  0  0  0  0  0  0
   45.3415   10.9846   11.6542 C   0  0  0  0  0  0  0  0  0  0  0  0
   46.6123   11.5628   11.5395 C   0  0  0  0  0  0  0  0  0  0  0  0
   44.2385   11.7713   11.2693 N   0  0  0  0  0  0  0  0  0  0  0  0
   42.9033   11.4467   11.3761 C   0  0  0  0  0  0  0  0  0  0  0  0
   42.4062   10.4191   11.8136 O   0  0  0  0  0  0  0  0  0  0  0  0
   41.9803   12.5427   10.9354 C   0  0  0  0  0  0  0  0  0  0  0  0
   40.9630   12.2069    9.8417 C   0  0  0  0  0  0  0  0  0  0  0  0
   42.1220   13.0939    9.5164 C   0  0  0  0  0  0  0  0  0  0  0  0
   41.5032   13.4552   12.0274 C   0  0  0  0  0  0  0  0  0  0  0  0
   40.7083   12.8093   12.9516 N   0  0  0  0  0  0  0  0  0  0  0  0
   41.8496   14.6260   12.0190 O   0  0  0  0  0  0  0  0  0  0  0  0
   40.0816   13.3621   14.0839 C   0  0  0  0  0  0  0  0  0  0  0  0
   38.7563   12.9396   16.0798 C   0  0  0  0  0  0  0  0  0  0  0  0
   39.4104   12.4716   14.9365 C   0  0  0  0  0  0  0  0  0  0  0  0
   40.0848   14.7264   14.3904 C   0  0  0  0  0  0  0  0  0  0  0  0
   39.4242   15.1945   15.5328 C   0  0  0  0  0  0  0  0  0  0  0  0
   38.7684   14.2979   16.3673 C   0  0  0  0  0  0  0  0  0  0  0  0
   38.1319   14.7485   17.4575 F   0  0  0  0  0  0  0  0  0  0  0  0
   56.0581    9.1500   13.5362 C   0  0  0  0  0  0  0  0  0  0  0  0
   52.4687    7.0159   10.0232 C   0  0  0  0  0  0  0  0  0  0  0  0
   53.9897   10.0676   14.6998 H   0  0  0  0  0  0  0  0  0  0  0  0
   50.7424    8.0168   11.5858 H   0  0  0  0  0  0  0  0  0  0  0  0
   48.2227   10.2601   15.0429 H   0  0  0  0  0  0  0  0  0  0  0  0
   50.0221   11.2289   16.4574 H   0  0  0  0  0  0  0  0  0  0  0  0
   48.7341   11.3211   11.8220 H   0  0  0  0  0  0  0  0  0  0  0  0
   46.2820    7.9541   12.8994 H   0  0  0  0  0  0  0  0  0  0  0  0
   44.2765    9.1756   12.2281 H   0  0  0  0  0  0  0  0  0  0  0  0
   46.7328   12.5721   11.1535 H   0  0  0  0  0  0  0  0  0  0  0  0
   44.4462   12.7040   10.9261 H   0  0  0  0  0  0  0  0  0  0  0  0
   40.9578   11.2002    9.4406 H   0  0  0  0  0  0  0  0  0  0  0  0
   39.9787   12.6617    9.8946 H   0  0  0  0  0  0  0  0  0  0  0  0
   41.9249   14.1492    9.3549 H   0  0  0  0  0  0  0  0  0  0  0  0
   42.8879   12.6874    8.8648 H   0  0  0  0  0  0  0  0  0  0  0  0
   40.6065   11.8041   12.8245 H   0  0  0  0  0  0  0  0  0  0  0  0
   38.2366   12.2520   16.7413 H   0  0  0  0  0  0  0  0  0  0  0  0
   39.3916   11.4033   14.7253 H   0  0  0  0  0  0  0  0  0  0  0  0
   40.5821   15.4546   13.7563 H   0  0  0  0  0  0  0  0  0  0  0  0
   39.4186   16.2541   15.7723 H   0  0  0  0  0  0  0  0  0  0  0  0
   56.0317   10.2447   13.5744 H   0  0  0  0  0  0  0  0  0  0  0  0
   57.0508    8.8539   13.1766 H   0  0  0  0  0  0  0  0  0  0  0  0
   55.9222    8.7126   14.5319 H   0  0  0  0  0  0  0  0  0  0  0  0
   51.8964    7.8052    9.5203 H   0  0  0  0  0  0  0  0  0  0  0  0
   51.8045    6.2781   10.4899 H   0  0  0  0  0  0  0  0  0  0  0  0
   53.0590    6.4948    9.2619 H   0  0  0  0  0  0  0  0  0  0  0  0
  1  2  2  0
  1  6  1  0
  1 10  1  0
  2  3  1  0
  3  4  2  0
  4  5  1  0
  5  6  2  0
  6  7  1  0
  7  8  2  0
  8  9  1  0
  9 10  2  0
  3 11  1  0
  4 12  1  0
  7 13  1  0
 13 14  1  0
 15 14  2  0
 14 16  1  0
 15 19  1  0
 16 17  2  0
 17 18  1  0
 18 19  2  0
 18 20  1  0
 20 21  1  0
 21 22  2  0
 21 23  1  0
 23 24  1  0
 24 25  1  0
 25 23  1  0
 23 26  1  0
 26 27  1  0
 26 28  2  0
 27 29  1  0
 31 29  1  0
 29 32  2  0
 30 31  2  0
 30 34  1  0
 32 33  1  0
 33 34  2  0
 34 35  1  0
 11 36  1  0
 12 37  1  0
  2 38  1  0
  5 39  1  0
  8 40  1  0
  9 41  1  0
 15 42  1  0
 16 43  1  0
 17 44  1  0
 19 45  1  0
 20 46  1  0
 24 47  1  0
 24 48  1  0
 25 49  1  0
 25 50  1  0
 27 51  1  0
 30 52  1  0
 31 53  1  0
 32 54  1  0
 33 55  1  0
 36 56  1  0
 36 57  1  0
 36 58  1  0
 37 59  1  0
 37 60  1  0
 37 61  1  0
M  END
> <Uni-Dock RESULT> 
ENERGY=   -4.529  LOWER_BOUND=    6.587  UPPER_BOUND=    9.089
INTER + INTRA:          -4.529
INTER:                  -4.529
INTRA:                   0.000
UNBOUND:                 0.000

$$$$

     RDKit          3D

 61 65  0  0  0  0  0  0  0  0999 V2000
   41.3222   12.2273    9.7863 C   0  0  0  0  0  0  0  0  0  0  0  0
   40.1677   12.9827    9.9357 C   0  0  0  0  0  0  0  0  0  0  0  0
   39.5718   13.1893   11.1878 C   0  0  0  0  0  0  0  0  0  0  0  0
   40.1580   12.6274   12.3340 C   0  0  0  0  0  0  0  0  0  0  0  0
   41.3223   11.8667   12.1978 C   0  0  0  0  0  0  0  0  0  0  0  0
   41.9120   11.6570   10.9295 C   0  0  0  0  0  0  0  0  0  0  0  0
   43.0829   10.8948   10.7321 C   0  0  0  0  0  0  0  0  0  0  0  0
   43.5927   10.6984    9.4517 C   0  0  0  0  0  0  0  0  0  0  0  0
   42.9385   11.3095    8.4047 C   0  0  0  0  0  0  0  0  0  0  0  0
   41.8305   12.0656    8.5509 N   0  0  0  0  0  0  0  0  0  0  0  0
   38.4273   13.9215   11.3918 O   0  0  0  0  0  0  0  0  0  0  0  0
   39.5175   12.8676   13.5251 O   0  0  0  0  0  0  0  0  0  0  0  0
   43.6588   10.2830   11.8301 O   0  0  0  0  0  0  0  0  0  0  0  0
   45.0272   10.3558   11.9520 C   0  0  0  0  0  0  0  0  0  0  0  0
   45.7355   11.5495   11.8240 C   0  0  0  0  0  0  0  0  0  0  0  0
   45.6972    9.1802   12.2805 C   0  0  0  0  0  0  0  0  0  0  0  0
   47.0878    9.1833   12.4327 C   0  0  0  0  0  0  0  0  0  0  0  0
   47.8146   10.3664   12.2715 C   0  0  0  0  0  0  0  0  0  0  0  0
   47.1258   11.5503   11.9778 C   0  0  0  0  0  0  0  0  0  0  0  0
   49.2162   10.4473   12.3837 N   0  0  0  0  0  0  0  0  0  0  0  0
   50.0999    9.4076   12.5785 C   0  0  0  0  0  0  0  0  0  0  0  0
   49.8530    8.2166   12.7009 O   0  0  0  0  0  0  0  0  0  0  0  0
   51.5375    9.8325   12.5832 C   0  0  0  0  0  0  0  0  0  0  0  0
   52.3719    9.4736   13.8155 C   0  0  0  0  0  0  0  0  0  0  0  0
   51.9833   10.8989   13.5839 C   0  0  0  0  0  0  0  0  0  0  0  0
   52.2368    9.7385   11.2584 C   0  0  0  0  0  0  0  0  0  0  0  0
   52.3568    8.4391   10.8108 N   0  0  0  0  0  0  0  0  0  0  0  0
   52.6087   10.7626   10.7073 O   0  0  0  0  0  0  0  0  0  0  0  0
   52.9701    7.9897    9.6265 C   0  0  0  0  0  0  0  0  0  0  0  0
   53.4528    6.0908    8.1845 C   0  0  0  0  0  0  0  0  0  0  0  0
   52.8665    6.6200    9.3379 C   0  0  0  0  0  0  0  0  0  0  0  0
   53.6717    8.8198    8.7467 C   0  0  0  0  0  0  0  0  0  0  0  0
   54.2635    8.2874    7.5949 C   0  0  0  0  0  0  0  0  0  0  0  0
   54.1472    6.9297    7.3234 C   0  0  0  0  0  0  0  0  0  0  0  0
   54.7192    6.4208    6.2231 F   0  0  0  0  0  0  0  0  0  0  0  0
   37.7616   14.4401   10.2479 C   0  0  0  0  0  0  0  0  0  0  0  0
   40.1157   12.3621   14.7110 C   0  0  0  0  0  0  0  0  0  0  0  0
   39.7420   13.4057    9.0305 H   0  0  0  0  0  0  0  0  0  0  0  0
   41.7934   11.4142   13.0646 H   0  0  0  0  0  0  0  0  0  0  0  0
   44.4668   10.0841    9.2677 H   0  0  0  0  0  0  0  0  0  0  0  0
   43.2925   11.2011    7.3834 H   0  0  0  0  0  0  0  0  0  0  0  0
   45.2191   12.4801   11.6032 H   0  0  0  0  0  0  0  0  0  0  0  0
   45.1423    8.2549   12.4104 H   0  0  0  0  0  0  0  0  0  0  0  0
   47.5694    8.2433   12.6820 H   0  0  0  0  0  0  0  0  0  0  0  0
   47.6587   12.4906   11.8588 H   0  0  0  0  0  0  0  0  0  0  0  0
   49.6282   11.3657   12.2512 H   0  0  0  0  0  0  0  0  0  0  0  0
   51.8879    8.9333   14.6206 H   0  0  0  0  0  0  0  0  0  0  0  0
   53.4141    9.2052   13.6733 H   0  0  0  0  0  0  0  0  0  0  0  0
   52.7594   11.5944   13.2794 H   0  0  0  0  0  0  0  0  0  0  0  0
   51.2525   11.3281   14.2607 H   0  0  0  0  0  0  0  0  0  0  0  0
   51.9028    7.7288   11.3821 H   0  0  0  0  0  0  0  0  0  0  0  0
   53.3735    5.0309    7.9590 H   0  0  0  0  0  0  0  0  0  0  0  0
   52.3251    5.9485   10.0029 H   0  0  0  0  0  0  0  0  0  0  0  0
   53.7869    9.8837    8.9323 H   0  0  0  0  0  0  0  0  0  0  0  0
   54.8148    8.9268    6.9112 H   0  0  0  0  0  0  0  0  0  0  0  0
   38.3853   15.1771    9.7297 H   0  0  0  0  0  0  0  0  0  0  0  0
   36.8558   14.9540   10.5912 H   0  0  0  0  0  0  0  0  0  0  0  0
   37.4502   13.6354    9.5722 H   0  0  0  0  0  0  0  0  0  0  0  0
   41.1093   12.7993   14.8692 H   0  0  0  0  0  0  0  0  0  0  0  0
   40.1605   11.2661   14.6966 H   0  0  0  0  0  0  0  0  0  0  0  0
   39.4831   12.6563   15.5553 H   0  0  0  0  0  0  0  0  0  0  0  0
  1  2  2  0
  1  6  1  0
  1 10  1  0
  2  3  1  0
  3  4  2  0
  4  5  1  0
  5  6  2  0
  6  7  1  0
  7  8  2  0
  8  9  1  0
  9 10  2  0
  3 11  1  0
  4 12  1  0
  7 13  1  0
 13 14  1  0
 15 14  2  0
 14 16  1  0
 15 19  1  0
 16 17  2  0
 17 18  1  0
 18 19  2  0
 18 20  1  0
 20 21  1  0
 21 22  2  0
 21 23  1  0
 23 24  1  0
 24 25  1  0
 25 23  1  0
 23 26  1  0
 26 27  1  0
 26 28  2  0
 27 29  1  0
 31 29  1  0
 29 32  2  0
 30 31  2  0
 30 34  1  0
 32 33  1  0
 33 34  2  0
 34 35  1  0
 11 36  1  0
 12 37  1  0
  2 38  1  0
  5 39  1  0
  8 40  1  0
  9 41  1  0
 15 42  1  0
 16 43  1  0
 17 44  1  0
 19 45  1  0
 20 46  1  0
 24 47  1  0
 24 48  1  0
 25 49  1  0
 25 50  1  0
 27 51  1  0
 30 52  1  0
 31 53  1  0
 32 54  1  0
 33 55  1  0
 36 56  1  0
 36 57  1  0
 36 58  1  0
 37 59  1  0
 37 60  1  0
 37 61  1  0
M  END
> <Uni-Dock RESULT> 
ENERGY=   -4.497  LOWER_BOUND=    6.002  UPPER_BOUND=   10.585
INTER + INTRA:          -4.497
INTER:                  -4.497
INTRA:                   0.000
UNBOUND:                 0.000

$$$$

     RDKit          3D

 61 65  0  0  0  0  0  0  0  0999 V2000
   41.6399   11.5058   10.9026 C   0  0  0  0  0  0  0  0  0  0  0  0
   40.3901   12.1090   10.8902 C   0  0  0  0  0  0  0  0  0  0  0  0
   40.1860   13.4057   11.3825 C   0  0  0  0  0  0  0  0  0  0  0  0
   41.2743   14.1294   11.8973 C   0  0  0  0  0  0  0  0  0  0  0  0
   42.5388   13.5347   11.9132 C   0  0  0  0  0  0  0  0  0  0  0  0
   42.7338   12.2230   11.4216 C   0  0  0  0  0  0  0  0  0  0  0  0
   43.9854   11.5715   11.4174 C   0  0  0  0  0  0  0  0  0  0  0  0
   44.1023   10.2653   10.9503 C   0  0  0  0  0  0  0  0  0  0  0  0
   42.9669    9.6606   10.4578 C   0  0  0  0  0  0  0  0  0  0  0  0
   41.7559   10.2547   10.4212 N   0  0  0  0  0  0  0  0  0  0  0  0
   38.9712   14.0472   11.4004 O   0  0  0  0  0  0  0  0  0  0  0  0
   40.9992   15.3910   12.3656 O   0  0  0  0  0  0  0  0  0  0  0  0
   45.0696   12.2328   11.9639 O   0  0  0  0  0  0  0  0  0  0  0  0
   46.2578   12.1828   11.2724 C   0  0  0  0  0  0  0  0  0  0  0  0
   46.3514   12.4564    9.9087 C   0  0  0  0  0  0  0  0  0  0  0  0
   47.4075   11.9067   12.0078 C   0  0  0  0  0  0  0  0  0  0  0  0
   48.6522   11.8525   11.3716 C   0  0  0  0  0  0  0  0  0  0  0  0
   48.7555   12.0891    9.9978 C   0  0  0  0  0  0  0  0  0  0  0  0
   47.5973   12.4028    9.2751 C   0  0  0  0  0  0  0  0  0  0  0  0
   49.9662   12.0291    9.2805 N   0  0  0  0  0  0  0  0  0  0  0  0
   51.2038   11.6582    9.7605 C   0  0  0  0  0  0  0  0  0  0  0  0
   51.5050   11.3168   10.8950 O   0  0  0  0  0  0  0  0  0  0  0  0
   52.2744   11.6365    8.7114 C   0  0  0  0  0  0  0  0  0  0  0  0
   53.5224   12.4865    8.9638 C   0  0  0  0  0  0  0  0  0  0  0  0
   52.5459   12.9130    7.9149 C   0  0  0  0  0  0  0  0  0  0  0  0
   52.4999   10.3059    8.0547 C   0  0  0  0  0  0  0  0  0  0  0  0
   52.9821    9.3551    8.9302 N   0  0  0  0  0  0  0  0  0  0  0  0
   52.2389   10.1750    6.8691 O   0  0  0  0  0  0  0  0  0  0  0  0
   53.3195    8.0180    8.6488 C   0  0  0  0  0  0  0  0  0  0  0  0
   54.0425    5.8750    9.5448 C   0  0  0  0  0  0  0  0  0  0  0  0
   53.6869    7.2129    9.7383 C   0  0  0  0  0  0  0  0  0  0  0  0
   53.3172    7.4656    7.3642 C   0  0  0  0  0  0  0  0  0  0  0  0
   53.6793    6.1270    7.1711 C   0  0  0  0  0  0  0  0  0  0  0  0
   54.0364    5.3440    8.2620 C   0  0  0  0  0  0  0  0  0  0  0  0
   54.3881    4.0642    8.0745 F   0  0  0  0  0  0  0  0  0  0  0  0
   37.8325   13.3189   10.9607 C   0  0  0  0  0  0  0  0  0  0  0  0
   42.0877   16.1719   12.8401 C   0  0  0  0  0  0  0  0  0  0  0  0
   39.5711   11.5238   10.4826 H   0  0  0  0  0  0  0  0  0  0  0  0
   43.3967   14.0669   12.3115 H   0  0  0  0  0  0  0  0  0  0  0  0
   45.0433    9.7275   10.9735 H   0  0  0  0  0  0  0  0  0  0  0  0
   42.9956    8.6457   10.0714 H   0  0  0  0  0  0  0  0  0  0  0  0
   45.4656   12.7084    9.3314 H   0  0  0  0  0  0  0  0  0  0  0  0
   47.3395   11.7232   13.0767 H   0  0  0  0  0  0  0  0  0  0  0  0
   49.5206   11.6272   11.9821 H   0  0  0  0  0  0  0  0  0  0  0  0
   47.6437   12.6052    8.2078 H   0  0  0  0  0  0  0  0  0  0  0  0
   49.9129   12.2273    8.2862 H   0  0  0  0  0  0  0  0  0  0  0  0
   53.5731   13.0595    9.8823 H   0  0  0  0  0  0  0  0  0  0  0  0
   54.4832   12.1042    8.6334 H   0  0  0  0  0  0  0  0  0  0  0  0
   52.8416   12.8145    6.8749 H   0  0  0  0  0  0  0  0  0  0  0  0
   51.9565   13.8001    8.1197 H   0  0  0  0  0  0  0  0  0  0  0  0
   53.0534    9.6436    9.9042 H   0  0  0  0  0  0  0  0  0  0  0  0
   54.3268    5.2500   10.3869 H   0  0  0  0  0  0  0  0  0  0  0  0
   53.6966    7.6140   10.7509 H   0  0  0  0  0  0  0  0  0  0  0  0
   53.0497    8.0514    6.4895 H   0  0  0  0  0  0  0  0  0  0  0  0
   53.6851    5.6946    6.1745 H   0  0  0  0  0  0  0  0  0  0  0  0
   37.9135   13.0657    9.8977 H   0  0  0  0  0  0  0  0  0  0  0  0
   36.9541   13.9640   11.0827 H   0  0  0  0  0  0  0  0  0  0  0  0
   37.6740   12.4239   11.5731 H   0  0  0  0  0  0  0  0  0  0  0  0
   42.8188   16.3553   12.0431 H   0  0  0  0  0  0  0  0  0  0  0  0
   42.5595   15.7055   13.7138 H   0  0  0  0  0  0  0  0  0  0  0  0
   41.6894   17.1415   13.1575 H   0  0  0  0  0  0  0  0  0  0  0  0
  1  2  2  0
  1  6  1  0
  1 10  1  0
  2  3  1  0
  3  4  2  0
  4  5  1  0
  5  6  2  0
  6  7  1  0
  7  8  2  0
  8  9  1  0
  9 10  2  0
  3 11  1  0
  4 12  1  0
  7 13  1  0
 13 14  1  0
 15 14  2  0
 14 16  1  0
 15 19  1  0
 16 17  2  0
 17 18  1  0
 18 19  2  0
 18 20  1  0
 20 21  1  0
 21 22  2  0
 21 23  1  0
 23 24  1  0
 24 25  1  0
 25 23  1  0
 23 26  1  0
 26 27  1  0
 26 28  2  0
 27 29  1  0
 31 29  1  0
 29 32  2  0
 30 31  2  0
 30 34  1  0
 32 33  1  0
 33 34  2  0
 34 35  1  0
 11 36  1  0
 12 37  1  0
  2 38  1  0
  5 39  1  0
  8 40  1  0
  9 41  1  0
 15 42  1  0
 16 43  1  0
 17 44  1  0
 19 45  1  0
 20 46  1  0
 24 47  1  0
 24 48  1  0
 25 49  1  0
 25 50  1  0
 27 51  1  0
 30 52  1  0
 31 53  1  0
 32 54  1  0
 33 55  1  0
 36 56  1  0
 36 57  1  0
 36 58  1  0
 37 59  1  0
 37 60  1  0
 37 61  1  0
M  END
> <Uni-Dock RESULT> 
ENERGY=   -4.126  LOWER_BOUND=    6.858  UPPER_BOUND=   10.654
INTER + INTRA:          -4.126
INTER:                  -4.126
INTRA:                   0.000
UNBOUND:                 0.000

$$$$

     RDKit          3D

 61 65  0  0  0  0  0  0  0  0999 V2000
   49.6931   11.6866   10.4651 C   0  0  0  0  0  0  0  0  0  0  0  0
   49.3666   12.9030    9.8821 C   0  0  0  0  0  0  0  0  0  0  0  0
   48.0638   13.4194    9.9206 C   0  0  0  0  0  0  0  0  0  0  0  0
   47.0523   12.6970   10.5748 C   0  0  0  0  0  0  0  0  0  0  0  0
   47.3683   11.4719   11.1685 C   0  0  0  0  0  0  0  0  0  0  0  0
   48.6837   10.9549   11.1178 C   0  0  0  0  0  0  0  0  0  0  0  0
   49.0584    9.7229   11.6945 C   0  0  0  0  0  0  0  0  0  0  0  0
   50.3644    9.2548   11.5788 C   0  0  0  0  0  0  0  0  0  0  0  0
   51.2731   10.0569   10.9243 C   0  0  0  0  0  0  0  0  0  0  0  0
   50.9635   11.2517   10.3791 N   0  0  0  0  0  0  0  0  0  0  0  0
   47.6846   14.6129    9.3554 O   0  0  0  0  0  0  0  0  0  0  0  0
   45.8002   13.2615   10.5690 O   0  0  0  0  0  0  0  0  0  0  0  0
   48.0788    8.9593   12.3017 O   0  0  0  0  0  0  0  0  0  0  0  0
   48.3833    8.3830   13.5132 C   0  0  0  0  0  0  0  0  0  0  0  0
   48.9543    9.0948   14.5671 C   0  0  0  0  0  0  0  0  0  0  0  0
   48.0353    7.0457   13.6839 C   0  0  0  0  0  0  0  0  0  0  0  0
   48.3039    6.3989   14.8948 C   0  0  0  0  0  0  0  0  0  0  0  0
   48.9092    7.0912   15.9476 C   0  0  0  0  0  0  0  0  0  0  0  0
   49.2209    8.4462   15.7774 C   0  0  0  0  0  0  0  0  0  0  0  0
   49.2343    6.5060   17.1869 N   0  0  0  0  0  0  0  0  0  0  0  0
   49.1016    5.1818   17.5456 C   0  0  0  0  0  0  0  0  0  0  0  0
   48.6726    4.2546   16.8744 O   0  0  0  0  0  0  0  0  0  0  0  0
   49.6076    4.8780   18.9236 C   0  0  0  0  0  0  0  0  0  0  0  0
   48.6302    4.2210   19.9017 C   0  0  0  0  0  0  0  0  0  0  0  0
   49.0214    5.6496   20.1062 C   0  0  0  0  0  0  0  0  0  0  0  0
   51.0316    4.4088   18.9934 C   0  0  0  0  0  0  0  0  0  0  0  0
   51.2209    3.1888   18.3780 N   0  0  0  0  0  0  0  0  0  0  0  0
   51.8640    5.1118   19.5446 O   0  0  0  0  0  0  0  0  0  0  0  0
   52.4161    2.4531   18.2743 C   0  0  0  0  0  0  0  0  0  0  0  0
   53.5190    0.4914   17.3502 C   0  0  0  0  0  0  0  0  0  0  0  0
   52.3768    1.2833   17.4995 C   0  0  0  0  0  0  0  0  0  0  0  0
   53.6132    2.8156   18.8996 C   0  0  0  0  0  0  0  0  0  0  0  0
   54.7550    2.0184   18.7540 C   0  0  0  0  0  0  0  0  0  0  0  0
   54.6983    0.8659   17.9800 C   0  0  0  0  0  0  0  0  0  0  0  0
   55.7908    0.1010   17.8463 F   0  0  0  0  0  0  0  0  0  0  0  0
   48.6617   15.3348    8.6173 C   0  0  0  0  0  0  0  0  0  0  0  0
   44.7666   12.5847   11.2714 C   0  0  0  0  0  0  0  0  0  0  0  0
   50.1721   13.4376    9.3875 H   0  0  0  0  0  0  0  0  0  0  0  0
   46.6059   10.8882   11.6746 H   0  0  0  0  0  0  0  0  0  0  0  0
   50.6691    8.2936   11.9769 H   0  0  0  0  0  0  0  0  0  0  0  0
   52.3090    9.7508   10.8089 H   0  0  0  0  0  0  0  0  0  0  0  0
   49.1973   10.1486   14.4576 H   0  0  0  0  0  0  0  0  0  0  0  0
   47.5623    6.4981   12.8731 H   0  0  0  0  0  0  0  0  0  0  0  0
   48.0221    5.3545   14.9815 H   0  0  0  0  0  0  0  0  0  0  0  0
   49.6802    9.0178   16.5802 H   0  0  0  0  0  0  0  0  0  0  0  0
   49.6661    7.1149   17.8750 H   0  0  0  0  0  0  0  0  0  0  0  0
   47.6259    4.0078   19.5546 H   0  0  0  0  0  0  0  0  0  0  0  0
   49.0157    3.4868   20.6023 H   0  0  0  0  0  0  0  0  0  0  0  0
   49.6759    5.8831   20.9404 H   0  0  0  0  0  0  0  0  0  0  0  0
   48.2613    6.4013   19.9232 H   0  0  0  0  0  0  0  0  0  0  0  0
   50.4092    2.8017   17.9001 H   0  0  0  0  0  0  0  0  0  0  0  0
   53.4907   -0.4142   16.7506 H   0  0  0  0  0  0  0  0  0  0  0  0
   51.4597    0.9757   16.9988 H   0  0  0  0  0  0  0  0  0  0  0  0
   53.6901    3.7062   19.5166 H   0  0  0  0  0  0  0  0  0  0  0  0
   55.6858    2.2922   19.2426 H   0  0  0  0  0  0  0  0  0  0  0  0
   49.4791   15.6675    9.2667 H   0  0  0  0  0  0  0  0  0  0  0  0
   48.1784   16.2293    8.2066 H   0  0  0  0  0  0  0  0  0  0  0  0
   49.0372   14.7441    7.7740 H   0  0  0  0  0  0  0  0  0  0  0  0
   45.0008   12.5078   12.3404 H   0  0  0  0  0  0  0  0  0  0  0  0
   44.5705   11.5977   10.8346 H   0  0  0  0  0  0  0  0  0  0  0  0
   43.8515   13.1782   11.1719 H   0  0  0  0  0  0  0  0  0  0  0  0
  1  2  2  0
  1  6  1  0
  1 10  1  0
  2  3  1  0
  3  4  2  0
  4  5  1  0
  5  6  2  0
  6  7  1  0
  7  8  2  0
  8  9  1  0
  9 10  2  0
  3 11  1  0
  4 12  1  0
  7 13  1  0
 13 14  1  0
 15 14  2  0
 14 16  1  0
 15 19  1  0
 16 17  2  0
 17 18  1  0
 18 19  2  0
 18 20  1  0
 20 21  1  0
 21 22  2  0
 21 23  1  0
 23 24  1  0
 24 25  1  0
 25 23  1  0
 23 26  1  0
 26 27  1  0
 26 28  2  0
 27 29  1  0
 31 29  1  0
 29 32  2  0
 30 31  2  0
 30 34  1  0
 32 33  1  0
 33 34  2  0
 34 35  1  0
 11 36  1  0
 12 37  1  0
  2 38  1  0
  5 39  1  0
  8 40  1  0
  9 41  1  0
 15 42  1  0
 16 43  1  0
 17 44  1  0
 19 45  1  0
 20 46  1  0
 24 47  1  0
 24 48  1  0
 25 49  1  0
 25 50  1  0
 27 51  1  0
 30 52  1  0
 31 53  1  0
 32 54  1  0
 33 55  1  0
 36 56  1  0
 36 57  1  0
 36 58  1  0
 37 59  1  0
 37 60  1  0
 37 61  1  0
M  END
> <Uni-Dock RESULT> 
ENERGY=   -4.075  LOWER_BOUND=    5.739  UPPER_BOUND=    9.228
INTER + INTRA:          -4.075
INTER:                  -4.075
INTRA:                   0.000
UNBOUND:                 0.000

$$$$

     RDKit          3D

 61 65  0  0  0  0  0  0  0  0999 V2000
   55.3948    5.9677    8.1868 C   0  0  0  0  0  0  0  0  0  0  0  0
   56.2478    6.1248    7.1034 C   0  0  0  0  0  0  0  0  0  0  0  0
   55.9900    7.0510    6.0830 C   0  0  0  0  0  0  0  0  0  0  0  0
   54.8415    7.8566    6.1540 C   0  0  0  0  0  0  0  0  0  0  0  0
   53.9756    7.7104    7.2411 C   0  0  0  0  0  0  0  0  0  0  0  0
   54.2396    6.7678    8.2619 C   0  0  0  0  0  0  0  0  0  0  0  0
   53.3991    6.5739    9.3785 C   0  0  0  0  0  0  0  0  0  0  0  0
   53.6992    5.6040   10.3309 C   0  0  0  0  0  0  0  0  0  0  0  0
   54.8603    4.8823   10.1616 C   0  0  0  0  0  0  0  0  0  0  0  0
   55.7042    5.0513    9.1223 N   0  0  0  0  0  0  0  0  0  0  0  0
   56.7956    7.2427    4.9867 O   0  0  0  0  0  0  0  0  0  0  0  0
   54.6513    8.7377    5.1177 O   0  0  0  0  0  0  0  0  0  0  0  0
   52.2326    7.3120    9.4560 O   0  0  0  0  0  0  0  0  0  0  0  0
   51.9114    7.8651   10.6739 C   0  0  0  0  0  0  0  0  0  0  0  0
   52.8214    8.5958   11.4364 C   0  0  0  0  0  0  0  0  0  0  0  0
   50.5950    7.7253   11.1057 C   0  0  0  0  0  0  0  0  0  0  0  0
   50.1950    8.2735   12.3290 C   0  0  0  0  0  0  0  0  0  0  0  0
   51.1068    8.9777   13.1207 C   0  0  0  0  0  0  0  0  0  0  0  0
   52.4187    9.1440   12.6587 C   0  0  0  0  0  0  0  0  0  0  0  0
   50.7890    9.5374   14.3735 N   0  0  0  0  0  0  0  0  0  0  0  0
   49.5993    9.4262   15.0604 C   0  0  0  0  0  0  0  0  0  0  0  0
   48.5839    8.8334   14.7256 O   0  0  0  0  0  0  0  0  0  0  0  0
   49.6165   10.0886   16.4051 C   0  0  0  0  0  0  0  0  0  0  0  0
   48.5425   11.1439   16.6819 C   0  0  0  0  0  0  0  0  0  0  0  0
   49.9603   11.5762   16.4849 C   0  0  0  0  0  0  0  0  0  0  0  0
   49.9792    9.1940   17.5544 C   0  0  0  0  0  0  0  0  0  0  0  0
   49.0461    8.2014   17.7715 N   0  0  0  0  0  0  0  0  0  0  0  0
   51.0195    9.3958   18.1609 O   0  0  0  0  0  0  0  0  0  0  0  0
   49.0609    7.2094   18.7696 C   0  0  0  0  0  0  0  0  0  0  0  0
   47.9867    5.2224   19.6733 C   0  0  0  0  0  0  0  0  0  0  0  0
   48.0479    6.2393   18.7159 C   0  0  0  0  0  0  0  0  0  0  0  0
   50.0079    7.1488   19.7967 C   0  0  0  0  0  0  0  0  0  0  0  0
   49.9419    6.1332   20.7583 C   0  0  0  0  0  0  0  0  0  0  0  0
   48.9344    5.1792   20.6870 C   0  0  0  0  0  0  0  0  0  0  0  0
   48.8695    4.2109   21.6116 F   0  0  0  0  0  0  0  0  0  0  0  0
   57.9250    6.3923    4.8394 C   0  0  0  0  0  0  0  0  0  0  0  0
   53.5298    9.6079    5.1872 C   0  0  0  0  0  0  0  0  0  0  0  0
   57.1281    5.4892    7.0806 H   0  0  0  0  0  0  0  0  0  0  0  0
   53.0769    8.3139    7.3190 H   0  0  0  0  0  0  0  0  0  0  0  0
   53.0498    5.4065   11.1763 H   0  0  0  0  0  0  0  0  0  0  0  0
   55.1534    4.1175   10.8753 H   0  0  0  0  0  0  0  0  0  0  0  0
   53.8420    8.7421   11.0924 H   0  0  0  0  0  0  0  0  0  0  0  0
   49.8770    7.1817   10.4975 H   0  0  0  0  0  0  0  0  0  0  0  0
   49.1615    8.1345   12.6294 H   0  0  0  0  0  0  0  0  0  0  0  0
   53.1497    9.6973   13.2431 H   0  0  0  0  0  0  0  0  0  0  0  0
   51.5365   10.0318   14.8505 H   0  0  0  0  0  0  0  0  0  0  0  0
   47.8255   11.3608   15.8988 H   0  0  0  0  0  0  0  0  0  0  0  0
   48.1293   11.2099   17.6837 H   0  0  0  0  0  0  0  0  0  0  0  0
   50.5095   11.9290   17.3525 H   0  0  0  0  0  0  0  0  0  0  0  0
   50.1902   12.1159   15.5727 H   0  0  0  0  0  0  0  0  0  0  0  0
   48.2843    8.1528   17.0975 H   0  0  0  0  0  0  0  0  0  0  0  0
   47.2036    4.4703   19.6333 H   0  0  0  0  0  0  0  0  0  0  0  0
   47.2970    6.2589   17.9272 H   0  0  0  0  0  0  0  0  0  0  0  0
   50.8042    7.8821   19.8853 H   0  0  0  0  0  0  0  0  0  0  0  0
   50.6716    6.0851   21.5617 H   0  0  0  0  0  0  0  0  0  0  0  0
   58.6444    6.5491    5.6508 H   0  0  0  0  0  0  0  0  0  0  0  0
   58.4227    6.6556    3.8985 H   0  0  0  0  0  0  0  0  0  0  0  0
   57.6230    5.3410    4.7717 H   0  0  0  0  0  0  0  0  0  0  0  0
   53.5930   10.2638    6.0643 H   0  0  0  0  0  0  0  0  0  0  0  0
   52.5889    9.0439    5.1787 H   0  0  0  0  0  0  0  0  0  0  0  0
   53.5436   10.2420    4.2944 H   0  0  0  0  0  0  0  0  0  0  0  0
  1  2  2  0
  1  6  1  0
  1 10  1  0
  2  3  1  0
  3  4  2  0
  4  5  1  0
  5  6  2  0
  6  7  1  0
  7  8  2  0
  8  9  1  0
  9 10  2  0
  3 11  1  0
  4 12  1  0
  7 13  1  0
 13 14  1  0
 15 14  2  0
 14 16  1  0
 15 19  1  0
 16 17  2  0
 17 18  1  0
 18 19  2  0
 18 20  1  0
 20 21  1  0
 21 22  2  0
 21 23  1  0
 23 24  1  0
 24 25  1  0
 25 23  1  0
 23 26  1  0
 26 27  1  0
 26 28  2  0
 27 29  1  0
 31 29  1  0
 29 32  2  0
 30 31  2  0
 30 34  1  0
 32 33  1  0
 33 34  2  0
 34 35  1  0
 11 36  1  0
 12 37  1  0
  2 38  1  0
  5 39  1  0
  8 40  1  0
  9 41  1  0
 15 42  1  0
 16 43  1  0
 17 44  1  0
 19 45  1  0
 20 46  1  0
 24 47  1  0
 24 48  1  0
 25 49  1  0
 25 50  1  0
 27 51  1  0
 30 52  1  0
 31 53  1  0
 32 54  1  0
 33 55  1  0
 36 56  1  0
 36 57  1  0
 36 58  1  0
 37 59  1  0
 37 60  1  0
 37 61  1  0
M  END
> <Uni-Dock RESULT> 
ENERGY=   -4.067  LOWER_BOUND=    6.656  UPPER_BOUND=   10.447
INTER + INTRA:          -4.067
INTER:                  -4.067
INTRA:                   0.000
UNBOUND:                 0.000

$$$$

     RDKit          3D

 61 65  0  0  0  0  0  0  0  0999 V2000
   43.9849   11.1553    8.0994 C   0  0  0  0  0  0  0  0  0  0  0  0
   43.7113   11.0901    6.7404 C   0  0  0  0  0  0  0  0  0  0  0  0
   44.4756   11.7877    5.7944 C   0  0  0  0  0  0  0  0  0  0  0  0
   45.5594   12.5717    6.2229 C   0  0  0  0  0  0  0  0  0  0  0  0
   45.8474   12.6437    7.5885 C   0  0  0  0  0  0  0  0  0  0  0  0
   45.0662   11.9429    8.5364 C   0  0  0  0  0  0  0  0  0  0  0  0
   45.3074   11.9829    9.9261 C   0  0  0  0  0  0  0  0  0  0  0  0
   44.4784   11.2964   10.8089 C   0  0  0  0  0  0  0  0  0  0  0  0
   43.4530   10.5504   10.2707 C   0  0  0  0  0  0  0  0  0  0  0  0
   43.2011   10.4651    8.9478 N   0  0  0  0  0  0  0  0  0  0  0  0
   44.2452   11.7640    4.4401 O   0  0  0  0  0  0  0  0  0  0  0  0
   46.2600   13.2297    5.2418 O   0  0  0  0  0  0  0  0  0  0  0  0
   46.3334   12.7853   10.3896 O   0  0  0  0  0  0  0  0  0  0  0  0
   47.1603   12.2625   11.3569 C   0  0  0  0  0  0  0  0  0  0  0  0
   47.7433   11.0006   11.2522 C   0  0  0  0  0  0  0  0  0  0  0  0
   47.4588   13.0795   12.4442 C   0  0  0  0  0  0  0  0  0  0  0  0
   48.3031   12.6173   13.4593 C   0  0  0  0  0  0  0  0  0  0  0  0
   48.8657   11.3399   13.3847 C   0  0  0  0  0  0  0  0  0  0  0  0
   48.5882   10.5412   12.2679 C   0  0  0  0  0  0  0  0  0  0  0  0
   49.7042   10.7932   14.3756 N   0  0  0  0  0  0  0  0  0  0  0  0
   50.0410   11.3555   15.5880 C   0  0  0  0  0  0  0  0  0  0  0  0
   49.6931   12.4346   16.0453 O   0  0  0  0  0  0  0  0  0  0  0  0
   50.9030   10.4746   16.4414 C   0  0  0  0  0  0  0  0  0  0  0  0
   52.2398   11.0488   16.9175 C   0  0  0  0  0  0  0  0  0  0  0  0
   52.2329    9.9785   15.8733 C   0  0  0  0  0  0  0  0  0  0  0  0
   50.1635    9.6136   17.4235 C   0  0  0  0  0  0  0  0  0  0  0  0
   49.5134   10.3493   18.3926 N   0  0  0  0  0  0  0  0  0  0  0  0
   50.1830    8.4006   17.2850 O   0  0  0  0  0  0  0  0  0  0  0  0
   48.7482    9.8671   19.4708 C   0  0  0  0  0  0  0  0  0  0  0  0
   47.3171   10.4288   21.3563 C   0  0  0  0  0  0  0  0  0  0  0  0
   48.0925   10.8232   20.2621 C   0  0  0  0  0  0  0  0  0  0  0  0
   48.6193    8.5125   19.7931 C   0  0  0  0  0  0  0  0  0  0  0  0
   47.8470    8.1192   20.8928 C   0  0  0  0  0  0  0  0  0  0  0  0
   47.2020    9.0795   21.6624 C   0  0  0  0  0  0  0  0  0  0  0  0
   46.4677    8.7014   22.7181 F   0  0  0  0  0  0  0  0  0  0  0  0
   43.1105   11.0454    3.9751 C   0  0  0  0  0  0  0  0  0  0  0  0
   47.3975   13.9854    5.6353 C   0  0  0  0  0  0  0  0  0  0  0  0
   42.8691   10.4728    6.4424 H   0  0  0  0  0  0  0  0  0  0  0  0
   46.6742   13.2472    7.9496 H   0  0  0  0  0  0  0  0  0  0  0  0
   44.6166   11.3430   11.8832 H   0  0  0  0  0  0  0  0  0  0  0  0
   42.7775    9.9857   10.9071 H   0  0  0  0  0  0  0  0  0  0  0  0
   47.5462   10.3682   10.3905 H   0  0  0  0  0  0  0  0  0  0  0  0
   47.0288   14.0753   12.5117 H   0  0  0  0  0  0  0  0  0  0  0  0
   48.5028   13.2848   14.2913 H   0  0  0  0  0  0  0  0  0  0  0  0
   49.0196    9.5478   12.1718 H   0  0  0  0  0  0  0  0  0  0  0  0
   50.0562    9.8566   14.2036 H   0  0  0  0  0  0  0  0  0  0  0  0
   52.4984   12.0576   16.6178 H   0  0  0  0  0  0  0  0  0  0  0  0
   52.5919   10.7836   17.9097 H   0  0  0  0  0  0  0  0  0  0  0  0
   52.5739    8.9880   16.1583 H   0  0  0  0  0  0  0  0  0  0  0  0
   52.5195   10.2671   14.8679 H   0  0  0  0  0  0  0  0  0  0  0  0
   49.5519   11.3609   18.2827 H   0  0  0  0  0  0  0  0  0  0  0  0
   46.8085   11.1673   21.9698 H   0  0  0  0  0  0  0  0  0  0  0  0
   48.1724   11.8856   20.0353 H   0  0  0  0  0  0  0  0  0  0  0  0
   49.1152    7.7371   19.2165 H   0  0  0  0  0  0  0  0  0  0  0  0
   47.7485    7.0686   21.1511 H   0  0  0  0  0  0  0  0  0  0  0  0
   43.2101    9.9743    4.1835 H   0  0  0  0  0  0  0  0  0  0  0  0
   43.0583   11.1687    2.8867 H   0  0  0  0  0  0  0  0  0  0  0  0
   42.1844   11.4499    4.3992 H   0  0  0  0  0  0  0  0  0  0  0  0
   48.1577   13.3430    6.0968 H   0  0  0  0  0  0  0  0  0  0  0  0
   47.1150   14.8098    6.3016 H   0  0  0  0  0  0  0  0  0  0  0  0
   47.8349   14.4247    4.7325 H   0  0  0  0  0  0  0  0  0  0  0  0
  1  2  2  0
  1  6  1  0
  1 10  1  0
  2  3  1  0
  3  4  2  0
  4  5  1  0
  5  6  2  0
  6  7  1  0
  7  8  2  0
  8  9  1  0
  9 10  2  0
  3 11  1  0
  4 12  1  0
  7 13  1  0
 13 14  1  0
 15 14  2  0
 14 16  1  0
 15 19  1  0
 16 17  2  0
 17 18  1  0
 18 19  2  0
 18 20  1  0
 20 21  1  0
 21 22  2  0
 21 23  1  0
 23 24  1  0
 24 25  1  0
 25 23  1  0
 23 26  1  0
 26 27  1  0
 26 28  2  0
 27 29  1  0
 31 29  1  0
 29 32  2  0
 30 31  2  0
 30 34  1  0
 32 33  1  0
 33 34  2  0
 34 35  1  0
 11 36  1  0
 12 37  1  0
  2 38  1  0
  5 39  1  0
  8 40  1  0
  9 41  1  0
 15 42  1  0
 16 43  1  0
 17 44  1  0
 19 45  1  0
 20 46  1  0
 24 47  1  0
 24 48  1  0
 25 49  1  0
 25 50  1  0
 27 51  1  0
 30 52  1  0
 31 53  1  0
 32 54  1  0
 33 55  1  0
 36 56  1  0
 36 57  1  0
 36 58  1  0
 37 59  1  0
 37 60  1  0
 37 61  1  0
M  END
> <Uni-Dock RESULT> 
ENERGY=   -4.030  LOWER_BOUND=    6.036  UPPER_BOUND=   12.049
INTER + INTRA:          -4.030
INTER:                  -4.030
INTRA:                   0.000
UNBOUND:                 0.000

$$$$

     RDKit          3D

 61 65  0  0  0  0  0  0  0  0999 V2000
   50.5485   12.5227    9.7643 C   0  0  0  0  0  0  0  0  0  0  0  0
   50.4022   13.7281    9.0922 C   0  0  0  0  0  0  0  0  0  0  0  0
   49.1447   14.3059    8.8678 C   0  0  0  0  0  0  0  0  0  0  0  0
   47.9916   13.6586    9.3416 C   0  0  0  0  0  0  0  0  0  0  0  0
   48.1251   12.4455   10.0224 C   0  0  0  0  0  0  0  0  0  0  0  0
   49.3972   11.8661   10.2373 C   0  0  0  0  0  0  0  0  0  0  0  0
   49.5911   10.6426   10.9127 C   0  0  0  0  0  0  0  0  0  0  0  0
   50.8687   10.1099   11.0604 C   0  0  0  0  0  0  0  0  0  0  0  0
   51.9254   10.8413   10.5644 C   0  0  0  0  0  0  0  0  0  0  0  0
   51.7875   12.0260    9.9333 N   0  0  0  0  0  0  0  0  0  0  0  0
   48.9423   15.4916    8.2040 O   0  0  0  0  0  0  0  0  0  0  0  0
   46.7947   14.2802    9.0818 O   0  0  0  0  0  0  0  0  0  0  0  0
   48.4758    9.9509   11.3476 O   0  0  0  0  0  0  0  0  0  0  0  0
   48.5172    9.4111   12.6124 C   0  0  0  0  0  0  0  0  0  0  0  0
   48.9183   10.1380   13.7322 C   0  0  0  0  0  0  0  0  0  0  0  0
   48.0724    8.0995   12.7561 C   0  0  0  0  0  0  0  0  0  0  0  0
   48.0749    7.4910   14.0157 C   0  0  0  0  0  0  0  0  0  0  0  0
   48.5088    8.1967   15.1416 C   0  0  0  0  0  0  0  0  0  0  0  0
   48.9187    9.5277   14.9908 C   0  0  0  0  0  0  0  0  0  0  0  0
   48.5646    7.6482   16.4377 N   0  0  0  0  0  0  0  0  0  0  0  0
   48.2967    6.3474   16.8063 C   0  0  0  0  0  0  0  0  0  0  0  0
   47.9518    5.4145   16.0956 O   0  0  0  0  0  0  0  0  0  0  0  0
   48.5191    6.0769   18.2639 C   0  0  0  0  0  0  0  0  0  0  0  0
   47.3423    5.5067   19.0599 C   0  0  0  0  0  0  0  0  0  0  0  0
   47.7642    6.9227   19.2897 C   0  0  0  0  0  0  0  0  0  0  0  0
   49.8778    5.5452   18.6160 C   0  0  0  0  0  0  0  0  0  0  0  0
   50.1133    4.2935   18.0860 N   0  0  0  0  0  0  0  0  0  0  0  0
   50.6287    6.2305   19.2921 O   0  0  0  0  0  0  0  0  0  0  0  0
   51.2658    3.4993   18.2330 C   0  0  0  0  0  0  0  0  0  0  0  0
   52.4156    1.4522   17.5958 C   0  0  0  0  0  0  0  0  0  0  0  0
   51.3095    2.3019   17.5018 C   0  0  0  0  0  0  0  0  0  0  0  0
   52.3425    3.8309   19.0614 C   0  0  0  0  0  0  0  0  0  0  0  0
   53.4470    2.9760   19.1591 C   0  0  0  0  0  0  0  0  0  0  0  0
   53.4746    1.7968   18.4248 C   0  0  0  0  0  0  0  0  0  0  0  0
   54.5304    0.9770   18.5239 F   0  0  0  0  0  0  0  0  0  0  0  0
   50.0772   16.1364    7.6414 C   0  0  0  0  0  0  0  0  0  0  0  0
   45.6133   13.6816    9.5973 C   0  0  0  0  0  0  0  0  0  0  0  0
   51.3135   14.2040    8.7420 H   0  0  0  0  0  0  0  0  0  0  0  0
   47.2514   11.9191   10.3935 H   0  0  0  0  0  0  0  0  0  0  0  0
   51.0418    9.1525   11.5389 H   0  0  0  0  0  0  0  0  0  0  0  0
   52.9467   10.4828   10.6564 H   0  0  0  0  0  0  0  0  0  0  0  0
   49.2334   11.1739   13.6376 H   0  0  0  0  0  0  0  0  0  0  0  0
   47.7308    7.5418   11.8882 H   0  0  0  0  0  0  0  0  0  0  0  0
   47.7265    6.4652   14.0803 H   0  0  0  0  0  0  0  0  0  0  0  0
   49.2498   10.1096   15.8476 H   0  0  0  0  0  0  0  0  0  0  0  0
   48.8921    8.2639   17.1755 H   0  0  0  0  0  0  0  0  0  0  0  0
   46.4108    5.3265   18.5363 H   0  0  0  0  0  0  0  0  0  0  0  0
   47.5502    4.7846   19.8435 H   0  0  0  0  0  0  0  0  0  0  0  0
   48.2627    7.1593   20.2247 H   0  0  0  0  0  0  0  0  0  0  0  0
   47.0930    7.7009   18.9430 H   0  0  0  0  0  0  0  0  0  0  0  0
   49.3859    3.9254   17.4758 H   0  0  0  0  0  0  0  0  0  0  0  0
   52.4515    0.5251   17.0303 H   0  0  0  0  0  0  0  0  0  0  0  0
   50.4872    2.0172   16.8468 H   0  0  0  0  0  0  0  0  0  0  0  0
   52.3501    4.7414   19.6535 H   0  0  0  0  0  0  0  0  0  0  0  0
   54.2834    3.2260   19.8058 H   0  0  0  0  0  0  0  0  0  0  0  0
   50.7755   16.4569    8.4226 H   0  0  0  0  0  0  0  0  0  0  0  0
   49.7278   17.0350    7.1189 H   0  0  0  0  0  0  0  0  0  0  0  0
   50.5718   15.4949    6.9031 H   0  0  0  0  0  0  0  0  0  0  0  0
   45.6390   13.6375   10.6931 H   0  0  0  0  0  0  0  0  0  0  0  0
   45.4498   12.6877    9.1625 H   0  0  0  0  0  0  0  0  0  0  0  0
   44.7660   14.3125    9.3082 H   0  0  0  0  0  0  0  0  0  0  0  0
  1  2  2  0
  1  6  1  0
  1 10  1  0
  2  3  1  0
  3  4  2  0
  4  5  1  0
  5  6  2  0
  6  7  1  0
  7  8  2  0
  8  9  1  0
  9 10  2  0
  3 11  1  0
  4 12  1  0
  7 13  1  0
 13 14  1  0
 15 14  2  0
 14 16  1  0
 15 19  1  0
 16 17  2  0
 17 18  1  0
 18 19  2  0
 18 20  1  0
 20 21  1  0
 21 22  2  0
 21 23  1  0
 23 24  1  0
 24 25  1  0
 25 23  1  0
 23 26  1  0
 26 27  1  0
 26 28  2  0
 27 29  1  0
 31 29  1  0
 29 32  2  0
 30 31  2  0
 30 34  1  0
 32 33  1  0
 33 34  2  0
 34 35  1  0
 11 36  1  0
 12 37  1  0
  2 38  1  0
  5 39  1  0
  8 40  1  0
  9 41  1  0
 15 42  1  0
 16 43  1  0
 17 44  1  0
 19 45  1  0
 20 46  1  0
 24 47  1  0
 24 48  1  0
 25 49  1  0
 25 50  1  0
 27 51  1  0
 30 52  1  0
 31 53  1  0
 32 54  1  0
 33 55  1  0
 36 56  1  0
 36 57  1  0
 36 58  1  0
 37 59  1  0
 37 60  1  0
 37 61  1  0
M  END
> <Uni-Dock RESULT> 
ENERGY=   -3.979  LOWER_BOUND=    5.728  UPPER_BOUND=    9.139
INTER + INTRA:          -3.979
INTER:                  -3.979
INTRA:                   0.000
UNBOUND:                 0.000

$$$$
