
     RDKit          3D

 61 65  0  0  0  0  0  0  0  0999 V2000
   50.0569    5.8071   20.0326 C   0  0  0  0  0  0  0  0  0  0  0  0
   51.0204    5.1857   20.8150 C   0  0  0  0  0  0  0  0  0  0  0  0
   52.2423    4.7557   20.2839 C   0  0  0  0  0  0  0  0  0  0  0  0
   52.5060    4.9376   18.9163 C   0  0  0  0  0  0  0  0  0  0  0  0
   51.5513    5.5713   18.1182 C   0  0  0  0  0  0  0  0  0  0  0  0
   50.3230    6.0087   18.6646 C   0  0  0  0  0  0  0  0  0  0  0  0
   49.3176    6.6412   17.9059 C   0  0  0  0  0  0  0  0  0  0  0  0
   48.1326    7.0629   18.5033 C   0  0  0  0  0  0  0  0  0  0  0  0
   47.9759    6.8107   19.8501 C   0  0  0  0  0  0  0  0  0  0  0  0
   48.9069    6.1954   20.6134 N   0  0  0  0  0  0  0  0  0  0  0  0
   53.2219    4.1278   21.0114 O   0  0  0  0  0  0  0  0  0  0  0  0
   53.7208    4.4865   18.4642 O   0  0  0  0  0  0  0  0  0  0  0  0
   49.5607    6.9083   16.5724 O   0  0  0  0  0  0  0  0  0  0  0  0
   48.6134    6.4682   15.6777 C   0  0  0  0  0  0  0  0  0  0  0  0
   48.1118    7.3935   14.7680 C   0  0  0  0  0  0  0  0  0  0  0  0
   48.2112    5.1350   15.6147 C   0  0  0  0  0  0  0  0  0  0  0  0
   47.2801    4.7323   14.6514 C   0  0  0  0  0  0  0  0  0  0  0  0
   46.7544    5.6564   13.7458 C   0  0  0  0  0  0  0  0  0  0  0  0
   47.1734    6.9915   13.8156 C   0  0  0  0  0  0  0  0  0  0  0  0
   45.8145    5.3300   12.7505 N   0  0  0  0  0  0  0  0  0  0  0  0
   45.3641    4.0769   12.3992 C   0  0  0  0  0  0  0  0  0  0  0  0
   45.7111    2.9948   12.8463 O   0  0  0  0  0  0  0  0  0  0  0  0
   44.3680    4.1051   11.2807 C   0  0  0  0  0  0  0  0  0  0  0  0
   43.0216    4.7792   11.5455 C   0  0  0  0  0  0  0  0  0  0  0  0
   43.0846    3.2895   11.4380 C   0  0  0  0  0  0  0  0  0  0  0  0
   44.9582    4.2174    9.9067 C   0  0  0  0  0  0  0  0  0  0  0  0
   45.4938    3.0314    9.4491 N   0  0  0  0  0  0  0  0  0  0  0  0
   44.9384    5.3036    9.3474 O   0  0  0  0  0  0  0  0  0  0  0  0
   46.1584    2.8015    8.2299 C   0  0  0  0  0  0  0  0  0  0  0  0
   47.0403    3.4789    6.0723 C   0  0  0  0  0  0  0  0  0  0  0  0
   46.3583    3.7838    7.2549 C   0  0  0  0  0  0  0  0  0  0  0  0
   46.6478    1.5068    8.0045 C   0  0  0  0  0  0  0  0  0  0  0  0
   47.3269    1.2017    6.8218 C   0  0  0  0  0  0  0  0  0  0  0  0
   47.5172    2.1922    5.8670 C   0  0  0  0  0  0  0  0  0  0  0  0
   48.1647    1.9015    4.7308 F   0  0  0  0  0  0  0  0  0  0  0  0
   53.1009    4.1564   22.4271 C   0  0  0  0  0  0  0  0  0  0  0  0
   53.9170    4.4349   17.0589 C   0  0  0  0  0  0  0  0  0  0  0  0
   50.7792    5.0401   21.8633 H   0  0  0  0  0  0  0  0  0  0  0  0
   51.7379    5.7433   17.0616 H   0  0  0  0  0  0  0  0  0  0  0  0
   47.3597    7.5776   17.9413 H   0  0  0  0  0  0  0  0  0  0  0  0
   47.0737    7.1102   20.3752 H   0  0  0  0  0  0  0  0  0  0  0  0
   48.4467    8.4262   14.8022 H   0  0  0  0  0  0  0  0  0  0  0  0
   48.6204    4.3995   16.3007 H   0  0  0  0  0  0  0  0  0  0  0  0
   46.9846    3.6881   14.6371 H   0  0  0  0  0  0  0  0  0  0  0  0
   46.7909    7.7338   13.1211 H   0  0  0  0  0  0  0  0  0  0  0  0
   45.4834    6.0968   12.1734 H   0  0  0  0  0  0  0  0  0  0  0  0
   42.8335    5.2042   12.5258 H   0  0  0  0  0  0  0  0  0  0  0  0
   42.5551    5.3296   10.7342 H   0  0  0  0  0  0  0  0  0  0  0  0
   42.6495    2.8285   10.5564 H   0  0  0  0  0  0  0  0  0  0  0  0
   42.9564    2.7075   12.3454 H   0  0  0  0  0  0  0  0  0  0  0  0
   45.4419    2.2431   10.0895 H   0  0  0  0  0  0  0  0  0  0  0  0
   47.2003    4.2414    5.3146 H   0  0  0  0  0  0  0  0  0  0  0  0
   45.9991    4.7996    7.3818 H   0  0  0  0  0  0  0  0  0  0  0  0
   46.5076    0.7215    8.7436 H   0  0  0  0  0  0  0  0  0  0  0  0
   47.7083    0.2017    6.6431 H   0  0  0  0  0  0  0  0  0  0  0  0
   54.0225    3.7456   22.8505 H   0  0  0  0  0  0  0  0  0  0  0  0
   52.2713    3.5239   22.7617 H   0  0  0  0  0  0  0  0  0  0  0  0
   52.9930    5.1811   22.7973 H   0  0  0  0  0  0  0  0  0  0  0  0
   53.9757    5.4434   16.6350 H   0  0  0  0  0  0  0  0  0  0  0  0
   53.1368    3.8437   16.5671 H   0  0  0  0  0  0  0  0  0  0  0  0
   54.8756    3.9392   16.8743 H   0  0  0  0  0  0  0  0  0  0  0  0
  1  2  2  0
  1  6  1  0
  1 10  1  0
  2  3  1  0
  3  4  2  0
  4  5  1  0
  5  6  2  0
  6  7  1  0
  7  8  2  0
  8  9  1  0
  9 10  2  0
  3 11  1  0
  4 12  1  0
  7 13  1  0
 13 14  1  0
 15 14  2  0
 14 16  1  0
 15 19  1  0
 16 17  2  0
 17 18  1  0
 18 19  2  0
 18 20  1  0
 20 21  1  0
 21 22  2  0
 21 23  1  0
 23 24  1  0
 24 25  1  0
 25 23  1  0
 23 26  1  0
 26 27  1  0
 26 28  2  0
 27 29  1  0
 31 29  1  0
 29 32  2  0
 30 31  2  0
 30 34  1  0
 32 33  1  0
 33 34  2  0
 34 35  1  0
 11 36  1  0
 12 37  1  0
  2 38  1  0
  5 39  1  0
  8 40  1  0
  9 41  1  0
 15 42  1  0
 16 43  1  0
 17 44  1  0
 19 45  1  0
 20 46  1  0
 24 47  1  0
 24 48  1  0
 25 49  1  0
 25 50  1  0
 27 51  1  0
 30 52  1  0
 31 53  1  0
 32 54  1  0
 33 55  1  0
 36 56  1  0
 36 57  1  0
 36 58  1  0
 37 59  1  0
 37 60  1  0
 37 61  1  0
M  END
> <Uni-Dock RESULT> 
ENERGY=   -7.143  LOWER_BOUND=    0.000  UPPER_BOUND=    0.000
INTER + INTRA:          -7.143
INTER:                  -7.143
INTRA:                   0.000
UNBOUND:                 0.000

$$$$

     RDKit          3D

 61 65  0  0  0  0  0  0  0  0999 V2000
   50.3279    7.1498   19.4240 C   0  0  0  0  0  0  0  0  0  0  0  0
   51.4261    6.7378   20.1662 C   0  0  0  0  0  0  0  0  0  0  0  0
   52.6618    6.4598   19.5697 C   0  0  0  0  0  0  0  0  0  0  0  0
   52.8024    6.5813   18.1774 C   0  0  0  0  0  0  0  0  0  0  0  0
   51.7099    7.0056   17.4183 C   0  0  0  0  0  0  0  0  0  0  0  0
   50.4678    7.2910   18.0300 C   0  0  0  0  0  0  0  0  0  0  0  0
   49.3281    7.7094   17.3139 C   0  0  0  0  0  0  0  0  0  0  0  0
   48.1345    7.9894   17.9740 C   0  0  0  0  0  0  0  0  0  0  0  0
   48.1088    7.8132   19.3416 C   0  0  0  0  0  0  0  0  0  0  0  0
   49.1729    7.4011   20.0669 N   0  0  0  0  0  0  0  0  0  0  0  0
   53.7733    6.0399   20.2565 O   0  0  0  0  0  0  0  0  0  0  0  0
   54.0396    6.2871   17.6615 O   0  0  0  0  0  0  0  0  0  0  0  0
   49.4374    7.9143   15.9520 O   0  0  0  0  0  0  0  0  0  0  0  0
   48.5125    7.2739   15.1608 C   0  0  0  0  0  0  0  0  0  0  0  0
   47.8139    8.0460   14.2382 C   0  0  0  0  0  0  0  0  0  0  0  0
   48.3188    5.8943   15.2093 C   0  0  0  0  0  0  0  0  0  0  0  0
   47.3994    5.2885   14.3464 C   0  0  0  0  0  0  0  0  0  0  0  0
   46.6774    6.0560   13.4297 C   0  0  0  0  0  0  0  0  0  0  0  0
   46.8879    7.4405   13.3866 C   0  0  0  0  0  0  0  0  0  0  0  0
   45.7355    5.5217   12.5310 N   0  0  0  0  0  0  0  0  0  0  0  0
   45.4626    4.1933   12.2914 C   0  0  0  0  0  0  0  0  0  0  0  0
   46.0024    3.2104   12.7750 O   0  0  0  0  0  0  0  0  0  0  0  0
   44.4019    3.9915   11.2530 C   0  0  0  0  0  0  0  0  0  0  0  0
   42.9879    4.4725   11.5792 C   0  0  0  0  0  0  0  0  0  0  0  0
   43.2741    3.0054   11.5572 C   0  0  0  0  0  0  0  0  0  0  0  0
   44.8748    4.0931    9.8335 C   0  0  0  0  0  0  0  0  0  0  0  0
   45.5562    2.9716    9.4084 N   0  0  0  0  0  0  0  0  0  0  0  0
   44.6494    5.1213    9.2129 O   0  0  0  0  0  0  0  0  0  0  0  0
   46.1658    2.7579    8.1579 C   0  0  0  0  0  0  0  0  0  0  0  0
   46.7861    3.4048    5.9021 C   0  0  0  0  0  0  0  0  0  0  0  0
   46.1454    3.6871    7.1130 C   0  0  0  0  0  0  0  0  0  0  0  0
   46.8341    1.5389    7.9741 C   0  0  0  0  0  0  0  0  0  0  0  0
   47.4720    1.2559    6.7633 C   0  0  0  0  0  0  0  0  0  0  0  0
   47.4423    2.1931    5.7387 C   0  0  0  0  0  0  0  0  0  0  0  0
   48.0499    1.9229    4.5758 F   0  0  0  0  0  0  0  0  0  0  0  0
   53.7438    6.1508   21.6730 C   0  0  0  0  0  0  0  0  0  0  0  0
   54.1475    6.1655   16.2509 C   0  0  0  0  0  0  0  0  0  0  0  0
   51.2808    6.6327   21.2367 H   0  0  0  0  0  0  0  0  0  0  0  0
   51.7968    7.1280   16.3420 H   0  0  0  0  0  0  0  0  0  0  0  0
   47.2554    8.3407   17.4430 H   0  0  0  0  0  0  0  0  0  0  0  0
   47.2081    8.0102   19.9154 H   0  0  0  0  0  0  0  0  0  0  0  0
   47.9859    9.1171   14.1843 H   0  0  0  0  0  0  0  0  0  0  0  0
   48.8820    5.2796   15.9049 H   0  0  0  0  0  0  0  0  0  0  0  0
   47.2693    4.2134   14.4177 H   0  0  0  0  0  0  0  0  0  0  0  0
   46.3494    8.0654   12.6800 H   0  0  0  0  0  0  0  0  0  0  0  0
   45.2517    6.1870   11.9358 H   0  0  0  0  0  0  0  0  0  0  0  0
   42.8019    4.9332   12.5437 H   0  0  0  0  0  0  0  0  0  0  0  0
   42.3886    4.8872   10.7744 H   0  0  0  0  0  0  0  0  0  0  0  0
   42.8580    2.4225   10.7410 H   0  0  0  0  0  0  0  0  0  0  0  0
   43.2986    2.4770   12.5052 H   0  0  0  0  0  0  0  0  0  0  0  0
   45.6702    2.2322   10.0972 H   0  0  0  0  0  0  0  0  0  0  0  0
   46.7751    4.1266    5.0898 H   0  0  0  0  0  0  0  0  0  0  0  0
   45.6421    4.6438    7.2057 H   0  0  0  0  0  0  0  0  0  0  0  0
   46.8670    0.7961    8.7677 H   0  0  0  0  0  0  0  0  0  0  0  0
   47.9913    0.3145    6.6164 H   0  0  0  0  0  0  0  0  0  0  0  0
   54.7442    5.9147   22.0483 H   0  0  0  0  0  0  0  0  0  0  0  0
   53.0467    5.4262   22.1077 H   0  0  0  0  0  0  0  0  0  0  0  0
   53.5031    7.1714   21.9879 H   0  0  0  0  0  0  0  0  0  0  0  0
   54.0206    7.1385   15.7638 H   0  0  0  0  0  0  0  0  0  0  0  0
   53.4375    5.4301   15.8570 H   0  0  0  0  0  0  0  0  0  0  0  0
   55.1569    5.8078   16.0235 H   0  0  0  0  0  0  0  0  0  0  0  0
  1  2  2  0
  1  6  1  0
  1 10  1  0
  2  3  1  0
  3  4  2  0
  4  5  1  0
  5  6  2  0
  6  7  1  0
  7  8  2  0
  8  9  1  0
  9 10  2  0
  3 11  1  0
  4 12  1  0
  7 13  1  0
 13 14  1  0
 15 14  2  0
 14 16  1  0
 15 19  1  0
 16 17  2  0
 17 18  1  0
 18 19  2  0
 18 20  1  0
 20 21  1  0
 21 22  2  0
 21 23  1  0
 23 24  1  0
 24 25  1  0
 25 23  1  0
 23 26  1  0
 26 27  1  0
 26 28  2  0
 27 29  1  0
 31 29  1  0
 29 32  2  0
 30 31  2  0
 30 34  1  0
 32 33  1  0
 33 34  2  0
 34 35  1  0
 11 36  1  0
 12 37  1  0
  2 38  1  0
  5 39  1  0
  8 40  1  0
  9 41  1  0
 15 42  1  0
 16 43  1  0
 17 44  1  0
 19 45  1  0
 20 46  1  0
 24 47  1  0
 24 48  1  0
 25 49  1  0
 25 50  1  0
 27 51  1  0
 30 52  1  0
 31 53  1  0
 32 54  1  0
 33 55  1  0
 36 56  1  0
 36 57  1  0
 36 58  1  0
 37 59  1  0
 37 60  1  0
 37 61  1  0
M  END
> <Uni-Dock RESULT> 
ENERGY=   -6.754  LOWER_BOUND=    1.093  UPPER_BOUND=    1.112
INTER + INTRA:          -6.754
INTER:                  -6.754
INTRA:                   0.000
UNBOUND:                 0.000

$$$$

     RDKit          3D

 61 65  0  0  0  0  0  0  0  0999 V2000
   52.3714    8.5089   12.8438 C   0  0  0  0  0  0  0  0  0  0  0  0
   53.5330    8.9467   13.4647 C   0  0  0  0  0  0  0  0  0  0  0  0
   53.5550    9.3285   14.8115 C   0  0  0  0  0  0  0  0  0  0  0  0
   52.3688    9.2881   15.5628 C   0  0  0  0  0  0  0  0  0  0  0  0
   51.1943    8.8392   14.9554 C   0  0  0  0  0  0  0  0  0  0  0  0
   51.1830    8.4488   13.5967 C   0  0  0  0  0  0  0  0  0  0  0  0
   50.0262    8.0008   12.9276 C   0  0  0  0  0  0  0  0  0  0  0  0
   50.0799    7.6161   11.5905 C   0  0  0  0  0  0  0  0  0  0  0  0
   51.2962    7.7193   10.9486 C   0  0  0  0  0  0  0  0  0  0  0  0
   52.4275    8.1561   11.5464 N   0  0  0  0  0  0  0  0  0  0  0  0
   54.6730    9.7779   15.4682 O   0  0  0  0  0  0  0  0  0  0  0  0
   52.4638    9.6820   16.8740 O   0  0  0  0  0  0  0  0  0  0  0  0
   48.8517    7.8737   13.6440 O   0  0  0  0  0  0  0  0  0  0  0  0
   47.7443    8.4978   13.1189 C   0  0  0  0  0  0  0  0  0  0  0  0
   46.5919    7.7343   12.9623 C   0  0  0  0  0  0  0  0  0  0  0  0
   47.7289    9.8590   12.8187 C   0  0  0  0  0  0  0  0  0  0  0  0
   46.5590   10.4528   12.3330 C   0  0  0  0  0  0  0  0  0  0  0  0
   45.4017    9.6921   12.1527 C   0  0  0  0  0  0  0  0  0  0  0  0
   45.4293    8.3267   12.4658 C   0  0  0  0  0  0  0  0  0  0  0  0
   44.1884   10.2150   11.6682 N   0  0  0  0  0  0  0  0  0  0  0  0
   43.8789   11.5354   11.4288 C   0  0  0  0  0  0  0  0  0  0  0  0
   44.5717   12.5224   11.6217 O   0  0  0  0  0  0  0  0  0  0  0  0
   42.4810   11.7271   10.9255 C   0  0  0  0  0  0  0  0  0  0  0  0
   42.1337   11.1462    9.5546 C   0  0  0  0  0  0  0  0  0  0  0  0
   42.2706   12.6270    9.7078 C   0  0  0  0  0  0  0  0  0  0  0  0
   41.4188   11.7277   11.9842 C   0  0  0  0  0  0  0  0  0  0  0  0
   41.3642   12.9084   12.6953 N   0  0  0  0  0  0  0  0  0  0  0  0
   40.7425   10.7215   12.1363 O   0  0  0  0  0  0  0  0  0  0  0  0
   40.5205   13.2227   13.7772 C   0  0  0  0  0  0  0  0  0  0  0  0
   38.7646   12.7319   15.3796 C   0  0  0  0  0  0  0  0  0  0  0  0
   39.5575   12.3494   14.2927 C   0  0  0  0  0  0  0  0  0  0  0  0
   40.6777   14.4873   14.3623 C   0  0  0  0  0  0  0  0  0  0  0  0
   39.8836   14.8704   15.4466 C   0  0  0  0  0  0  0  0  0  0  0  0
   38.9346   13.9874   15.9454 C   0  0  0  0  0  0  0  0  0  0  0  0
   38.1695   14.3534   16.9824 F   0  0  0  0  0  0  0  0  0  0  0  0
   55.9256    9.5921   14.8232 C   0  0  0  0  0  0  0  0  0  0  0  0
   51.2516    9.8828   17.5855 C   0  0  0  0  0  0  0  0  0  0  0  0
   54.4287    8.9873   12.8528 H   0  0  0  0  0  0  0  0  0  0  0  0
   50.2672    8.7782   15.5189 H   0  0  0  0  0  0  0  0  0  0  0  0
   49.2062    7.2410   11.0670 H   0  0  0  0  0  0  0  0  0  0  0  0
   51.4048    7.4393    9.9049 H   0  0  0  0  0  0  0  0  0  0  0  0
   46.5990    6.6796   13.2219 H   0  0  0  0  0  0  0  0  0  0  0  0
   48.6146   10.4694   12.9669 H   0  0  0  0  0  0  0  0  0  0  0  0
   46.5863   11.5131   12.1029 H   0  0  0  0  0  0  0  0  0  0  0  0
   44.5446    7.7083   12.3454 H   0  0  0  0  0  0  0  0  0  0  0  0
   43.4270    9.5539   11.5504 H   0  0  0  0  0  0  0  0  0  0  0  0
   42.9050   10.6259    8.9967 H   0  0  0  0  0  0  0  0  0  0  0  0
   41.1382   10.7388    9.4073 H   0  0  0  0  0  0  0  0  0  0  0  0
   41.3663   13.2255    9.6528 H   0  0  0  0  0  0  0  0  0  0  0  0
   43.1406   13.1061    9.2694 H   0  0  0  0  0  0  0  0  0  0  0  0
   42.0461   13.6166   12.4355 H   0  0  0  0  0  0  0  0  0  0  0  0
   38.0182   12.0538   15.7847 H   0  0  0  0  0  0  0  0  0  0  0  0
   39.3973   11.3609   13.8753 H   0  0  0  0  0  0  0  0  0  0  0  0
   41.4176   15.1886   13.9835 H   0  0  0  0  0  0  0  0  0  0  0  0
   40.0021   15.8474   15.9035 H   0  0  0  0  0  0  0  0  0  0  0  0
   56.7118    9.8678   15.5327 H   0  0  0  0  0  0  0  0  0  0  0  0
   56.0187   10.2503   13.9525 H   0  0  0  0  0  0  0  0  0  0  0  0
   56.0801    8.5440   14.5469 H   0  0  0  0  0  0  0  0  0  0  0  0
   50.7396    8.9305   17.7623 H   0  0  0  0  0  0  0  0  0  0  0  0
   50.5974   10.5939   17.0694 H   0  0  0  0  0  0  0  0  0  0  0  0
   51.5047   10.3115   18.5607 H   0  0  0  0  0  0  0  0  0  0  0  0
  1  2  2  0
  1  6  1  0
  1 10  1  0
  2  3  1  0
  3  4  2  0
  4  5  1  0
  5  6  2  0
  6  7  1  0
  7  8  2  0
  8  9  1  0
  9 10  2  0
  3 11  1  0
  4 12  1  0
  7 13  1  0
 13 14  1  0
 15 14  2  0
 14 16  1  0
 15 19  1  0
 16 17  2  0
 17 18  1  0
 18 19  2  0
 18 20  1  0
 20 21  1  0
 21 22  2  0
 21 23  1  0
 23 24  1  0
 24 25  1  0
 25 23  1  0
 23 26  1  0
 26 27  1  0
 26 28  2  0
 27 29  1  0
 31 29  1  0
 29 32  2  0
 30 31  2  0
 30 34  1  0
 32 33  1  0
 33 34  2  0
 34 35  1  0
 11 36  1  0
 12 37  1  0
  2 38  1  0
  5 39  1  0
  8 40  1  0
  9 41  1  0
 15 42  1  0
 16 43  1  0
 17 44  1  0
 19 45  1  0
 20 46  1  0
 24 47  1  0
 24 48  1  0
 25 49  1  0
 25 50  1  0
 27 51  1  0
 30 52  1  0
 31 53  1  0
 32 54  1  0
 33 55  1  0
 36 56  1  0
 36 57  1  0
 36 58  1  0
 37 59  1  0
 37 60  1  0
 37 61  1  0
M  END
> <Uni-Dock RESULT> 
ENERGY=   -5.201  LOWER_BOUND=    7.076  UPPER_BOUND=    9.569
INTER + INTRA:          -5.201
INTER:                  -5.201
INTRA:                   0.000
UNBOUND:                 0.000

$$$$

     RDKit          3D

 61 65  0  0  0  0  0  0  0  0999 V2000
   55.8482    1.1527   16.6197 C   0  0  0  0  0  0  0  0  0  0  0  0
   56.2356    0.9486   15.3026 C   0  0  0  0  0  0  0  0  0  0  0  0
   56.5127    2.0142   14.4378 C   0  0  0  0  0  0  0  0  0  0  0  0
   56.3820    3.3341   14.9002 C   0  0  0  0  0  0  0  0  0  0  0  0
   56.0041    3.5557   16.2261 C   0  0  0  0  0  0  0  0  0  0  0  0
   55.7331    2.4734   17.0943 C   0  0  0  0  0  0  0  0  0  0  0  0
   55.3354    2.6362   18.4367 C   0  0  0  0  0  0  0  0  0  0  0  0
   55.0956    1.5305   19.2483 C   0  0  0  0  0  0  0  0  0  0  0  0
   55.2349    0.2824   18.6783 C   0  0  0  0  0  0  0  0  0  0  0  0
   55.6008    0.0793   17.3926 N   0  0  0  0  0  0  0  0  0  0  0  0
   56.8882    1.8662   13.1263 O   0  0  0  0  0  0  0  0  0  0  0  0
   56.6640    4.3276   13.9964 O   0  0  0  0  0  0  0  0  0  0  0  0
   55.2642    3.9136   18.9582 O   0  0  0  0  0  0  0  0  0  0  0  0
   54.0839    4.2579   19.5745 C   0  0  0  0  0  0  0  0  0  0  0  0
   54.1616    4.7853   20.8595 C   0  0  0  0  0  0  0  0  0  0  0  0
   52.8517    4.1631   18.9295 C   0  0  0  0  0  0  0  0  0  0  0  0
   51.6872    4.5741   19.5867 C   0  0  0  0  0  0  0  0  0  0  0  0
   51.7504    5.0864   20.8844 C   0  0  0  0  0  0  0  0  0  0  0  0
   52.9964    5.1833   21.5177 C   0  0  0  0  0  0  0  0  0  0  0  0
   50.6257    5.5188   21.6113 N   0  0  0  0  0  0  0  0  0  0  0  0
   49.3322    5.6511   21.1574 C   0  0  0  0  0  0  0  0  0  0  0  0
   48.9021    5.4602   20.0305 O   0  0  0  0  0  0  0  0  0  0  0  0
   48.3911    6.1533   22.2092 C   0  0  0  0  0  0  0  0  0  0  0  0
   48.1312    5.2537   23.4177 C   0  0  0  0  0  0  0  0  0  0  0  0
   47.0588    5.4260   22.3906 C   0  0  0  0  0  0  0  0  0  0  0  0
   48.4094    7.6377   22.4221 C   0  0  0  0  0  0  0  0  0  0  0  0
   47.7393    8.3338   21.4377 N   0  0  0  0  0  0  0  0  0  0  0  0
   49.0093    8.0837   23.3886 O   0  0  0  0  0  0  0  0  0  0  0  0
   47.6038    9.7291   21.3113 C   0  0  0  0  0  0  0  0  0  0  0  0
   47.9673   12.0223   22.0191 C   0  0  0  0  0  0  0  0  0  0  0  0
   48.1349   10.6484   22.2215 C   0  0  0  0  0  0  0  0  0  0  0  0
   46.8987   10.2030   20.1956 C   0  0  0  0  0  0  0  0  0  0  0  0
   46.7291   11.5756   19.9949 C   0  0  0  0  0  0  0  0  0  0  0  0
   47.2665   12.4723   20.9093 C   0  0  0  0  0  0  0  0  0  0  0  0
   47.1023   13.7886   20.7213 F   0  0  0  0  0  0  0  0  0  0  0  0
   57.2741    0.5659   12.7023 C   0  0  0  0  0  0  0  0  0  0  0  0
   56.3111    5.6557   14.3538 C   0  0  0  0  0  0  0  0  0  0  0  0
   56.3072   -0.0816   14.9683 H   0  0  0  0  0  0  0  0  0  0  0  0
   55.9154    4.5662   16.6158 H   0  0  0  0  0  0  0  0  0  0  0  0
   54.8170    1.6360   20.2921 H   0  0  0  0  0  0  0  0  0  0  0  0
   55.0586   -0.6204   19.2556 H   0  0  0  0  0  0  0  0  0  0  0  0
   55.1259    4.8828   21.3499 H   0  0  0  0  0  0  0  0  0  0  0  0
   52.7849    3.7814   17.9151 H   0  0  0  0  0  0  0  0  0  0  0  0
   50.7450    4.4785   19.0564 H   0  0  0  0  0  0  0  0  0  0  0  0
   53.0820    5.5851   22.5231 H   0  0  0  0  0  0  0  0  0  0  0  0
   50.7972    5.8415   22.5585 H   0  0  0  0  0  0  0  0  0  0  0  0
   48.6273    4.2903   23.4686 H   0  0  0  0  0  0  0  0  0  0  0  0
   47.9898    5.7237   24.3862 H   0  0  0  0  0  0  0  0  0  0  0  0
   46.1831    6.0052   22.6679 H   0  0  0  0  0  0  0  0  0  0  0  0
   46.8406    4.5876   21.7365 H   0  0  0  0  0  0  0  0  0  0  0  0
   47.3359    7.7728   20.6916 H   0  0  0  0  0  0  0  0  0  0  0  0
   48.3822   12.7390   22.7228 H   0  0  0  0  0  0  0  0  0  0  0  0
   48.6879   10.3322   23.0997 H   0  0  0  0  0  0  0  0  0  0  0  0
   46.4737    9.5129   19.4706 H   0  0  0  0  0  0  0  0  0  0  0  0
   46.1852   11.9474   19.1328 H   0  0  0  0  0  0  0  0  0  0  0  0
   57.6765    0.6499   11.6882 H   0  0  0  0  0  0  0  0  0  0  0  0
   56.4090   -0.1050   12.6614 H   0  0  0  0  0  0  0  0  0  0  0  0
   58.0640    0.1566   13.3404 H   0  0  0  0  0  0  0  0  0  0  0  0
   56.9452    6.0232   15.1680 H   0  0  0  0  0  0  0  0  0  0  0  0
   55.2496    5.7318   14.6138 H   0  0  0  0  0  0  0  0  0  0  0  0
   56.4859    6.2932   13.4810 H   0  0  0  0  0  0  0  0  0  0  0  0
  1  2  2  0
  1  6  1  0
  1 10  1  0
  2  3  1  0
  3  4  2  0
  4  5  1  0
  5  6  2  0
  6  7  1  0
  7  8  2  0
  8  9  1  0
  9 10  2  0
  3 11  1  0
  4 12  1  0
  7 13  1  0
 13 14  1  0
 15 14  2  0
 14 16  1  0
 15 19  1  0
 16 17  2  0
 17 18  1  0
 18 19  2  0
 18 20  1  0
 20 21  1  0
 21 22  2  0
 21 23  1  0
 23 24  1  0
 24 25  1  0
 25 23  1  0
 23 26  1  0
 26 27  1  0
 26 28  2  0
 27 29  1  0
 31 29  1  0
 29 32  2  0
 30 31  2  0
 30 34  1  0
 32 33  1  0
 33 34  2  0
 34 35  1  0
 11 36  1  0
 12 37  1  0
  2 38  1  0
  5 39  1  0
  8 40  1  0
  9 41  1  0
 15 42  1  0
 16 43  1  0
 17 44  1  0
 19 45  1  0
 20 46  1  0
 24 47  1  0
 24 48  1  0
 25 49  1  0
 25 50  1  0
 27 51  1  0
 30 52  1  0
 31 53  1  0
 32 54  1  0
 33 55  1  0
 36 56  1  0
 36 57  1  0
 36 58  1  0
 37 59  1  0
 37 60  1  0
 37 61  1  0
M  END
> <Uni-Dock RESULT> 
ENERGY=   -4.994  LOWER_BOUND=    8.489  UPPER_BOUND=   11.217
INTER + INTRA:          -4.994
INTER:                  -4.994
INTRA:                   0.000
UNBOUND:                 0.000

$$$$

     RDKit          3D

 61 65  0  0  0  0  0  0  0  0999 V2000
   48.7808   13.0189   10.9918 C   0  0  0  0  0  0  0  0  0  0  0  0
   49.5891   14.0849   10.6220 C   0  0  0  0  0  0  0  0  0  0  0  0
   50.9122   13.9015   10.2028 C   0  0  0  0  0  0  0  0  0  0  0  0
   51.4548   12.6064   10.1674 C   0  0  0  0  0  0  0  0  0  0  0  0
   50.6508   11.5224   10.5256 C   0  0  0  0  0  0  0  0  0  0  0  0
   49.3134   11.7164   10.9408 C   0  0  0  0  0  0  0  0  0  0  0  0
   48.4600   10.6629   11.3265 C   0  0  0  0  0  0  0  0  0  0  0  0
   47.1464   10.9149   11.7133 C   0  0  0  0  0  0  0  0  0  0  0  0
   46.7305   12.2297   11.7301 C   0  0  0  0  0  0  0  0  0  0  0  0
   47.5181   13.2721   11.3817 N   0  0  0  0  0  0  0  0  0  0  0  0
   51.7546   14.9214    9.8376 O   0  0  0  0  0  0  0  0  0  0  0  0
   52.7588   12.5028    9.7522 O   0  0  0  0  0  0  0  0  0  0  0  0
   48.9250    9.3650   11.2379 O   0  0  0  0  0  0  0  0  0  0  0  0
   48.8040    8.5932   12.3698 C   0  0  0  0  0  0  0  0  0  0  0  0
   48.1909    7.3516   12.2367 C   0  0  0  0  0  0  0  0  0  0  0  0
   49.3344    8.9844   13.5981 C   0  0  0  0  0  0  0  0  0  0  0  0
   49.2257    8.1375   14.7062 C   0  0  0  0  0  0  0  0  0  0  0  0
   48.5944    6.8971   14.5894 C   0  0  0  0  0  0  0  0  0  0  0  0
   48.0727    6.5135   13.3470 C   0  0  0  0  0  0  0  0  0  0  0  0
   48.4444    5.9913   15.6559 N   0  0  0  0  0  0  0  0  0  0  0  0
   48.9889    6.0816   16.9176 C   0  0  0  0  0  0  0  0  0  0  0  0
   49.7399    6.9376   17.3586 O   0  0  0  0  0  0  0  0  0  0  0  0
   48.6265    4.9234   17.7959 C   0  0  0  0  0  0  0  0  0  0  0  0
   47.1562    4.7559   18.1799 C   0  0  0  0  0  0  0  0  0  0  0  0
   48.1330    5.2198   19.2121 C   0  0  0  0  0  0  0  0  0  0  0  0
   49.4498    3.6871   17.5894 C   0  0  0  0  0  0  0  0  0  0  0  0
   50.7047    3.7717   18.1559 N   0  0  0  0  0  0  0  0  0  0  0  0
   48.9713    2.7652   16.9459 O   0  0  0  0  0  0  0  0  0  0  0  0
   51.7354    2.8143   18.1102 C   0  0  0  0  0  0  0  0  0  0  0  0
   52.6946    0.6808   17.4620 C   0  0  0  0  0  0  0  0  0  0  0  0
   51.6186    1.5745   17.4738 C   0  0  0  0  0  0  0  0  0  0  0  0
   52.9438    3.1475   18.7387 C   0  0  0  0  0  0  0  0  0  0  0  0
   54.0179    2.2535   18.7291 C   0  0  0  0  0  0  0  0  0  0  0  0
   53.8825    1.0281   18.0893 C   0  0  0  0  0  0  0  0  0  0  0  0
   54.9093    0.1677   18.0818 F   0  0  0  0  0  0  0  0  0  0  0  0
   51.1728   16.1993    9.6179 C   0  0  0  0  0  0  0  0  0  0  0  0
   53.4054   11.2519    9.9351 C   0  0  0  0  0  0  0  0  0  0  0  0
   49.1485   15.0753   10.6801 H   0  0  0  0  0  0  0  0  0  0  0  0
   51.0386   10.5080   10.4875 H   0  0  0  0  0  0  0  0  0  0  0  0
   46.4660   10.1141   11.9854 H   0  0  0  0  0  0  0  0  0  0  0  0
   45.7196   12.4943   12.0258 H   0  0  0  0  0  0  0  0  0  0  0  0
   47.8018    7.0379   11.2723 H   0  0  0  0  0  0  0  0  0  0  0  0
   49.8419    9.9385   13.7042 H   0  0  0  0  0  0  0  0  0  0  0  0
   49.6436    8.4784   15.6480 H   0  0  0  0  0  0  0  0  0  0  0  0
   47.5835    5.5522   13.2197 H   0  0  0  0  0  0  0  0  0  0  0  0
   47.9380    5.1350   15.4530 H   0  0  0  0  0  0  0  0  0  0  0  0
   46.4343    5.4774   17.8119 H   0  0  0  0  0  0  0  0  0  0  0  0
   46.7606    3.7488   18.2685 H   0  0  0  0  0  0  0  0  0  0  0  0
   48.3913    4.5286   20.0087 H   0  0  0  0  0  0  0  0  0  0  0  0
   48.0840    6.2566   19.5302 H   0  0  0  0  0  0  0  0  0  0  0  0
   50.9249    4.6487   18.6212 H   0  0  0  0  0  0  0  0  0  0  0  0
   52.6078   -0.2817   16.9649 H   0  0  0  0  0  0  0  0  0  0  0  0
   50.7052    1.2700   16.9738 H   0  0  0  0  0  0  0  0  0  0  0  0
   53.0650    4.1038   19.2422 H   0  0  0  0  0  0  0  0  0  0  0  0
   54.9553    2.5070   19.2131 H   0  0  0  0  0  0  0  0  0  0  0  0
   51.9451   16.8514    9.1990 H   0  0  0  0  0  0  0  0  0  0  0  0
   50.8386   16.6444   10.5615 H   0  0  0  0  0  0  0  0  0  0  0  0
   50.3543   16.1452    8.8927 H   0  0  0  0  0  0  0  0  0  0  0  0
   52.9850   10.4929    9.2664 H   0  0  0  0  0  0  0  0  0  0  0  0
   53.3606   10.9271   10.9804 H   0  0  0  0  0  0  0  0  0  0  0  0
   54.4604   11.3807    9.6722 H   0  0  0  0  0  0  0  0  0  0  0  0
  1  2  2  0
  1  6  1  0
  1 10  1  0
  2  3  1  0
  3  4  2  0
  4  5  1  0
  5  6  2  0
  6  7  1  0
  7  8  2  0
  8  9  1  0
  9 10  2  0
  3 11  1  0
  4 12  1  0
  7 13  1  0
 13 14  1  0
 15 14  2  0
 14 16  1  0
 15 19  1  0
 16 17  2  0
 17 18  1  0
 18 19  2  0
 18 20  1  0
 20 21  1  0
 21 22  2  0
 21 23  1  0
 23 24  1  0
 24 25  1  0
 25 23  1  0
 23 26  1  0
 26 27  1  0
 26 28  2  0
 27 29  1  0
 31 29  1  0
 29 32  2  0
 30 31  2  0
 30 34  1  0
 32 33  1  0
 33 34  2  0
 34 35  1  0
 11 36  1  0
 12 37  1  0
  2 38  1  0
  5 39  1  0
  8 40  1  0
  9 41  1  0
 15 42  1  0
 16 43  1  0
 17 44  1  0
 19 45  1  0
 20 46  1  0
 24 47  1  0
 24 48  1  0
 25 49  1  0
 25 50  1  0
 27 51  1  0
 30 52  1  0
 31 53  1  0
 32 54  1  0
 33 55  1  0
 36 56  1  0
 36 57  1  0
 36 58  1  0
 37 59  1  0
 37 60  1  0
 37 61  1  0
M  END
> <Uni-Dock RESULT> 
ENERGY=   -4.973  LOWER_BOUND=    5.816  UPPER_BOUND=   10.215
INTER + INTRA:          -4.973
INTER:                  -4.973
INTRA:                   0.000
UNBOUND:                 0.000

$$$$

     RDKit          3D

 61 65  0  0  0  0  0  0  0  0999 V2000
   50.5062    2.4515   17.3217 C   0  0  0  0  0  0  0  0  0  0  0  0
   51.5540    1.5594   17.5026 C   0  0  0  0  0  0  0  0  0  0  0  0
   52.7852    1.9602   18.0352 C   0  0  0  0  0  0  0  0  0  0  0  0
   52.9840    3.3060   18.3849 C   0  0  0  0  0  0  0  0  0  0  0  0
   51.9356    4.2134   18.2194 C   0  0  0  0  0  0  0  0  0  0  0  0
   50.6933    3.7983   17.6875 C   0  0  0  0  0  0  0  0  0  0  0  0
   49.6051    4.6711   17.4856 C   0  0  0  0  0  0  0  0  0  0  0  0
   48.4001    4.2007   16.9702 C   0  0  0  0  0  0  0  0  0  0  0  0
   48.3288    2.8629   16.6425 C   0  0  0  0  0  0  0  0  0  0  0  0
   49.3508    1.9930   16.8063 N   0  0  0  0  0  0  0  0  0  0  0  0
   53.8545    1.1210   18.2238 O   0  0  0  0  0  0  0  0  0  0  0  0
   54.2167    3.6278   18.8951 O   0  0  0  0  0  0  0  0  0  0  0  0
   49.7276    5.9886   17.8827 O   0  0  0  0  0  0  0  0  0  0  0  0
   49.4246    6.9426   16.9394 C   0  0  0  0  0  0  0  0  0  0  0  0
   48.5177    7.9343   17.2990 C   0  0  0  0  0  0  0  0  0  0  0  0
   50.0456    6.9801   15.6920 C   0  0  0  0  0  0  0  0  0  0  0  0
   49.7354    8.0026   14.7891 C   0  0  0  0  0  0  0  0  0  0  0  0
   48.8114    8.9923   15.1312 C   0  0  0  0  0  0  0  0  0  0  0  0
   48.2006    8.9467   16.3913 C   0  0  0  0  0  0  0  0  0  0  0  0
   48.4460   10.0509   14.2789 N   0  0  0  0  0  0  0  0  0  0  0  0
   49.0051   10.3832   13.0650 C   0  0  0  0  0  0  0  0  0  0  0  0
   49.9507    9.8583   12.4980 O   0  0  0  0  0  0  0  0  0  0  0  0
   48.3693   11.5856   12.4372 C   0  0  0  0  0  0  0  0  0  0  0  0
   46.9071   11.4720   12.0055 C   0  0  0  0  0  0  0  0  0  0  0  0
   47.9769   11.5054   10.9619 C   0  0  0  0  0  0  0  0  0  0  0  0
   48.8533   12.9057   12.9588 C   0  0  0  0  0  0  0  0  0  0  0  0
   50.0932   13.2596   12.4687 N   0  0  0  0  0  0  0  0  0  0  0  0
   48.1534   13.5135   13.7548 O   0  0  0  0  0  0  0  0  0  0  0  0
   50.8493   14.4034   12.7864 C   0  0  0  0  0  0  0  0  0  0  0  0
   51.2356   16.5032   13.9413 C   0  0  0  0  0  0  0  0  0  0  0  0
   50.4194   15.4007   13.6675 C   0  0  0  0  0  0  0  0  0  0  0  0
   52.1074   14.5254   12.1792 C   0  0  0  0  0  0  0  0  0  0  0  0
   52.9217   15.6282   12.4508 C   0  0  0  0  0  0  0  0  0  0  0  0
   52.4773   16.6066   13.3308 C   0  0  0  0  0  0  0  0  0  0  0  0
   53.2543   17.6667   13.5901 F   0  0  0  0  0  0  0  0  0  0  0  0
   53.6115   -0.2757   18.1239 C   0  0  0  0  0  0  0  0  0  0  0  0
   54.5290    5.0064   19.0291 C   0  0  0  0  0  0  0  0  0  0  0  0
   51.3774    0.5310   17.2034 H   0  0  0  0  0  0  0  0  0  0  0  0
   52.0553    5.2561   18.5011 H   0  0  0  0  0  0  0  0  0  0  0  0
   47.5421    4.8517   16.8353 H   0  0  0  0  0  0  0  0  0  0  0  0
   47.4193    2.4339   16.2325 H   0  0  0  0  0  0  0  0  0  0  0  0
   48.0550    7.9177   18.2816 H   0  0  0  0  0  0  0  0  0  0  0  0
   50.7777    6.2278   15.4144 H   0  0  0  0  0  0  0  0  0  0  0  0
   50.2327    7.9954   13.8244 H   0  0  0  0  0  0  0  0  0  0  0  0
   47.4842    9.7055   16.6924 H   0  0  0  0  0  0  0  0  0  0  0  0
   47.7389   10.6894   14.6298 H   0  0  0  0  0  0  0  0  0  0  0  0
   46.3874   10.5326   12.1616 H   0  0  0  0  0  0  0  0  0  0  0  0
   46.2714   12.3456   12.1121 H   0  0  0  0  0  0  0  0  0  0  0  0
   48.0589   12.4001   10.3521 H   0  0  0  0  0  0  0  0  0  0  0  0
   48.1929   10.5874   10.4243 H   0  0  0  0  0  0  0  0  0  0  0  0
   50.5306   12.5910   11.8395 H   0  0  0  0  0  0  0  0  0  0  0  0
   50.9057   17.2777   14.6285 H   0  0  0  0  0  0  0  0  0  0  0  0
   49.4551   15.3525   14.1622 H   0  0  0  0  0  0  0  0  0  0  0  0
   52.4691   13.7666   11.4892 H   0  0  0  0  0  0  0  0  0  0  0  0
   53.8963   15.7267   11.9842 H   0  0  0  0  0  0  0  0  0  0  0  0
   54.5200   -0.7972   18.4401 H   0  0  0  0  0  0  0  0  0  0  0  0
   53.4072   -0.5640   17.0870 H   0  0  0  0  0  0  0  0  0  0  0  0
   52.8004   -0.5878   18.7898 H   0  0  0  0  0  0  0  0  0  0  0  0
   53.9260    5.4690   19.8182 H   0  0  0  0  0  0  0  0  0  0  0  0
   54.4115    5.5378   18.0784 H   0  0  0  0  0  0  0  0  0  0  0  0
   55.5804    5.0827   19.3248 H   0  0  0  0  0  0  0  0  0  0  0  0
  1  2  2  0
  1  6  1  0
  1 10  1  0
  2  3  1  0
  3  4  2  0
  4  5  1  0
  5  6  2  0
  6  7  1  0
  7  8  2  0
  8  9  1  0
  9 10  2  0
  3 11  1  0
  4 12  1  0
  7 13  1  0
 13 14  1  0
 15 14  2  0
 14 16  1  0
 15 19  1  0
 16 17  2  0
 17 18  1  0
 18 19  2  0
 18 20  1  0
 20 21  1  0
 21 22  2  0
 21 23  1  0
 23 24  1  0
 24 25  1  0
 25 23  1  0
 23 26  1  0
 26 27  1  0
 26 28  2  0
 27 29  1  0
 31 29  1  0
 29 32  2  0
 30 31  2  0
 30 34  1  0
 32 33  1  0
 33 34  2  0
 34 35  1  0
 11 36  1  0
 12 37  1  0
  2 38  1  0
  5 39  1  0
  8 40  1  0
  9 41  1  0
 15 42  1  0
 16 43  1  0
 17 44  1  0
 19 45  1  0
 20 46  1  0
 24 47  1  0
 24 48  1  0
 25 49  1  0
 25 50  1  0
 27 51  1  0
 30 52  1  0
 31 53  1  0
 32 54  1  0
 33 55  1  0
 36 56  1  0
 36 57  1  0
 36 58  1  0
 37 59  1  0
 37 60  1  0
 37 61  1  0
M  END
> <Uni-Dock RESULT> 
ENERGY=   -4.441  LOWER_BOUND=    6.319  UPPER_BOUND=    8.576
INTER + INTRA:          -4.441
INTER:                  -4.441
INTRA:                   0.000
UNBOUND:                 0.000

$$$$

     RDKit          3D

 61 65  0  0  0  0  0  0  0  0999 V2000
   46.7280   12.9065   11.7048 C   0  0  0  0  0  0  0  0  0  0  0  0
   47.0773   14.2495   11.6737 C   0  0  0  0  0  0  0  0  0  0  0  0
   48.4130   14.6675   11.6416 C   0  0  0  0  0  0  0  0  0  0  0  0
   49.4398   13.7091   11.6581 C   0  0  0  0  0  0  0  0  0  0  0  0
   49.1044   12.3537   11.6778 C   0  0  0  0  0  0  0  0  0  0  0  0
   47.7527   11.9406   11.7030 C   0  0  0  0  0  0  0  0  0  0  0  0
   47.3548   10.5888   11.7371 C   0  0  0  0  0  0  0  0  0  0  0  0
   46.0062   10.2427   11.7468 C   0  0  0  0  0  0  0  0  0  0  0  0
   45.0869   11.2707   11.7509 C   0  0  0  0  0  0  0  0  0  0  0  0
   45.4228   12.5802   11.7323 N   0  0  0  0  0  0  0  0  0  0  0  0
   48.8105   15.9808   11.6210 O   0  0  0  0  0  0  0  0  0  0  0  0
   50.7244   14.1912   11.6308 O   0  0  0  0  0  0  0  0  0  0  0  0
   48.3268    9.6087   11.6803 O   0  0  0  0  0  0  0  0  0  0  0  0
   48.2827    8.6457   12.6612 C   0  0  0  0  0  0  0  0  0  0  0  0
   48.2942    7.3153   12.2546 C   0  0  0  0  0  0  0  0  0  0  0  0
   48.3021    8.9636   14.0183 C   0  0  0  0  0  0  0  0  0  0  0  0
   48.3057    7.9419   14.9738 C   0  0  0  0  0  0  0  0  0  0  0  0
   48.2970    6.6027   14.5777 C   0  0  0  0  0  0  0  0  0  0  0  0
   48.2853    6.2976   13.2103 C   0  0  0  0  0  0  0  0  0  0  0  0
   48.2985    5.5200   15.4768 N   0  0  0  0  0  0  0  0  0  0  0  0
   48.4485    5.5646   16.8450 C   0  0  0  0  0  0  0  0  0  0  0  0
   48.6486    6.5391   17.5533 O   0  0  0  0  0  0  0  0  0  0  0  0
   48.4124    4.2094   17.4825 C   0  0  0  0  0  0  0  0  0  0  0  0
   47.1022    3.4249   17.4095 C   0  0  0  0  0  0  0  0  0  0  0  0
   47.5286    4.0161   18.7147 C   0  0  0  0  0  0  0  0  0  0  0  0
   49.7006    3.4440   17.4218 C   0  0  0  0  0  0  0  0  0  0  0  0
   50.6372    3.8879   18.3320 N   0  0  0  0  0  0  0  0  0  0  0  0
   49.8142    2.5527   16.5938 O   0  0  0  0  0  0  0  0  0  0  0  0
   51.9538    3.4224   18.5077 C   0  0  0  0  0  0  0  0  0  0  0  0
   53.8385    1.9826   17.9912 C   0  0  0  0  0  0  0  0  0  0  0  0
   52.5166    2.3797   17.7649 C   0  0  0  0  0  0  0  0  0  0  0  0
   52.7314    4.0616   19.4841 C   0  0  0  0  0  0  0  0  0  0  0  0
   54.0513    3.6630   19.7120 C   0  0  0  0  0  0  0  0  0  0  0  0
   54.5924    2.6269   18.9617 C   0  0  0  0  0  0  0  0  0  0  0  0
   55.8562    2.2403   19.1806 F   0  0  0  0  0  0  0  0  0  0  0  0
   47.8153   16.9580   11.3484 C   0  0  0  0  0  0  0  0  0  0  0  0
   51.7738   13.2702   11.8892 C   0  0  0  0  0  0  0  0  0  0  0  0
   46.2625   14.9666   11.6833 H   0  0  0  0  0  0  0  0  0  0  0  0
   49.8784   11.5910   11.6701 H   0  0  0  0  0  0  0  0  0  0  0  0
   45.6809    9.2071   11.7435 H   0  0  0  0  0  0  0  0  0  0  0  0
   44.0199   11.0685   11.7623 H   0  0  0  0  0  0  0  0  0  0  0  0
   48.3057    7.0702   11.1965 H   0  0  0  0  0  0  0  0  0  0  0  0
   48.3244    9.9989   14.3449 H   0  0  0  0  0  0  0  0  0  0  0  0
   48.3133    8.2270   16.0210 H   0  0  0  0  0  0  0  0  0  0  0  0
   48.2870    5.2668   12.8682 H   0  0  0  0  0  0  0  0  0  0  0  0
   48.2587    4.5923   15.0663 H   0  0  0  0  0  0  0  0  0  0  0  0
   46.2510    3.8743   16.9092 H   0  0  0  0  0  0  0  0  0  0  0  0
   47.1557    2.3464   17.2967 H   0  0  0  0  0  0  0  0  0  0  0  0
   47.8613    3.3350   19.4923 H   0  0  0  0  0  0  0  0  0  0  0  0
   46.9785    4.8738   19.0893 H   0  0  0  0  0  0  0  0  0  0  0  0
   50.3566    4.6748   18.9117 H   0  0  0  0  0  0  0  0  0  0  0  0
   54.2795    1.1751   17.4128 H   0  0  0  0  0  0  0  0  0  0  0  0
   51.9567    1.8539   16.9987 H   0  0  0  0  0  0  0  0  0  0  0  0
   52.3217    4.8752   20.0781 H   0  0  0  0  0  0  0  0  0  0  0  0
   54.6574    4.1550   20.4656 H   0  0  0  0  0  0  0  0  0  0  0  0
   48.3175   17.9225   11.2260 H   0  0  0  0  0  0  0  0  0  0  0  0
   47.1181   17.0512   12.1883 H   0  0  0  0  0  0  0  0  0  0  0  0
   47.2859   16.7383   10.4156 H   0  0  0  0  0  0  0  0  0  0  0  0
   51.8760   12.5532   11.0673 H   0  0  0  0  0  0  0  0  0  0  0  0
   51.6295   12.7572   12.8463 H   0  0  0  0  0  0  0  0  0  0  0  0
   52.7074   13.8385   11.9542 H   0  0  0  0  0  0  0  0  0  0  0  0
  1  2  2  0
  1  6  1  0
  1 10  1  0
  2  3  1  0
  3  4  2  0
  4  5  1  0
  5  6  2  0
  6  7  1  0
  7  8  2  0
  8  9  1  0
  9 10  2  0
  3 11  1  0
  4 12  1  0
  7 13  1  0
 13 14  1  0
 15 14  2  0
 14 16  1  0
 15 19  1  0
 16 17  2  0
 17 18  1  0
 18 19  2  0
 18 20  1  0
 20 21  1  0
 21 22  2  0
 21 23  1  0
 23 24  1  0
 24 25  1  0
 25 23  1  0
 23 26  1  0
 26 27  1  0
 26 28  2  0
 27 29  1  0
 31 29  1  0
 29 32  2  0
 30 31  2  0
 30 34  1  0
 32 33  1  0
 33 34  2  0
 34 35  1  0
 11 36  1  0
 12 37  1  0
  2 38  1  0
  5 39  1  0
  8 40  1  0
  9 41  1  0
 15 42  1  0
 16 43  1  0
 17 44  1  0
 19 45  1  0
 20 46  1  0
 24 47  1  0
 24 48  1  0
 25 49  1  0
 25 50  1  0
 27 51  1  0
 30 52  1  0
 31 53  1  0
 32 54  1  0
 33 55  1  0
 36 56  1  0
 36 57  1  0
 36 58  1  0
 37 59  1  0
 37 60  1  0
 37 61  1  0
M  END
> <Uni-Dock RESULT> 
ENERGY=   -4.434  LOWER_BOUND=    5.600  UPPER_BOUND=   10.368
INTER + INTRA:          -4.434
INTER:                  -4.434
INTRA:                   0.000
UNBOUND:                 0.000

$$$$

     RDKit          3D

 61 65  0  0  0  0  0  0  0  0999 V2000
   49.7135   14.2349    9.9064 C   0  0  0  0  0  0  0  0  0  0  0  0
   50.7059   14.8242    9.1354 C   0  0  0  0  0  0  0  0  0  0  0  0
   51.6435   14.0638    8.4264 C   0  0  0  0  0  0  0  0  0  0  0  0
   51.5995   12.6619    8.5031 C   0  0  0  0  0  0  0  0  0  0  0  0
   50.6001   12.0538    9.2656 C   0  0  0  0  0  0  0  0  0  0  0  0
   49.6530   12.8296    9.9725 C   0  0  0  0  0  0  0  0  0  0  0  0
   48.6316   12.2720   10.7679 C   0  0  0  0  0  0  0  0  0  0  0  0
   47.7184   13.0880   11.4304 C   0  0  0  0  0  0  0  0  0  0  0  0
   47.8736   14.4520   11.2988 C   0  0  0  0  0  0  0  0  0  0  0  0
   48.8458   15.0304   10.5582 N   0  0  0  0  0  0  0  0  0  0  0  0
   52.6490   14.5972    7.6598 O   0  0  0  0  0  0  0  0  0  0  0  0
   52.5527   11.9818    7.7874 O   0  0  0  0  0  0  0  0  0  0  0  0
   48.5024   10.8974   10.8154 O   0  0  0  0  0  0  0  0  0  0  0  0
   48.4627   10.3296   12.0675 C   0  0  0  0  0  0  0  0  0  0  0  0
   47.4093    9.4648   12.3462 C   0  0  0  0  0  0  0  0  0  0  0  0
   49.4675   10.5368   13.0113 C   0  0  0  0  0  0  0  0  0  0  0  0
   49.4017    9.8945   14.2523 C   0  0  0  0  0  0  0  0  0  0  0  0
   48.3384    9.0397   14.5510 C   0  0  0  0  0  0  0  0  0  0  0  0
   47.3396    8.8345   13.5901 C   0  0  0  0  0  0  0  0  0  0  0  0
   48.2008    8.3592   15.7751 N   0  0  0  0  0  0  0  0  0  0  0  0
   49.1118    8.2915   16.8056 C   0  0  0  0  0  0  0  0  0  0  0  0
   50.2340    8.7704   16.8566 O   0  0  0  0  0  0  0  0  0  0  0  0
   48.6325    7.4621   17.9573 C   0  0  0  0  0  0  0  0  0  0  0  0
   47.4205    7.9671   18.7405 C   0  0  0  0  0  0  0  0  0  0  0  0
   48.7761    8.0354   19.3671 C   0  0  0  0  0  0  0  0  0  0  0  0
   48.7988    5.9814   17.7869 C   0  0  0  0  0  0  0  0  0  0  0  0
   50.0981    5.5576   17.9745 N   0  0  0  0  0  0  0  0  0  0  0  0
   47.8215    5.3128   17.4856 O   0  0  0  0  0  0  0  0  0  0  0  0
   50.6033    4.2502   17.8468 C   0  0  0  0  0  0  0  0  0  0  0  0
   50.3976    1.8734   17.3988 C   0  0  0  0  0  0  0  0  0  0  0  0
   49.8177    3.1406   17.5189 C   0  0  0  0  0  0  0  0  0  0  0  0
   51.9786    4.0745   18.0565 C   0  0  0  0  0  0  0  0  0  0  0  0
   52.5574    2.8079   17.9391 C   0  0  0  0  0  0  0  0  0  0  0  0
   51.7603    1.7191   17.6102 C   0  0  0  0  0  0  0  0  0  0  0  0
   52.3119    0.5032   17.5005 F   0  0  0  0  0  0  0  0  0  0  0  0
   52.5704   15.9832    7.3558 C   0  0  0  0  0  0  0  0  0  0  0  0
   52.6859   10.5899    8.0342 C   0  0  0  0  0  0  0  0  0  0  0  0
   50.7274   15.9093    9.1128 H   0  0  0  0  0  0  0  0  0  0  0  0
   50.5302   10.9711    9.3257 H   0  0  0  0  0  0  0  0  0  0  0  0
   46.9078   12.6763   12.0234 H   0  0  0  0  0  0  0  0  0  0  0  0
   47.1975   15.1435   11.7930 H   0  0  0  0  0  0  0  0  0  0  0  0
   46.6416    9.2844   11.5993 H   0  0  0  0  0  0  0  0  0  0  0  0
   50.3096   11.1860   12.7911 H   0  0  0  0  0  0  0  0  0  0  0  0
   50.1976   10.0855   14.9650 H   0  0  0  0  0  0  0  0  0  0  0  0
   46.5037    8.1696   13.7868 H   0  0  0  0  0  0  0  0  0  0  0  0
   47.3664    7.7911   15.8844 H   0  0  0  0  0  0  0  0  0  0  0  0
   46.9579    8.9019   18.4422 H   0  0  0  0  0  0  0  0  0  0  0  0
   46.7172    7.2351   19.1255 H   0  0  0  0  0  0  0  0  0  0  0  0
   48.9878    7.3552   20.1867 H   0  0  0  0  0  0  0  0  0  0  0  0
   49.2375    9.0118   19.4777 H   0  0  0  0  0  0  0  0  0  0  0  0
   50.7776    6.2845   18.1844 H   0  0  0  0  0  0  0  0  0  0  0  0
   49.7902    1.0101   17.1404 H   0  0  0  0  0  0  0  0  0  0  0  0
   48.7498    3.2243   17.3471 H   0  0  0  0  0  0  0  0  0  0  0  0
   52.6155    4.9178   18.3132 H   0  0  0  0  0  0  0  0  0  0  0  0
   53.6213    2.6669   18.0994 H   0  0  0  0  0  0  0  0  0  0  0  0
   53.3557   16.2117    6.6289 H   0  0  0  0  0  0  0  0  0  0  0  0
   52.7574   16.5906    8.2481 H   0  0  0  0  0  0  0  0  0  0  0  0
   51.6091   16.2368    6.8972 H   0  0  0  0  0  0  0  0  0  0  0  0
   51.8137   10.0415    7.6619 H   0  0  0  0  0  0  0  0  0  0  0  0
   52.8574   10.3863    9.0969 H   0  0  0  0  0  0  0  0  0  0  0  0
   53.5629   10.2361    7.4824 H   0  0  0  0  0  0  0  0  0  0  0  0
  1  2  2  0
  1  6  1  0
  1 10  1  0
  2  3  1  0
  3  4  2  0
  4  5  1  0
  5  6  2  0
  6  7  1  0
  7  8  2  0
  8  9  1  0
  9 10  2  0
  3 11  1  0
  4 12  1  0
  7 13  1  0
 13 14  1  0
 15 14  2  0
 14 16  1  0
 15 19  1  0
 16 17  2  0
 17 18  1  0
 18 19  2  0
 18 20  1  0
 20 21  1  0
 21 22  2  0
 21 23  1  0
 23 24  1  0
 24 25  1  0
 25 23  1  0
 23 26  1  0
 26 27  1  0
 26 28  2  0
 27 29  1  0
 31 29  1  0
 29 32  2  0
 30 31  2  0
 30 34  1  0
 32 33  1  0
 33 34  2  0
 34 35  1  0
 11 36  1  0
 12 37  1  0
  2 38  1  0
  5 39  1  0
  8 40  1  0
  9 41  1  0
 15 42  1  0
 16 43  1  0
 17 44  1  0
 19 45  1  0
 20 46  1  0
 24 47  1  0
 24 48  1  0
 25 49  1  0
 25 50  1  0
 27 51  1  0
 30 52  1  0
 31 53  1  0
 32 54  1  0
 33 55  1  0
 36 56  1  0
 36 57  1  0
 36 58  1  0
 37 59  1  0
 37 60  1  0
 37 61  1  0
M  END
> <Uni-Dock RESULT> 
ENERGY=   -4.332  LOWER_BOUND=    6.509  UPPER_BOUND=   10.809
INTER + INTRA:          -4.332
INTER:                  -4.332
INTRA:                   0.000
UNBOUND:                 0.000

$$$$

     RDKit          3D

 61 65  0  0  0  0  0  0  0  0999 V2000
   46.4381   12.4212    7.7781 C   0  0  0  0  0  0  0  0  0  0  0  0
   45.4709   12.0767    6.8442 C   0  0  0  0  0  0  0  0  0  0  0  0
   44.2385   11.5294    7.2208 C   0  0  0  0  0  0  0  0  0  0  0  0
   43.9677   11.3015    8.5802 C   0  0  0  0  0  0  0  0  0  0  0  0
   44.9263   11.6534    9.5326 C   0  0  0  0  0  0  0  0  0  0  0  0
   46.1652   12.2122    9.1436 C   0  0  0  0  0  0  0  0  0  0  0  0
   47.1748   12.5738   10.0584 C   0  0  0  0  0  0  0  0  0  0  0  0
   48.3706   13.1334    9.6159 C   0  0  0  0  0  0  0  0  0  0  0  0
   48.5332   13.2897    8.2553 C   0  0  0  0  0  0  0  0  0  0  0  0
   47.5983   12.9448    7.3415 N   0  0  0  0  0  0  0  0  0  0  0  0
   43.2546   11.1625    6.3373 O   0  0  0  0  0  0  0  0  0  0  0  0
   42.7428   10.7575    8.8750 O   0  0  0  0  0  0  0  0  0  0  0  0
   46.9261   12.4371   11.4105 O   0  0  0  0  0  0  0  0  0  0  0  0
   47.8598   11.7351   12.1364 C   0  0  0  0  0  0  0  0  0  0  0  0
   48.3692   12.3400   13.2809 C   0  0  0  0  0  0  0  0  0  0  0  0
   48.2407   10.4366   11.8016 C   0  0  0  0  0  0  0  0  0  0  0  0
   49.1584    9.7504   12.6041 C   0  0  0  0  0  0  0  0  0  0  0  0
   49.6918   10.3549   13.7445 C   0  0  0  0  0  0  0  0  0  0  0  0
   49.2942   11.6575   14.0733 C   0  0  0  0  0  0  0  0  0  0  0  0
   50.6191    9.7317   14.6002 N   0  0  0  0  0  0  0  0  0  0  0  0
   51.0473    8.4233   14.5647 C   0  0  0  0  0  0  0  0  0  0  0  0
   50.6867    7.5288   13.8156 O   0  0  0  0  0  0  0  0  0  0  0  0
   52.0355    8.1012   15.6435 C   0  0  0  0  0  0  0  0  0  0  0  0
   53.3942    8.8004   15.5940 C   0  0  0  0  0  0  0  0  0  0  0  0
   53.3071    7.3472   15.2542 C   0  0  0  0  0  0  0  0  0  0  0  0
   51.4370    7.8107   16.9875 C   0  0  0  0  0  0  0  0  0  0  0  0
   50.8797    6.5516   17.0710 N   0  0  0  0  0  0  0  0  0  0  0  0
   51.4697    8.6814   17.8441 O   0  0  0  0  0  0  0  0  0  0  0  0
   50.2026    5.9815   18.1654 C   0  0  0  0  0  0  0  0  0  0  0  0
   49.3156    6.0030   20.4247 C   0  0  0  0  0  0  0  0  0  0  0  0
   50.0109    6.6335   19.3876 C   0  0  0  0  0  0  0  0  0  0  0  0
   49.6914    4.6869   17.9951 C   0  0  0  0  0  0  0  0  0  0  0  0
   48.9990    4.0561   19.0322 C   0  0  0  0  0  0  0  0  0  0  0  0
   48.8171    4.7217   20.2376 C   0  0  0  0  0  0  0  0  0  0  0  0
   48.1569    4.1179   21.2347 F   0  0  0  0  0  0  0  0  0  0  0  0
   43.3865   11.6080    4.9943 C   0  0  0  0  0  0  0  0  0  0  0  0
   42.5354   10.2944   10.2012 C   0  0  0  0  0  0  0  0  0  0  0  0
   45.7175   12.2447    5.8005 H   0  0  0  0  0  0  0  0  0  0  0  0
   44.7346   11.5072   10.5922 H   0  0  0  0  0  0  0  0  0  0  0  0
   49.1473   13.4449   10.3072 H   0  0  0  0  0  0  0  0  0  0  0  0
   49.4438   13.7161    7.8449 H   0  0  0  0  0  0  0  0  0  0  0  0
   48.0507   13.3419   13.5541 H   0  0  0  0  0  0  0  0  0  0  0  0
   47.8251    9.9450   10.9272 H   0  0  0  0  0  0  0  0  0  0  0  0
   49.4374    8.7440   12.3084 H   0  0  0  0  0  0  0  0  0  0  0  0
   49.6831   12.1535   14.9578 H   0  0  0  0  0  0  0  0  0  0  0  0
   50.9579   10.2869   15.3798 H   0  0  0  0  0  0  0  0  0  0  0  0
   53.5960    9.4939   14.7845 H   0  0  0  0  0  0  0  0  0  0  0  0
   53.8632    9.0771   16.5332 H   0  0  0  0  0  0  0  0  0  0  0  0
   53.7285    6.6380   15.9602 H   0  0  0  0  0  0  0  0  0  0  0  0
   53.4328    7.0587   14.2152 H   0  0  0  0  0  0  0  0  0  0  0  0
   50.9239    5.9882   16.2256 H   0  0  0  0  0  0  0  0  0  0  0  0
   49.1619    6.5088   21.3742 H   0  0  0  0  0  0  0  0  0  0  0  0
   50.3869    7.6349   19.5689 H   0  0  0  0  0  0  0  0  0  0  0  0
   49.8248    4.1541   17.0564 H   0  0  0  0  0  0  0  0  0  0  0  0
   48.6007    3.0548   18.9050 H   0  0  0  0  0  0  0  0  0  0  0  0
   42.4617   11.3572    4.4659 H   0  0  0  0  0  0  0  0  0  0  0  0
   44.2085   11.0892    4.4890 H   0  0  0  0  0  0  0  0  0  0  0  0
   43.5130   12.6944    4.9453 H   0  0  0  0  0  0  0  0  0  0  0  0
   42.4893   11.1324   10.9052 H   0  0  0  0  0  0  0  0  0  0  0  0
   43.3027    9.5706   10.4971 H   0  0  0  0  0  0  0  0  0  0  0  0
   41.5679    9.7827   10.2280 H   0  0  0  0  0  0  0  0  0  0  0  0
  1  2  2  0
  1  6  1  0
  1 10  1  0
  2  3  1  0
  3  4  2  0
  4  5  1  0
  5  6  2  0
  6  7  1  0
  7  8  2  0
  8  9  1  0
  9 10  2  0
  3 11  1  0
  4 12  1  0
  7 13  1  0
 13 14  1  0
 15 14  2  0
 14 16  1  0
 15 19  1  0
 16 17  2  0
 17 18  1  0
 18 19  2  0
 18 20  1  0
 20 21  1  0
 21 22  2  0
 21 23  1  0
 23 24  1  0
 24 25  1  0
 25 23  1  0
 23 26  1  0
 26 27  1  0
 26 28  2  0
 27 29  1  0
 31 29  1  0
 29 32  2  0
 30 31  2  0
 30 34  1  0
 32 33  1  0
 33 34  2  0
 34 35  1  0
 11 36  1  0
 12 37  1  0
  2 38  1  0
  5 39  1  0
  8 40  1  0
  9 41  1  0
 15 42  1  0
 16 43  1  0
 17 44  1  0
 19 45  1  0
 20 46  1  0
 24 47  1  0
 24 48  1  0
 25 49  1  0
 25 50  1  0
 27 51  1  0
 30 52  1  0
 31 53  1  0
 32 54  1  0
 33 55  1  0
 36 56  1  0
 36 57  1  0
 36 58  1  0
 37 59  1  0
 37 60  1  0
 37 61  1  0
M  END
> <Uni-Dock RESULT> 
ENERGY=   -4.233  LOWER_BOUND=    6.285  UPPER_BOUND=   12.276
INTER + INTRA:          -4.233
INTER:                  -4.233
INTRA:                   0.000
UNBOUND:                 0.000

$$$$
