
     RDKit          3D

 61 65  0  0  0  0  0  0  0  0999 V2000
   51.3039   10.0711   17.1906 C   0  0  0  0  0  0  0  0  0  0  0  0
   52.4748   10.7213   16.8258 C   0  0  0  0  0  0  0  0  0  0  0  0
   53.4919   10.0741   16.1136 C   0  0  0  0  0  0  0  0  0  0  0  0
   53.3349    8.7250   15.7552 C   0  0  0  0  0  0  0  0  0  0  0  0
   52.1642    8.0572   16.1189 C   0  0  0  0  0  0  0  0  0  0  0  0
   51.1415    8.7212   16.8328 C   0  0  0  0  0  0  0  0  0  0  0  0
   49.9336    8.1053   17.2133 C   0  0  0  0  0  0  0  0  0  0  0  0
   48.9718    8.7979   17.9397 C   0  0  0  0  0  0  0  0  0  0  0  0
   49.2352   10.1165   18.2369 C   0  0  0  0  0  0  0  0  0  0  0  0
   50.3684   10.7565   17.8738 N   0  0  0  0  0  0  0  0  0  0  0  0
   54.6669   10.6694   15.7254 O   0  0  0  0  0  0  0  0  0  0  0  0
   54.3721    8.1559   15.0602 O   0  0  0  0  0  0  0  0  0  0  0  0
   49.7290    6.7730   16.9298 O   0  0  0  0  0  0  0  0  0  0  0  0
   48.7791    6.4561   15.9834 C   0  0  0  0  0  0  0  0  0  0  0  0
   48.2676    5.1603   16.0562 C   0  0  0  0  0  0  0  0  0  0  0  0
   48.3562    7.3044   14.9589 C   0  0  0  0  0  0  0  0  0  0  0  0
   47.4111    6.8632   14.0236 C   0  0  0  0  0  0  0  0  0  0  0  0
   46.8909    5.5694   14.0964 C   0  0  0  0  0  0  0  0  0  0  0  0
   47.3258    4.7213   15.1217 C   0  0  0  0  0  0  0  0  0  0  0  0
   45.9488    5.0484   13.1896 N   0  0  0  0  0  0  0  0  0  0  0  0
   45.4389    5.6583   12.0640 C   0  0  0  0  0  0  0  0  0  0  0  0
   45.7039    6.7641   11.6153 O   0  0  0  0  0  0  0  0  0  0  0  0
   44.4678    4.7937   11.3186 C   0  0  0  0  0  0  0  0  0  0  0  0
   43.1594    5.4225   10.8391 C   0  0  0  0  0  0  0  0  0  0  0  0
   43.1348    4.4807   12.0002 C   0  0  0  0  0  0  0  0  0  0  0  0
   45.0876    3.7238   10.4719 C   0  0  0  0  0  0  0  0  0  0  0  0
   45.4644    4.1670    9.2224 N   0  0  0  0  0  0  0  0  0  0  0  0
   45.2243    2.6080   10.9531 O   0  0  0  0  0  0  0  0  0  0  0  0
   46.0799    3.4226    8.1973 C   0  0  0  0  0  0  0  0  0  0  0  0
   46.9640    1.3837    7.2207 C   0  0  0  0  0  0  0  0  0  0  0  0
   46.3505    2.0527    8.2843 C   0  0  0  0  0  0  0  0  0  0  0  0
   46.4303    4.1123    7.0275 C   0  0  0  0  0  0  0  0  0  0  0  0
   47.0438    3.4438    5.9655 C   0  0  0  0  0  0  0  0  0  0  0  0
   47.3046    2.0839    6.0718 C   0  0  0  0  0  0  0  0  0  0  0  0
   47.8912    1.4411    5.0539 F   0  0  0  0  0  0  0  0  0  0  0  0
   54.8355   12.0493   16.0174 C   0  0  0  0  0  0  0  0  0  0  0  0
   54.2095    6.8184   14.6097 C   0  0  0  0  0  0  0  0  0  0  0  0
   52.5674   11.7615   17.1209 H   0  0  0  0  0  0  0  0  0  0  0  0
   52.0157    7.0137   15.8590 H   0  0  0  0  0  0  0  0  0  0  0  0
   48.0520    8.3240   18.2608 H   0  0  0  0  0  0  0  0  0  0  0  0
   48.5237   10.7185   18.7957 H   0  0  0  0  0  0  0  0  0  0  0  0
   48.6047    4.4865   16.8399 H   0  0  0  0  0  0  0  0  0  0  0  0
   48.7548    8.3096   14.8532 H   0  0  0  0  0  0  0  0  0  0  0  0
   47.1091    7.5572   13.2451 H   0  0  0  0  0  0  0  0  0  0  0  0
   46.9491    3.7043   15.2024 H   0  0  0  0  0  0  0  0  0  0  0  0
   45.6558    4.0888   13.3457 H   0  0  0  0  0  0  0  0  0  0  0  0
   42.9986    6.4777   11.0353 H   0  0  0  0  0  0  0  0  0  0  0  0
   42.7264    5.0808    9.9055 H   0  0  0  0  0  0  0  0  0  0  0  0
   42.7030    3.4963   11.8507 H   0  0  0  0  0  0  0  0  0  0  0  0
   42.9418    4.8979   12.9823 H   0  0  0  0  0  0  0  0  0  0  0  0
   45.3236    5.1552    9.0391 H   0  0  0  0  0  0  0  0  0  0  0  0
   47.1750    0.3210    7.2864 H   0  0  0  0  0  0  0  0  0  0  0  0
   46.0948    1.4736    9.1659 H   0  0  0  0  0  0  0  0  0  0  0  0
   46.2366    5.1780    6.9274 H   0  0  0  0  0  0  0  0  0  0  0  0
   47.3195    3.9740    5.0596 H   0  0  0  0  0  0  0  0  0  0  0  0
   55.8026   12.3614   15.6128 H   0  0  0  0  0  0  0  0  0  0  0  0
   54.8561   12.2244   17.0981 H   0  0  0  0  0  0  0  0  0  0  0  0
   54.0630   12.6537   15.5322 H   0  0  0  0  0  0  0  0  0  0  0  0
   55.1031    6.5479   14.0382 H   0  0  0  0  0  0  0  0  0  0  0  0
   53.3479    6.7270   13.9400 H   0  0  0  0  0  0  0  0  0  0  0  0
   54.1319    6.1255   15.4539 H   0  0  0  0  0  0  0  0  0  0  0  0
  1  2  2  0
  1  6  1  0
  1 10  1  0
  2  3  1  0
  3  4  2  0
  4  5  1  0
  5  6  2  0
  6  7  1  0
  7  8  2  0
  8  9  1  0
  9 10  2  0
  3 11  1  0
  4 12  1  0
  7 13  1  0
 13 14  1  0
 15 14  2  0
 14 16  1  0
 15 19  1  0
 16 17  2  0
 17 18  1  0
 18 19  2  0
 18 20  1  0
 20 21  1  0
 21 22  2  0
 21 23  1  0
 23 24  1  0
 24 25  1  0
 25 23  1  0
 23 26  1  0
 26 27  1  0
 26 28  2  0
 27 29  1  0
 31 29  1  0
 29 32  2  0
 30 31  2  0
 30 34  1  0
 32 33  1  0
 33 34  2  0
 34 35  1  0
 11 36  1  0
 12 37  1  0
  2 38  1  0
  5 39  1  0
  8 40  1  0
  9 41  1  0
 15 42  1  0
 16 43  1  0
 17 44  1  0
 19 45  1  0
 20 46  1  0
 24 47  1  0
 24 48  1  0
 25 49  1  0
 25 50  1  0
 27 51  1  0
 30 52  1  0
 31 53  1  0
 32 54  1  0
 33 55  1  0
 36 56  1  0
 36 57  1  0
 36 58  1  0
 37 59  1  0
 37 60  1  0
 37 61  1  0
M  END
> <Uni-Dock RESULT> 
ENERGY=   -5.232  LOWER_BOUND=    0.000  UPPER_BOUND=    0.000
INTER + INTRA:          -5.232
INTER:                  -5.232
INTRA:                   0.000
UNBOUND:                 0.000

$$$$

     RDKit          3D

 61 65  0  0  0  0  0  0  0  0999 V2000
   41.9011   12.8956    8.6609 C   0  0  0  0  0  0  0  0  0  0  0  0
   41.0208   13.9442    8.8905 C   0  0  0  0  0  0  0  0  0  0  0  0
   40.1646   13.9649    9.9982 C   0  0  0  0  0  0  0  0  0  0  0  0
   40.1857   12.8960   10.9092 C   0  0  0  0  0  0  0  0  0  0  0  0
   41.0632   11.8327   10.6888 C   0  0  0  0  0  0  0  0  0  0  0  0
   41.9272   11.8243    9.5708 C   0  0  0  0  0  0  0  0  0  0  0  0
   42.8435   10.7885    9.3048 C   0  0  0  0  0  0  0  0  0  0  0  0
   43.6515   10.8172    8.1739 C   0  0  0  0  0  0  0  0  0  0  0  0
   43.5431   11.9151    7.3498 C   0  0  0  0  0  0  0  0  0  0  0  0
   42.6960   12.9433    7.5757 N   0  0  0  0  0  0  0  0  0  0  0  0
   39.2779   14.9765   10.2743 O   0  0  0  0  0  0  0  0  0  0  0  0
   39.3189   12.9832   11.9692 O   0  0  0  0  0  0  0  0  0  0  0  0
   42.8902    9.6900   10.1344 O   0  0  0  0  0  0  0  0  0  0  0  0
   44.0082    9.5278   10.9232 C   0  0  0  0  0  0  0  0  0  0  0  0
   44.2441    8.2277   11.3707 C   0  0  0  0  0  0  0  0  0  0  0  0
   44.8547   10.5591   11.3331 C   0  0  0  0  0  0  0  0  0  0  0  0
   45.9435   10.2860   12.1713 C   0  0  0  0  0  0  0  0  0  0  0  0
   46.1879    8.9851   12.6163 C   0  0  0  0  0  0  0  0  0  0  0  0
   45.3299    7.9572   12.2078 C   0  0  0  0  0  0  0  0  0  0  0  0
   47.2517    8.6321   13.4678 N   0  0  0  0  0  0  0  0  0  0  0  0
   48.1689    9.4728   14.0601 C   0  0  0  0  0  0  0  0  0  0  0  0
   48.2431   10.6903   13.9804 O   0  0  0  0  0  0  0  0  0  0  0  0
   49.1530    8.7478   14.9274 C   0  0  0  0  0  0  0  0  0  0  0  0
   50.6325    9.1126   14.8038 C   0  0  0  0  0  0  0  0  0  0  0  0
   50.1499    7.8162   14.2362 C   0  0  0  0  0  0  0  0  0  0  0  0
   48.6370    8.3428   16.2748 C   0  0  0  0  0  0  0  0  0  0  0  0
   48.7289    9.3439   17.2176 N   0  0  0  0  0  0  0  0  0  0  0  0
   48.1740    7.2186   16.4060 O   0  0  0  0  0  0  0  0  0  0  0  0
   48.3258    9.2925   18.5662 C   0  0  0  0  0  0  0  0  0  0  0  0
   47.4330    8.1760   20.5280 C   0  0  0  0  0  0  0  0  0  0  0  0
   47.8099    8.1470   19.1818 C   0  0  0  0  0  0  0  0  0  0  0  0
   48.4615   10.4674   19.3199 C   0  0  0  0  0  0  0  0  0  0  0  0
   48.0842   10.4963   20.6645 C   0  0  0  0  0  0  0  0  0  0  0  0
   47.5735    9.3487   21.2570 C   0  0  0  0  0  0  0  0  0  0  0  0
   47.2129    9.3742   22.5464 F   0  0  0  0  0  0  0  0  0  0  0  0
   39.2706   16.1025    9.4084 C   0  0  0  0  0  0  0  0  0  0  0  0
   39.3747   11.9603   12.9535 C   0  0  0  0  0  0  0  0  0  0  0  0
   41.0257   14.7526    8.1665 H   0  0  0  0  0  0  0  0  0  0  0  0
   41.0999   10.9912   11.3735 H   0  0  0  0  0  0  0  0  0  0  0  0
   44.3390   10.0115    7.9465 H   0  0  0  0  0  0  0  0  0  0  0  0
   44.1499   12.0053    6.4529 H   0  0  0  0  0  0  0  0  0  0  0  0
   43.5795    7.4212   11.0714 H   0  0  0  0  0  0  0  0  0  0  0  0
   44.6845   11.5881   11.0289 H   0  0  0  0  0  0  0  0  0  0  0  0
   46.5771   11.1180   12.4633 H   0  0  0  0  0  0  0  0  0  0  0  0
   45.4849    6.9343   12.5433 H   0  0  0  0  0  0  0  0  0  0  0  0
   47.3156    7.6523   13.7268 H   0  0  0  0  0  0  0  0  0  0  0  0
   50.9072    9.9015   14.1110 H   0  0  0  0  0  0  0  0  0  0  0  0
   51.2567    9.0721   15.6896 H   0  0  0  0  0  0  0  0  0  0  0  0
   50.4304    6.8996   14.7451 H   0  0  0  0  0  0  0  0  0  0  0  0
   50.1125    7.7227   13.1565 H   0  0  0  0  0  0  0  0  0  0  0  0
   49.0856   10.2350   16.8878 H   0  0  0  0  0  0  0  0  0  0  0  0
   47.0323    7.2885   21.0074 H   0  0  0  0  0  0  0  0  0  0  0  0
   47.6896    7.2125   18.6430 H   0  0  0  0  0  0  0  0  0  0  0  0
   48.8566   11.3766   18.8721 H   0  0  0  0  0  0  0  0  0  0  0  0
   48.1844   11.4039   21.2508 H   0  0  0  0  0  0  0  0  0  0  0  0
   38.5354   16.8155    9.7925 H   0  0  0  0  0  0  0  0  0  0  0  0
   38.9617   15.8202    8.3966 H   0  0  0  0  0  0  0  0  0  0  0  0
   40.2441   16.6023    9.4012 H   0  0  0  0  0  0  0  0  0  0  0  0
   38.6577   12.2150   13.7404 H   0  0  0  0  0  0  0  0  0  0  0  0
   40.3667   11.9063   13.4143 H   0  0  0  0  0  0  0  0  0  0  0  0
   39.0786   10.9935   12.5334 H   0  0  0  0  0  0  0  0  0  0  0  0
  1  2  2  0
  1  6  1  0
  1 10  1  0
  2  3  1  0
  3  4  2  0
  4  5  1  0
  5  6  2  0
  6  7  1  0
  7  8  2  0
  8  9  1  0
  9 10  2  0
  3 11  1  0
  4 12  1  0
  7 13  1  0
 13 14  1  0
 15 14  2  0
 14 16  1  0
 15 19  1  0
 16 17  2  0
 17 18  1  0
 18 19  2  0
 18 20  1  0
 20 21  1  0
 21 22  2  0
 21 23  1  0
 23 24  1  0
 24 25  1  0
 25 23  1  0
 23 26  1  0
 26 27  1  0
 26 28  2  0
 27 29  1  0
 31 29  1  0
 29 32  2  0
 30 31  2  0
 30 34  1  0
 32 33  1  0
 33 34  2  0
 34 35  1  0
 11 36  1  0
 12 37  1  0
  2 38  1  0
  5 39  1  0
  8 40  1  0
  9 41  1  0
 15 42  1  0
 16 43  1  0
 17 44  1  0
 19 45  1  0
 20 46  1  0
 24 47  1  0
 24 48  1  0
 25 49  1  0
 25 50  1  0
 27 51  1  0
 30 52  1  0
 31 53  1  0
 32 54  1  0
 33 55  1  0
 36 56  1  0
 36 57  1  0
 36 58  1  0
 37 59  1  0
 37 60  1  0
 37 61  1  0
M  END
> <Uni-Dock RESULT> 
ENERGY=   -4.865  LOWER_BOUND=    6.464  UPPER_BOUND=   11.899
INTER + INTRA:          -4.865
INTER:                  -4.865
INTRA:                   0.000
UNBOUND:                 0.000

$$$$

     RDKit          3D

 61 65  0  0  0  0  0  0  0  0999 V2000
   42.4441   13.1954    7.2128 C   0  0  0  0  0  0  0  0  0  0  0  0
   41.7082   14.3688    7.1198 C   0  0  0  0  0  0  0  0  0  0  0  0
   40.8446   14.7858    8.1400 C   0  0  0  0  0  0  0  0  0  0  0  0
   40.7081   13.9990    9.2956 C   0  0  0  0  0  0  0  0  0  0  0  0
   41.4390   12.8143    9.4012 C   0  0  0  0  0  0  0  0  0  0  0  0
   42.3120   12.4054    8.3682 C   0  0  0  0  0  0  0  0  0  0  0  0
   43.0858   11.2301    8.4245 C   0  0  0  0  0  0  0  0  0  0  0  0
   43.9086   10.8604    7.3667 C   0  0  0  0  0  0  0  0  0  0  0  0
   43.9612   11.7086    6.2832 C   0  0  0  0  0  0  0  0  0  0  0  0
   43.2555   12.8574    6.1935 N   0  0  0  0  0  0  0  0  0  0  0  0
   40.0968   15.9369    8.1011 O   0  0  0  0  0  0  0  0  0  0  0  0
   39.8438   14.4685   10.2522 O   0  0  0  0  0  0  0  0  0  0  0  0
   42.9720   10.3905    9.5105 O   0  0  0  0  0  0  0  0  0  0  0  0
   44.0454   10.3024   10.3698 C   0  0  0  0  0  0  0  0  0  0  0  0
   44.0982    9.1462   11.1485 C   0  0  0  0  0  0  0  0  0  0  0  0
   45.0154   11.2911   10.5423 C   0  0  0  0  0  0  0  0  0  0  0  0
   46.0443   11.1135   11.4764 C   0  0  0  0  0  0  0  0  0  0  0  0
   46.1054    9.9547   12.2532 C   0  0  0  0  0  0  0  0  0  0  0  0
   45.1245    8.9712   12.0807 C   0  0  0  0  0  0  0  0  0  0  0  0
   47.0986    9.7073   13.2195 N   0  0  0  0  0  0  0  0  0  0  0  0
   48.1103   10.5526   13.6207 C   0  0  0  0  0  0  0  0  0  0  0  0
   48.3478   11.6875   13.2339 O   0  0  0  0  0  0  0  0  0  0  0  0
   48.9746    9.9633   14.6941 C   0  0  0  0  0  0  0  0  0  0  0  0
   50.4913   10.0952   14.5554 C   0  0  0  0  0  0  0  0  0  0  0  0
   49.8490    8.7662   14.3174 C   0  0  0  0  0  0  0  0  0  0  0  0
   48.3874    9.9931   16.0725 C   0  0  0  0  0  0  0  0  0  0  0  0
   48.5971   11.1868   16.7289 N   0  0  0  0  0  0  0  0  0  0  0  0
   47.7763    9.0095   16.4654 O   0  0  0  0  0  0  0  0  0  0  0  0
   48.1691   11.5413   18.0230 C   0  0  0  0  0  0  0  0  0  0  0  0
   47.1036   11.0984   20.1587 C   0  0  0  0  0  0  0  0  0  0  0  0
   47.4948   10.6709   18.8862 C   0  0  0  0  0  0  0  0  0  0  0  0
   48.4484   12.8462   18.4545 C   0  0  0  0  0  0  0  0  0  0  0  0
   48.0567   13.2733   19.7254 C   0  0  0  0  0  0  0  0  0  0  0  0
   47.3878   12.3942   20.5670 C   0  0  0  0  0  0  0  0  0  0  0  0
   47.0130   12.8015   21.7865 F   0  0  0  0  0  0  0  0  0  0  0  0
   40.2540   16.7884    6.9751 C   0  0  0  0  0  0  0  0  0  0  0  0
   39.7464   13.7405   11.4684 C   0  0  0  0  0  0  0  0  0  0  0  0
   41.8327   14.9521    6.2131 H   0  0  0  0  0  0  0  0  0  0  0  0
   41.3519   12.1838   10.2806 H   0  0  0  0  0  0  0  0  0  0  0  0
   44.4858    9.9440    7.3896 H   0  0  0  0  0  0  0  0  0  0  0  0
   44.5889   11.4842    5.4251 H   0  0  0  0  0  0  0  0  0  0  0  0
   43.3367    8.3789   11.0339 H   0  0  0  0  0  0  0  0  0  0  0  0
   44.9891   12.2173    9.9750 H   0  0  0  0  0  0  0  0  0  0  0  0
   46.7786   11.9071   11.5758 H   0  0  0  0  0  0  0  0  0  0  0  0
   45.1358    8.0609   12.6758 H   0  0  0  0  0  0  0  0  0  0  0  0
   47.0268    8.8296   13.7251 H   0  0  0  0  0  0  0  0  0  0  0  0
   50.8801   10.6343   13.6975 H   0  0  0  0  0  0  0  0  0  0  0  0
   51.0902   10.2107   15.4520 H   0  0  0  0  0  0  0  0  0  0  0  0
   49.9962    7.9874   15.0588 H   0  0  0  0  0  0  0  0  0  0  0  0
   49.8168    8.3984   13.2978 H   0  0  0  0  0  0  0  0  0  0  0  0
   49.0750   11.9086   16.1990 H   0  0  0  0  0  0  0  0  0  0  0  0
   46.5802   10.4247   20.8297 H   0  0  0  0  0  0  0  0  0  0  0  0
   47.2594    9.6504   18.6011 H   0  0  0  0  0  0  0  0  0  0  0  0
   48.9686   13.5496   17.8080 H   0  0  0  0  0  0  0  0  0  0  0  0
   48.2679   14.2830   20.0623 H   0  0  0  0  0  0  0  0  0  0  0  0
   39.6146   17.6631    7.1249 H   0  0  0  0  0  0  0  0  0  0  0  0
   39.9265   16.2917    6.0559 H   0  0  0  0  0  0  0  0  0  0  0  0
   41.2855   17.1433    6.8885 H   0  0  0  0  0  0  0  0  0  0  0  0
   39.0573   14.2800   12.1258 H   0  0  0  0  0  0  0  0  0  0  0  0
   40.7148   13.6858   11.9769 H   0  0  0  0  0  0  0  0  0  0  0  0
   39.3305   12.7423   11.2972 H   0  0  0  0  0  0  0  0  0  0  0  0
  1  2  2  0
  1  6  1  0
  1 10  1  0
  2  3  1  0
  3  4  2  0
  4  5  1  0
  5  6  2  0
  6  7  1  0
  7  8  2  0
  8  9  1  0
  9 10  2  0
  3 11  1  0
  4 12  1  0
  7 13  1  0
 13 14  1  0
 15 14  2  0
 14 16  1  0
 15 19  1  0
 16 17  2  0
 17 18  1  0
 18 19  2  0
 18 20  1  0
 20 21  1  0
 21 22  2  0
 21 23  1  0
 23 24  1  0
 24 25  1  0
 25 23  1  0
 23 26  1  0
 26 27  1  0
 26 28  2  0
 27 29  1  0
 31 29  1  0
 29 32  2  0
 30 31  2  0
 30 34  1  0
 32 33  1  0
 33 34  2  0
 34 35  1  0
 11 36  1  0
 12 37  1  0
  2 38  1  0
  5 39  1  0
  8 40  1  0
  9 41  1  0
 15 42  1  0
 16 43  1  0
 17 44  1  0
 19 45  1  0
 20 46  1  0
 24 47  1  0
 24 48  1  0
 25 49  1  0
 25 50  1  0
 27 51  1  0
 30 52  1  0
 31 53  1  0
 32 54  1  0
 33 55  1  0
 36 56  1  0
 36 57  1  0
 36 58  1  0
 37 59  1  0
 37 60  1  0
 37 61  1  0
M  END
> <Uni-Dock RESULT> 
ENERGY=   -4.707  LOWER_BOUND=    7.124  UPPER_BOUND=   12.541
INTER + INTRA:          -4.707
INTER:                  -4.707
INTRA:                   0.000
UNBOUND:                 0.000

$$$$

     RDKit          3D

 61 65  0  0  0  0  0  0  0  0999 V2000
   49.3152   15.7579   15.0195 C   0  0  0  0  0  0  0  0  0  0  0  0
   50.4752   16.4508   14.7012 C   0  0  0  0  0  0  0  0  0  0  0  0
   51.5041   16.6418   15.6315 C   0  0  0  0  0  0  0  0  0  0  0  0
   51.3676   16.1243   16.9302 C   0  0  0  0  0  0  0  0  0  0  0  0
   50.2046   15.4287   17.2656 C   0  0  0  0  0  0  0  0  0  0  0  0
   49.1746   15.2366   16.3176 C   0  0  0  0  0  0  0  0  0  0  0  0
   47.9871   14.5313   16.5925 C   0  0  0  0  0  0  0  0  0  0  0  0
   46.9931   14.3957   15.6302 C   0  0  0  0  0  0  0  0  0  0  0  0
   47.2357   14.9467   14.3918 C   0  0  0  0  0  0  0  0  0  0  0  0
   48.3682   15.6118   14.0742 N   0  0  0  0  0  0  0  0  0  0  0  0
   52.6717   17.3154   15.3693 O   0  0  0  0  0  0  0  0  0  0  0  0
   52.4141   16.3510   17.7882 O   0  0  0  0  0  0  0  0  0  0  0  0
   47.7688   14.0309   17.8571 O   0  0  0  0  0  0  0  0  0  0  0  0
   47.7915   12.6629   18.0194 C   0  0  0  0  0  0  0  0  0  0  0  0
   47.1230   12.1803   19.1447 C   0  0  0  0  0  0  0  0  0  0  0  0
   48.4676   11.7695   17.1870 C   0  0  0  0  0  0  0  0  0  0  0  0
   48.4575   10.3974   17.4697 C   0  0  0  0  0  0  0  0  0  0  0  0
   47.7838    9.9087   18.5910 C   0  0  0  0  0  0  0  0  0  0  0  0
   47.1149   10.8115   19.4259 C   0  0  0  0  0  0  0  0  0  0  0  0
   47.7368    8.5483   18.9492 N   0  0  0  0  0  0  0  0  0  0  0  0
   48.3788    7.4947   18.3353 C   0  0  0  0  0  0  0  0  0  0  0  0
   49.1255    7.5220   17.3679 O   0  0  0  0  0  0  0  0  0  0  0  0
   48.1176    6.1795   19.0050 C   0  0  0  0  0  0  0  0  0  0  0  0
   47.7784    4.9751   18.1266 C   0  0  0  0  0  0  0  0  0  0  0  0
   46.6958    5.6206   18.9310 C   0  0  0  0  0  0  0  0  0  0  0  0
   48.8985    5.9384   20.2611 C   0  0  0  0  0  0  0  0  0  0  0  0
   50.1594    5.4319   20.0307 N   0  0  0  0  0  0  0  0  0  0  0  0
   48.3814    6.2261   21.3313 O   0  0  0  0  0  0  0  0  0  0  0  0
   51.1418    5.1075   20.9864 C   0  0  0  0  0  0  0  0  0  0  0  0
   51.9706    4.8563   23.2541 C   0  0  0  0  0  0  0  0  0  0  0  0
   50.9443    5.1990   22.3684 C   0  0  0  0  0  0  0  0  0  0  0  0
   52.3821    4.6647   20.5043 C   0  0  0  0  0  0  0  0  0  0  0  0
   53.4075    4.3233   21.3893 C   0  0  0  0  0  0  0  0  0  0  0  0
   53.1917    4.4217   22.7576 C   0  0  0  0  0  0  0  0  0  0  0  0
   54.1730    4.0931   23.6076 F   0  0  0  0  0  0  0  0  0  0  0  0
   52.8715   17.8009   14.0494 C   0  0  0  0  0  0  0  0  0  0  0  0
   52.3446   15.7690   19.0823 C   0  0  0  0  0  0  0  0  0  0  0  0
   50.5485   16.8415   13.6914 H   0  0  0  0  0  0  0  0  0  0  0  0
   50.0691   15.0201   18.2621 H   0  0  0  0  0  0  0  0  0  0  0  0
   46.0646   13.8791   15.8416 H   0  0  0  0  0  0  0  0  0  0  0  0
   46.5045   14.8716   13.5914 H   0  0  0  0  0  0  0  0  0  0  0  0
   46.6089   12.8706   19.8087 H   0  0  0  0  0  0  0  0  0  0  0  0
   49.0237   12.1123   16.3189 H   0  0  0  0  0  0  0  0  0  0  0  0
   48.9946    9.7387   16.7940 H   0  0  0  0  0  0  0  0  0  0  0  0
   46.5885   10.4667   20.3130 H   0  0  0  0  0  0  0  0  0  0  0  0
   47.2209    8.3222   19.7940 H   0  0  0  0  0  0  0  0  0  0  0  0
   47.7667    5.1158   17.0505 H   0  0  0  0  0  0  0  0  0  0  0  0
   48.1155    3.9917   18.4350 H   0  0  0  0  0  0  0  0  0  0  0  0
   46.3115    5.0852   19.7932 H   0  0  0  0  0  0  0  0  0  0  0  0
   45.9412    6.1866   18.3962 H   0  0  0  0  0  0  0  0  0  0  0  0
   50.4255    5.3252   19.0571 H   0  0  0  0  0  0  0  0  0  0  0  0
   51.8195    4.9269   24.3266 H   0  0  0  0  0  0  0  0  0  0  0  0
   50.0016    5.5316   22.7911 H   0  0  0  0  0  0  0  0  0  0  0  0
   52.5704    4.5842   19.4359 H   0  0  0  0  0  0  0  0  0  0  0  0
   54.3699    3.9832   21.0208 H   0  0  0  0  0  0  0  0  0  0  0  0
   53.8556   18.2768   14.0131 H   0  0  0  0  0  0  0  0  0  0  0  0
   52.1262   18.5602   13.7911 H   0  0  0  0  0  0  0  0  0  0  0  0
   52.8725   16.9826   13.3228 H   0  0  0  0  0  0  0  0  0  0  0  0
   53.2751   16.0092   19.6065 H   0  0  0  0  0  0  0  0  0  0  0  0
   52.2697   14.6781   19.0235 H   0  0  0  0  0  0  0  0  0  0  0  0
   51.5175   16.1935   19.6608 H   0  0  0  0  0  0  0  0  0  0  0  0
  1  2  2  0
  1  6  1  0
  1 10  1  0
  2  3  1  0
  3  4  2  0
  4  5  1  0
  5  6  2  0
  6  7  1  0
  7  8  2  0
  8  9  1  0
  9 10  2  0
  3 11  1  0
  4 12  1  0
  7 13  1  0
 13 14  1  0
 15 14  2  0
 14 16  1  0
 15 19  1  0
 16 17  2  0
 17 18  1  0
 18 19  2  0
 18 20  1  0
 20 21  1  0
 21 22  2  0
 21 23  1  0
 23 24  1  0
 24 25  1  0
 25 23  1  0
 23 26  1  0
 26 27  1  0
 26 28  2  0
 27 29  1  0
 31 29  1  0
 29 32  2  0
 30 31  2  0
 30 34  1  0
 32 33  1  0
 33 34  2  0
 34 35  1  0
 11 36  1  0
 12 37  1  0
  2 38  1  0
  5 39  1  0
  8 40  1  0
  9 41  1  0
 15 42  1  0
 16 43  1  0
 17 44  1  0
 19 45  1  0
 20 46  1  0
 24 47  1  0
 24 48  1  0
 25 49  1  0
 25 50  1  0
 27 51  1  0
 30 52  1  0
 31 53  1  0
 32 54  1  0
 33 55  1  0
 36 56  1  0
 36 57  1  0
 36 58  1  0
 37 59  1  0
 37 60  1  0
 37 61  1  0
M  END
> <Uni-Dock RESULT> 
ENERGY=   -4.337  LOWER_BOUND=    7.551  UPPER_BOUND=   10.011
INTER + INTRA:          -4.337
INTER:                  -4.337
INTRA:                   0.000
UNBOUND:                 0.000

$$$$

     RDKit          3D

 61 65  0  0  0  0  0  0  0  0999 V2000
   47.6456   10.6687   20.4065 C   0  0  0  0  0  0  0  0  0  0  0  0
   47.5480   10.0090   21.6240 C   0  0  0  0  0  0  0  0  0  0  0  0
   47.4452    8.6151   21.7064 C   0  0  0  0  0  0  0  0  0  0  0  0
   47.4359    7.8511   20.5278 C   0  0  0  0  0  0  0  0  0  0  0  0
   47.5294    8.5013   19.2959 C   0  0  0  0  0  0  0  0  0  0  0  0
   47.6384    9.9082   19.2240 C   0  0  0  0  0  0  0  0  0  0  0  0
   47.7511   10.6180   18.0130 C   0  0  0  0  0  0  0  0  0  0  0  0
   47.8277   12.0060   17.9983 C   0  0  0  0  0  0  0  0  0  0  0  0
   47.8257   12.6499   19.2155 C   0  0  0  0  0  0  0  0  0  0  0  0
   47.7426   12.0112   20.4032 N   0  0  0  0  0  0  0  0  0  0  0  0
   47.3492    7.9125   22.8824 O   0  0  0  0  0  0  0  0  0  0  0  0
   47.3312    6.4921   20.6848 O   0  0  0  0  0  0  0  0  0  0  0  0
   47.7088    9.9362   16.8168 O   0  0  0  0  0  0  0  0  0  0  0  0
   48.8674    9.8693   16.0743 C   0  0  0  0  0  0  0  0  0  0  0  0
   48.6952    9.6103   14.7144 C   0  0  0  0  0  0  0  0  0  0  0  0
   50.1581    9.9837   16.5931 C   0  0  0  0  0  0  0  0  0  0  0  0
   51.2701    9.8588   15.7502 C   0  0  0  0  0  0  0  0  0  0  0  0
   51.1027    9.6065   14.3870 C   0  0  0  0  0  0  0  0  0  0  0  0
   49.8055    9.4847   13.8752 C   0  0  0  0  0  0  0  0  0  0  0  0
   52.1673    9.4564   13.4785 N   0  0  0  0  0  0  0  0  0  0  0  0
   53.5167    9.4536   13.7577 C   0  0  0  0  0  0  0  0  0  0  0  0
   54.0662    9.5681   14.8437 O   0  0  0  0  0  0  0  0  0  0  0  0
   54.3661    9.2452   12.5406 C   0  0  0  0  0  0  0  0  0  0  0  0
   55.5866   10.1454   12.3472 C   0  0  0  0  0  0  0  0  0  0  0  0
   54.3793   10.3576   11.4909 C   0  0  0  0  0  0  0  0  0  0  0  0
   54.4514    7.8288   12.0585 C   0  0  0  0  0  0  0  0  0  0  0  0
   55.4155    7.0886   12.7082 N   0  0  0  0  0  0  0  0  0  0  0  0
   53.6730    7.4629   11.1892 O   0  0  0  0  0  0  0  0  0  0  0  0
   55.7413    5.7340   12.5020 C   0  0  0  0  0  0  0  0  0  0  0  0
   55.5282    3.5926   11.3788 C   0  0  0  0  0  0  0  0  0  0  0  0
   55.1484    4.9307   11.5219 C   0  0  0  0  0  0  0  0  0  0  0  0
   56.7228    5.1778   13.3352 C   0  0  0  0  0  0  0  0  0  0  0  0
   57.1014    3.8409   13.1925 C   0  0  0  0  0  0  0  0  0  0  0  0
   56.5004    3.0600   12.2140 C   0  0  0  0  0  0  0  0  0  0  0  0
   56.8633    1.7784   12.0746 F   0  0  0  0  0  0  0  0  0  0  0  0
   47.4158    8.6463   24.0969 C   0  0  0  0  0  0  0  0  0  0  0  0
   47.4036    5.6851   19.5178 C   0  0  0  0  0  0  0  0  0  0  0  0
   47.5538   10.6276   22.5157 H   0  0  0  0  0  0  0  0  0  0  0  0
   47.5215    7.9380   18.3680 H   0  0  0  0  0  0  0  0  0  0  0  0
   47.8864   12.5618   17.0703 H   0  0  0  0  0  0  0  0  0  0  0  0
   47.8900   13.7329   19.2772 H   0  0  0  0  0  0  0  0  0  0  0  0
   47.6941    9.5015   14.3047 H   0  0  0  0  0  0  0  0  0  0  0  0
   50.3312   10.1555   17.6519 H   0  0  0  0  0  0  0  0  0  0  0  0
   52.2553    9.9573   16.1960 H   0  0  0  0  0  0  0  0  0  0  0  0
   49.6386    9.2784   12.8205 H   0  0  0  0  0  0  0  0  0  0  0  0
   51.9133    9.2661   12.5140 H   0  0  0  0  0  0  0  0  0  0  0  0
   55.8035   10.8823   13.1140 H   0  0  0  0  0  0  0  0  0  0  0  0
   56.4712    9.7325   11.8754 H   0  0  0  0  0  0  0  0  0  0  0  0
   54.4381   10.0731   10.4453 H   0  0  0  0  0  0  0  0  0  0  0  0
   53.7867   11.2481   11.6688 H   0  0  0  0  0  0  0  0  0  0  0  0
   55.9151    7.5637   13.4530 H   0  0  0  0  0  0  0  0  0  0  0  0
   55.0692    2.9677   10.6192 H   0  0  0  0  0  0  0  0  0  0  0  0
   54.3879    5.3152   10.8498 H   0  0  0  0  0  0  0  0  0  0  0  0
   57.2023    5.7732   14.1091 H   0  0  0  0  0  0  0  0  0  0  0  0
   57.8582    3.4054   13.8370 H   0  0  0  0  0  0  0  0  0  0  0  0
   47.3565    7.9321   24.9232 H   0  0  0  0  0  0  0  0  0  0  0  0
   46.5679    9.3327   24.1903 H   0  0  0  0  0  0  0  0  0  0  0  0
   48.3683    9.1776   24.1864 H   0  0  0  0  0  0  0  0  0  0  0  0
   47.3531    4.6379   19.8326 H   0  0  0  0  0  0  0  0  0  0  0  0
   48.3551    5.8281   18.9948 H   0  0  0  0  0  0  0  0  0  0  0  0
   46.5532    5.8749   18.8548 H   0  0  0  0  0  0  0  0  0  0  0  0
  1  2  2  0
  1  6  1  0
  1 10  1  0
  2  3  1  0
  3  4  2  0
  4  5  1  0
  5  6  2  0
  6  7  1  0
  7  8  2  0
  8  9  1  0
  9 10  2  0
  3 11  1  0
  4 12  1  0
  7 13  1  0
 13 14  1  0
 15 14  2  0
 14 16  1  0
 15 19  1  0
 16 17  2  0
 17 18  1  0
 18 19  2  0
 18 20  1  0
 20 21  1  0
 21 22  2  0
 21 23  1  0
 23 24  1  0
 24 25  1  0
 25 23  1  0
 23 26  1  0
 26 27  1  0
 26 28  2  0
 27 29  1  0
 31 29  1  0
 29 32  2  0
 30 31  2  0
 30 34  1  0
 32 33  1  0
 33 34  2  0
 34 35  1  0
 11 36  1  0
 12 37  1  0
  2 38  1  0
  5 39  1  0
  8 40  1  0
  9 41  1  0
 15 42  1  0
 16 43  1  0
 17 44  1  0
 19 45  1  0
 20 46  1  0
 24 47  1  0
 24 48  1  0
 25 49  1  0
 25 50  1  0
 27 51  1  0
 30 52  1  0
 31 53  1  0
 32 54  1  0
 33 55  1  0
 36 56  1  0
 36 57  1  0
 36 58  1  0
 37 59  1  0
 37 60  1  0
 37 61  1  0
M  END
> <Uni-Dock RESULT> 
ENERGY=   -4.120  LOWER_BOUND=    6.192  UPPER_BOUND=    8.580
INTER + INTRA:          -4.120
INTER:                  -4.120
INTRA:                   0.000
UNBOUND:                 0.000

$$$$

     RDKit          3D

 61 65  0  0  0  0  0  0  0  0999 V2000
   51.8333    8.6872   13.4856 C   0  0  0  0  0  0  0  0  0  0  0  0
   52.3139    8.1766   14.6837 C   0  0  0  0  0  0  0  0  0  0  0  0
   52.1604    8.8601   15.8960 C   0  0  0  0  0  0  0  0  0  0  0  0
   51.5052   10.1024   15.9118 C   0  0  0  0  0  0  0  0  0  0  0  0
   51.0202   10.6300   14.7138 C   0  0  0  0  0  0  0  0  0  0  0  0
   51.1753    9.9295   13.4965 C   0  0  0  0  0  0  0  0  0  0  0  0
   50.6943   10.4032   12.2607 C   0  0  0  0  0  0  0  0  0  0  0  0
   50.8989    9.6859   11.0876 C   0  0  0  0  0  0  0  0  0  0  0  0
   51.5566    8.4806   11.1927 C   0  0  0  0  0  0  0  0  0  0  0  0
   52.0158    7.9745   12.3584 N   0  0  0  0  0  0  0  0  0  0  0  0
   52.6130    8.4004   17.1083 O   0  0  0  0  0  0  0  0  0  0  0  0
   51.3929   10.7151   17.1344 O   0  0  0  0  0  0  0  0  0  0  0  0
   50.0770   11.6329   12.1955 O   0  0  0  0  0  0  0  0  0  0  0  0
   48.7239   11.6595   11.9375 C   0  0  0  0  0  0  0  0  0  0  0  0
   48.2347   12.8589   11.4195 C   0  0  0  0  0  0  0  0  0  0  0  0
   47.8371   10.6161   12.2077 C   0  0  0  0  0  0  0  0  0  0  0  0
   46.4698   10.7667   11.9419 C   0  0  0  0  0  0  0  0  0  0  0  0
   45.9763   11.9628   11.4168 C   0  0  0  0  0  0  0  0  0  0  0  0
   46.8704   13.0079   11.1561 C   0  0  0  0  0  0  0  0  0  0  0  0
   44.6173   12.1959   11.1339 N   0  0  0  0  0  0  0  0  0  0  0  0
   43.5516   11.3575   11.3795 C   0  0  0  0  0  0  0  0  0  0  0  0
   43.5617   10.2515   11.8999 O   0  0  0  0  0  0  0  0  0  0  0  0
   42.2365   11.9457   10.9664 C   0  0  0  0  0  0  0  0  0  0  0  0
   41.2606   11.0617   10.1896 C   0  0  0  0  0  0  0  0  0  0  0  0
   41.9935   12.1483    9.4699 C   0  0  0  0  0  0  0  0  0  0  0  0
   41.6689   12.9621   11.9101 C   0  0  0  0  0  0  0  0  0  0  0  0
   40.9544   12.4037   12.9480 N   0  0  0  0  0  0  0  0  0  0  0  0
   41.9033   14.1440   11.7011 O   0  0  0  0  0  0  0  0  0  0  0  0
   40.3072   13.0752   14.0034 C   0  0  0  0  0  0  0  0  0  0  0  0
   39.5791   15.0600   15.1962 C   0  0  0  0  0  0  0  0  0  0  0  0
   40.2430   14.4681   14.1173 C   0  0  0  0  0  0  0  0  0  0  0  0
   39.6938   12.2834   14.9851 C   0  0  0  0  0  0  0  0  0  0  0  0
   39.0313   12.8749   16.0631 C   0  0  0  0  0  0  0  0  0  0  0  0
   38.9794   14.2595   16.1584 C   0  0  0  0  0  0  0  0  0  0  0  0
   38.3432   14.8283   17.1904 F   0  0  0  0  0  0  0  0  0  0  0  0
   53.2273    7.1200   17.1411 C   0  0  0  0  0  0  0  0  0  0  0  0
   50.6623   11.9318   17.1984 C   0  0  0  0  0  0  0  0  0  0  0  0
   52.8187    7.2171   14.6374 H   0  0  0  0  0  0  0  0  0  0  0  0
   50.5125   11.5893   14.6940 H   0  0  0  0  0  0  0  0  0  0  0  0
   50.5570   10.0559   10.1286 H   0  0  0  0  0  0  0  0  0  0  0  0
   51.7439    7.8655   10.3167 H   0  0  0  0  0  0  0  0  0  0  0  0
   48.9153   13.6834   11.2229 H   0  0  0  0  0  0  0  0  0  0  0  0
   48.1777    9.6790   12.6390 H   0  0  0  0  0  0  0  0  0  0  0  0
   45.8167    9.9285   12.1653 H   0  0  0  0  0  0  0  0  0  0  0  0
   46.5191   13.9564   10.7565 H   0  0  0  0  0  0  0  0  0  0  0  0
   44.3849   13.1121   10.7628 H   0  0  0  0  0  0  0  0  0  0  0  0
   41.5495   10.0345    9.9917 H   0  0  0  0  0  0  0  0  0  0  0  0
   40.1960   11.1933   10.3484 H   0  0  0  0  0  0  0  0  0  0  0  0
   41.4321   13.0228    9.1570 H   0  0  0  0  0  0  0  0  0  0  0  0
   42.7698   11.8547    8.7721 H   0  0  0  0  0  0  0  0  0  0  0  0
   40.9329   11.3895   12.9790 H   0  0  0  0  0  0  0  0  0  0  0  0
   39.5284   16.1405   15.2865 H   0  0  0  0  0  0  0  0  0  0  0  0
   40.6976   15.1241   13.3818 H   0  0  0  0  0  0  0  0  0  0  0  0
   39.7267   11.1975   14.9287 H   0  0  0  0  0  0  0  0  0  0  0  0
   38.5579   12.2663   16.8267 H   0  0  0  0  0  0  0  0  0  0  0  0
   53.4940    6.9031   18.1795 H   0  0  0  0  0  0  0  0  0  0  0  0
   54.1505    7.1100   16.5526 H   0  0  0  0  0  0  0  0  0  0  0  0
   52.5354    6.3406   16.8073 H   0  0  0  0  0  0  0  0  0  0  0  0
   50.6330   12.2487   18.2457 H   0  0  0  0  0  0  0  0  0  0  0  0
   49.6283   11.7920   16.8658 H   0  0  0  0  0  0  0  0  0  0  0  0
   51.1607   12.7207   16.6256 H   0  0  0  0  0  0  0  0  0  0  0  0
  1  2  2  0
  1  6  1  0
  1 10  1  0
  2  3  1  0
  3  4  2  0
  4  5  1  0
  5  6  2  0
  6  7  1  0
  7  8  2  0
  8  9  1  0
  9 10  2  0
  3 11  1  0
  4 12  1  0
  7 13  1  0
 13 14  1  0
 15 14  2  0
 14 16  1  0
 15 19  1  0
 16 17  2  0
 17 18  1  0
 18 19  2  0
 18 20  1  0
 20 21  1  0
 21 22  2  0
 21 23  1  0
 23 24  1  0
 24 25  1  0
 25 23  1  0
 23 26  1  0
 26 27  1  0
 26 28  2  0
 27 29  1  0
 31 29  1  0
 29 32  2  0
 30 31  2  0
 30 34  1  0
 32 33  1  0
 33 34  2  0
 34 35  1  0
 11 36  1  0
 12 37  1  0
  2 38  1  0
  5 39  1  0
  8 40  1  0
  9 41  1  0
 15 42  1  0
 16 43  1  0
 17 44  1  0
 19 45  1  0
 20 46  1  0
 24 47  1  0
 24 48  1  0
 25 49  1  0
 25 50  1  0
 27 51  1  0
 30 52  1  0
 31 53  1  0
 32 54  1  0
 33 55  1  0
 36 56  1  0
 36 57  1  0
 36 58  1  0
 37 59  1  0
 37 60  1  0
 37 61  1  0
M  END
> <Uni-Dock RESULT> 
ENERGY=   -3.963  LOWER_BOUND=    7.088  UPPER_BOUND=    9.241
INTER + INTRA:          -3.963
INTER:                  -3.963
INTRA:                   0.000
UNBOUND:                 0.000

$$$$

     RDKit          3D

 61 65  0  0  0  0  0  0  0  0999 V2000
   49.0467   12.1581    9.8902 C   0  0  0  0  0  0  0  0  0  0  0  0
   49.9169   12.1706    8.8086 C   0  0  0  0  0  0  0  0  0  0  0  0
   51.3065   12.1272    8.9740 C   0  0  0  0  0  0  0  0  0  0  0  0
   51.8479   12.0728   10.2690 C   0  0  0  0  0  0  0  0  0  0  0  0
   50.9849   12.0635   11.3663 C   0  0  0  0  0  0  0  0  0  0  0  0
   49.5837   12.1020   11.1882 C   0  0  0  0  0  0  0  0  0  0  0  0
   48.6640   12.0795   12.2545 C   0  0  0  0  0  0  0  0  0  0  0  0
   47.2949   12.1475   12.0236 C   0  0  0  0  0  0  0  0  0  0  0  0
   46.8789   12.2002   10.7120 C   0  0  0  0  0  0  0  0  0  0  0  0
   47.7219   12.2009    9.6560 N   0  0  0  0  0  0  0  0  0  0  0  0
   52.2113   12.1342    7.9409 O   0  0  0  0  0  0  0  0  0  0  0  0
   53.2167   12.0339   10.3547 O   0  0  0  0  0  0  0  0  0  0  0  0
   49.1253   12.0667   13.5523 O   0  0  0  0  0  0  0  0  0  0  0  0
   48.9391   10.9173   14.2889 C   0  0  0  0  0  0  0  0  0  0  0  0
   48.9713   11.0798   15.6741 C   0  0  0  0  0  0  0  0  0  0  0  0
   48.7836    9.6387   13.7512 C   0  0  0  0  0  0  0  0  0  0  0  0
   48.6414    8.5310   14.5970 C   0  0  0  0  0  0  0  0  0  0  0  0
   48.6660    8.6894   15.9842 C   0  0  0  0  0  0  0  0  0  0  0  0
   48.8306    9.9736   16.5164 C   0  0  0  0  0  0  0  0  0  0  0  0
   48.5418    7.6271   16.8993 N   0  0  0  0  0  0  0  0  0  0  0  0
   48.4528    6.2811   16.6177 C   0  0  0  0  0  0  0  0  0  0  0  0
   48.4745    5.7321   15.5258 O   0  0  0  0  0  0  0  0  0  0  0  0
   48.3539    5.4308   17.8480 C   0  0  0  0  0  0  0  0  0  0  0  0
   47.3113    4.3130   17.8731 C   0  0  0  0  0  0  0  0  0  0  0  0
   47.0789    5.5470   18.6849 C   0  0  0  0  0  0  0  0  0  0  0  0
   49.6465    5.2055   18.5720 C   0  0  0  0  0  0  0  0  0  0  0  0
   50.3848    4.1613   18.0579 N   0  0  0  0  0  0  0  0  0  0  0  0
   49.9330    5.9531   19.4963 O   0  0  0  0  0  0  0  0  0  0  0  0
   51.6404    3.6995   18.4982 C   0  0  0  0  0  0  0  0  0  0  0  0
   53.5610    3.7043   19.9827 C   0  0  0  0  0  0  0  0  0  0  0  0
   52.3161    4.2188   19.6077 C   0  0  0  0  0  0  0  0  0  0  0  0
   52.2290    2.6547   17.7710 C   0  0  0  0  0  0  0  0  0  0  0  0
   53.4729    2.1414   18.1453 C   0  0  0  0  0  0  0  0  0  0  0  0
   54.1279    2.6711   19.2494 C   0  0  0  0  0  0  0  0  0  0  0  0
   55.3199    2.1791   19.6107 F   0  0  0  0  0  0  0  0  0  0  0  0
   51.6998   12.1280    6.6157 C   0  0  0  0  0  0  0  0  0  0  0  0
   53.7937   11.8936   11.6453 C   0  0  0  0  0  0  0  0  0  0  0  0
   49.4677   12.2171    7.8218 H   0  0  0  0  0  0  0  0  0  0  0  0
   51.3737   12.0252   12.3790 H   0  0  0  0  0  0  0  0  0  0  0  0
   46.5813   12.1591   12.8387 H   0  0  0  0  0  0  0  0  0  0  0  0
   45.8230   12.2477   10.4598 H   0  0  0  0  0  0  0  0  0  0  0  0
   49.1102   12.0695   16.1018 H   0  0  0  0  0  0  0  0  0  0  0  0
   48.7838    9.4704   12.6778 H   0  0  0  0  0  0  0  0  0  0  0  0
   48.5206    7.5556   14.1356 H   0  0  0  0  0  0  0  0  0  0  0  0
   48.8643   10.1321   17.5918 H   0  0  0  0  0  0  0  0  0  0  0  0
   48.5848    7.8728   17.8836 H   0  0  0  0  0  0  0  0  0  0  0  0
   46.7023    4.1635   16.9873 H   0  0  0  0  0  0  0  0  0  0  0  0
   47.5400    3.3966   18.4057 H   0  0  0  0  0  0  0  0  0  0  0  0
   47.1673    5.4728   19.7640 H   0  0  0  0  0  0  0  0  0  0  0  0
   46.3004    6.2263   18.3559 H   0  0  0  0  0  0  0  0  0  0  0  0
   49.9986    3.7038   17.2384 H   0  0  0  0  0  0  0  0  0  0  0  0
   54.0869    4.1060   20.8430 H   0  0  0  0  0  0  0  0  0  0  0  0
   51.9009    5.0240   20.2055 H   0  0  0  0  0  0  0  0  0  0  0  0
   51.7323    2.2293   16.9016 H   0  0  0  0  0  0  0  0  0  0  0  0
   53.9336    1.3351   17.5838 H   0  0  0  0  0  0  0  0  0  0  0  0
   52.5505   12.1020    5.9286 H   0  0  0  0  0  0  0  0  0  0  0  0
   51.1329   13.0412    6.4071 H   0  0  0  0  0  0  0  0  0  0  0  0
   51.0960   11.2347    6.4288 H   0  0  0  0  0  0  0  0  0  0  0  0
   54.8793   11.8311   11.5204 H   0  0  0  0  0  0  0  0  0  0  0  0
   53.4623   10.9691   12.1299 H   0  0  0  0  0  0  0  0  0  0  0  0
   53.5800   12.7678   12.2690 H   0  0  0  0  0  0  0  0  0  0  0  0
  1  2  2  0
  1  6  1  0
  1 10  1  0
  2  3  1  0
  3  4  2  0
  4  5  1  0
  5  6  2  0
  6  7  1  0
  7  8  2  0
  8  9  1  0
  9 10  2  0
  3 11  1  0
  4 12  1  0
  7 13  1  0
 13 14  1  0
 15 14  2  0
 14 16  1  0
 15 19  1  0
 16 17  2  0
 17 18  1  0
 18 19  2  0
 18 20  1  0
 20 21  1  0
 21 22  2  0
 21 23  1  0
 23 24  1  0
 24 25  1  0
 25 23  1  0
 23 26  1  0
 26 27  1  0
 26 28  2  0
 27 29  1  0
 31 29  1  0
 29 32  2  0
 30 31  2  0
 30 34  1  0
 32 33  1  0
 33 34  2  0
 34 35  1  0
 11 36  1  0
 12 37  1  0
  2 38  1  0
  5 39  1  0
  8 40  1  0
  9 41  1  0
 15 42  1  0
 16 43  1  0
 17 44  1  0
 19 45  1  0
 20 46  1  0
 24 47  1  0
 24 48  1  0
 25 49  1  0
 25 50  1  0
 27 51  1  0
 30 52  1  0
 31 53  1  0
 32 54  1  0
 33 55  1  0
 36 56  1  0
 36 57  1  0
 36 58  1  0
 37 59  1  0
 37 60  1  0
 37 61  1  0
M  END
> <Uni-Dock RESULT> 
ENERGY=   -3.942  LOWER_BOUND=    6.305  UPPER_BOUND=    8.810
INTER + INTRA:          -3.942
INTER:                  -3.942
INTRA:                   0.000
UNBOUND:                 0.000

$$$$

     RDKit          3D

 61 65  0  0  0  0  0  0  0  0999 V2000
   42.6912   14.8404    9.8614 C   0  0  0  0  0  0  0  0  0  0  0  0
   42.0896   14.5793   11.0849 C   0  0  0  0  0  0  0  0  0  0  0  0
   41.9132   13.2746   11.5615 C   0  0  0  0  0  0  0  0  0  0  0  0
   42.3512   12.1892   10.7849 C   0  0  0  0  0  0  0  0  0  0  0  0
   42.9545   12.4366    9.5505 C   0  0  0  0  0  0  0  0  0  0  0  0
   43.1328   13.7574    9.0813 C   0  0  0  0  0  0  0  0  0  0  0  0
   43.7475   14.0694    7.8533 C   0  0  0  0  0  0  0  0  0  0  0  0
   43.8724   15.3867    7.4268 C   0  0  0  0  0  0  0  0  0  0  0  0
   43.4044   16.3691    8.2706 C   0  0  0  0  0  0  0  0  0  0  0  0
   42.8287   16.1201    9.4673 N   0  0  0  0  0  0  0  0  0  0  0  0
   41.3282   12.9603   12.7635 O   0  0  0  0  0  0  0  0  0  0  0  0
   42.1443   10.9403   11.3140 O   0  0  0  0  0  0  0  0  0  0  0  0
   44.1651   13.0533    7.0225 O   0  0  0  0  0  0  0  0  0  0  0  0
   45.5213   12.8759    6.8562 C   0  0  0  0  0  0  0  0  0  0  0  0
   45.9008   12.1971    5.6980 C   0  0  0  0  0  0  0  0  0  0  0  0
   46.4980   13.2697    7.7722 C   0  0  0  0  0  0  0  0  0  0  0  0
   47.8498   13.0021    7.5197 C   0  0  0  0  0  0  0  0  0  0  0  0
   48.2353   12.3291    6.3584 C   0  0  0  0  0  0  0  0  0  0  0  0
   47.2495   11.9298    5.4483 C   0  0  0  0  0  0  0  0  0  0  0  0
   49.5691   12.0130    6.0388 N   0  0  0  0  0  0  0  0  0  0  0  0
   50.6917   12.2281    6.8084 C   0  0  0  0  0  0  0  0  0  0  0  0
   50.7624   12.7230    7.9239 O   0  0  0  0  0  0  0  0  0  0  0  0
   51.9505   11.7410    6.1569 C   0  0  0  0  0  0  0  0  0  0  0  0
   53.1768   12.6537    6.1796 C   0  0  0  0  0  0  0  0  0  0  0  0
   52.4235   12.4740    4.9006 C   0  0  0  0  0  0  0  0  0  0  0  0
   52.1722   10.2606    6.2271 C   0  0  0  0  0  0  0  0  0  0  0  0
   52.7673    9.8532    7.4016 N   0  0  0  0  0  0  0  0  0  0  0  0
   51.7962    9.5715    5.2894 O   0  0  0  0  0  0  0  0  0  0  0  0
   53.1006    8.5393    7.7841 C   0  0  0  0  0  0  0  0  0  0  0  0
   53.2811    6.1467    7.4161 C   0  0  0  0  0  0  0  0  0  0  0  0
   52.9233    7.4204    6.9633 C   0  0  0  0  0  0  0  0  0  0  0  0
   53.6444    8.3641    9.0649 C   0  0  0  0  0  0  0  0  0  0  0  0
   54.0010    7.0917    9.5173 C   0  0  0  0  0  0  0  0  0  0  0  0
   53.8165    5.9935    8.6874 C   0  0  0  0  0  0  0  0  0  0  0  0
   54.1594    4.7730    9.1189 F   0  0  0  0  0  0  0  0  0  0  0  0
   40.9273   14.0337   13.6031 C   0  0  0  0  0  0  0  0  0  0  0  0
   42.6509    9.8258   10.5933 C   0  0  0  0  0  0  0  0  0  0  0  0
   41.7586   15.4388   11.6590 H   0  0  0  0  0  0  0  0  0  0  0  0
   43.3002   11.6182    8.9267 H   0  0  0  0  0  0  0  0  0  0  0  0
   44.3185   15.6344    6.4712 H   0  0  0  0  0  0  0  0  0  0  0  0
   43.4767   17.4198    8.0028 H   0  0  0  0  0  0  0  0  0  0  0  0
   45.1454   11.8705    4.9877 H   0  0  0  0  0  0  0  0  0  0  0  0
   46.2372   13.7736    8.6987 H   0  0  0  0  0  0  0  0  0  0  0  0
   48.5757   13.3285    8.2583 H   0  0  0  0  0  0  0  0  0  0  0  0
   47.5132   11.3951    4.5387 H   0  0  0  0  0  0  0  0  0  0  0  0
   49.7174   11.5124    5.1678 H   0  0  0  0  0  0  0  0  0  0  0  0
   53.0933   13.6076    6.6905 H   0  0  0  0  0  0  0  0  0  0  0  0
   54.1613   12.2048    6.2504 H   0  0  0  0  0  0  0  0  0  0  0  0
   52.8872   11.8899    4.1121 H   0  0  0  0  0  0  0  0  0  0  0  0
   51.8412   13.3136    4.5375 H   0  0  0  0  0  0  0  0  0  0  0  0
   52.9422   10.5802    8.0878 H   0  0  0  0  0  0  0  0  0  0  0  0
   53.1441    5.2774    6.7808 H   0  0  0  0  0  0  0  0  0  0  0  0
   52.5108    7.5040    5.9628 H   0  0  0  0  0  0  0  0  0  0  0  0
   53.7933    9.2120    9.7300 H   0  0  0  0  0  0  0  0  0  0  0  0
   54.4193    6.9509   10.5087 H   0  0  0  0  0  0  0  0  0  0  0  0
   40.5158   13.6049   14.5213 H   0  0  0  0  0  0  0  0  0  0  0  0
   40.1381   14.6292   13.1325 H   0  0  0  0  0  0  0  0  0  0  0  0
   41.7817   14.6575   13.8829 H   0  0  0  0  0  0  0  0  0  0  0  0
   42.4412    8.9258   11.1800 H   0  0  0  0  0  0  0  0  0  0  0  0
   43.7367    9.8941   10.4683 H   0  0  0  0  0  0  0  0  0  0  0  0
   42.1457    9.7190    9.6277 H   0  0  0  0  0  0  0  0  0  0  0  0
  1  2  2  0
  1  6  1  0
  1 10  1  0
  2  3  1  0
  3  4  2  0
  4  5  1  0
  5  6  2  0
  6  7  1  0
  7  8  2  0
  8  9  1  0
  9 10  2  0
  3 11  1  0
  4 12  1  0
  7 13  1  0
 13 14  1  0
 15 14  2  0
 14 16  1  0
 15 19  1  0
 16 17  2  0
 17 18  1  0
 18 19  2  0
 18 20  1  0
 20 21  1  0
 21 22  2  0
 21 23  1  0
 23 24  1  0
 24 25  1  0
 25 23  1  0
 23 26  1  0
 26 27  1  0
 26 28  2  0
 27 29  1  0
 31 29  1  0
 29 32  2  0
 30 31  2  0
 30 34  1  0
 32 33  1  0
 33 34  2  0
 34 35  1  0
 11 36  1  0
 12 37  1  0
  2 38  1  0
  5 39  1  0
  8 40  1  0
  9 41  1  0
 15 42  1  0
 16 43  1  0
 17 44  1  0
 19 45  1  0
 20 46  1  0
 24 47  1  0
 24 48  1  0
 25 49  1  0
 25 50  1  0
 27 51  1  0
 30 52  1  0
 31 53  1  0
 32 54  1  0
 33 55  1  0
 36 56  1  0
 36 57  1  0
 36 58  1  0
 37 59  1  0
 37 60  1  0
 37 61  1  0
M  END
> <Uni-Dock RESULT> 
ENERGY=   -3.850  LOWER_BOUND=    8.508  UPPER_BOUND=   11.411
INTER + INTRA:          -3.850
INTER:                  -3.850
INTRA:                   0.000
UNBOUND:                 0.000

$$$$

     RDKit          3D

 61 65  0  0  0  0  0  0  0  0999 V2000
   45.8847    8.0895   12.5159 C   0  0  0  0  0  0  0  0  0  0  0  0
   44.8000    8.7690   11.9784 C   0  0  0  0  0  0  0  0  0  0  0  0
   44.8682   10.1259   11.6401 C   0  0  0  0  0  0  0  0  0  0  0  0
   46.0641   10.8321   11.8500 C   0  0  0  0  0  0  0  0  0  0  0  0
   47.1620   10.1627   12.3936 C   0  0  0  0  0  0  0  0  0  0  0  0
   47.0844    8.7916   12.7263 C   0  0  0  0  0  0  0  0  0  0  0  0
   48.1616    8.0600   13.2625 C   0  0  0  0  0  0  0  0  0  0  0  0
   48.0222    6.7182   13.5981 C   0  0  0  0  0  0  0  0  0  0  0  0
   46.8020    6.1301   13.3500 C   0  0  0  0  0  0  0  0  0  0  0  0
   45.7473    6.7847   12.8163 N   0  0  0  0  0  0  0  0  0  0  0  0
   43.8284   10.8449   11.1036 O   0  0  0  0  0  0  0  0  0  0  0  0
   46.0574   12.1579   11.4968 O   0  0  0  0  0  0  0  0  0  0  0  0
   49.3522    8.6982   13.5316 O   0  0  0  0  0  0  0  0  0  0  0  0
   50.4409    8.3840   12.7478 C   0  0  0  0  0  0  0  0  0  0  0  0
   51.6867    8.6587   13.3123 C   0  0  0  0  0  0  0  0  0  0  0  0
   50.3724    7.8796   11.4481 C   0  0  0  0  0  0  0  0  0  0  0  0
   51.5467    7.6333   10.7250 C   0  0  0  0  0  0  0  0  0  0  0  0
   52.7963    7.9000   11.2883 C   0  0  0  0  0  0  0  0  0  0  0  0
   52.8571    8.4135   12.5891 C   0  0  0  0  0  0  0  0  0  0  0  0
   54.0193    7.6912   10.6235 N   0  0  0  0  0  0  0  0  0  0  0  0
   54.2092    7.2752    9.3236 C   0  0  0  0  0  0  0  0  0  0  0  0
   53.3638    7.0142    8.4801 O   0  0  0  0  0  0  0  0  0  0  0  0
   55.6561    7.1836    8.9435 C   0  0  0  0  0  0  0  0  0  0  0  0
   56.1281    5.9422    8.1863 C   0  0  0  0  0  0  0  0  0  0  0  0
   56.4976    6.1041    9.6261 C   0  0  0  0  0  0  0  0  0  0  0  0
   56.3171    8.4923    8.6333 C   0  0  0  0  0  0  0  0  0  0  0  0
   56.1274    8.9042    7.3318 N   0  0  0  0  0  0  0  0  0  0  0  0
   56.9163    9.0680    9.5306 O   0  0  0  0  0  0  0  0  0  0  0  0
   56.6030   10.0839    6.7269 C   0  0  0  0  0  0  0  0  0  0  0  0
   57.8565   12.1625    6.7028 C   0  0  0  0  0  0  0  0  0  0  0  0
   57.4238   11.0143    7.3734 C   0  0  0  0  0  0  0  0  0  0  0  0
   56.2241   10.3190    5.3973 C   0  0  0  0  0  0  0  0  0  0  0  0
   56.6558   11.4665    4.7279 C   0  0  0  0  0  0  0  0  0  0  0  0
   57.4695   12.3783    5.3875 C   0  0  0  0  0  0  0  0  0  0  0  0
   57.8857   13.4782    4.7467 F   0  0  0  0  0  0  0  0  0  0  0  0
   42.6220   10.1500   10.8212 C   0  0  0  0  0  0  0  0  0  0  0  0
   47.2752   12.8795   11.6176 C   0  0  0  0  0  0  0  0  0  0  0  0
   43.8896    8.1966   11.8322 H   0  0  0  0  0  0  0  0  0  0  0  0
   48.0984   10.6825   12.5703 H   0  0  0  0  0  0  0  0  0  0  0  0
   48.8368    6.1549   14.0370 H   0  0  0  0  0  0  0  0  0  0  0  0
   46.6264    5.0831   13.5817 H   0  0  0  0  0  0  0  0  0  0  0  0
   51.7493    9.0687   14.3171 H   0  0  0  0  0  0  0  0  0  0  0  0
   49.4193    7.6819   10.9655 H   0  0  0  0  0  0  0  0  0  0  0  0
   51.4465    7.2386    9.7184 H   0  0  0  0  0  0  0  0  0  0  0  0
   53.8129    8.6421   13.0549 H   0  0  0  0  0  0  0  0  0  0  0  0
   54.8598    7.9337   11.1392 H   0  0  0  0  0  0  0  0  0  0  0  0
   55.3897    5.1889    7.9312 H   0  0  0  0  0  0  0  0  0  0  0  0
   56.9171    6.0475    7.4500 H   0  0  0  0  0  0  0  0  0  0  0  0
   57.5303    6.3362    9.8657 H   0  0  0  0  0  0  0  0  0  0  0  0
   56.0191    5.4482   10.3450 H   0  0  0  0  0  0  0  0  0  0  0  0
   55.5375    8.3101    6.7581 H   0  0  0  0  0  0  0  0  0  0  0  0
   58.4930   12.8857    7.2027 H   0  0  0  0  0  0  0  0  0  0  0  0
   57.7482   10.8758    8.3998 H   0  0  0  0  0  0  0  0  0  0  0  0
   55.5848    9.6176    4.8656 H   0  0  0  0  0  0  0  0  0  0  0  0
   56.3625   11.6542    3.7001 H   0  0  0  0  0  0  0  0  0  0  0  0
   41.9225   10.8619   10.3738 H   0  0  0  0  0  0  0  0  0  0  0  0
   42.1635    9.7665   11.7386 H   0  0  0  0  0  0  0  0  0  0  0  0
   42.7879    9.3482   10.0953 H   0  0  0  0  0  0  0  0  0  0  0  0
   47.0992   13.8952   11.2494 H   0  0  0  0  0  0  0  0  0  0  0  0
   48.0628   12.4352   10.9998 H   0  0  0  0  0  0  0  0  0  0  0  0
   47.5862   12.9541   12.6647 H   0  0  0  0  0  0  0  0  0  0  0  0
  1  2  2  0
  1  6  1  0
  1 10  1  0
  2  3  1  0
  3  4  2  0
  4  5  1  0
  5  6  2  0
  6  7  1  0
  7  8  2  0
  8  9  1  0
  9 10  2  0
  3 11  1  0
  4 12  1  0
  7 13  1  0
 13 14  1  0
 15 14  2  0
 14 16  1  0
 15 19  1  0
 16 17  2  0
 17 18  1  0
 18 19  2  0
 18 20  1  0
 20 21  1  0
 21 22  2  0
 21 23  1  0
 23 24  1  0
 24 25  1  0
 25 23  1  0
 23 26  1  0
 26 27  1  0
 26 28  2  0
 27 29  1  0
 31 29  1  0
 29 32  2  0
 30 31  2  0
 30 34  1  0
 32 33  1  0
 33 34  2  0
 34 35  1  0
 11 36  1  0
 12 37  1  0
  2 38  1  0
  5 39  1  0
  8 40  1  0
  9 41  1  0
 15 42  1  0
 16 43  1  0
 17 44  1  0
 19 45  1  0
 20 46  1  0
 24 47  1  0
 24 48  1  0
 25 49  1  0
 25 50  1  0
 27 51  1  0
 30 52  1  0
 31 53  1  0
 32 54  1  0
 33 55  1  0
 36 56  1  0
 36 57  1  0
 36 58  1  0
 37 59  1  0
 37 60  1  0
 37 61  1  0
M  END
> <Uni-Dock RESULT> 
ENERGY=   -3.807  LOWER_BOUND=    6.621  UPPER_BOUND=   10.142
INTER + INTRA:          -3.807
INTER:                  -3.807
INTRA:                   0.000
UNBOUND:                 0.000

$$$$
