
     RDKit          3D

 61 65  0  0  0  0  0  0  0  0999 V2000
   49.9138    8.1456   20.2679 C   0  0  0  0  0  0  0  0  0  0  0  0
   50.9296    8.6988   21.0365 C   0  0  0  0  0  0  0  0  0  0  0  0
   52.2745    8.3773   20.8292 C   0  0  0  0  0  0  0  0  0  0  0  0
   52.6198    7.4810   19.8058 C   0  0  0  0  0  0  0  0  0  0  0  0
   51.6079    6.9159   19.0249 C   0  0  0  0  0  0  0  0  0  0  0  0
   50.2486    7.2353   19.2472 C   0  0  0  0  0  0  0  0  0  0  0  0
   49.1866    6.6861   18.4944 C   0  0  0  0  0  0  0  0  0  0  0  0
   47.8723    7.0410   18.7848 C   0  0  0  0  0  0  0  0  0  0  0  0
   47.6589    7.9469   19.8025 C   0  0  0  0  0  0  0  0  0  0  0  0
   48.6456    8.4987   20.5370 N   0  0  0  0  0  0  0  0  0  0  0  0
   53.3167    8.8855   21.5663 O   0  0  0  0  0  0  0  0  0  0  0  0
   53.9572    7.2221   19.6555 O   0  0  0  0  0  0  0  0  0  0  0  0
   49.5240    5.7537   17.5272 O   0  0  0  0  0  0  0  0  0  0  0  0
   48.6344    5.5263   16.5099 C   0  0  0  0  0  0  0  0  0  0  0  0
   48.4324    6.4701   15.5093 C   0  0  0  0  0  0  0  0  0  0  0  0
   47.9953    4.2912   16.4545 C   0  0  0  0  0  0  0  0  0  0  0  0
   47.1105    4.0180   15.4101 C   0  0  0  0  0  0  0  0  0  0  0  0
   46.8769    4.9668   14.4065 C   0  0  0  0  0  0  0  0  0  0  0  0
   47.5480    6.1918   14.4619 C   0  0  0  0  0  0  0  0  0  0  0  0
   45.9662    4.6150   13.3920 N   0  0  0  0  0  0  0  0  0  0  0  0
   45.6073    5.3585   12.2886 C   0  0  0  0  0  0  0  0  0  0  0  0
   46.0279    6.4541   11.9458 O   0  0  0  0  0  0  0  0  0  0  0  0
   44.5808    4.6825   11.4306 C   0  0  0  0  0  0  0  0  0  0  0  0
   43.1875    4.4648   12.0268 C   0  0  0  0  0  0  0  0  0  0  0  0
   43.3755    5.5072   10.9713 C   0  0  0  0  0  0  0  0  0  0  0  0
   45.1108    3.6306   10.5052 C   0  0  0  0  0  0  0  0  0  0  0  0
   45.5728    4.1369    9.3113 N   0  0  0  0  0  0  0  0  0  0  0  0
   45.1056    2.4678   10.8838 O   0  0  0  0  0  0  0  0  0  0  0  0
   46.1155    3.4209    8.2275 C   0  0  0  0  0  0  0  0  0  0  0  0
   46.7648    1.3926    7.0687 C   0  0  0  0  0  0  0  0  0  0  0  0
   46.2093    2.0292    8.1838 C   0  0  0  0  0  0  0  0  0  0  0  0
   46.5795    4.1676    7.1342 C   0  0  0  0  0  0  0  0  0  0  0  0
   47.1302    3.5326    6.0192 C   0  0  0  0  0  0  0  0  0  0  0  0
   47.2193    2.1501    5.9981 C   0  0  0  0  0  0  0  0  0  0  0  0
   47.7492    1.5385    4.9294 F   0  0  0  0  0  0  0  0  0  0  0  0
   52.9945    9.7320   22.6621 C   0  0  0  0  0  0  0  0  0  0  0  0
   54.3461    6.3386   18.6155 C   0  0  0  0  0  0  0  0  0  0  0  0
   50.6319    9.3927   21.8153 H   0  0  0  0  0  0  0  0  0  0  0  0
   51.8477    6.2167   18.2302 H   0  0  0  0  0  0  0  0  0  0  0  0
   47.0270    6.6320   18.2507 H   0  0  0  0  0  0  0  0  0  0  0  0
   46.6533    8.2595   20.0691 H   0  0  0  0  0  0  0  0  0  0  0  0
   48.9635    7.4190   15.5305 H   0  0  0  0  0  0  0  0  0  0  0  0
   48.1845    3.5442   17.2165 H   0  0  0  0  0  0  0  0  0  0  0  0
   46.6172    3.0502   15.3884 H   0  0  0  0  0  0  0  0  0  0  0  0
   47.4131    6.9507   13.6990 H   0  0  0  0  0  0  0  0  0  0  0  0
   45.5427    3.6929   13.4642 H   0  0  0  0  0  0  0  0  0  0  0  0
   43.0056    4.7965   13.0438 H   0  0  0  0  0  0  0  0  0  0  0  0
   42.6505    3.5591   11.7614 H   0  0  0  0  0  0  0  0  0  0  0  0
   42.9534    5.3131    9.9905 H   0  0  0  0  0  0  0  0  0  0  0  0
   43.3202    6.5475   11.2744 H   0  0  0  0  0  0  0  0  0  0  0  0
   45.5585    5.1462    9.2214 H   0  0  0  0  0  0  0  0  0  0  0  0
   46.8430    0.3119    7.0307 H   0  0  0  0  0  0  0  0  0  0  0  0
   45.8612    1.4061    9.0032 H   0  0  0  0  0  0  0  0  0  0  0  0
   46.5232    5.2523    7.1365 H   0  0  0  0  0  0  0  0  0  0  0  0
   47.4911    4.1072    5.1718 H   0  0  0  0  0  0  0  0  0  0  0  0
   53.9291   10.0044   23.1582 H   0  0  0  0  0  0  0  0  0  0  0  0
   52.3696    9.2110   23.3943 H   0  0  0  0  0  0  0  0  0  0  0  0
   52.5199   10.6564   22.3210 H   0  0  0  0  0  0  0  0  0  0  0  0
   54.0557    6.7289   17.6352 H   0  0  0  0  0  0  0  0  0  0  0  0
   55.4369    6.2620   18.6320 H   0  0  0  0  0  0  0  0  0  0  0  0
   53.9411    5.3365   18.7789 H   0  0  0  0  0  0  0  0  0  0  0  0
  1  2  2  0
  1  6  1  0
  1 10  1  0
  2  3  1  0
  3  4  2  0
  4  5  1  0
  5  6  2  0
  6  7  1  0
  7  8  2  0
  8  9  1  0
  9 10  2  0
  3 11  1  0
  4 12  1  0
  7 13  1  0
 13 14  1  0
 15 14  2  0
 14 16  1  0
 15 19  1  0
 16 17  2  0
 17 18  1  0
 18 19  2  0
 18 20  1  0
 20 21  1  0
 21 22  2  0
 21 23  1  0
 23 24  1  0
 24 25  1  0
 25 23  1  0
 23 26  1  0
 26 27  1  0
 26 28  2  0
 27 29  1  0
 31 29  1  0
 29 32  2  0
 30 31  2  0
 30 34  1  0
 32 33  1  0
 33 34  2  0
 34 35  1  0
 11 36  1  0
 12 37  1  0
  2 38  1  0
  5 39  1  0
  8 40  1  0
  9 41  1  0
 15 42  1  0
 16 43  1  0
 17 44  1  0
 19 45  1  0
 20 46  1  0
 24 47  1  0
 24 48  1  0
 25 49  1  0
 25 50  1  0
 27 51  1  0
 30 52  1  0
 31 53  1  0
 32 54  1  0
 33 55  1  0
 36 56  1  0
 36 57  1  0
 36 58  1  0
 37 59  1  0
 37 60  1  0
 37 61  1  0
M  END
> <Uni-Dock RESULT> 
ENERGY=   -5.698  LOWER_BOUND=    0.000  UPPER_BOUND=    0.000
INTER + INTRA:          -5.698
INTER:                  -5.698
INTRA:                   0.000
UNBOUND:                 0.000

$$$$

     RDKit          3D

 61 65  0  0  0  0  0  0  0  0999 V2000
   49.8378    9.0160   19.8384 C   0  0  0  0  0  0  0  0  0  0  0  0
   50.8338    9.6667   20.5548 C   0  0  0  0  0  0  0  0  0  0  0  0
   52.1908    9.4054   20.3416 C   0  0  0  0  0  0  0  0  0  0  0  0
   52.5684    8.4701   19.3657 C   0  0  0  0  0  0  0  0  0  0  0  0
   51.5767    7.8070   18.6377 C   0  0  0  0  0  0  0  0  0  0  0  0
   50.2057    8.0662   18.8662 C   0  0  0  0  0  0  0  0  0  0  0  0
   49.1636    7.4180   18.1663 C   0  0  0  0  0  0  0  0  0  0  0  0
   47.8366    7.7191   18.4599 C   0  0  0  0  0  0  0  0  0  0  0  0
   47.5901    8.6707   19.4271 C   0  0  0  0  0  0  0  0  0  0  0  0
   48.5566    9.3164   20.1100 N   0  0  0  0  0  0  0  0  0  0  0  0
   53.2152   10.0108   21.0287 O   0  0  0  0  0  0  0  0  0  0  0  0
   53.9154    8.2742   19.2060 O   0  0  0  0  0  0  0  0  0  0  0  0
   49.5360    6.4495   17.2486 O   0  0  0  0  0  0  0  0  0  0  0  0
   48.6445    6.1157   16.2629 C   0  0  0  0  0  0  0  0  0  0  0  0
   48.3764    6.9868   15.2131 C   0  0  0  0  0  0  0  0  0  0  0  0
   48.0724    4.8472   16.2911 C   0  0  0  0  0  0  0  0  0  0  0  0
   47.1879    4.4664   15.2807 C   0  0  0  0  0  0  0  0  0  0  0  0
   46.8878    5.3408   14.2283 C   0  0  0  0  0  0  0  0  0  0  0  0
   47.4925    6.6008   14.2002 C   0  0  0  0  0  0  0  0  0  0  0  0
   45.9820    4.8819   13.2529 N   0  0  0  0  0  0  0  0  0  0  0  0
   45.5666    5.5391   12.1151 C   0  0  0  0  0  0  0  0  0  0  0  0
   45.9219    6.6333   11.7016 O   0  0  0  0  0  0  0  0  0  0  0  0
   44.5651    4.7601   11.3168 C   0  0  0  0  0  0  0  0  0  0  0  0
   43.1950    4.5042   11.9503 C   0  0  0  0  0  0  0  0  0  0  0  0
   43.3101    5.4911   10.8329 C   0  0  0  0  0  0  0  0  0  0  0  0
   45.1371    3.6851   10.4444 C   0  0  0  0  0  0  0  0  0  0  0  0
   45.5526    4.1441    9.2148 N   0  0  0  0  0  0  0  0  0  0  0  0
   45.2006    2.5481   10.8897 O   0  0  0  0  0  0  0  0  0  0  0  0
   46.1165    3.3954    8.1645 C   0  0  0  0  0  0  0  0  0  0  0  0
   46.8568    1.3397    7.1134 C   0  0  0  0  0  0  0  0  0  0  0  0
   46.2848    2.0105    8.1997 C   0  0  0  0  0  0  0  0  0  0  0  0
   46.5226    4.1000    7.0213 C   0  0  0  0  0  0  0  0  0  0  0  0
   47.0897    3.4306    5.9350 C   0  0  0  0  0  0  0  0  0  0  0  0
   47.2531    2.0560    5.9924 C   0  0  0  0  0  0  0  0  0  0  0  0
   47.7989    1.4116    4.9514 F   0  0  0  0  0  0  0  0  0  0  0  0
   52.8646   10.9020   22.0793 C   0  0  0  0  0  0  0  0  0  0  0  0
   54.3356    7.3529   18.2120 C   0  0  0  0  0  0  0  0  0  0  0  0
   50.5110   10.3884   21.2974 H   0  0  0  0  0  0  0  0  0  0  0  0
   51.8417    7.0759   17.8806 H   0  0  0  0  0  0  0  0  0  0  0  0
   47.0065    7.2350   17.9661 H   0  0  0  0  0  0  0  0  0  0  0  0
   46.5732    8.9446   19.6936 H   0  0  0  0  0  0  0  0  0  0  0  0
   48.8557    7.9623   15.1695 H   0  0  0  0  0  0  0  0  0  0  0  0
   48.3134    4.1575   17.0914 H   0  0  0  0  0  0  0  0  0  0  0  0
   46.7474    3.4742   15.3243 H   0  0  0  0  0  0  0  0  0  0  0  0
   47.3049    7.3052   13.3972 H   0  0  0  0  0  0  0  0  0  0  0  0
   45.6103    3.9445   13.3863 H   0  0  0  0  0  0  0  0  0  0  0  0
   43.0110    4.8851   12.9496 H   0  0  0  0  0  0  0  0  0  0  0  0
   42.7037    3.5572   11.7478 H   0  0  0  0  0  0  0  0  0  0  0  0
   42.8840    5.2174    9.8730 H   0  0  0  0  0  0  0  0  0  0  0  0
   43.2031    6.5431   11.0761 H   0  0  0  0  0  0  0  0  0  0  0  0
   45.4823    5.1442    9.0668 H   0  0  0  0  0  0  0  0  0  0  0  0
   46.9928    0.2643    7.1367 H   0  0  0  0  0  0  0  0  0  0  0  0
   45.9836    1.4191    9.0602 H   0  0  0  0  0  0  0  0  0  0  0  0
   46.4078    5.1784    6.9617 H   0  0  0  0  0  0  0  0  0  0  0  0
   47.4059    3.9727    5.0492 H   0  0  0  0  0  0  0  0  0  0  0  0
   53.7905   11.2525   22.5414 H   0  0  0  0  0  0  0  0  0  0  0  0
   52.2800   10.3926   22.8519 H   0  0  0  0  0  0  0  0  0  0  0  0
   52.3354   11.7782   21.6940 H   0  0  0  0  0  0  0  0  0  0  0  0
   54.0095    7.6688   17.2162 H   0  0  0  0  0  0  0  0  0  0  0  0
   55.4291    7.3355   18.2127 H   0  0  0  0  0  0  0  0  0  0  0  0
   53.9879    6.3420   18.4406 H   0  0  0  0  0  0  0  0  0  0  0  0
  1  2  2  0
  1  6  1  0
  1 10  1  0
  2  3  1  0
  3  4  2  0
  4  5  1  0
  5  6  2  0
  6  7  1  0
  7  8  2  0
  8  9  1  0
  9 10  2  0
  3 11  1  0
  4 12  1  0
  7 13  1  0
 13 14  1  0
 15 14  2  0
 14 16  1  0
 15 19  1  0
 16 17  2  0
 17 18  1  0
 18 19  2  0
 18 20  1  0
 20 21  1  0
 21 22  2  0
 21 23  1  0
 23 24  1  0
 24 25  1  0
 25 23  1  0
 23 26  1  0
 26 27  1  0
 26 28  2  0
 27 29  1  0
 31 29  1  0
 29 32  2  0
 30 31  2  0
 30 34  1  0
 32 33  1  0
 33 34  2  0
 34 35  1  0
 11 36  1  0
 12 37  1  0
  2 38  1  0
  5 39  1  0
  8 40  1  0
  9 41  1  0
 15 42  1  0
 16 43  1  0
 17 44  1  0
 19 45  1  0
 20 46  1  0
 24 47  1  0
 24 48  1  0
 25 49  1  0
 25 50  1  0
 27 51  1  0
 30 52  1  0
 31 53  1  0
 32 54  1  0
 33 55  1  0
 36 56  1  0
 36 57  1  0
 36 58  1  0
 37 59  1  0
 37 60  1  0
 37 61  1  0
M  END
> <Uni-Dock RESULT> 
ENERGY=   -5.481  LOWER_BOUND=    0.691  UPPER_BOUND=    0.691
INTER + INTRA:          -5.481
INTER:                  -5.481
INTRA:                   0.000
UNBOUND:                 0.000

$$$$

     RDKit          3D

 61 65  0  0  0  0  0  0  0  0999 V2000
   46.8164   12.5921    9.5287 C   0  0  0  0  0  0  0  0  0  0  0  0
   46.8752   13.1537    8.2600 C   0  0  0  0  0  0  0  0  0  0  0  0
   48.0521   13.1566    7.5049 C   0  0  0  0  0  0  0  0  0  0  0  0
   49.2103   12.5629    8.0301 C   0  0  0  0  0  0  0  0  0  0  0  0
   49.1660   11.9947    9.3061 C   0  0  0  0  0  0  0  0  0  0  0  0
   47.9763   12.0056   10.0701 C   0  0  0  0  0  0  0  0  0  0  0  0
   47.8791   11.4546   11.3674 C   0  0  0  0  0  0  0  0  0  0  0  0
   46.6739   11.5179   12.0611 C   0  0  0  0  0  0  0  0  0  0  0  0
   45.5985   12.1100   11.4327 C   0  0  0  0  0  0  0  0  0  0  0  0
   45.6497   12.6389   10.1937 N   0  0  0  0  0  0  0  0  0  0  0  0
   48.1688   13.7073    6.2515 O   0  0  0  0  0  0  0  0  0  0  0  0
   50.3219   12.5949    7.2289 O   0  0  0  0  0  0  0  0  0  0  0  0
   49.0390   10.9260   11.9097 O   0  0  0  0  0  0  0  0  0  0  0  0
   48.9210   10.0195   12.9306 C   0  0  0  0  0  0  0  0  0  0  0  0
   48.4603    8.7293   12.6945 C   0  0  0  0  0  0  0  0  0  0  0  0
   49.3513   10.3940   14.2000 C   0  0  0  0  0  0  0  0  0  0  0  0
   49.2761    9.4797   15.2520 C   0  0  0  0  0  0  0  0  0  0  0  0
   48.7919    8.1831   15.0370 C   0  0  0  0  0  0  0  0  0  0  0  0
   48.3897    7.8142   13.7500 C   0  0  0  0  0  0  0  0  0  0  0  0
   48.7434    7.3244   16.1518 N   0  0  0  0  0  0  0  0  0  0  0  0
   48.3465    6.0051   16.1810 C   0  0  0  0  0  0  0  0  0  0  0  0
   47.9904    5.3019   15.2465 O   0  0  0  0  0  0  0  0  0  0  0  0
   48.3919    5.4060   17.5542 C   0  0  0  0  0  0  0  0  0  0  0  0
   47.4267    5.9619   18.6047 C   0  0  0  0  0  0  0  0  0  0  0  0
   47.1756    4.6057   18.0272 C   0  0  0  0  0  0  0  0  0  0  0  0
   49.7478    4.9715   18.0197 C   0  0  0  0  0  0  0  0  0  0  0  0
   50.0857    3.7026   17.6064 N   0  0  0  0  0  0  0  0  0  0  0  0
   50.4143    5.7561   18.6797 O   0  0  0  0  0  0  0  0  0  0  0  0
   51.2717    2.9967   17.8832 C   0  0  0  0  0  0  0  0  0  0  0  0
   53.4423    2.7174   18.9268 C   0  0  0  0  0  0  0  0  0  0  0  0
   52.2917    3.4811   18.7032 C   0  0  0  0  0  0  0  0  0  0  0  0
   51.4164    1.7312   17.2950 C   0  0  0  0  0  0  0  0  0  0  0  0
   52.5627    0.9666   17.5212 C   0  0  0  0  0  0  0  0  0  0  0  0
   53.5662    1.4683   18.3341 C   0  0  0  0  0  0  0  0  0  0  0  0
   54.6682    0.7367   18.5512 F   0  0  0  0  0  0  0  0  0  0  0  0
   47.0371   14.3878    5.7252 C   0  0  0  0  0  0  0  0  0  0  0  0
   51.5056   11.9835    7.7171 C   0  0  0  0  0  0  0  0  0  0  0  0
   45.9625   13.5991    7.8787 H   0  0  0  0  0  0  0  0  0  0  0  0
   50.0487   11.5333    9.7371 H   0  0  0  0  0  0  0  0  0  0  0  0
   46.5570   11.1291   13.0622 H   0  0  0  0  0  0  0  0  0  0  0  0
   44.6346   12.1841   11.9281 H   0  0  0  0  0  0  0  0  0  0  0  0
   48.1629    8.4240   11.6937 H   0  0  0  0  0  0  0  0  0  0  0  0
   49.7449   11.3891   14.3714 H   0  0  0  0  0  0  0  0  0  0  0  0
   49.6116    9.7937   16.2365 H   0  0  0  0  0  0  0  0  0  0  0  0
   48.0244    6.8168   13.5310 H   0  0  0  0  0  0  0  0  0  0  0  0
   49.0648    7.7122   17.0356 H   0  0  0  0  0  0  0  0  0  0  0  0
   46.7620    6.7696   18.3163 H   0  0  0  0  0  0  0  0  0  0  0  0
   47.7674    6.0245   19.6339 H   0  0  0  0  0  0  0  0  0  0  0  0
   47.3341    3.7466   18.6711 H   0  0  0  0  0  0  0  0  0  0  0  0
   46.3381    4.4947   17.3464 H   0  0  0  0  0  0  0  0  0  0  0  0
   49.4197    3.2416   16.9973 H   0  0  0  0  0  0  0  0  0  0  0  0
   54.2393    3.0901   19.5604 H   0  0  0  0  0  0  0  0  0  0  0  0
   52.2262    4.4533   19.1843 H   0  0  0  0  0  0  0  0  0  0  0  0
   50.6425    1.3250   16.6502 H   0  0  0  0  0  0  0  0  0  0  0  0
   52.6784   -0.0126   17.0671 H   0  0  0  0  0  0  0  0  0  0  0  0
   47.3178   14.7974    4.7520 H   0  0  0  0  0  0  0  0  0  0  0  0
   46.7455   15.2257    6.3665 H   0  0  0  0  0  0  0  0  0  0  0  0
   46.2015   13.7003    5.5658 H   0  0  0  0  0  0  0  0  0  0  0  0
   51.3552   10.9139    7.8929 H   0  0  0  0  0  0  0  0  0  0  0  0
   52.2773   12.0880    6.9492 H   0  0  0  0  0  0  0  0  0  0  0  0
   51.8650   12.4865    8.6187 H   0  0  0  0  0  0  0  0  0  0  0  0
  1  2  2  0
  1  6  1  0
  1 10  1  0
  2  3  1  0
  3  4  2  0
  4  5  1  0
  5  6  2  0
  6  7  1  0
  7  8  2  0
  8  9  1  0
  9 10  2  0
  3 11  1  0
  4 12  1  0
  7 13  1  0
 13 14  1  0
 15 14  2  0
 14 16  1  0
 15 19  1  0
 16 17  2  0
 17 18  1  0
 18 19  2  0
 18 20  1  0
 20 21  1  0
 21 22  2  0
 21 23  1  0
 23 24  1  0
 24 25  1  0
 25 23  1  0
 23 26  1  0
 26 27  1  0
 26 28  2  0
 27 29  1  0
 31 29  1  0
 29 32  2  0
 30 31  2  0
 30 34  1  0
 32 33  1  0
 33 34  2  0
 34 35  1  0
 11 36  1  0
 12 37  1  0
  2 38  1  0
  5 39  1  0
  8 40  1  0
  9 41  1  0
 15 42  1  0
 16 43  1  0
 17 44  1  0
 19 45  1  0
 20 46  1  0
 24 47  1  0
 24 48  1  0
 25 49  1  0
 25 50  1  0
 27 51  1  0
 30 52  1  0
 31 53  1  0
 32 54  1  0
 33 55  1  0
 36 56  1  0
 36 57  1  0
 36 58  1  0
 37 59  1  0
 37 60  1  0
 37 61  1  0
M  END
> <Uni-Dock RESULT> 
ENERGY=   -4.849  LOWER_BOUND=    6.340  UPPER_BOUND=   10.686
INTER + INTRA:          -4.849
INTER:                  -4.849
INTRA:                   0.000
UNBOUND:                 0.000

$$$$

     RDKit          3D

 61 65  0  0  0  0  0  0  0  0999 V2000
   41.1933   13.1568    8.1469 C   0  0  0  0  0  0  0  0  0  0  0  0
   40.1509   14.0423    7.9067 C   0  0  0  0  0  0  0  0  0  0  0  0
   39.0168   14.0906    8.7232 C   0  0  0  0  0  0  0  0  0  0  0  0
   38.9267   13.2327    9.8304 C   0  0  0  0  0  0  0  0  0  0  0  0
   39.9679   12.3357   10.0837 C   0  0  0  0  0  0  0  0  0  0  0  0
   41.1068   12.2827    9.2475 C   0  0  0  0  0  0  0  0  0  0  0  0
   42.1822   11.3897    9.4522 C   0  0  0  0  0  0  0  0  0  0  0  0
   43.2626   11.3898    8.5746 C   0  0  0  0  0  0  0  0  0  0  0  0
   43.2470   12.2931    7.5326 C   0  0  0  0  0  0  0  0  0  0  0  0
   42.2440   13.1659    7.3094 N   0  0  0  0  0  0  0  0  0  0  0  0
   37.9531   14.9375    8.5252 O   0  0  0  0  0  0  0  0  0  0  0  0
   37.7913   13.3442   10.5900 O   0  0  0  0  0  0  0  0  0  0  0  0
   42.0629   10.5004   10.5075 O   0  0  0  0  0  0  0  0  0  0  0  0
   43.2062    9.9376   11.0114 C   0  0  0  0  0  0  0  0  0  0  0  0
   44.1036   10.6873   11.7633 C   0  0  0  0  0  0  0  0  0  0  0  0
   43.4101    8.5738   10.8230 C   0  0  0  0  0  0  0  0  0  0  0  0
   44.5483    7.9660   11.3553 C   0  0  0  0  0  0  0  0  0  0  0  0
   45.4752    8.7115   12.0950 C   0  0  0  0  0  0  0  0  0  0  0  0
   45.2413   10.0745   12.2987 C   0  0  0  0  0  0  0  0  0  0  0  0
   46.5988    8.0241   12.5925 N   0  0  0  0  0  0  0  0  0  0  0  0
   47.6166    8.5289   13.3726 C   0  0  0  0  0  0  0  0  0  0  0  0
   47.7361    9.6603   13.8201 O   0  0  0  0  0  0  0  0  0  0  0  0
   48.6727    7.5145   13.6927 C   0  0  0  0  0  0  0  0  0  0  0  0
   49.5147    6.9746   12.5335 C   0  0  0  0  0  0  0  0  0  0  0  0
   50.1368    7.9222   13.5088 C   0  0  0  0  0  0  0  0  0  0  0  0
   48.3371    6.5688   14.8048 C   0  0  0  0  0  0  0  0  0  0  0  0
   48.6345    7.0673   16.0531 N   0  0  0  0  0  0  0  0  0  0  0  0
   47.8316    5.4925   14.5195 O   0  0  0  0  0  0  0  0  0  0  0  0
   48.4578    6.4310   17.2963 C   0  0  0  0  0  0  0  0  0  0  0  0
   47.8425    4.5633   18.7147 C   0  0  0  0  0  0  0  0  0  0  0  0
   47.9928    5.1232   17.4415 C   0  0  0  0  0  0  0  0  0  0  0  0
   48.7780    7.1694   18.4454 C   0  0  0  0  0  0  0  0  0  0  0  0
   48.6322    6.6097   19.7163 C   0  0  0  0  0  0  0  0  0  0  0  0
   48.1637    5.3116   19.8388 C   0  0  0  0  0  0  0  0  0  0  0  0
   48.0214    4.7729   21.0580 F   0  0  0  0  0  0  0  0  0  0  0  0
   37.9765   15.7612    7.3667 C   0  0  0  0  0  0  0  0  0  0  0  0
   37.6757   12.5091   11.7313 C   0  0  0  0  0  0  0  0  0  0  0  0
   40.2523   14.6967    7.0476 H   0  0  0  0  0  0  0  0  0  0  0  0
   39.9209   11.6585   10.9306 H   0  0  0  0  0  0  0  0  0  0  0  0
   44.0975   10.7120    8.6785 H   0  0  0  0  0  0  0  0  0  0  0  0
   44.0656   12.3367    6.8199 H   0  0  0  0  0  0  0  0  0  0  0  0
   43.9228   11.7443   11.9454 H   0  0  0  0  0  0  0  0  0  0  0  0
   42.6887    7.9857   10.2680 H   0  0  0  0  0  0  0  0  0  0  0  0
   44.6920    6.9016   11.1919 H   0  0  0  0  0  0  0  0  0  0  0  0
   45.9210   10.6890   12.8789 H   0  0  0  0  0  0  0  0  0  0  0  0
   46.6545    7.0318   12.3757 H   0  0  0  0  0  0  0  0  0  0  0  0
   49.3054    7.3381   11.5327 H   0  0  0  0  0  0  0  0  0  0  0  0
   49.8235    5.9340   12.5633 H   0  0  0  0  0  0  0  0  0  0  0  0
   50.8792    7.5251   14.1936 H   0  0  0  0  0  0  0  0  0  0  0  0
   50.3498    8.9297   13.1672 H   0  0  0  0  0  0  0  0  0  0  0  0
   48.9813    8.0191   16.0804 H   0  0  0  0  0  0  0  0  0  0  0  0
   47.4788    3.5489   18.8335 H   0  0  0  0  0  0  0  0  0  0  0  0
   47.7345    4.5091   16.5830 H   0  0  0  0  0  0  0  0  0  0  0  0
   49.1406    8.1903   18.3683 H   0  0  0  0  0  0  0  0  0  0  0  0
   48.8782    7.1784   20.6077 H   0  0  0  0  0  0  0  0  0  0  0  0
   37.0438   16.3298    7.3437 H   0  0  0  0  0  0  0  0  0  0  0  0
   38.0209   15.1590    6.4537 H   0  0  0  0  0  0  0  0  0  0  0  0
   38.8003   16.4794    7.4092 H   0  0  0  0  0  0  0  0  0  0  0  0
   38.4771   12.7072   12.4497 H   0  0  0  0  0  0  0  0  0  0  0  0
   36.7261   12.7419   12.2214 H   0  0  0  0  0  0  0  0  0  0  0  0
   37.6513   11.4541   11.4458 H   0  0  0  0  0  0  0  0  0  0  0  0
  1  2  2  0
  1  6  1  0
  1 10  1  0
  2  3  1  0
  3  4  2  0
  4  5  1  0
  5  6  2  0
  6  7  1  0
  7  8  2  0
  8  9  1  0
  9 10  2  0
  3 11  1  0
  4 12  1  0
  7 13  1  0
 13 14  1  0
 15 14  2  0
 14 16  1  0
 15 19  1  0
 16 17  2  0
 17 18  1  0
 18 19  2  0
 18 20  1  0
 20 21  1  0
 21 22  2  0
 21 23  1  0
 23 24  1  0
 24 25  1  0
 25 23  1  0
 23 26  1  0
 26 27  1  0
 26 28  2  0
 27 29  1  0
 31 29  1  0
 29 32  2  0
 30 31  2  0
 30 34  1  0
 32 33  1  0
 33 34  2  0
 34 35  1  0
 11 36  1  0
 12 37  1  0
  2 38  1  0
  5 39  1  0
  8 40  1  0
  9 41  1  0
 15 42  1  0
 16 43  1  0
 17 44  1  0
 19 45  1  0
 20 46  1  0
 24 47  1  0
 24 48  1  0
 25 49  1  0
 25 50  1  0
 27 51  1  0
 30 52  1  0
 31 53  1  0
 32 54  1  0
 33 55  1  0
 36 56  1  0
 36 57  1  0
 36 58  1  0
 37 59  1  0
 37 60  1  0
 37 61  1  0
M  END
> <Uni-Dock RESULT> 
ENERGY=   -4.370  LOWER_BOUND=    6.758  UPPER_BOUND=   12.714
INTER + INTRA:          -4.370
INTER:                  -4.370
INTRA:                   0.000
UNBOUND:                 0.000

$$$$

     RDKit          3D

 61 65  0  0  0  0  0  0  0  0999 V2000
   54.2788    7.1208    7.6620 C   0  0  0  0  0  0  0  0  0  0  0  0
   54.9013    7.5353    6.4919 C   0  0  0  0  0  0  0  0  0  0  0  0
   54.5881    8.7513    5.8767 C   0  0  0  0  0  0  0  0  0  0  0  0
   53.6279    9.5924    6.4600 C   0  0  0  0  0  0  0  0  0  0  0  0
   52.9927    9.1878    7.6372 C   0  0  0  0  0  0  0  0  0  0  0  0
   53.3045    7.9513    8.2481 C   0  0  0  0  0  0  0  0  0  0  0  0
   52.6863    7.4900    9.4318 C   0  0  0  0  0  0  0  0  0  0  0  0
   53.0391    6.2529    9.9636 C   0  0  0  0  0  0  0  0  0  0  0  0
   54.0108    5.5237    9.3107 C   0  0  0  0  0  0  0  0  0  0  0  0
   54.6290    5.9336    8.1850 N   0  0  0  0  0  0  0  0  0  0  0  0
   55.1640    9.2042    4.7144 O   0  0  0  0  0  0  0  0  0  0  0  0
   53.3811   10.7716    5.8065 O   0  0  0  0  0  0  0  0  0  0  0  0
   51.6938    8.2917    9.9711 O   0  0  0  0  0  0  0  0  0  0  0  0
   51.3808    8.1308   11.2955 C   0  0  0  0  0  0  0  0  0  0  0  0
   52.2484    8.5572   12.2945 C   0  0  0  0  0  0  0  0  0  0  0  0
   50.1346    7.6035   11.6207 C   0  0  0  0  0  0  0  0  0  0  0  0
   49.7741    7.4608   12.9616 C   0  0  0  0  0  0  0  0  0  0  0  0
   50.6460    7.8629   13.9814 C   0  0  0  0  0  0  0  0  0  0  0  0
   51.8827    8.4163   13.6373 C   0  0  0  0  0  0  0  0  0  0  0  0
   50.2087    7.6798   15.3072 N   0  0  0  0  0  0  0  0  0  0  0  0
   50.8668    8.0302   16.4662 C   0  0  0  0  0  0  0  0  0  0  0  0
   51.9423    8.5998   16.5823 O   0  0  0  0  0  0  0  0  0  0  0  0
   50.1153    7.6543   17.7075 C   0  0  0  0  0  0  0  0  0  0  0  0
   49.9171    6.1635   17.9947 C   0  0  0  0  0  0  0  0  0  0  0  0
   50.8856    6.9447   18.8240 C   0  0  0  0  0  0  0  0  0  0  0  0
   49.0097    8.5877   18.0950 C   0  0  0  0  0  0  0  0  0  0  0  0
   49.4382    9.6588   18.8463 N   0  0  0  0  0  0  0  0  0  0  0  0
   47.8765    8.3379   17.7092 O   0  0  0  0  0  0  0  0  0  0  0  0
   48.6569   10.7014   19.3792 C   0  0  0  0  0  0  0  0  0  0  0  0
   46.5629   11.8397   19.8249 C   0  0  0  0  0  0  0  0  0  0  0  0
   47.2673   10.7666   19.2683 C   0  0  0  0  0  0  0  0  0  0  0  0
   49.3323   11.7234   20.0629 C   0  0  0  0  0  0  0  0  0  0  0  0
   48.6296   12.7925   20.6223 C   0  0  0  0  0  0  0  0  0  0  0  0
   47.2507   12.8412   20.4962 C   0  0  0  0  0  0  0  0  0  0  0  0
   46.5742   13.8675   21.0310 F   0  0  0  0  0  0  0  0  0  0  0  0
   56.0801    8.3397    4.0552 C   0  0  0  0  0  0  0  0  0  0  0  0
   52.4332   11.6584    6.3796 C   0  0  0  0  0  0  0  0  0  0  0  0
   55.6433    6.8667    6.0686 H   0  0  0  0  0  0  0  0  0  0  0  0
   52.2434    9.8175    8.1061 H   0  0  0  0  0  0  0  0  0  0  0  0
   52.5797    5.8493   10.8542 H   0  0  0  0  0  0  0  0  0  0  0  0
   54.3248    4.5531    9.6840 H   0  0  0  0  0  0  0  0  0  0  0  0
   53.2052    9.0074   12.0393 H   0  0  0  0  0  0  0  0  0  0  0  0
   49.4462    7.3072   10.8379 H   0  0  0  0  0  0  0  0  0  0  0  0
   48.7992    7.0415   13.1944 H   0  0  0  0  0  0  0  0  0  0  0  0
   52.5837    8.7582   14.3908 H   0  0  0  0  0  0  0  0  0  0  0  0
   49.2872    7.2659   15.4263 H   0  0  0  0  0  0  0  0  0  0  0  0
   50.3166    5.4455   17.2859 H   0  0  0  0  0  0  0  0  0  0  0  0
   48.9863    5.8482   18.4566 H   0  0  0  0  0  0  0  0  0  0  0  0
   50.6161    7.1486   19.8554 H   0  0  0  0  0  0  0  0  0  0  0  0
   51.9436    6.7547   18.6768 H   0  0  0  0  0  0  0  0  0  0  0  0
   50.4384    9.7247   18.9960 H   0  0  0  0  0  0  0  0  0  0  0  0
   45.4837   11.8970   19.7390 H   0  0  0  0  0  0  0  0  0  0  0  0
   46.6977    9.9987   18.7517 H   0  0  0  0  0  0  0  0  0  0  0  0
   50.4134   11.7045   20.1660 H   0  0  0  0  0  0  0  0  0  0  0  0
   49.1490   13.5855   21.1513 H   0  0  0  0  0  0  0  0  0  0  0  0
   56.4022    8.8346    3.1359 H   0  0  0  0  0  0  0  0  0  0  0  0
   55.6017    7.3961    3.7743 H   0  0  0  0  0  0  0  0  0  0  0  0
   56.9703    8.1671    4.6667 H   0  0  0  0  0  0  0  0  0  0  0  0
   52.7487   11.9859    7.3749 H   0  0  0  0  0  0  0  0  0  0  0  0
   52.3759   12.5448    5.7415 H   0  0  0  0  0  0  0  0  0  0  0  0
   51.4385   11.2058    6.4081 H   0  0  0  0  0  0  0  0  0  0  0  0
  1  2  2  0
  1  6  1  0
  1 10  1  0
  2  3  1  0
  3  4  2  0
  4  5  1  0
  5  6  2  0
  6  7  1  0
  7  8  2  0
  8  9  1  0
  9 10  2  0
  3 11  1  0
  4 12  1  0
  7 13  1  0
 13 14  1  0
 15 14  2  0
 14 16  1  0
 15 19  1  0
 16 17  2  0
 17 18  1  0
 18 19  2  0
 18 20  1  0
 20 21  1  0
 21 22  2  0
 21 23  1  0
 23 24  1  0
 24 25  1  0
 25 23  1  0
 23 26  1  0
 26 27  1  0
 26 28  2  0
 27 29  1  0
 31 29  1  0
 29 32  2  0
 30 31  2  0
 30 34  1  0
 32 33  1  0
 33 34  2  0
 34 35  1  0
 11 36  1  0
 12 37  1  0
  2 38  1  0
  5 39  1  0
  8 40  1  0
  9 41  1  0
 15 42  1  0
 16 43  1  0
 17 44  1  0
 19 45  1  0
 20 46  1  0
 24 47  1  0
 24 48  1  0
 25 49  1  0
 25 50  1  0
 27 51  1  0
 30 52  1  0
 31 53  1  0
 32 54  1  0
 33 55  1  0
 36 56  1  0
 36 57  1  0
 36 58  1  0
 37 59  1  0
 37 60  1  0
 37 61  1  0
M  END
> <Uni-Dock RESULT> 
ENERGY=   -4.255  LOWER_BOUND=    7.107  UPPER_BOUND=   12.299
INTER + INTRA:          -4.255
INTER:                  -4.255
INTRA:                   0.000
UNBOUND:                 0.000

$$$$

     RDKit          3D

 61 65  0  0  0  0  0  0  0  0999 V2000
   54.0049   11.7082   18.2484 C   0  0  0  0  0  0  0  0  0  0  0  0
   55.3095   11.7753   18.7196 C   0  0  0  0  0  0  0  0  0  0  0  0
   56.0884   10.6298   18.9096 C   0  0  0  0  0  0  0  0  0  0  0  0
   55.5497    9.3705   18.6032 C   0  0  0  0  0  0  0  0  0  0  0  0
   54.2377    9.2878   18.1291 C   0  0  0  0  0  0  0  0  0  0  0  0
   53.4505   10.4486   17.9506 C   0  0  0  0  0  0  0  0  0  0  0  0
   52.1172   10.4210   17.4840 C   0  0  0  0  0  0  0  0  0  0  0  0
   51.4034   11.6084   17.3486 C   0  0  0  0  0  0  0  0  0  0  0  0
   52.0467   12.7870   17.6630 C   0  0  0  0  0  0  0  0  0  0  0  0
   53.3193   12.8547   18.1028 N   0  0  0  0  0  0  0  0  0  0  0  0
   57.3783   10.6378   19.3829 O   0  0  0  0  0  0  0  0  0  0  0  0
   56.3752    8.2952   18.8050 O   0  0  0  0  0  0  0  0  0  0  0  0
   51.5660    9.1734   17.2428 O   0  0  0  0  0  0  0  0  0  0  0  0
   50.4841    9.0953   16.4054 C   0  0  0  0  0  0  0  0  0  0  0  0
   50.6227    9.2832   15.0349 C   0  0  0  0  0  0  0  0  0  0  0  0
   49.2523    8.7414   16.9482 C   0  0  0  0  0  0  0  0  0  0  0  0
   48.1399    8.6196   16.1141 C   0  0  0  0  0  0  0  0  0  0  0  0
   48.2566    8.8292   14.7340 C   0  0  0  0  0  0  0  0  0  0  0  0
   49.5067    9.1567   14.2012 C   0  0  0  0  0  0  0  0  0  0  0  0
   47.0857    8.6921   13.9641 N   0  0  0  0  0  0  0  0  0  0  0  0
   46.9592    8.8097   12.5969 C   0  0  0  0  0  0  0  0  0  0  0  0
   47.8363    9.0210   11.7719 O   0  0  0  0  0  0  0  0  0  0  0  0
   45.5500    8.6321   12.1178 C   0  0  0  0  0  0  0  0  0  0  0  0
   44.5186    9.6829   12.5375 C   0  0  0  0  0  0  0  0  0  0  0  0
   44.9979    9.6549   11.1214 C   0  0  0  0  0  0  0  0  0  0  0  0
   45.0859    7.2125   12.0031 C   0  0  0  0  0  0  0  0  0  0  0  0
   45.4201    6.6246   10.8040 N   0  0  0  0  0  0  0  0  0  0  0  0
   44.4948    6.7162   12.9516 O   0  0  0  0  0  0  0  0  0  0  0  0
   45.1223    5.3169   10.3763 C   0  0  0  0  0  0  0  0  0  0  0  0
   44.1097    3.1274   10.6200 C   0  0  0  0  0  0  0  0  0  0  0  0
   44.3591    4.4119   11.1152 C   0  0  0  0  0  0  0  0  0  0  0  0
   45.6269    4.9201    9.1288 C   0  0  0  0  0  0  0  0  0  0  0  0
   45.3748    3.6397    8.6321 C   0  0  0  0  0  0  0  0  0  0  0  0
   44.6195    2.7544    9.3840 C   0  0  0  0  0  0  0  0  0  0  0  0
   44.3776    1.5242    8.9099 F   0  0  0  0  0  0  0  0  0  0  0  0
   57.9244   11.8890   19.7794 C   0  0  0  0  0  0  0  0  0  0  0  0
   55.8728    7.0076   18.4840 C   0  0  0  0  0  0  0  0  0  0  0  0
   55.6999   12.7628   18.9414 H   0  0  0  0  0  0  0  0  0  0  0  0
   53.7959    8.3260   17.8891 H   0  0  0  0  0  0  0  0  0  0  0  0
   50.3761   11.6356   17.0155 H   0  0  0  0  0  0  0  0  0  0  0  0
   51.5366   13.7419   17.5735 H   0  0  0  0  0  0  0  0  0  0  0  0
   51.5940    9.5191   14.6058 H   0  0  0  0  0  0  0  0  0  0  0  0
   49.1570    8.5591   18.0121 H   0  0  0  0  0  0  0  0  0  0  0  0
   47.1862    8.3484   16.5583 H   0  0  0  0  0  0  0  0  0  0  0  0
   49.6502    9.3112   13.1374 H   0  0  0  0  0  0  0  0  0  0  0  0
   46.2372    8.4505   14.4705 H   0  0  0  0  0  0  0  0  0  0  0  0
   44.8462   10.5014   13.1702 H   0  0  0  0  0  0  0  0  0  0  0  0
   43.5036    9.3547   12.7405 H   0  0  0  0  0  0  0  0  0  0  0  0
   44.3013    9.3186   10.3601 H   0  0  0  0  0  0  0  0  0  0  0  0
   45.6514   10.4568   10.7941 H   0  0  0  0  0  0  0  0  0  0  0  0
   45.9822    7.1863   10.1751 H   0  0  0  0  0  0  0  0  0  0  0  0
   43.5201    2.4192   11.1912 H   0  0  0  0  0  0  0  0  0  0  0  0
   43.9432    4.6719   12.0849 H   0  0  0  0  0  0  0  0  0  0  0  0
   46.2261    5.5990    8.5289 H   0  0  0  0  0  0  0  0  0  0  0  0
   45.7644    3.3290    7.6677 H   0  0  0  0  0  0  0  0  0  0  0  0
   58.9289   11.7056   20.1682 H   0  0  0  0  0  0  0  0  0  0  0  0
   57.3348   12.3415   20.5831 H   0  0  0  0  0  0  0  0  0  0  0  0
   58.0191   12.5669   18.9264 H   0  0  0  0  0  0  0  0  0  0  0  0
   55.6222    6.9340   17.4213 H   0  0  0  0  0  0  0  0  0  0  0  0
   56.6625    6.2795   18.6896 H   0  0  0  0  0  0  0  0  0  0  0  0
   55.0151    6.7523   19.1119 H   0  0  0  0  0  0  0  0  0  0  0  0
  1  2  2  0
  1  6  1  0
  1 10  1  0
  2  3  1  0
  3  4  2  0
  4  5  1  0
  5  6  2  0
  6  7  1  0
  7  8  2  0
  8  9  1  0
  9 10  2  0
  3 11  1  0
  4 12  1  0
  7 13  1  0
 13 14  1  0
 15 14  2  0
 14 16  1  0
 15 19  1  0
 16 17  2  0
 17 18  1  0
 18 19  2  0
 18 20  1  0
 20 21  1  0
 21 22  2  0
 21 23  1  0
 23 24  1  0
 24 25  1  0
 25 23  1  0
 23 26  1  0
 26 27  1  0
 26 28  2  0
 27 29  1  0
 31 29  1  0
 29 32  2  0
 30 31  2  0
 30 34  1  0
 32 33  1  0
 33 34  2  0
 34 35  1  0
 11 36  1  0
 12 37  1  0
  2 38  1  0
  5 39  1  0
  8 40  1  0
  9 41  1  0
 15 42  1  0
 16 43  1  0
 17 44  1  0
 19 45  1  0
 20 46  1  0
 24 47  1  0
 24 48  1  0
 25 49  1  0
 25 50  1  0
 27 51  1  0
 30 52  1  0
 31 53  1  0
 32 54  1  0
 33 55  1  0
 36 56  1  0
 36 57  1  0
 36 58  1  0
 37 59  1  0
 37 60  1  0
 37 61  1  0
M  END
> <Uni-Dock RESULT> 
ENERGY=   -4.231  LOWER_BOUND=    3.651  UPPER_BOUND=    4.500
INTER + INTRA:          -4.231
INTER:                  -4.231
INTRA:                   0.000
UNBOUND:                 0.000

$$$$

     RDKit          3D

 61 65  0  0  0  0  0  0  0  0999 V2000
   47.6070    9.3421   20.1936 C   0  0  0  0  0  0  0  0  0  0  0  0
   47.3423    9.0837   21.5321 C   0  0  0  0  0  0  0  0  0  0  0  0
   47.4860    7.8064   22.0826 C   0  0  0  0  0  0  0  0  0  0  0  0
   47.9252    6.7501   21.2695 C   0  0  0  0  0  0  0  0  0  0  0  0
   48.1945    6.9954   19.9204 C   0  0  0  0  0  0  0  0  0  0  0  0
   48.0355    8.2864   19.3662 C   0  0  0  0  0  0  0  0  0  0  0  0
   48.2842    8.5869   18.0083 C   0  0  0  0  0  0  0  0  0  0  0  0
   48.0903    9.8819   17.5361 C   0  0  0  0  0  0  0  0  0  0  0  0
   47.6741   10.8408   18.4357 C   0  0  0  0  0  0  0  0  0  0  0  0
   47.4348   10.5950   19.7394 N   0  0  0  0  0  0  0  0  0  0  0  0
   47.2275    7.4932   23.3952 O   0  0  0  0  0  0  0  0  0  0  0  0
   48.0522    5.5300   21.8807 O   0  0  0  0  0  0  0  0  0  0  0  0
   48.6561    7.5305   17.1932 O   0  0  0  0  0  0  0  0  0  0  0  0
   49.3135    7.8153   16.0250 C   0  0  0  0  0  0  0  0  0  0  0  0
   50.6323    8.2549   16.0328 C   0  0  0  0  0  0  0  0  0  0  0  0
   48.6565    7.5758   14.8216 C   0  0  0  0  0  0  0  0  0  0  0  0
   49.3137    7.8231   13.6153 C   0  0  0  0  0  0  0  0  0  0  0  0
   50.6345    8.2893   13.6050 C   0  0  0  0  0  0  0  0  0  0  0  0
   51.2894    8.4982   14.8222 C   0  0  0  0  0  0  0  0  0  0  0  0
   51.2229    8.5188   12.3466 N   0  0  0  0  0  0  0  0  0  0  0  0
   52.5096    8.9359   12.0830 C   0  0  0  0  0  0  0  0  0  0  0  0
   53.4106    9.1577   12.8790 O   0  0  0  0  0  0  0  0  0  0  0  0
   52.7855    9.1077   10.6197 C   0  0  0  0  0  0  0  0  0  0  0  0
   52.0271   10.2117    9.8779 C   0  0  0  0  0  0  0  0  0  0  0  0
   53.4826   10.3937   10.1683 C   0  0  0  0  0  0  0  0  0  0  0  0
   53.0791    7.8445    9.8700 C   0  0  0  0  0  0  0  0  0  0  0  0
   54.4017    7.4677    9.9330 N   0  0  0  0  0  0  0  0  0  0  0  0
   52.1544    7.2733    9.3097 O   0  0  0  0  0  0  0  0  0  0  0  0
   55.0053    6.3482    9.3298 C   0  0  0  0  0  0  0  0  0  0  0  0
   55.0030    4.3646    7.9355 C   0  0  0  0  0  0  0  0  0  0  0  0
   54.3305    5.4563    8.4951 C   0  0  0  0  0  0  0  0  0  0  0  0
   56.3672    6.1359    9.5911 C   0  0  0  0  0  0  0  0  0  0  0  0
   57.0401    5.0489    9.0295 C   0  0  0  0  0  0  0  0  0  0  0  0
   56.3504    4.1720    8.2080 C   0  0  0  0  0  0  0  0  0  0  0  0
   56.9940    3.1268    7.6691 F   0  0  0  0  0  0  0  0  0  0  0  0
   46.7033    8.5219   24.2248 C   0  0  0  0  0  0  0  0  0  0  0  0
   48.5164    4.4431   21.0955 C   0  0  0  0  0  0  0  0  0  0  0  0
   47.0108    9.9214   22.1364 H   0  0  0  0  0  0  0  0  0  0  0  0
   48.5310    6.1951   19.2690 H   0  0  0  0  0  0  0  0  0  0  0  0
   48.2475   10.1547   16.5027 H   0  0  0  0  0  0  0  0  0  0  0  0
   47.5094   11.8672   18.1204 H   0  0  0  0  0  0  0  0  0  0  0  0
   51.1592    8.4025   16.9729 H   0  0  0  0  0  0  0  0  0  0  0  0
   47.6411    7.1973   14.8202 H   0  0  0  0  0  0  0  0  0  0  0  0
   48.7812    7.6354   12.6871 H   0  0  0  0  0  0  0  0  0  0  0  0
   52.3172    8.8416   14.8649 H   0  0  0  0  0  0  0  0  0  0  0  0
   50.6413    8.3287   11.5340 H   0  0  0  0  0  0  0  0  0  0  0  0
   51.3171   10.8127   10.4366 H   0  0  0  0  0  0  0  0  0  0  0  0
   51.7295   10.0295    8.8497 H   0  0  0  0  0  0  0  0  0  0  0  0
   54.1729   10.3475    9.3321 H   0  0  0  0  0  0  0  0  0  0  0  0
   53.7589   11.1204   10.9251 H   0  0  0  0  0  0  0  0  0  0  0  0
   54.9997    8.0411   10.5166 H   0  0  0  0  0  0  0  0  0  0  0  0
   54.4830    3.6668    7.2889 H   0  0  0  0  0  0  0  0  0  0  0  0
   53.2768    5.5787    8.2593 H   0  0  0  0  0  0  0  0  0  0  0  0
   56.9219    6.8097   10.2377 H   0  0  0  0  0  0  0  0  0  0  0  0
   58.0937    4.8810    9.2302 H   0  0  0  0  0  0  0  0  0  0  0  0
   46.5165    8.0912   25.2113 H   0  0  0  0  0  0  0  0  0  0  0  0
   45.7490    8.8940   23.8388 H   0  0  0  0  0  0  0  0  0  0  0  0
   47.4248    9.3343   24.3502 H   0  0  0  0  0  0  0  0  0  0  0  0
   49.5223    4.6348   20.7095 H   0  0  0  0  0  0  0  0  0  0  0  0
   48.5716    3.5628   21.7421 H   0  0  0  0  0  0  0  0  0  0  0  0
   47.8178    4.2163   20.2859 H   0  0  0  0  0  0  0  0  0  0  0  0
  1  2  2  0
  1  6  1  0
  1 10  1  0
  2  3  1  0
  3  4  2  0
  4  5  1  0
  5  6  2  0
  6  7  1  0
  7  8  2  0
  8  9  1  0
  9 10  2  0
  3 11  1  0
  4 12  1  0
  7 13  1  0
 13 14  1  0
 15 14  2  0
 14 16  1  0
 15 19  1  0
 16 17  2  0
 17 18  1  0
 18 19  2  0
 18 20  1  0
 20 21  1  0
 21 22  2  0
 21 23  1  0
 23 24  1  0
 24 25  1  0
 25 23  1  0
 23 26  1  0
 26 27  1  0
 26 28  2  0
 27 29  1  0
 31 29  1  0
 29 32  2  0
 30 31  2  0
 30 34  1  0
 32 33  1  0
 33 34  2  0
 34 35  1  0
 11 36  1  0
 12 37  1  0
  2 38  1  0
  5 39  1  0
  8 40  1  0
  9 41  1  0
 15 42  1  0
 16 43  1  0
 17 44  1  0
 19 45  1  0
 20 46  1  0
 24 47  1  0
 24 48  1  0
 25 49  1  0
 25 50  1  0
 27 51  1  0
 30 52  1  0
 31 53  1  0
 32 54  1  0
 33 55  1  0
 36 56  1  0
 36 57  1  0
 36 58  1  0
 37 59  1  0
 37 60  1  0
 37 61  1  0
M  END
> <Uni-Dock RESULT> 
ENERGY=   -4.126  LOWER_BOUND=    5.843  UPPER_BOUND=    6.940
INTER + INTRA:          -4.126
INTER:                  -4.126
INTRA:                   0.000
UNBOUND:                 0.000

$$$$

     RDKit          3D

 61 65  0  0  0  0  0  0  0  0999 V2000
   41.9316   14.3911   12.8913 C   0  0  0  0  0  0  0  0  0  0  0  0
   40.6299   14.2995   13.3663 C   0  0  0  0  0  0  0  0  0  0  0  0
   39.7983   13.2222   13.0457 C   0  0  0  0  0  0  0  0  0  0  0  0
   40.2897   12.1894   12.2323 C   0  0  0  0  0  0  0  0  0  0  0  0
   41.5976   12.2687   11.7464 C   0  0  0  0  0  0  0  0  0  0  0  0
   42.4300   13.3667   12.0637 C   0  0  0  0  0  0  0  0  0  0  0  0
   43.7549   13.5012   11.5919 C   0  0  0  0  0  0  0  0  0  0  0  0
   44.5059   14.6208   11.9386 C   0  0  0  0  0  0  0  0  0  0  0  0
   43.9204   15.5609   12.7604 C   0  0  0  0  0  0  0  0  0  0  0  0
   42.6631   15.4638   13.2372 N   0  0  0  0  0  0  0  0  0  0  0  0
   38.5011   13.0873   13.4782 O   0  0  0  0  0  0  0  0  0  0  0  0
   39.4212   11.1623   11.9695 O   0  0  0  0  0  0  0  0  0  0  0  0
   44.2168   12.5133   10.7380 O   0  0  0  0  0  0  0  0  0  0  0  0
   45.5715   12.3536   10.6064 C   0  0  0  0  0  0  0  0  0  0  0  0
   46.3318   11.8028   11.6318 C   0  0  0  0  0  0  0  0  0  0  0  0
   46.1603   12.6801    9.3884 C   0  0  0  0  0  0  0  0  0  0  0  0
   47.5326   12.4948    9.2134 C   0  0  0  0  0  0  0  0  0  0  0  0
   48.3179   11.9636   10.2444 C   0  0  0  0  0  0  0  0  0  0  0  0
   47.7061   11.6148   11.4520 C   0  0  0  0  0  0  0  0  0  0  0  0
   49.6944   11.8137    9.9889 N   0  0  0  0  0  0  0  0  0  0  0  0
   50.6525   11.2828   10.8252 C   0  0  0  0  0  0  0  0  0  0  0  0
   50.5015   10.8037   11.9398 O   0  0  0  0  0  0  0  0  0  0  0  0
   52.0302   11.3094   10.2352 C   0  0  0  0  0  0  0  0  0  0  0  0
   52.6711   12.6776    9.9871 C   0  0  0  0  0  0  0  0  0  0  0  0
   53.1742   11.8283   11.1102 C   0  0  0  0  0  0  0  0  0  0  0  0
   52.3296   10.2160    9.2562 C   0  0  0  0  0  0  0  0  0  0  0  0
   52.7586    9.0519    9.8530 N   0  0  0  0  0  0  0  0  0  0  0  0
   52.1546   10.4375    8.0665 O   0  0  0  0  0  0  0  0  0  0  0  0
   53.1334    7.8508    9.2218 C   0  0  0  0  0  0  0  0  0  0  0  0
   53.5652    6.4542    7.2874 C   0  0  0  0  0  0  0  0  0  0  0  0
   53.1841    7.6829    7.8373 C   0  0  0  0  0  0  0  0  0  0  0  0
   53.4776    6.7719   10.0498 C   0  0  0  0  0  0  0  0  0  0  0  0
   53.8622    5.5466    9.5016 C   0  0  0  0  0  0  0  0  0  0  0  0
   53.9005    5.3990    8.1246 C   0  0  0  0  0  0  0  0  0  0  0  0
   54.2678    4.2231    7.5962 F   0  0  0  0  0  0  0  0  0  0  0  0
   37.9471   14.1551   14.2358 C   0  0  0  0  0  0  0  0  0  0  0  0
   39.8908   10.0885   11.1696 C   0  0  0  0  0  0  0  0  0  0  0  0
   40.2808   15.1097   13.9976 H   0  0  0  0  0  0  0  0  0  0  0  0
   42.0004   11.4856   11.1118 H   0  0  0  0  0  0  0  0  0  0  0  0
   45.5149   14.7774   11.5858 H   0  0  0  0  0  0  0  0  0  0  0  0
   44.4626   16.4523   13.0629 H   0  0  0  0  0  0  0  0  0  0  0  0
   45.8641   11.5092   12.5690 H   0  0  0  0  0  0  0  0  0  0  0  0
   45.5571   13.0741    8.5789 H   0  0  0  0  0  0  0  0  0  0  0  0
   47.9738   12.7616    8.2571 H   0  0  0  0  0  0  0  0  0  0  0  0
   48.2692   11.1841   12.2727 H   0  0  0  0  0  0  0  0  0  0  0  0
   50.0180   12.1048    9.0695 H   0  0  0  0  0  0  0  0  0  0  0  0
   52.1000   13.5660   10.2364 H   0  0  0  0  0  0  0  0  0  0  0  0
   53.3044   12.7978    9.1133 H   0  0  0  0  0  0  0  0  0  0  0  0
   54.1575   11.3816   11.0029 H   0  0  0  0  0  0  0  0  0  0  0  0
   52.9438   12.1428   12.1228 H   0  0  0  0  0  0  0  0  0  0  0  0
   52.7640    9.0480   10.8664 H   0  0  0  0  0  0  0  0  0  0  0  0
   53.6033    6.3172    6.2126 H   0  0  0  0  0  0  0  0  0  0  0  0
   52.9304    8.4884    7.1534 H   0  0  0  0  0  0  0  0  0  0  0  0
   53.4471    6.8680   11.1313 H   0  0  0  0  0  0  0  0  0  0  0  0
   54.1283    4.7094   10.1393 H   0  0  0  0  0  0  0  0  0  0  0  0
   36.9067   13.9032   14.4545 H   0  0  0  0  0  0  0  0  0  0  0  0
   37.9497   15.0887   13.6644 H   0  0  0  0  0  0  0  0  0  0  0  0
   38.4664   14.2727   15.1911 H   0  0  0  0  0  0  0  0  0  0  0  0
   40.7386    9.5836   11.6429 H   0  0  0  0  0  0  0  0  0  0  0  0
   39.0802    9.3601   11.0780 H   0  0  0  0  0  0  0  0  0  0  0  0
   40.1448   10.4300   10.1627 H   0  0  0  0  0  0  0  0  0  0  0  0
  1  2  2  0
  1  6  1  0
  1 10  1  0
  2  3  1  0
  3  4  2  0
  4  5  1  0
  5  6  2  0
  6  7  1  0
  7  8  2  0
  8  9  1  0
  9 10  2  0
  3 11  1  0
  4 12  1  0
  7 13  1  0
 13 14  1  0
 15 14  2  0
 14 16  1  0
 15 19  1  0
 16 17  2  0
 17 18  1  0
 18 19  2  0
 18 20  1  0
 20 21  1  0
 21 22  2  0
 21 23  1  0
 23 24  1  0
 24 25  1  0
 25 23  1  0
 23 26  1  0
 26 27  1  0
 26 28  2  0
 27 29  1  0
 31 29  1  0
 29 32  2  0
 30 31  2  0
 30 34  1  0
 32 33  1  0
 33 34  2  0
 34 35  1  0
 11 36  1  0
 12 37  1  0
  2 38  1  0
  5 39  1  0
  8 40  1  0
  9 41  1  0
 15 42  1  0
 16 43  1  0
 17 44  1  0
 19 45  1  0
 20 46  1  0
 24 47  1  0
 24 48  1  0
 25 49  1  0
 25 50  1  0
 27 51  1  0
 30 52  1  0
 31 53  1  0
 32 54  1  0
 33 55  1  0
 36 56  1  0
 36 57  1  0
 36 58  1  0
 37 59  1  0
 37 60  1  0
 37 61  1  0
M  END
> <Uni-Dock RESULT> 
ENERGY=   -4.116  LOWER_BOUND=    8.543  UPPER_BOUND=   11.359
INTER + INTRA:          -4.116
INTER:                  -4.116
INTRA:                   0.000
UNBOUND:                 0.000

$$$$

     RDKit          3D

 61 65  0  0  0  0  0  0  0  0999 V2000
   48.2054    7.5032   18.3029 C   0  0  0  0  0  0  0  0  0  0  0  0
   48.0361    6.8049   19.4912 C   0  0  0  0  0  0  0  0  0  0  0  0
   48.3754    5.4537   19.6114 C   0  0  0  0  0  0  0  0  0  0  0  0
   48.9184    4.7779   18.5076 C   0  0  0  0  0  0  0  0  0  0  0  0
   49.0935    5.4679   17.3050 C   0  0  0  0  0  0  0  0  0  0  0  0
   48.7370    6.8309   17.1857 C   0  0  0  0  0  0  0  0  0  0  0  0
   48.8839    7.5725   15.9922 C   0  0  0  0  0  0  0  0  0  0  0  0
   48.4959    8.9087   15.9518 C   0  0  0  0  0  0  0  0  0  0  0  0
   47.9926    9.4693   17.1071 C   0  0  0  0  0  0  0  0  0  0  0  0
   47.8453    8.7972   18.2664 N   0  0  0  0  0  0  0  0  0  0  0  0
   48.2185    4.7129   20.7578 O   0  0  0  0  0  0  0  0  0  0  0  0
   49.2360    3.4591   18.7033 O   0  0  0  0  0  0  0  0  0  0  0  0
   49.3602    6.8877   14.8864 O   0  0  0  0  0  0  0  0  0  0  0  0
   49.9219    7.6136   13.8687 C   0  0  0  0  0  0  0  0  0  0  0  0
   51.1680    8.2118   14.0172 C   0  0  0  0  0  0  0  0  0  0  0  0
   49.2522    7.6708   12.6500 C   0  0  0  0  0  0  0  0  0  0  0  0
   49.8172    8.3733   11.5844 C   0  0  0  0  0  0  0  0  0  0  0  0
   51.0608    9.0024   11.7240 C   0  0  0  0  0  0  0  0  0  0  0  0
   51.7332    8.9118   12.9462 C   0  0  0  0  0  0  0  0  0  0  0  0
   51.5579    9.6947   10.6032 N   0  0  0  0  0  0  0  0  0  0  0  0
   52.7635   10.3519   10.4868 C   0  0  0  0  0  0  0  0  0  0  0  0
   53.6595   10.4400   11.3139 O   0  0  0  0  0  0  0  0  0  0  0  0
   52.9502   11.0094    9.1528 C   0  0  0  0  0  0  0  0  0  0  0  0
   52.0177   12.1700    8.7954 C   0  0  0  0  0  0  0  0  0  0  0  0
   53.4463   12.4576    9.1310 C   0  0  0  0  0  0  0  0  0  0  0  0
   53.3799   10.0988    8.0437 C   0  0  0  0  0  0  0  0  0  0  0  0
   54.7429    9.9135    7.9873 N   0  0  0  0  0  0  0  0  0  0  0  0
   52.5180    9.6055    7.3302 O   0  0  0  0  0  0  0  0  0  0  0  0
   55.4662    9.1362    7.0631 C   0  0  0  0  0  0  0  0  0  0  0  0
   55.6730    7.7080    5.1147 C   0  0  0  0  0  0  0  0  0  0  0  0
   54.8834    8.4630    5.9885 C   0  0  0  0  0  0  0  0  0  0  0  0
   56.8544    9.0491    7.2467 C   0  0  0  0  0  0  0  0  0  0  0  0
   57.6437    8.2992    6.3724 C   0  0  0  0  0  0  0  0  0  0  0  0
   57.0446    7.6339    5.3150 C   0  0  0  0  0  0  0  0  0  0  0  0
   57.8002    6.9121    4.4755 F   0  0  0  0  0  0  0  0  0  0  0  0
   47.5959    5.3455   21.8683 C   0  0  0  0  0  0  0  0  0  0  0  0
   49.8091    2.7495   17.6164 C   0  0  0  0  0  0  0  0  0  0  0  0
   47.6203    7.3558   20.3280 H   0  0  0  0  0  0  0  0  0  0  0  0
   49.5071    4.9674   16.4352 H   0  0  0  0  0  0  0  0  0  0  0  0
   48.5700    9.5100   15.0573 H   0  0  0  0  0  0  0  0  0  0  0  0
   47.6767   10.5083   17.1310 H   0  0  0  0  0  0  0  0  0  0  0  0
   51.7100    8.1319   14.9569 H   0  0  0  0  0  0  0  0  0  0  0  0
   48.2984    7.1712   12.5274 H   0  0  0  0  0  0  0  0  0  0  0  0
   49.2756    8.4110   10.6432 H   0  0  0  0  0  0  0  0  0  0  0  0
   52.7058    9.3674   13.0969 H   0  0  0  0  0  0  0  0  0  0  0  0
   50.9730    9.6870    9.7710 H   0  0  0  0  0  0  0  0  0  0  0  0
   51.2575   12.4590    9.5137 H   0  0  0  0  0  0  0  0  0  0  0  0
   51.7036   12.2775    7.7615 H   0  0  0  0  0  0  0  0  0  0  0  0
   54.0997   12.7735    8.3242 H   0  0  0  0  0  0  0  0  0  0  0  0
   53.6537   12.9431   10.0789 H   0  0  0  0  0  0  0  0  0  0  0  0
   55.2822   10.3550    8.7230 H   0  0  0  0  0  0  0  0  0  0  0  0
   55.2251    7.1805    4.2801 H   0  0  0  0  0  0  0  0  0  0  0  0
   53.8136    8.5016    5.8014 H   0  0  0  0  0  0  0  0  0  0  0  0
   57.3398    9.5591    8.0737 H   0  0  0  0  0  0  0  0  0  0  0  0
   58.7179    8.2289    6.5119 H   0  0  0  0  0  0  0  0  0  0  0  0
   47.5120    4.6063   22.6685 H   0  0  0  0  0  0  0  0  0  0  0  0
   46.5842    5.6796   21.6175 H   0  0  0  0  0  0  0  0  0  0  0  0
   48.2052    6.1721   22.2448 H   0  0  0  0  0  0  0  0  0  0  0  0
   50.7621    3.1932   17.3123 H   0  0  0  0  0  0  0  0  0  0  0  0
   50.0110    1.7286   17.9527 H   0  0  0  0  0  0  0  0  0  0  0  0
   49.1135    2.6897   16.7752 H   0  0  0  0  0  0  0  0  0  0  0  0
  1  2  2  0
  1  6  1  0
  1 10  1  0
  2  3  1  0
  3  4  2  0
  4  5  1  0
  5  6  2  0
  6  7  1  0
  7  8  2  0
  8  9  1  0
  9 10  2  0
  3 11  1  0
  4 12  1  0
  7 13  1  0
 13 14  1  0
 15 14  2  0
 14 16  1  0
 15 19  1  0
 16 17  2  0
 17 18  1  0
 18 19  2  0
 18 20  1  0
 20 21  1  0
 21 22  2  0
 21 23  1  0
 23 24  1  0
 24 25  1  0
 25 23  1  0
 23 26  1  0
 26 27  1  0
 26 28  2  0
 27 29  1  0
 31 29  1  0
 29 32  2  0
 30 31  2  0
 30 34  1  0
 32 33  1  0
 33 34  2  0
 34 35  1  0
 11 36  1  0
 12 37  1  0
  2 38  1  0
  5 39  1  0
  8 40  1  0
  9 41  1  0
 15 42  1  0
 16 43  1  0
 17 44  1  0
 19 45  1  0
 20 46  1  0
 24 47  1  0
 24 48  1  0
 25 49  1  0
 25 50  1  0
 27 51  1  0
 30 52  1  0
 31 53  1  0
 32 54  1  0
 33 55  1  0
 36 56  1  0
 36 57  1  0
 36 58  1  0
 37 59  1  0
 37 60  1  0
 37 61  1  0
M  END
> <Uni-Dock RESULT> 
ENERGY=   -4.076  LOWER_BOUND=    6.784  UPPER_BOUND=    7.940
INTER + INTRA:          -4.076
INTER:                  -4.076
INTRA:                   0.000
UNBOUND:                 0.000

$$$$
