
     RDKit          3D

 61 65  0  0  0  0  0  0  0  0999 V2000
   48.1973   13.3566   11.2441 C   0  0  0  0  0  0  0  0  0  0  0  0
   48.8848   14.5063   10.8805 C   0  0  0  0  0  0  0  0  0  0  0  0
   50.1557   14.4575   10.2957 C   0  0  0  0  0  0  0  0  0  0  0  0
   50.7702   13.2133   10.0856 C   0  0  0  0  0  0  0  0  0  0  0  0
   50.0846   12.0470   10.4306 C   0  0  0  0  0  0  0  0  0  0  0  0
   48.7983   12.1057   11.0128 C   0  0  0  0  0  0  0  0  0  0  0  0
   48.0634   10.9644   11.3922 C   0  0  0  0  0  0  0  0  0  0  0  0
   46.7927   11.0917   11.9460 C   0  0  0  0  0  0  0  0  0  0  0  0
   46.3036   12.3649   12.1338 C   0  0  0  0  0  0  0  0  0  0  0  0
   46.9791   13.4843   11.7992 N   0  0  0  0  0  0  0  0  0  0  0  0
   50.8791   15.5630    9.9195 O   0  0  0  0  0  0  0  0  0  0  0  0
   52.0201   13.2346    9.5202 O   0  0  0  0  0  0  0  0  0  0  0  0
   48.5985    9.7174   11.1282 O   0  0  0  0  0  0  0  0  0  0  0  0
   48.5806    8.8104   12.1609 C   0  0  0  0  0  0  0  0  0  0  0  0
   49.1987    9.0729   13.3829 C   0  0  0  0  0  0  0  0  0  0  0  0
   47.9785    7.5770   11.9291 C   0  0  0  0  0  0  0  0  0  0  0  0
   47.9521    6.6175   12.9451 C   0  0  0  0  0  0  0  0  0  0  0  0
   48.5515    6.8749   14.1859 C   0  0  0  0  0  0  0  0  0  0  0  0
   49.1800    8.1055   14.3946 C   0  0  0  0  0  0  0  0  0  0  0  0
   48.4604    5.8668   15.1647 N   0  0  0  0  0  0  0  0  0  0  0  0
   49.0503    5.8520   16.4078 C   0  0  0  0  0  0  0  0  0  0  0  0
   49.8580    6.6446   16.8706 O   0  0  0  0  0  0  0  0  0  0  0  0
   48.6464    4.6801   17.2495 C   0  0  0  0  0  0  0  0  0  0  0  0
   48.0340    4.9798   18.6215 C   0  0  0  0  0  0  0  0  0  0  0  0
   47.1567    4.4639   17.5261 C   0  0  0  0  0  0  0  0  0  0  0  0
   49.5331    3.4744   17.1559 C   0  0  0  0  0  0  0  0  0  0  0  0
   50.7446    3.6453   17.7905 N   0  0  0  0  0  0  0  0  0  0  0  0
   49.1317    2.4934   16.5482 O   0  0  0  0  0  0  0  0  0  0  0  0
   51.7693    2.6936   17.9511 C   0  0  0  0  0  0  0  0  0  0  0  0
   52.7034    0.4593   17.7970 C   0  0  0  0  0  0  0  0  0  0  0  0
   51.6439    1.3485   17.5907 C   0  0  0  0  0  0  0  0  0  0  0  0
   52.9694    3.1366   18.5273 C   0  0  0  0  0  0  0  0  0  0  0  0
   54.0277    2.2482   18.7322 C   0  0  0  0  0  0  0  0  0  0  0  0
   53.8845    0.9169   18.3664 C   0  0  0  0  0  0  0  0  0  0  0  0
   54.8963    0.0628   18.5667 F   0  0  0  0  0  0  0  0  0  0  0  0
   50.2167   16.8208    9.9514 C   0  0  0  0  0  0  0  0  0  0  0  0
   52.8029   12.0544    9.6382 C   0  0  0  0  0  0  0  0  0  0  0  0
   48.3923   15.4534   11.0765 H   0  0  0  0  0  0  0  0  0  0  0  0
   50.5277   11.0737   10.2489 H   0  0  0  0  0  0  0  0  0  0  0  0
   46.1955   10.2306   12.2174 H   0  0  0  0  0  0  0  0  0  0  0  0
   45.3205   12.5302   12.5655 H   0  0  0  0  0  0  0  0  0  0  0  0
   49.7003   10.0219   13.5591 H   0  0  0  0  0  0  0  0  0  0  0  0
   47.5243    7.3641   10.9654 H   0  0  0  0  0  0  0  0  0  0  0  0
   47.4654    5.6650   12.7477 H   0  0  0  0  0  0  0  0  0  0  0  0
   49.6592    8.3505   15.3384 H   0  0  0  0  0  0  0  0  0  0  0  0
   47.9185    5.0460   14.9177 H   0  0  0  0  0  0  0  0  0  0  0  0
   47.9283    6.0183   18.9177 H   0  0  0  0  0  0  0  0  0  0  0  0
   48.2586    4.3119   19.4467 H   0  0  0  0  0  0  0  0  0  0  0  0
   46.7952    3.4434   17.6005 H   0  0  0  0  0  0  0  0  0  0  0  0
   46.4357    5.1508   17.0963 H   0  0  0  0  0  0  0  0  0  0  0  0
   50.9416    4.5851   18.1260 H   0  0  0  0  0  0  0  0  0  0  0  0
   52.6079   -0.5856   17.5199 H   0  0  0  0  0  0  0  0  0  0  0  0
   50.7297    0.9559   17.1560 H   0  0  0  0  0  0  0  0  0  0  0  0
   53.0985    4.1771   18.8162 H   0  0  0  0  0  0  0  0  0  0  0  0
   54.9586    2.5865   19.1754 H   0  0  0  0  0  0  0  0  0  0  0  0
   49.3033   16.8063    9.3458 H   0  0  0  0  0  0  0  0  0  0  0  0
   50.0055   17.1252   10.9821 H   0  0  0  0  0  0  0  0  0  0  0  0
   50.8903   17.5660    9.5161 H   0  0  0  0  0  0  0  0  0  0  0  0
   52.8295   11.6903   10.6702 H   0  0  0  0  0  0  0  0  0  0  0  0
   52.4395   11.2790    8.9562 H   0  0  0  0  0  0  0  0  0  0  0  0
   53.8281   12.3026    9.3477 H   0  0  0  0  0  0  0  0  0  0  0  0
  1  2  2  0
  1  6  1  0
  1 10  1  0
  2  3  1  0
  3  4  2  0
  4  5  1  0
  5  6  2  0
  6  7  1  0
  7  8  2  0
  8  9  1  0
  9 10  2  0
  3 11  1  0
  4 12  1  0
  7 13  1  0
 13 14  1  0
 15 14  2  0
 14 16  1  0
 15 19  1  0
 16 17  2  0
 17 18  1  0
 18 19  2  0
 18 20  1  0
 20 21  1  0
 21 22  2  0
 21 23  1  0
 23 24  1  0
 24 25  1  0
 25 23  1  0
 23 26  1  0
 26 27  1  0
 26 28  2  0
 27 29  1  0
 31 29  1  0
 29 32  2  0
 30 31  2  0
 30 34  1  0
 32 33  1  0
 33 34  2  0
 34 35  1  0
 11 36  1  0
 12 37  1  0
  2 38  1  0
  5 39  1  0
  8 40  1  0
  9 41  1  0
 15 42  1  0
 16 43  1  0
 17 44  1  0
 19 45  1  0
 20 46  1  0
 24 47  1  0
 24 48  1  0
 25 49  1  0
 25 50  1  0
 27 51  1  0
 30 52  1  0
 31 53  1  0
 32 54  1  0
 33 55  1  0
 36 56  1  0
 36 57  1  0
 36 58  1  0
 37 59  1  0
 37 60  1  0
 37 61  1  0
M  END
> <Uni-Dock RESULT> 
ENERGY=   -5.055  LOWER_BOUND=    0.000  UPPER_BOUND=    0.000
INTER + INTRA:          -5.055
INTER:                  -5.055
INTRA:                   0.000
UNBOUND:                 0.000

$$$$

     RDKit          3D

 61 65  0  0  0  0  0  0  0  0999 V2000
   49.6141    6.0004   20.4996 C   0  0  0  0  0  0  0  0  0  0  0  0
   50.4886    5.4038   21.3973 C   0  0  0  0  0  0  0  0  0  0  0  0
   51.7897    5.0371   21.0337 C   0  0  0  0  0  0  0  0  0  0  0  0
   52.2253    5.2569   19.7178 C   0  0  0  0  0  0  0  0  0  0  0  0
   51.3631    5.8713   18.8076 C   0  0  0  0  0  0  0  0  0  0  0  0
   50.0540    6.2457   19.1860 C   0  0  0  0  0  0  0  0  0  0  0  0
   49.1359    6.8578   18.3090 C   0  0  0  0  0  0  0  0  0  0  0  0
   47.8657    7.2171   18.7508 C   0  0  0  0  0  0  0  0  0  0  0  0
   47.5379    6.9242   20.0555 C   0  0  0  0  0  0  0  0  0  0  0  0
   48.3802    6.3260   20.9238 N   0  0  0  0  0  0  0  0  0  0  0  0
   52.6932    4.4431   21.8809 O   0  0  0  0  0  0  0  0  0  0  0  0
   53.5062    4.8642   19.4223 O   0  0  0  0  0  0  0  0  0  0  0  0
   49.5524    7.1652   17.0272 O   0  0  0  0  0  0  0  0  0  0  0  0
   48.7140    6.7935   16.0034 C   0  0  0  0  0  0  0  0  0  0  0  0
   48.3306    5.4669   15.8097 C   0  0  0  0  0  0  0  0  0  0  0  0
   48.3049    7.7802   15.1108 C   0  0  0  0  0  0  0  0  0  0  0  0
   47.4659    7.4445   14.0445 C   0  0  0  0  0  0  0  0  0  0  0  0
   47.0557    6.1184   13.8488 C   0  0  0  0  0  0  0  0  0  0  0  0
   47.4992    5.1324   14.7343 C   0  0  0  0  0  0  0  0  0  0  0  0
   46.1911    5.8667   12.7664 N   0  0  0  0  0  0  0  0  0  0  0  0
   45.7407    4.6446   12.3223 C   0  0  0  0  0  0  0  0  0  0  0  0
   46.0826    3.5317   12.6957 O   0  0  0  0  0  0  0  0  0  0  0  0
   44.7311    4.7420   11.2195 C   0  0  0  0  0  0  0  0  0  0  0  0
   43.3769    4.0624   11.4462 C   0  0  0  0  0  0  0  0  0  0  0  0
   43.4589    5.5552   11.4696 C   0  0  0  0  0  0  0  0  0  0  0  0
   45.2826    4.6978    9.8257 C   0  0  0  0  0  0  0  0  0  0  0  0
   45.7178    3.4430    9.4573 N   0  0  0  0  0  0  0  0  0  0  0  0
   45.3071    5.7277    9.1686 O   0  0  0  0  0  0  0  0  0  0  0  0
   46.2196    3.0440    8.2042 C   0  0  0  0  0  0  0  0  0  0  0  0
   46.7262    3.3893    5.8563 C   0  0  0  0  0  0  0  0  0  0  0  0
   46.2243    3.8644    7.0721 C   0  0  0  0  0  0  0  0  0  0  0  0
   46.7192    1.7369    8.1017 C   0  0  0  0  0  0  0  0  0  0  0  0
   47.2213    1.2631    6.8873 C   0  0  0  0  0  0  0  0  0  0  0  0
   47.2188    2.0934    5.7749 C   0  0  0  0  0  0  0  0  0  0  0  0
   47.6953    1.6391    4.6088 F   0  0  0  0  0  0  0  0  0  0  0  0
   52.3497    4.3715   23.2589 C   0  0  0  0  0  0  0  0  0  0  0  0
   53.8397    4.7286   18.0476 C   0  0  0  0  0  0  0  0  0  0  0  0
   50.1144    5.2269   22.4007 H   0  0  0  0  0  0  0  0  0  0  0  0
   51.6892    6.0786   17.7940 H   0  0  0  0  0  0  0  0  0  0  0  0
   47.1531    7.7157   18.1063 H   0  0  0  0  0  0  0  0  0  0  0  0
   46.5607    7.1754   20.4583 H   0  0  0  0  0  0  0  0  0  0  0  0
   48.6740    4.6854   16.4840 H   0  0  0  0  0  0  0  0  0  0  0  0
   48.6300    8.8079   15.2469 H   0  0  0  0  0  0  0  0  0  0  0  0
   47.1475    8.2327   13.3659 H   0  0  0  0  0  0  0  0  0  0  0  0
   47.2094    4.0912   14.6230 H   0  0  0  0  0  0  0  0  0  0  0  0
   45.8836    6.6752   12.2372 H   0  0  0  0  0  0  0  0  0  0  0  0
   43.2173    3.5423   12.3850 H   0  0  0  0  0  0  0  0  0  0  0  0
   42.8826    3.5961   10.6002 H   0  0  0  0  0  0  0  0  0  0  0  0
   43.0317    6.1023   10.6354 H   0  0  0  0  0  0  0  0  0  0  0  0
   43.3285    6.0491   12.4264 H   0  0  0  0  0  0  0  0  0  0  0  0
   45.7335    2.7439   10.1959 H   0  0  0  0  0  0  0  0  0  0  0  0
   46.7293    4.0234    4.9756 H   0  0  0  0  0  0  0  0  0  0  0  0
   45.8343    4.8774    7.0984 H   0  0  0  0  0  0  0  0  0  0  0  0
   46.7311    1.0753    8.9647 H   0  0  0  0  0  0  0  0  0  0  0  0
   47.6109    0.2539    6.8037 H   0  0  0  0  0  0  0  0  0  0  0  0
   52.1235    5.3638   23.6658 H   0  0  0  0  0  0  0  0  0  0  0  0
   51.5176    3.6774   23.4186 H   0  0  0  0  0  0  0  0  0  0  0  0
   53.2169    3.9814   23.8012 H   0  0  0  0  0  0  0  0  0  0  0  0
   53.0968    4.1308   17.5100 H   0  0  0  0  0  0  0  0  0  0  0  0
   53.9668    5.7109   17.5814 H   0  0  0  0  0  0  0  0  0  0  0  0
   54.7967    4.2019   17.9859 H   0  0  0  0  0  0  0  0  0  0  0  0
  1  2  2  0
  1  6  1  0
  1 10  1  0
  2  3  1  0
  3  4  2  0
  4  5  1  0
  5  6  2  0
  6  7  1  0
  7  8  2  0
  8  9  1  0
  9 10  2  0
  3 11  1  0
  4 12  1  0
  7 13  1  0
 13 14  1  0
 15 14  2  0
 14 16  1  0
 15 19  1  0
 16 17  2  0
 17 18  1  0
 18 19  2  0
 18 20  1  0
 20 21  1  0
 21 22  2  0
 21 23  1  0
 23 24  1  0
 24 25  1  0
 25 23  1  0
 23 26  1  0
 26 27  1  0
 26 28  2  0
 27 29  1  0
 31 29  1  0
 29 32  2  0
 30 31  2  0
 30 34  1  0
 32 33  1  0
 33 34  2  0
 34 35  1  0
 11 36  1  0
 12 37  1  0
  2 38  1  0
  5 39  1  0
  8 40  1  0
  9 41  1  0
 15 42  1  0
 16 43  1  0
 17 44  1  0
 19 45  1  0
 20 46  1  0
 24 47  1  0
 24 48  1  0
 25 49  1  0
 25 50  1  0
 27 51  1  0
 30 52  1  0
 31 53  1  0
 32 54  1  0
 33 55  1  0
 36 56  1  0
 36 57  1  0
 36 58  1  0
 37 59  1  0
 37 60  1  0
 37 61  1  0
M  END
> <Uni-Dock RESULT> 
ENERGY=   -4.905  LOWER_BOUND=    5.897  UPPER_BOUND=   10.450
INTER + INTRA:          -4.905
INTER:                  -4.905
INTRA:                   0.000
UNBOUND:                 0.000

$$$$

     RDKit          3D

 61 65  0  0  0  0  0  0  0  0999 V2000
   45.4460   12.7268   11.6667 C   0  0  0  0  0  0  0  0  0  0  0  0
   45.4659   14.1134   11.6061 C   0  0  0  0  0  0  0  0  0  0  0  0
   46.6630   14.8367   11.5488 C   0  0  0  0  0  0  0  0  0  0  0  0
   47.8859   14.1484   11.5737 C   0  0  0  0  0  0  0  0  0  0  0  0
   47.8823   12.7529   11.6177 C   0  0  0  0  0  0  0  0  0  0  0  0
   46.6686   12.0307   11.6668 C   0  0  0  0  0  0  0  0  0  0  0  0
   46.6024   10.6240   11.7241 C   0  0  0  0  0  0  0  0  0  0  0  0
   45.3723    9.9731   11.7537 C   0  0  0  0  0  0  0  0  0  0  0  0
   44.2380   10.7535   11.7563 C   0  0  0  0  0  0  0  0  0  0  0  0
   44.2561   12.1024   11.7175 N   0  0  0  0  0  0  0  0  0  0  0  0
   46.7388   16.2070   11.4896 O   0  0  0  0  0  0  0  0  0  0  0  0
   49.0222   14.9157   11.5272 O   0  0  0  0  0  0  0  0  0  0  0  0
   47.7819    9.9052   11.6690 O   0  0  0  0  0  0  0  0  0  0  0  0
   47.9403    8.9123   12.6061 C   0  0  0  0  0  0  0  0  0  0  0  0
   47.8946    9.1764   13.9745 C   0  0  0  0  0  0  0  0  0  0  0  0
   48.2188    7.6277   12.1479 C   0  0  0  0  0  0  0  0  0  0  0  0
   48.4045    6.5901   13.0657 C   0  0  0  0  0  0  0  0  0  0  0  0
   48.3413    6.8366   14.4443 C   0  0  0  0  0  0  0  0  0  0  0  0
   48.0919    8.1370   14.8912 C   0  0  0  0  0  0  0  0  0  0  0  0
   48.5148    5.7338   15.3025 N   0  0  0  0  0  0  0  0  0  0  0  0
   48.5921    5.7471   16.6763 C   0  0  0  0  0  0  0  0  0  0  0  0
   48.6418    6.7153   17.4213 O   0  0  0  0  0  0  0  0  0  0  0  0
   48.6550    4.3802   17.2867 C   0  0  0  0  0  0  0  0  0  0  0  0
   47.5861    4.0261   18.3256 C   0  0  0  0  0  0  0  0  0  0  0  0
   47.5292    3.3922   16.9726 C   0  0  0  0  0  0  0  0  0  0  0  0
   50.0320    3.8353   17.5235 C   0  0  0  0  0  0  0  0  0  0  0  0
   50.6812    4.4479   18.5737 N   0  0  0  0  0  0  0  0  0  0  0  0
   50.4462    2.9445   16.7971 O   0  0  0  0  0  0  0  0  0  0  0  0
   51.9470    4.1297   19.1010 C   0  0  0  0  0  0  0  0  0  0  0  0
   53.9414    2.7601   19.2877 C   0  0  0  0  0  0  0  0  0  0  0  0
   52.6971    3.0186   18.7041 C   0  0  0  0  0  0  0  0  0  0  0  0
   52.4571    4.9772   20.0961 C   0  0  0  0  0  0  0  0  0  0  0  0
   53.7004    4.7191   20.6780 C   0  0  0  0  0  0  0  0  0  0  0  0
   54.4309    3.6118   20.2694 C   0  0  0  0  0  0  0  0  0  0  0  0
   55.6209    3.3602   20.8297 F   0  0  0  0  0  0  0  0  0  0  0  0
   45.5271   16.9215   11.2818 C   0  0  0  0  0  0  0  0  0  0  0  0
   50.2382   14.2941   11.9204 C   0  0  0  0  0  0  0  0  0  0  0  0
   44.5045   14.6171   11.6110 H   0  0  0  0  0  0  0  0  0  0  0  0
   48.8151   12.1994   11.6068 H   0  0  0  0  0  0  0  0  0  0  0  0
   45.2937    8.8936   11.7670 H   0  0  0  0  0  0  0  0  0  0  0  0
   43.2487   10.3052   11.7830 H   0  0  0  0  0  0  0  0  0  0  0  0
   47.7108   10.1844   14.3398 H   0  0  0  0  0  0  0  0  0  0  0  0
   48.2839    7.4311   11.0813 H   0  0  0  0  0  0  0  0  0  0  0  0
   48.6084    5.5913   12.6865 H   0  0  0  0  0  0  0  0  0  0  0  0
   48.0351    8.3773   15.9493 H   0  0  0  0  0  0  0  0  0  0  0  0
   48.6195    4.8284   14.8579 H   0  0  0  0  0  0  0  0  0  0  0  0
   46.8440    4.7785   18.5716 H   0  0  0  0  0  0  0  0  0  0  0  0
   47.8672    3.4000   19.1661 H   0  0  0  0  0  0  0  0  0  0  0  0
   47.7826    2.3402   16.8915 H   0  0  0  0  0  0  0  0  0  0  0  0
   46.7283    3.6994   16.3088 H   0  0  0  0  0  0  0  0  0  0  0  0
   50.2159    5.2608   18.9701 H   0  0  0  0  0  0  0  0  0  0  0  0
   54.5248    1.8974   18.9827 H   0  0  0  0  0  0  0  0  0  0  0  0
   52.3373    2.3259   17.9492 H   0  0  0  0  0  0  0  0  0  0  0  0
   51.8985    5.8505   20.4248 H   0  0  0  0  0  0  0  0  0  0  0  0
   54.1001    5.3729   21.4463 H   0  0  0  0  0  0  0  0  0  0  0  0
   45.0149   16.5830   10.3738 H   0  0  0  0  0  0  0  0  0  0  0  0
   44.8741   16.8465   12.1579 H   0  0  0  0  0  0  0  0  0  0  0  0
   45.7796   17.9779   11.1448 H   0  0  0  0  0  0  0  0  0  0  0  0
   50.1348   13.7782   12.8803 H   0  0  0  0  0  0  0  0  0  0  0  0
   50.5929   13.6106   11.1422 H   0  0  0  0  0  0  0  0  0  0  0  0
   50.9900   15.0791   12.0451 H   0  0  0  0  0  0  0  0  0  0  0  0
  1  2  2  0
  1  6  1  0
  1 10  1  0
  2  3  1  0
  3  4  2  0
  4  5  1  0
  5  6  2  0
  6  7  1  0
  7  8  2  0
  8  9  1  0
  9 10  2  0
  3 11  1  0
  4 12  1  0
  7 13  1  0
 13 14  1  0
 15 14  2  0
 14 16  1  0
 15 19  1  0
 16 17  2  0
 17 18  1  0
 18 19  2  0
 18 20  1  0
 20 21  1  0
 21 22  2  0
 21 23  1  0
 23 24  1  0
 24 25  1  0
 25 23  1  0
 23 26  1  0
 26 27  1  0
 26 28  2  0
 27 29  1  0
 31 29  1  0
 29 32  2  0
 30 31  2  0
 30 34  1  0
 32 33  1  0
 33 34  2  0
 34 35  1  0
 11 36  1  0
 12 37  1  0
  2 38  1  0
  5 39  1  0
  8 40  1  0
  9 41  1  0
 15 42  1  0
 16 43  1  0
 17 44  1  0
 19 45  1  0
 20 46  1  0
 24 47  1  0
 24 48  1  0
 25 49  1  0
 25 50  1  0
 27 51  1  0
 30 52  1  0
 31 53  1  0
 32 54  1  0
 33 55  1  0
 36 56  1  0
 36 57  1  0
 36 58  1  0
 37 59  1  0
 37 60  1  0
 37 61  1  0
M  END
> <Uni-Dock RESULT> 
ENERGY=   -4.642  LOWER_BOUND=    1.871  UPPER_BOUND=    2.503
INTER + INTRA:          -4.642
INTER:                  -4.642
INTRA:                   0.000
UNBOUND:                 0.000

$$$$

     RDKit          3D

 61 65  0  0  0  0  0  0  0  0999 V2000
   52.8229    8.4903   12.7617 C   0  0  0  0  0  0  0  0  0  0  0  0
   53.9870    8.8486   13.4274 C   0  0  0  0  0  0  0  0  0  0  0  0
   54.0271    9.0112   14.8172 C   0  0  0  0  0  0  0  0  0  0  0  0
   52.8545    8.8284   15.5665 C   0  0  0  0  0  0  0  0  0  0  0  0
   51.6795    8.4516   14.9134 C   0  0  0  0  0  0  0  0  0  0  0  0
   51.6505    8.2816   13.5107 C   0  0  0  0  0  0  0  0  0  0  0  0
   50.4929    7.9140   12.7956 C   0  0  0  0  0  0  0  0  0  0  0  0
   50.5366    7.7468   11.4143 C   0  0  0  0  0  0  0  0  0  0  0  0
   51.7360    7.9834   10.7811 C   0  0  0  0  0  0  0  0  0  0  0  0
   52.8637    8.3512   11.4247 N   0  0  0  0  0  0  0  0  0  0  0  0
   55.1502    9.3660   15.5242 O   0  0  0  0  0  0  0  0  0  0  0  0
   52.9579    9.0144   16.9218 O   0  0  0  0  0  0  0  0  0  0  0  0
   49.3369    7.6458   13.5045 O   0  0  0  0  0  0  0  0  0  0  0  0
   48.1850    8.2417   13.0490 C   0  0  0  0  0  0  0  0  0  0  0  0
   48.0682    9.6263   12.9322 C   0  0  0  0  0  0  0  0  0  0  0  0
   47.0982    7.4190   12.7668 C   0  0  0  0  0  0  0  0  0  0  0  0
   45.9010    7.9832   12.3175 C   0  0  0  0  0  0  0  0  0  0  0  0
   45.7752    9.3721   12.1757 C   0  0  0  0  0  0  0  0  0  0  0  0
   46.8641   10.1887   12.4923 C   0  0  0  0  0  0  0  0  0  0  0  0
   44.5451    9.8598   11.6943 N   0  0  0  0  0  0  0  0  0  0  0  0
   44.1579   11.1743   11.5686 C   0  0  0  0  0  0  0  0  0  0  0  0
   44.7466   12.1755   11.9506 O   0  0  0  0  0  0  0  0  0  0  0  0
   42.8258   11.3463   10.9046 C   0  0  0  0  0  0  0  0  0  0  0  0
   42.7742   12.2309    9.6548 C   0  0  0  0  0  0  0  0  0  0  0  0
   42.6278   10.7501    9.5090 C   0  0  0  0  0  0  0  0  0  0  0  0
   41.6429   11.4088   11.8241 C   0  0  0  0  0  0  0  0  0  0  0  0
   41.5645   12.5944   12.5225 N   0  0  0  0  0  0  0  0  0  0  0  0
   40.8895   10.4485   11.8813 O   0  0  0  0  0  0  0  0  0  0  0  0
   40.5482   13.0020   13.4070 C   0  0  0  0  0  0  0  0  0  0  0  0
   38.3912   12.7692   14.4940 C   0  0  0  0  0  0  0  0  0  0  0  0
   39.3620   12.2900   13.6088 C   0  0  0  0  0  0  0  0  0  0  0  0
   40.7478   14.2056   14.0999 C   0  0  0  0  0  0  0  0  0  0  0  0
   39.7782   14.6834   14.9847 C   0  0  0  0  0  0  0  0  0  0  0  0
   38.6077   13.9613   15.1727 C   0  0  0  0  0  0  0  0  0  0  0  0
   37.6750   14.4203   16.0169 F   0  0  0  0  0  0  0  0  0  0  0  0
   56.3872    9.3821   14.8234 C   0  0  0  0  0  0  0  0  0  0  0  0
   51.7476    9.2030   17.6424 C   0  0  0  0  0  0  0  0  0  0  0  0
   54.8712    9.0044   12.8175 H   0  0  0  0  0  0  0  0  0  0  0  0
   50.7691    8.2751   15.4760 H   0  0  0  0  0  0  0  0  0  0  0  0
   49.6697    7.4355   10.8457 H   0  0  0  0  0  0  0  0  0  0  0  0
   51.8330    7.8743    9.7045 H   0  0  0  0  0  0  0  0  0  0  0  0
   48.9028   10.2772   13.1832 H   0  0  0  0  0  0  0  0  0  0  0  0
   47.1827    6.3426   12.8879 H   0  0  0  0  0  0  0  0  0  0  0  0
   45.0679    7.3217   12.0903 H   0  0  0  0  0  0  0  0  0  0  0  0
   46.8143   11.2702   12.3998 H   0  0  0  0  0  0  0  0  0  0  0  0
   43.8552    9.1640   11.4328 H   0  0  0  0  0  0  0  0  0  0  0  0
   43.6966   12.6914    9.3165 H   0  0  0  0  0  0  0  0  0  0  0  0
   41.8947   12.8448    9.4900 H   0  0  0  0  0  0  0  0  0  0  0  0
   41.6482   10.3570    9.2573 H   0  0  0  0  0  0  0  0  0  0  0  0
   43.4460   10.2090    9.0461 H   0  0  0  0  0  0  0  0  0  0  0  0
   42.3642   13.2165   12.4326 H   0  0  0  0  0  0  0  0  0  0  0  0
   37.4688   12.2193   14.6509 H   0  0  0  0  0  0  0  0  0  0  0  0
   39.1559   11.3620   13.0840 H   0  0  0  0  0  0  0  0  0  0  0  0
   41.6607   14.7812   13.9662 H   0  0  0  0  0  0  0  0  0  0  0  0
   39.9290   15.6124   15.5246 H   0  0  0  0  0  0  0  0  0  0  0  0
   56.5908    8.4144   14.3507 H   0  0  0  0  0  0  0  0  0  0  0  0
   56.4103   10.1953   14.0900 H   0  0  0  0  0  0  0  0  0  0  0  0
   57.1832    9.5685   15.5515 H   0  0  0  0  0  0  0  0  0  0  0  0
   51.1147    9.9639   17.1746 H   0  0  0  0  0  0  0  0  0  0  0  0
   51.2098    8.2556   17.7506 H   0  0  0  0  0  0  0  0  0  0  0  0
   52.0067    9.5577   18.6444 H   0  0  0  0  0  0  0  0  0  0  0  0
  1  2  2  0
  1  6  1  0
  1 10  1  0
  2  3  1  0
  3  4  2  0
  4  5  1  0
  5  6  2  0
  6  7  1  0
  7  8  2  0
  8  9  1  0
  9 10  2  0
  3 11  1  0
  4 12  1  0
  7 13  1  0
 13 14  1  0
 15 14  2  0
 14 16  1  0
 15 19  1  0
 16 17  2  0
 17 18  1  0
 18 19  2  0
 18 20  1  0
 20 21  1  0
 21 22  2  0
 21 23  1  0
 23 24  1  0
 24 25  1  0
 25 23  1  0
 23 26  1  0
 26 27  1  0
 26 28  2  0
 27 29  1  0
 31 29  1  0
 29 32  2  0
 30 31  2  0
 30 34  1  0
 32 33  1  0
 33 34  2  0
 34 35  1  0
 11 36  1  0
 12 37  1  0
  2 38  1  0
  5 39  1  0
  8 40  1  0
  9 41  1  0
 15 42  1  0
 16 43  1  0
 17 44  1  0
 19 45  1  0
 20 46  1  0
 24 47  1  0
 24 48  1  0
 25 49  1  0
 25 50  1  0
 27 51  1  0
 30 52  1  0
 31 53  1  0
 32 54  1  0
 33 55  1  0
 36 56  1  0
 36 57  1  0
 36 58  1  0
 37 59  1  0
 37 60  1  0
 37 61  1  0
M  END
> <Uni-Dock RESULT> 
ENERGY=   -4.585  LOWER_BOUND=    6.393  UPPER_BOUND=   10.966
INTER + INTRA:          -4.585
INTER:                  -4.585
INTRA:                   0.000
UNBOUND:                 0.000

$$$$

     RDKit          3D

 61 65  0  0  0  0  0  0  0  0999 V2000
   45.6896   11.5714   11.3226 C   0  0  0  0  0  0  0  0  0  0  0  0
   44.4903   11.5099   10.6265 C   0  0  0  0  0  0  0  0  0  0  0  0
   43.7199   10.3421   10.5771 C   0  0  0  0  0  0  0  0  0  0  0  0
   44.1763    9.1873   11.2313 C   0  0  0  0  0  0  0  0  0  0  0  0
   45.3724    9.2380   11.9496 C   0  0  0  0  0  0  0  0  0  0  0  0
   46.1393   10.4238   12.0009 C   0  0  0  0  0  0  0  0  0  0  0  0
   47.3589   10.5318   12.6992 C   0  0  0  0  0  0  0  0  0  0  0  0
   48.0574   11.7357   12.7235 C   0  0  0  0  0  0  0  0  0  0  0  0
   47.5284   12.7939   12.0194 C   0  0  0  0  0  0  0  0  0  0  0  0
   46.3726   12.7299   11.3256 N   0  0  0  0  0  0  0  0  0  0  0  0
   42.5289   10.2270    9.9023 O   0  0  0  0  0  0  0  0  0  0  0  0
   43.3814    8.0733   11.1344 O   0  0  0  0  0  0  0  0  0  0  0  0
   47.8031    9.4414   13.4235 O   0  0  0  0  0  0  0  0  0  0  0  0
   49.1175    9.0805   13.2460 C   0  0  0  0  0  0  0  0  0  0  0  0
   49.6273    8.7476   11.9916 C   0  0  0  0  0  0  0  0  0  0  0  0
   49.9225    8.9892   14.3779 C   0  0  0  0  0  0  0  0  0  0  0  0
   51.2611    8.6090   14.2468 C   0  0  0  0  0  0  0  0  0  0  0  0
   51.7931    8.2910   12.9894 C   0  0  0  0  0  0  0  0  0  0  0  0
   50.9655    8.3566   11.8653 C   0  0  0  0  0  0  0  0  0  0  0  0
   53.1561    7.9413   12.9385 N   0  0  0  0  0  0  0  0  0  0  0  0
   53.8659    7.4991   11.8457 C   0  0  0  0  0  0  0  0  0  0  0  0
   53.4426    7.2112   10.7354 O   0  0  0  0  0  0  0  0  0  0  0  0
   55.3315    7.3332   12.1096 C   0  0  0  0  0  0  0  0  0  0  0  0
   56.2988    8.0996   11.2017 C   0  0  0  0  0  0  0  0  0  0  0  0
   56.1191    8.5428   12.6184 C   0  0  0  0  0  0  0  0  0  0  0  0
   55.7628    5.9674   12.5539 C   0  0  0  0  0  0  0  0  0  0  0  0
   55.7341    5.0358   11.5385 N   0  0  0  0  0  0  0  0  0  0  0  0
   56.0797    5.8005   13.7221 O   0  0  0  0  0  0  0  0  0  0  0  0
   56.1417    3.6899   11.5992 C   0  0  0  0  0  0  0  0  0  0  0  0
   57.1710    1.7778   12.6823 C   0  0  0  0  0  0  0  0  0  0  0  0
   56.7814    3.1208   12.7045 C   0  0  0  0  0  0  0  0  0  0  0  0
   55.9017    2.8970   10.4668 C   0  0  0  0  0  0  0  0  0  0  0  0
   56.2902    1.5554   10.4455 C   0  0  0  0  0  0  0  0  0  0  0  0
   56.9227    1.0082   11.5533 C   0  0  0  0  0  0  0  0  0  0  0  0
   57.3001   -0.2765   11.5327 F   0  0  0  0  0  0  0  0  0  0  0  0
   41.9522   11.4188    9.3838 C   0  0  0  0  0  0  0  0  0  0  0  0
   43.9780    6.8239   11.4547 C   0  0  0  0  0  0  0  0  0  0  0  0
   44.1760   12.4128   10.1127 H   0  0  0  0  0  0  0  0  0  0  0  0
   45.7286    8.3664   12.4880 H   0  0  0  0  0  0  0  0  0  0  0  0
   48.9800   11.8534   13.2772 H   0  0  0  0  0  0  0  0  0  0  0  0
   48.0286   13.7581   11.9959 H   0  0  0  0  0  0  0  0  0  0  0  0
   48.9947    8.7843   11.1074 H   0  0  0  0  0  0  0  0  0  0  0  0
   49.5141    9.2199   15.3580 H   0  0  0  0  0  0  0  0  0  0  0  0
   51.8763    8.5563   15.1423 H   0  0  0  0  0  0  0  0  0  0  0  0
   51.3318    8.1184   10.8705 H   0  0  0  0  0  0  0  0  0  0  0  0
   53.6691    7.9976   13.8114 H   0  0  0  0  0  0  0  0  0  0  0  0
   55.8794    8.7165   10.4138 H   0  0  0  0  0  0  0  0  0  0  0  0
   57.2401    7.6309   10.9338 H   0  0  0  0  0  0  0  0  0  0  0  0
   56.9319    8.3651   13.3151 H   0  0  0  0  0  0  0  0  0  0  0  0
   55.5971    9.4782   12.7882 H   0  0  0  0  0  0  0  0  0  0  0  0
   55.3131    5.3435   10.6653 H   0  0  0  0  0  0  0  0  0  0  0  0
   57.6694    1.3342   13.5382 H   0  0  0  0  0  0  0  0  0  0  0  0
   57.0023    3.6981   13.5972 H   0  0  0  0  0  0  0  0  0  0  0  0
   55.4043    3.3099    9.5923 H   0  0  0  0  0  0  0  0  0  0  0  0
   56.1047    0.9377    9.5729 H   0  0  0  0  0  0  0  0  0  0  0  0
   41.8111   12.1689   10.1705 H   0  0  0  0  0  0  0  0  0  0  0  0
   42.5526   11.8165    8.5586 H   0  0  0  0  0  0  0  0  0  0  0  0
   40.9641   11.1677    8.9851 H   0  0  0  0  0  0  0  0  0  0  0  0
   44.9326    6.6887   10.9362 H   0  0  0  0  0  0  0  0  0  0  0  0
   44.0998    6.7194   12.5376 H   0  0  0  0  0  0  0  0  0  0  0  0
   43.3017    6.0336   11.1156 H   0  0  0  0  0  0  0  0  0  0  0  0
  1  2  2  0
  1  6  1  0
  1 10  1  0
  2  3  1  0
  3  4  2  0
  4  5  1  0
  5  6  2  0
  6  7  1  0
  7  8  2  0
  8  9  1  0
  9 10  2  0
  3 11  1  0
  4 12  1  0
  7 13  1  0
 13 14  1  0
 15 14  2  0
 14 16  1  0
 15 19  1  0
 16 17  2  0
 17 18  1  0
 18 19  2  0
 18 20  1  0
 20 21  1  0
 21 22  2  0
 21 23  1  0
 23 24  1  0
 24 25  1  0
 25 23  1  0
 23 26  1  0
 26 27  1  0
 26 28  2  0
 27 29  1  0
 31 29  1  0
 29 32  2  0
 30 31  2  0
 30 34  1  0
 32 33  1  0
 33 34  2  0
 34 35  1  0
 11 36  1  0
 12 37  1  0
  2 38  1  0
  5 39  1  0
  8 40  1  0
  9 41  1  0
 15 42  1  0
 16 43  1  0
 17 44  1  0
 19 45  1  0
 20 46  1  0
 24 47  1  0
 24 48  1  0
 25 49  1  0
 25 50  1  0
 27 51  1  0
 30 52  1  0
 31 53  1  0
 32 54  1  0
 33 55  1  0
 36 56  1  0
 36 57  1  0
 36 58  1  0
 37 59  1  0
 37 60  1  0
 37 61  1  0
M  END
> <Uni-Dock RESULT> 
ENERGY=   -4.445  LOWER_BOUND=    5.011  UPPER_BOUND=    6.896
INTER + INTRA:          -4.445
INTER:                  -4.445
INTRA:                   0.000
UNBOUND:                 0.000

$$$$

     RDKit          3D

 61 65  0  0  0  0  0  0  0  0999 V2000
   49.6586   13.3393   10.7667 C   0  0  0  0  0  0  0  0  0  0  0  0
   50.4873   14.3025   10.2080 C   0  0  0  0  0  0  0  0  0  0  0  0
   51.6261   13.9631    9.4681 C   0  0  0  0  0  0  0  0  0  0  0  0
   51.9596   12.6105    9.2981 C   0  0  0  0  0  0  0  0  0  0  0  0
   51.1269   11.6294    9.8398 C   0  0  0  0  0  0  0  0  0  0  0  0
   49.9745   11.9814   10.5783 C   0  0  0  0  0  0  0  0  0  0  0  0
   49.1037   11.0368   11.1580 C   0  0  0  0  0  0  0  0  0  0  0  0
   47.9750   11.4508   11.8598 C   0  0  0  0  0  0  0  0  0  0  0  0
   47.7655   12.8054   11.9884 C   0  0  0  0  0  0  0  0  0  0  0  0
   48.5812   13.7433   11.4628 N   0  0  0  0  0  0  0  0  0  0  0  0
   52.4795   14.8752    8.8965 O   0  0  0  0  0  0  0  0  0  0  0  0
   53.0939   12.3451    8.5736 O   0  0  0  0  0  0  0  0  0  0  0  0
   49.3515    9.6935   10.9456 O   0  0  0  0  0  0  0  0  0  0  0  0
   49.3173    8.8802   12.0531 C   0  0  0  0  0  0  0  0  0  0  0  0
   50.1471    9.0971   13.1526 C   0  0  0  0  0  0  0  0  0  0  0  0
   48.4679    7.7779   12.0212 C   0  0  0  0  0  0  0  0  0  0  0  0
   48.4132    6.9138   13.1183 C   0  0  0  0  0  0  0  0  0  0  0  0
   49.2267    7.1306   14.2392 C   0  0  0  0  0  0  0  0  0  0  0  0
   50.0977    8.2235   14.2452 C   0  0  0  0  0  0  0  0  0  0  0  0
   49.0945    6.2293   15.3128 N   0  0  0  0  0  0  0  0  0  0  0  0
   49.8483    6.1821   16.4631 C   0  0  0  0  0  0  0  0  0  0  0  0
   50.8492    6.8283   16.7380 O   0  0  0  0  0  0  0  0  0  0  0  0
   49.3615    5.1734   17.4583 C   0  0  0  0  0  0  0  0  0  0  0  0
   49.0254    5.6808   18.8642 C   0  0  0  0  0  0  0  0  0  0  0  0
   47.9152    5.2761   17.9481 C   0  0  0  0  0  0  0  0  0  0  0  0
   49.9838    3.8123   17.3637 C   0  0  0  0  0  0  0  0  0  0  0  0
   51.2861    3.7821   17.8140 N   0  0  0  0  0  0  0  0  0  0  0  0
   49.3210    2.8914   16.9103 O   0  0  0  0  0  0  0  0  0  0  0  0
   52.1273    2.6592   17.9279 C   0  0  0  0  0  0  0  0  0  0  0  0
   52.5945    0.2789   17.8654 C   0  0  0  0  0  0  0  0  0  0  0  0
   51.7011    1.3445   17.7168 C   0  0  0  0  0  0  0  0  0  0  0  0
   53.4608    2.8934   18.2962 C   0  0  0  0  0  0  0  0  0  0  0  0
   54.3530    1.8288   18.4435 C   0  0  0  0  0  0  0  0  0  0  0  0
   53.9112    0.5307   18.2280 C   0  0  0  0  0  0  0  0  0  0  0  0
   54.7640   -0.4916   18.3735 F   0  0  0  0  0  0  0  0  0  0  0  0
   52.0758   16.2386    8.8956 C   0  0  0  0  0  0  0  0  0  0  0  0
   53.6513   11.0439    8.6991 C   0  0  0  0  0  0  0  0  0  0  0  0
   50.2147   15.3395   10.3763 H   0  0  0  0  0  0  0  0  0  0  0  0
   51.3486   10.5776    9.6948 H   0  0  0  0  0  0  0  0  0  0  0  0
   47.2743   10.7457   12.2882 H   0  0  0  0  0  0  0  0  0  0  0  0
   46.9053   13.1912   12.5283 H   0  0  0  0  0  0  0  0  0  0  0  0
   50.8376    9.9375   13.1701 H   0  0  0  0  0  0  0  0  0  0  0  0
   47.8446    7.5944   11.1503 H   0  0  0  0  0  0  0  0  0  0  0  0
   47.7334    6.0656   13.0783 H   0  0  0  0  0  0  0  0  0  0  0  0
   50.7483    8.4319   15.0901 H   0  0  0  0  0  0  0  0  0  0  0  0
   48.3784    5.5174   15.2186 H   0  0  0  0  0  0  0  0  0  0  0  0
   49.1604    6.7373   19.0717 H   0  0  0  0  0  0  0  0  0  0  0  0
   49.2407    5.0392   19.7124 H   0  0  0  0  0  0  0  0  0  0  0  0
   47.3845    4.3550   18.1661 H   0  0  0  0  0  0  0  0  0  0  0  0
   47.2797    6.0616   17.5537 H   0  0  0  0  0  0  0  0  0  0  0  0
   51.7024    4.6847   18.0297 H   0  0  0  0  0  0  0  0  0  0  0  0
   52.2658   -0.7427   17.7039 H   0  0  0  0  0  0  0  0  0  0  0  0
   50.6757    1.1124   17.4457 H   0  0  0  0  0  0  0  0  0  0  0  0
   53.8231    3.9048   18.4653 H   0  0  0  0  0  0  0  0  0  0  0  0
   55.3857    2.0051   18.7259 H   0  0  0  0  0  0  0  0  0  0  0  0
   51.0965   16.3645    8.4198 H   0  0  0  0  0  0  0  0  0  0  0  0
   52.0797   16.6479    9.9115 H   0  0  0  0  0  0  0  0  0  0  0  0
   52.8049   16.8042    8.3065 H   0  0  0  0  0  0  0  0  0  0  0  0
   53.7616   10.7525    9.7485 H   0  0  0  0  0  0  0  0  0  0  0  0
   53.0528   10.3116    8.1478 H   0  0  0  0  0  0  0  0  0  0  0  0
   54.6504   11.0636    8.2537 H   0  0  0  0  0  0  0  0  0  0  0  0
  1  2  2  0
  1  6  1  0
  1 10  1  0
  2  3  1  0
  3  4  2  0
  4  5  1  0
  5  6  2  0
  6  7  1  0
  7  8  2  0
  8  9  1  0
  9 10  2  0
  3 11  1  0
  4 12  1  0
  7 13  1  0
 13 14  1  0
 15 14  2  0
 14 16  1  0
 15 19  1  0
 16 17  2  0
 17 18  1  0
 18 19  2  0
 18 20  1  0
 20 21  1  0
 21 22  2  0
 21 23  1  0
 23 24  1  0
 24 25  1  0
 25 23  1  0
 23 26  1  0
 26 27  1  0
 26 28  2  0
 27 29  1  0
 31 29  1  0
 29 32  2  0
 30 31  2  0
 30 34  1  0
 32 33  1  0
 33 34  2  0
 34 35  1  0
 11 36  1  0
 12 37  1  0
  2 38  1  0
  5 39  1  0
  8 40  1  0
  9 41  1  0
 15 42  1  0
 16 43  1  0
 17 44  1  0
 19 45  1  0
 20 46  1  0
 24 47  1  0
 24 48  1  0
 25 49  1  0
 25 50  1  0
 27 51  1  0
 30 52  1  0
 31 53  1  0
 32 54  1  0
 33 55  1  0
 36 56  1  0
 36 57  1  0
 36 58  1  0
 37 59  1  0
 37 60  1  0
 37 61  1  0
M  END
> <Uni-Dock RESULT> 
ENERGY=   -4.302  LOWER_BOUND=    1.007  UPPER_BOUND=    1.151
INTER + INTRA:          -4.302
INTER:                  -4.302
INTRA:                   0.000
UNBOUND:                 0.000

$$$$

     RDKit          3D

 61 65  0  0  0  0  0  0  0  0999 V2000
   50.5961    2.3845   17.3004 C   0  0  0  0  0  0  0  0  0  0  0  0
   51.6098    1.4626   17.5224 C   0  0  0  0  0  0  0  0  0  0  0  0
   52.8184    1.8206   18.1311 C   0  0  0  0  0  0  0  0  0  0  0  0
   53.0288    3.1545   18.5134 C   0  0  0  0  0  0  0  0  0  0  0  0
   52.0123    4.0903   18.3121 C   0  0  0  0  0  0  0  0  0  0  0  0
   50.7921    3.7178   17.7043 C   0  0  0  0  0  0  0  0  0  0  0  0
   49.7355    4.6194   17.4647 C   0  0  0  0  0  0  0  0  0  0  0  0
   48.5516    4.1834   16.8764 C   0  0  0  0  0  0  0  0  0  0  0  0
   48.4700    2.8575   16.5147 C   0  0  0  0  0  0  0  0  0  0  0  0
   49.4623    1.9643   16.7117 N   0  0  0  0  0  0  0  0  0  0  0  0
   53.8530    0.9497   18.3720 O   0  0  0  0  0  0  0  0  0  0  0  0
   54.2383    3.4426   19.0934 O   0  0  0  0  0  0  0  0  0  0  0  0
   49.8707    5.9247   17.8993 O   0  0  0  0  0  0  0  0  0  0  0  0
   49.5530    6.9092   16.9943 C   0  0  0  0  0  0  0  0  0  0  0  0
   50.1932    7.0095   15.7596 C   0  0  0  0  0  0  0  0  0  0  0  0
   48.6089    7.8586   17.3749 C   0  0  0  0  0  0  0  0  0  0  0  0
   48.2675    8.8879   16.4931 C   0  0  0  0  0  0  0  0  0  0  0  0
   48.8879    8.9898   15.2402 C   0  0  0  0  0  0  0  0  0  0  0  0
   49.8568    8.0481   14.8833 C   0  0  0  0  0  0  0  0  0  0  0  0
   48.4709   10.0404   14.4005 N   0  0  0  0  0  0  0  0  0  0  0  0
   48.9992   10.3963   13.1808 C   0  0  0  0  0  0  0  0  0  0  0  0
   49.9993    9.9556   12.6326 O   0  0  0  0  0  0  0  0  0  0  0  0
   48.2377   11.4880   12.4929 C   0  0  0  0  0  0  0  0  0  0  0  0
   47.7143   11.1969   11.0827 C   0  0  0  0  0  0  0  0  0  0  0  0
   46.7471   11.2730   12.2204 C   0  0  0  0  0  0  0  0  0  0  0  0
   48.7164   12.8839   12.7595 C   0  0  0  0  0  0  0  0  0  0  0  0
   49.9072   13.1754   12.1297 N   0  0  0  0  0  0  0  0  0  0  0  0
   48.0490   13.6076   13.4833 O   0  0  0  0  0  0  0  0  0  0  0  0
   50.5887   14.4069   12.1135 C   0  0  0  0  0  0  0  0  0  0  0  0
   50.8000   16.7797   12.5757 C   0  0  0  0  0  0  0  0  0  0  0  0
   50.0674   15.5905   12.6448 C   0  0  0  0  0  0  0  0  0  0  0  0
   51.8531   14.4306   11.5057 C   0  0  0  0  0  0  0  0  0  0  0  0
   52.5848   15.6185   11.4379 C   0  0  0  0  0  0  0  0  0  0  0  0
   52.0508   16.7829   11.9724 C   0  0  0  0  0  0  0  0  0  0  0  0
   52.7490   17.9236   11.9040 F   0  0  0  0  0  0  0  0  0  0  0  0
   53.6054   -0.4349   18.1638 C   0  0  0  0  0  0  0  0  0  0  0  0
   54.6209    4.8102   19.1450 C   0  0  0  0  0  0  0  0  0  0  0  0
   51.4252    0.4443   17.1951 H   0  0  0  0  0  0  0  0  0  0  0  0
   52.1414    5.1199   18.6276 H   0  0  0  0  0  0  0  0  0  0  0  0
   47.7141    4.8485   16.7096 H   0  0  0  0  0  0  0  0  0  0  0  0
   47.5744    2.4575   16.0475 H   0  0  0  0  0  0  0  0  0  0  0  0
   50.9561    6.2905   15.4695 H   0  0  0  0  0  0  0  0  0  0  0  0
   48.1338    7.7953   18.3500 H   0  0  0  0  0  0  0  0  0  0  0  0
   47.5182    9.6120   16.8050 H   0  0  0  0  0  0  0  0  0  0  0  0
   50.3659    8.0863   13.9242 H   0  0  0  0  0  0  0  0  0  0  0  0
   47.7104   10.6169   14.7433 H   0  0  0  0  0  0  0  0  0  0  0  0
   47.9236   10.2237   10.6511 H   0  0  0  0  0  0  0  0  0  0  0  0
   47.7052   12.0030   10.3563 H   0  0  0  0  0  0  0  0  0  0  0  0
   46.0899   12.1349   12.2740 H   0  0  0  0  0  0  0  0  0  0  0  0
   46.2801   10.3489   12.5436 H   0  0  0  0  0  0  0  0  0  0  0  0
   50.3736   12.3927   11.6775 H   0  0  0  0  0  0  0  0  0  0  0  0
   50.3968   17.7001   12.9856 H   0  0  0  0  0  0  0  0  0  0  0  0
   49.0873   15.6250   13.1109 H   0  0  0  0  0  0  0  0  0  0  0  0
   52.2866   13.5262   11.0853 H   0  0  0  0  0  0  0  0  0  0  0  0
   53.5640   15.6413   10.9710 H   0  0  0  0  0  0  0  0  0  0  0  0
   52.7453   -0.7790   18.7496 H   0  0  0  0  0  0  0  0  0  0  0  0
   53.4732   -0.6523   17.0984 H   0  0  0  0  0  0  0  0  0  0  0  0
   54.4841   -0.9888   18.5096 H   0  0  0  0  0  0  0  0  0  0  0  0
   54.5113    5.2962   18.1703 H   0  0  0  0  0  0  0  0  0  0  0  0
   54.0542    5.3418   19.9161 H   0  0  0  0  0  0  0  0  0  0  0  0
   55.6794    4.8513   19.4188 H   0  0  0  0  0  0  0  0  0  0  0  0
  1  2  2  0
  1  6  1  0
  1 10  1  0
  2  3  1  0
  3  4  2  0
  4  5  1  0
  5  6  2  0
  6  7  1  0
  7  8  2  0
  8  9  1  0
  9 10  2  0
  3 11  1  0
  4 12  1  0
  7 13  1  0
 13 14  1  0
 15 14  2  0
 14 16  1  0
 15 19  1  0
 16 17  2  0
 17 18  1  0
 18 19  2  0
 18 20  1  0
 20 21  1  0
 21 22  2  0
 21 23  1  0
 23 24  1  0
 24 25  1  0
 25 23  1  0
 23 26  1  0
 26 27  1  0
 26 28  2  0
 27 29  1  0
 31 29  1  0
 29 32  2  0
 30 31  2  0
 30 34  1  0
 32 33  1  0
 33 34  2  0
 34 35  1  0
 11 36  1  0
 12 37  1  0
  2 38  1  0
  5 39  1  0
  8 40  1  0
  9 41  1  0
 15 42  1  0
 16 43  1  0
 17 44  1  0
 19 45  1  0
 20 46  1  0
 24 47  1  0
 24 48  1  0
 25 49  1  0
 25 50  1  0
 27 51  1  0
 30 52  1  0
 31 53  1  0
 32 54  1  0
 33 55  1  0
 36 56  1  0
 36 57  1  0
 36 58  1  0
 37 59  1  0
 37 60  1  0
 37 61  1  0
M  END
> <Uni-Dock RESULT> 
ENERGY=   -4.207  LOWER_BOUND=    3.921  UPPER_BOUND=   11.734
INTER + INTRA:          -4.207
INTER:                  -4.207
INTRA:                   0.000
UNBOUND:                 0.000

$$$$

     RDKit          3D

 61 65  0  0  0  0  0  0  0  0999 V2000
   46.5306   12.2720    7.3324 C   0  0  0  0  0  0  0  0  0  0  0  0
   45.5608   12.0106    6.3743 C   0  0  0  0  0  0  0  0  0  0  0  0
   44.2306   11.7431    6.7184 C   0  0  0  0  0  0  0  0  0  0  0  0
   43.8611   11.7158    8.0721 C   0  0  0  0  0  0  0  0  0  0  0  0
   44.8214   11.9931    9.0470 C   0  0  0  0  0  0  0  0  0  0  0  0
   46.1602   12.2704    8.6897 C   0  0  0  0  0  0  0  0  0  0  0  0
   47.1747   12.5457    9.6286 C   0  0  0  0  0  0  0  0  0  0  0  0
   48.4715   12.8278    9.2084 C   0  0  0  0  0  0  0  0  0  0  0  0
   48.7245   12.7959    7.8555 C   0  0  0  0  0  0  0  0  0  0  0  0
   47.7871   12.5223    6.9239 N   0  0  0  0  0  0  0  0  0  0  0  0
   43.2337   11.4766    5.8116 O   0  0  0  0  0  0  0  0  0  0  0  0
   42.5457   11.4357    8.3430 O   0  0  0  0  0  0  0  0  0  0  0  0
   46.8354   12.6084   10.9672 O   0  0  0  0  0  0  0  0  0  0  0  0
   47.6386   11.9108   11.8376 C   0  0  0  0  0  0  0  0  0  0  0  0
   47.8396   10.5365   11.7144 C   0  0  0  0  0  0  0  0  0  0  0  0
   48.2014   12.6101   12.9015 C   0  0  0  0  0  0  0  0  0  0  0  0
   49.0111   11.9378   13.8212 C   0  0  0  0  0  0  0  0  0  0  0  0
   49.2388   10.5600   13.6985 C   0  0  0  0  0  0  0  0  0  0  0  0
   48.6423    9.8642   12.6435 C   0  0  0  0  0  0  0  0  0  0  0  0
   50.0859    9.9617   14.6509 N   0  0  0  0  0  0  0  0  0  0  0  0
   50.3737    8.6234   14.7909 C   0  0  0  0  0  0  0  0  0  0  0  0
   49.8724    7.6768   14.2014 O   0  0  0  0  0  0  0  0  0  0  0  0
   51.4131    8.3391   15.8319 C   0  0  0  0  0  0  0  0  0  0  0  0
   52.6546    7.5585   15.3886 C   0  0  0  0  0  0  0  0  0  0  0  0
   52.7791    9.0161   15.6979 C   0  0  0  0  0  0  0  0  0  0  0  0
   50.8941    8.0544   17.2098 C   0  0  0  0  0  0  0  0  0  0  0  0
   50.2987    6.8159   17.3167 N   0  0  0  0  0  0  0  0  0  0  0  0
   51.0279    8.9045   18.0772 O   0  0  0  0  0  0  0  0  0  0  0  0
   49.7767    6.2138   18.4770 C   0  0  0  0  0  0  0  0  0  0  0  0
   49.3789    6.0849   20.8673 C   0  0  0  0  0  0  0  0  0  0  0  0
   49.9123    6.7523   19.7601 C   0  0  0  0  0  0  0  0  0  0  0  0
   49.1039    4.9930   18.3170 C   0  0  0  0  0  0  0  0  0  0  0  0
   48.5703    4.3273   19.4231 C   0  0  0  0  0  0  0  0  0  0  0  0
   48.7140    4.8788   20.6888 C   0  0  0  0  0  0  0  0  0  0  0  0
   48.2073    4.2396   21.7508 F   0  0  0  0  0  0  0  0  0  0  0  0
   43.5311   11.6728    4.4351 C   0  0  0  0  0  0  0  0  0  0  0  0
   42.2295   11.0389    9.6705 C   0  0  0  0  0  0  0  0  0  0  0  0
   45.8829   12.0169    5.3379 H   0  0  0  0  0  0  0  0  0  0  0  0
   44.5513   12.0076   10.0974 H   0  0  0  0  0  0  0  0  0  0  0  0
   49.2614   13.0723    9.9071 H   0  0  0  0  0  0  0  0  0  0  0  0
   49.7171   13.0026    7.4653 H   0  0  0  0  0  0  0  0  0  0  0  0
   47.3756    9.9777   10.9046 H   0  0  0  0  0  0  0  0  0  0  0  0
   48.0181   13.6754   13.0121 H   0  0  0  0  0  0  0  0  0  0  0  0
   49.4515   12.5053   14.6379 H   0  0  0  0  0  0  0  0  0  0  0  0
   48.7881    8.7961   12.5077 H   0  0  0  0  0  0  0  0  0  0  0  0
   50.5147   10.5839   15.3272 H   0  0  0  0  0  0  0  0  0  0  0  0
   52.7183    7.2466   14.3514 H   0  0  0  0  0  0  0  0  0  0  0  0
   53.0998    6.8541   16.0836 H   0  0  0  0  0  0  0  0  0  0  0  0
   53.2975    9.3017   16.6075 H   0  0  0  0  0  0  0  0  0  0  0  0
   52.9535    9.6913   14.8673 H   0  0  0  0  0  0  0  0  0  0  0  0
   50.1690    6.3088   16.4447 H   0  0  0  0  0  0  0  0  0  0  0  0
   49.4844    6.4999   21.8645 H   0  0  0  0  0  0  0  0  0  0  0  0
   50.4378    7.6861   19.9357 H   0  0  0  0  0  0  0  0  0  0  0  0
   48.9801    4.5496   17.3317 H   0  0  0  0  0  0  0  0  0  0  0  0
   48.0471    3.3842   19.3041 H   0  0  0  0  0  0  0  0  0  0  0  0
   43.8824   12.6934    4.2442 H   0  0  0  0  0  0  0  0  0  0  0  0
   44.2552   10.9307    4.0821 H   0  0  0  0  0  0  0  0  0  0  0  0
   42.6056   11.5301    3.8681 H   0  0  0  0  0  0  0  0  0  0  0  0
   42.8953   10.2446   10.0228 H   0  0  0  0  0  0  0  0  0  0  0  0
   42.2505   11.8993   10.3471 H   0  0  0  0  0  0  0  0  0  0  0  0
   41.2107   10.6402    9.6667 H   0  0  0  0  0  0  0  0  0  0  0  0
  1  2  2  0
  1  6  1  0
  1 10  1  0
  2  3  1  0
  3  4  2  0
  4  5  1  0
  5  6  2  0
  6  7  1  0
  7  8  2  0
  8  9  1  0
  9 10  2  0
  3 11  1  0
  4 12  1  0
  7 13  1  0
 13 14  1  0
 15 14  2  0
 14 16  1  0
 15 19  1  0
 16 17  2  0
 17 18  1  0
 18 19  2  0
 18 20  1  0
 20 21  1  0
 21 22  2  0
 21 23  1  0
 23 24  1  0
 24 25  1  0
 25 23  1  0
 23 26  1  0
 26 27  1  0
 26 28  2  0
 27 29  1  0
 31 29  1  0
 29 32  2  0
 30 31  2  0
 30 34  1  0
 32 33  1  0
 33 34  2  0
 34 35  1  0
 11 36  1  0
 12 37  1  0
  2 38  1  0
  5 39  1  0
  8 40  1  0
  9 41  1  0
 15 42  1  0
 16 43  1  0
 17 44  1  0
 19 45  1  0
 20 46  1  0
 24 47  1  0
 24 48  1  0
 25 49  1  0
 25 50  1  0
 27 51  1  0
 30 52  1  0
 31 53  1  0
 32 54  1  0
 33 55  1  0
 36 56  1  0
 36 57  1  0
 36 58  1  0
 37 59  1  0
 37 60  1  0
 37 61  1  0
M  END
> <Uni-Dock RESULT> 
ENERGY=   -3.978  LOWER_BOUND=    4.002  UPPER_BOUND=    5.929
INTER + INTRA:          -3.978
INTER:                  -3.978
INTRA:                   0.000
UNBOUND:                 0.000

$$$$

     RDKit          3D

 61 65  0  0  0  0  0  0  0  0999 V2000
   50.2231    7.2600   18.3369 C   0  0  0  0  0  0  0  0  0  0  0  0
   49.6203    6.5283   19.3509 C   0  0  0  0  0  0  0  0  0  0  0  0
   48.8149    5.4148   19.0846 C   0  0  0  0  0  0  0  0  0  0  0  0
   48.5875    5.0312   17.7538 C   0  0  0  0  0  0  0  0  0  0  0  0
   49.2002    5.7470   16.7235 C   0  0  0  0  0  0  0  0  0  0  0  0
   50.0186    6.8648   17.0023 C   0  0  0  0  0  0  0  0  0  0  0  0
   50.6532    7.6322   16.0048 C   0  0  0  0  0  0  0  0  0  0  0  0
   51.4609    8.7126   16.3486 C   0  0  0  0  0  0  0  0  0  0  0  0
   51.5863    9.0147   17.6860 C   0  0  0  0  0  0  0  0  0  0  0  0
   50.9848    8.3164   18.6719 N   0  0  0  0  0  0  0  0  0  0  0  0
   48.1944    4.6583   20.0489 O   0  0  0  0  0  0  0  0  0  0  0  0
   47.7795    3.9395   17.5600 O   0  0  0  0  0  0  0  0  0  0  0  0
   50.5206    7.2395   14.6861 O   0  0  0  0  0  0  0  0  0  0  0  0
   50.1852    8.2208   13.7839 C   0  0  0  0  0  0  0  0  0  0  0  0
   49.0221    8.9781   13.9174 C   0  0  0  0  0  0  0  0  0  0  0  0
   51.0146    8.3964   12.6799 C   0  0  0  0  0  0  0  0  0  0  0  0
   50.7031    9.3710   11.7278 C   0  0  0  0  0  0  0  0  0  0  0  0
   49.5478   10.1540   11.8593 C   0  0  0  0  0  0  0  0  0  0  0  0
   48.7073    9.9459   12.9562 C   0  0  0  0  0  0  0  0  0  0  0  0
   49.3178   11.1305   10.8712 N   0  0  0  0  0  0  0  0  0  0  0  0
   48.2135   11.9404   10.7367 C   0  0  0  0  0  0  0  0  0  0  0  0
   47.1669   11.9025   11.3676 O   0  0  0  0  0  0  0  0  0  0  0  0
   48.3454   12.9578    9.6447 C   0  0  0  0  0  0  0  0  0  0  0  0
   48.1641   14.4292   10.0312 C   0  0  0  0  0  0  0  0  0  0  0  0
   49.5304   13.9251    9.6928 C   0  0  0  0  0  0  0  0  0  0  0  0
   47.8211   12.5440    8.3020 C   0  0  0  0  0  0  0  0  0  0  0  0
   46.4443   12.5111    8.2474 N   0  0  0  0  0  0  0  0  0  0  0  0
   48.6178   12.2757    7.4154 O   0  0  0  0  0  0  0  0  0  0  0  0
   45.6378   12.2354    7.1271 C   0  0  0  0  0  0  0  0  0  0  0  0
   45.2679   11.8230    4.7646 C   0  0  0  0  0  0  0  0  0  0  0  0
   46.1364   12.0798    5.8302 C   0  0  0  0  0  0  0  0  0  0  0  0
   44.2550   12.1363    7.3429 C   0  0  0  0  0  0  0  0  0  0  0  0
   43.3880   11.8789    6.2784 C   0  0  0  0  0  0  0  0  0  0  0  0
   43.9024   11.7259    4.9982 C   0  0  0  0  0  0  0  0  0  0  0  0
   43.0722   11.4838    3.9758 F   0  0  0  0  0  0  0  0  0  0  0  0
   48.5467    4.9074   21.4037 C   0  0  0  0  0  0  0  0  0  0  0  0
   47.2387    3.7587   16.2583 C   0  0  0  0  0  0  0  0  0  0  0  0
   49.7974    6.8636   20.3678 H   0  0  0  0  0  0  0  0  0  0  0  0
   49.0631    5.4497   15.6894 H   0  0  0  0  0  0  0  0  0  0  0  0
   51.9837    9.2990   15.6039 H   0  0  0  0  0  0  0  0  0  0  0  0
   52.1988    9.8485   18.0177 H   0  0  0  0  0  0  0  0  0  0  0  0
   48.3520    8.8230   14.7601 H   0  0  0  0  0  0  0  0  0  0  0  0
   51.9043    7.7837   12.5629 H   0  0  0  0  0  0  0  0  0  0  0  0
   51.3712    9.5007   10.8792 H   0  0  0  0  0  0  0  0  0  0  0  0
   47.8005   10.5268   13.1005 H   0  0  0  0  0  0  0  0  0  0  0  0
   50.0360   11.2332   10.1627 H   0  0  0  0  0  0  0  0  0  0  0  0
   47.9449   14.6615   11.0682 H   0  0  0  0  0  0  0  0  0  0  0  0
   47.6811   15.0955    9.3239 H   0  0  0  0  0  0  0  0  0  0  0  0
   49.9708   14.2385    8.7518 H   0  0  0  0  0  0  0  0  0  0  0  0
   50.2477   13.8402   10.5019 H   0  0  0  0  0  0  0  0  0  0  0  0
   45.9614   12.6411    9.1331 H   0  0  0  0  0  0  0  0  0  0  0  0
   45.6522   11.7036    3.7567 H   0  0  0  0  0  0  0  0  0  0  0  0
   47.1967   12.1630    5.6114 H   0  0  0  0  0  0  0  0  0  0  0  0
   43.8368   12.2504    8.3404 H   0  0  0  0  0  0  0  0  0  0  0  0
   42.3181   11.7991    6.4407 H   0  0  0  0  0  0  0  0  0  0  0  0
   49.6275    4.8123   21.5590 H   0  0  0  0  0  0  0  0  0  0  0  0
   48.1834    5.8885   21.7279 H   0  0  0  0  0  0  0  0  0  0  0  0
   48.0557    4.1498   22.0229 H   0  0  0  0  0  0  0  0  0  0  0  0
   46.7777    4.6777   15.8825 H   0  0  0  0  0  0  0  0  0  0  0  0
   48.0053    3.3919   15.5682 H   0  0  0  0  0  0  0  0  0  0  0  0
   46.4553    2.9978   16.3243 H   0  0  0  0  0  0  0  0  0  0  0  0
  1  2  2  0
  1  6  1  0
  1 10  1  0
  2  3  1  0
  3  4  2  0
  4  5  1  0
  5  6  2  0
  6  7  1  0
  7  8  2  0
  8  9  1  0
  9 10  2  0
  3 11  1  0
  4 12  1  0
  7 13  1  0
 13 14  1  0
 15 14  2  0
 14 16  1  0
 15 19  1  0
 16 17  2  0
 17 18  1  0
 18 19  2  0
 18 20  1  0
 20 21  1  0
 21 22  2  0
 21 23  1  0
 23 24  1  0
 24 25  1  0
 25 23  1  0
 23 26  1  0
 26 27  1  0
 26 28  2  0
 27 29  1  0
 31 29  1  0
 29 32  2  0
 30 31  2  0
 30 34  1  0
 32 33  1  0
 33 34  2  0
 34 35  1  0
 11 36  1  0
 12 37  1  0
  2 38  1  0
  5 39  1  0
  8 40  1  0
  9 41  1  0
 15 42  1  0
 16 43  1  0
 17 44  1  0
 19 45  1  0
 20 46  1  0
 24 47  1  0
 24 48  1  0
 25 49  1  0
 25 50  1  0
 27 51  1  0
 30 52  1  0
 31 53  1  0
 32 54  1  0
 33 55  1  0
 36 56  1  0
 36 57  1  0
 36 58  1  0
 37 59  1  0
 37 60  1  0
 37 61  1  0
M  END
> <Uni-Dock RESULT> 
ENERGY=   -3.856  LOWER_BOUND=    4.952  UPPER_BOUND=   12.047
INTER + INTRA:          -3.856
INTER:                  -3.856
INTRA:                   0.000
UNBOUND:                 0.000

$$$$
