
     RDKit          3D

 27 29  0  0  0  0  0  0  0  0999 V2000
   44.7439    2.2270    9.1160 C   0  0  0  0  0  0  0  0  0  0  0  0
   45.5086    4.3654    8.4062 C   0  0  0  0  0  0  0  0  0  0  0  0
   44.4829    3.7149    9.3242 C   0  0  0  0  0  0  0  0  0  0  0  0
   45.8502    2.0706    8.1738 C   0  0  0  0  0  0  0  0  0  0  0  0
   46.2936    3.3161    7.7579 C   0  0  0  0  0  0  0  0  0  0  0  0
   44.1462    1.2836    9.6038 O   0  0  0  0  0  0  0  0  0  0  0  0
   45.6871    5.5528    8.1986 O   0  0  0  0  0  0  0  0  0  0  0  0
   44.5417    4.1194   10.7835 C   0  0  0  0  0  0  0  0  0  0  0  0
   46.4248    0.9018    7.7083 C   0  0  0  0  0  0  0  0  0  0  0  0
   47.3342    3.4534    6.8569 C   0  0  0  0  0  0  0  0  0  0  0  0
   43.4949    3.7244   11.6354 C   0  0  0  0  0  0  0  0  0  0  0  0
   45.6003    4.8573   11.3346 C   0  0  0  0  0  0  0  0  0  0  0  0
   47.4790    1.0183    6.7973 C   0  0  0  0  0  0  0  0  0  0  0  0
   47.9300    2.2841    6.3749 C   0  0  0  0  0  0  0  0  0  0  0  0
   43.5044    4.0585   12.9908 C   0  0  0  0  0  0  0  0  0  0  0  0
   45.6072    5.1931   12.6915 C   0  0  0  0  0  0  0  0  0  0  0  0
   44.5609    4.7941   13.5187 C   0  0  0  0  0  0  0  0  0  0  0  0
   43.4954    3.9468    8.9049 H   0  0  0  0  0  0  0  0  0  0  0  0
   46.0690   -0.0689    8.0406 H   0  0  0  0  0  0  0  0  0  0  0  0
   47.6740    4.4341    6.5373 H   0  0  0  0  0  0  0  0  0  0  0  0
   42.6632    3.1375   11.2471 H   0  0  0  0  0  0  0  0  0  0  0  0
   46.4342    5.1973   10.7243 H   0  0  0  0  0  0  0  0  0  0  0  0
   47.9578    0.1209    6.4089 H   0  0  0  0  0  0  0  0  0  0  0  0
   48.7524    2.3507    5.6645 H   0  0  0  0  0  0  0  0  0  0  0  0
   42.6876    3.7402   13.6334 H   0  0  0  0  0  0  0  0  0  0  0  0
   46.4316    5.7713   13.1013 H   0  0  0  0  0  0  0  0  0  0  0  0
   44.5692    5.0562   14.5732 H   0  0  0  0  0  0  0  0  0  0  0  0
  2  3  1  0
  3  1  1  0
  4  1  1  0
  5  4  2  0
  6  1  2  0
  7  2  2  0
  8  3  1  0
  9  4  1  0
 10  5  1  0
 11  8  2  0
 12  8  1  0
 13  9  2  0
 14 13  1  0
 15 11  1  0
 16 12  2  0
 17 16  1  0
  5  2  1  0
 14 10  2  0
 17 15  2  0
  3 18  1  0
  9 19  1  0
 10 20  1  0
 11 21  1  0
 12 22  1  0
 13 23  1  0
 14 24  1  0
 15 25  1  0
 16 26  1  0
 17 27  1  0
M  END
> <Uni-Dock RESULT> 
ENERGY=   -5.871  LOWER_BOUND=    0.000  UPPER_BOUND=    0.000
INTER + INTRA:          -5.871
INTER:                  -5.871
INTRA:                   0.000
UNBOUND:                 0.000

$$$$

     RDKit          3D

 27 29  0  0  0  0  0  0  0  0999 V2000
   46.3559    6.2986   13.3240 C   0  0  0  0  0  0  0  0  0  0  0  0
   46.4450    3.9210   13.3266 C   0  0  0  0  0  0  0  0  0  0  0  0
   47.2497    5.1406   13.7545 C   0  0  0  0  0  0  0  0  0  0  0  0
   45.1367    5.7559   12.7282 C   0  0  0  0  0  0  0  0  0  0  0  0
   45.1900    4.3709   12.7268 C   0  0  0  0  0  0  0  0  0  0  0  0
   46.5795    7.4934   13.4114 O   0  0  0  0  0  0  0  0  0  0  0  0
   46.7471    2.7451   13.4318 O   0  0  0  0  0  0  0  0  0  0  0  0
   47.6291    5.2094   15.2201 C   0  0  0  0  0  0  0  0  0  0  0  0
   44.0515    6.4420   12.2139 C   0  0  0  0  0  0  0  0  0  0  0  0
   44.1599    3.6046   12.2119 C   0  0  0  0  0  0  0  0  0  0  0  0
   48.5478    6.1905   15.6334 C   0  0  0  0  0  0  0  0  0  0  0  0
   47.0956    4.3508   16.1933 C   0  0  0  0  0  0  0  0  0  0  0  0
   42.9988    5.6862   11.6892 C   0  0  0  0  0  0  0  0  0  0  0  0
   43.0527    4.2786   11.6882 C   0  0  0  0  0  0  0  0  0  0  0  0
   48.9228    6.3071   16.9731 C   0  0  0  0  0  0  0  0  0  0  0  0
   47.4740    4.4673   17.5339 C   0  0  0  0  0  0  0  0  0  0  0  0
   48.3862    5.4442   17.9236 C   0  0  0  0  0  0  0  0  0  0  0  0
   48.1504    5.1575   13.1274 H   0  0  0  0  0  0  0  0  0  0  0  0
   44.0206    7.5275   12.2196 H   0  0  0  0  0  0  0  0  0  0  0  0
   44.2115    2.5198   12.2155 H   0  0  0  0  0  0  0  0  0  0  0  0
   48.9720    6.8850   14.9092 H   0  0  0  0  0  0  0  0  0  0  0  0
   46.3866    3.5678   15.9332 H   0  0  0  0  0  0  0  0  0  0  0  0
   42.1265    6.1901   11.2762 H   0  0  0  0  0  0  0  0  0  0  0  0
   42.2212    3.7105   11.2741 H   0  0  0  0  0  0  0  0  0  0  0  0
   49.6314    7.0749   17.2729 H   0  0  0  0  0  0  0  0  0  0  0  0
   47.0565    3.7897   18.2746 H   0  0  0  0  0  0  0  0  0  0  0  0
   48.6780    5.5328   18.9665 H   0  0  0  0  0  0  0  0  0  0  0  0
  2  3  1  0
  3  1  1  0
  4  1  1  0
  5  4  2  0
  6  1  2  0
  7  2  2  0
  8  3  1  0
  9  4  1  0
 10  5  1  0
 11  8  2  0
 12  8  1  0
 13  9  2  0
 14 13  1  0
 15 11  1  0
 16 12  2  0
 17 16  1  0
  5  2  1  0
 14 10  2  0
 17 15  2  0
  3 18  1  0
  9 19  1  0
 10 20  1  0
 11 21  1  0
 12 22  1  0
 13 23  1  0
 14 24  1  0
 15 25  1  0
 16 26  1  0
 17 27  1  0
M  END
> <Uni-Dock RESULT> 
ENERGY=   -4.169  LOWER_BOUND=    4.303  UPPER_BOUND=    6.335
INTER + INTRA:          -4.169
INTER:                  -4.169
INTRA:                   0.000
UNBOUND:                 0.000

$$$$

     RDKit          3D

 27 29  0  0  0  0  0  0  0  0999 V2000
   51.2571    4.7970   20.2988 C   0  0  0  0  0  0  0  0  0  0  0  0
   50.0075    5.0271   18.2872 C   0  0  0  0  0  0  0  0  0  0  0  0
   51.4011    4.6707   18.7860 C   0  0  0  0  0  0  0  0  0  0  0  0
   49.8785    5.1686   20.6110 C   0  0  0  0  0  0  0  0  0  0  0  0
   49.1514    5.3057   19.4391 C   0  0  0  0  0  0  0  0  0  0  0  0
   52.1168    4.6516   21.1504 O   0  0  0  0  0  0  0  0  0  0  0  0
   49.6145    5.0942   17.1357 O   0  0  0  0  0  0  0  0  0  0  0  0
   51.9364    3.3180   18.3614 C   0  0  0  0  0  0  0  0  0  0  0  0
   49.3042    5.3785   21.8516 C   0  0  0  0  0  0  0  0  0  0  0  0
   47.8139    5.6585   19.4509 C   0  0  0  0  0  0  0  0  0  0  0  0
   53.2891    3.0212   18.6055 C   0  0  0  0  0  0  0  0  0  0  0  0
   51.1437    2.3354   17.7490 C   0  0  0  0  0  0  0  0  0  0  0  0
   47.9527    5.7351   21.8859 C   0  0  0  0  0  0  0  0  0  0  0  0
   47.2135    5.8741   20.6949 C   0  0  0  0  0  0  0  0  0  0  0  0
   53.8315    1.7859   18.2467 C   0  0  0  0  0  0  0  0  0  0  0  0
   51.6889    1.0999   17.3882 C   0  0  0  0  0  0  0  0  0  0  0  0
   53.0309    0.8252   17.6368 C   0  0  0  0  0  0  0  0  0  0  0  0
   52.0708    5.4696   18.4423 H   0  0  0  0  0  0  0  0  0  0  0  0
   49.8836    5.2688   22.7635 H   0  0  0  0  0  0  0  0  0  0  0  0
   47.2531    5.7635   18.5268 H   0  0  0  0  0  0  0  0  0  0  0  0
   53.9323    3.7532   19.0928 H   0  0  0  0  0  0  0  0  0  0  0  0
   50.0928    2.5094   17.5280 H   0  0  0  0  0  0  0  0  0  0  0  0
   47.4646    5.9078   22.8437 H   0  0  0  0  0  0  0  0  0  0  0  0
   46.1622    6.1529   20.7458 H   0  0  0  0  0  0  0  0  0  0  0  0
   54.8786    1.5746   18.4477 H   0  0  0  0  0  0  0  0  0  0  0  0
   51.0627    0.3519   16.9082 H   0  0  0  0  0  0  0  0  0  0  0  0
   53.4518   -0.1363   17.3558 H   0  0  0  0  0  0  0  0  0  0  0  0
  2  3  1  0
  3  1  1  0
  4  1  1  0
  5  4  2  0
  6  1  2  0
  7  2  2  0
  8  3  1  0
  9  4  1  0
 10  5  1  0
 11  8  2  0
 12  8  1  0
 13  9  2  0
 14 13  1  0
 15 11  1  0
 16 12  2  0
 17 16  1  0
  5  2  1  0
 14 10  2  0
 17 15  2  0
  3 18  1  0
  9 19  1  0
 10 20  1  0
 11 21  1  0
 12 22  1  0
 13 23  1  0
 14 24  1  0
 15 25  1  0
 16 26  1  0
 17 27  1  0
M  END
> <Uni-Dock RESULT> 
ENERGY=   -3.921  LOWER_BOUND=   10.024  UPPER_BOUND=   12.319
INTER + INTRA:          -3.921
INTER:                  -3.921
INTRA:                   0.000
UNBOUND:                 0.000

$$$$

     RDKit          3D

 27 29  0  0  0  0  0  0  0  0999 V2000
   46.9804    4.7580   14.2775 C   0  0  0  0  0  0  0  0  0  0  0  0
   48.5834    6.5031   14.4929 C   0  0  0  0  0  0  0  0  0  0  0  0
   47.6360    5.8786   13.4777 C   0  0  0  0  0  0  0  0  0  0  0  0
   47.5079    4.7816   15.6403 C   0  0  0  0  0  0  0  0  0  0  0  0
   48.4439    5.7961   15.7650 C   0  0  0  0  0  0  0  0  0  0  0  0
   46.1688    3.9347   13.8917 O   0  0  0  0  0  0  0  0  0  0  0  0
   49.3569    7.4304   14.3295 O   0  0  0  0  0  0  0  0  0  0  0  0
   46.6247    6.8134   12.8453 C   0  0  0  0  0  0  0  0  0  0  0  0
   47.1861    3.9551   16.7016 C   0  0  0  0  0  0  0  0  0  0  0  0
   49.1030    6.0342   16.9576 C   0  0  0  0  0  0  0  0  0  0  0  0
   45.8711    6.3514   11.7517 C   0  0  0  0  0  0  0  0  0  0  0  0
   46.3887    8.1171   13.3077 C   0  0  0  0  0  0  0  0  0  0  0  0
   47.8403    4.1795   17.9166 C   0  0  0  0  0  0  0  0  0  0  0  0
   48.7913    5.2108   18.0435 C   0  0  0  0  0  0  0  0  0  0  0  0
   44.9168    7.1658   11.1392 C   0  0  0  0  0  0  0  0  0  0  0  0
   45.4346    8.9321   12.6919 C   0  0  0  0  0  0  0  0  0  0  0  0
   44.6993    8.4572   11.6092 C   0  0  0  0  0  0  0  0  0  0  0  0
   48.2645    5.4188   12.7041 H   0  0  0  0  0  0  0  0  0  0  0  0
   46.4514    3.1629   16.5925 H   0  0  0  0  0  0  0  0  0  0  0  0
   49.8349    6.8317   17.0447 H   0  0  0  0  0  0  0  0  0  0  0  0
   46.0154    5.3398   11.3739 H   0  0  0  0  0  0  0  0  0  0  0  0
   46.9455    8.5325   14.1449 H   0  0  0  0  0  0  0  0  0  0  0  0
   47.6131    3.5503   18.7757 H   0  0  0  0  0  0  0  0  0  0  0  0
   49.2886    5.3670   18.9995 H   0  0  0  0  0  0  0  0  0  0  0  0
   44.3418    6.7885   10.2975 H   0  0  0  0  0  0  0  0  0  0  0  0
   45.2687    9.9422   13.0581 H   0  0  0  0  0  0  0  0  0  0  0  0
   43.9579    9.0929   11.1328 H   0  0  0  0  0  0  0  0  0  0  0  0
  2  3  1  0
  3  1  1  0
  4  1  1  0
  5  4  2  0
  6  1  2  0
  7  2  2  0
  8  3  1  0
  9  4  1  0
 10  5  1  0
 11  8  2  0
 12  8  1  0
 13  9  2  0
 14 13  1  0
 15 11  1  0
 16 12  2  0
 17 16  1  0
  5  2  1  0
 14 10  2  0
 17 15  2  0
  3 18  1  0
  9 19  1  0
 10 20  1  0
 11 21  1  0
 12 22  1  0
 13 23  1  0
 14 24  1  0
 15 25  1  0
 16 26  1  0
 17 27  1  0
M  END
> <Uni-Dock RESULT> 
ENERGY=   -3.921  LOWER_BOUND=    4.890  UPPER_BOUND=    7.346
INTER + INTRA:          -3.921
INTER:                  -3.921
INTRA:                   0.000
UNBOUND:                 0.000

$$$$

     RDKit          3D

 27 29  0  0  0  0  0  0  0  0999 V2000
   48.4677    8.1505   17.2960 C   0  0  0  0  0  0  0  0  0  0  0  0
   48.6743   10.3074   16.3128 C   0  0  0  0  0  0  0  0  0  0  0  0
   48.9609    8.8394   16.0281 C   0  0  0  0  0  0  0  0  0  0  0  0
   47.9243    9.1620   18.2003 C   0  0  0  0  0  0  0  0  0  0  0  0
   48.0475   10.4187   17.6290 C   0  0  0  0  0  0  0  0  0  0  0  0
   48.5171    6.9652   17.5751 O   0  0  0  0  0  0  0  0  0  0  0  0
   48.9120   11.2715   15.6065 O   0  0  0  0  0  0  0  0  0  0  0  0
   48.3344    8.2684   14.7719 C   0  0  0  0  0  0  0  0  0  0  0  0
   47.3623    8.9843   19.4515 C   0  0  0  0  0  0  0  0  0  0  0  0
   47.6136   11.5590   18.2808 C   0  0  0  0  0  0  0  0  0  0  0  0
   48.7328    6.9906   14.3407 C   0  0  0  0  0  0  0  0  0  0  0  0
   47.3605    8.9457   14.0225 C   0  0  0  0  0  0  0  0  0  0  0  0
   46.9163   10.1241   20.1272 C   0  0  0  0  0  0  0  0  0  0  0  0
   47.0411   11.4013   19.5465 C   0  0  0  0  0  0  0  0  0  0  0  0
   48.1790    6.4112   13.1976 C   0  0  0  0  0  0  0  0  0  0  0  0
   46.8087    8.3652   12.8768 C   0  0  0  0  0  0  0  0  0  0  0  0
   47.2170    7.0995   12.4649 C   0  0  0  0  0  0  0  0  0  0  0  0
   50.0529    8.7351   15.9897 H   0  0  0  0  0  0  0  0  0  0  0  0
   47.2713    7.9949   19.8898 H   0  0  0  0  0  0  0  0  0  0  0  0
   47.7149   12.5392   17.8244 H   0  0  0  0  0  0  0  0  0  0  0  0
   49.4754    6.4277   14.9050 H   0  0  0  0  0  0  0  0  0  0  0  0
   47.0177    9.9395   14.3021 H   0  0  0  0  0  0  0  0  0  0  0  0
   46.4671   10.0248   21.1141 H   0  0  0  0  0  0  0  0  0  0  0  0
   46.6870   12.2750   20.0913 H   0  0  0  0  0  0  0  0  0  0  0  0
   48.4975    5.4207   12.8832 H   0  0  0  0  0  0  0  0  0  0  0  0
   46.0600    8.9062   12.3034 H   0  0  0  0  0  0  0  0  0  0  0  0
   46.7859    6.6506   11.5743 H   0  0  0  0  0  0  0  0  0  0  0  0
  2  3  1  0
  3  1  1  0
  4  1  1  0
  5  4  2  0
  6  1  2  0
  7  2  2  0
  8  3  1  0
  9  4  1  0
 10  5  1  0
 11  8  2  0
 12  8  1  0
 13  9  2  0
 14 13  1  0
 15 11  1  0
 16 12  2  0
 17 16  1  0
  5  2  1  0
 14 10  2  0
 17 15  2  0
  3 18  1  0
  9 19  1  0
 10 20  1  0
 11 21  1  0
 12 22  1  0
 13 23  1  0
 14 24  1  0
 15 25  1  0
 16 26  1  0
 17 27  1  0
M  END
> <Uni-Dock RESULT> 
ENERGY=   -3.809  LOWER_BOUND=    6.901  UPPER_BOUND=   10.641
INTER + INTRA:          -3.809
INTER:                  -3.809
INTRA:                   0.000
UNBOUND:                 0.000

$$$$

     RDKit          3D

 27 29  0  0  0  0  0  0  0  0999 V2000
   53.1988    7.3874    9.3862 C   0  0  0  0  0  0  0  0  0  0  0  0
   53.9587    5.3780    8.3632 C   0  0  0  0  0  0  0  0  0  0  0  0
   53.1465    6.6305    8.0634 C   0  0  0  0  0  0  0  0  0  0  0  0
   54.0037    6.6210   10.3354 C   0  0  0  0  0  0  0  0  0  0  0  0
   54.4437    5.4491    9.7406 C   0  0  0  0  0  0  0  0  0  0  0  0
   52.6585    8.4421    9.6705 O   0  0  0  0  0  0  0  0  0  0  0  0
   54.1921    4.4375    7.6243 O   0  0  0  0  0  0  0  0  0  0  0  0
   53.6191    7.4681    6.8923 C   0  0  0  0  0  0  0  0  0  0  0  0
   54.3221    6.9360   11.6440 C   0  0  0  0  0  0  0  0  0  0  0  0
   55.2246    4.5354   10.4252 C   0  0  0  0  0  0  0  0  0  0  0  0
   52.7945    8.5102    6.4323 C   0  0  0  0  0  0  0  0  0  0  0  0
   54.8507    7.2669    6.2508 C   0  0  0  0  0  0  0  0  0  0  0  0
   55.1115    6.0261   12.3537 C   0  0  0  0  0  0  0  0  0  0  0  0
   55.5590    4.8352   11.7491 C   0  0  0  0  0  0  0  0  0  0  0  0
   53.1862    9.3210    5.3655 C   0  0  0  0  0  0  0  0  0  0  0  0
   55.2404    8.0781    5.1812 C   0  0  0  0  0  0  0  0  0  0  0  0
   54.4095    9.1040    4.7391 C   0  0  0  0  0  0  0  0  0  0  0  0
   52.1116    6.3019    7.9027 H   0  0  0  0  0  0  0  0  0  0  0  0
   53.9714    7.8569   12.1003 H   0  0  0  0  0  0  0  0  0  0  0  0
   55.5641    3.6198    9.9499 H   0  0  0  0  0  0  0  0  0  0  0  0
   51.8377    8.7067    6.9149 H   0  0  0  0  0  0  0  0  0  0  0  0
   55.5278    6.4724    6.5569 H   0  0  0  0  0  0  0  0  0  0  0  0
   55.3842    6.2392   13.3861 H   0  0  0  0  0  0  0  0  0  0  0  0
   56.1726    4.1411   12.3213 H   0  0  0  0  0  0  0  0  0  0  0  0
   52.5360   10.1239    5.0276 H   0  0  0  0  0  0  0  0  0  0  0  0
   56.1949    7.9046    4.6905 H   0  0  0  0  0  0  0  0  0  0  0  0
   54.7153    9.7334    3.9078 H   0  0  0  0  0  0  0  0  0  0  0  0
  2  3  1  0
  3  1  1  0
  4  1  1  0
  5  4  2  0
  6  1  2  0
  7  2  2  0
  8  3  1  0
  9  4  1  0
 10  5  1  0
 11  8  2  0
 12  8  1  0
 13  9  2  0
 14 13  1  0
 15 11  1  0
 16 12  2  0
 17 16  1  0
  5  2  1  0
 14 10  2  0
 17 15  2  0
  3 18  1  0
  9 19  1  0
 10 20  1  0
 11 21  1  0
 12 22  1  0
 13 23  1  0
 14 24  1  0
 15 25  1  0
 16 26  1  0
 17 27  1  0
M  END
> <Uni-Dock RESULT> 
ENERGY=   -3.794  LOWER_BOUND=    8.874  UPPER_BOUND=   10.601
INTER + INTRA:          -3.794
INTER:                  -3.794
INTRA:                   0.000
UNBOUND:                 0.000

$$$$

     RDKit          3D

 27 29  0  0  0  0  0  0  0  0999 V2000
   55.1928    5.9102    7.2657 C   0  0  0  0  0  0  0  0  0  0  0  0
   53.0290    6.6290    7.9456 C   0  0  0  0  0  0  0  0  0  0  0  0
   54.0824    5.5743    8.2554 C   0  0  0  0  0  0  0  0  0  0  0  0
   54.7916    7.0805    6.4876 C   0  0  0  0  0  0  0  0  0  0  0  0
   53.5299    7.4974    6.8815 C   0  0  0  0  0  0  0  0  0  0  0  0
   56.2456    5.3222    7.0894 O   0  0  0  0  0  0  0  0  0  0  0  0
   51.9323    6.7707    8.4577 O   0  0  0  0  0  0  0  0  0  0  0  0
   54.5734    5.5219    9.6881 C   0  0  0  0  0  0  0  0  0  0  0  0
   55.4940    7.7323    5.4902 C   0  0  0  0  0  0  0  0  0  0  0  0
   52.9095    8.5872    6.2977 C   0  0  0  0  0  0  0  0  0  0  0  0
   55.3786    4.4398   10.0858 C   0  0  0  0  0  0  0  0  0  0  0  0
   54.2780    6.5110   10.6386 C   0  0  0  0  0  0  0  0  0  0  0  0
   54.8852    8.8372    4.8876 C   0  0  0  0  0  0  0  0  0  0  0  0
   53.6030    9.2612    5.2881 C   0  0  0  0  0  0  0  0  0  0  0  0
   55.8688    4.3480   11.3897 C   0  0  0  0  0  0  0  0  0  0  0  0
   54.7677    6.4164   11.9444 C   0  0  0  0  0  0  0  0  0  0  0  0
   55.5623    5.3365   12.3196 C   0  0  0  0  0  0  0  0  0  0  0  0
   53.6522    4.6071    7.9653 H   0  0  0  0  0  0  0  0  0  0  0  0
   56.4820    7.3967    5.1892 H   0  0  0  0  0  0  0  0  0  0  0  0
   51.9204    8.9056    6.6135 H   0  0  0  0  0  0  0  0  0  0  0  0
   55.6418    3.6601    9.3719 H   0  0  0  0  0  0  0  0  0  0  0  0
   53.6543    7.3676   10.3923 H   0  0  0  0  0  0  0  0  0  0  0  0
   55.4070    9.3772    4.0992 H   0  0  0  0  0  0  0  0  0  0  0  0
   53.1482   10.1243    4.8044 H   0  0  0  0  0  0  0  0  0  0  0  0
   56.4930    3.5055   11.6761 H   0  0  0  0  0  0  0  0  0  0  0  0
   54.5239    7.1878   12.6707 H   0  0  0  0  0  0  0  0  0  0  0  0
   55.9420    5.2659   13.3353 H   0  0  0  0  0  0  0  0  0  0  0  0
  2  3  1  0
  3  1  1  0
  4  1  1  0
  5  4  2  0
  6  1  2  0
  7  2  2  0
  8  3  1  0
  9  4  1  0
 10  5  1  0
 11  8  2  0
 12  8  1  0
 13  9  2  0
 14 13  1  0
 15 11  1  0
 16 12  2  0
 17 16  1  0
  5  2  1  0
 14 10  2  0
 17 15  2  0
  3 18  1  0
  9 19  1  0
 10 20  1  0
 11 21  1  0
 12 22  1  0
 13 23  1  0
 14 24  1  0
 15 25  1  0
 16 26  1  0
 17 27  1  0
M  END
> <Uni-Dock RESULT> 
ENERGY=   -3.731  LOWER_BOUND=    8.760  UPPER_BOUND=   10.166
INTER + INTRA:          -3.731
INTER:                  -3.731
INTRA:                   0.000
UNBOUND:                 0.000

$$$$

     RDKit          3D

 27 29  0  0  0  0  0  0  0  0999 V2000
   48.1516    6.4109   18.7241 C   0  0  0  0  0  0  0  0  0  0  0  0
   48.2571    5.7776   21.0151 C   0  0  0  0  0  0  0  0  0  0  0  0
   48.5054    5.2269   19.6175 C   0  0  0  0  0  0  0  0  0  0  0  0
   47.7637    7.5387   19.5688 C   0  0  0  0  0  0  0  0  0  0  0  0
   47.8222    7.1689   20.9033 C   0  0  0  0  0  0  0  0  0  0  0  0
   48.1477    6.4588   17.5063 O   0  0  0  0  0  0  0  0  0  0  0  0
   48.3750    5.2021   22.0828 O   0  0  0  0  0  0  0  0  0  0  0  0
   49.8963    4.6884   19.3496 C   0  0  0  0  0  0  0  0  0  0  0  0
   47.3775    8.8095   19.1831 C   0  0  0  0  0  0  0  0  0  0  0  0
   47.4982    8.0524   21.9171 C   0  0  0  0  0  0  0  0  0  0  0  0
   50.1255    3.9748   18.1598 C   0  0  0  0  0  0  0  0  0  0  0  0
   50.9766    4.8804   20.2243 C   0  0  0  0  0  0  0  0  0  0  0  0
   47.0465    9.7185   20.1924 C   0  0  0  0  0  0  0  0  0  0  0  0
   47.1063    9.3429   21.5487 C   0  0  0  0  0  0  0  0  0  0  0  0
   51.3903    3.4676   17.8564 C   0  0  0  0  0  0  0  0  0  0  0  0
   52.2419    4.3699   19.9202 C   0  0  0  0  0  0  0  0  0  0  0  0
   52.4487    3.6647   18.7378 C   0  0  0  0  0  0  0  0  0  0  0  0
   47.7556    4.4425   19.4520 H   0  0  0  0  0  0  0  0  0  0  0  0
   47.3347    9.0883   18.1344 H   0  0  0  0  0  0  0  0  0  0  0  0
   47.5471    7.7526   22.9597 H   0  0  0  0  0  0  0  0  0  0  0  0
   49.3150    3.8185   17.4488 H   0  0  0  0  0  0  0  0  0  0  0  0
   50.8593    5.4177   21.1629 H   0  0  0  0  0  0  0  0  0  0  0  0
   46.7387   10.7290   19.9285 H   0  0  0  0  0  0  0  0  0  0  0  0
   46.8438   10.0675   22.3179 H   0  0  0  0  0  0  0  0  0  0  0  0
   51.5477    2.9222   16.9295 H   0  0  0  0  0  0  0  0  0  0  0  0
   53.0668    4.5216   20.6119 H   0  0  0  0  0  0  0  0  0  0  0  0
   53.4335    3.2695   18.5038 H   0  0  0  0  0  0  0  0  0  0  0  0
  2  3  1  0
  3  1  1  0
  4  1  1  0
  5  4  2  0
  6  1  2  0
  7  2  2  0
  8  3  1  0
  9  4  1  0
 10  5  1  0
 11  8  2  0
 12  8  1  0
 13  9  2  0
 14 13  1  0
 15 11  1  0
 16 12  2  0
 17 16  1  0
  5  2  1  0
 14 10  2  0
 17 15  2  0
  3 18  1  0
  9 19  1  0
 10 20  1  0
 11 21  1  0
 12 22  1  0
 13 23  1  0
 14 24  1  0
 15 25  1  0
 16 26  1  0
 17 27  1  0
M  END
> <Uni-Dock RESULT> 
ENERGY=   -3.702  LOWER_BOUND=   10.033  UPPER_BOUND=   12.422
INTER + INTRA:          -3.702
INTER:                  -3.702
INTRA:                   0.000
UNBOUND:                 0.000

$$$$

     RDKit          3D

 27 29  0  0  0  0  0  0  0  0999 V2000
   49.7474    5.5587   21.0743 C   0  0  0  0  0  0  0  0  0  0  0  0
   48.3155    5.0111   19.2546 C   0  0  0  0  0  0  0  0  0  0  0  0
   48.3033    5.7086   20.6079 C   0  0  0  0  0  0  0  0  0  0  0  0
   50.5049    4.8547   20.0414 C   0  0  0  0  0  0  0  0  0  0  0  0
   49.6702    4.5330   18.9828 C   0  0  0  0  0  0  0  0  0  0  0  0
   50.2376    5.9198   22.1300 O   0  0  0  0  0  0  0  0  0  0  0  0
   47.3845    4.8411   18.4870 O   0  0  0  0  0  0  0  0  0  0  0  0
   47.8352    7.1499   20.6118 C   0  0  0  0  0  0  0  0  0  0  0  0
   51.8454    4.5143   20.0395 C   0  0  0  0  0  0  0  0  0  0  0  0
   50.1358    3.8559   17.8701 C   0  0  0  0  0  0  0  0  0  0  0  0
   47.5964    7.7780   21.8471 C   0  0  0  0  0  0  0  0  0  0  0  0
   47.6427    7.8988   19.4408 C   0  0  0  0  0  0  0  0  0  0  0  0
   52.3366    3.8302   18.9235 C   0  0  0  0  0  0  0  0  0  0  0  0
   51.4885    3.5035   17.8474 C   0  0  0  0  0  0  0  0  0  0  0  0
   47.1763    9.1079   21.9094 C   0  0  0  0  0  0  0  0  0  0  0  0
   47.2198    9.2295   19.5049 C   0  0  0  0  0  0  0  0  0  0  0  0
   46.9871    9.8336   20.7375 C   0  0  0  0  0  0  0  0  0  0  0  0
   47.6702    5.1015   21.2677 H   0  0  0  0  0  0  0  0  0  0  0  0
   52.4902    4.7710   20.8747 H   0  0  0  0  0  0  0  0  0  0  0  0
   49.4733    3.6084   17.0459 H   0  0  0  0  0  0  0  0  0  0  0  0
   47.7495    7.2336   22.7782 H   0  0  0  0  0  0  0  0  0  0  0  0
   47.8042    7.4654   18.4561 H   0  0  0  0  0  0  0  0  0  0  0  0
   53.3869    3.5459   18.8845 H   0  0  0  0  0  0  0  0  0  0  0  0
   51.8929    2.9701   16.9886 H   0  0  0  0  0  0  0  0  0  0  0  0
   47.0010    9.5764   22.8745 H   0  0  0  0  0  0  0  0  0  0  0  0
   47.0687    9.7938   18.5879 H   0  0  0  0  0  0  0  0  0  0  0  0
   46.6590   10.8684   20.7842 H   0  0  0  0  0  0  0  0  0  0  0  0
  2  3  1  0
  3  1  1  0
  4  1  1  0
  5  4  2  0
  6  1  2  0
  7  2  2  0
  8  3  1  0
  9  4  1  0
 10  5  1  0
 11  8  2  0
 12  8  1  0
 13  9  2  0
 14 13  1  0
 15 11  1  0
 16 12  2  0
 17 16  1  0
  5  2  1  0
 14 10  2  0
 17 15  2  0
  3 18  1  0
  9 19  1  0
 10 20  1  0
 11 21  1  0
 12 22  1  0
 13 23  1  0
 14 24  1  0
 15 25  1  0
 16 26  1  0
 17 27  1  0
M  END
> <Uni-Dock RESULT> 
ENERGY=   -3.655  LOWER_BOUND=    9.968  UPPER_BOUND=   11.716
INTER + INTRA:          -3.655
INTER:                  -3.655
INTRA:                   0.000
UNBOUND:                 0.000

$$$$
