
     RDKit          3D

 27 29  0  0  0  0  0  0  0  0999 V2000
   45.9672    4.8190   12.9396 C   0  0  0  0  0  0  0  0  0  0  0  0
   44.8291    6.6503   11.9333 C   0  0  0  0  0  0  0  0  0  0  0  0
   44.7958    5.1303   12.0141 C   0  0  0  0  0  0  0  0  0  0  0  0
   46.6143    6.0738   13.3180 C   0  0  0  0  0  0  0  0  0  0  0  0
   45.9496    7.1406   12.7343 C   0  0  0  0  0  0  0  0  0  0  0  0
   46.3322    3.7312   13.3502 O   0  0  0  0  0  0  0  0  0  0  0  0
   44.0722    7.3885   11.3275 O   0  0  0  0  0  0  0  0  0  0  0  0
   44.8813    4.3896   10.6948 C   0  0  0  0  0  0  0  0  0  0  0  0
   47.7170    6.2617   14.1314 C   0  0  0  0  0  0  0  0  0  0  0  0
   46.3557    8.4476   12.9350 C   0  0  0  0  0  0  0  0  0  0  0  0
   44.6402    3.0042   10.6823 C   0  0  0  0  0  0  0  0  0  0  0  0
   45.2068    5.0153    9.4817 C   0  0  0  0  0  0  0  0  0  0  0  0
   48.1446    7.5751   14.3468 C   0  0  0  0  0  0  0  0  0  0  0  0
   47.4693    8.6595   13.7533 C   0  0  0  0  0  0  0  0  0  0  0  0
   44.7182    2.2703    9.4973 C   0  0  0  0  0  0  0  0  0  0  0  0
   45.2821    4.2794    8.2956 C   0  0  0  0  0  0  0  0  0  0  0  0
   45.0385    2.9087    8.3033 C   0  0  0  0  0  0  0  0  0  0  0  0
   43.8697    4.8646   12.5399 H   0  0  0  0  0  0  0  0  0  0  0  0
   48.2299    5.4183   14.5842 H   0  0  0  0  0  0  0  0  0  0  0  0
   45.8277    9.2765   12.4732 H   0  0  0  0  0  0  0  0  0  0  0  0
   44.3997    2.4808   11.6070 H   0  0  0  0  0  0  0  0  0  0  0  0
   45.3966    6.0851    9.4271 H   0  0  0  0  0  0  0  0  0  0  0  0
   49.0098    7.7637   14.9804 H   0  0  0  0  0  0  0  0  0  0  0  0
   47.8201    9.6741   13.9352 H   0  0  0  0  0  0  0  0  0  0  0  0
   44.5321    1.1995    9.5097 H   0  0  0  0  0  0  0  0  0  0  0  0
   45.5287    4.7806    7.3629 H   0  0  0  0  0  0  0  0  0  0  0  0
   45.0984    2.3391    7.3798 H   0  0  0  0  0  0  0  0  0  0  0  0
  2  3  1  0
  3  1  1  0
  4  1  1  0
  5  4  2  0
  6  1  2  0
  7  2  2  0
  8  3  1  0
  9  4  1  0
 10  5  1  0
 11  8  2  0
 12  8  1  0
 13  9  2  0
 14 13  1  0
 15 11  1  0
 16 12  2  0
 17 16  1  0
  5  2  1  0
 14 10  2  0
 17 15  2  0
  3 18  1  0
  9 19  1  0
 10 20  1  0
 11 21  1  0
 12 22  1  0
 13 23  1  0
 14 24  1  0
 15 25  1  0
 16 26  1  0
 17 27  1  0
M  END
> <Uni-Dock RESULT> 
ENERGY=   -5.474  LOWER_BOUND=    0.000  UPPER_BOUND=    0.000
INTER + INTRA:          -5.474
INTER:                  -5.474
INTRA:                   0.000
UNBOUND:                 0.000

$$$$

     RDKit          3D

 27 29  0  0  0  0  0  0  0  0999 V2000
   45.0677    7.1977   12.0405 C   0  0  0  0  0  0  0  0  0  0  0  0
   46.3724    5.7704   13.4268 C   0  0  0  0  0  0  0  0  0  0  0  0
   46.1915    7.2395   13.0705 C   0  0  0  0  0  0  0  0  0  0  0  0
   44.6780    5.8055   11.8255 C   0  0  0  0  0  0  0  0  0  0  0  0
   45.4358    4.9744   12.6353 C   0  0  0  0  0  0  0  0  0  0  0  0
   44.5277    8.1348   11.4789 O   0  0  0  0  0  0  0  0  0  0  0  0
   47.1439    5.2810   14.2332 O   0  0  0  0  0  0  0  0  0  0  0  0
   47.4238    7.9595   12.5611 C   0  0  0  0  0  0  0  0  0  0  0  0
   43.7107    5.3050   10.9730 C   0  0  0  0  0  0  0  0  0  0  0  0
   45.2638    3.6019   12.6313 C   0  0  0  0  0  0  0  0  0  0  0  0
   47.3781    9.3581   12.4210 C   0  0  0  0  0  0  0  0  0  0  0  0
   48.6085    7.2974   12.2044 C   0  0  0  0  0  0  0  0  0  0  0  0
   43.5213    3.9200   10.9529 C   0  0  0  0  0  0  0  0  0  0  0  0
   44.2917    3.0751   11.7756 C   0  0  0  0  0  0  0  0  0  0  0  0
   48.4800   10.0704   11.9441 C   0  0  0  0  0  0  0  0  0  0  0  0
   49.7117    8.0124   11.7294 C   0  0  0  0  0  0  0  0  0  0  0  0
   49.6476    9.3970   11.5992 C   0  0  0  0  0  0  0  0  0  0  0  0
   45.8065    7.7353   13.9708 H   0  0  0  0  0  0  0  0  0  0  0  0
   43.1222    5.9656   10.3432 H   0  0  0  0  0  0  0  0  0  0  0  0
   45.8627    2.9595   13.2700 H   0  0  0  0  0  0  0  0  0  0  0  0
   46.4706    9.9054   12.6734 H   0  0  0  0  0  0  0  0  0  0  0  0
   48.7064    6.2179   12.2979 H   0  0  0  0  0  0  0  0  0  0  0  0
   42.7699    3.4878   10.2941 H   0  0  0  0  0  0  0  0  0  0  0  0
   44.1268    1.9993   11.7435 H   0  0  0  0  0  0  0  0  0  0  0  0
   48.4230   11.1508   11.8394 H   0  0  0  0  0  0  0  0  0  0  0  0
   50.6246    7.4849   11.4640 H   0  0  0  0  0  0  0  0  0  0  0  0
   50.5066    9.9502   11.2290 H   0  0  0  0  0  0  0  0  0  0  0  0
  2  3  1  0
  3  1  1  0
  4  1  1  0
  5  4  2  0
  6  1  2  0
  7  2  2  0
  8  3  1  0
  9  4  1  0
 10  5  1  0
 11  8  2  0
 12  8  1  0
 13  9  2  0
 14 13  1  0
 15 11  1  0
 16 12  2  0
 17 16  1  0
  5  2  1  0
 14 10  2  0
 17 15  2  0
  3 18  1  0
  9 19  1  0
 10 20  1  0
 11 21  1  0
 12 22  1  0
 13 23  1  0
 14 24  1  0
 15 25  1  0
 16 26  1  0
 17 27  1  0
M  END
> <Uni-Dock RESULT> 
ENERGY=   -4.468  LOWER_BOUND=    1.727  UPPER_BOUND=    5.537
INTER + INTRA:          -4.468
INTER:                  -4.468
INTRA:                   0.000
UNBOUND:                 0.000

$$$$

     RDKit          3D

 27 29  0  0  0  0  0  0  0  0999 V2000
   47.7620    6.6177   12.8827 C   0  0  0  0  0  0  0  0  0  0  0  0
   45.9671    8.1765   12.7837 C   0  0  0  0  0  0  0  0  0  0  0  0
   46.2606    6.7229   13.1284 C   0  0  0  0  0  0  0  0  0  0  0  0
   48.2534    7.9108   12.4111 C   0  0  0  0  0  0  0  0  0  0  0  0
   47.2085    8.8197   12.3563 C   0  0  0  0  0  0  0  0  0  0  0  0
   48.4866    5.6537   13.0584 O   0  0  0  0  0  0  0  0  0  0  0  0
   44.9008    8.7635   12.8426 O   0  0  0  0  0  0  0  0  0  0  0  0
   45.4693    5.6822   12.3620 C   0  0  0  0  0  0  0  0  0  0  0  0
   49.5433    8.2642   12.0585 C   0  0  0  0  0  0  0  0  0  0  0  0
   47.4025   10.1261   11.9453 C   0  0  0  0  0  0  0  0  0  0  0  0
   45.5353    4.3414   12.7810 C   0  0  0  0  0  0  0  0  0  0  0  0
   44.6835    5.9866   11.2400 C   0  0  0  0  0  0  0  0  0  0  0  0
   49.7610    9.5800   11.6393 C   0  0  0  0  0  0  0  0  0  0  0  0
   48.6990   10.5037   11.5832 C   0  0  0  0  0  0  0  0  0  0  0  0
   44.8369    3.3401   12.1039 C   0  0  0  0  0  0  0  0  0  0  0  0
   43.9829    4.9832   10.5646 C   0  0  0  0  0  0  0  0  0  0  0  0
   44.0596    3.6616   10.9956 C   0  0  0  0  0  0  0  0  0  0  0  0
   46.0861    6.6151   14.2066 H   0  0  0  0  0  0  0  0  0  0  0  0
   50.3547    7.5440   12.1058 H   0  0  0  0  0  0  0  0  0  0  0  0
   46.5769   10.8305   11.9062 H   0  0  0  0  0  0  0  0  0  0  0  0
   46.1471    4.0641   13.6387 H   0  0  0  0  0  0  0  0  0  0  0  0
   44.5876    7.0063   10.8731 H   0  0  0  0  0  0  0  0  0  0  0  0
   50.7627    9.8959   11.3524 H   0  0  0  0  0  0  0  0  0  0  0  0
   48.8920   11.5234   11.2538 H   0  0  0  0  0  0  0  0  0  0  0  0
   44.9043    2.3091   12.4414 H   0  0  0  0  0  0  0  0  0  0  0  0
   43.3730    5.2369    9.7011 H   0  0  0  0  0  0  0  0  0  0  0  0
   43.5144    2.8835   10.4682 H   0  0  0  0  0  0  0  0  0  0  0  0
  2  3  1  0
  3  1  1  0
  4  1  1  0
  5  4  2  0
  6  1  2  0
  7  2  2  0
  8  3  1  0
  9  4  1  0
 10  5  1  0
 11  8  2  0
 12  8  1  0
 13  9  2  0
 14 13  1  0
 15 11  1  0
 16 12  2  0
 17 16  1  0
  5  2  1  0
 14 10  2  0
 17 15  2  0
  3 18  1  0
  9 19  1  0
 10 20  1  0
 11 21  1  0
 12 22  1  0
 13 23  1  0
 14 24  1  0
 15 25  1  0
 16 26  1  0
 17 27  1  0
M  END
> <Uni-Dock RESULT> 
ENERGY=   -4.298  LOWER_BOUND=    1.859  UPPER_BOUND=    2.676
INTER + INTRA:          -4.298
INTER:                  -4.298
INTRA:                   0.000
UNBOUND:                 0.000

$$$$

     RDKit          3D

 27 29  0  0  0  0  0  0  0  0999 V2000
   45.9812    7.0113   12.7926 C   0  0  0  0  0  0  0  0  0  0  0  0
   48.2623    7.6482   12.5631 C   0  0  0  0  0  0  0  0  0  0  0  0
   47.3932    6.4473   12.9103 C   0  0  0  0  0  0  0  0  0  0  0  0
   46.0679    8.4256   12.4340 C   0  0  0  0  0  0  0  0  0  0  0  0
   47.3964    8.7958   12.2973 C   0  0  0  0  0  0  0  0  0  0  0  0
   44.9230    6.4240   12.9349 O   0  0  0  0  0  0  0  0  0  0  0  0
   49.4776    7.7027   12.4935 O   0  0  0  0  0  0  0  0  0  0  0  0
   47.6536    5.8017   14.2564 C   0  0  0  0  0  0  0  0  0  0  0  0
   45.0379    9.3271   12.2349 C   0  0  0  0  0  0  0  0  0  0  0  0
   47.7598   10.0860   11.9557 C   0  0  0  0  0  0  0  0  0  0  0  0
   47.0401    4.5692   14.5431 C   0  0  0  0  0  0  0  0  0  0  0  0
   48.4660    6.3815   15.2427 C   0  0  0  0  0  0  0  0  0  0  0  0
   45.3836   10.6370   11.8897 C   0  0  0  0  0  0  0  0  0  0  0  0
   46.7339   11.0134   11.7511 C   0  0  0  0  0  0  0  0  0  0  0  0
   47.2351    3.9364   15.7722 C   0  0  0  0  0  0  0  0  0  0  0  0
   48.6622    5.7454   16.4718 C   0  0  0  0  0  0  0  0  0  0  0  0
   48.0474    4.5247   16.7365 C   0  0  0  0  0  0  0  0  0  0  0  0
   47.5331    5.7156   12.1043 H   0  0  0  0  0  0  0  0  0  0  0  0
   44.0003    9.0259   12.3441 H   0  0  0  0  0  0  0  0  0  0  0  0
   48.8039   10.3657   11.8509 H   0  0  0  0  0  0  0  0  0  0  0  0
   46.3903    4.0956   13.8082 H   0  0  0  0  0  0  0  0  0  0  0  0
   48.9728    7.3297   15.0763 H   0  0  0  0  0  0  0  0  0  0  0  0
   44.6010   11.3759   11.7258 H   0  0  0  0  0  0  0  0  0  0  0  0
   46.9796   12.0393   11.4813 H   0  0  0  0  0  0  0  0  0  0  0  0
   46.7487    2.9860   15.9757 H   0  0  0  0  0  0  0  0  0  0  0  0
   49.3003    6.2048   17.2227 H   0  0  0  0  0  0  0  0  0  0  0  0
   48.2012    4.0329   17.6932 H   0  0  0  0  0  0  0  0  0  0  0  0
  2  3  1  0
  3  1  1  0
  4  1  1  0
  5  4  2  0
  6  1  2  0
  7  2  2  0
  8  3  1  0
  9  4  1  0
 10  5  1  0
 11  8  2  0
 12  8  1  0
 13  9  2  0
 14 13  1  0
 15 11  1  0
 16 12  2  0
 17 16  1  0
  5  2  1  0
 14 10  2  0
 17 15  2  0
  3 18  1  0
  9 19  1  0
 10 20  1  0
 11 21  1  0
 12 22  1  0
 13 23  1  0
 14 24  1  0
 15 25  1  0
 16 26  1  0
 17 27  1  0
M  END
> <Uni-Dock RESULT> 
ENERGY=   -4.238  LOWER_BOUND=    3.276  UPPER_BOUND=    5.092
INTER + INTRA:          -4.238
INTER:                  -4.238
INTRA:                   0.000
UNBOUND:                 0.000

$$$$

     RDKit          3D

 27 29  0  0  0  0  0  0  0  0999 V2000
   48.7606    3.9233   18.7742 C   0  0  0  0  0  0  0  0  0  0  0  0
   49.9560    5.6143   17.6025 C   0  0  0  0  0  0  0  0  0  0  0  0
   49.7176    4.1106   17.6018 C   0  0  0  0  0  0  0  0  0  0  0  0
   48.5125    5.2247   19.3916 C   0  0  0  0  0  0  0  0  0  0  0  0
   49.2064    6.2100   18.7073 C   0  0  0  0  0  0  0  0  0  0  0  0
   48.2377    2.8925   19.1604 O   0  0  0  0  0  0  0  0  0  0  0  0
   50.6381    6.2686   16.8333 O   0  0  0  0  0  0  0  0  0  0  0  0
   50.9524    3.2388   17.7111 C   0  0  0  0  0  0  0  0  0  0  0  0
   47.7190    5.5206   20.4852 C   0  0  0  0  0  0  0  0  0  0  0  0
   49.1413    7.5395   19.0837 C   0  0  0  0  0  0  0  0  0  0  0  0
   50.8214    1.8546   17.5003 C   0  0  0  0  0  0  0  0  0  0  0  0
   52.2228    3.7421   18.0301 C   0  0  0  0  0  0  0  0  0  0  0  0
   47.6400    6.8585   20.8829 C   0  0  0  0  0  0  0  0  0  0  0  0
   48.3455    7.8601   20.1876 C   0  0  0  0  0  0  0  0  0  0  0  0
   51.9234    1.0034   17.6012 C   0  0  0  0  0  0  0  0  0  0  0  0
   53.3256    2.8888   18.1283 C   0  0  0  0  0  0  0  0  0  0  0  0
   53.1762    1.5212   17.9145 C   0  0  0  0  0  0  0  0  0  0  0  0
   49.1703    3.8804   16.6786 H   0  0  0  0  0  0  0  0  0  0  0  0
   47.1791    4.7405   21.0137 H   0  0  0  0  0  0  0  0  0  0  0  0
   49.6888    8.3040   18.5405 H   0  0  0  0  0  0  0  0  0  0  0  0
   49.8482    1.4250   17.2658 H   0  0  0  0  0  0  0  0  0  0  0  0
   52.3878    4.8044   18.1969 H   0  0  0  0  0  0  0  0  0  0  0  0
   47.0264    7.1311   21.7400 H   0  0  0  0  0  0  0  0  0  0  0  0
   48.2690    8.8956   20.5152 H   0  0  0  0  0  0  0  0  0  0  0  0
   51.8004   -0.0642   17.4384 H   0  0  0  0  0  0  0  0  0  0  0  0
   54.3045    3.2957   18.3694 H   0  0  0  0  0  0  0  0  0  0  0  0
   54.0352    0.8602   17.9922 H   0  0  0  0  0  0  0  0  0  0  0  0
  2  3  1  0
  3  1  1  0
  4  1  1  0
  5  4  2  0
  6  1  2  0
  7  2  2  0
  8  3  1  0
  9  4  1  0
 10  5  1  0
 11  8  2  0
 12  8  1  0
 13  9  2  0
 14 13  1  0
 15 11  1  0
 16 12  2  0
 17 16  1  0
  5  2  1  0
 14 10  2  0
 17 15  2  0
  3 18  1  0
  9 19  1  0
 10 20  1  0
 11 21  1  0
 12 22  1  0
 13 23  1  0
 14 24  1  0
 15 25  1  0
 16 26  1  0
 17 27  1  0
M  END
> <Uni-Dock RESULT> 
ENERGY=   -3.882  LOWER_BOUND=    7.621  UPPER_BOUND=    8.656
INTER + INTRA:          -3.882
INTER:                  -3.882
INTRA:                   0.000
UNBOUND:                 0.000

$$$$

     RDKit          3D

 27 29  0  0  0  0  0  0  0  0999 V2000
   51.6728    4.7941   18.2958 C   0  0  0  0  0  0  0  0  0  0  0  0
   49.9296    3.2687   17.7516 C   0  0  0  0  0  0  0  0  0  0  0  0
   50.1615    4.7321   18.1020 C   0  0  0  0  0  0  0  0  0  0  0  0
   52.2283    3.4573   18.0940 C   0  0  0  0  0  0  0  0  0  0  0  0
   51.2133    2.5694   17.7740 C   0  0  0  0  0  0  0  0  0  0  0  0
   52.3587    5.7689   18.5495 O   0  0  0  0  0  0  0  0  0  0  0  0
   48.8774    2.7173   17.4802 O   0  0  0  0  0  0  0  0  0  0  0  0
   49.3972    5.2611   19.2989 C   0  0  0  0  0  0  0  0  0  0  0  0
   53.5478    3.0520   18.1815 C   0  0  0  0  0  0  0  0  0  0  0  0
   51.4684    1.2326   17.5267 C   0  0  0  0  0  0  0  0  0  0  0  0
   49.4000    6.6462   19.5424 C   0  0  0  0  0  0  0  0  0  0  0  0
   48.6973    4.4342   20.1907 C   0  0  0  0  0  0  0  0  0  0  0  0
   53.8273    1.7044   17.9360 C   0  0  0  0  0  0  0  0  0  0  0  0
   52.7958    0.8018   17.6111 C   0  0  0  0  0  0  0  0  0  0  0  0
   48.7234    7.1862   20.6376 C   0  0  0  0  0  0  0  0  0  0  0  0
   48.0183    4.9767   21.2854 C   0  0  0  0  0  0  0  0  0  0  0  0
   48.0315    6.3509   21.5089 C   0  0  0  0  0  0  0  0  0  0  0  0
   49.9117    5.3126   17.2046 H   0  0  0  0  0  0  0  0  0  0  0  0
   54.3352    3.7564   18.4324 H   0  0  0  0  0  0  0  0  0  0  0  0
   50.6659    0.5451   17.2765 H   0  0  0  0  0  0  0  0  0  0  0  0
   49.9449    7.3185   18.8807 H   0  0  0  0  0  0  0  0  0  0  0  0
   48.6528    3.3563   20.0504 H   0  0  0  0  0  0  0  0  0  0  0  0
   54.8539    1.3468   17.9963 H   0  0  0  0  0  0  0  0  0  0  0  0
   53.0369   -0.2433   17.4237 H   0  0  0  0  0  0  0  0  0  0  0  0
   48.7411    8.2591   20.8104 H   0  0  0  0  0  0  0  0  0  0  0  0
   47.4749    4.3228   21.9631 H   0  0  0  0  0  0  0  0  0  0  0  0
   47.5033    6.7697   22.3612 H   0  0  0  0  0  0  0  0  0  0  0  0
  2  3  1  0
  3  1  1  0
  4  1  1  0
  5  4  2  0
  6  1  2  0
  7  2  2  0
  8  3  1  0
  9  4  1  0
 10  5  1  0
 11  8  2  0
 12  8  1  0
 13  9  2  0
 14 13  1  0
 15 11  1  0
 16 12  2  0
 17 16  1  0
  5  2  1  0
 14 10  2  0
 17 15  2  0
  3 18  1  0
  9 19  1  0
 10 20  1  0
 11 21  1  0
 12 22  1  0
 13 23  1  0
 14 24  1  0
 15 25  1  0
 16 26  1  0
 17 27  1  0
M  END
> <Uni-Dock RESULT> 
ENERGY=   -3.881  LOWER_BOUND=    7.999  UPPER_BOUND=   10.005
INTER + INTRA:          -3.881
INTER:                  -3.881
INTRA:                   0.000
UNBOUND:                 0.000

$$$$

     RDKit          3D

 27 29  0  0  0  0  0  0  0  0999 V2000
   51.3918    2.7813   17.7429 C   0  0  0  0  0  0  0  0  0  0  0  0
   51.2791    5.1500   17.9370 C   0  0  0  0  0  0  0  0  0  0  0  0
   52.2503    3.9893   18.1025 C   0  0  0  0  0  0  0  0  0  0  0  0
   50.0403    3.2410   17.4296 C   0  0  0  0  0  0  0  0  0  0  0  0
   49.9753    4.6210   17.5397 C   0  0  0  0  0  0  0  0  0  0  0  0
   51.7279    1.6114   17.6832 O   0  0  0  0  0  0  0  0  0  0  0  0
   51.4954    6.3398   18.0875 O   0  0  0  0  0  0  0  0  0  0  0  0
   52.9057    3.8558   19.4623 C   0  0  0  0  0  0  0  0  0  0  0  0
   48.9388    2.4884   17.0643 C   0  0  0  0  0  0  0  0  0  0  0  0
   48.8054    5.3157   17.2906 C   0  0  0  0  0  0  0  0  0  0  0  0
   53.9656    2.9440   19.6135 C   0  0  0  0  0  0  0  0  0  0  0  0
   52.4962    4.5868   20.5880 C   0  0  0  0  0  0  0  0  0  0  0  0
   47.7458    3.1710   16.8088 C   0  0  0  0  0  0  0  0  0  0  0  0
   47.6797    4.5736   16.9210 C   0  0  0  0  0  0  0  0  0  0  0  0
   54.5967    2.7715   20.8468 C   0  0  0  0  0  0  0  0  0  0  0  0
   53.1309    4.4147   21.8215 C   0  0  0  0  0  0  0  0  0  0  0  0
   54.1795    3.5081   21.9509 C   0  0  0  0  0  0  0  0  0  0  0  0
   53.0136    4.1057   17.3223 H   0  0  0  0  0  0  0  0  0  0  0  0
   49.0012    1.4075   16.9805 H   0  0  0  0  0  0  0  0  0  0  0  0
   48.7652    6.3972   17.3795 H   0  0  0  0  0  0  0  0  0  0  0  0
   54.3013    2.3475   18.7660 H   0  0  0  0  0  0  0  0  0  0  0  0
   51.6873    5.3120   20.5312 H   0  0  0  0  0  0  0  0  0  0  0  0
   46.8565    2.6133   16.5197 H   0  0  0  0  0  0  0  0  0  0  0  0
   46.7398    5.0841   16.7171 H   0  0  0  0  0  0  0  0  0  0  0  0
   55.4115    2.0587   20.9437 H   0  0  0  0  0  0  0  0  0  0  0  0
   52.8061    4.9940   22.6823 H   0  0  0  0  0  0  0  0  0  0  0  0
   54.6706    3.3760   22.9113 H   0  0  0  0  0  0  0  0  0  0  0  0
  2  3  1  0
  3  1  1  0
  4  1  1  0
  5  4  2  0
  6  1  2  0
  7  2  2  0
  8  3  1  0
  9  4  1  0
 10  5  1  0
 11  8  2  0
 12  8  1  0
 13  9  2  0
 14 13  1  0
 15 11  1  0
 16 12  2  0
 17 16  1  0
  5  2  1  0
 14 10  2  0
 17 15  2  0
  3 18  1  0
  9 19  1  0
 10 20  1  0
 11 21  1  0
 12 22  1  0
 13 23  1  0
 14 24  1  0
 15 25  1  0
 16 26  1  0
 17 27  1  0
M  END
> <Uni-Dock RESULT> 
ENERGY=   -3.877  LOWER_BOUND=    7.026  UPPER_BOUND=   10.304
INTER + INTRA:          -3.877
INTER:                  -3.877
INTRA:                   0.000
UNBOUND:                 0.000

$$$$

     RDKit          3D

 27 29  0  0  0  0  0  0  0  0999 V2000
   48.1243    4.1510   17.6053 C   0  0  0  0  0  0  0  0  0  0  0  0
   49.3579    6.1541   17.2489 C   0  0  0  0  0  0  0  0  0  0  0  0
   49.0991    5.0905   18.3071 C   0  0  0  0  0  0  0  0  0  0  0  0
   47.8459    4.6741   16.2692 C   0  0  0  0  0  0  0  0  0  0  0  0
   48.5667    5.8392   16.0605 C   0  0  0  0  0  0  0  0  0  0  0  0
   47.6466    3.1120   18.0266 O   0  0  0  0  0  0  0  0  0  0  0  0
   50.0951    7.1219   17.3190 O   0  0  0  0  0  0  0  0  0  0  0  0
   48.5744    5.5877   19.6390 C   0  0  0  0  0  0  0  0  0  0  0  0
   47.0130    4.1507   15.2970 C   0  0  0  0  0  0  0  0  0  0  0  0
   48.4892    6.5383   14.8694 C   0  0  0  0  0  0  0  0  0  0  0  0
   48.5205    4.6900   20.7201 C   0  0  0  0  0  0  0  0  0  0  0  0
   48.1216    6.8997   19.8454 C   0  0  0  0  0  0  0  0  0  0  0  0
   46.9194    4.8423   14.0857 C   0  0  0  0  0  0  0  0  0  0  0  0
   47.6518    6.0267   13.8735 C   0  0  0  0  0  0  0  0  0  0  0  0
   48.0340    5.0912   21.9657 C   0  0  0  0  0  0  0  0  0  0  0  0
   47.6372    7.3005   21.0938 C   0  0  0  0  0  0  0  0  0  0  0  0
   47.5931    6.3975   22.1526 C   0  0  0  0  0  0  0  0  0  0  0  0
   50.0452    4.5521   18.4482 H   0  0  0  0  0  0  0  0  0  0  0  0
   46.4531    3.2366   15.4711 H   0  0  0  0  0  0  0  0  0  0  0  0
   49.0584    7.4502   14.7159 H   0  0  0  0  0  0  0  0  0  0  0  0
   48.8489    3.6590   20.5941 H   0  0  0  0  0  0  0  0  0  0  0  0
   48.1456    7.6410   19.0495 H   0  0  0  0  0  0  0  0  0  0  0  0
   46.2733    4.4623   13.2960 H   0  0  0  0  0  0  0  0  0  0  0  0
   47.5636    6.5487   12.9220 H   0  0  0  0  0  0  0  0  0  0  0  0
   47.9969    4.3809   22.7875 H   0  0  0  0  0  0  0  0  0  0  0  0
   47.2966    8.3227   21.2390 H   0  0  0  0  0  0  0  0  0  0  0  0
   47.2153    6.7118   23.1218 H   0  0  0  0  0  0  0  0  0  0  0  0
  2  3  1  0
  3  1  1  0
  4  1  1  0
  5  4  2  0
  6  1  2  0
  7  2  2  0
  8  3  1  0
  9  4  1  0
 10  5  1  0
 11  8  2  0
 12  8  1  0
 13  9  2  0
 14 13  1  0
 15 11  1  0
 16 12  2  0
 17 16  1  0
  5  2  1  0
 14 10  2  0
 17 15  2  0
  3 18  1  0
  9 19  1  0
 10 20  1  0
 11 21  1  0
 12 22  1  0
 13 23  1  0
 14 24  1  0
 15 25  1  0
 16 26  1  0
 17 27  1  0
M  END
> <Uni-Dock RESULT> 
ENERGY=   -3.817  LOWER_BOUND=    4.949  UPPER_BOUND=    8.377
INTER + INTRA:          -3.817
INTER:                  -3.817
INTRA:                   0.000
UNBOUND:                 0.000

$$$$

     RDKit          3D

 27 29  0  0  0  0  0  0  0  0999 V2000
   47.5413    5.4046   18.7910 C   0  0  0  0  0  0  0  0  0  0  0  0
   49.8722    5.5173   19.2551 C   0  0  0  0  0  0  0  0  0  0  0  0
   48.5649    6.2377   19.5549 C   0  0  0  0  0  0  0  0  0  0  0  0
   48.2378    4.3217   18.0993 C   0  0  0  0  0  0  0  0  0  0  0  0
   49.5951    4.3855   18.3721 C   0  0  0  0  0  0  0  0  0  0  0  0
   46.3323    5.5524   18.7494 O   0  0  0  0  0  0  0  0  0  0  0  0
   50.9897    5.7858   19.6603 O   0  0  0  0  0  0  0  0  0  0  0  0
   48.5129    7.7070   19.1876 C   0  0  0  0  0  0  0  0  0  0  0  0
   47.7055    3.3384   17.2852 C   0  0  0  0  0  0  0  0  0  0  0  0
   50.4865    3.4694   17.8433 C   0  0  0  0  0  0  0  0  0  0  0  0
   47.4220    8.4751   19.6321 C   0  0  0  0  0  0  0  0  0  0  0  0
   49.4938    8.3398   18.4088 C   0  0  0  0  0  0  0  0  0  0  0  0
   48.5894    2.4027   16.7397 C   0  0  0  0  0  0  0  0  0  0  0  0
   49.9690    2.4677   17.0167 C   0  0  0  0  0  0  0  0  0  0  0  0
   47.3171    9.8299   19.3120 C   0  0  0  0  0  0  0  0  0  0  0  0
   49.3886    9.6970   18.0913 C   0  0  0  0  0  0  0  0  0  0  0  0
   48.3016   10.4412   18.5420 C   0  0  0  0  0  0  0  0  0  0  0  0
   48.3740    6.1071   20.6279 H   0  0  0  0  0  0  0  0  0  0  0  0
   46.6401    3.2975   17.0786 H   0  0  0  0  0  0  0  0  0  0  0  0
   51.5482    3.5281   18.0635 H   0  0  0  0  0  0  0  0  0  0  0  0
   46.6330    8.0153   20.2261 H   0  0  0  0  0  0  0  0  0  0  0  0
   50.3642    7.7998   18.0424 H   0  0  0  0  0  0  0  0  0  0  0  0
   48.2085    1.6140   16.0930 H   0  0  0  0  0  0  0  0  0  0  0  0
   50.6389    1.7281   16.5809 H   0  0  0  0  0  0  0  0  0  0  0  0
   46.4640   10.4052   19.6621 H   0  0  0  0  0  0  0  0  0  0  0  0
   50.1608   10.1739   17.4926 H   0  0  0  0  0  0  0  0  0  0  0  0
   48.2222   11.4960   18.2930 H   0  0  0  0  0  0  0  0  0  0  0  0
  2  3  1  0
  3  1  1  0
  4  1  1  0
  5  4  2  0
  6  1  2  0
  7  2  2  0
  8  3  1  0
  9  4  1  0
 10  5  1  0
 11  8  2  0
 12  8  1  0
 13  9  2  0
 14 13  1  0
 15 11  1  0
 16 12  2  0
 17 16  1  0
  5  2  1  0
 14 10  2  0
 17 15  2  0
  3 18  1  0
  9 19  1  0
 10 20  1  0
 11 21  1  0
 12 22  1  0
 13 23  1  0
 14 24  1  0
 15 25  1  0
 16 26  1  0
 17 27  1  0
M  END
> <Uni-Dock RESULT> 
ENERGY=   -3.643  LOWER_BOUND=    6.777  UPPER_BOUND=    9.053
INTER + INTRA:          -3.643
INTER:                  -3.643
INTRA:                   0.000
UNBOUND:                 0.000

$$$$
