
     RDKit          3D

 27 29  0  0  0  0  0  0  0  0999 V2000
   44.7545    2.2485    9.1850 C   0  0  0  0  0  0  0  0  0  0  0  0
   45.5757    4.3503    8.4303 C   0  0  0  0  0  0  0  0  0  0  0  0
   44.5525    3.7443    9.3850 C   0  0  0  0  0  0  0  0  0  0  0  0
   45.8254    2.0434    8.2112 C   0  0  0  0  0  0  0  0  0  0  0  0
   46.3058    3.2676    7.7740 C   0  0  0  0  0  0  0  0  0  0  0  0
   44.1508    1.3304    9.7121 O   0  0  0  0  0  0  0  0  0  0  0  0
   45.7767    5.5286    8.1930 O   0  0  0  0  0  0  0  0  0  0  0  0
   44.7041    4.2546   10.8039 C   0  0  0  0  0  0  0  0  0  0  0  0
   46.3425    0.8498    7.7408 C   0  0  0  0  0  0  0  0  0  0  0  0
   47.3260    3.3581    6.8444 C   0  0  0  0  0  0  0  0  0  0  0  0
   44.3211    5.5773   11.0893 C   0  0  0  0  0  0  0  0  0  0  0  0
   45.2252    3.4767   11.8490 C   0  0  0  0  0  0  0  0  0  0  0  0
   47.3755    0.9188    6.8012 C   0  0  0  0  0  0  0  0  0  0  0  0
   47.8633    2.1631    6.3566 C   0  0  0  0  0  0  0  0  0  0  0  0
   44.4512    6.1028   12.3761 C   0  0  0  0  0  0  0  0  0  0  0  0
   45.3525    4.0036   13.1373 C   0  0  0  0  0  0  0  0  0  0  0  0
   44.9663    5.3151   13.4008 C   0  0  0  0  0  0  0  0  0  0  0  0
   43.5515    3.9794    9.0013 H   0  0  0  0  0  0  0  0  0  0  0  0
   45.9587   -0.1043    8.0898 H   0  0  0  0  0  0  0  0  0  0  0  0
   47.6944    4.3229    6.5083 H   0  0  0  0  0  0  0  0  0  0  0  0
   43.9265    6.2166   10.3005 H   0  0  0  0  0  0  0  0  0  0  0  0
   45.5316    2.4448   11.6911 H   0  0  0  0  0  0  0  0  0  0  0  0
   47.8091    0.0010    6.4075 H   0  0  0  0  0  0  0  0  0  0  0  0
   48.6687    2.1931    5.6243 H   0  0  0  0  0  0  0  0  0  0  0  0
   44.1531    7.1289   12.5753 H   0  0  0  0  0  0  0  0  0  0  0  0
   45.7517    3.3853   13.9376 H   0  0  0  0  0  0  0  0  0  0  0  0
   45.0671    5.7222   14.4032 H   0  0  0  0  0  0  0  0  0  0  0  0
  2  3  1  0
  3  1  1  0
  4  1  1  0
  5  4  2  0
  6  1  2  0
  7  2  2  0
  8  3  1  0
  9  4  1  0
 10  5  1  0
 11  8  2  0
 12  8  1  0
 13  9  2  0
 14 13  1  0
 15 11  1  0
 16 12  2  0
 17 16  1  0
  5  2  1  0
 14 10  2  0
 17 15  2  0
  3 18  1  0
  9 19  1  0
 10 20  1  0
 11 21  1  0
 12 22  1  0
 13 23  1  0
 14 24  1  0
 15 25  1  0
 16 26  1  0
 17 27  1  0
M  END
> <Uni-Dock RESULT> 
ENERGY=   -6.052  LOWER_BOUND=    0.000  UPPER_BOUND=    0.000
INTER + INTRA:          -6.052
INTER:                  -6.052
INTRA:                   0.000
UNBOUND:                 0.000

$$$$

     RDKit          3D

 27 29  0  0  0  0  0  0  0  0999 V2000
   44.8849    6.6316   11.9725 C   0  0  0  0  0  0  0  0  0  0  0  0
   45.9687    4.7653   12.9746 C   0  0  0  0  0  0  0  0  0  0  0  0
   44.8116    5.1125   12.0438 C   0  0  0  0  0  0  0  0  0  0  0  0
   46.0125    7.0878   12.7834 C   0  0  0  0  0  0  0  0  0  0  0  0
   46.6457    6.0005   13.3645 C   0  0  0  0  0  0  0  0  0  0  0  0
   44.1512    7.3929   11.3665 O   0  0  0  0  0  0  0  0  0  0  0  0
   46.3026    3.6659   13.3808 O   0  0  0  0  0  0  0  0  0  0  0  0
   44.8861    4.3777   10.7205 C   0  0  0  0  0  0  0  0  0  0  0  0
   46.4513    8.3825   12.9947 C   0  0  0  0  0  0  0  0  0  0  0  0
   47.7478    6.1547   14.1858 C   0  0  0  0  0  0  0  0  0  0  0  0
   44.6090    2.9992   10.6981 C   0  0  0  0  0  0  0  0  0  0  0  0
   45.2354    5.0019    9.5133 C   0  0  0  0  0  0  0  0  0  0  0  0
   47.5649    8.5605   13.8210 C   0  0  0  0  0  0  0  0  0  0  0  0
   48.2080    7.4553   14.4119 C   0  0  0  0  0  0  0  0  0  0  0  0
   44.6754    2.2706    9.5091 C   0  0  0  0  0  0  0  0  0  0  0  0
   45.2990    4.2715    8.3233 C   0  0  0  0  0  0  0  0  0  0  0  0
   45.0197    2.9075    8.3209 C   0  0  0  0  0  0  0  0  0  0  0  0
   43.8756    4.8679   12.5623 H   0  0  0  0  0  0  0  0  0  0  0  0
   45.9479    9.2277   12.5347 H   0  0  0  0  0  0  0  0  0  0  0  0
   48.2358    5.2956   14.6365 H   0  0  0  0  0  0  0  0  0  0  0  0
   44.3492    2.4767   11.6179 H   0  0  0  0  0  0  0  0  0  0  0  0
   45.4534    6.0667    9.4665 H   0  0  0  0  0  0  0  0  0  0  0  0
   47.9408    9.5645   14.0112 H   0  0  0  0  0  0  0  0  0  0  0  0
   49.0739    7.6175   15.0519 H   0  0  0  0  0  0  0  0  0  0  0  0
   44.4614    1.2050    9.5136 H   0  0  0  0  0  0  0  0  0  0  0  0
   45.5645    4.7717    7.3951 H   0  0  0  0  0  0  0  0  0  0  0  0
   45.0706    2.3421    7.3944 H   0  0  0  0  0  0  0  0  0  0  0  0
  2  3  1  0
  3  1  1  0
  4  1  1  0
  5  4  2  0
  6  1  2  0
  7  2  2  0
  8  3  1  0
  9  4  1  0
 10  5  1  0
 11  8  2  0
 12  8  1  0
 13  9  2  0
 14 13  1  0
 15 11  1  0
 16 12  2  0
 17 16  1  0
  5  2  1  0
 14 10  2  0
 17 15  2  0
  3 18  1  0
  9 19  1  0
 10 20  1  0
 11 21  1  0
 12 22  1  0
 13 23  1  0
 14 24  1  0
 15 25  1  0
 16 26  1  0
 17 27  1  0
M  END
> <Uni-Dock RESULT> 
ENERGY=   -5.486  LOWER_BOUND=    2.503  UPPER_BOUND=    6.192
INTER + INTRA:          -5.486
INTER:                  -5.486
INTRA:                   0.000
UNBOUND:                 0.000

$$$$

     RDKit          3D

 27 29  0  0  0  0  0  0  0  0999 V2000
   45.1087    7.0524   11.6787 C   0  0  0  0  0  0  0  0  0  0  0  0
   46.0600    5.2083   12.8431 C   0  0  0  0  0  0  0  0  0  0  0  0
   44.9345    5.5525   11.8733 C   0  0  0  0  0  0  0  0  0  0  0  0
   46.2587    7.4992   12.4629 C   0  0  0  0  0  0  0  0  0  0  0  0
   46.8147    6.4244   13.1386 C   0  0  0  0  0  0  0  0  0  0  0  0
   44.4310    7.8075   11.0037 O   0  0  0  0  0  0  0  0  0  0  0  0
   46.3177    4.1267   13.3420 O   0  0  0  0  0  0  0  0  0  0  0  0
   44.9689    4.7077   10.6156 C   0  0  0  0  0  0  0  0  0  0  0  0
   46.7808    8.7754   12.5727 C   0  0  0  0  0  0  0  0  0  0  0  0
   47.9192    6.5735   13.9577 C   0  0  0  0  0  0  0  0  0  0  0  0
   44.6013    3.3531   10.7028 C   0  0  0  0  0  0  0  0  0  0  0  0
   45.3666    5.2059    9.3656 C   0  0  0  0  0  0  0  0  0  0  0  0
   47.8983    8.9478   13.3949 C   0  0  0  0  0  0  0  0  0  0  0  0
   48.4630    7.8554   14.0820 C   0  0  0  0  0  0  0  0  0  0  0  0
   44.6271    2.5262    9.5784 C   0  0  0  0  0  0  0  0  0  0  0  0
   45.3895    4.3773    8.2402 C   0  0  0  0  0  0  0  0  0  0  0  0
   45.0205    3.0390    8.3463 C   0  0  0  0  0  0  0  0  0  0  0  0
   43.9810    5.4132   12.3988 H   0  0  0  0  0  0  0  0  0  0  0  0
   46.3375    9.6109   12.0391 H   0  0  0  0  0  0  0  0  0  0  0  0
   48.3463    5.7244   14.4831 H   0  0  0  0  0  0  0  0  0  0  0  0
   44.3014    2.9264   11.6592 H   0  0  0  0  0  0  0  0  0  0  0  0
   45.6549    6.2468    9.2343 H   0  0  0  0  0  0  0  0  0  0  0  0
   48.3386    9.9373   13.5067 H   0  0  0  0  0  0  0  0  0  0  0  0
   49.3335    8.0129   14.7169 H   0  0  0  0  0  0  0  0  0  0  0  0
   44.3430    1.4808    9.6677 H   0  0  0  0  0  0  0  0  0  0  0  0
   45.6936    4.7807    7.2775 H   0  0  0  0  0  0  0  0  0  0  0  0
   45.0399    2.3969    7.4698 H   0  0  0  0  0  0  0  0  0  0  0  0
  2  3  1  0
  3  1  1  0
  4  1  1  0
  5  4  2  0
  6  1  2  0
  7  2  2  0
  8  3  1  0
  9  4  1  0
 10  5  1  0
 11  8  2  0
 12  8  1  0
 13  9  2  0
 14 13  1  0
 15 11  1  0
 16 12  2  0
 17 16  1  0
  5  2  1  0
 14 10  2  0
 17 15  2  0
  3 18  1  0
  9 19  1  0
 10 20  1  0
 11 21  1  0
 12 22  1  0
 13 23  1  0
 14 24  1  0
 15 25  1  0
 16 26  1  0
 17 27  1  0
M  END
> <Uni-Dock RESULT> 
ENERGY=   -5.100  LOWER_BOUND=    2.685  UPPER_BOUND=    6.219
INTER + INTRA:          -5.100
INTER:                  -5.100
INTRA:                   0.000
UNBOUND:                 0.000

$$$$

     RDKit          3D

 27 29  0  0  0  0  0  0  0  0999 V2000
   46.4121    5.7852   13.4436 C   0  0  0  0  0  0  0  0  0  0  0  0
   45.1172    7.2205   12.0564 C   0  0  0  0  0  0  0  0  0  0  0  0
   46.2469    7.2545   13.0803 C   0  0  0  0  0  0  0  0  0  0  0  0
   45.4620    4.9963   12.6614 C   0  0  0  0  0  0  0  0  0  0  0  0
   44.7099    5.8320   11.8511 C   0  0  0  0  0  0  0  0  0  0  0  0
   47.1822    5.2910   14.2486 O   0  0  0  0  0  0  0  0  0  0  0  0
   44.5853    8.1610   11.4926 O   0  0  0  0  0  0  0  0  0  0  0  0
   47.4850    7.9570   12.5605 C   0  0  0  0  0  0  0  0  0  0  0  0
   45.2736    3.6259   12.6657 C   0  0  0  0  0  0  0  0  0  0  0  0
   43.7323    5.3385   11.0063 C   0  0  0  0  0  0  0  0  0  0  0  0
   47.4551    9.3553   12.4132 C   0  0  0  0  0  0  0  0  0  0  0  0
   48.6597    7.2790   12.2012 C   0  0  0  0  0  0  0  0  0  0  0  0
   44.2908    3.1062   11.8180 C   0  0  0  0  0  0  0  0  0  0  0  0
   43.5263    3.9557   10.9948 C   0  0  0  0  0  0  0  0  0  0  0  0
   48.5629   10.0518   11.9268 C   0  0  0  0  0  0  0  0  0  0  0  0
   49.7688    7.9782   11.7167 C   0  0  0  0  0  0  0  0  0  0  0  0
   49.7206    9.3629   11.5793 C   0  0  0  0  0  0  0  0  0  0  0  0
   45.8725    7.7596   13.9799 H   0  0  0  0  0  0  0  0  0  0  0  0
   45.8682    2.9798   13.3048 H   0  0  0  0  0  0  0  0  0  0  0  0
   43.1483    6.0027   10.3760 H   0  0  0  0  0  0  0  0  0  0  0  0
   46.5556    9.9147   12.6674 H   0  0  0  0  0  0  0  0  0  0  0  0
   48.7453    6.1989   12.2999 H   0  0  0  0  0  0  0  0  0  0  0  0
   44.1131    2.0323   11.7925 H   0  0  0  0  0  0  0  0  0  0  0  0
   42.7663    3.5290   10.3422 H   0  0  0  0  0  0  0  0  0  0  0  0
   48.5182   11.1322   11.8165 H   0  0  0  0  0  0  0  0  0  0  0  0
   50.6739    7.4385   11.4492 H   0  0  0  0  0  0  0  0  0  0  0  0
   50.5841    9.9037   11.2017 H   0  0  0  0  0  0  0  0  0  0  0  0
  2  3  1  0
  3  1  1  0
  4  1  1  0
  5  4  2  0
  6  1  2  0
  7  2  2  0
  8  3  1  0
  9  4  1  0
 10  5  1  0
 11  8  2  0
 12  8  1  0
 13  9  2  0
 14 13  1  0
 15 11  1  0
 16 12  2  0
 17 16  1  0
  5  2  1  0
 14 10  2  0
 17 15  2  0
  3 18  1  0
  9 19  1  0
 10 20  1  0
 11 21  1  0
 12 22  1  0
 13 23  1  0
 14 24  1  0
 15 25  1  0
 16 26  1  0
 17 27  1  0
M  END
> <Uni-Dock RESULT> 
ENERGY=   -4.465  LOWER_BOUND=    3.965  UPPER_BOUND=    5.648
INTER + INTRA:          -4.465
INTER:                  -4.465
INTRA:                   0.000
UNBOUND:                 0.000

$$$$

     RDKit          3D

 27 29  0  0  0  0  0  0  0  0999 V2000
   48.2795    7.6506   12.5406 C   0  0  0  0  0  0  0  0  0  0  0  0
   45.9923    7.0471   12.7974 C   0  0  0  0  0  0  0  0  0  0  0  0
   47.3973    6.4634   12.9018 C   0  0  0  0  0  0  0  0  0  0  0  0
   47.4272    8.8093   12.2800 C   0  0  0  0  0  0  0  0  0  0  0  0
   46.0951    8.4586   12.4326 C   0  0  0  0  0  0  0  0  0  0  0  0
   49.4948    7.6875   12.4577 O   0  0  0  0  0  0  0  0  0  0  0  0
   44.9274    6.4753   12.9535 O   0  0  0  0  0  0  0  0  0  0  0  0
   47.6633    5.8190   14.2474 C   0  0  0  0  0  0  0  0  0  0  0  0
   47.8051   10.0930   11.9296 C   0  0  0  0  0  0  0  0  0  0  0  0
   45.0759    9.3739   12.2415 C   0  0  0  0  0  0  0  0  0  0  0  0
   47.0357    4.5963   14.5454 C   0  0  0  0  0  0  0  0  0  0  0  0
   48.4946    6.3907   15.2226 C   0  0  0  0  0  0  0  0  0  0  0  0
   46.7902   11.0342   11.7327 C   0  0  0  0  0  0  0  0  0  0  0  0
   45.4364   10.6775   11.8875 C   0  0  0  0  0  0  0  0  0  0  0  0
   47.2352    3.9653   15.7746 C   0  0  0  0  0  0  0  0  0  0  0  0
   48.6952    5.7565   16.4519 C   0  0  0  0  0  0  0  0  0  0  0  0
   48.0662    4.5454   16.7279 C   0  0  0  0  0  0  0  0  0  0  0  0
   47.5180    5.7269   12.0971 H   0  0  0  0  0  0  0  0  0  0  0  0
   48.8518   10.3575   11.8122 H   0  0  0  0  0  0  0  0  0  0  0  0
   44.0353    9.0879   12.3632 H   0  0  0  0  0  0  0  0  0  0  0  0
   46.3712    4.1294   13.8194 H   0  0  0  0  0  0  0  0  0  0  0  0
   49.0129    7.3311   15.0472 H   0  0  0  0  0  0  0  0  0  0  0  0
   47.0475   12.0555   11.4565 H   0  0  0  0  0  0  0  0  0  0  0  0
   44.6625   11.4270   11.7294 H   0  0  0  0  0  0  0  0  0  0  0  0
   46.7376    3.0226   15.9871 H   0  0  0  0  0  0  0  0  0  0  0  0
   49.3479    6.2093   17.1941 H   0  0  0  0  0  0  0  0  0  0  0  0
   48.2235    4.0549   17.6847 H   0  0  0  0  0  0  0  0  0  0  0  0
  2  3  1  0
  3  1  1  0
  4  1  1  0
  5  4  2  0
  6  1  2  0
  7  2  2  0
  8  3  1  0
  9  4  1  0
 10  5  1  0
 11  8  2  0
 12  8  1  0
 13  9  2  0
 14 13  1  0
 15 11  1  0
 16 12  2  0
 17 16  1  0
  5  2  1  0
 14 10  2  0
 17 15  2  0
  3 18  1  0
  9 19  1  0
 10 20  1  0
 11 21  1  0
 12 22  1  0
 13 23  1  0
 14 24  1  0
 15 25  1  0
 16 26  1  0
 17 27  1  0
M  END
> <Uni-Dock RESULT> 
ENERGY=   -4.243  LOWER_BOUND=    5.496  UPPER_BOUND=    7.184
INTER + INTRA:          -4.243
INTER:                  -4.243
INTRA:                   0.000
UNBOUND:                 0.000

$$$$

     RDKit          3D

 27 29  0  0  0  0  0  0  0  0999 V2000
   51.7256    4.8724   17.9276 C   0  0  0  0  0  0  0  0  0  0  0  0
   51.7791    2.4976   17.7896 C   0  0  0  0  0  0  0  0  0  0  0  0
   52.6585    3.6901   18.1509 C   0  0  0  0  0  0  0  0  0  0  0  0
   50.4216    4.3697   17.4986 C   0  0  0  0  0  0  0  0  0  0  0  0
   50.4519    2.9863   17.4213 C   0  0  0  0  0  0  0  0  0  0  0  0
   51.9698    6.0591   18.0590 O   0  0  0  0  0  0  0  0  0  0  0  0
   52.0845    1.3181   17.7668 O   0  0  0  0  0  0  0  0  0  0  0  0
   53.2650    3.5702   19.5345 C   0  0  0  0  0  0  0  0  0  0  0  0
   49.2801    5.0897   17.1954 C   0  0  0  0  0  0  0  0  0  0  0  0
   49.3426    2.2554   17.0361 C   0  0  0  0  0  0  0  0  0  0  0  0
   54.2938    2.6340   19.7410 C   0  0  0  0  0  0  0  0  0  0  0  0
   52.8392    4.3375   20.6295 C   0  0  0  0  0  0  0  0  0  0  0  0
   48.1469    4.3699   16.8048 C   0  0  0  0  0  0  0  0  0  0  0  0
   48.1780    2.9639   16.7259 C   0  0  0  0  0  0  0  0  0  0  0  0
   54.8791    2.4730   20.9982 C   0  0  0  0  0  0  0  0  0  0  0  0
   53.4280    4.1768   21.8869 C   0  0  0  0  0  0  0  0  0  0  0  0
   54.4465    3.2456   22.0713 C   0  0  0  0  0  0  0  0  0  0  0  0
   53.4498    3.7680   17.3943 H   0  0  0  0  0  0  0  0  0  0  0  0
   49.2669    6.1737   17.2590 H   0  0  0  0  0  0  0  0  0  0  0  0
   49.3778    1.1715   16.9783 H   0  0  0  0  0  0  0  0  0  0  0  0
   54.6406    2.0094   18.9186 H   0  0  0  0  0  0  0  0  0  0  0  0
   52.0528    5.0827   20.5298 H   0  0  0  0  0  0  0  0  0  0  0  0
   47.2288    4.9008   16.5585 H   0  0  0  0  0  0  0  0  0  0  0  0
   47.2835    2.4238   16.4196 H   0  0  0  0  0  0  0  0  0  0  0  0
   55.6703    1.7409   21.1379 H   0  0  0  0  0  0  0  0  0  0  0  0
   53.0913    4.7841   22.7235 H   0  0  0  0  0  0  0  0  0  0  0  0
   54.9019    3.1223   23.0502 H   0  0  0  0  0  0  0  0  0  0  0  0
  2  3  1  0
  3  1  1  0
  4  1  1  0
  5  4  2  0
  6  1  2  0
  7  2  2  0
  8  3  1  0
  9  4  1  0
 10  5  1  0
 11  8  2  0
 12  8  1  0
 13  9  2  0
 14 13  1  0
 15 11  1  0
 16 12  2  0
 17 16  1  0
  5  2  1  0
 14 10  2  0
 17 15  2  0
  3 18  1  0
  9 19  1  0
 10 20  1  0
 11 21  1  0
 12 22  1  0
 13 23  1  0
 14 24  1  0
 15 25  1  0
 16 26  1  0
 17 27  1  0
M  END
> <Uni-Dock RESULT> 
ENERGY=   -3.825  LOWER_BOUND=    9.312  UPPER_BOUND=   11.761
INTER + INTRA:          -3.825
INTER:                  -3.825
INTRA:                   0.000
UNBOUND:                 0.000

$$$$

     RDKit          3D

 27 29  0  0  0  0  0  0  0  0999 V2000
   46.9299    6.6274   12.1653 C   0  0  0  0  0  0  0  0  0  0  0  0
   46.5188    5.0526   13.9010 C   0  0  0  0  0  0  0  0  0  0  0  0
   47.6003    5.9902   13.3747 C   0  0  0  0  0  0  0  0  0  0  0  0
   45.5717    6.0998   12.0465 C   0  0  0  0  0  0  0  0  0  0  0  0
   45.3312    5.1849   13.0594 C   0  0  0  0  0  0  0  0  0  0  0  0
   47.3981    7.4388   11.3858 O   0  0  0  0  0  0  0  0  0  0  0  0
   46.5857    4.2812   14.8420 O   0  0  0  0  0  0  0  0  0  0  0  0
   48.1116    6.9450   14.4347 C   0  0  0  0  0  0  0  0  0  0  0  0
   44.6090    6.4085   11.1025 C   0  0  0  0  0  0  0  0  0  0  0  0
   44.1168    4.5334   13.1771 C   0  0  0  0  0  0  0  0  0  0  0  0
   48.9253    6.4375   15.4633 C   0  0  0  0  0  0  0  0  0  0  0  0
   47.7997    8.3129   14.4520 C   0  0  0  0  0  0  0  0  0  0  0  0
   43.3736    5.7619   11.2041 C   0  0  0  0  0  0  0  0  0  0  0  0
   43.1295    4.8318   12.2334 C   0  0  0  0  0  0  0  0  0  0  0  0
   49.4132    7.2698   16.4724 C   0  0  0  0  0  0  0  0  0  0  0  0
   48.2910    9.1453   15.4616 C   0  0  0  0  0  0  0  0  0  0  0  0
   49.0966    8.6246   16.4708 C   0  0  0  0  0  0  0  0  0  0  0  0
   48.4229    5.3745   12.9889 H   0  0  0  0  0  0  0  0  0  0  0  0
   44.8077    7.1268   10.3126 H   0  0  0  0  0  0  0  0  0  0  0  0
   43.9394    3.8178   13.9746 H   0  0  0  0  0  0  0  0  0  0  0  0
   49.1765    5.3779   15.4920 H   0  0  0  0  0  0  0  0  0  0  0  0
   47.1811    8.7645   13.6793 H   0  0  0  0  0  0  0  0  0  0  0  0
   42.5899    5.9786   10.4801 H   0  0  0  0  0  0  0  0  0  0  0  0
   42.1597    4.3401   12.2934 H   0  0  0  0  0  0  0  0  0  0  0  0
   50.0374    6.8572   17.2608 H   0  0  0  0  0  0  0  0  0  0  0  0
   48.0457   10.2045   15.4567 H   0  0  0  0  0  0  0  0  0  0  0  0
   49.4765    9.2740   17.2548 H   0  0  0  0  0  0  0  0  0  0  0  0
  2  3  1  0
  3  1  1  0
  4  1  1  0
  5  4  2  0
  6  1  2  0
  7  2  2  0
  8  3  1  0
  9  4  1  0
 10  5  1  0
 11  8  2  0
 12  8  1  0
 13  9  2  0
 14 13  1  0
 15 11  1  0
 16 12  2  0
 17 16  1  0
  5  2  1  0
 14 10  2  0
 17 15  2  0
  3 18  1  0
  9 19  1  0
 10 20  1  0
 11 21  1  0
 12 22  1  0
 13 23  1  0
 14 24  1  0
 15 25  1  0
 16 26  1  0
 17 27  1  0
M  END
> <Uni-Dock RESULT> 
ENERGY=   -3.814  LOWER_BOUND=    4.529  UPPER_BOUND=    6.443
INTER + INTRA:          -3.814
INTER:                  -3.814
INTRA:                   0.000
UNBOUND:                 0.000

$$$$

     RDKit          3D

 27 29  0  0  0  0  0  0  0  0999 V2000
   42.3466   10.1520   10.8101 C   0  0  0  0  0  0  0  0  0  0  0  0
   42.6722   12.4663   11.2565 C   0  0  0  0  0  0  0  0  0  0  0  0
   43.4159   11.2343   10.7517 C   0  0  0  0  0  0  0  0  0  0  0  0
   41.0995   10.7465   11.2880 C   0  0  0  0  0  0  0  0  0  0  0  0
   41.2884   12.0952   11.5451 C   0  0  0  0  0  0  0  0  0  0  0  0
   42.4545    8.9714   10.5277 O   0  0  0  0  0  0  0  0  0  0  0  0
   43.1120   13.5887   11.4356 O   0  0  0  0  0  0  0  0  0  0  0  0
   44.0666   11.4577    9.4015 C   0  0  0  0  0  0  0  0  0  0  0  0
   39.8748   10.1340   11.4838 C   0  0  0  0  0  0  0  0  0  0  0  0
   40.2623   12.8970   12.0112 C   0  0  0  0  0  0  0  0  0  0  0  0
   45.2021   12.2841    9.3286 C   0  0  0  0  0  0  0  0  0  0  0  0
   43.5822   10.8929    8.2118 C   0  0  0  0  0  0  0  0  0  0  0  0
   38.8236   10.9270   11.9536 C   0  0  0  0  0  0  0  0  0  0  0  0
   39.0158   12.2976   12.2152 C   0  0  0  0  0  0  0  0  0  0  0  0
   45.8335   12.5343    8.1089 C   0  0  0  0  0  0  0  0  0  0  0  0
   44.2170   11.1424    6.9918 C   0  0  0  0  0  0  0  0  0  0  0  0
   45.3411   11.9623    6.9402 C   0  0  0  0  0  0  0  0  0  0  0  0
   44.1736   10.9669   11.4994 H   0  0  0  0  0  0  0  0  0  0  0  0
   39.7373    9.0763   11.2796 H   0  0  0  0  0  0  0  0  0  0  0  0
   40.4217   13.9527   12.2099 H   0  0  0  0  0  0  0  0  0  0  0  0
   45.5984   12.7526   10.2287 H   0  0  0  0  0  0  0  0  0  0  0  0
   42.7123   10.2395    8.2060 H   0  0  0  0  0  0  0  0  0  0  0  0
   37.8440   10.4815   12.1198 H   0  0  0  0  0  0  0  0  0  0  0  0
   38.1827   12.8962   12.5804 H   0  0  0  0  0  0  0  0  0  0  0  0
   46.7077   13.1793    8.0734 H   0  0  0  0  0  0  0  0  0  0  0  0
   43.8330   10.6915    6.0801 H   0  0  0  0  0  0  0  0  0  0  0  0
   45.8322   12.1550    5.9902 H   0  0  0  0  0  0  0  0  0  0  0  0
  2  3  1  0
  3  1  1  0
  4  1  1  0
  5  4  2  0
  6  1  2  0
  7  2  2  0
  8  3  1  0
  9  4  1  0
 10  5  1  0
 11  8  2  0
 12  8  1  0
 13  9  2  0
 14 13  1  0
 15 11  1  0
 16 12  2  0
 17 16  1  0
  5  2  1  0
 14 10  2  0
 17 15  2  0
  3 18  1  0
  9 19  1  0
 10 20  1  0
 11 21  1  0
 12 22  1  0
 13 23  1  0
 14 24  1  0
 15 25  1  0
 16 26  1  0
 17 27  1  0
M  END
> <Uni-Dock RESULT> 
ENERGY=   -3.812  LOWER_BOUND=    7.763  UPPER_BOUND=   10.053
INTER + INTRA:          -3.812
INTER:                  -3.812
INTRA:                   0.000
UNBOUND:                 0.000

$$$$

     RDKit          3D

 27 29  0  0  0  0  0  0  0  0999 V2000
   47.7659    7.1174   13.9499 C   0  0  0  0  0  0  0  0  0  0  0  0
   45.8996    8.1075   12.8554 C   0  0  0  0  0  0  0  0  0  0  0  0
   47.2091    8.4754   13.5451 C   0  0  0  0  0  0  0  0  0  0  0  0
   46.8454    6.0761   13.4965 C   0  0  0  0  0  0  0  0  0  0  0  0
   45.7599    6.6528   12.8562 C   0  0  0  0  0  0  0  0  0  0  0  0
   48.7944    6.8764   14.5576 O   0  0  0  0  0  0  0  0  0  0  0  0
   45.0599    8.8570   12.3882 O   0  0  0  0  0  0  0  0  0  0  0  0
   48.1065    9.3325   12.6753 C   0  0  0  0  0  0  0  0  0  0  0  0
   46.9598    4.7052   13.6410 C   0  0  0  0  0  0  0  0  0  0  0  0
   44.7355    5.8869   12.3300 C   0  0  0  0  0  0  0  0  0  0  0  0
   47.7451   10.6725   12.4481 C   0  0  0  0  0  0  0  0  0  0  0  0
   49.2763    8.8509   12.0684 C   0  0  0  0  0  0  0  0  0  0  0  0
   45.9353    3.9124   13.1150 C   0  0  0  0  0  0  0  0  0  0  0  0
   44.8319    4.4987   12.4646 C   0  0  0  0  0  0  0  0  0  0  0  0
   48.5283   11.5031   11.6446 C   0  0  0  0  0  0  0  0  0  0  0  0
   50.0607    9.6846   11.2663 C   0  0  0  0  0  0  0  0  0  0  0  0
   49.6872   11.0090   11.0543 C   0  0  0  0  0  0  0  0  0  0  0  0
   46.9642    9.0037   14.4755 H   0  0  0  0  0  0  0  0  0  0  0  0
   47.8144    4.2634   14.1447 H   0  0  0  0  0  0  0  0  0  0  0  0
   43.8891    6.3494   11.8307 H   0  0  0  0  0  0  0  0  0  0  0  0
   46.8357   11.0780   12.8899 H   0  0  0  0  0  0  0  0  0  0  0  0
   49.6110    7.8259   12.2131 H   0  0  0  0  0  0  0  0  0  0  0  0
   45.9894    2.8290   13.2083 H   0  0  0  0  0  0  0  0  0  0  0  0
   44.0457    3.8617   12.0624 H   0  0  0  0  0  0  0  0  0  0  0  0
   48.2295   12.5348   11.4781 H   0  0  0  0  0  0  0  0  0  0  0  0
   50.9680    9.2978   10.8089 H   0  0  0  0  0  0  0  0  0  0  0  0
   50.2986   11.6546   10.4297 H   0  0  0  0  0  0  0  0  0  0  0  0
  2  3  1  0
  3  1  1  0
  4  1  1  0
  5  4  2  0
  6  1  2  0
  7  2  2  0
  8  3  1  0
  9  4  1  0
 10  5  1  0
 11  8  2  0
 12  8  1  0
 13  9  2  0
 14 13  1  0
 15 11  1  0
 16 12  2  0
 17 16  1  0
  5  2  1  0
 14 10  2  0
 17 15  2  0
  3 18  1  0
  9 19  1  0
 10 20  1  0
 11 21  1  0
 12 22  1  0
 13 23  1  0
 14 24  1  0
 15 25  1  0
 16 26  1  0
 17 27  1  0
M  END
> <Uni-Dock RESULT> 
ENERGY=   -3.754  LOWER_BOUND=    4.700  UPPER_BOUND=    6.903
INTER + INTRA:          -3.754
INTER:                  -3.754
INTRA:                   0.000
UNBOUND:                 0.000

$$$$
