
     RDKit          3D

 27 29  0  0  0  0  0  0  0  0999 V2000
   44.7441    2.2270    9.1160 C   0  0  0  0  0  0  0  0  0  0  0  0
   45.5087    4.3654    8.4061 C   0  0  0  0  0  0  0  0  0  0  0  0
   44.4830    3.7149    9.3241 C   0  0  0  0  0  0  0  0  0  0  0  0
   45.8503    2.0707    8.1738 C   0  0  0  0  0  0  0  0  0  0  0  0
   46.2938    3.3161    7.7580 C   0  0  0  0  0  0  0  0  0  0  0  0
   44.1464    1.2836    9.6038 O   0  0  0  0  0  0  0  0  0  0  0  0
   45.6871    5.5529    8.1985 O   0  0  0  0  0  0  0  0  0  0  0  0
   44.5418    4.1194   10.7834 C   0  0  0  0  0  0  0  0  0  0  0  0
   46.4251    0.9019    7.7084 C   0  0  0  0  0  0  0  0  0  0  0  0
   47.3343    3.4535    6.8569 C   0  0  0  0  0  0  0  0  0  0  0  0
   45.6005    4.8573   11.3346 C   0  0  0  0  0  0  0  0  0  0  0  0
   43.4950    3.7244   11.6354 C   0  0  0  0  0  0  0  0  0  0  0  0
   47.4791    1.0184    6.7975 C   0  0  0  0  0  0  0  0  0  0  0  0
   47.9301    2.2842    6.3749 C   0  0  0  0  0  0  0  0  0  0  0  0
   45.6073    5.1932   12.6914 C   0  0  0  0  0  0  0  0  0  0  0  0
   43.5045    4.0585   12.9908 C   0  0  0  0  0  0  0  0  0  0  0  0
   44.5610    4.7943   13.5187 C   0  0  0  0  0  0  0  0  0  0  0  0
   43.4955    3.9468    8.9048 H   0  0  0  0  0  0  0  0  0  0  0  0
   46.0691   -0.0689    8.0406 H   0  0  0  0  0  0  0  0  0  0  0  0
   47.6740    4.4341    6.5373 H   0  0  0  0  0  0  0  0  0  0  0  0
   46.4343    5.1973   10.7243 H   0  0  0  0  0  0  0  0  0  0  0  0
   42.6633    3.1375   11.2471 H   0  0  0  0  0  0  0  0  0  0  0  0
   47.9581    0.1210    6.4090 H   0  0  0  0  0  0  0  0  0  0  0  0
   48.7526    2.3508    5.6645 H   0  0  0  0  0  0  0  0  0  0  0  0
   46.4317    5.7713   13.1013 H   0  0  0  0  0  0  0  0  0  0  0  0
   42.6878    3.7402   13.6334 H   0  0  0  0  0  0  0  0  0  0  0  0
   44.5693    5.0562   14.5732 H   0  0  0  0  0  0  0  0  0  0  0  0
  2  3  1  0
  3  1  1  0
  4  1  1  0
  5  4  2  0
  6  1  2  0
  7  2  2  0
  8  3  1  0
  9  4  1  0
 10  5  1  0
 11  8  2  0
 12  8  1  0
 13  9  2  0
 14 13  1  0
 15 11  1  0
 16 12  2  0
 17 16  1  0
  5  2  1  0
 14 10  2  0
 17 15  2  0
  3 18  1  0
  9 19  1  0
 10 20  1  0
 11 21  1  0
 12 22  1  0
 13 23  1  0
 14 24  1  0
 15 25  1  0
 16 26  1  0
 17 27  1  0
M  END
> <Uni-Dock RESULT> 
ENERGY=   -5.874  LOWER_BOUND=    0.000  UPPER_BOUND=    0.000
INTER + INTRA:          -5.874
INTER:                  -5.874
INTRA:                   0.000
UNBOUND:                 0.000

$$$$

     RDKit          3D

 27 29  0  0  0  0  0  0  0  0999 V2000
   46.5342    5.1422   13.5977 C   0  0  0  0  0  0  0  0  0  0  0  0
   45.4745    6.9287   12.4372 C   0  0  0  0  0  0  0  0  0  0  0  0
   46.5601    6.6616   13.4707 C   0  0  0  0  0  0  0  0  0  0  0  0
   45.5274    4.6105   12.6814 C   0  0  0  0  0  0  0  0  0  0  0  0
   44.9081    5.6512   12.0075 C   0  0  0  0  0  0  0  0  0  0  0  0
   47.1971    4.4386   14.3398 O   0  0  0  0  0  0  0  0  0  0  0  0
   45.0921    8.0031   12.0077 O   0  0  0  0  0  0  0  0  0  0  0  0
   47.9397    7.1966   13.1432 C   0  0  0  0  0  0  0  0  0  0  0  0
   45.1763    3.2910   12.4610 C   0  0  0  0  0  0  0  0  0  0  0  0
   43.9077    5.4230   11.0797 C   0  0  0  0  0  0  0  0  0  0  0  0
   48.2888    7.7013   11.8813 C   0  0  0  0  0  0  0  0  0  0  0  0
   48.9271    7.1731   14.1442 C   0  0  0  0  0  0  0  0  0  0  0  0
   44.1679    3.0383   11.5262 C   0  0  0  0  0  0  0  0  0  0  0  0
   43.5385    4.0959   10.8411 C   0  0  0  0  0  0  0  0  0  0  0  0
   49.5812    8.1720   11.6324 C   0  0  0  0  0  0  0  0  0  0  0  0
   50.2182    7.6414   13.8933 C   0  0  0  0  0  0  0  0  0  0  0  0
   50.5449    8.1420   12.6368 C   0  0  0  0  0  0  0  0  0  0  0  0
   46.2026    7.0862   14.4176 H   0  0  0  0  0  0  0  0  0  0  0  0
   45.6679    2.4833   12.9951 H   0  0  0  0  0  0  0  0  0  0  0  0
   43.4287    6.2457   10.5573 H   0  0  0  0  0  0  0  0  0  0  0  0
   47.5662    7.7519   11.0697 H   0  0  0  0  0  0  0  0  0  0  0  0
   48.6979    6.7746   15.1319 H   0  0  0  0  0  0  0  0  0  0  0  0
   43.8642    2.0123   11.3245 H   0  0  0  0  0  0  0  0  0  0  0  0
   42.7553    3.8754   10.1175 H   0  0  0  0  0  0  0  0  0  0  0  0
   49.8336    8.5663   10.6512 H   0  0  0  0  0  0  0  0  0  0  0  0
   50.9682    7.6109   14.6793 H   0  0  0  0  0  0  0  0  0  0  0  0
   51.5489    8.5080   12.4403 H   0  0  0  0  0  0  0  0  0  0  0  0
  2  3  1  0
  3  1  1  0
  4  1  1  0
  5  4  2  0
  6  1  2  0
  7  2  2  0
  8  3  1  0
  9  4  1  0
 10  5  1  0
 11  8  2  0
 12  8  1  0
 13  9  2  0
 14 13  1  0
 15 11  1  0
 16 12  2  0
 17 16  1  0
  5  2  1  0
 14 10  2  0
 17 15  2  0
  3 18  1  0
  9 19  1  0
 10 20  1  0
 11 21  1  0
 12 22  1  0
 13 23  1  0
 14 24  1  0
 15 25  1  0
 16 26  1  0
 17 27  1  0
M  END
> <Uni-Dock RESULT> 
ENERGY=   -4.257  LOWER_BOUND=    3.895  UPPER_BOUND=    5.765
INTER + INTRA:          -4.257
INTER:                  -4.257
INTRA:                   0.000
UNBOUND:                 0.000

$$$$

     RDKit          3D

 27 29  0  0  0  0  0  0  0  0999 V2000
   47.8523    6.2093   19.0563 C   0  0  0  0  0  0  0  0  0  0  0  0
   49.7531    4.9943   19.8126 C   0  0  0  0  0  0  0  0  0  0  0  0
   48.9409    6.2440   20.1236 C   0  0  0  0  0  0  0  0  0  0  0  0
   48.0357    5.0139   18.2357 C   0  0  0  0  0  0  0  0  0  0  0  0
   49.1446    4.3077   18.6743 C   0  0  0  0  0  0  0  0  0  0  0  0
   46.9698    7.0257   18.8559 O   0  0  0  0  0  0  0  0  0  0  0  0
   50.7545    4.5881   20.3758 O   0  0  0  0  0  0  0  0  0  0  0  0
   48.3790    6.3428   21.5276 C   0  0  0  0  0  0  0  0  0  0  0  0
   47.2747    4.5803   17.1653 C   0  0  0  0  0  0  0  0  0  0  0  0
   49.5461    3.1330   18.0642 C   0  0  0  0  0  0  0  0  0  0  0  0
   48.3839    5.2721   22.4346 C   0  0  0  0  0  0  0  0  0  0  0  0
   47.8084    7.5596   21.9415 C   0  0  0  0  0  0  0  0  0  0  0  0
   47.6628    3.3944   16.5349 C   0  0  0  0  0  0  0  0  0  0  0  0
   48.7897    2.6764   16.9808 C   0  0  0  0  0  0  0  0  0  0  0  0
   47.8413    5.4173   23.7145 C   0  0  0  0  0  0  0  0  0  0  0  0
   47.2647    7.7023   23.2193 C   0  0  0  0  0  0  0  0  0  0  0  0
   47.2821    6.6305   24.1066 C   0  0  0  0  0  0  0  0  0  0  0  0
   49.5928    7.1017   19.9137 H   0  0  0  0  0  0  0  0  0  0  0  0
   46.4079    5.1420   16.8296 H   0  0  0  0  0  0  0  0  0  0  0  0
   50.4168    2.5873   18.4156 H   0  0  0  0  0  0  0  0  0  0  0  0
   48.8177    4.3090   22.1745 H   0  0  0  0  0  0  0  0  0  0  0  0
   47.7726    8.4088   21.2599 H   0  0  0  0  0  0  0  0  0  0  0  0
   47.0883    3.0201   15.6891 H   0  0  0  0  0  0  0  0  0  0  0  0
   49.0735    1.7552   16.4744 H   0  0  0  0  0  0  0  0  0  0  0  0
   47.8592    4.5800   24.4077 H   0  0  0  0  0  0  0  0  0  0  0  0
   46.8247    8.6500   23.5186 H   0  0  0  0  0  0  0  0  0  0  0  0
   46.8604    6.7403   25.1019 H   0  0  0  0  0  0  0  0  0  0  0  0
  2  3  1  0
  3  1  1  0
  4  1  1  0
  5  4  2  0
  6  1  2  0
  7  2  2  0
  8  3  1  0
  9  4  1  0
 10  5  1  0
 11  8  2  0
 12  8  1  0
 13  9  2  0
 14 13  1  0
 15 11  1  0
 16 12  2  0
 17 16  1  0
  5  2  1  0
 14 10  2  0
 17 15  2  0
  3 18  1  0
  9 19  1  0
 10 20  1  0
 11 21  1  0
 12 22  1  0
 13 23  1  0
 14 24  1  0
 15 25  1  0
 16 26  1  0
 17 27  1  0
M  END
> <Uni-Dock RESULT> 
ENERGY=   -4.019  LOWER_BOUND=    8.683  UPPER_BOUND=   11.364
INTER + INTRA:          -4.019
INTER:                  -4.019
INTRA:                   0.000
UNBOUND:                 0.000

$$$$

     RDKit          3D

 27 29  0  0  0  0  0  0  0  0999 V2000
   47.4108    9.9727   19.0306 C   0  0  0  0  0  0  0  0  0  0  0  0
   46.7613   12.0308   20.0322 C   0  0  0  0  0  0  0  0  0  0  0  0
   46.7162   10.5276   20.2695 C   0  0  0  0  0  0  0  0  0  0  0  0
   47.8316   11.0895   18.1870 C   0  0  0  0  0  0  0  0  0  0  0  0
   47.4506   12.2882   18.7689 C   0  0  0  0  0  0  0  0  0  0  0  0
   47.5892    8.8056   18.7282 O   0  0  0  0  0  0  0  0  0  0  0  0
   46.3092   12.9177   20.7352 O   0  0  0  0  0  0  0  0  0  0  0  0
   47.3423   10.0363   21.5592 C   0  0  0  0  0  0  0  0  0  0  0  0
   48.5033   11.0493   16.9786 C   0  0  0  0  0  0  0  0  0  0  0  0
   47.7235   13.5054   18.1710 C   0  0  0  0  0  0  0  0  0  0  0  0
   48.1275   10.8492   22.3909 C   0  0  0  0  0  0  0  0  0  0  0  0
   47.1441    8.6965   21.9374 C   0  0  0  0  0  0  0  0  0  0  0  0
   48.7898   12.2687   16.3578 C   0  0  0  0  0  0  0  0  0  0  0  0
   48.4029   13.4871   16.9493 C   0  0  0  0  0  0  0  0  0  0  0  0
   48.6897   10.3390   23.5646 C   0  0  0  0  0  0  0  0  0  0  0  0
   47.7082    8.1877   23.1087 C   0  0  0  0  0  0  0  0  0  0  0  0
   48.4807    9.0100   23.9231 C   0  0  0  0  0  0  0  0  0  0  0  0
   45.6594   10.2347   20.2243 H   0  0  0  0  0  0  0  0  0  0  0  0
   48.7965   10.1041   16.5314 H   0  0  0  0  0  0  0  0  0  0  0  0
   47.4204   14.4391   18.6353 H   0  0  0  0  0  0  0  0  0  0  0  0
   48.3101   11.8953   22.1548 H   0  0  0  0  0  0  0  0  0  0  0  0
   46.5530    8.0307   21.3095 H   0  0  0  0  0  0  0  0  0  0  0  0
   49.3182   12.2783   15.4058 H   0  0  0  0  0  0  0  0  0  0  0  0
   48.6365   14.4248   16.4476 H   0  0  0  0  0  0  0  0  0  0  0  0
   49.2898   10.9839   24.2016 H   0  0  0  0  0  0  0  0  0  0  0  0
   47.5464    7.1481   23.3813 H   0  0  0  0  0  0  0  0  0  0  0  0
   48.9196    8.6159   24.8356 H   0  0  0  0  0  0  0  0  0  0  0  0
  2  3  1  0
  3  1  1  0
  4  1  1  0
  5  4  2  0
  6  1  2  0
  7  2  2  0
  8  3  1  0
  9  4  1  0
 10  5  1  0
 11  8  2  0
 12  8  1  0
 13  9  2  0
 14 13  1  0
 15 11  1  0
 16 12  2  0
 17 16  1  0
  5  2  1  0
 14 10  2  0
 17 15  2  0
  3 18  1  0
  9 19  1  0
 10 20  1  0
 11 21  1  0
 12 22  1  0
 13 23  1  0
 14 24  1  0
 15 25  1  0
 16 26  1  0
 17 27  1  0
M  END
> <Uni-Dock RESULT> 
ENERGY=   -3.901  LOWER_BOUND=   11.509  UPPER_BOUND=   13.426
INTER + INTRA:          -3.901
INTER:                  -3.901
INTRA:                   0.000
UNBOUND:                 0.000

$$$$

     RDKit          3D

 27 29  0  0  0  0  0  0  0  0999 V2000
   53.2333    7.3272    9.4365 C   0  0  0  0  0  0  0  0  0  0  0  0
   54.0097    5.3367    8.3895 C   0  0  0  0  0  0  0  0  0  0  0  0
   53.1782    6.5806    8.1080 C   0  0  0  0  0  0  0  0  0  0  0  0
   54.0571    6.5638   10.3715 C   0  0  0  0  0  0  0  0  0  0  0  0
   54.5070    5.4028    9.7627 C   0  0  0  0  0  0  0  0  0  0  0  0
   52.6817    8.3723    9.7347 O   0  0  0  0  0  0  0  0  0  0  0  0
   54.2484    4.4055    7.6405 O   0  0  0  0  0  0  0  0  0  0  0  0
   53.6286    7.4342    6.9395 C   0  0  0  0  0  0  0  0  0  0  0  0
   54.3839    6.8721   11.6796 C   0  0  0  0  0  0  0  0  0  0  0  0
   55.3062    4.4938   10.4323 C   0  0  0  0  0  0  0  0  0  0  0  0
   54.8567    7.2547    6.2848 C   0  0  0  0  0  0  0  0  0  0  0  0
   52.7860    8.4690    6.4961 C   0  0  0  0  0  0  0  0  0  0  0  0
   55.1919    5.9669   12.3742 C   0  0  0  0  0  0  0  0  0  0  0  0
   55.6493    4.7871   11.7555 C   0  0  0  0  0  0  0  0  0  0  0  0
   55.2253    8.0798    5.2184 C   0  0  0  0  0  0  0  0  0  0  0  0
   53.1567    9.2938    5.4325 C   0  0  0  0  0  0  0  0  0  0  0  0
   54.3768    9.0983    4.7928 C   0  0  0  0  0  0  0  0  0  0  0  0
   52.1463    6.2397    7.9542 H   0  0  0  0  0  0  0  0  0  0  0  0
   54.0253    7.7844   12.1470 H   0  0  0  0  0  0  0  0  0  0  0  0
   55.6532    3.5869    9.9461 H   0  0  0  0  0  0  0  0  0  0  0  0
   55.5470    6.4667    6.5777 H   0  0  0  0  0  0  0  0  0  0  0  0
   51.8313    8.6488    6.9893 H   0  0  0  0  0  0  0  0  0  0  0  0
   55.4716    6.1750   13.4058 H   0  0  0  0  0  0  0  0  0  0  0  0
   56.2775    4.0965   12.3159 H   0  0  0  0  0  0  0  0  0  0  0  0
   56.1773    7.9232    4.7173 H   0  0  0  0  0  0  0  0  0  0  0  0
   52.4929   10.0907    5.1075 H   0  0  0  0  0  0  0  0  0  0  0  0
   54.6663    9.7386    3.9640 H   0  0  0  0  0  0  0  0  0  0  0  0
  2  3  1  0
  3  1  1  0
  4  1  1  0
  5  4  2  0
  6  1  2  0
  7  2  2  0
  8  3  1  0
  9  4  1  0
 10  5  1  0
 11  8  2  0
 12  8  1  0
 13  9  2  0
 14 13  1  0
 15 11  1  0
 16 12  2  0
 17 16  1  0
  5  2  1  0
 14 10  2  0
 17 15  2  0
  3 18  1  0
  9 19  1  0
 10 20  1  0
 11 21  1  0
 12 22  1  0
 13 23  1  0
 14 24  1  0
 15 25  1  0
 16 26  1  0
 17 27  1  0
M  END
> <Uni-Dock RESULT> 
ENERGY=   -3.802  LOWER_BOUND=    8.882  UPPER_BOUND=   10.602
INTER + INTRA:          -3.802
INTER:                  -3.802
INTRA:                   0.000
UNBOUND:                 0.000

$$$$

     RDKit          3D

 27 29  0  0  0  0  0  0  0  0999 V2000
   45.2308   11.5339   11.3028 C   0  0  0  0  0  0  0  0  0  0  0  0
   43.6119    9.8271   10.9466 C   0  0  0  0  0  0  0  0  0  0  0  0
   43.8688   11.2998   10.6584 C   0  0  0  0  0  0  0  0  0  0  0  0
   45.7012   10.2759   11.8792 C   0  0  0  0  0  0  0  0  0  0  0  0
   44.7569    9.2824   11.6743 C   0  0  0  0  0  0  0  0  0  0  0  0
   45.8568   12.5768   11.3794 O   0  0  0  0  0  0  0  0  0  0  0  0
   42.6335    9.1623   10.6535 O   0  0  0  0  0  0  0  0  0  0  0  0
   43.8346   11.7104    9.2000 C   0  0  0  0  0  0  0  0  0  0  0  0
   46.8859   10.0259   12.5477 C   0  0  0  0  0  0  0  0  0  0  0  0
   44.9517    7.9900   12.1275 C   0  0  0  0  0  0  0  0  0  0  0  0
   43.8061   10.7887    8.1423 C   0  0  0  0  0  0  0  0  0  0  0  0
   43.8489   13.0808    8.8848 C   0  0  0  0  0  0  0  0  0  0  0  0
   47.1031    8.7257   13.0133 C   0  0  0  0  0  0  0  0  0  0  0  0
   46.1435    7.7157   12.8049 C   0  0  0  0  0  0  0  0  0  0  0  0
   43.7864   11.2249    6.8145 C   0  0  0  0  0  0  0  0  0  0  0  0
   43.8317   13.5149    7.5580 C   0  0  0  0  0  0  0  0  0  0  0  0
   43.7995   12.5861    6.5225 C   0  0  0  0  0  0  0  0  0  0  0  0
   43.1224   11.8659   11.2303 H   0  0  0  0  0  0  0  0  0  0  0  0
   47.6187   10.8122   12.7031 H   0  0  0  0  0  0  0  0  0  0  0  0
   44.2053    7.2189   11.9620 H   0  0  0  0  0  0  0  0  0  0  0  0
   43.7863    9.7163    8.3236 H   0  0  0  0  0  0  0  0  0  0  0  0
   43.8863   13.8261    9.6785 H   0  0  0  0  0  0  0  0  0  0  0  0
   48.0243    8.4894   13.5434 H   0  0  0  0  0  0  0  0  0  0  0  0
   46.3339    6.7102   13.1766 H   0  0  0  0  0  0  0  0  0  0  0  0
   43.7574   10.4978    6.0067 H   0  0  0  0  0  0  0  0  0  0  0  0
   43.8472   14.5786    7.3354 H   0  0  0  0  0  0  0  0  0  0  0  0
   43.7848   12.9223    5.4893 H   0  0  0  0  0  0  0  0  0  0  0  0
  2  3  1  0
  3  1  1  0
  4  1  1  0
  5  4  2  0
  6  1  2  0
  7  2  2  0
  8  3  1  0
  9  4  1  0
 10  5  1  0
 11  8  2  0
 12  8  1  0
 13  9  2  0
 14 13  1  0
 15 11  1  0
 16 12  2  0
 17 16  1  0
  5  2  1  0
 14 10  2  0
 17 15  2  0
  3 18  1  0
  9 19  1  0
 10 20  1  0
 11 21  1  0
 12 22  1  0
 13 23  1  0
 14 24  1  0
 15 25  1  0
 16 26  1  0
 17 27  1  0
M  END
> <Uni-Dock RESULT> 
ENERGY=   -3.773  LOWER_BOUND=    6.383  UPPER_BOUND=    8.841
INTER + INTRA:          -3.773
INTER:                  -3.773
INTRA:                   0.000
UNBOUND:                 0.000

$$$$

     RDKit          3D

 27 29  0  0  0  0  0  0  0  0999 V2000
   47.3946    4.4253   14.8968 C   0  0  0  0  0  0  0  0  0  0  0  0
   47.7893    6.2986   13.4840 C   0  0  0  0  0  0  0  0  0  0  0  0
   47.2120    4.8901   13.4560 C   0  0  0  0  0  0  0  0  0  0  0  0
   48.0025    5.5084   15.6672 C   0  0  0  0  0  0  0  0  0  0  0  0
   48.2352    6.5985   14.8437 C   0  0  0  0  0  0  0  0  0  0  0  0
   47.1241    3.3378   15.3758 O   0  0  0  0  0  0  0  0  0  0  0  0
   47.8966    7.0865   12.5606 O   0  0  0  0  0  0  0  0  0  0  0  0
   45.7787    4.7655   12.9797 C   0  0  0  0  0  0  0  0  0  0  0  0
   48.3348    5.5277   17.0097 C   0  0  0  0  0  0  0  0  0  0  0  0
   48.8109    7.7615   15.3227 C   0  0  0  0  0  0  0  0  0  0  0  0
   44.9320    5.8688   12.7931 C   0  0  0  0  0  0  0  0  0  0  0  0
   45.2614    3.4826   12.7266 C   0  0  0  0  0  0  0  0  0  0  0  0
   48.9170    6.6942   17.5144 C   0  0  0  0  0  0  0  0  0  0  0  0
   49.1533    7.8023   16.6775 C   0  0  0  0  0  0  0  0  0  0  0  0
   43.6140    5.6934   12.3620 C   0  0  0  0  0  0  0  0  0  0  0  0
   43.9440    3.3088   12.2984 C   0  0  0  0  0  0  0  0  0  0  0  0
   43.1203    4.4152   12.1152 C   0  0  0  0  0  0  0  0  0  0  0  0
   47.8772    4.2913   12.8207 H   0  0  0  0  0  0  0  0  0  0  0  0
   48.1485    4.6674   17.6458 H   0  0  0  0  0  0  0  0  0  0  0  0
   48.9891    8.6100   14.6688 H   0  0  0  0  0  0  0  0  0  0  0  0
   45.2775    6.8858   12.9656 H   0  0  0  0  0  0  0  0  0  0  0  0
   45.8839    2.6008   12.8747 H   0  0  0  0  0  0  0  0  0  0  0  0
   49.1917    6.7482   18.5667 H   0  0  0  0  0  0  0  0  0  0  0  0
   49.6081    8.7004   17.0924 H   0  0  0  0  0  0  0  0  0  0  0  0
   42.9730    6.5592   12.2157 H   0  0  0  0  0  0  0  0  0  0  0  0
   43.5620    2.3085   12.1121 H   0  0  0  0  0  0  0  0  0  0  0  0
   42.0951    4.2818   11.7807 H   0  0  0  0  0  0  0  0  0  0  0  0
  2  3  1  0
  3  1  1  0
  4  1  1  0
  5  4  2  0
  6  1  2  0
  7  2  2  0
  8  3  1  0
  9  4  1  0
 10  5  1  0
 11  8  2  0
 12  8  1  0
 13  9  2  0
 14 13  1  0
 15 11  1  0
 16 12  2  0
 17 16  1  0
  5  2  1  0
 14 10  2  0
 17 15  2  0
  3 18  1  0
  9 19  1  0
 10 20  1  0
 11 21  1  0
 12 22  1  0
 13 23  1  0
 14 24  1  0
 15 25  1  0
 16 26  1  0
 17 27  1  0
M  END
> <Uni-Dock RESULT> 
ENERGY=   -3.755  LOWER_BOUND=    4.455  UPPER_BOUND=    6.994
INTER + INTRA:          -3.755
INTER:                  -3.755
INTRA:                   0.000
UNBOUND:                 0.000

$$$$

     RDKit          3D

 27 29  0  0  0  0  0  0  0  0999 V2000
   51.9122    4.7645   20.1023 C   0  0  0  0  0  0  0  0  0  0  0  0
   50.2998    4.6441   18.3567 C   0  0  0  0  0  0  0  0  0  0  0  0
   51.7930    4.4851   18.6079 C   0  0  0  0  0  0  0  0  0  0  0  0
   50.5792    5.0307   20.6390 C   0  0  0  0  0  0  0  0  0  0  0  0
   49.6403    4.9635   19.6218 C   0  0  0  0  0  0  0  0  0  0  0  0
   52.9232    4.8008   20.7818 O   0  0  0  0  0  0  0  0  0  0  0  0
   49.6992    4.5432   17.3012 O   0  0  0  0  0  0  0  0  0  0  0  0
   52.3982    3.1530   18.2130 C   0  0  0  0  0  0  0  0  0  0  0  0
   50.2188    5.3198   21.9427 C   0  0  0  0  0  0  0  0  0  0  0  0
   48.2950    5.1816   19.8588 C   0  0  0  0  0  0  0  0  0  0  0  0
   51.6290    2.0346   17.8570 C   0  0  0  0  0  0  0  0  0  0  0  0
   53.7981    3.0204   18.2180 C   0  0  0  0  0  0  0  0  0  0  0  0
   48.8637    5.5428   22.2041 C   0  0  0  0  0  0  0  0  0  0  0  0
   47.9093    5.4743   21.1703 C   0  0  0  0  0  0  0  0  0  0  0  0
   52.2416    0.8265   17.5118 C   0  0  0  0  0  0  0  0  0  0  0  0
   54.4084    1.8124   17.8753 C   0  0  0  0  0  0  0  0  0  0  0  0
   53.6294    0.7152   17.5212 C   0  0  0  0  0  0  0  0  0  0  0  0
   52.2901    5.3028   18.0704 H   0  0  0  0  0  0  0  0  0  0  0  0
   50.9631    5.3705   22.7320 H   0  0  0  0  0  0  0  0  0  0  0  0
   47.5674    5.1268   19.0546 H   0  0  0  0  0  0  0  0  0  0  0  0
   50.5425    2.0782   17.8277 H   0  0  0  0  0  0  0  0  0  0  0  0
   54.4281    3.8621   18.5034 H   0  0  0  0  0  0  0  0  0  0  0  0
   48.5406    5.7723   23.2183 H   0  0  0  0  0  0  0  0  0  0  0  0
   46.8593    5.6518   21.3972 H   0  0  0  0  0  0  0  0  0  0  0  0
   51.6315   -0.0286   17.2318 H   0  0  0  0  0  0  0  0  0  0  0  0
   55.4920    1.7293   17.8892 H   0  0  0  0  0  0  0  0  0  0  0  0
   54.1028   -0.2254   17.2530 H   0  0  0  0  0  0  0  0  0  0  0  0
  2  3  1  0
  3  1  1  0
  4  1  1  0
  5  4  2  0
  6  1  2  0
  7  2  2  0
  8  3  1  0
  9  4  1  0
 10  5  1  0
 11  8  2  0
 12  8  1  0
 13  9  2  0
 14 13  1  0
 15 11  1  0
 16 12  2  0
 17 16  1  0
  5  2  1  0
 14 10  2  0
 17 15  2  0
  3 18  1  0
  9 19  1  0
 10 20  1  0
 11 21  1  0
 12 22  1  0
 13 23  1  0
 14 24  1  0
 15 25  1  0
 16 26  1  0
 17 27  1  0
M  END
> <Uni-Dock RESULT> 
ENERGY=   -3.699  LOWER_BOUND=   10.309  UPPER_BOUND=   12.599
INTER + INTRA:          -3.699
INTER:                  -3.699
INTRA:                   0.000
UNBOUND:                 0.000

$$$$

     RDKit          3D

 27 29  0  0  0  0  0  0  0  0999 V2000
   43.9293   10.7180   11.0765 C   0  0  0  0  0  0  0  0  0  0  0  0
   43.6533   11.0923    8.7431 C   0  0  0  0  0  0  0  0  0  0  0  0
   42.9754   10.4148    9.9261 C   0  0  0  0  0  0  0  0  0  0  0  0
   45.0364   11.5261   10.5694 C   0  0  0  0  0  0  0  0  0  0  0  0
   44.8773   11.7417    9.2096 C   0  0  0  0  0  0  0  0  0  0  0  0
   43.8484   10.3523   12.2363 O   0  0  0  0  0  0  0  0  0  0  0  0
   43.2902   11.1164    7.5801 O   0  0  0  0  0  0  0  0  0  0  0  0
   41.5527   10.8477   10.2178 C   0  0  0  0  0  0  0  0  0  0  0  0
   46.1192   12.0341   11.2639 C   0  0  0  0  0  0  0  0  0  0  0  0
   45.7931   12.4763    8.4781 C   0  0  0  0  0  0  0  0  0  0  0  0
   40.9481   11.9599    9.6122 C   0  0  0  0  0  0  0  0  0  0  0  0
   40.8024   10.1126   11.1529 C   0  0  0  0  0  0  0  0  0  0  0  0
   47.0564   12.7806   10.5435 C   0  0  0  0  0  0  0  0  0  0  0  0
   46.8946   12.9999    9.1615 C   0  0  0  0  0  0  0  0  0  0  0  0
   39.6348   12.3196    9.9279 C   0  0  0  0  0  0  0  0  0  0  0  0
   39.4917   10.4747   11.4690 C   0  0  0  0  0  0  0  0  0  0  0  0
   38.9075   11.5784   10.8552 C   0  0  0  0  0  0  0  0  0  0  0  0
   43.0121    9.3351    9.7321 H   0  0  0  0  0  0  0  0  0  0  0  0
   46.2343   11.8585   12.3294 H   0  0  0  0  0  0  0  0  0  0  0  0
   45.6592   12.6392    7.4129 H   0  0  0  0  0  0  0  0  0  0  0  0
   41.4754   12.5626    8.8760 H   0  0  0  0  0  0  0  0  0  0  0  0
   41.2430    9.2520   11.6550 H   0  0  0  0  0  0  0  0  0  0  0  0
   47.9221   13.1979   11.0553 H   0  0  0  0  0  0  0  0  0  0  0  0
   47.6373   13.5842    8.6207 H   0  0  0  0  0  0  0  0  0  0  0  0
   39.1787   13.1800    9.4447 H   0  0  0  0  0  0  0  0  0  0  0  0
   38.9300    9.8957   12.1974 H   0  0  0  0  0  0  0  0  0  0  0  0
   37.8870   11.8608   11.0992 H   0  0  0  0  0  0  0  0  0  0  0  0
  2  3  1  0
  3  1  1  0
  4  1  1  0
  5  4  2  0
  6  1  2  0
  7  2  2  0
  8  3  1  0
  9  4  1  0
 10  5  1  0
 11  8  2  0
 12  8  1  0
 13  9  2  0
 14 13  1  0
 15 11  1  0
 16 12  2  0
 17 16  1  0
  5  2  1  0
 14 10  2  0
 17 15  2  0
  3 18  1  0
  9 19  1  0
 10 20  1  0
 11 21  1  0
 12 22  1  0
 13 23  1  0
 14 24  1  0
 15 25  1  0
 16 26  1  0
 17 27  1  0
M  END
> <Uni-Dock RESULT> 
ENERGY=   -3.460  LOWER_BOUND=    8.016  UPPER_BOUND=    9.030
INTER + INTRA:          -3.460
INTER:                  -3.460
INTRA:                   0.000
UNBOUND:                 0.000

$$$$
