
     RDKit          3D

 27 29  0  0  0  0  0  0  0  0999 V2000
   44.7444    2.2274    9.1164 C   0  0  0  0  0  0  0  0  0  0  0  0
   45.5090    4.3658    8.4065 C   0  0  0  0  0  0  0  0  0  0  0  0
   44.4834    3.7154    9.3247 C   0  0  0  0  0  0  0  0  0  0  0  0
   45.8505    2.0711    8.1742 C   0  0  0  0  0  0  0  0  0  0  0  0
   46.2939    3.3166    7.7582 C   0  0  0  0  0  0  0  0  0  0  0  0
   44.1467    1.2840    9.6044 O   0  0  0  0  0  0  0  0  0  0  0  0
   45.6874    5.5533    8.1988 O   0  0  0  0  0  0  0  0  0  0  0  0
   44.5423    4.1199   10.7840 C   0  0  0  0  0  0  0  0  0  0  0  0
   46.4252    0.9023    7.7086 C   0  0  0  0  0  0  0  0  0  0  0  0
   47.3343    3.4539    6.8570 C   0  0  0  0  0  0  0  0  0  0  0  0
   43.4956    3.7249   11.6360 C   0  0  0  0  0  0  0  0  0  0  0  0
   45.6011    4.8577   11.3350 C   0  0  0  0  0  0  0  0  0  0  0  0
   47.4790    1.0188    6.7974 C   0  0  0  0  0  0  0  0  0  0  0  0
   47.9300    2.2846    6.3748 C   0  0  0  0  0  0  0  0  0  0  0  0
   43.5055    4.0590   12.9915 C   0  0  0  0  0  0  0  0  0  0  0  0
   45.6082    5.1936   12.6918 C   0  0  0  0  0  0  0  0  0  0  0  0
   44.5620    4.7947   13.5192 C   0  0  0  0  0  0  0  0  0  0  0  0
   43.4958    3.9473    8.9055 H   0  0  0  0  0  0  0  0  0  0  0  0
   46.0693   -0.0685    8.0409 H   0  0  0  0  0  0  0  0  0  0  0  0
   47.6739    4.4346    6.5373 H   0  0  0  0  0  0  0  0  0  0  0  0
   42.6639    3.1380   11.2479 H   0  0  0  0  0  0  0  0  0  0  0  0
   46.4350    5.1976   10.7245 H   0  0  0  0  0  0  0  0  0  0  0  0
   47.9578    0.1214    6.4089 H   0  0  0  0  0  0  0  0  0  0  0  0
   48.7523    2.3512    5.6642 H   0  0  0  0  0  0  0  0  0  0  0  0
   42.6888    3.7408   13.6341 H   0  0  0  0  0  0  0  0  0  0  0  0
   46.4327    5.7717   13.1015 H   0  0  0  0  0  0  0  0  0  0  0  0
   44.5705    5.0567   14.5737 H   0  0  0  0  0  0  0  0  0  0  0  0
  2  3  1  0
  3  1  1  0
  4  1  1  0
  5  4  2  0
  6  1  2  0
  7  2  2  0
  8  3  1  0
  9  4  1  0
 10  5  1  0
 11  8  2  0
 12  8  1  0
 13  9  2  0
 14 13  1  0
 15 11  1  0
 16 12  2  0
 17 16  1  0
  5  2  1  0
 14 10  2  0
 17 15  2  0
  3 18  1  0
  9 19  1  0
 10 20  1  0
 11 21  1  0
 12 22  1  0
 13 23  1  0
 14 24  1  0
 15 25  1  0
 16 26  1  0
 17 27  1  0
M  END
> <Uni-Dock RESULT> 
ENERGY=   -5.876  LOWER_BOUND=    0.000  UPPER_BOUND=    0.000
INTER + INTRA:          -5.876
INTER:                  -5.876
INTRA:                   0.000
UNBOUND:                 0.000

$$$$

     RDKit          3D

 27 29  0  0  0  0  0  0  0  0999 V2000
   46.4406    5.2335   13.5774 C   0  0  0  0  0  0  0  0  0  0  0  0
   45.5335    6.9287   12.1757 C   0  0  0  0  0  0  0  0  0  0  0  0
   46.5089    6.7365   13.3287 C   0  0  0  0  0  0  0  0  0  0  0  0
   45.5166    4.6387   12.6140 C   0  0  0  0  0  0  0  0  0  0  0  0
   44.9857    5.6265   11.7995 C   0  0  0  0  0  0  0  0  0  0  0  0
   47.0149    4.5869   14.4361 O   0  0  0  0  0  0  0  0  0  0  0  0
   45.2157    7.9677   11.6238 O   0  0  0  0  0  0  0  0  0  0  0  0
   47.9240    7.2259   13.0947 C   0  0  0  0  0  0  0  0  0  0  0  0
   45.1620    3.3096   12.4698 C   0  0  0  0  0  0  0  0  0  0  0  0
   44.0752    5.3330   10.8004 C   0  0  0  0  0  0  0  0  0  0  0  0
   48.8097    7.2749   14.1858 C   0  0  0  0  0  0  0  0  0  0  0  0
   48.4032    7.6187   11.8356 C   0  0  0  0  0  0  0  0  0  0  0  0
   44.2434    2.9912   11.4652 C   0  0  0  0  0  0  0  0  0  0  0  0
   43.7042    3.9950   10.6371 C   0  0  0  0  0  0  0  0  0  0  0  0
   50.1280    7.7051   14.0245 C   0  0  0  0  0  0  0  0  0  0  0  0
   49.7226    8.0516   11.6762 C   0  0  0  0  0  0  0  0  0  0  0  0
   50.5841    8.0946   12.7690 C   0  0  0  0  0  0  0  0  0  0  0  0
   46.0704    7.2433   14.1980 H   0  0  0  0  0  0  0  0  0  0  0  0
   45.5838    2.5438   13.1141 H   0  0  0  0  0  0  0  0  0  0  0  0
   43.6650    6.1146   10.1678 H   0  0  0  0  0  0  0  0  0  0  0  0
   48.4786    6.9634   15.1759 H   0  0  0  0  0  0  0  0  0  0  0  0
   47.7631    7.6094   10.9559 H   0  0  0  0  0  0  0  0  0  0  0  0
   43.9403    1.9556   11.3200 H   0  0  0  0  0  0  0  0  0  0  0  0
   42.9901    3.7238    9.8611 H   0  0  0  0  0  0  0  0  0  0  0  0
   50.7980    7.7320   14.8799 H   0  0  0  0  0  0  0  0  0  0  0  0
   50.0761    8.3591   10.6952 H   0  0  0  0  0  0  0  0  0  0  0  0
   51.6095    8.4309   12.6420 H   0  0  0  0  0  0  0  0  0  0  0  0
  2  3  1  0
  3  1  1  0
  4  1  1  0
  5  4  2  0
  6  1  2  0
  7  2  2  0
  8  3  1  0
  9  4  1  0
 10  5  1  0
 11  8  2  0
 12  8  1  0
 13  9  2  0
 14 13  1  0
 15 11  1  0
 16 12  2  0
 17 16  1  0
  5  2  1  0
 14 10  2  0
 17 15  2  0
  3 18  1  0
  9 19  1  0
 10 20  1  0
 11 21  1  0
 12 22  1  0
 13 23  1  0
 14 24  1  0
 15 25  1  0
 16 26  1  0
 17 27  1  0
M  END
> <Uni-Dock RESULT> 
ENERGY=   -4.267  LOWER_BOUND=    3.772  UPPER_BOUND=    5.679
INTER + INTRA:          -4.267
INTER:                  -4.267
INTRA:                   0.000
UNBOUND:                 0.000

$$$$

     RDKit          3D

 27 29  0  0  0  0  0  0  0  0999 V2000
   43.0607    9.2895   11.0274 C   0  0  0  0  0  0  0  0  0  0  0  0
   43.6241   11.5935   10.8394 C   0  0  0  0  0  0  0  0  0  0  0  0
   42.4727   10.6281   10.5940 C   0  0  0  0  0  0  0  0  0  0  0  0
   44.4256    9.5068   11.5023 C   0  0  0  0  0  0  0  0  0  0  0  0
   44.7550   10.8484   11.3899 C   0  0  0  0  0  0  0  0  0  0  0  0
   42.5383    8.1892   10.9826 O   0  0  0  0  0  0  0  0  0  0  0  0
   43.6597   12.7926   10.6251 O   0  0  0  0  0  0  0  0  0  0  0  0
   41.1703   10.9494   11.2990 C   0  0  0  0  0  0  0  0  0  0  0  0
   45.3226    8.5772   11.9967 C   0  0  0  0  0  0  0  0  0  0  0  0
   45.9972   11.3258   11.7674 C   0  0  0  0  0  0  0  0  0  0  0  0
   40.0167   10.2263   10.9470 C   0  0  0  0  0  0  0  0  0  0  0  0
   41.0592   11.9247   12.3018 C   0  0  0  0  0  0  0  0  0  0  0  0
   46.5838    9.0391   12.3848 C   0  0  0  0  0  0  0  0  0  0  0  0
   46.9184   10.4026   12.2710 C   0  0  0  0  0  0  0  0  0  0  0  0
   38.7936   10.4722   11.5735 C   0  0  0  0  0  0  0  0  0  0  0  0
   39.8333   12.1715   12.9262 C   0  0  0  0  0  0  0  0  0  0  0  0
   38.7019   11.4461   12.5629 C   0  0  0  0  0  0  0  0  0  0  0  0
   42.3186   10.5938    9.5078 H   0  0  0  0  0  0  0  0  0  0  0  0
   45.0541    7.5282   12.0798 H   0  0  0  0  0  0  0  0  0  0  0  0
   46.2453   12.3790   11.6750 H   0  0  0  0  0  0  0  0  0  0  0  0
   40.0669    9.4506   10.1837 H   0  0  0  0  0  0  0  0  0  0  0  0
   41.9148   12.5211   12.6115 H   0  0  0  0  0  0  0  0  0  0  0  0
   47.3169    8.3378   12.7799 H   0  0  0  0  0  0  0  0  0  0  0  0
   47.9068   10.7398   12.5793 H   0  0  0  0  0  0  0  0  0  0  0  0
   37.9144    9.8995   11.2897 H   0  0  0  0  0  0  0  0  0  0  0  0
   39.7628   12.9354   13.6965 H   0  0  0  0  0  0  0  0  0  0  0  0
   37.7503   11.6396   13.0506 H   0  0  0  0  0  0  0  0  0  0  0  0
  2  3  1  0
  3  1  1  0
  4  1  1  0
  5  4  2  0
  6  1  2  0
  7  2  2  0
  8  3  1  0
  9  4  1  0
 10  5  1  0
 11  8  2  0
 12  8  1  0
 13  9  2  0
 14 13  1  0
 15 11  1  0
 16 12  2  0
 17 16  1  0
  5  2  1  0
 14 10  2  0
 17 15  2  0
  3 18  1  0
  9 19  1  0
 10 20  1  0
 11 21  1  0
 12 22  1  0
 13 23  1  0
 14 24  1  0
 15 25  1  0
 16 26  1  0
 17 27  1  0
M  END
> <Uni-Dock RESULT> 
ENERGY=   -4.125  LOWER_BOUND=    6.642  UPPER_BOUND=    8.411
INTER + INTRA:          -4.125
INTER:                  -4.125
INTRA:                   0.000
UNBOUND:                 0.000

$$$$

     RDKit          3D

 27 29  0  0  0  0  0  0  0  0999 V2000
   48.4339    8.1532   17.3549 C   0  0  0  0  0  0  0  0  0  0  0  0
   48.6869   10.3034   16.3679 C   0  0  0  0  0  0  0  0  0  0  0  0
   48.9551    8.8304   16.0919 C   0  0  0  0  0  0  0  0  0  0  0  0
   47.8934    9.1758   18.2482 C   0  0  0  0  0  0  0  0  0  0  0  0
   48.0436   10.4287   17.6748 C   0  0  0  0  0  0  0  0  0  0  0  0
   48.4613    6.9682   17.6384 O   0  0  0  0  0  0  0  0  0  0  0  0
   48.9491   11.2615   15.6620 O   0  0  0  0  0  0  0  0  0  0  0  0
   48.3376    8.2647   14.8288 C   0  0  0  0  0  0  0  0  0  0  0  0
   47.3114    9.0109   19.4921 C   0  0  0  0  0  0  0  0  0  0  0  0
   47.6181   11.5775   18.3169 C   0  0  0  0  0  0  0  0  0  0  0  0
   48.7225    6.9795   14.4072 C   0  0  0  0  0  0  0  0  0  0  0  0
   47.3844    8.9540   14.0637 C   0  0  0  0  0  0  0  0  0  0  0  0
   46.8736   10.1596   20.1580 C   0  0  0  0  0  0  0  0  0  0  0  0
   47.0258   11.4328   19.5750 C   0  0  0  0  0  0  0  0  0  0  0  0
   48.1758    6.4048   13.2583 C   0  0  0  0  0  0  0  0  0  0  0  0
   46.8399    8.3782   12.9123 C   0  0  0  0  0  0  0  0  0  0  0  0
   47.2347    7.1052   12.5101 C   0  0  0  0  0  0  0  0  0  0  0  0
   50.0458    8.7093   16.0689 H   0  0  0  0  0  0  0  0  0  0  0  0
   47.1993    8.0245   19.9322 H   0  0  0  0  0  0  0  0  0  0  0  0
   47.7408   12.5545   17.8589 H   0  0  0  0  0  0  0  0  0  0  0  0
   49.4485    6.4074   14.9836 H   0  0  0  0  0  0  0  0  0  0  0  0
   47.0530    9.9540   14.3355 H   0  0  0  0  0  0  0  0  0  0  0  0
   46.4092   10.0705   21.1387 H   0  0  0  0  0  0  0  0  0  0  0  0
   46.6775   12.3137   20.1121 H   0  0  0  0  0  0  0  0  0  0  0  0
   48.4836    5.4086   12.9515 H   0  0  0  0  0  0  0  0  0  0  0  0
   46.1075    8.9285   12.3269 H   0  0  0  0  0  0  0  0  0  0  0  0
   46.8092    6.6597   11.6150 H   0  0  0  0  0  0  0  0  0  0  0  0
  2  3  1  0
  3  1  1  0
  4  1  1  0
  5  4  2  0
  6  1  2  0
  7  2  2  0
  8  3  1  0
  9  4  1  0
 10  5  1  0
 11  8  2  0
 12  8  1  0
 13  9  2  0
 14 13  1  0
 15 11  1  0
 16 12  2  0
 17 16  1  0
  5  2  1  0
 14 10  2  0
 17 15  2  0
  3 18  1  0
  9 19  1  0
 10 20  1  0
 11 21  1  0
 12 22  1  0
 13 23  1  0
 14 24  1  0
 15 25  1  0
 16 26  1  0
 17 27  1  0
M  END
> <Uni-Dock RESULT> 
ENERGY=   -3.807  LOWER_BOUND=    6.931  UPPER_BOUND=   10.675
INTER + INTRA:          -3.807
INTER:                  -3.807
INTRA:                   0.000
UNBOUND:                 0.000

$$$$

     RDKit          3D

 27 29  0  0  0  0  0  0  0  0999 V2000
   55.3609    6.3644    6.6693 C   0  0  0  0  0  0  0  0  0  0  0  0
   53.0640    6.5403    7.2648 C   0  0  0  0  0  0  0  0  0  0  0  0
   54.2564    5.6025    7.3939 C   0  0  0  0  0  0  0  0  0  0  0  0
   54.8230    7.6396    6.2001 C   0  0  0  0  0  0  0  0  0  0  0  0
   53.4842    7.7409    6.5442 C   0  0  0  0  0  0  0  0  0  0  0  0
   56.5080    6.0086    6.4620 O   0  0  0  0  0  0  0  0  0  0  0  0
   51.9257    6.3703    7.6656 O   0  0  0  0  0  0  0  0  0  0  0  0
   54.6468    5.2094    8.8045 C   0  0  0  0  0  0  0  0  0  0  0  0
   55.4734    8.6448    5.5074 C   0  0  0  0  0  0  0  0  0  0  0  0
   52.7309    8.8526    6.2130 C   0  0  0  0  0  0  0  0  0  0  0  0
   55.5937    4.1849    8.9814 C   0  0  0  0  0  0  0  0  0  0  0  0
   54.1218    5.8297    9.9485 C   0  0  0  0  0  0  0  0  0  0  0  0
   54.7301    9.7779    5.1636 C   0  0  0  0  0  0  0  0  0  0  0  0
   53.3696    9.8810    5.5135 C   0  0  0  0  0  0  0  0  0  0  0  0
   55.9992    3.7917   10.2581 C   0  0  0  0  0  0  0  0  0  0  0  0
   54.5269    5.4330   11.2262 C   0  0  0  0  0  0  0  0  0  0  0  0
   55.4645    4.4156   11.3810 C   0  0  0  0  0  0  0  0  0  0  0  0
   54.0179    4.7090    6.8026 H   0  0  0  0  0  0  0  0  0  0  0  0
   56.5227    8.5547    5.2424 H   0  0  0  0  0  0  0  0  0  0  0  0
   51.6824    8.9219    6.4872 H   0  0  0  0  0  0  0  0  0  0  0  0
   56.0350    3.6903    8.1169 H   0  0  0  0  0  0  0  0  0  0  0  0
   53.3808    6.6229    9.8753 H   0  0  0  0  0  0  0  0  0  0  0  0
   55.2072   10.5910    4.6189 H   0  0  0  0  0  0  0  0  0  0  0  0
   52.8103   10.7727    5.2352 H   0  0  0  0  0  0  0  0  0  0  0  0
   56.7352    3.0003   10.3733 H   0  0  0  0  0  0  0  0  0  0  0  0
   54.1053    5.9192   12.1024 H   0  0  0  0  0  0  0  0  0  0  0  0
   55.7781    4.1098   12.3754 H   0  0  0  0  0  0  0  0  0  0  0  0
  2  3  1  0
  3  1  1  0
  4  1  1  0
  5  4  2  0
  6  1  2  0
  7  2  2  0
  8  3  1  0
  9  4  1  0
 10  5  1  0
 11  8  2  0
 12  8  1  0
 13  9  2  0
 14 13  1  0
 15 11  1  0
 16 12  2  0
 17 16  1  0
  5  2  1  0
 14 10  2  0
 17 15  2  0
  3 18  1  0
  9 19  1  0
 10 20  1  0
 11 21  1  0
 12 22  1  0
 13 23  1  0
 14 24  1  0
 15 25  1  0
 16 26  1  0
 17 27  1  0
M  END
> <Uni-Dock RESULT> 
ENERGY=   -3.796  LOWER_BOUND=    8.813  UPPER_BOUND=   10.419
INTER + INTRA:          -3.796
INTER:                  -3.796
INTRA:                   0.000
UNBOUND:                 0.000

$$$$

     RDKit          3D

 27 29  0  0  0  0  0  0  0  0999 V2000
   45.1892   11.5510   11.3022 C   0  0  0  0  0  0  0  0  0  0  0  0
   43.6084    9.8107   10.9361 C   0  0  0  0  0  0  0  0  0  0  0  0
   43.8348   11.2892   10.6521 C   0  0  0  0  0  0  0  0  0  0  0  0
   45.6842   10.3021   11.8775 C   0  0  0  0  0  0  0  0  0  0  0  0
   44.7620    9.2890   11.6671 C   0  0  0  0  0  0  0  0  0  0  0  0
   45.7924   12.6069   11.3834 O   0  0  0  0  0  0  0  0  0  0  0  0
   42.6456    9.1257   10.6379 O   0  0  0  0  0  0  0  0  0  0  0  0
   43.7972   11.7024    9.1945 C   0  0  0  0  0  0  0  0  0  0  0  0
   46.8714   10.0759   12.5501 C   0  0  0  0  0  0  0  0  0  0  0  0
   44.9828    8.0001   12.1182 C   0  0  0  0  0  0  0  0  0  0  0  0
   43.7834   13.0735    8.8824 C   0  0  0  0  0  0  0  0  0  0  0  0
   43.7925   10.7827    8.1347 C   0  0  0  0  0  0  0  0  0  0  0  0
   47.1146    8.7796   13.0138 C   0  0  0  0  0  0  0  0  0  0  0  0
   46.1776    7.7499   12.7996 C   0  0  0  0  0  0  0  0  0  0  0  0
   43.7619   13.5100    7.5565 C   0  0  0  0  0  0  0  0  0  0  0  0
   43.7684   11.2213    6.8077 C   0  0  0  0  0  0  0  0  0  0  0  0
   43.7534   12.5831    6.5188 C   0  0  0  0  0  0  0  0  0  0  0  0
   43.0743   11.8380   11.2224 H   0  0  0  0  0  0  0  0  0  0  0  0
   47.5866   10.8774   12.7100 H   0  0  0  0  0  0  0  0  0  0  0  0
   44.2536    7.2136   11.9482 H   0  0  0  0  0  0  0  0  0  0  0  0
   43.8019   13.8176    9.6779 H   0  0  0  0  0  0  0  0  0  0  0  0
   43.7951    9.7095    8.3137 H   0  0  0  0  0  0  0  0  0  0  0  0
   48.0386    8.5619   13.5469 H   0  0  0  0  0  0  0  0  0  0  0  0
   46.3880    6.7478   13.1698 H   0  0  0  0  0  0  0  0  0  0  0  0
   43.7554   14.5743    7.3362 H   0  0  0  0  0  0  0  0  0  0  0  0
   43.7580   10.4956    5.9984 H   0  0  0  0  0  0  0  0  0  0  0  0
   43.7354   12.9213    5.4863 H   0  0  0  0  0  0  0  0  0  0  0  0
  2  3  1  0
  3  1  1  0
  4  1  1  0
  5  4  2  0
  6  1  2  0
  7  2  2  0
  8  3  1  0
  9  4  1  0
 10  5  1  0
 11  8  2  0
 12  8  1  0
 13  9  2  0
 14 13  1  0
 15 11  1  0
 16 12  2  0
 17 16  1  0
  5  2  1  0
 14 10  2  0
 17 15  2  0
  3 18  1  0
  9 19  1  0
 10 20  1  0
 11 21  1  0
 12 22  1  0
 13 23  1  0
 14 24  1  0
 15 25  1  0
 16 26  1  0
 17 27  1  0
M  END
> <Uni-Dock RESULT> 
ENERGY=   -3.769  LOWER_BOUND=    6.392  UPPER_BOUND=    8.847
INTER + INTRA:          -3.769
INTER:                  -3.769
INTRA:                   0.000
UNBOUND:                 0.000

$$$$

     RDKit          3D

 27 29  0  0  0  0  0  0  0  0999 V2000
   51.0250    2.7289   17.7069 C   0  0  0  0  0  0  0  0  0  0  0  0
   50.8058    4.6227   19.1305 C   0  0  0  0  0  0  0  0  0  0  0  0
   51.8314    3.5977   18.6662 C   0  0  0  0  0  0  0  0  0  0  0  0
   49.6635    3.2539   17.6279 C   0  0  0  0  0  0  0  0  0  0  0  0
   49.5348    4.3552   18.4595 C   0  0  0  0  0  0  0  0  0  0  0  0
   51.3925    1.7369   17.1015 O   0  0  0  0  0  0  0  0  0  0  0  0
   50.9570    5.5299   19.9300 O   0  0  0  0  0  0  0  0  0  0  0  0
   53.0909    4.1533   18.0326 C   0  0  0  0  0  0  0  0  0  0  0  0
   48.6031    2.7849   16.8738 C   0  0  0  0  0  0  0  0  0  0  0  0
   48.3397    5.0416   18.5768 C   0  0  0  0  0  0  0  0  0  0  0  0
   54.1624    3.2777   17.7819 C   0  0  0  0  0  0  0  0  0  0  0  0
   53.2374    5.4999   17.6659 C   0  0  0  0  0  0  0  0  0  0  0  0
   47.3860    3.4650   16.9771 C   0  0  0  0  0  0  0  0  0  0  0  0
   47.2553    4.5844   17.8220 C   0  0  0  0  0  0  0  0  0  0  0  0
   55.3410    3.7334   17.1884 C   0  0  0  0  0  0  0  0  0  0  0  0
   54.4191    5.9550   17.0741 C   0  0  0  0  0  0  0  0  0  0  0  0
   55.4695    5.0731   16.8353 C   0  0  0  0  0  0  0  0  0  0  0  0
   52.0843    2.9879   19.5432 H   0  0  0  0  0  0  0  0  0  0  0  0
   48.7149    1.9206   16.2258 H   0  0  0  0  0  0  0  0  0  0  0  0
   48.2494    5.9033   19.2315 H   0  0  0  0  0  0  0  0  0  0  0  0
   54.0802    2.2222   18.0387 H   0  0  0  0  0  0  0  0  0  0  0  0
   52.4462    6.2257   17.8414 H   0  0  0  0  0  0  0  0  0  0  0  0
   46.5282    3.1265   16.3982 H   0  0  0  0  0  0  0  0  0  0  0  0
   46.2976    5.0986   17.8868 H   0  0  0  0  0  0  0  0  0  0  0  0
   56.1561    3.0398   16.9995 H   0  0  0  0  0  0  0  0  0  0  0  0
   54.5190    7.0029   16.8024 H   0  0  0  0  0  0  0  0  0  0  0  0
   56.3867    5.4296   16.3744 H   0  0  0  0  0  0  0  0  0  0  0  0
  2  3  1  0
  3  1  1  0
  4  1  1  0
  5  4  2  0
  6  1  2  0
  7  2  2  0
  8  3  1  0
  9  4  1  0
 10  5  1  0
 11  8  2  0
 12  8  1  0
 13  9  2  0
 14 13  1  0
 15 11  1  0
 16 12  2  0
 17 16  1  0
  5  2  1  0
 14 10  2  0
 17 15  2  0
  3 18  1  0
  9 19  1  0
 10 20  1  0
 11 21  1  0
 12 22  1  0
 13 23  1  0
 14 24  1  0
 15 25  1  0
 16 26  1  0
 17 27  1  0
M  END
> <Uni-Dock RESULT> 
ENERGY=   -3.647  LOWER_BOUND=    8.724  UPPER_BOUND=   11.232
INTER + INTRA:          -3.647
INTER:                  -3.647
INTRA:                   0.000
UNBOUND:                 0.000

$$$$

     RDKit          3D

 27 29  0  0  0  0  0  0  0  0999 V2000
   45.6212    7.7537   11.9389 C   0  0  0  0  0  0  0  0  0  0  0  0
   46.9909    5.9999   12.7812 C   0  0  0  0  0  0  0  0  0  0  0  0
   47.0714    7.4387   12.2900 C   0  0  0  0  0  0  0  0  0  0  0  0
   44.7992    6.5837   12.2407 C   0  0  0  0  0  0  0  0  0  0  0  0
   45.5975    5.5609   12.7285 C   0  0  0  0  0  0  0  0  0  0  0  0
   45.1696    8.7792   11.4596 O   0  0  0  0  0  0  0  0  0  0  0  0
   47.9000    5.2815   13.1587 O   0  0  0  0  0  0  0  0  0  0  0  0
   47.6693    8.4415   13.2562 C   0  0  0  0  0  0  0  0  0  0  0  0
   43.4331    6.4296   12.0884 C   0  0  0  0  0  0  0  0  0  0  0  0
   45.0682    4.3347   13.0884 C   0  0  0  0  0  0  0  0  0  0  0  0
   47.9686    9.7333   12.7879 C   0  0  0  0  0  0  0  0  0  0  0  0
   47.9252    8.1511   14.6050 C   0  0  0  0  0  0  0  0  0  0  0  0
   42.8778    5.1979   12.4473 C   0  0  0  0  0  0  0  0  0  0  0  0
   43.6889    4.1586   12.9433 C   0  0  0  0  0  0  0  0  0  0  0  0
   48.5085   10.7002   13.6379 C   0  0  0  0  0  0  0  0  0  0  0  0
   48.4683    9.1196   15.4541 C   0  0  0  0  0  0  0  0  0  0  0  0
   48.7593   10.3926   14.9715 C   0  0  0  0  0  0  0  0  0  0  0  0
   47.6487    7.4194   11.3566 H   0  0  0  0  0  0  0  0  0  0  0  0
   42.8173    7.2376   11.7046 H   0  0  0  0  0  0  0  0  0  0  0  0
   45.7025    3.5398   13.4693 H   0  0  0  0  0  0  0  0  0  0  0  0
   47.7696   10.0009   11.7508 H   0  0  0  0  0  0  0  0  0  0  0  0
   47.7215    7.1675   15.0229 H   0  0  0  0  0  0  0  0  0  0  0  0
   41.8058    5.0386   12.3427 H   0  0  0  0  0  0  0  0  0  0  0  0
   43.2346    3.2075   13.2164 H   0  0  0  0  0  0  0  0  0  0  0  0
   48.7292   11.6941   13.2574 H   0  0  0  0  0  0  0  0  0  0  0  0
   48.6670    8.8762   16.4948 H   0  0  0  0  0  0  0  0  0  0  0  0
   49.1807   11.1437   15.6341 H   0  0  0  0  0  0  0  0  0  0  0  0
  2  3  1  0
  3  1  1  0
  4  1  1  0
  5  4  2  0
  6  1  2  0
  7  2  2  0
  8  3  1  0
  9  4  1  0
 10  5  1  0
 11  8  2  0
 12  8  1  0
 13  9  2  0
 14 13  1  0
 15 11  1  0
 16 12  2  0
 17 16  1  0
  5  2  1  0
 14 10  2  0
 17 15  2  0
  3 18  1  0
  9 19  1  0
 10 20  1  0
 11 21  1  0
 12 22  1  0
 13 23  1  0
 14 24  1  0
 15 25  1  0
 16 26  1  0
 17 27  1  0
M  END
> <Uni-Dock RESULT> 
ENERGY=   -3.523  LOWER_BOUND=    4.757  UPPER_BOUND=    6.688
INTER + INTRA:          -3.523
INTER:                  -3.523
INTRA:                   0.000
UNBOUND:                 0.000

$$$$

     RDKit          3D

 27 29  0  0  0  0  0  0  0  0999 V2000
   47.5698    8.8722   13.5394 C   0  0  0  0  0  0  0  0  0  0  0  0
   48.6028    7.1020   14.7478 C   0  0  0  0  0  0  0  0  0  0  0  0
   48.6885    8.6079   14.5414 C   0  0  0  0  0  0  0  0  0  0  0  0
   46.9001    7.6088   13.2378 C   0  0  0  0  0  0  0  0  0  0  0  0
   47.5037    6.5771   13.9392 C   0  0  0  0  0  0  0  0  0  0  0  0
   47.2585    9.9311   13.0224 O   0  0  0  0  0  0  0  0  0  0  0  0
   49.3081    6.3968   15.4481 O   0  0  0  0  0  0  0  0  0  0  0  0
   48.5688    9.4605   15.7886 C   0  0  0  0  0  0  0  0  0  0  0  0
   45.8289    7.3835   12.3922 C   0  0  0  0  0  0  0  0  0  0  0  0
   47.0649    5.2698   13.8299 C   0  0  0  0  0  0  0  0  0  0  0  0
   48.8537   10.8345   15.6960 C   0  0  0  0  0  0  0  0  0  0  0  0
   48.1701    8.9500   17.0334 C   0  0  0  0  0  0  0  0  0  0  0  0
   45.3691    6.0691   12.2680 C   0  0  0  0  0  0  0  0  0  0  0  0
   45.9823    5.0205   12.9811 C   0  0  0  0  0  0  0  0  0  0  0  0
   48.7471   11.6687   16.8104 C   0  0  0  0  0  0  0  0  0  0  0  0
   48.0664    9.7861   18.1487 C   0  0  0  0  0  0  0  0  0  0  0  0
   48.3541   11.1437   18.0376 C   0  0  0  0  0  0  0  0  0  0  0  0
   49.6451    8.8015   14.0390 H   0  0  0  0  0  0  0  0  0  0  0  0
   45.3638    8.1995   11.8469 H   0  0  0  0  0  0  0  0  0  0  0  0
   47.5451    4.4686   14.3838 H   0  0  0  0  0  0  0  0  0  0  0  0
   49.1515   11.2702   14.7430 H   0  0  0  0  0  0  0  0  0  0  0  0
   47.9437    7.8945   17.1685 H   0  0  0  0  0  0  0  0  0  0  0  0
   44.5272    5.8519   11.6127 H   0  0  0  0  0  0  0  0  0  0  0  0
   45.6075    4.0045   12.8688 H   0  0  0  0  0  0  0  0  0  0  0  0
   48.9680   12.7287   16.7171 H   0  0  0  0  0  0  0  0  0  0  0  0
   47.7627    9.3734   19.1076 H   0  0  0  0  0  0  0  0  0  0  0  0
   48.2719   11.7914   18.9062 H   0  0  0  0  0  0  0  0  0  0  0  0
  2  3  1  0
  3  1  1  0
  4  1  1  0
  5  4  2  0
  6  1  2  0
  7  2  2  0
  8  3  1  0
  9  4  1  0
 10  5  1  0
 11  8  2  0
 12  8  1  0
 13  9  2  0
 14 13  1  0
 15 11  1  0
 16 12  2  0
 17 16  1  0
  5  2  1  0
 14 10  2  0
 17 15  2  0
  3 18  1  0
  9 19  1  0
 10 20  1  0
 11 21  1  0
 12 22  1  0
 13 23  1  0
 14 24  1  0
 15 25  1  0
 16 26  1  0
 17 27  1  0
M  END
> <Uni-Dock RESULT> 
ENERGY=   -3.347  LOWER_BOUND=    5.530  UPPER_BOUND=    8.234
INTER + INTRA:          -3.347
INTER:                  -3.347
INTRA:                   0.000
UNBOUND:                 0.000

$$$$
