
     RDKit          3D

 27 29  0  0  0  0  0  0  0  0999 V2000
   44.3170    2.7232    9.5339 C   0  0  0  0  0  0  0  0  0  0  0  0
   45.4161    4.8080    9.2063 C   0  0  0  0  0  0  0  0  0  0  0  0
   44.9151    3.5914    8.4354 C   0  0  0  0  0  0  0  0  0  0  0  0
   44.4959    3.3983   10.8182 C   0  0  0  0  0  0  0  0  0  0  0  0
   45.1388    4.6112   10.6277 C   0  0  0  0  0  0  0  0  0  0  0  0
   43.7624    1.6439    9.4221 O   0  0  0  0  0  0  0  0  0  0  0  0
   45.9412    5.8146    8.7632 O   0  0  0  0  0  0  0  0  0  0  0  0
   45.9973    2.9486    7.5914 C   0  0  0  0  0  0  0  0  0  0  0  0
   44.1140    2.9678   12.0761 C   0  0  0  0  0  0  0  0  0  0  0  0
   45.4305    5.4532   11.6856 C   0  0  0  0  0  0  0  0  0  0  0  0
   46.6006    1.7243    7.9171 C   0  0  0  0  0  0  0  0  0  0  0  0
   46.4343    3.6155    6.4330 C   0  0  0  0  0  0  0  0  0  0  0  0
   44.4007    3.8037   13.1595 C   0  0  0  0  0  0  0  0  0  0  0  0
   45.0538    5.0365   12.9658 C   0  0  0  0  0  0  0  0  0  0  0  0
   47.6029    1.1834    7.1067 C   0  0  0  0  0  0  0  0  0  0  0  0
   47.4372    3.0753    5.6261 C   0  0  0  0  0  0  0  0  0  0  0  0
   48.0210    1.8581    5.9629 C   0  0  0  0  0  0  0  0  0  0  0  0
   44.0795    3.9139    7.8009 H   0  0  0  0  0  0  0  0  0  0  0  0
   43.6106    2.0157   12.2146 H   0  0  0  0  0  0  0  0  0  0  0  0
   45.9343    6.4017   11.5247 H   0  0  0  0  0  0  0  0  0  0  0  0
   46.2995    1.1587    8.7963 H   0  0  0  0  0  0  0  0  0  0  0  0
   46.0004    4.5756    6.1559 H   0  0  0  0  0  0  0  0  0  0  0  0
   44.1164    3.4997   14.1657 H   0  0  0  0  0  0  0  0  0  0  0  0
   45.2672    5.6716   13.8242 H   0  0  0  0  0  0  0  0  0  0  0  0
   48.0553    0.2304    7.3694 H   0  0  0  0  0  0  0  0  0  0  0  0
   47.7637    3.6084    4.7370 H   0  0  0  0  0  0  0  0  0  0  0  0
   48.8010    1.4354    5.3353 H   0  0  0  0  0  0  0  0  0  0  0  0
  2  3  1  0
  3  1  1  0
  4  1  1  0
  5  4  2  0
  6  1  2  0
  7  2  2  0
  8  3  1  0
  9  4  1  0
 10  5  1  0
 11  8  2  0
 12  8  1  0
 13  9  2  0
 14 13  1  0
 15 11  1  0
 16 12  2  0
 17 16  1  0
  5  2  1  0
 14 10  2  0
 17 15  2  0
  3 18  1  0
  9 19  1  0
 10 20  1  0
 11 21  1  0
 12 22  1  0
 13 23  1  0
 14 24  1  0
 15 25  1  0
 16 26  1  0
 17 27  1  0
M  END
> <Uni-Dock RESULT> 
ENERGY=   -6.608  LOWER_BOUND=    0.000  UPPER_BOUND=    0.000
INTER + INTRA:          -6.608
INTER:                  -6.608
INTRA:                   0.000
UNBOUND:                 0.000

$$$$

     RDKit          3D

 27 29  0  0  0  0  0  0  0  0999 V2000
   45.5087    4.3657    8.4065 C   0  0  0  0  0  0  0  0  0  0  0  0
   44.7440    2.2272    9.1161 C   0  0  0  0  0  0  0  0  0  0  0  0
   44.4830    3.7151    9.3245 C   0  0  0  0  0  0  0  0  0  0  0  0
   46.2937    3.3165    7.7581 C   0  0  0  0  0  0  0  0  0  0  0  0
   45.8502    2.0710    8.1739 C   0  0  0  0  0  0  0  0  0  0  0  0
   45.6871    5.5532    8.1990 O   0  0  0  0  0  0  0  0  0  0  0  0
   44.1462    1.2838    9.6039 O   0  0  0  0  0  0  0  0  0  0  0  0
   44.5418    4.1195   10.7839 C   0  0  0  0  0  0  0  0  0  0  0  0
   47.3341    3.4540    6.8571 C   0  0  0  0  0  0  0  0  0  0  0  0
   46.4249    0.9022    7.7083 C   0  0  0  0  0  0  0  0  0  0  0  0
   45.6006    4.8572   11.3350 C   0  0  0  0  0  0  0  0  0  0  0  0
   43.4950    3.7244   11.6358 C   0  0  0  0  0  0  0  0  0  0  0  0
   47.9299    2.2846    6.3750 C   0  0  0  0  0  0  0  0  0  0  0  0
   47.4789    1.0189    6.7973 C   0  0  0  0  0  0  0  0  0  0  0  0
   45.6075    5.1931   12.6919 C   0  0  0  0  0  0  0  0  0  0  0  0
   43.5046    4.0583   12.9912 C   0  0  0  0  0  0  0  0  0  0  0  0
   44.5611    4.7939   13.5191 C   0  0  0  0  0  0  0  0  0  0  0  0
   43.4954    3.9471    8.9053 H   0  0  0  0  0  0  0  0  0  0  0  0
   47.6740    4.4347    6.5376 H   0  0  0  0  0  0  0  0  0  0  0  0
   46.0690   -0.0685    8.0404 H   0  0  0  0  0  0  0  0  0  0  0  0
   46.4344    5.1973   10.7247 H   0  0  0  0  0  0  0  0  0  0  0  0
   42.6633    3.1375   11.2475 H   0  0  0  0  0  0  0  0  0  0  0  0
   48.7523    2.3514    5.6645 H   0  0  0  0  0  0  0  0  0  0  0  0
   47.9578    0.1215    6.4087 H   0  0  0  0  0  0  0  0  0  0  0  0
   46.4319    5.7710   13.1018 H   0  0  0  0  0  0  0  0  0  0  0  0
   42.6880    3.7400   13.6339 H   0  0  0  0  0  0  0  0  0  0  0  0
   44.5696    5.0559   14.5737 H   0  0  0  0  0  0  0  0  0  0  0  0
  2  3  1  0
  3  1  1  0
  4  1  1  0
  5  4  2  0
  6  1  2  0
  7  2  2  0
  8  3  1  0
  9  4  1  0
 10  5  1  0
 11  8  2  0
 12  8  1  0
 13  9  2  0
 14 13  1  0
 15 11  1  0
 16 12  2  0
 17 16  1  0
  5  2  1  0
 14 10  2  0
 17 15  2  0
  3 18  1  0
  9 19  1  0
 10 20  1  0
 11 21  1  0
 12 22  1  0
 13 23  1  0
 14 24  1  0
 15 25  1  0
 16 26  1  0
 17 27  1  0
M  END
> <Uni-Dock RESULT> 
ENERGY=   -5.875  LOWER_BOUND=    0.812  UPPER_BOUND=    5.697
INTER + INTRA:          -5.875
INTER:                  -5.875
INTRA:                   0.000
UNBOUND:                 0.000

$$$$

     RDKit          3D

 27 29  0  0  0  0  0  0  0  0999 V2000
   45.5100    6.9480   12.3451 C   0  0  0  0  0  0  0  0  0  0  0  0
   46.5119    5.1899   13.5968 C   0  0  0  0  0  0  0  0  0  0  0  0
   46.5541    6.7047   13.4261 C   0  0  0  0  0  0  0  0  0  0  0  0
   44.9502    5.6620   11.9323 C   0  0  0  0  0  0  0  0  0  0  0  0
   45.5361    4.6378   12.6593 C   0  0  0  0  0  0  0  0  0  0  0  0
   45.1519    8.0116   11.8702 O   0  0  0  0  0  0  0  0  0  0  0  0
   47.1414    4.5044   14.3837 O   0  0  0  0  0  0  0  0  0  0  0  0
   47.9490    7.2208   13.1351 C   0  0  0  0  0  0  0  0  0  0  0  0
   43.9836    5.4129   10.9747 C   0  0  0  0  0  0  0  0  0  0  0  0
   45.1834    3.3146   12.4647 C   0  0  0  0  0  0  0  0  0  0  0  0
   48.3489    7.6855   11.8729 C   0  0  0  0  0  0  0  0  0  0  0  0
   48.8982    7.2207   14.1727 C   0  0  0  0  0  0  0  0  0  0  0  0
   43.6135    4.0817   10.7616 C   0  0  0  0  0  0  0  0  0  0  0  0
   44.2087    3.0408   11.5007 C   0  0  0  0  0  0  0  0  0  0  0  0
   49.6532    8.1403   11.6590 C   0  0  0  0  0  0  0  0  0  0  0  0
   50.2011    7.6728   13.9568 C   0  0  0  0  0  0  0  0  0  0  0  0
   50.5783    8.1338   12.6994 C   0  0  0  0  0  0  0  0  0  0  0  0
   46.1648    7.1595   14.3461 H   0  0  0  0  0  0  0  0  0  0  0  0
   43.5306    6.2228   10.4106 H   0  0  0  0  0  0  0  0  0  0  0  0
   45.6486    2.5200   13.0405 H   0  0  0  0  0  0  0  0  0  0  0  0
   47.6574    7.7165   11.0336 H   0  0  0  0  0  0  0  0  0  0  0  0
   48.6292    6.8532   15.1624 H   0  0  0  0  0  0  0  0  0  0  0  0
   42.8562    3.8449   10.0159 H   0  0  0  0  0  0  0  0  0  0  0  0
   43.9051    2.0112   11.3180 H   0  0  0  0  0  0  0  0  0  0  0  0
   49.9451    8.5036   10.6768 H   0  0  0  0  0  0  0  0  0  0  0  0
   50.9210    7.6609   14.7710 H   0  0  0  0  0  0  0  0  0  0  0  0
   51.5918    8.4873   12.5299 H   0  0  0  0  0  0  0  0  0  0  0  0
  2  3  1  0
  3  1  1  0
  4  1  1  0
  5  4  2  0
  6  1  2  0
  7  2  2  0
  8  3  1  0
  9  4  1  0
 10  5  1  0
 11  8  2  0
 12  8  1  0
 13  9  2  0
 14 13  1  0
 15 11  1  0
 16 12  2  0
 17 16  1  0
  5  2  1  0
 14 10  2  0
 17 15  2  0
  3 18  1  0
  9 19  1  0
 10 20  1  0
 11 21  1  0
 12 22  1  0
 13 23  1  0
 14 24  1  0
 15 25  1  0
 16 26  1  0
 17 27  1  0
M  END
> <Uni-Dock RESULT> 
ENERGY=   -4.260  LOWER_BOUND=    3.974  UPPER_BOUND=    6.201
INTER + INTRA:          -4.260
INTER:                  -4.260
INTRA:                   0.000
UNBOUND:                 0.000

$$$$

     RDKit          3D

 27 29  0  0  0  0  0  0  0  0999 V2000
   46.4445    3.9216   13.3256 C   0  0  0  0  0  0  0  0  0  0  0  0
   46.3553    6.2993   13.3225 C   0  0  0  0  0  0  0  0  0  0  0  0
   47.2495    5.1413   13.7526 C   0  0  0  0  0  0  0  0  0  0  0  0
   45.1890    4.3714   12.7266 C   0  0  0  0  0  0  0  0  0  0  0  0
   45.1358    5.7563   12.7277 C   0  0  0  0  0  0  0  0  0  0  0  0
   46.7468    2.7457   13.4308 O   0  0  0  0  0  0  0  0  0  0  0  0
   46.5790    7.4941   13.4095 O   0  0  0  0  0  0  0  0  0  0  0  0
   47.6300    5.2104   15.2179 C   0  0  0  0  0  0  0  0  0  0  0  0
   44.1586    3.6048   12.2126 C   0  0  0  0  0  0  0  0  0  0  0  0
   44.0500    6.4422   12.2141 C   0  0  0  0  0  0  0  0  0  0  0  0
   47.0971    4.3522   16.1918 C   0  0  0  0  0  0  0  0  0  0  0  0
   48.5490    6.1918   15.6304 C   0  0  0  0  0  0  0  0  0  0  0  0
   43.0510    4.2787   11.6896 C   0  0  0  0  0  0  0  0  0  0  0  0
   42.9971    5.6862   11.6903 C   0  0  0  0  0  0  0  0  0  0  0  0
   47.4765    4.4688   17.5321 C   0  0  0  0  0  0  0  0  0  0  0  0
   48.9249    6.3087   16.9697 C   0  0  0  0  0  0  0  0  0  0  0  0
   48.3890    5.4460   17.9207 C   0  0  0  0  0  0  0  0  0  0  0  0
   48.1497    5.1582   13.1249 H   0  0  0  0  0  0  0  0  0  0  0  0
   44.2103    2.5201   12.2165 H   0  0  0  0  0  0  0  0  0  0  0  0
   44.0191    7.5277   12.2195 H   0  0  0  0  0  0  0  0  0  0  0  0
   46.3880    3.5690   15.9323 H   0  0  0  0  0  0  0  0  0  0  0  0
   48.9726    6.8861   14.9056 H   0  0  0  0  0  0  0  0  0  0  0  0
   42.2193    3.7104   11.2762 H   0  0  0  0  0  0  0  0  0  0  0  0
   42.1245    6.1901   11.2778 H   0  0  0  0  0  0  0  0  0  0  0  0
   47.0596    3.7915   18.2732 H   0  0  0  0  0  0  0  0  0  0  0  0
   49.6337    7.0765   17.2689 H   0  0  0  0  0  0  0  0  0  0  0  0
   48.6815    5.5347   18.9635 H   0  0  0  0  0  0  0  0  0  0  0  0
  2  3  1  0
  3  1  1  0
  4  1  1  0
  5  4  2  0
  6  1  2  0
  7  2  2  0
  8  3  1  0
  9  4  1  0
 10  5  1  0
 11  8  2  0
 12  8  1  0
 13  9  2  0
 14 13  1  0
 15 11  1  0
 16 12  2  0
 17 16  1  0
  5  2  1  0
 14 10  2  0
 17 15  2  0
  3 18  1  0
  9 19  1  0
 10 20  1  0
 11 21  1  0
 12 22  1  0
 13 23  1  0
 14 24  1  0
 15 25  1  0
 16 26  1  0
 17 27  1  0
M  END
> <Uni-Dock RESULT> 
ENERGY=   -4.168  LOWER_BOUND=    4.487  UPPER_BOUND=    6.888
INTER + INTRA:          -4.168
INTER:                  -4.168
INTRA:                   0.000
UNBOUND:                 0.000

$$$$

     RDKit          3D

 27 29  0  0  0  0  0  0  0  0999 V2000
   43.6798   11.5954   10.8602 C   0  0  0  0  0  0  0  0  0  0  0  0
   43.1083    9.2918   11.0275 C   0  0  0  0  0  0  0  0  0  0  0  0
   42.5276   10.6351   10.5989 C   0  0  0  0  0  0  0  0  0  0  0  0
   44.8042   10.8430   11.4142 C   0  0  0  0  0  0  0  0  0  0  0  0
   44.4702    9.5017   11.5145 C   0  0  0  0  0  0  0  0  0  0  0  0
   43.7206   12.7959   10.6545 O   0  0  0  0  0  0  0  0  0  0  0  0
   42.5830    8.1935   10.9708 O   0  0  0  0  0  0  0  0  0  0  0  0
   41.2207   10.9554   11.2960 C   0  0  0  0  0  0  0  0  0  0  0  0
   46.0448   11.3142   11.8048 C   0  0  0  0  0  0  0  0  0  0  0  0
   45.3604    8.5660   12.0095 C   0  0  0  0  0  0  0  0  0  0  0  0
   41.1046   11.9240   12.3047 C   0  0  0  0  0  0  0  0  0  0  0  0
   40.0677   10.2381   10.9300 C   0  0  0  0  0  0  0  0  0  0  0  0
   46.9593   10.3847   12.3091 C   0  0  0  0  0  0  0  0  0  0  0  0
   46.6198    9.0215   12.4107 C   0  0  0  0  0  0  0  0  0  0  0  0
   39.8745   12.1701   12.9213 C   0  0  0  0  0  0  0  0  0  0  0  0
   38.8405   10.4833   11.5485 C   0  0  0  0  0  0  0  0  0  0  0  0
   38.7439   11.4505   12.5440 C   0  0  0  0  0  0  0  0  0  0  0  0
   42.3819   10.6089    9.5113 H   0  0  0  0  0  0  0  0  0  0  0  0
   46.2967   12.3673   11.7219 H   0  0  0  0  0  0  0  0  0  0  0  0
   45.0882    7.5173   12.0831 H   0  0  0  0  0  0  0  0  0  0  0  0
   41.9594   12.5157   12.6253 H   0  0  0  0  0  0  0  0  0  0  0  0
   40.1216    9.4677   10.1616 H   0  0  0  0  0  0  0  0  0  0  0  0
   47.9462   10.7168   12.6276 H   0  0  0  0  0  0  0  0  0  0  0  0
   47.3478    8.3152   12.8066 H   0  0  0  0  0  0  0  0  0  0  0  0
   39.8002   12.9288   13.6963 H   0  0  0  0  0  0  0  0  0  0  0  0
   37.9619    9.9153   11.2539 H   0  0  0  0  0  0  0  0  0  0  0  0
   37.7891   11.6435   13.0256 H   0  0  0  0  0  0  0  0  0  0  0  0
  2  3  1  0
  3  1  1  0
  4  1  1  0
  5  4  2  0
  6  1  2  0
  7  2  2  0
  8  3  1  0
  9  4  1  0
 10  5  1  0
 11  8  2  0
 12  8  1  0
 13  9  2  0
 14 13  1  0
 15 11  1  0
 16 12  2  0
 17 16  1  0
  5  2  1  0
 14 10  2  0
 17 15  2  0
  3 18  1  0
  9 19  1  0
 10 20  1  0
 11 21  1  0
 12 22  1  0
 13 23  1  0
 14 24  1  0
 15 25  1  0
 16 26  1  0
 17 27  1  0
M  END
> <Uni-Dock RESULT> 
ENERGY=   -4.126  LOWER_BOUND=    6.498  UPPER_BOUND=    9.422
INTER + INTRA:          -4.126
INTER:                  -4.126
INTRA:                   0.000
UNBOUND:                 0.000

$$$$

     RDKit          3D

 27 29  0  0  0  0  0  0  0  0999 V2000
   50.0221    5.0419   18.3308 C   0  0  0  0  0  0  0  0  0  0  0  0
   51.2804    4.7892   20.3343 C   0  0  0  0  0  0  0  0  0  0  0  0
   51.4165    4.6750   18.8198 C   0  0  0  0  0  0  0  0  0  0  0  0
   49.1729    5.3147   19.4892 C   0  0  0  0  0  0  0  0  0  0  0  0
   49.9051    5.1644   20.6563 C   0  0  0  0  0  0  0  0  0  0  0  0
   49.6238    5.1207   17.1818 O   0  0  0  0  0  0  0  0  0  0  0  0
   52.1436    4.6327   21.1804 O   0  0  0  0  0  0  0  0  0  0  0  0
   51.9435    3.3236   18.3811 C   0  0  0  0  0  0  0  0  0  0  0  0
   47.8372    5.6735   19.5104 C   0  0  0  0  0  0  0  0  0  0  0  0
   49.3377    5.3664   21.9014 C   0  0  0  0  0  0  0  0  0  0  0  0
   51.1433    2.3497   17.7644 C   0  0  0  0  0  0  0  0  0  0  0  0
   53.2961    3.0185   18.6161 C   0  0  0  0  0  0  0  0  0  0  0  0
   47.2439    5.8813   20.7592 C   0  0  0  0  0  0  0  0  0  0  0  0
   47.9882    5.7289   21.9452 C   0  0  0  0  0  0  0  0  0  0  0  0
   51.6810    1.1148   17.3904 C   0  0  0  0  0  0  0  0  0  0  0  0
   53.8310    1.7838   18.2443 C   0  0  0  0  0  0  0  0  0  0  0  0
   53.0230    0.8320   17.6303 C   0  0  0  0  0  0  0  0  0  0  0  0
   52.0882    5.4737   18.4795 H   0  0  0  0  0  0  0  0  0  0  0  0
   47.2724    5.7888   18.5901 H   0  0  0  0  0  0  0  0  0  0  0  0
   49.9210    5.2464   22.8095 H   0  0  0  0  0  0  0  0  0  0  0  0
   50.0921    2.5305   17.5500 H   0  0  0  0  0  0  0  0  0  0  0  0
   53.9449    3.7435   19.1063 H   0  0  0  0  0  0  0  0  0  0  0  0
   46.1941    6.1644   20.8175 H   0  0  0  0  0  0  0  0  0  0  0  0
   47.5055    5.8957   22.9069 H   0  0  0  0  0  0  0  0  0  0  0  0
   51.0491    0.3737   16.9074 H   0  0  0  0  0  0  0  0  0  0  0  0
   54.8779    1.5660   18.4384 H   0  0  0  0  0  0  0  0  0  0  0  0
   53.4380   -0.1291   17.3390 H   0  0  0  0  0  0  0  0  0  0  0  0
  2  3  1  0
  3  1  1  0
  4  1  1  0
  5  4  2  0
  6  1  2  0
  7  2  2  0
  8  3  1  0
  9  4  1  0
 10  5  1  0
 11  8  2  0
 12  8  1  0
 13  9  2  0
 14 13  1  0
 15 11  1  0
 16 12  2  0
 17 16  1  0
  5  2  1  0
 14 10  2  0
 17 15  2  0
  3 18  1  0
  9 19  1  0
 10 20  1  0
 11 21  1  0
 12 22  1  0
 13 23  1  0
 14 24  1  0
 15 25  1  0
 16 26  1  0
 17 27  1  0
M  END
> <Uni-Dock RESULT> 
ENERGY=   -3.914  LOWER_BOUND=   10.244  UPPER_BOUND=   11.525
INTER + INTRA:          -3.914
INTER:                  -3.914
INTRA:                   0.000
UNBOUND:                 0.000

$$$$

     RDKit          3D

 27 29  0  0  0  0  0  0  0  0999 V2000
   48.6758   10.3052   16.3103 C   0  0  0  0  0  0  0  0  0  0  0  0
   48.4685    8.1478   17.2922 C   0  0  0  0  0  0  0  0  0  0  0  0
   48.9619    8.8373   16.0246 C   0  0  0  0  0  0  0  0  0  0  0  0
   48.0492   10.4160   17.6265 C   0  0  0  0  0  0  0  0  0  0  0  0
   47.9257    9.1590   18.1971 C   0  0  0  0  0  0  0  0  0  0  0  0
   48.9140   11.2697   15.6045 O   0  0  0  0  0  0  0  0  0  0  0  0
   48.5174    6.9623   17.5705 O   0  0  0  0  0  0  0  0  0  0  0  0
   48.3351    8.2673   14.7681 C   0  0  0  0  0  0  0  0  0  0  0  0
   47.6159   11.5561   18.2790 C   0  0  0  0  0  0  0  0  0  0  0  0
   47.3636    8.9809   19.4482 C   0  0  0  0  0  0  0  0  0  0  0  0
   47.3612    8.9454   14.0192 C   0  0  0  0  0  0  0  0  0  0  0  0
   48.7328    6.9895   14.3361 C   0  0  0  0  0  0  0  0  0  0  0  0
   47.0434   11.3979   19.5447 C   0  0  0  0  0  0  0  0  0  0  0  0
   46.9182   10.1204   20.1246 C   0  0  0  0  0  0  0  0  0  0  0  0
   46.8092    8.3659   12.8732 C   0  0  0  0  0  0  0  0  0  0  0  0
   48.1787    6.4111   13.1928 C   0  0  0  0  0  0  0  0  0  0  0  0
   47.2170    7.1003   12.4606 C   0  0  0  0  0  0  0  0  0  0  0  0
   50.0538    8.7325   15.9860 H   0  0  0  0  0  0  0  0  0  0  0  0
   47.7175   12.5365   17.8232 H   0  0  0  0  0  0  0  0  0  0  0  0
   47.2722    7.9912   19.8860 H   0  0  0  0  0  0  0  0  0  0  0  0
   47.0189    9.9393   14.2995 H   0  0  0  0  0  0  0  0  0  0  0  0
   49.4754    6.4260   14.9000 H   0  0  0  0  0  0  0  0  0  0  0  0
   46.6897   12.2714   20.0900 H   0  0  0  0  0  0  0  0  0  0  0  0
   46.4690   10.0207   21.1115 H   0  0  0  0  0  0  0  0  0  0  0  0
   46.0606    8.9074   12.3003 H   0  0  0  0  0  0  0  0  0  0  0  0
   48.4968    5.4207   12.8777 H   0  0  0  0  0  0  0  0  0  0  0  0
   46.7855    6.6520   11.5697 H   0  0  0  0  0  0  0  0  0  0  0  0
  2  3  1  0
  3  1  1  0
  4  1  1  0
  5  4  2  0
  6  1  2  0
  7  2  2  0
  8  3  1  0
  9  4  1  0
 10  5  1  0
 11  8  2  0
 12  8  1  0
 13  9  2  0
 14 13  1  0
 15 11  1  0
 16 12  2  0
 17 16  1  0
  5  2  1  0
 14 10  2  0
 17 15  2  0
  3 18  1  0
  9 19  1  0
 10 20  1  0
 11 21  1  0
 12 22  1  0
 13 23  1  0
 14 24  1  0
 15 25  1  0
 16 26  1  0
 17 27  1  0
M  END
> <Uni-Dock RESULT> 
ENERGY=   -3.811  LOWER_BOUND=    6.932  UPPER_BOUND=    9.740
INTER + INTRA:          -3.811
INTER:                  -3.811
INTRA:                   0.000
UNBOUND:                 0.000

$$$$

     RDKit          3D

 27 29  0  0  0  0  0  0  0  0999 V2000
   43.5872    9.5255   11.0554 C   0  0  0  0  0  0  0  0  0  0  0  0
   45.2087   11.1825   11.5906 C   0  0  0  0  0  0  0  0  0  0  0  0
   43.8486   11.0194   10.9206 C   0  0  0  0  0  0  0  0  0  0  0  0
   44.7281    8.9061   11.7278 C   0  0  0  0  0  0  0  0  0  0  0  0
   45.6739    9.8708   12.0367 C   0  0  0  0  0  0  0  0  0  0  0  0
   42.6084    8.8969   10.6924 O   0  0  0  0  0  0  0  0  0  0  0  0
   45.8368   12.2104   11.7758 O   0  0  0  0  0  0  0  0  0  0  0  0
   43.8210   11.5773    9.5119 C   0  0  0  0  0  0  0  0  0  0  0  0
   44.9181    7.5736   12.0468 C   0  0  0  0  0  0  0  0  0  0  0  0
   46.8554    9.5504   12.6804 C   0  0  0  0  0  0  0  0  0  0  0  0
   43.7945   10.7689    8.3652 C   0  0  0  0  0  0  0  0  0  0  0  0
   43.8397   12.9728    9.3388 C   0  0  0  0  0  0  0  0  0  0  0  0
   46.1067    7.2282   12.6969 C   0  0  0  0  0  0  0  0  0  0  0  0
   47.0677    8.2088   13.0111 C   0  0  0  0  0  0  0  0  0  0  0  0
   43.7808   11.3389    7.0890 C   0  0  0  0  0  0  0  0  0  0  0  0
   43.8286   13.5405    8.0635 C   0  0  0  0  0  0  0  0  0  0  0  0
   43.7982   12.7228    6.9381 C   0  0  0  0  0  0  0  0  0  0  0  0
   43.1013   11.5259   11.5448 H   0  0  0  0  0  0  0  0  0  0  0  0
   44.1706    6.8254   11.8004 H   0  0  0  0  0  0  0  0  0  0  0  0
   47.5894   10.3147   12.9182 H   0  0  0  0  0  0  0  0  0  0  0  0
   43.7715    9.6835    8.4357 H   0  0  0  0  0  0  0  0  0  0  0  0
   43.8757   13.6327   10.2049 H   0  0  0  0  0  0  0  0  0  0  0  0
   46.2933    6.1893   12.9642 H   0  0  0  0  0  0  0  0  0  0  0  0
   47.9864    7.9170   13.5176 H   0  0  0  0  0  0  0  0  0  0  0  0
   43.7533   10.6985    6.2109 H   0  0  0  0  0  0  0  0  0  0  0  0
   43.8474   14.6214    7.9510 H   0  0  0  0  0  0  0  0  0  0  0  0
   43.7883   13.1631    5.9447 H   0  0  0  0  0  0  0  0  0  0  0  0
  2  3  1  0
  3  1  1  0
  4  1  1  0
  5  4  2  0
  6  1  2  0
  7  2  2  0
  8  3  1  0
  9  4  1  0
 10  5  1  0
 11  8  2  0
 12  8  1  0
 13  9  2  0
 14 13  1  0
 15 11  1  0
 16 12  2  0
 17 16  1  0
  5  2  1  0
 14 10  2  0
 17 15  2  0
  3 18  1  0
  9 19  1  0
 10 20  1  0
 11 21  1  0
 12 22  1  0
 13 23  1  0
 14 24  1  0
 15 25  1  0
 16 26  1  0
 17 27  1  0
M  END
> <Uni-Dock RESULT> 
ENERGY=   -3.809  LOWER_BOUND=    5.907  UPPER_BOUND=    7.873
INTER + INTRA:          -3.809
INTER:                  -3.809
INTRA:                   0.000
UNBOUND:                 0.000

$$$$

     RDKit          3D

 27 29  0  0  0  0  0  0  0  0999 V2000
   54.0106    5.3353    8.3974 C   0  0  0  0  0  0  0  0  0  0  0  0
   53.2376    7.3282    9.4423 C   0  0  0  0  0  0  0  0  0  0  0  0
   53.1817    6.5805    8.1144 C   0  0  0  0  0  0  0  0  0  0  0  0
   54.5073    5.4017    9.7709 C   0  0  0  0  0  0  0  0  0  0  0  0
   54.0595    6.5641   10.3784 C   0  0  0  0  0  0  0  0  0  0  0  0
   54.2478    4.4029    7.6495 O   0  0  0  0  0  0  0  0  0  0  0  0
   52.6880    8.3747    9.7392 O   0  0  0  0  0  0  0  0  0  0  0  0
   53.6342    7.4321    6.9453 C   0  0  0  0  0  0  0  0  0  0  0  0
   55.3046    4.4917   10.4415 C   0  0  0  0  0  0  0  0  0  0  0  0
   54.3864    6.8729   11.6863 C   0  0  0  0  0  0  0  0  0  0  0  0
   54.8622    7.2497    6.2913 C   0  0  0  0  0  0  0  0  0  0  0  0
   52.7937    8.4682    6.5006 C   0  0  0  0  0  0  0  0  0  0  0  0
   55.6477    4.7856   11.7647 C   0  0  0  0  0  0  0  0  0  0  0  0
   55.1922    5.9668   12.3821 C   0  0  0  0  0  0  0  0  0  0  0  0
   55.2329    8.0730    5.2242 C   0  0  0  0  0  0  0  0  0  0  0  0
   53.1665    9.2912    5.4364 C   0  0  0  0  0  0  0  0  0  0  0  0
   54.3865    9.0927    4.7975 C   0  0  0  0  0  0  0  0  0  0  0  0
   52.1491    6.2415    7.9605 H   0  0  0  0  0  0  0  0  0  0  0  0
   55.6501    3.5837    9.9564 H   0  0  0  0  0  0  0  0  0  0  0  0
   54.0295    7.7864   12.1527 H   0  0  0  0  0  0  0  0  0  0  0  0
   55.5509    6.4605    6.5854 H   0  0  0  0  0  0  0  0  0  0  0  0
   51.8392    8.6502    6.9932 H   0  0  0  0  0  0  0  0  0  0  0  0
   56.2742    4.0942   12.3259 H   0  0  0  0  0  0  0  0  0  0  0  0
   55.4719    6.1754   13.4136 H   0  0  0  0  0  0  0  0  0  0  0  0
   56.1848    7.9141    4.7238 H   0  0  0  0  0  0  0  0  0  0  0  0
   52.5044   10.0891    5.1103 H   0  0  0  0  0  0  0  0  0  0  0  0
   54.6777    9.7316    3.9681 H   0  0  0  0  0  0  0  0  0  0  0  0
  2  3  1  0
  3  1  1  0
  4  1  1  0
  5  4  2  0
  6  1  2  0
  7  2  2  0
  8  3  1  0
  9  4  1  0
 10  5  1  0
 11  8  2  0
 12  8  1  0
 13  9  2  0
 14 13  1  0
 15 11  1  0
 16 12  2  0
 17 16  1  0
  5  2  1  0
 14 10  2  0
 17 15  2  0
  3 18  1  0
  9 19  1  0
 10 20  1  0
 11 21  1  0
 12 22  1  0
 13 23  1  0
 14 24  1  0
 15 25  1  0
 16 26  1  0
 17 27  1  0
M  END
> <Uni-Dock RESULT> 
ENERGY=   -3.799  LOWER_BOUND=    8.746  UPPER_BOUND=    9.624
INTER + INTRA:          -3.799
INTER:                  -3.799
INTRA:                   0.000
UNBOUND:                 0.000

$$$$
