
     RDKit          3D

 27 29  0  0  0  0  0  0  0  0999 V2000
   45.4161    4.8110    9.2020 C   0  0  0  0  0  0  0  0  0  0  0  0
   44.3182    2.7263    9.5334 C   0  0  0  0  0  0  0  0  0  0  0  0
   44.9147    3.5932    8.4332 C   0  0  0  0  0  0  0  0  0  0  0  0
   45.1404    4.6160   10.6240 C   0  0  0  0  0  0  0  0  0  0  0  0
   44.4981    3.4031   10.8167 C   0  0  0  0  0  0  0  0  0  0  0  0
   45.9403    5.8173    8.7570 O   0  0  0  0  0  0  0  0  0  0  0  0
   43.7639    1.6466    9.4236 O   0  0  0  0  0  0  0  0  0  0  0  0
   45.9965    2.9499    7.5890 C   0  0  0  0  0  0  0  0  0  0  0  0
   45.4329    5.4595   11.6803 C   0  0  0  0  0  0  0  0  0  0  0  0
   44.1177    2.9742   12.0755 C   0  0  0  0  0  0  0  0  0  0  0  0
   46.6006    1.7261    7.9157 C   0  0  0  0  0  0  0  0  0  0  0  0
   46.4320    3.6154    6.4293 C   0  0  0  0  0  0  0  0  0  0  0  0
   45.0576    5.0444   12.9615 C   0  0  0  0  0  0  0  0  0  0  0  0
   44.4051    3.8116   13.1576 C   0  0  0  0  0  0  0  0  0  0  0  0
   47.6023    1.1847    7.1050 C   0  0  0  0  0  0  0  0  0  0  0  0
   47.4344    3.0744    5.6221 C   0  0  0  0  0  0  0  0  0  0  0  0
   48.0190    1.8578    5.9599 C   0  0  0  0  0  0  0  0  0  0  0  0
   44.0784    3.9146    7.7991 H   0  0  0  0  0  0  0  0  0  0  0  0
   45.9360    6.4081   11.5177 H   0  0  0  0  0  0  0  0  0  0  0  0
   43.6148    2.0220   12.2157 H   0  0  0  0  0  0  0  0  0  0  0  0
   46.3007    1.1615    8.7959 H   0  0  0  0  0  0  0  0  0  0  0  0
   45.9975    4.5749    6.1512 H   0  0  0  0  0  0  0  0  0  0  0  0
   45.2715    5.6806   13.8188 H   0  0  0  0  0  0  0  0  0  0  0  0
   44.1219    3.5088   14.1644 H   0  0  0  0  0  0  0  0  0  0  0  0
   48.0553    0.2321    7.3686 H   0  0  0  0  0  0  0  0  0  0  0  0
   47.7597    3.6066    4.7319 H   0  0  0  0  0  0  0  0  0  0  0  0
   48.7985    1.4348    5.3320 H   0  0  0  0  0  0  0  0  0  0  0  0
  2  3  1  0
  3  1  1  0
  4  1  1  0
  5  4  2  0
  6  1  2  0
  7  2  2  0
  8  3  1  0
  9  4  1  0
 10  5  1  0
 11  8  2  0
 12  8  1  0
 13  9  2  0
 14 13  1  0
 15 11  1  0
 16 12  2  0
 17 16  1  0
  5  2  1  0
 14 10  2  0
 17 15  2  0
  3 18  1  0
  9 19  1  0
 10 20  1  0
 11 21  1  0
 12 22  1  0
 13 23  1  0
 14 24  1  0
 15 25  1  0
 16 26  1  0
 17 27  1  0
M  END
> <Uni-Dock RESULT> 
ENERGY=   -6.621  LOWER_BOUND=    0.000  UPPER_BOUND=    0.000
INTER + INTRA:          -6.621
INTER:                  -6.621
INTRA:                   0.000
UNBOUND:                 0.000

$$$$

     RDKit          3D

 27 29  0  0  0  0  0  0  0  0999 V2000
   46.4406    5.2328   13.5785 C   0  0  0  0  0  0  0  0  0  0  0  0
   45.5332    6.9272   12.1761 C   0  0  0  0  0  0  0  0  0  0  0  0
   46.5082    6.7358   13.3295 C   0  0  0  0  0  0  0  0  0  0  0  0
   45.5172    4.6373   12.6147 C   0  0  0  0  0  0  0  0  0  0  0  0
   44.9862    5.6247   11.7998 C   0  0  0  0  0  0  0  0  0  0  0  0
   47.0148    4.5866   14.4376 O   0  0  0  0  0  0  0  0  0  0  0  0
   45.2151    7.9660   11.6239 O   0  0  0  0  0  0  0  0  0  0  0  0
   47.9232    7.2256   13.0960 C   0  0  0  0  0  0  0  0  0  0  0  0
   45.1634    3.3080   12.4707 C   0  0  0  0  0  0  0  0  0  0  0  0
   44.0763    5.3306   10.8005 C   0  0  0  0  0  0  0  0  0  0  0  0
   48.4027    7.6185   11.8370 C   0  0  0  0  0  0  0  0  0  0  0  0
   48.8085    7.2753   14.1874 C   0  0  0  0  0  0  0  0  0  0  0  0
   44.2454    2.9890   11.4657 C   0  0  0  0  0  0  0  0  0  0  0  0
   43.7060    3.9924   10.6372 C   0  0  0  0  0  0  0  0  0  0  0  0
   49.7220    8.0520   11.6781 C   0  0  0  0  0  0  0  0  0  0  0  0
   50.1267    7.7061   14.0265 C   0  0  0  0  0  0  0  0  0  0  0  0
   50.5831    8.0956   12.7711 C   0  0  0  0  0  0  0  0  0  0  0  0
   46.0691    7.2424   14.1986 H   0  0  0  0  0  0  0  0  0  0  0  0
   45.5852    2.5426   13.1154 H   0  0  0  0  0  0  0  0  0  0  0  0
   43.6661    6.1118   10.1675 H   0  0  0  0  0  0  0  0  0  0  0  0
   47.7631    7.6088   10.9570 H   0  0  0  0  0  0  0  0  0  0  0  0
   48.4771    6.9638   15.1774 H   0  0  0  0  0  0  0  0  0  0  0  0
   43.9428    1.9532   11.3206 H   0  0  0  0  0  0  0  0  0  0  0  0
   42.9924    3.7207    9.8610 H   0  0  0  0  0  0  0  0  0  0  0  0
   50.0758    8.3595   10.6971 H   0  0  0  0  0  0  0  0  0  0  0  0
   50.7963    7.7333   14.8822 H   0  0  0  0  0  0  0  0  0  0  0  0
   51.6084    8.4324   12.6445 H   0  0  0  0  0  0  0  0  0  0  0  0
  2  3  1  0
  3  1  1  0
  4  1  1  0
  5  4  2  0
  6  1  2  0
  7  2  2  0
  8  3  1  0
  9  4  1  0
 10  5  1  0
 11  8  2  0
 12  8  1  0
 13  9  2  0
 14 13  1  0
 15 11  1  0
 16 12  2  0
 17 16  1  0
  5  2  1  0
 14 10  2  0
 17 15  2  0
  3 18  1  0
  9 19  1  0
 10 20  1  0
 11 21  1  0
 12 22  1  0
 13 23  1  0
 14 24  1  0
 15 25  1  0
 16 26  1  0
 17 27  1  0
M  END
> <Uni-Dock RESULT> 
ENERGY=   -4.267  LOWER_BOUND=    3.880  UPPER_BOUND=    6.184
INTER + INTRA:          -4.267
INTER:                  -4.267
INTRA:                   0.000
UNBOUND:                 0.000

$$$$

     RDKit          3D

 27 29  0  0  0  0  0  0  0  0999 V2000
   45.4762    8.8068   12.4861 C   0  0  0  0  0  0  0  0  0  0  0  0
   47.3521    7.3535   12.6597 C   0  0  0  0  0  0  0  0  0  0  0  0
   45.8366    7.3598   12.8053 C   0  0  0  0  0  0  0  0  0  0  0  0
   46.7006    9.5361   12.1618 C   0  0  0  0  0  0  0  0  0  0  0  0
   47.7936    8.6904   12.2660 C   0  0  0  0  0  0  0  0  0  0  0  0
   44.3755    9.3296   12.5081 O   0  0  0  0  0  0  0  0  0  0  0  0
   48.1213    6.4250   12.8368 O   0  0  0  0  0  0  0  0  0  0  0  0
   45.0793    6.3666   11.9469 C   0  0  0  0  0  0  0  0  0  0  0  0
   46.8410   10.8645   11.8034 C   0  0  0  0  0  0  0  0  0  0  0  0
   49.0804    9.1318   12.0160 C   0  0  0  0  0  0  0  0  0  0  0  0
   45.6758    5.6385   10.9060 C   0  0  0  0  0  0  0  0  0  0  0  0
   43.7078    6.1734   12.1898 C   0  0  0  0  0  0  0  0  0  0  0  0
   48.1335   11.3309   11.5455 C   0  0  0  0  0  0  0  0  0  0  0  0
   49.2444   10.4714   11.6510 C   0  0  0  0  0  0  0  0  0  0  0  0
   44.9252    4.7430   10.1389 C   0  0  0  0  0  0  0  0  0  0  0  0
   42.9591    5.2805   11.4209 C   0  0  0  0  0  0  0  0  0  0  0  0
   43.5687    4.5642   10.3956 C   0  0  0  0  0  0  0  0  0  0  0  0
   45.6229    7.1847   13.8675 H   0  0  0  0  0  0  0  0  0  0  0  0
   45.9775   11.5185   11.7255 H   0  0  0  0  0  0  0  0  0  0  0  0
   49.9301    8.4610   12.1006 H   0  0  0  0  0  0  0  0  0  0  0  0
   46.7341    5.7399   10.6755 H   0  0  0  0  0  0  0  0  0  0  0  0
   43.2063    6.7320   12.9793 H   0  0  0  0  0  0  0  0  0  0  0  0
   48.2847   12.3706   11.2596 H   0  0  0  0  0  0  0  0  0  0  0  0
   50.2419   10.8565   11.4455 H   0  0  0  0  0  0  0  0  0  0  0  0
   45.4041    4.1815    9.3406 H   0  0  0  0  0  0  0  0  0  0  0  0
   41.8992    5.1485   11.6222 H   0  0  0  0  0  0  0  0  0  0  0  0
   42.9876    3.8679    9.7971 H   0  0  0  0  0  0  0  0  0  0  0  0
  2  3  1  0
  3  1  1  0
  4  1  1  0
  5  4  2  0
  6  1  2  0
  7  2  2  0
  8  3  1  0
  9  4  1  0
 10  5  1  0
 11  8  2  0
 12  8  1  0
 13  9  2  0
 14 13  1  0
 15 11  1  0
 16 12  2  0
 17 16  1  0
  5  2  1  0
 14 10  2  0
 17 15  2  0
  3 18  1  0
  9 19  1  0
 10 20  1  0
 11 21  1  0
 12 22  1  0
 13 23  1  0
 14 24  1  0
 15 25  1  0
 16 26  1  0
 17 27  1  0
M  END
> <Uni-Dock RESULT> 
ENERGY=   -4.132  LOWER_BOUND=    3.941  UPPER_BOUND=    6.446
INTER + INTRA:          -4.132
INTER:                  -4.132
INTRA:                   0.000
UNBOUND:                 0.000

$$$$

     RDKit          3D

 27 29  0  0  0  0  0  0  0  0999 V2000
   44.2492    5.8035   12.2236 C   0  0  0  0  0  0  0  0  0  0  0  0
   45.4675    5.7186   10.1816 C   0  0  0  0  0  0  0  0  0  0  0  0
   45.1297    6.6654   11.3250 C   0  0  0  0  0  0  0  0  0  0  0  0
   44.1338    4.4720   11.6321 C   0  0  0  0  0  0  0  0  0  0  0  0
   44.8408    4.4234   10.4411 C   0  0  0  0  0  0  0  0  0  0  0  0
   43.6878    6.1243   13.2567 O   0  0  0  0  0  0  0  0  0  0  0  0
   46.1346    5.9467    9.1875 O   0  0  0  0  0  0  0  0  0  0  0  0
   46.3081    7.2658   12.0648 C   0  0  0  0  0  0  0  0  0  0  0  0
   43.4428    3.3745   12.1124 C   0  0  0  0  0  0  0  0  0  0  0  0
   44.8919    3.2744    9.6727 C   0  0  0  0  0  0  0  0  0  0  0  0
   47.6291    6.8243   11.8937 C   0  0  0  0  0  0  0  0  0  0  0  0
   46.0702    8.3054   12.9814 C   0  0  0  0  0  0  0  0  0  0  0  0
   43.4822    2.2025   11.3512 C   0  0  0  0  0  0  0  0  0  0  0  0
   44.2010    2.1528   10.1409 C   0  0  0  0  0  0  0  0  0  0  0  0
   48.6766    7.4084   12.6116 C   0  0  0  0  0  0  0  0  0  0  0  0
   47.1172    8.8860   13.6995 C   0  0  0  0  0  0  0  0  0  0  0  0
   48.4212    8.4377   13.5136 C   0  0  0  0  0  0  0  0  0  0  0  0
   44.5031    7.4598   10.8995 H   0  0  0  0  0  0  0  0  0  0  0  0
   42.8914    3.4240   13.0468 H   0  0  0  0  0  0  0  0  0  0  0  0
   45.4487    3.2469    8.7408 H   0  0  0  0  0  0  0  0  0  0  0  0
   47.8762    6.0290   11.1937 H   0  0  0  0  0  0  0  0  0  0  0  0
   45.0561    8.6648   13.1525 H   0  0  0  0  0  0  0  0  0  0  0  0
   42.9514    1.3168   11.6968 H   0  0  0  0  0  0  0  0  0  0  0  0
   44.2176    1.2292    9.5645 H   0  0  0  0  0  0  0  0  0  0  0  0
   49.6952    7.0593   12.4622 H   0  0  0  0  0  0  0  0  0  0  0  0
   46.9117    9.6858   14.4063 H   0  0  0  0  0  0  0  0  0  0  0  0
   49.2374    8.8894   14.0708 H   0  0  0  0  0  0  0  0  0  0  0  0
  2  3  1  0
  3  1  1  0
  4  1  1  0
  5  4  2  0
  6  1  2  0
  7  2  2  0
  8  3  1  0
  9  4  1  0
 10  5  1  0
 11  8  2  0
 12  8  1  0
 13  9  2  0
 14 13  1  0
 15 11  1  0
 16 12  2  0
 17 16  1  0
  5  2  1  0
 14 10  2  0
 17 15  2  0
  3 18  1  0
  9 19  1  0
 10 20  1  0
 11 21  1  0
 12 22  1  0
 13 23  1  0
 14 24  1  0
 15 25  1  0
 16 26  1  0
 17 27  1  0
M  END
> <Uni-Dock RESULT> 
ENERGY=   -3.933  LOWER_BOUND=    2.766  UPPER_BOUND=    5.685
INTER + INTRA:          -3.933
INTER:                  -3.933
INTRA:                   0.000
UNBOUND:                 0.000

$$$$

     RDKit          3D

 27 29  0  0  0  0  0  0  0  0999 V2000
   48.4251    8.1365   17.2456 C   0  0  0  0  0  0  0  0  0  0  0  0
   48.6743   10.2838   16.2516 C   0  0  0  0  0  0  0  0  0  0  0  0
   48.9307    8.8091   15.9738 C   0  0  0  0  0  0  0  0  0  0  0  0
   47.9036    9.1633   18.1455 C   0  0  0  0  0  0  0  0  0  0  0  0
   48.0516   10.4144   17.5678 C   0  0  0  0  0  0  0  0  0  0  0  0
   48.4507    6.9518   17.5305 O   0  0  0  0  0  0  0  0  0  0  0  0
   48.9309   11.2395   15.5402 O   0  0  0  0  0  0  0  0  0  0  0  0
   48.2911    8.2446   14.7211 C   0  0  0  0  0  0  0  0  0  0  0  0
   47.3396    9.0033   19.3981 C   0  0  0  0  0  0  0  0  0  0  0  0
   47.6419   11.5665   18.2145 C   0  0  0  0  0  0  0  0  0  0  0  0
   47.3300    8.9379   13.9695 C   0  0  0  0  0  0  0  0  0  0  0  0
   48.6627    6.9569   14.2957 C   0  0  0  0  0  0  0  0  0  0  0  0
   46.9179   10.1552   20.0688 C   0  0  0  0  0  0  0  0  0  0  0  0
   47.0679   11.4268   19.4816 C   0  0  0  0  0  0  0  0  0  0  0  0
   46.7651    8.3632   12.8274 C   0  0  0  0  0  0  0  0  0  0  0  0
   48.0956    6.3833   13.1562 C   0  0  0  0  0  0  0  0  0  0  0  0
   47.1471    7.0875   12.4212 C   0  0  0  0  0  0  0  0  0  0  0  0
   50.0202    8.6822   15.9346 H   0  0  0  0  0  0  0  0  0  0  0  0
   47.2291    8.0181   19.8415 H   0  0  0  0  0  0  0  0  0  0  0  0
   47.7626   12.5421   17.7531 H   0  0  0  0  0  0  0  0  0  0  0  0
   47.0080    9.9400   14.2447 H   0  0  0  0  0  0  0  0  0  0  0  0
   49.3945    6.3817   14.8619 H   0  0  0  0  0  0  0  0  0  0  0  0
   46.4681   10.0700   21.0566 H   0  0  0  0  0  0  0  0  0  0  0  0
   46.7324   12.3102   20.0225 H   0  0  0  0  0  0  0  0  0  0  0  0
   46.0269    8.9165   12.2523 H   0  0  0  0  0  0  0  0  0  0  0  0
   48.3936    5.3850   12.8464 H   0  0  0  0  0  0  0  0  0  0  0  0
   46.7057    6.6430   11.5334 H   0  0  0  0  0  0  0  0  0  0  0  0
  2  3  1  0
  3  1  1  0
  4  1  1  0
  5  4  2  0
  6  1  2  0
  7  2  2  0
  8  3  1  0
  9  4  1  0
 10  5  1  0
 11  8  2  0
 12  8  1  0
 13  9  2  0
 14 13  1  0
 15 11  1  0
 16 12  2  0
 17 16  1  0
  5  2  1  0
 14 10  2  0
 17 15  2  0
  3 18  1  0
  9 19  1  0
 10 20  1  0
 11 21  1  0
 12 22  1  0
 13 23  1  0
 14 24  1  0
 15 25  1  0
 16 26  1  0
 17 27  1  0
M  END
> <Uni-Dock RESULT> 
ENERGY=   -3.802  LOWER_BOUND=    6.886  UPPER_BOUND=    9.697
INTER + INTRA:          -3.802
INTER:                  -3.802
INTRA:                   0.000
UNBOUND:                 0.000

$$$$

     RDKit          3D

 27 29  0  0  0  0  0  0  0  0999 V2000
   53.1423    7.3645    9.3747 C   0  0  0  0  0  0  0  0  0  0  0  0
   53.9484    5.3708    8.3566 C   0  0  0  0  0  0  0  0  0  0  0  0
   53.1193    6.6101    8.0496 C   0  0  0  0  0  0  0  0  0  0  0  0
   53.9478    6.6092   10.3322 C   0  0  0  0  0  0  0  0  0  0  0  0
   54.4148    5.4463    9.7402 C   0  0  0  0  0  0  0  0  0  0  0  0
   52.5808    8.4093    9.6546 O   0  0  0  0  0  0  0  0  0  0  0  0
   54.2068    4.4361    7.6185 O   0  0  0  0  0  0  0  0  0  0  0  0
   53.5926    7.4587    6.8866 C   0  0  0  0  0  0  0  0  0  0  0  0
   54.2445    6.9260   11.6454 C   0  0  0  0  0  0  0  0  0  0  0  0
   55.2021    4.5440   10.4324 C   0  0  0  0  0  0  0  0  0  0  0  0
   54.8356    7.2798    6.2603 C   0  0  0  0  0  0  0  0  0  0  0  0
   52.7566    8.4881    6.4187 C   0  0  0  0  0  0  0  0  0  0  0  0
   55.0397    6.0275   12.3629 C   0  0  0  0  0  0  0  0  0  0  0  0
   55.5147    4.8458   11.7612 C   0  0  0  0  0  0  0  0  0  0  0  0
   55.2250    8.1002    5.1976 C   0  0  0  0  0  0  0  0  0  0  0  0
   53.1482    9.3081    5.3588 C   0  0  0  0  0  0  0  0  0  0  0  0
   54.3827    9.1131    4.7474 C   0  0  0  0  0  0  0  0  0  0  0  0
   52.0921    6.2648    7.8750 H   0  0  0  0  0  0  0  0  0  0  0  0
   53.8726    7.8398   12.0994 H   0  0  0  0  0  0  0  0  0  0  0  0
   55.5628    3.6355    9.9593 H   0  0  0  0  0  0  0  0  0  0  0  0
   55.5218    6.4958    6.5730 H   0  0  0  0  0  0  0  0  0  0  0  0
   51.7906    8.6673    6.8895 H   0  0  0  0  0  0  0  0  0  0  0  0
   55.2957    6.2424   13.3992 H   0  0  0  0  0  0  0  0  0  0  0  0
   56.1325    4.1605   12.3394 H   0  0  0  0  0  0  0  0  0  0  0  0
   56.1884    7.9438    4.7187 H   0  0  0  0  0  0  0  0  0  0  0  0
   52.4890   10.1009    5.0147 H   0  0  0  0  0  0  0  0  0  0  0  0
   54.6885    9.7498    3.9216 H   0  0  0  0  0  0  0  0  0  0  0  0
  2  3  1  0
  3  1  1  0
  4  1  1  0
  5  4  2  0
  6  1  2  0
  7  2  2  0
  8  3  1  0
  9  4  1  0
 10  5  1  0
 11  8  2  0
 12  8  1  0
 13  9  2  0
 14 13  1  0
 15 11  1  0
 16 12  2  0
 17 16  1  0
  5  2  1  0
 14 10  2  0
 17 15  2  0
  3 18  1  0
  9 19  1  0
 10 20  1  0
 11 21  1  0
 12 22  1  0
 13 23  1  0
 14 24  1  0
 15 25  1  0
 16 26  1  0
 17 27  1  0
M  END
> <Uni-Dock RESULT> 
ENERGY=   -3.780  LOWER_BOUND=    8.696  UPPER_BOUND=    9.566
INTER + INTRA:          -3.780
INTER:                  -3.780
INTRA:                   0.000
UNBOUND:                 0.000

$$$$

     RDKit          3D

 27 29  0  0  0  0  0  0  0  0999 V2000
   48.1508    6.4094   18.7218 C   0  0  0  0  0  0  0  0  0  0  0  0
   48.2571    5.7776   21.0132 C   0  0  0  0  0  0  0  0  0  0  0  0
   48.5048    5.2259   19.6160 C   0  0  0  0  0  0  0  0  0  0  0  0
   47.7634    7.5377   19.5660 C   0  0  0  0  0  0  0  0  0  0  0  0
   47.8223    7.1688   20.9007 C   0  0  0  0  0  0  0  0  0  0  0  0
   48.1465    6.4564   17.5039 O   0  0  0  0  0  0  0  0  0  0  0  0
   48.3753    5.2027   22.0813 O   0  0  0  0  0  0  0  0  0  0  0  0
   49.8957    4.6872   19.3478 C   0  0  0  0  0  0  0  0  0  0  0  0
   47.3771    8.8083   19.1795 C   0  0  0  0  0  0  0  0  0  0  0  0
   47.4986    8.0530   21.9140 C   0  0  0  0  0  0  0  0  0  0  0  0
   50.9764    4.8799   20.2220 C   0  0  0  0  0  0  0  0  0  0  0  0
   50.1244    3.9728   18.1584 C   0  0  0  0  0  0  0  0  0  0  0  0
   47.0465    9.7179   20.1884 C   0  0  0  0  0  0  0  0  0  0  0  0
   47.1067    9.3432   21.5449 C   0  0  0  0  0  0  0  0  0  0  0  0
   52.2415    4.3690   19.9178 C   0  0  0  0  0  0  0  0  0  0  0  0
   51.3892    3.4654   17.8549 C   0  0  0  0  0  0  0  0  0  0  0  0
   52.4479    3.6630   18.7359 C   0  0  0  0  0  0  0  0  0  0  0  0
   47.7550    4.4415   19.4511 H   0  0  0  0  0  0  0  0  0  0  0  0
   47.3339    9.0864   18.1306 H   0  0  0  0  0  0  0  0  0  0  0  0
   47.5480    7.7538   22.9567 H   0  0  0  0  0  0  0  0  0  0  0  0
   50.8593    5.4177   21.1604 H   0  0  0  0  0  0  0  0  0  0  0  0
   49.3137    3.8160   17.4478 H   0  0  0  0  0  0  0  0  0  0  0  0
   46.7386   10.7283   19.9240 H   0  0  0  0  0  0  0  0  0  0  0  0
   46.8445   10.0683   22.3137 H   0  0  0  0  0  0  0  0  0  0  0  0
   53.0666    4.5212   20.6092 H   0  0  0  0  0  0  0  0  0  0  0  0
   51.5461    2.9194   16.9283 H   0  0  0  0  0  0  0  0  0  0  0  0
   53.4326    3.2677   18.5017 H   0  0  0  0  0  0  0  0  0  0  0  0
  2  3  1  0
  3  1  1  0
  4  1  1  0
  5  4  2  0
  6  1  2  0
  7  2  2  0
  8  3  1  0
  9  4  1  0
 10  5  1  0
 11  8  2  0
 12  8  1  0
 13  9  2  0
 14 13  1  0
 15 11  1  0
 16 12  2  0
 17 16  1  0
  5  2  1  0
 14 10  2  0
 17 15  2  0
  3 18  1  0
  9 19  1  0
 10 20  1  0
 11 21  1  0
 12 22  1  0
 13 23  1  0
 14 24  1  0
 15 25  1  0
 16 26  1  0
 17 27  1  0
M  END
> <Uni-Dock RESULT> 
ENERGY=   -3.703  LOWER_BOUND=   10.204  UPPER_BOUND=   11.690
INTER + INTRA:          -3.703
INTER:                  -3.703
INTRA:                   0.000
UNBOUND:                 0.000

$$$$

     RDKit          3D

 27 29  0  0  0  0  0  0  0  0999 V2000
   46.4935    6.6200   12.7836 C   0  0  0  0  0  0  0  0  0  0  0  0
   46.7162    4.3144   13.3275 C   0  0  0  0  0  0  0  0  0  0  0  0
   47.5089    5.6141   13.3152 C   0  0  0  0  0  0  0  0  0  0  0  0
   45.2271    5.9299   12.5471 C   0  0  0  0  0  0  0  0  0  0  0  0
   45.3576    4.5863   12.8609 C   0  0  0  0  0  0  0  0  0  0  0  0
   46.6604    7.8044   12.5497 O   0  0  0  0  0  0  0  0  0  0  0  0
   47.0974    3.2033   13.6522 O   0  0  0  0  0  0  0  0  0  0  0  0
   48.1144    6.0394   14.6378 C   0  0  0  0  0  0  0  0  0  0  0  0
   44.0363    6.4543   12.0782 C   0  0  0  0  0  0  0  0  0  0  0  0
   44.3033    3.7018   12.7220 C   0  0  0  0  0  0  0  0  0  0  0  0
   47.7936    5.4312   15.8610 C   0  0  0  0  0  0  0  0  0  0  0  0
   49.0306    7.1062   14.6481 C   0  0  0  0  0  0  0  0  0  0  0  0
   42.9575    5.5773   11.9313 C   0  0  0  0  0  0  0  0  0  0  0  0
   43.0900    4.2118   12.2506 C   0  0  0  0  0  0  0  0  0  0  0  0
   48.3754    5.8725   17.0529 C   0  0  0  0  0  0  0  0  0  0  0  0
   49.6088    7.5474   15.8398 C   0  0  0  0  0  0  0  0  0  0  0  0
   49.2816    6.9293   17.0426 C   0  0  0  0  0  0  0  0  0  0  0  0
   48.2947    5.4949   12.5582 H   0  0  0  0  0  0  0  0  0  0  0  0
   43.9454    7.5088   11.8347 H   0  0  0  0  0  0  0  0  0  0  0  0
   44.4162    2.6507   12.9706 H   0  0  0  0  0  0  0  0  0  0  0  0
   47.0975    4.5969   15.9155 H   0  0  0  0  0  0  0  0  0  0  0  0
   49.2929    7.6133   13.7202 H   0  0  0  0  0  0  0  0  0  0  0  0
   42.0030    5.9527   11.5658 H   0  0  0  0  0  0  0  0  0  0  0  0
   42.2363    3.5471   12.1282 H   0  0  0  0  0  0  0  0  0  0  0  0
   48.1213    5.3859   17.9913 H   0  0  0  0  0  0  0  0  0  0  0  0
   50.3118    8.3763   15.8267 H   0  0  0  0  0  0  0  0  0  0  0  0
   49.7317    7.2707   17.9708 H   0  0  0  0  0  0  0  0  0  0  0  0
  2  3  1  0
  3  1  1  0
  4  1  1  0
  5  4  2  0
  6  1  2  0
  7  2  2  0
  8  3  1  0
  9  4  1  0
 10  5  1  0
 11  8  2  0
 12  8  1  0
 13  9  2  0
 14 13  1  0
 15 11  1  0
 16 12  2  0
 17 16  1  0
  5  2  1  0
 14 10  2  0
 17 15  2  0
  3 18  1  0
  9 19  1  0
 10 20  1  0
 11 21  1  0
 12 22  1  0
 13 23  1  0
 14 24  1  0
 15 25  1  0
 16 26  1  0
 17 27  1  0
M  END
> <Uni-Dock RESULT> 
ENERGY=   -3.660  LOWER_BOUND=    4.720  UPPER_BOUND=    6.767
INTER + INTRA:          -3.660
INTER:                  -3.660
INTRA:                   0.000
UNBOUND:                 0.000

$$$$

     RDKit          3D

 27 29  0  0  0  0  0  0  0  0999 V2000
   49.7369    5.5853   21.0803 C   0  0  0  0  0  0  0  0  0  0  0  0
   48.3108    5.0389   19.2558 C   0  0  0  0  0  0  0  0  0  0  0  0
   48.2946    5.7368   20.6087 C   0  0  0  0  0  0  0  0  0  0  0  0
   50.4971    4.8802   20.0503 C   0  0  0  0  0  0  0  0  0  0  0  0
   49.6658    4.5591   18.9889 C   0  0  0  0  0  0  0  0  0  0  0  0
   50.2238    5.9463   22.1376 O   0  0  0  0  0  0  0  0  0  0  0  0
   47.3821    4.8697   18.4850 O   0  0  0  0  0  0  0  0  0  0  0  0
   47.8282    7.1788   20.6106 C   0  0  0  0  0  0  0  0  0  0  0  0
   51.8372    4.5382   20.0531 C   0  0  0  0  0  0  0  0  0  0  0  0
   50.1344    3.8811   17.8781 C   0  0  0  0  0  0  0  0  0  0  0  0
   47.6409    7.9276   19.4386 C   0  0  0  0  0  0  0  0  0  0  0  0
   47.5859    7.8076   21.8448 C   0  0  0  0  0  0  0  0  0  0  0  0
   52.3315    3.8531   18.9392 C   0  0  0  0  0  0  0  0  0  0  0  0
   51.4867    3.5270   17.8602 C   0  0  0  0  0  0  0  0  0  0  0  0
   47.2193    9.2588   19.5008 C   0  0  0  0  0  0  0  0  0  0  0  0
   47.1672    9.1381   21.9052 C   0  0  0  0  0  0  0  0  0  0  0  0
   46.9829    9.8635   20.7323 C   0  0  0  0  0  0  0  0  0  0  0  0
   47.6585    5.1307   21.2666 H   0  0  0  0  0  0  0  0  0  0  0  0
   52.4794    4.7943   20.8906 H   0  0  0  0  0  0  0  0  0  0  0  0
   49.4745    3.6342   17.0517 H   0  0  0  0  0  0  0  0  0  0  0  0
   47.8053    7.4936   18.4547 H   0  0  0  0  0  0  0  0  0  0  0  0
   47.7350    7.2633   22.7767 H   0  0  0  0  0  0  0  0  0  0  0  0
   53.3816    3.5674   18.9039 H   0  0  0  0  0  0  0  0  0  0  0  0
   51.8935    2.9929   17.0031 H   0  0  0  0  0  0  0  0  0  0  0  0
   47.0722    9.8229   18.5831 H   0  0  0  0  0  0  0  0  0  0  0  0
   46.9891    9.6070   22.8695 H   0  0  0  0  0  0  0  0  0  0  0  0
   46.6560   10.8988   20.7776 H   0  0  0  0  0  0  0  0  0  0  0  0
  2  3  1  0
  3  1  1  0
  4  1  1  0
  5  4  2  0
  6  1  2  0
  7  2  2  0
  8  3  1  0
  9  4  1  0
 10  5  1  0
 11  8  2  0
 12  8  1  0
 13  9  2  0
 14 13  1  0
 15 11  1  0
 16 12  2  0
 17 16  1  0
  5  2  1  0
 14 10  2  0
 17 15  2  0
  3 18  1  0
  9 19  1  0
 10 20  1  0
 11 21  1  0
 12 22  1  0
 13 23  1  0
 14 24  1  0
 15 25  1  0
 16 26  1  0
 17 27  1  0
M  END
> <Uni-Dock RESULT> 
ENERGY=   -3.655  LOWER_BOUND=   10.130  UPPER_BOUND=   12.661
INTER + INTRA:          -3.655
INTER:                  -3.655
INTRA:                   0.000
UNBOUND:                 0.000

$$$$
