
     RDKit          3D

 27 29  0  0  0  0  0  0  0  0999 V2000
   44.3174    2.7386    9.5367 C   0  0  0  0  0  0  0  0  0  0  0  0
   45.4240    4.8190    9.2070 C   0  0  0  0  0  0  0  0  0  0  0  0
   44.9184    3.6036    8.4372 C   0  0  0  0  0  0  0  0  0  0  0  0
   44.4990    3.4142   10.8204 C   0  0  0  0  0  0  0  0  0  0  0  0
   45.1463    4.6246   10.6286 C   0  0  0  0  0  0  0  0  0  0  0  0
   43.7589    1.6612    9.4260 O   0  0  0  0  0  0  0  0  0  0  0  0
   45.9526    5.8234    8.7629 O   0  0  0  0  0  0  0  0  0  0  0  0
   45.9982    2.9562    7.5936 C   0  0  0  0  0  0  0  0  0  0  0  0
   44.1159    2.9863   12.0788 C   0  0  0  0  0  0  0  0  0  0  0  0
   45.4413    5.4665   11.6855 C   0  0  0  0  0  0  0  0  0  0  0  0
   46.4374    3.6204    6.4346 C   0  0  0  0  0  0  0  0  0  0  0  0
   46.5970    1.7299    7.9203 C   0  0  0  0  0  0  0  0  0  0  0  0
   44.4059    3.8222   13.1613 C   0  0  0  0  0  0  0  0  0  0  0  0
   45.0634    5.0524   12.9663 C   0  0  0  0  0  0  0  0  0  0  0  0
   47.4382    3.0758    5.6280 C   0  0  0  0  0  0  0  0  0  0  0  0
   47.5972    1.1847    7.1104 C   0  0  0  0  0  0  0  0  0  0  0  0
   48.0177    1.8568    5.9658 C   0  0  0  0  0  0  0  0  0  0  0  0
   44.0839    3.9284    7.8026 H   0  0  0  0  0  0  0  0  0  0  0  0
   43.6089    2.0362   12.2181 H   0  0  0  0  0  0  0  0  0  0  0  0
   45.9484    6.4132   11.5237 H   0  0  0  0  0  0  0  0  0  0  0  0
   46.0069    4.5818    6.1567 H   0  0  0  0  0  0  0  0  0  0  0  0
   46.2941    1.1662    8.8001 H   0  0  0  0  0  0  0  0  0  0  0  0
   44.1206    3.5201   14.1677 H   0  0  0  0  0  0  0  0  0  0  0  0
   45.2791    5.6875   13.8240 H   0  0  0  0  0  0  0  0  0  0  0  0
   47.7664    3.6069    4.7383 H   0  0  0  0  0  0  0  0  0  0  0  0
   48.0462    0.2303    7.3738 H   0  0  0  0  0  0  0  0  0  0  0  0
   48.7959    1.4309    5.3384 H   0  0  0  0  0  0  0  0  0  0  0  0
  2  3  1  0
  3  1  1  0
  4  1  1  0
  5  4  2  0
  6  1  2  0
  7  2  2  0
  8  3  1  0
  9  4  1  0
 10  5  1  0
 11  8  2  0
 12  8  1  0
 13  9  2  0
 14 13  1  0
 15 11  1  0
 16 12  2  0
 17 16  1  0
  5  2  1  0
 14 10  2  0
 17 15  2  0
  3 18  1  0
  9 19  1  0
 10 20  1  0
 11 21  1  0
 12 22  1  0
 13 23  1  0
 14 24  1  0
 15 25  1  0
 16 26  1  0
 17 27  1  0
M  END
> <Uni-Dock RESULT> 
ENERGY=   -6.618  LOWER_BOUND=    0.000  UPPER_BOUND=    0.000
INTER + INTRA:          -6.618
INTER:                  -6.618
INTRA:                   0.000
UNBOUND:                 0.000

$$$$

     RDKit          3D

 27 29  0  0  0  0  0  0  0  0999 V2000
   47.5762    6.9886   12.6509 C   0  0  0  0  0  0  0  0  0  0  0  0
   45.8350    8.6073   12.7481 C   0  0  0  0  0  0  0  0  0  0  0  0
   46.0947    7.1220   12.9757 C   0  0  0  0  0  0  0  0  0  0  0  0
   48.0907    8.2972   12.2504 C   0  0  0  0  0  0  0  0  0  0  0  0
   47.0757    9.2393   12.3041 C   0  0  0  0  0  0  0  0  0  0  0  0
   48.2717    5.9895   12.7054 O   0  0  0  0  0  0  0  0  0  0  0  0
   44.7972    9.2235   12.9175 O   0  0  0  0  0  0  0  0  0  0  0  0
   45.1550    6.2366   12.1822 C   0  0  0  0  0  0  0  0  0  0  0  0
   49.3753    8.6340   11.8633 C   0  0  0  0  0  0  0  0  0  0  0  0
   47.2958   10.5644   11.9741 C   0  0  0  0  0  0  0  0  0  0  0  0
   43.8087    6.1546   12.5802 C   0  0  0  0  0  0  0  0  0  0  0  0
   45.5574    5.5039   11.0552 C   0  0  0  0  0  0  0  0  0  0  0  0
   49.6188    9.9684   11.5244 C   0  0  0  0  0  0  0  0  0  0  0  0
   48.5873   10.9259   11.5793 C   0  0  0  0  0  0  0  0  0  0  0  0
   42.8970    5.3645   11.8777 C   0  0  0  0  0  0  0  0  0  0  0  0
   44.6439    4.7113   10.3544 C   0  0  0  0  0  0  0  0  0  0  0  0
   43.3153    4.6418   10.7648 C   0  0  0  0  0  0  0  0  0  0  0  0
   45.9901    6.9212   14.0497 H   0  0  0  0  0  0  0  0  0  0  0  0
   50.1636    7.8881   11.8249 H   0  0  0  0  0  0  0  0  0  0  0  0
   46.4931   11.2945   12.0203 H   0  0  0  0  0  0  0  0  0  0  0  0
   43.4556    6.7210   13.4411 H   0  0  0  0  0  0  0  0  0  0  0  0
   46.5869    5.5215   10.7038 H   0  0  0  0  0  0  0  0  0  0  0  0
   50.6171   10.2727   11.2142 H   0  0  0  0  0  0  0  0  0  0  0  0
   48.7997   11.9595   11.3108 H   0  0  0  0  0  0  0  0  0  0  0  0
   41.8598    5.3177   12.1992 H   0  0  0  0  0  0  0  0  0  0  0  0
   44.9735    4.1443    9.4873 H   0  0  0  0  0  0  0  0  0  0  0  0
   42.6073    4.0253   10.2177 H   0  0  0  0  0  0  0  0  0  0  0  0
  2  3  1  0
  3  1  1  0
  4  1  1  0
  5  4  2  0
  6  1  2  0
  7  2  2  0
  8  3  1  0
  9  4  1  0
 10  5  1  0
 11  8  2  0
 12  8  1  0
 13  9  2  0
 14 13  1  0
 15 11  1  0
 16 12  2  0
 17 16  1  0
  5  2  1  0
 14 10  2  0
 17 15  2  0
  3 18  1  0
  9 19  1  0
 10 20  1  0
 11 21  1  0
 12 22  1  0
 13 23  1  0
 14 24  1  0
 15 25  1  0
 16 26  1  0
 17 27  1  0
M  END
> <Uni-Dock RESULT> 
ENERGY=   -4.311  LOWER_BOUND=    3.862  UPPER_BOUND=    6.464
INTER + INTRA:          -4.311
INTER:                  -4.311
INTRA:                   0.000
UNBOUND:                 0.000

$$$$

     RDKit          3D

 27 29  0  0  0  0  0  0  0  0999 V2000
   46.4445    3.9215   13.3256 C   0  0  0  0  0  0  0  0  0  0  0  0
   46.3552    6.2992   13.3225 C   0  0  0  0  0  0  0  0  0  0  0  0
   47.2495    5.1413   13.7527 C   0  0  0  0  0  0  0  0  0  0  0  0
   45.1890    4.3713   12.7267 C   0  0  0  0  0  0  0  0  0  0  0  0
   45.1358    5.7562   12.7277 C   0  0  0  0  0  0  0  0  0  0  0  0
   46.7469    2.7458   13.4308 O   0  0  0  0  0  0  0  0  0  0  0  0
   46.5789    7.4941   13.4095 O   0  0  0  0  0  0  0  0  0  0  0  0
   47.6300    5.2105   15.2179 C   0  0  0  0  0  0  0  0  0  0  0  0
   44.1586    3.6047   12.2127 C   0  0  0  0  0  0  0  0  0  0  0  0
   44.0500    6.4422   12.2141 C   0  0  0  0  0  0  0  0  0  0  0  0
   48.5488    6.1919   15.6304 C   0  0  0  0  0  0  0  0  0  0  0  0
   47.0972    4.3522   16.1918 C   0  0  0  0  0  0  0  0  0  0  0  0
   43.0510    4.2786   11.6896 C   0  0  0  0  0  0  0  0  0  0  0  0
   42.9971    5.6861   11.6904 C   0  0  0  0  0  0  0  0  0  0  0  0
   48.9247    6.3088   16.9698 C   0  0  0  0  0  0  0  0  0  0  0  0
   47.4764    4.4689   17.5321 C   0  0  0  0  0  0  0  0  0  0  0  0
   48.3888    5.4461   17.9208 C   0  0  0  0  0  0  0  0  0  0  0  0
   48.1497    5.1582   13.1249 H   0  0  0  0  0  0  0  0  0  0  0  0
   44.2105    2.5200   12.2164 H   0  0  0  0  0  0  0  0  0  0  0  0
   44.0191    7.5277   12.2195 H   0  0  0  0  0  0  0  0  0  0  0  0
   48.9724    6.8862   14.9057 H   0  0  0  0  0  0  0  0  0  0  0  0
   46.3881    3.5690   15.9323 H   0  0  0  0  0  0  0  0  0  0  0  0
   42.2194    3.7103   11.2762 H   0  0  0  0  0  0  0  0  0  0  0  0
   42.1245    6.1899   11.2778 H   0  0  0  0  0  0  0  0  0  0  0  0
   49.6335    7.0767   17.2689 H   0  0  0  0  0  0  0  0  0  0  0  0
   47.0595    3.7915   18.2731 H   0  0  0  0  0  0  0  0  0  0  0  0
   48.6813    5.5350   18.9635 H   0  0  0  0  0  0  0  0  0  0  0  0
  2  3  1  0
  3  1  1  0
  4  1  1  0
  5  4  2  0
  6  1  2  0
  7  2  2  0
  8  3  1  0
  9  4  1  0
 10  5  1  0
 11  8  2  0
 12  8  1  0
 13  9  2  0
 14 13  1  0
 15 11  1  0
 16 12  2  0
 17 16  1  0
  5  2  1  0
 14 10  2  0
 17 15  2  0
  3 18  1  0
  9 19  1  0
 10 20  1  0
 11 21  1  0
 12 22  1  0
 13 23  1  0
 14 24  1  0
 15 25  1  0
 16 26  1  0
 17 27  1  0
M  END
> <Uni-Dock RESULT> 
ENERGY=   -4.168  LOWER_BOUND=    4.485  UPPER_BOUND=    6.885
INTER + INTRA:          -4.168
INTER:                  -4.168
INTRA:                   0.000
UNBOUND:                 0.000

$$$$

     RDKit          3D

 27 29  0  0  0  0  0  0  0  0999 V2000
   43.6631   11.5803   10.8617 C   0  0  0  0  0  0  0  0  0  0  0  0
   43.0902    9.2774   11.0348 C   0  0  0  0  0  0  0  0  0  0  0  0
   42.5100   10.6200   10.6034 C   0  0  0  0  0  0  0  0  0  0  0  0
   44.7873   10.8285   11.4169 C   0  0  0  0  0  0  0  0  0  0  0  0
   44.4525    9.4876   11.5205 C   0  0  0  0  0  0  0  0  0  0  0  0
   43.7044   12.7802   10.6532 O   0  0  0  0  0  0  0  0  0  0  0  0
   42.5643    8.1792   10.9810 O   0  0  0  0  0  0  0  0  0  0  0  0
   41.2037   10.9427   11.3005 C   0  0  0  0  0  0  0  0  0  0  0  0
   46.0284   11.2998   11.8056 C   0  0  0  0  0  0  0  0  0  0  0  0
   45.3425    8.5525   12.0171 C   0  0  0  0  0  0  0  0  0  0  0  0
   40.0502   10.2252   10.9369 C   0  0  0  0  0  0  0  0  0  0  0  0
   41.0889   11.9137   12.3069 C   0  0  0  0  0  0  0  0  0  0  0  0
   46.9426   10.3710   12.3116 C   0  0  0  0  0  0  0  0  0  0  0  0
   46.6024    9.0082   12.4166 C   0  0  0  0  0  0  0  0  0  0  0  0
   38.8235   10.4725   11.5556 C   0  0  0  0  0  0  0  0  0  0  0  0
   39.8593   12.1619   12.9237 C   0  0  0  0  0  0  0  0  0  0  0  0
   38.7280   11.4422   12.5489 C   0  0  0  0  0  0  0  0  0  0  0  0
   42.3637   10.5914    9.5160 H   0  0  0  0  0  0  0  0  0  0  0  0
   46.2809   12.3525   11.7199 H   0  0  0  0  0  0  0  0  0  0  0  0
   45.0697    7.5041   12.0933 H   0  0  0  0  0  0  0  0  0  0  0  0
   40.1032    9.4530   10.1703 H   0  0  0  0  0  0  0  0  0  0  0  0
   41.9442   12.5057   12.6256 H   0  0  0  0  0  0  0  0  0  0  0  0
   47.9298   10.7032   12.6286 H   0  0  0  0  0  0  0  0  0  0  0  0
   47.3302    8.3024   12.8136 H   0  0  0  0  0  0  0  0  0  0  0  0
   37.9444    9.9043   11.2629 H   0  0  0  0  0  0  0  0  0  0  0  0
   39.7859   12.9226   13.6970 H   0  0  0  0  0  0  0  0  0  0  0  0
   37.7737   11.6368   13.0306 H   0  0  0  0  0  0  0  0  0  0  0  0
  2  3  1  0
  3  1  1  0
  4  1  1  0
  5  4  2  0
  6  1  2  0
  7  2  2  0
  8  3  1  0
  9  4  1  0
 10  5  1  0
 11  8  2  0
 12  8  1  0
 13  9  2  0
 14 13  1  0
 15 11  1  0
 16 12  2  0
 17 16  1  0
  5  2  1  0
 14 10  2  0
 17 15  2  0
  3 18  1  0
  9 19  1  0
 10 20  1  0
 11 21  1  0
 12 22  1  0
 13 23  1  0
 14 24  1  0
 15 25  1  0
 16 26  1  0
 17 27  1  0
M  END
> <Uni-Dock RESULT> 
ENERGY=   -4.129  LOWER_BOUND=    6.484  UPPER_BOUND=    9.410
INTER + INTRA:          -4.129
INTER:                  -4.129
INTRA:                   0.000
UNBOUND:                 0.000

$$$$

     RDKit          3D

 27 29  0  0  0  0  0  0  0  0999 V2000
   51.9082    4.5651   18.4049 C   0  0  0  0  0  0  0  0  0  0  0  0
   50.2481    3.1294   17.4862 C   0  0  0  0  0  0  0  0  0  0  0  0
   50.4633    4.5739   17.9251 C   0  0  0  0  0  0  0  0  0  0  0  0
   52.4435    3.2119   18.2643 C   0  0  0  0  0  0  0  0  0  0  0  0
   51.4754    2.3751   17.7320 C   0  0  0  0  0  0  0  0  0  0  0  0
   52.5641    5.4976   18.8352 O   0  0  0  0  0  0  0  0  0  0  0  0
   49.2530    2.6369   16.9837 O   0  0  0  0  0  0  0  0  0  0  0  0
   49.4289    5.0389   18.9303 C   0  0  0  0  0  0  0  0  0  0  0  0
   53.7068    2.7494   18.5862 C   0  0  0  0  0  0  0  0  0  0  0  0
   51.7236    1.0352   17.4949 C   0  0  0  0  0  0  0  0  0  0  0  0
   48.1155    5.2744   18.4865 C   0  0  0  0  0  0  0  0  0  0  0  0
   49.7118    5.2314   20.2912 C   0  0  0  0  0  0  0  0  0  0  0  0
   53.9780    1.3975   18.3553 C   0  0  0  0  0  0  0  0  0  0  0  0
   52.9942    0.5471   17.8141 C   0  0  0  0  0  0  0  0  0  0  0  0
   47.1201    5.6914   19.3720 C   0  0  0  0  0  0  0  0  0  0  0  0
   48.7146    5.6513   21.1761 C   0  0  0  0  0  0  0  0  0  0  0  0
   47.4202    5.8809   20.7173 C   0  0  0  0  0  0  0  0  0  0  0  0
   50.4344    5.2073   17.0293 H   0  0  0  0  0  0  0  0  0  0  0  0
   54.4583    3.4136   19.0026 H   0  0  0  0  0  0  0  0  0  0  0  0
   50.9577    0.3885   17.0768 H   0  0  0  0  0  0  0  0  0  0  0  0
   47.8541    5.1212   17.4401 H   0  0  0  0  0  0  0  0  0  0  0  0
   50.7106    5.0723   20.6920 H   0  0  0  0  0  0  0  0  0  0  0  0
   54.9608    0.9955   18.5962 H   0  0  0  0  0  0  0  0  0  0  0  0
   53.2275   -0.5025   17.6426 H   0  0  0  0  0  0  0  0  0  0  0  0
   46.1100    5.8643   19.0098 H   0  0  0  0  0  0  0  0  0  0  0  0
   48.9519    5.8024   22.2262 H   0  0  0  0  0  0  0  0  0  0  0  0
   46.6469    6.2066   21.4076 H   0  0  0  0  0  0  0  0  0  0  0  0
  2  3  1  0
  3  1  1  0
  4  1  1  0
  5  4  2  0
  6  1  2  0
  7  2  2  0
  8  3  1  0
  9  4  1  0
 10  5  1  0
 11  8  2  0
 12  8  1  0
 13  9  2  0
 14 13  1  0
 15 11  1  0
 16 12  2  0
 17 16  1  0
  5  2  1  0
 14 10  2  0
 17 15  2  0
  3 18  1  0
  9 19  1  0
 10 20  1  0
 11 21  1  0
 12 22  1  0
 13 23  1  0
 14 24  1  0
 15 25  1  0
 16 26  1  0
 17 27  1  0
M  END
> <Uni-Dock RESULT> 
ENERGY=   -4.126  LOWER_BOUND=    9.676  UPPER_BOUND=   11.925
INTER + INTRA:          -4.126
INTER:                  -4.126
INTRA:                   0.000
UNBOUND:                 0.000

$$$$

     RDKit          3D

 27 29  0  0  0  0  0  0  0  0999 V2000
   45.4645    5.7170   10.1829 C   0  0  0  0  0  0  0  0  0  0  0  0
   44.2465    5.8036   12.2251 C   0  0  0  0  0  0  0  0  0  0  0  0
   45.1270    6.6647   11.3258 C   0  0  0  0  0  0  0  0  0  0  0  0
   44.8377    4.4222   10.4435 C   0  0  0  0  0  0  0  0  0  0  0  0
   44.1308    4.4719   11.6345 C   0  0  0  0  0  0  0  0  0  0  0  0
   46.1315    5.9443    9.1888 O   0  0  0  0  0  0  0  0  0  0  0  0
   43.6852    6.1252   13.2580 O   0  0  0  0  0  0  0  0  0  0  0  0
   46.3056    7.2656   12.0650 C   0  0  0  0  0  0  0  0  0  0  0  0
   44.8886    3.2726    9.6759 C   0  0  0  0  0  0  0  0  0  0  0  0
   43.4396    3.3747   12.1157 C   0  0  0  0  0  0  0  0  0  0  0  0
   46.0679    8.3058   12.9810 C   0  0  0  0  0  0  0  0  0  0  0  0
   47.6264    6.8238   11.8941 C   0  0  0  0  0  0  0  0  0  0  0  0
   44.1975    2.1515   10.1451 C   0  0  0  0  0  0  0  0  0  0  0  0
   43.4788    2.2021   11.3554 C   0  0  0  0  0  0  0  0  0  0  0  0
   47.1150    8.8867   13.6986 C   0  0  0  0  0  0  0  0  0  0  0  0
   48.6741    7.4081   12.6115 C   0  0  0  0  0  0  0  0  0  0  0  0
   48.4189    8.4381   13.5128 C   0  0  0  0  0  0  0  0  0  0  0  0
   44.5006    7.4589   10.8997 H   0  0  0  0  0  0  0  0  0  0  0  0
   45.4452    3.2443    8.7439 H   0  0  0  0  0  0  0  0  0  0  0  0
   42.8883    3.4249   13.0501 H   0  0  0  0  0  0  0  0  0  0  0  0
   45.0539    8.6654   13.1519 H   0  0  0  0  0  0  0  0  0  0  0  0
   47.8733    6.0280   11.1946 H   0  0  0  0  0  0  0  0  0  0  0  0
   44.2139    1.2275    9.5693 H   0  0  0  0  0  0  0  0  0  0  0  0
   42.9479    1.3168   11.7016 H   0  0  0  0  0  0  0  0  0  0  0  0
   46.9098    9.6870   14.4048 H   0  0  0  0  0  0  0  0  0  0  0  0
   49.6927    7.0588   12.4622 H   0  0  0  0  0  0  0  0  0  0  0  0
   49.2352    8.8900   14.0697 H   0  0  0  0  0  0  0  0  0  0  0  0
  2  3  1  0
  3  1  1  0
  4  1  1  0
  5  4  2  0
  6  1  2  0
  7  2  2  0
  8  3  1  0
  9  4  1  0
 10  5  1  0
 11  8  2  0
 12  8  1  0
 13  9  2  0
 14 13  1  0
 15 11  1  0
 16 12  2  0
 17 16  1  0
  5  2  1  0
 14 10  2  0
 17 15  2  0
  3 18  1  0
  9 19  1  0
 10 20  1  0
 11 21  1  0
 12 22  1  0
 13 23  1  0
 14 24  1  0
 15 25  1  0
 16 26  1  0
 17 27  1  0
M  END
> <Uni-Dock RESULT> 
ENERGY=   -3.932  LOWER_BOUND=    2.764  UPPER_BOUND=    5.682
INTER + INTRA:          -3.932
INTER:                  -3.932
INTRA:                   0.000
UNBOUND:                 0.000

$$$$

     RDKit          3D

 27 29  0  0  0  0  0  0  0  0999 V2000
   49.9675    5.0801   18.3481 C   0  0  0  0  0  0  0  0  0  0  0  0
   51.2358    4.8081   20.3427 C   0  0  0  0  0  0  0  0  0  0  0  0
   51.3632    4.7045   18.8267 C   0  0  0  0  0  0  0  0  0  0  0  0
   49.1257    5.3475   19.5131 C   0  0  0  0  0  0  0  0  0  0  0  0
   49.8637    5.1861   20.6749 C   0  0  0  0  0  0  0  0  0  0  0  0
   49.5633    5.1686   17.2019 O   0  0  0  0  0  0  0  0  0  0  0  0
   52.1030    4.6424   21.1829 O   0  0  0  0  0  0  0  0  0  0  0  0
   51.8827    3.3543   18.3754 C   0  0  0  0  0  0  0  0  0  0  0  0
   47.7914    5.7111   19.5443 C   0  0  0  0  0  0  0  0  0  0  0  0
   49.3039    5.3811   21.9246 C   0  0  0  0  0  0  0  0  0  0  0  0
   53.2353    3.0425   18.6008 C   0  0  0  0  0  0  0  0  0  0  0  0
   51.0756    2.3879   17.7561 C   0  0  0  0  0  0  0  0  0  0  0  0
   47.2057    5.9121   20.7978 C   0  0  0  0  0  0  0  0  0  0  0  0
   47.9560    5.7483   21.9785 C   0  0  0  0  0  0  0  0  0  0  0  0
   53.7635    1.8085   18.2172 C   0  0  0  0  0  0  0  0  0  0  0  0
   51.6065    1.1538   17.3703 C   0  0  0  0  0  0  0  0  0  0  0  0
   52.9487    0.8642   17.6007 C   0  0  0  0  0  0  0  0  0  0  0  0
   52.0359    5.5031   18.4885 H   0  0  0  0  0  0  0  0  0  0  0  0
   47.2221    5.8353   18.6279 H   0  0  0  0  0  0  0  0  0  0  0  0
   49.8918    5.2525   22.8286 H   0  0  0  0  0  0  0  0  0  0  0  0
   53.8895    3.7614   19.0927 H   0  0  0  0  0  0  0  0  0  0  0  0
   50.0239    2.5741   17.5487 H   0  0  0  0  0  0  0  0  0  0  0  0
   46.1574    6.1986   20.8638 H   0  0  0  0  0  0  0  0  0  0  0  0
   47.4793    5.9100   22.9440 H   0  0  0  0  0  0  0  0  0  0  0  0
   54.8108    1.5855   18.4039 H   0  0  0  0  0  0  0  0  0  0  0  0
   50.9691    0.4186   16.8853 H   0  0  0  0  0  0  0  0  0  0  0  0
   53.3585   -0.0963   17.3003 H   0  0  0  0  0  0  0  0  0  0  0  0
  2  3  1  0
  3  1  1  0
  4  1  1  0
  5  4  2  0
  6  1  2  0
  7  2  2  0
  8  3  1  0
  9  4  1  0
 10  5  1  0
 11  8  2  0
 12  8  1  0
 13  9  2  0
 14 13  1  0
 15 11  1  0
 16 12  2  0
 17 16  1  0
  5  2  1  0
 14 10  2  0
 17 15  2  0
  3 18  1  0
  9 19  1  0
 10 20  1  0
 11 21  1  0
 12 22  1  0
 13 23  1  0
 14 24  1  0
 15 25  1  0
 16 26  1  0
 17 27  1  0
M  END
> <Uni-Dock RESULT> 
ENERGY=   -3.912  LOWER_BOUND=   10.217  UPPER_BOUND=   11.504
INTER + INTRA:          -3.912
INTER:                  -3.912
INTRA:                   0.000
UNBOUND:                 0.000

$$$$

     RDKit          3D

 27 29  0  0  0  0  0  0  0  0999 V2000
   46.6983   11.8778   19.9311 C   0  0  0  0  0  0  0  0  0  0  0  0
   47.4878    9.8556   18.9570 C   0  0  0  0  0  0  0  0  0  0  0  0
   46.7289   10.3749   20.1735 C   0  0  0  0  0  0  0  0  0  0  0  0
   47.4081   12.1692   18.6867 C   0  0  0  0  0  0  0  0  0  0  0  0
   47.8705   10.9915   18.1209 C   0  0  0  0  0  0  0  0  0  0  0  0
   46.1785   12.7404   20.6172 O   0  0  0  0  0  0  0  0  0  0  0  0
   47.7383    8.6992   18.6648 O   0  0  0  0  0  0  0  0  0  0  0  0
   47.3440    9.9222   21.4824 C   0  0  0  0  0  0  0  0  0  0  0  0
   47.6309   13.3979   18.0916 C   0  0  0  0  0  0  0  0  0  0  0  0
   48.5775   10.9849   16.9322 C   0  0  0  0  0  0  0  0  0  0  0  0
   47.2087    8.5745   21.8606 C   0  0  0  0  0  0  0  0  0  0  0  0
   48.0595   10.7792   22.3326 C   0  0  0  0  0  0  0  0  0  0  0  0
   48.3447   13.4135   16.8896 C   0  0  0  0  0  0  0  0  0  0  0  0
   48.8144   12.2166   16.3145 C   0  0  0  0  0  0  0  0  0  0  0  0
   47.7665    8.1008   23.0494 C   0  0  0  0  0  0  0  0  0  0  0  0
   48.6152   10.3038   23.5238 C   0  0  0  0  0  0  0  0  0  0  0  0
   48.4693    8.9663   23.8818 C   0  0  0  0  0  0  0  0  0  0  0  0
   45.6914   10.0245   20.0997 H   0  0  0  0  0  0  0  0  0  0  0  0
   47.2639   14.3148   18.5431 H   0  0  0  0  0  0  0  0  0  0  0  0
   48.9347   10.0560   16.4974 H   0  0  0  0  0  0  0  0  0  0  0  0
   46.6732    7.8757   21.2191 H   0  0  0  0  0  0  0  0  0  0  0  0
   48.1912   11.8331   22.0972 H   0  0  0  0  0  0  0  0  0  0  0  0
   48.5408   14.3612   16.3908 H   0  0  0  0  0  0  0  0  0  0  0  0
   49.3682   12.2525   15.3777 H   0  0  0  0  0  0  0  0  0  0  0  0
   47.6541    7.0546   23.3218 H   0  0  0  0  0  0  0  0  0  0  0  0
   49.1608   10.9825   24.1747 H   0  0  0  0  0  0  0  0  0  0  0  0
   48.9030    8.5994   24.8080 H   0  0  0  0  0  0  0  0  0  0  0  0
  2  3  1  0
  3  1  1  0
  4  1  1  0
  5  4  2  0
  6  1  2  0
  7  2  2  0
  8  3  1  0
  9  4  1  0
 10  5  1  0
 11  8  2  0
 12  8  1  0
 13  9  2  0
 14 13  1  0
 15 11  1  0
 16 12  2  0
 17 16  1  0
  5  2  1  0
 14 10  2  0
 17 15  2  0
  3 18  1  0
  9 19  1  0
 10 20  1  0
 11 21  1  0
 12 22  1  0
 13 23  1  0
 14 24  1  0
 15 25  1  0
 16 26  1  0
 17 27  1  0
M  END
> <Uni-Dock RESULT> 
ENERGY=   -3.905  LOWER_BOUND=   11.519  UPPER_BOUND=   14.138
INTER + INTRA:          -3.905
INTER:                  -3.905
INTRA:                   0.000
UNBOUND:                 0.000

$$$$

     RDKit          3D

 27 29  0  0  0  0  0  0  0  0999 V2000
   48.6721   10.3039   16.3071 C   0  0  0  0  0  0  0  0  0  0  0  0
   48.4688    8.1459   17.2887 C   0  0  0  0  0  0  0  0  0  0  0  0
   48.9595    8.8364   16.0206 C   0  0  0  0  0  0  0  0  0  0  0  0
   48.0473   10.4135   17.6243 C   0  0  0  0  0  0  0  0  0  0  0  0
   47.9262    9.1562   18.1947 C   0  0  0  0  0  0  0  0  0  0  0  0
   48.9080   11.2687   15.6013 O   0  0  0  0  0  0  0  0  0  0  0  0
   48.5197    6.9604   17.5667 O   0  0  0  0  0  0  0  0  0  0  0  0
   48.3315    8.2659   14.7649 C   0  0  0  0  0  0  0  0  0  0  0  0
   47.6135   11.5528   18.2779 C   0  0  0  0  0  0  0  0  0  0  0  0
   47.3661    8.9769   19.4466 C   0  0  0  0  0  0  0  0  0  0  0  0
   48.7301    6.9887   14.3319 C   0  0  0  0  0  0  0  0  0  0  0  0
   47.3557    8.9430   14.0176 C   0  0  0  0  0  0  0  0  0  0  0  0
   47.0431   11.3935   19.5443 C   0  0  0  0  0  0  0  0  0  0  0  0
   46.9204   10.1157   20.1241 C   0  0  0  0  0  0  0  0  0  0  0  0
   48.1749    6.4100   13.1893 C   0  0  0  0  0  0  0  0  0  0  0  0
   46.8025    8.3632   12.8724 C   0  0  0  0  0  0  0  0  0  0  0  0
   47.2113    7.0981   12.4587 C   0  0  0  0  0  0  0  0  0  0  0  0
   50.0514    8.7330   15.9803 H   0  0  0  0  0  0  0  0  0  0  0  0
   47.7133   12.5335   17.8222 H   0  0  0  0  0  0  0  0  0  0  0  0
   47.2767    7.9870   19.8843 H   0  0  0  0  0  0  0  0  0  0  0  0
   49.4741    6.4260   14.8946 H   0  0  0  0  0  0  0  0  0  0  0  0
   47.0126    9.9364   14.2987 H   0  0  0  0  0  0  0  0  0  0  0  0
   46.6892   12.2664   20.0904 H   0  0  0  0  0  0  0  0  0  0  0  0
   46.4729   10.0152   21.1116 H   0  0  0  0  0  0  0  0  0  0  0  0
   48.4937    5.4200   12.8735 H   0  0  0  0  0  0  0  0  0  0  0  0
   46.0525    8.9040   12.3007 H   0  0  0  0  0  0  0  0  0  0  0  0
   46.7790    6.6496   11.5685 H   0  0  0  0  0  0  0  0  0  0  0  0
  2  3  1  0
  3  1  1  0
  4  1  1  0
  5  4  2  0
  6  1  2  0
  7  2  2  0
  8  3  1  0
  9  4  1  0
 10  5  1  0
 11  8  2  0
 12  8  1  0
 13  9  2  0
 14 13  1  0
 15 11  1  0
 16 12  2  0
 17 16  1  0
  5  2  1  0
 14 10  2  0
 17 15  2  0
  3 18  1  0
  9 19  1  0
 10 20  1  0
 11 21  1  0
 12 22  1  0
 13 23  1  0
 14 24  1  0
 15 25  1  0
 16 26  1  0
 17 27  1  0
M  END
> <Uni-Dock RESULT> 
ENERGY=   -3.810  LOWER_BOUND=    6.916  UPPER_BOUND=    9.727
INTER + INTRA:          -3.810
INTER:                  -3.810
INTRA:                   0.000
UNBOUND:                 0.000

$$$$
