
     RDKit          3D

 27 29  0  0  0  0  0  0  0  0999 V2000
   45.5756    4.3502    8.4302 C   0  0  0  0  0  0  0  0  0  0  0  0
   44.7546    2.2484    9.1849 C   0  0  0  0  0  0  0  0  0  0  0  0
   44.5526    3.7442    9.3848 C   0  0  0  0  0  0  0  0  0  0  0  0
   46.3058    3.2677    7.7738 C   0  0  0  0  0  0  0  0  0  0  0  0
   45.8256    2.0434    8.2111 C   0  0  0  0  0  0  0  0  0  0  0  0
   45.7766    5.5287    8.1930 O   0  0  0  0  0  0  0  0  0  0  0  0
   44.1510    1.3303    9.7119 O   0  0  0  0  0  0  0  0  0  0  0  0
   44.7040    4.2545   10.8038 C   0  0  0  0  0  0  0  0  0  0  0  0
   47.3260    3.3583    6.8442 C   0  0  0  0  0  0  0  0  0  0  0  0
   46.3428    0.8498    7.7406 C   0  0  0  0  0  0  0  0  0  0  0  0
   45.2249    3.4765   11.8489 C   0  0  0  0  0  0  0  0  0  0  0  0
   44.3210    5.5771   11.0892 C   0  0  0  0  0  0  0  0  0  0  0  0
   47.8635    2.1634    6.3564 C   0  0  0  0  0  0  0  0  0  0  0  0
   47.3757    0.9191    6.8011 C   0  0  0  0  0  0  0  0  0  0  0  0
   45.3523    4.0034   13.1373 C   0  0  0  0  0  0  0  0  0  0  0  0
   44.4511    6.1027   12.3760 C   0  0  0  0  0  0  0  0  0  0  0  0
   44.9661    5.3149   13.4007 C   0  0  0  0  0  0  0  0  0  0  0  0
   43.5514    3.9793    9.0012 H   0  0  0  0  0  0  0  0  0  0  0  0
   47.6943    4.3231    6.5081 H   0  0  0  0  0  0  0  0  0  0  0  0
   45.9590   -0.1043    8.0897 H   0  0  0  0  0  0  0  0  0  0  0  0
   45.5314    2.4447   11.6909 H   0  0  0  0  0  0  0  0  0  0  0  0
   43.9265    6.2166   10.3003 H   0  0  0  0  0  0  0  0  0  0  0  0
   48.6688    2.1935    5.6242 H   0  0  0  0  0  0  0  0  0  0  0  0
   47.8094    0.0012    6.4073 H   0  0  0  0  0  0  0  0  0  0  0  0
   45.7514    3.3852   13.9375 H   0  0  0  0  0  0  0  0  0  0  0  0
   44.1529    7.1287   12.5752 H   0  0  0  0  0  0  0  0  0  0  0  0
   45.0668    5.7220   14.4031 H   0  0  0  0  0  0  0  0  0  0  0  0
  2  3  1  0
  3  1  1  0
  4  1  1  0
  5  4  2  0
  6  1  2  0
  7  2  2  0
  8  3  1  0
  9  4  1  0
 10  5  1  0
 11  8  2  0
 12  8  1  0
 13  9  2  0
 14 13  1  0
 15 11  1  0
 16 12  2  0
 17 16  1  0
  5  2  1  0
 14 10  2  0
 17 15  2  0
  3 18  1  0
  9 19  1  0
 10 20  1  0
 11 21  1  0
 12 22  1  0
 13 23  1  0
 14 24  1  0
 15 25  1  0
 16 26  1  0
 17 27  1  0
M  END
> <Uni-Dock RESULT> 
ENERGY=   -6.048  LOWER_BOUND=    0.000  UPPER_BOUND=    0.000
INTER + INTRA:          -6.048
INTER:                  -6.048
INTRA:                   0.000
UNBOUND:                 0.000

$$$$

     RDKit          3D

 27 29  0  0  0  0  0  0  0  0999 V2000
   45.9777    4.7904   12.9992 C   0  0  0  0  0  0  0  0  0  0  0  0
   44.9035    6.6582   11.9898 C   0  0  0  0  0  0  0  0  0  0  0  0
   44.8211    5.1399   12.0689 C   0  0  0  0  0  0  0  0  0  0  0  0
   46.6630    6.0233   13.3818 C   0  0  0  0  0  0  0  0  0  0  0  0
   46.0355    7.1115   12.7963 C   0  0  0  0  0  0  0  0  0  0  0  0
   46.3058    3.6910   13.4103 O   0  0  0  0  0  0  0  0  0  0  0  0
   44.1734    7.4209   11.3814 O   0  0  0  0  0  0  0  0  0  0  0  0
   44.8887    4.3980   10.7491 C   0  0  0  0  0  0  0  0  0  0  0  0
   47.7675    6.1749   14.2003 C   0  0  0  0  0  0  0  0  0  0  0  0
   46.4826    8.4045   13.0002 C   0  0  0  0  0  0  0  0  0  0  0  0
   45.2393    5.0140    9.5382 C   0  0  0  0  0  0  0  0  0  0  0  0
   44.6032    3.0211   10.7342 C   0  0  0  0  0  0  0  0  0  0  0  0
   48.2362    7.4738   14.4189 C   0  0  0  0  0  0  0  0  0  0  0  0
   47.5987    8.5798   13.8237 C   0  0  0  0  0  0  0  0  0  0  0  0
   45.2963    4.2773    8.3517 C   0  0  0  0  0  0  0  0  0  0  0  0
   44.6630    2.2861    9.5488 C   0  0  0  0  0  0  0  0  0  0  0  0
   45.0088    2.9150    8.3568 C   0  0  0  0  0  0  0  0  0  0  0  0
   43.8846    4.9036   12.5903 H   0  0  0  0  0  0  0  0  0  0  0  0
   48.2512    5.3151   14.6545 H   0  0  0  0  0  0  0  0  0  0  0  0
   45.9834    9.2504   12.5369 H   0  0  0  0  0  0  0  0  0  0  0  0
   45.4637    6.0773    9.4856 H   0  0  0  0  0  0  0  0  0  0  0  0
   44.3420    2.5048   11.6573 H   0  0  0  0  0  0  0  0  0  0  0  0
   49.1041    7.6339   15.0566 H   0  0  0  0  0  0  0  0  0  0  0  0
   47.9810    9.5825   14.0081 H   0  0  0  0  0  0  0  0  0  0  0  0
   45.5630    4.7712    7.4206 H   0  0  0  0  0  0  0  0  0  0  0  0
   44.4426    1.2219    9.5590 H   0  0  0  0  0  0  0  0  0  0  0  0
   45.0545    2.3448    7.4330 H   0  0  0  0  0  0  0  0  0  0  0  0
  2  3  1  0
  3  1  1  0
  4  1  1  0
  5  4  2  0
  6  1  2  0
  7  2  2  0
  8  3  1  0
  9  4  1  0
 10  5  1  0
 11  8  2  0
 12  8  1  0
 13  9  2  0
 14 13  1  0
 15 11  1  0
 16 12  2  0
 17 16  1  0
  5  2  1  0
 14 10  2  0
 17 15  2  0
  3 18  1  0
  9 19  1  0
 10 20  1  0
 11 21  1  0
 12 22  1  0
 13 23  1  0
 14 24  1  0
 15 25  1  0
 16 26  1  0
 17 27  1  0
M  END
> <Uni-Dock RESULT> 
ENERGY=   -5.485  LOWER_BOUND=    2.522  UPPER_BOUND=    6.203
INTER + INTRA:          -5.485
INTER:                  -5.485
INTRA:                   0.000
UNBOUND:                 0.000

$$$$

     RDKit          3D

 27 29  0  0  0  0  0  0  0  0999 V2000
   46.3400    5.1027   13.4349 C   0  0  0  0  0  0  0  0  0  0  0  0
   45.3038    7.0202   12.4805 C   0  0  0  0  0  0  0  0  0  0  0  0
   45.1389    5.5104   12.5884 C   0  0  0  0  0  0  0  0  0  0  0  0
   47.1231    6.2966   13.7466 C   0  0  0  0  0  0  0  0  0  0  0  0
   46.5180    7.4139   13.1932 C   0  0  0  0  0  0  0  0  0  0  0  0
   46.6333    3.9902   13.8369 O   0  0  0  0  0  0  0  0  0  0  0  0
   44.5757    7.8184   11.9169 O   0  0  0  0  0  0  0  0  0  0  0  0
   45.0632    4.7518   11.2786 C   0  0  0  0  0  0  0  0  0  0  0  0
   48.2933    6.3910   14.4780 C   0  0  0  0  0  0  0  0  0  0  0  0
   47.0540    8.6802   13.3437 C   0  0  0  0  0  0  0  0  0  0  0  0
   45.3569    5.3330   10.0357 C   0  0  0  0  0  0  0  0  0  0  0  0
   44.6974    3.3943   11.3058 C   0  0  0  0  0  0  0  0  0  0  0  0
   48.8523    7.6620   14.6413 C   0  0  0  0  0  0  0  0  0  0  0  0
   48.2374    8.7976   14.0787 C   0  0  0  0  0  0  0  0  0  0  0  0
   45.2811    4.5816    8.8595 C   0  0  0  0  0  0  0  0  0  0  0  0
   44.6245    2.6445   10.1305 C   0  0  0  0  0  0  0  0  0  0  0  0
   44.9155    3.2389    8.9066 C   0  0  0  0  0  0  0  0  0  0  0  0
   44.2322    5.3358   13.1818 H   0  0  0  0  0  0  0  0  0  0  0  0
   48.7587    5.5089   14.9076 H   0  0  0  0  0  0  0  0  0  0  0  0
   46.5717    9.5493   12.9062 H   0  0  0  0  0  0  0  0  0  0  0  0
   45.6385    6.3804    9.9505 H   0  0  0  0  0  0  0  0  0  0  0  0
   44.4768    2.9043   12.2535 H   0  0  0  0  0  0  0  0  0  0  0  0
   49.7737    7.7770   15.2099 H   0  0  0  0  0  0  0  0  0  0  0  0
   48.6906    9.7777   14.2190 H   0  0  0  0  0  0  0  0  0  0  0  0
   45.5052    5.0488    7.9038 H   0  0  0  0  0  0  0  0  0  0  0  0
   44.3436    1.5954   10.1732 H   0  0  0  0  0  0  0  0  0  0  0  0
   44.8580    2.6572    7.9907 H   0  0  0  0  0  0  0  0  0  0  0  0
  2  3  1  0
  3  1  1  0
  4  1  1  0
  5  4  2  0
  6  1  2  0
  7  2  2  0
  8  3  1  0
  9  4  1  0
 10  5  1  0
 11  8  2  0
 12  8  1  0
 13  9  2  0
 14 13  1  0
 15 11  1  0
 16 12  2  0
 17 16  1  0
  5  2  1  0
 14 10  2  0
 17 15  2  0
  3 18  1  0
  9 19  1  0
 10 20  1  0
 11 21  1  0
 12 22  1  0
 13 23  1  0
 14 24  1  0
 15 25  1  0
 16 26  1  0
 17 27  1  0
M  END
> <Uni-Dock RESULT> 
ENERGY=   -4.971  LOWER_BOUND=    2.931  UPPER_BOUND=    6.441
INTER + INTRA:          -4.971
INTER:                  -4.971
INTRA:                   0.000
UNBOUND:                 0.000

$$$$

     RDKit          3D

 27 29  0  0  0  0  0  0  0  0999 V2000
   45.0998    7.1913   12.0175 C   0  0  0  0  0  0  0  0  0  0  0  0
   46.3837    5.7657   13.4250 C   0  0  0  0  0  0  0  0  0  0  0  0
   46.2141    7.2335   13.0577 C   0  0  0  0  0  0  0  0  0  0  0  0
   44.7045    5.8000   11.8077 C   0  0  0  0  0  0  0  0  0  0  0  0
   45.4502    4.9699   12.6296 C   0  0  0  0  0  0  0  0  0  0  0  0
   44.5701    8.1277   11.4450 O   0  0  0  0  0  0  0  0  0  0  0  0
   47.1450    5.2772   14.2414 O   0  0  0  0  0  0  0  0  0  0  0  0
   47.4551    7.9437   12.5554 C   0  0  0  0  0  0  0  0  0  0  0  0
   43.7425    5.2994   10.9492 C   0  0  0  0  0  0  0  0  0  0  0  0
   45.2707    3.5983   12.6325 C   0  0  0  0  0  0  0  0  0  0  0  0
   48.6394    7.2730   12.2141 C   0  0  0  0  0  0  0  0  0  0  0  0
   47.4183    9.3415   12.4062 C   0  0  0  0  0  0  0  0  0  0  0  0
   43.5458    3.9152   10.9360 C   0  0  0  0  0  0  0  0  0  0  0  0
   44.3038    3.0715   11.7711 C   0  0  0  0  0  0  0  0  0  0  0  0
   49.7509    7.9790   11.7450 C   0  0  0  0  0  0  0  0  0  0  0  0
   48.5284   10.0449   11.9352 C   0  0  0  0  0  0  0  0  0  0  0  0
   49.6956    9.3632   11.6055 C   0  0  0  0  0  0  0  0  0  0  0  0
   45.8235    7.7371   13.9513 H   0  0  0  0  0  0  0  0  0  0  0  0
   43.1635    5.9591   10.3098 H   0  0  0  0  0  0  0  0  0  0  0  0
   45.8602    2.9567   13.2808 H   0  0  0  0  0  0  0  0  0  0  0  0
   48.7305    6.1936   12.3151 H   0  0  0  0  0  0  0  0  0  0  0  0
   46.5114    9.8953   12.6465 H   0  0  0  0  0  0  0  0  0  0  0  0
   42.7981    3.4830   10.2728 H   0  0  0  0  0  0  0  0  0  0  0  0
   44.1334    1.9963   11.7442 H   0  0  0  0  0  0  0  0  0  0  0  0
   50.6633    7.4450   11.4914 H   0  0  0  0  0  0  0  0  0  0  0  0
   48.4784   11.1248   11.8232 H   0  0  0  0  0  0  0  0  0  0  0  0
   50.5610    9.9092   11.2400 H   0  0  0  0  0  0  0  0  0  0  0  0
  2  3  1  0
  3  1  1  0
  4  1  1  0
  5  4  2  0
  6  1  2  0
  7  2  2  0
  8  3  1  0
  9  4  1  0
 10  5  1  0
 11  8  2  0
 12  8  1  0
 13  9  2  0
 14 13  1  0
 15 11  1  0
 16 12  2  0
 17 16  1  0
  5  2  1  0
 14 10  2  0
 17 15  2  0
  3 18  1  0
  9 19  1  0
 10 20  1  0
 11 21  1  0
 12 22  1  0
 13 23  1  0
 14 24  1  0
 15 25  1  0
 16 26  1  0
 17 27  1  0
M  END
> <Uni-Dock RESULT> 
ENERGY=   -4.469  LOWER_BOUND=    3.924  UPPER_BOUND=    5.609
INTER + INTRA:          -4.469
INTER:                  -4.469
INTRA:                   0.000
UNBOUND:                 0.000

$$$$

     RDKit          3D

 27 29  0  0  0  0  0  0  0  0999 V2000
   45.3067    7.3107   12.4333 C   0  0  0  0  0  0  0  0  0  0  0  0
   46.6753    5.6804   13.4965 C   0  0  0  0  0  0  0  0  0  0  0  0
   46.5469    7.1862   13.3118 C   0  0  0  0  0  0  0  0  0  0  0  0
   44.8057    5.9708   12.1339 C   0  0  0  0  0  0  0  0  0  0  0  0
   45.6011    5.0213   12.7555 C   0  0  0  0  0  0  0  0  0  0  0  0
   44.7637    8.3282   12.0394 O   0  0  0  0  0  0  0  0  0  0  0  0
   47.5058    5.0699   14.1465 O   0  0  0  0  0  0  0  0  0  0  0  0
   47.7522    7.8919   12.7237 C   0  0  0  0  0  0  0  0  0  0  0  0
   43.7126    5.6131   11.3656 C   0  0  0  0  0  0  0  0  0  0  0  0
   45.3426    3.6674   12.6386 C   0  0  0  0  0  0  0  0  0  0  0  0
   48.8404    7.2114   12.1567 C   0  0  0  0  0  0  0  0  0  0  0  0
   47.7792    9.2979   12.7285 C   0  0  0  0  0  0  0  0  0  0  0  0
   43.4341    4.2493   11.2338 C   0  0  0  0  0  0  0  0  0  0  0  0
   44.2427    3.2843   11.8654 C   0  0  0  0  0  0  0  0  0  0  0  0
   49.9216    7.9149   11.6183 C   0  0  0  0  0  0  0  0  0  0  0  0
   48.8587    9.9992   12.1882 C   0  0  0  0  0  0  0  0  0  0  0  0
   49.9308    9.3072   11.6338 C   0  0  0  0  0  0  0  0  0  0  0  0
   46.3059    7.6035   14.2980 H   0  0  0  0  0  0  0  0  0  0  0  0
   43.0957    6.3656   10.8834 H   0  0  0  0  0  0  0  0  0  0  0  0
   45.9720    2.9315   13.1301 H   0  0  0  0  0  0  0  0  0  0  0  0
   48.8797    6.1244   12.1304 H   0  0  0  0  0  0  0  0  0  0  0  0
   46.9456    9.8613   13.1462 H   0  0  0  0  0  0  0  0  0  0  0  0
   42.5825    3.9280   10.6362 H   0  0  0  0  0  0  0  0  0  0  0  0
   44.0067    2.2276   11.7489 H   0  0  0  0  0  0  0  0  0  0  0  0
   50.7602    7.3724   11.1889 H   0  0  0  0  0  0  0  0  0  0  0  0
   48.8586   11.0861   12.1981 H   0  0  0  0  0  0  0  0  0  0  0  0
   50.7724    9.8514   11.2140 H   0  0  0  0  0  0  0  0  0  0  0  0
  2  3  1  0
  3  1  1  0
  4  1  1  0
  5  4  2  0
  6  1  2  0
  7  2  2  0
  8  3  1  0
  9  4  1  0
 10  5  1  0
 11  8  2  0
 12  8  1  0
 13  9  2  0
 14 13  1  0
 15 11  1  0
 16 12  2  0
 17 16  1  0
  5  2  1  0
 14 10  2  0
 17 15  2  0
  3 18  1  0
  9 19  1  0
 10 20  1  0
 11 21  1  0
 12 22  1  0
 13 23  1  0
 14 24  1  0
 15 25  1  0
 16 26  1  0
 17 27  1  0
M  END
> <Uni-Dock RESULT> 
ENERGY=   -4.391  LOWER_BOUND=    4.095  UPPER_BOUND=    5.820
INTER + INTRA:          -4.391
INTER:                  -4.391
INTRA:                   0.000
UNBOUND:                 0.000

$$$$

     RDKit          3D

 27 29  0  0  0  0  0  0  0  0999 V2000
   45.3702    7.6761   12.5627 C   0  0  0  0  0  0  0  0  0  0  0  0
   46.6623    5.9060   13.4893 C   0  0  0  0  0  0  0  0  0  0  0  0
   46.6433    7.4232   13.3631 C   0  0  0  0  0  0  0  0  0  0  0  0
   44.7491    6.3911   12.2481 C   0  0  0  0  0  0  0  0  0  0  0  0
   45.5001    5.3602   12.7903 C   0  0  0  0  0  0  0  0  0  0  0  0
   44.8885    8.7466   12.2353 O   0  0  0  0  0  0  0  0  0  0  0  0
   47.4766    5.2091   14.0693 O   0  0  0  0  0  0  0  0  0  0  0  0
   47.8664    8.0557   12.7299 C   0  0  0  0  0  0  0  0  0  0  0  0
   43.5904    6.1481   11.5330 C   0  0  0  0  0  0  0  0  0  0  0  0
   45.1292    4.0357   12.6433 C   0  0  0  0  0  0  0  0  0  0  0  0
   48.8644    7.3154   12.0782 C   0  0  0  0  0  0  0  0  0  0  0  0
   48.0047    9.4543   12.7803 C   0  0  0  0  0  0  0  0  0  0  0  0
   43.1981    4.8158   11.3719 C   0  0  0  0  0  0  0  0  0  0  0  0
   43.9614    3.7681   11.9228 C   0  0  0  0  0  0  0  0  0  0  0  0
   49.9664    7.9535   11.5019 C   0  0  0  0  0  0  0  0  0  0  0  0
   49.1047   10.0904   12.2021 C   0  0  0  0  0  0  0  0  0  0  0  0
   50.0865    9.3393   11.5635 C   0  0  0  0  0  0  0  0  0  0  0  0
   46.4910    7.8200   14.3750 H   0  0  0  0  0  0  0  0  0  0  0  0
   43.0093    6.9636   11.1129 H   0  0  0  0  0  0  0  0  0  0  0  0
   45.7247    3.2353   13.0725 H   0  0  0  0  0  0  0  0  0  0  0  0
   48.8161    6.2304   12.0133 H   0  0  0  0  0  0  0  0  0  0  0  0
   47.2426   10.0640   13.2644 H   0  0  0  0  0  0  0  0  0  0  0  0
   42.2921    4.5840   10.8143 H   0  0  0  0  0  0  0  0  0  0  0  0
   43.6366    2.7379   11.7848 H   0  0  0  0  0  0  0  0  0  0  0  0
   50.7345    7.3647   11.0066 H   0  0  0  0  0  0  0  0  0  0  0  0
   49.1912   11.1728   12.2485 H   0  0  0  0  0  0  0  0  0  0  0  0
   50.9440    9.8326   11.1141 H   0  0  0  0  0  0  0  0  0  0  0  0
  2  3  1  0
  3  1  1  0
  4  1  1  0
  5  4  2  0
  6  1  2  0
  7  2  2  0
  8  3  1  0
  9  4  1  0
 10  5  1  0
 11  8  2  0
 12  8  1  0
 13  9  2  0
 14 13  1  0
 15 11  1  0
 16 12  2  0
 17 16  1  0
  5  2  1  0
 14 10  2  0
 17 15  2  0
  3 18  1  0
  9 19  1  0
 10 20  1  0
 11 21  1  0
 12 22  1  0
 13 23  1  0
 14 24  1  0
 15 25  1  0
 16 26  1  0
 17 27  1  0
M  END
> <Uni-Dock RESULT> 
ENERGY=   -4.338  LOWER_BOUND=    4.314  UPPER_BOUND=    6.060
INTER + INTRA:          -4.338
INTER:                  -4.338
INTRA:                   0.000
UNBOUND:                 0.000

$$$$

     RDKit          3D

 27 29  0  0  0  0  0  0  0  0999 V2000
   46.3268    6.4395   13.2918 C   0  0  0  0  0  0  0  0  0  0  0  0
   48.5961    7.1548   13.2943 C   0  0  0  0  0  0  0  0  0  0  0  0
   47.7314    5.9447   13.6198 C   0  0  0  0  0  0  0  0  0  0  0  0
   46.4096    7.8285   12.8450 C   0  0  0  0  0  0  0  0  0  0  0  0
   47.7316    8.2443   12.8436 C   0  0  0  0  0  0  0  0  0  0  0  0
   45.2792    5.8191   13.3473 O   0  0  0  0  0  0  0  0  0  0  0  0
   49.8082    7.2557   13.3685 O   0  0  0  0  0  0  0  0  0  0  0  0
   47.8450    5.4031   15.0307 C   0  0  0  0  0  0  0  0  0  0  0  0
   45.3824    8.6703   12.4583 C   0  0  0  0  0  0  0  0  0  0  0  0
   48.0910    9.5226   12.4560 C   0  0  0  0  0  0  0  0  0  0  0  0
   48.5095    6.0819   16.0634 C   0  0  0  0  0  0  0  0  0  0  0  0
   47.2424    4.1681   15.3295 C   0  0  0  0  0  0  0  0  0  0  0  0
   45.7240    9.9673   12.0636 C   0  0  0  0  0  0  0  0  0  0  0  0
   47.0677   10.3900   12.0624 C   0  0  0  0  0  0  0  0  0  0  0  0
   48.5736    5.5394   17.3500 C   0  0  0  0  0  0  0  0  0  0  0  0
   47.3051    3.6287   16.6156 C   0  0  0  0  0  0  0  0  0  0  0  0
   47.9720    4.3145   17.6260 C   0  0  0  0  0  0  0  0  0  0  0  0
   47.9943    5.1666   12.8917 H   0  0  0  0  0  0  0  0  0  0  0  0
   44.3499    8.3338   12.4628 H   0  0  0  0  0  0  0  0  0  0  0  0
   49.1301    9.8383   12.4582 H   0  0  0  0  0  0  0  0  0  0  0  0
   49.0009    7.0372   15.8914 H   0  0  0  0  0  0  0  0  0  0  0  0
   46.7045    3.6189   14.5575 H   0  0  0  0  0  0  0  0  0  0  0  0
   44.9433   10.6599   11.7532 H   0  0  0  0  0  0  0  0  0  0  0  0
   47.3104   11.4047   11.7508 H   0  0  0  0  0  0  0  0  0  0  0  0
   49.0983    6.0749   18.1373 H   0  0  0  0  0  0  0  0  0  0  0  0
   46.8295    2.6746   16.8271 H   0  0  0  0  0  0  0  0  0  0  0  0
   48.0229    3.8955   18.6273 H   0  0  0  0  0  0  0  0  0  0  0  0
  2  3  1  0
  3  1  1  0
  4  1  1  0
  5  4  2  0
  6  1  2  0
  7  2  2  0
  8  3  1  0
  9  4  1  0
 10  5  1  0
 11  8  2  0
 12  8  1  0
 13  9  2  0
 14 13  1  0
 15 11  1  0
 16 12  2  0
 17 16  1  0
  5  2  1  0
 14 10  2  0
 17 15  2  0
  3 18  1  0
  9 19  1  0
 10 20  1  0
 11 21  1  0
 12 22  1  0
 13 23  1  0
 14 24  1  0
 15 25  1  0
 16 26  1  0
 17 27  1  0
M  END
> <Uni-Dock RESULT> 
ENERGY=   -4.138  LOWER_BOUND=    5.644  UPPER_BOUND=    7.267
INTER + INTRA:          -4.138
INTER:                  -4.138
INTRA:                   0.000
UNBOUND:                 0.000

$$$$

     RDKit          3D

 27 29  0  0  0  0  0  0  0  0999 V2000
   49.3419    5.6683   16.5459 C   0  0  0  0  0  0  0  0  0  0  0  0
   47.8233    3.8642   16.8627 C   0  0  0  0  0  0  0  0  0  0  0  0
   49.0466    4.5127   17.4960 C   0  0  0  0  0  0  0  0  0  0  0  0
   48.3695    5.6410   15.4552 C   0  0  0  0  0  0  0  0  0  0  0  0
   47.4831    4.5920   15.6413 C   0  0  0  0  0  0  0  0  0  0  0  0
   50.2102    6.5180   16.6429 O   0  0  0  0  0  0  0  0  0  0  0  0
   47.1873    2.9051   17.2636 O   0  0  0  0  0  0  0  0  0  0  0  0
   50.2456    3.6105   17.7086 C   0  0  0  0  0  0  0  0  0  0  0  0
   48.2702    6.4928   14.3700 C   0  0  0  0  0  0  0  0  0  0  0  0
   46.4544    4.3432   14.7506 C   0  0  0  0  0  0  0  0  0  0  0  0
   50.3460    2.3232   17.1594 C   0  0  0  0  0  0  0  0  0  0  0  0
   51.3206    4.0881   18.4792 C   0  0  0  0  0  0  0  0  0  0  0  0
   47.2376    6.2582   13.4570 C   0  0  0  0  0  0  0  0  0  0  0  0
   46.3369    5.1919   13.6459 C   0  0  0  0  0  0  0  0  0  0  0  0
   51.4817    1.5387   17.3796 C   0  0  0  0  0  0  0  0  0  0  0  0
   52.4553    3.3043   18.6961 C   0  0  0  0  0  0  0  0  0  0  0  0
   52.5353    2.0285   18.1468 C   0  0  0  0  0  0  0  0  0  0  0  0
   48.7162    4.9375   18.4526 H   0  0  0  0  0  0  0  0  0  0  0  0
   48.9700    7.3121   14.2343 H   0  0  0  0  0  0  0  0  0  0  0  0
   45.7650    3.5185   14.9058 H   0  0  0  0  0  0  0  0  0  0  0  0
   49.5439    1.8967   16.5608 H   0  0  0  0  0  0  0  0  0  0  0  0
   51.2857    5.0885   18.9093 H   0  0  0  0  0  0  0  0  0  0  0  0
   47.1273    6.9066   12.5893 H   0  0  0  0  0  0  0  0  0  0  0  0
   45.5402    5.0282   12.9219 H   0  0  0  0  0  0  0  0  0  0  0  0
   51.5407    0.5406   16.9526 H   0  0  0  0  0  0  0  0  0  0  0  0
   53.2772    3.6933   19.2915 H   0  0  0  0  0  0  0  0  0  0  0  0
   53.4171    1.4166   18.3157 H   0  0  0  0  0  0  0  0  0  0  0  0
  2  3  1  0
  3  1  1  0
  4  1  1  0
  5  4  2  0
  6  1  2  0
  7  2  2  0
  8  3  1  0
  9  4  1  0
 10  5  1  0
 11  8  2  0
 12  8  1  0
 13  9  2  0
 14 13  1  0
 15 11  1  0
 16 12  2  0
 17 16  1  0
  5  2  1  0
 14 10  2  0
 17 15  2  0
  3 18  1  0
  9 19  1  0
 10 20  1  0
 11 21  1  0
 12 22  1  0
 13 23  1  0
 14 24  1  0
 15 25  1  0
 16 26  1  0
 17 27  1  0
M  END
> <Uni-Dock RESULT> 
ENERGY=   -4.086  LOWER_BOUND=    6.288  UPPER_BOUND=    8.746
INTER + INTRA:          -4.086
INTER:                  -4.086
INTRA:                   0.000
UNBOUND:                 0.000

$$$$

     RDKit          3D

 27 29  0  0  0  0  0  0  0  0999 V2000
   51.7416    4.7584   18.3302 C   0  0  0  0  0  0  0  0  0  0  0  0
   49.9862    3.2642   17.7409 C   0  0  0  0  0  0  0  0  0  0  0  0
   50.2327    4.7197   18.1135 C   0  0  0  0  0  0  0  0  0  0  0  0
   52.2819    3.4170   18.1192 C   0  0  0  0  0  0  0  0  0  0  0  0
   51.2599    2.5472   17.7730 C   0  0  0  0  0  0  0  0  0  0  0  0
   52.4368    5.7205   18.6065 O   0  0  0  0  0  0  0  0  0  0  0  0
   48.9307    2.7308   17.4471 O   0  0  0  0  0  0  0  0  0  0  0  0
   49.4580    5.2439   19.3059 C   0  0  0  0  0  0  0  0  0  0  0  0
   53.5944    2.9926   18.2207 C   0  0  0  0  0  0  0  0  0  0  0  0
   51.5006    1.2102   17.5122 C   0  0  0  0  0  0  0  0  0  0  0  0
   48.7338    4.4154   20.1766 C   0  0  0  0  0  0  0  0  0  0  0  0
   49.4760    6.6256   19.5673 C   0  0  0  0  0  0  0  0  0  0  0  0
   53.8593    1.6444   17.9619 C   0  0  0  0  0  0  0  0  0  0  0  0
   52.8206    0.7604   17.6104 C   0  0  0  0  0  0  0  0  0  0  0  0
   48.0461    4.9531   21.2682 C   0  0  0  0  0  0  0  0  0  0  0  0
   48.7906    7.1608   20.6594 C   0  0  0  0  0  0  0  0  0  0  0  0
   48.0745    6.3241   21.5097 C   0  0  0  0  0  0  0  0  0  0  0  0
   50.0040    5.3150   17.2202 H   0  0  0  0  0  0  0  0  0  0  0  0
   54.3875    3.6829   18.4922 H   0  0  0  0  0  0  0  0  0  0  0  0
   50.6925    0.5371   17.2414 H   0  0  0  0  0  0  0  0  0  0  0  0
   48.6769    3.3400   20.0218 H   0  0  0  0  0  0  0  0  0  0  0  0
   50.0397    7.2987   18.9224 H   0  0  0  0  0  0  0  0  0  0  0  0
   54.8800    1.2721   18.0326 H   0  0  0  0  0  0  0  0  0  0  0  0
   53.0503   -0.2856   17.4131 H   0  0  0  0  0  0  0  0  0  0  0  0
   47.4840    4.2982   21.9294 H   0  0  0  0  0  0  0  0  0  0  0  0
   48.8202    8.2311   20.8464 H   0  0  0  0  0  0  0  0  0  0  0  0
   47.5395    6.7391   22.3594 H   0  0  0  0  0  0  0  0  0  0  0  0
  2  3  1  0
  3  1  1  0
  4  1  1  0
  5  4  2  0
  6  1  2  0
  7  2  2  0
  8  3  1  0
  9  4  1  0
 10  5  1  0
 11  8  2  0
 12  8  1  0
 13  9  2  0
 14 13  1  0
 15 11  1  0
 16 12  2  0
 17 16  1  0
  5  2  1  0
 14 10  2  0
 17 15  2  0
  3 18  1  0
  9 19  1  0
 10 20  1  0
 11 21  1  0
 12 22  1  0
 13 23  1  0
 14 24  1  0
 15 25  1  0
 16 26  1  0
 17 27  1  0
M  END
> <Uni-Dock RESULT> 
ENERGY=   -3.877  LOWER_BOUND=    9.720  UPPER_BOUND=   10.777
INTER + INTRA:          -3.877
INTER:                  -3.877
INTRA:                   0.000
UNBOUND:                 0.000

$$$$
