
     RDKit          3D

 27 29  0  0  0  0  0  0  0  0999 V2000
   44.3261    2.7212    9.5620 C   0  0  0  0  0  0  0  0  0  0  0  0
   45.4138    4.8088    9.2157 C   0  0  0  0  0  0  0  0  0  0  0  0
   44.9107    3.5870    8.4545 C   0  0  0  0  0  0  0  0  0  0  0  0
   44.5139    3.4024   10.8419 C   0  0  0  0  0  0  0  0  0  0  0  0
   45.1502    4.6170   10.6404 C   0  0  0  0  0  0  0  0  0  0  0  0
   43.7748    1.6392    9.4598 O   0  0  0  0  0  0  0  0  0  0  0  0
   45.9308    5.8157    8.7637 O   0  0  0  0  0  0  0  0  0  0  0  0
   45.9878    2.9450    7.6035 C   0  0  0  0  0  0  0  0  0  0  0  0
   44.1451    2.9758   12.1050 C   0  0  0  0  0  0  0  0  0  0  0  0
   45.4481    5.4647   11.6920 C   0  0  0  0  0  0  0  0  0  0  0  0
   46.5988    1.7245    7.9289 C   0  0  0  0  0  0  0  0  0  0  0  0
   46.4116    3.6087    6.4384 C   0  0  0  0  0  0  0  0  0  0  0  0
   44.4383    3.8174   13.1822 C   0  0  0  0  0  0  0  0  0  0  0  0
   45.0847    5.0520   12.9773 C   0  0  0  0  0  0  0  0  0  0  0  0
   47.5960    1.1842    7.1118 C   0  0  0  0  0  0  0  0  0  0  0  0
   47.4094    3.0690    5.6247 C   0  0  0  0  0  0  0  0  0  0  0  0
   48.0011    1.8555    5.9613 C   0  0  0  0  0  0  0  0  0  0  0  0
   44.0681    3.9035    7.8263 H   0  0  0  0  0  0  0  0  0  0  0  0
   43.6467    2.0223   12.2519 H   0  0  0  0  0  0  0  0  0  0  0  0
   45.9466    6.4146   11.5226 H   0  0  0  0  0  0  0  0  0  0  0  0
   46.3081    1.1613    8.8131 H   0  0  0  0  0  0  0  0  0  0  0  0
   45.9714    4.5659    6.1611 H   0  0  0  0  0  0  0  0  0  0  0  0
   44.1644    3.5166   14.1922 H   0  0  0  0  0  0  0  0  0  0  0  0
   45.3033    5.6914   13.8311 H   0  0  0  0  0  0  0  0  0  0  0  0
   48.0545    0.2340    7.3743 H   0  0  0  0  0  0  0  0  0  0  0  0
   47.7257    3.5997    4.7304 H   0  0  0  0  0  0  0  0  0  0  0  0
   48.7769    1.4334    5.3284 H   0  0  0  0  0  0  0  0  0  0  0  0
  2  3  1  0
  3  1  1  0
  4  1  1  0
  5  4  2  0
  6  1  2  0
  7  2  2  0
  8  3  1  0
  9  4  1  0
 10  5  1  0
 11  8  2  0
 12  8  1  0
 13  9  2  0
 14 13  1  0
 15 11  1  0
 16 12  2  0
 17 16  1  0
  5  2  1  0
 14 10  2  0
 17 15  2  0
  3 18  1  0
  9 19  1  0
 10 20  1  0
 11 21  1  0
 12 22  1  0
 13 23  1  0
 14 24  1  0
 15 25  1  0
 16 26  1  0
 17 27  1  0
M  END
> <Uni-Dock RESULT> 
ENERGY=   -6.611  LOWER_BOUND=    0.000  UPPER_BOUND=    0.000
INTER + INTRA:          -6.611
INTER:                  -6.611
INTRA:                   0.000
UNBOUND:                 0.000

$$$$

     RDKit          3D

 27 29  0  0  0  0  0  0  0  0999 V2000
   45.5085    4.3656    8.4065 C   0  0  0  0  0  0  0  0  0  0  0  0
   44.7439    2.2271    9.1162 C   0  0  0  0  0  0  0  0  0  0  0  0
   44.4828    3.7150    9.3245 C   0  0  0  0  0  0  0  0  0  0  0  0
   46.2936    3.3165    7.7582 C   0  0  0  0  0  0  0  0  0  0  0  0
   45.8501    2.0709    8.1739 C   0  0  0  0  0  0  0  0  0  0  0  0
   45.6869    5.5531    8.1990 O   0  0  0  0  0  0  0  0  0  0  0  0
   44.1463    1.2836    9.6039 O   0  0  0  0  0  0  0  0  0  0  0  0
   44.5415    4.1194   10.7838 C   0  0  0  0  0  0  0  0  0  0  0  0
   47.3341    3.4539    6.8571 C   0  0  0  0  0  0  0  0  0  0  0  0
   46.4249    0.9022    7.7084 C   0  0  0  0  0  0  0  0  0  0  0  0
   45.6002    4.8572   11.3350 C   0  0  0  0  0  0  0  0  0  0  0  0
   43.4948    3.7242   11.6357 C   0  0  0  0  0  0  0  0  0  0  0  0
   47.9299    2.2846    6.3751 C   0  0  0  0  0  0  0  0  0  0  0  0
   47.4789    1.0188    6.7974 C   0  0  0  0  0  0  0  0  0  0  0  0
   45.6072    5.1929   12.6919 C   0  0  0  0  0  0  0  0  0  0  0  0
   43.5044    4.0581   12.9912 C   0  0  0  0  0  0  0  0  0  0  0  0
   44.5608    4.7938   13.5191 C   0  0  0  0  0  0  0  0  0  0  0  0
   43.4953    3.9469    8.9052 H   0  0  0  0  0  0  0  0  0  0  0  0
   47.6738    4.4346    6.5377 H   0  0  0  0  0  0  0  0  0  0  0  0
   46.0691   -0.0687    8.0405 H   0  0  0  0  0  0  0  0  0  0  0  0
   46.4341    5.1973   10.7247 H   0  0  0  0  0  0  0  0  0  0  0  0
   42.6631    3.1373   11.2474 H   0  0  0  0  0  0  0  0  0  0  0  0
   48.7524    2.3514    5.6647 H   0  0  0  0  0  0  0  0  0  0  0  0
   47.9580    0.1215    6.4089 H   0  0  0  0  0  0  0  0  0  0  0  0
   46.4316    5.7711   13.1018 H   0  0  0  0  0  0  0  0  0  0  0  0
   42.6877    3.7397   13.6337 H   0  0  0  0  0  0  0  0  0  0  0  0
   44.5693    5.0558   14.5736 H   0  0  0  0  0  0  0  0  0  0  0  0
  2  3  1  0
  3  1  1  0
  4  1  1  0
  5  4  2  0
  6  1  2  0
  7  2  2  0
  8  3  1  0
  9  4  1  0
 10  5  1  0
 11  8  2  0
 12  8  1  0
 13  9  2  0
 14 13  1  0
 15 11  1  0
 16 12  2  0
 17 16  1  0
  5  2  1  0
 14 10  2  0
 17 15  2  0
  3 18  1  0
  9 19  1  0
 10 20  1  0
 11 21  1  0
 12 22  1  0
 13 23  1  0
 14 24  1  0
 15 25  1  0
 16 26  1  0
 17 27  1  0
M  END
> <Uni-Dock RESULT> 
ENERGY=   -5.868  LOWER_BOUND=    0.818  UPPER_BOUND=    5.697
INTER + INTRA:          -5.868
INTER:                  -5.868
INTRA:                   0.000
UNBOUND:                 0.000

$$$$

     RDKit          3D

 27 29  0  0  0  0  0  0  0  0999 V2000
   47.6864    7.2858   12.5886 C   0  0  0  0  0  0  0  0  0  0  0  0
   45.8813    8.8337   12.6700 C   0  0  0  0  0  0  0  0  0  0  0  0
   46.1962    7.3583   12.8919 C   0  0  0  0  0  0  0  0  0  0  0  0
   48.1546    8.6164   12.2044 C   0  0  0  0  0  0  0  0  0  0  0  0
   47.1024    9.5174   12.2489 C   0  0  0  0  0  0  0  0  0  0  0  0
   48.4201    6.3146   12.6470 O   0  0  0  0  0  0  0  0  0  0  0  0
   44.8175    9.4072   12.8278 O   0  0  0  0  0  0  0  0  0  0  0  0
   45.3041    6.4421   12.0786 C   0  0  0  0  0  0  0  0  0  0  0  0
   49.4304    9.0065   11.8389 C   0  0  0  0  0  0  0  0  0  0  0  0
   47.2748   10.8524   11.9309 C   0  0  0  0  0  0  0  0  0  0  0  0
   45.7519    5.7339   10.9530 C   0  0  0  0  0  0  0  0  0  0  0  0
   43.9565    6.3041   12.4557 C   0  0  0  0  0  0  0  0  0  0  0  0
   49.6259   10.3518   11.5123 C   0  0  0  0  0  0  0  0  0  0  0  0
   48.5565   11.2675   11.5579 C   0  0  0  0  0  0  0  0  0  0  0  0
   44.8809    4.9108   10.2334 C   0  0  0  0  0  0  0  0  0  0  0  0
   43.0872    5.4837   11.7345 C   0  0  0  0  0  0  0  0  0  0  0  0
   43.5502    4.7859   10.6233 C   0  0  0  0  0  0  0  0  0  0  0  0
   46.0837    7.1460   13.9629 H   0  0  0  0  0  0  0  0  0  0  0  0
   50.2481    8.2926   11.8074 H   0  0  0  0  0  0  0  0  0  0  0  0
   46.4432   11.5499   11.9697 H   0  0  0  0  0  0  0  0  0  0  0  0
   46.7849    5.7947   10.6172 H   0  0  0  0  0  0  0  0  0  0  0  0
   43.5684    6.8500   13.3149 H   0  0  0  0  0  0  0  0  0  0  0  0
   50.6159   10.6975   11.2191 H   0  0  0  0  0  0  0  0  0  0  0  0
   48.7319   12.3105   11.2993 H   0  0  0  0  0  0  0  0  0  0  0  0
   45.2454    4.3634    9.3676 H   0  0  0  0  0  0  0  0  0  0  0  0
   42.0480    5.3937   12.0400 H   0  0  0  0  0  0  0  0  0  0  0  0
   42.8753    4.1459   10.0616 H   0  0  0  0  0  0  0  0  0  0  0  0
  2  3  1  0
  3  1  1  0
  4  1  1  0
  5  4  2  0
  6  1  2  0
  7  2  2  0
  8  3  1  0
  9  4  1  0
 10  5  1  0
 11  8  2  0
 12  8  1  0
 13  9  2  0
 14 13  1  0
 15 11  1  0
 16 12  2  0
 17 16  1  0
  5  2  1  0
 14 10  2  0
 17 15  2  0
  3 18  1  0
  9 19  1  0
 10 20  1  0
 11 21  1  0
 12 22  1  0
 13 23  1  0
 14 24  1  0
 15 25  1  0
 16 26  1  0
 17 27  1  0
M  END
> <Uni-Dock RESULT> 
ENERGY=   -4.432  LOWER_BOUND=    4.025  UPPER_BOUND=    6.576
INTER + INTRA:          -4.432
INTER:                  -4.432
INTRA:                   0.000
UNBOUND:                 0.000

$$$$

     RDKit          3D

 27 29  0  0  0  0  0  0  0  0999 V2000
   45.4651    6.9387   12.4583 C   0  0  0  0  0  0  0  0  0  0  0  0
   46.5336    5.1514   13.6094 C   0  0  0  0  0  0  0  0  0  0  0  0
   46.5564    6.6712   13.4855 C   0  0  0  0  0  0  0  0  0  0  0  0
   44.8985    5.6613   12.0286 C   0  0  0  0  0  0  0  0  0  0  0  0
   45.5231    4.6201   12.6970 C   0  0  0  0  0  0  0  0  0  0  0  0
   45.0786    8.0134   12.0332 O   0  0  0  0  0  0  0  0  0  0  0  0
   47.2016    4.4473   14.3465 O   0  0  0  0  0  0  0  0  0  0  0  0
   47.9333    7.2093   13.1522 C   0  0  0  0  0  0  0  0  0  0  0  0
   43.8939    5.4334   11.1055 C   0  0  0  0  0  0  0  0  0  0  0  0
   45.1731    3.3005   12.4755 C   0  0  0  0  0  0  0  0  0  0  0  0
   48.2751    7.7173   11.8897 C   0  0  0  0  0  0  0  0  0  0  0  0
   48.9259    7.1853   14.1481 C   0  0  0  0  0  0  0  0  0  0  0  0
   43.5257    4.1062   10.8659 C   0  0  0  0  0  0  0  0  0  0  0  0
   44.1603    3.0481   11.5454 C   0  0  0  0  0  0  0  0  0  0  0  0
   49.5655    8.1908   11.6352 C   0  0  0  0  0  0  0  0  0  0  0  0
   50.2149    7.6561   13.8916 C   0  0  0  0  0  0  0  0  0  0  0  0
   50.5343    8.1601   12.6346 C   0  0  0  0  0  0  0  0  0  0  0  0
   46.2030    7.0930   14.4353 H   0  0  0  0  0  0  0  0  0  0  0  0
   43.4107    6.2565   10.5874 H   0  0  0  0  0  0  0  0  0  0  0  0
   45.6688    2.4923   13.0053 H   0  0  0  0  0  0  0  0  0  0  0  0
   47.5483    7.7684   11.0819 H   0  0  0  0  0  0  0  0  0  0  0  0
   48.7025    6.7841   15.1360 H   0  0  0  0  0  0  0  0  0  0  0  0
   42.7392    3.8859   10.1458 H   0  0  0  0  0  0  0  0  0  0  0  0
   43.8574    2.0220   11.3429 H   0  0  0  0  0  0  0  0  0  0  0  0
   49.8122    8.5877   10.6536 H   0  0  0  0  0  0  0  0  0  0  0  0
   50.9690    7.6252   14.6737 H   0  0  0  0  0  0  0  0  0  0  0  0
   51.5367    8.5283   12.4336 H   0  0  0  0  0  0  0  0  0  0  0  0
  2  3  1  0
  3  1  1  0
  4  1  1  0
  5  4  2  0
  6  1  2  0
  7  2  2  0
  8  3  1  0
  9  4  1  0
 10  5  1  0
 11  8  2  0
 12  8  1  0
 13  9  2  0
 14 13  1  0
 15 11  1  0
 16 12  2  0
 17 16  1  0
  5  2  1  0
 14 10  2  0
 17 15  2  0
  3 18  1  0
  9 19  1  0
 10 20  1  0
 11 21  1  0
 12 22  1  0
 13 23  1  0
 14 24  1  0
 15 25  1  0
 16 26  1  0
 17 27  1  0
M  END
> <Uni-Dock RESULT> 
ENERGY=   -4.254  LOWER_BOUND=    4.035  UPPER_BOUND=    6.198
INTER + INTRA:          -4.254
INTER:                  -4.254
INTRA:                   0.000
UNBOUND:                 0.000

$$$$

     RDKit          3D

 27 29  0  0  0  0  0  0  0  0999 V2000
   43.6709   11.5591   10.8585 C   0  0  0  0  0  0  0  0  0  0  0  0
   43.0857    9.2595   11.0325 C   0  0  0  0  0  0  0  0  0  0  0  0
   42.5125   10.6053   10.6016 C   0  0  0  0  0  0  0  0  0  0  0  0
   44.7918   10.8013   11.4126 C   0  0  0  0  0  0  0  0  0  0  0  0
   44.4497    9.4623   11.5166 C   0  0  0  0  0  0  0  0  0  0  0  0
   43.7186   12.7589   10.6499 O   0  0  0  0  0  0  0  0  0  0  0  0
   42.5538    8.1642   10.9793 O   0  0  0  0  0  0  0  0  0  0  0  0
   41.2087   10.9351   11.3001 C   0  0  0  0  0  0  0  0  0  0  0  0
   46.0358   11.2658   11.7998 C   0  0  0  0  0  0  0  0  0  0  0  0
   45.3351    8.5224   12.0123 C   0  0  0  0  0  0  0  0  0  0  0  0
   41.1003   11.9068   12.3066 C   0  0  0  0  0  0  0  0  0  0  0  0
   40.0509   10.2240   10.9378 C   0  0  0  0  0  0  0  0  0  0  0  0
   46.9455   10.3321   12.3049 C   0  0  0  0  0  0  0  0  0  0  0  0
   46.5979    8.9711   12.4104 C   0  0  0  0  0  0  0  0  0  0  0  0
   39.8728   12.1617   12.9248 C   0  0  0  0  0  0  0  0  0  0  0  0
   38.8261   10.4779   11.5578 C   0  0  0  0  0  0  0  0  0  0  0  0
   38.7371   11.4481   12.5511 C   0  0  0  0  0  0  0  0  0  0  0  0
   42.3648   10.5773    9.5143 H   0  0  0  0  0  0  0  0  0  0  0  0
   46.2938   12.3172   11.7140 H   0  0  0  0  0  0  0  0  0  0  0  0
   45.0567    7.4754   12.0889 H   0  0  0  0  0  0  0  0  0  0  0  0
   41.9591   12.4941   12.6244 H   0  0  0  0  0  0  0  0  0  0  0  0
   40.0988    9.4513   10.1712 H   0  0  0  0  0  0  0  0  0  0  0  0
   47.9348   10.6589   12.6210 H   0  0  0  0  0  0  0  0  0  0  0  0
   47.3223    8.2615   12.8068 H   0  0  0  0  0  0  0  0  0  0  0  0
   39.8043   12.9228   13.6981 H   0  0  0  0  0  0  0  0  0  0  0  0
   37.9437    9.9145   11.2661 H   0  0  0  0  0  0  0  0  0  0  0  0
   37.7844   11.6481   13.0339 H   0  0  0  0  0  0  0  0  0  0  0  0
  2  3  1  0
  3  1  1  0
  4  1  1  0
  5  4  2  0
  6  1  2  0
  7  2  2  0
  8  3  1  0
  9  4  1  0
 10  5  1  0
 11  8  2  0
 12  8  1  0
 13  9  2  0
 14 13  1  0
 15 11  1  0
 16 12  2  0
 17 16  1  0
  5  2  1  0
 14 10  2  0
 17 15  2  0
  3 18  1  0
  9 19  1  0
 10 20  1  0
 11 21  1  0
 12 22  1  0
 13 23  1  0
 14 24  1  0
 15 25  1  0
 16 26  1  0
 17 27  1  0
M  END
> <Uni-Dock RESULT> 
ENERGY=   -4.126  LOWER_BOUND=    6.462  UPPER_BOUND=    9.398
INTER + INTRA:          -4.126
INTER:                  -4.126
INTRA:                   0.000
UNBOUND:                 0.000

$$$$

     RDKit          3D

 27 29  0  0  0  0  0  0  0  0999 V2000
   45.4654    5.7169   10.1826 C   0  0  0  0  0  0  0  0  0  0  0  0
   44.2466    5.8035   12.2242 C   0  0  0  0  0  0  0  0  0  0  0  0
   45.1274    6.6645   11.3251 C   0  0  0  0  0  0  0  0  0  0  0  0
   44.8387    4.4219   10.4429 C   0  0  0  0  0  0  0  0  0  0  0  0
   44.1312    4.4717   11.6337 C   0  0  0  0  0  0  0  0  0  0  0  0
   46.1329    5.9440    9.1886 O   0  0  0  0  0  0  0  0  0  0  0  0
   43.6849    6.1251   13.2568 O   0  0  0  0  0  0  0  0  0  0  0  0
   46.3057    7.2656   12.0648 C   0  0  0  0  0  0  0  0  0  0  0  0
   44.8899    3.2723    9.6754 C   0  0  0  0  0  0  0  0  0  0  0  0
   43.4399    3.3744   12.1146 C   0  0  0  0  0  0  0  0  0  0  0  0
   47.6265    6.8238   11.8944 C   0  0  0  0  0  0  0  0  0  0  0  0
   46.0675    8.3059   12.9805 C   0  0  0  0  0  0  0  0  0  0  0  0
   44.1987    2.1511   10.1445 C   0  0  0  0  0  0  0  0  0  0  0  0
   43.4795    2.2018   11.3545 C   0  0  0  0  0  0  0  0  0  0  0  0
   48.6739    7.4083   12.6122 C   0  0  0  0  0  0  0  0  0  0  0  0
   47.1143    8.8870   13.6985 C   0  0  0  0  0  0  0  0  0  0  0  0
   48.4183    8.4384   13.5133 C   0  0  0  0  0  0  0  0  0  0  0  0
   44.5010    7.4587   10.8987 H   0  0  0  0  0  0  0  0  0  0  0  0
   45.4470    3.2440    8.7437 H   0  0  0  0  0  0  0  0  0  0  0  0
   42.8883    3.4247   13.0489 H   0  0  0  0  0  0  0  0  0  0  0  0
   47.8739    6.0279   11.1951 H   0  0  0  0  0  0  0  0  0  0  0  0
   45.0533    8.6654   13.1510 H   0  0  0  0  0  0  0  0  0  0  0  0
   44.2155    1.2270    9.5688 H   0  0  0  0  0  0  0  0  0  0  0  0
   42.9486    1.3164   11.7006 H   0  0  0  0  0  0  0  0  0  0  0  0
   49.6927    7.0591   12.4634 H   0  0  0  0  0  0  0  0  0  0  0  0
   46.9087    9.6873   14.4046 H   0  0  0  0  0  0  0  0  0  0  0  0
   49.2344    8.8904   14.0703 H   0  0  0  0  0  0  0  0  0  0  0  0
  2  3  1  0
  3  1  1  0
  4  1  1  0
  5  4  2  0
  6  1  2  0
  7  2  2  0
  8  3  1  0
  9  4  1  0
 10  5  1  0
 11  8  2  0
 12  8  1  0
 13  9  2  0
 14 13  1  0
 15 11  1  0
 16 12  2  0
 17 16  1  0
  5  2  1  0
 14 10  2  0
 17 15  2  0
  3 18  1  0
  9 19  1  0
 10 20  1  0
 11 21  1  0
 12 22  1  0
 13 23  1  0
 14 24  1  0
 15 25  1  0
 16 26  1  0
 17 27  1  0
M  END
> <Uni-Dock RESULT> 
ENERGY=   -3.934  LOWER_BOUND=    2.763  UPPER_BOUND=    5.685
INTER + INTRA:          -3.934
INTER:                  -3.934
INTRA:                   0.000
UNBOUND:                 0.000

$$$$

     RDKit          3D

 27 29  0  0  0  0  0  0  0  0999 V2000
   43.5877    9.5227   11.0567 C   0  0  0  0  0  0  0  0  0  0  0  0
   45.2085   11.1800   11.5933 C   0  0  0  0  0  0  0  0  0  0  0  0
   43.8484   11.0167   10.9231 C   0  0  0  0  0  0  0  0  0  0  0  0
   44.7289    8.9031   11.7284 C   0  0  0  0  0  0  0  0  0  0  0  0
   45.6742    9.8681   12.0382 C   0  0  0  0  0  0  0  0  0  0  0  0
   42.6092    8.8939   10.6929 O   0  0  0  0  0  0  0  0  0  0  0  0
   45.8361   12.2079   11.7795 O   0  0  0  0  0  0  0  0  0  0  0  0
   43.8206   11.5760    9.5149 C   0  0  0  0  0  0  0  0  0  0  0  0
   44.9195    7.5705   12.0463 C   0  0  0  0  0  0  0  0  0  0  0  0
   46.8559    9.5477   12.6817 C   0  0  0  0  0  0  0  0  0  0  0  0
   43.7945   10.7685    8.3676 C   0  0  0  0  0  0  0  0  0  0  0  0
   43.8386   12.9716    9.3431 C   0  0  0  0  0  0  0  0  0  0  0  0
   46.1083    7.2250   12.6961 C   0  0  0  0  0  0  0  0  0  0  0  0
   47.0689    8.2059   13.0112 C   0  0  0  0  0  0  0  0  0  0  0  0
   43.7807   11.3397    7.0918 C   0  0  0  0  0  0  0  0  0  0  0  0
   43.8275   13.5404    8.0682 C   0  0  0  0  0  0  0  0  0  0  0  0
   43.7974   12.7238    6.9421 C   0  0  0  0  0  0  0  0  0  0  0  0
   43.1009   11.5224   11.5479 H   0  0  0  0  0  0  0  0  0  0  0  0
   44.1723    6.8222   11.7992 H   0  0  0  0  0  0  0  0  0  0  0  0
   47.5896   10.3121   12.9202 H   0  0  0  0  0  0  0  0  0  0  0  0
   43.7720    9.6831    8.4369 H   0  0  0  0  0  0  0  0  0  0  0  0
   43.8744   13.6308   10.2097 H   0  0  0  0  0  0  0  0  0  0  0  0
   46.2954    6.1860   12.9624 H   0  0  0  0  0  0  0  0  0  0  0  0
   47.9876    7.9139   13.5174 H   0  0  0  0  0  0  0  0  0  0  0  0
   43.7535   10.7000    6.2131 H   0  0  0  0  0  0  0  0  0  0  0  0
   43.8458   14.6214    7.9568 H   0  0  0  0  0  0  0  0  0  0  0  0
   43.7873   13.1648    5.9491 H   0  0  0  0  0  0  0  0  0  0  0  0
  2  3  1  0
  3  1  1  0
  4  1  1  0
  5  4  2  0
  6  1  2  0
  7  2  2  0
  8  3  1  0
  9  4  1  0
 10  5  1  0
 11  8  2  0
 12  8  1  0
 13  9  2  0
 14 13  1  0
 15 11  1  0
 16 12  2  0
 17 16  1  0
  5  2  1  0
 14 10  2  0
 17 15  2  0
  3 18  1  0
  9 19  1  0
 10 20  1  0
 11 21  1  0
 12 22  1  0
 13 23  1  0
 14 24  1  0
 15 25  1  0
 16 26  1  0
 17 27  1  0
M  END
> <Uni-Dock RESULT> 
ENERGY=   -3.810  LOWER_BOUND=    5.897  UPPER_BOUND=    7.868
INTER + INTRA:          -3.810
INTER:                  -3.810
INTRA:                   0.000
UNBOUND:                 0.000

$$$$

     RDKit          3D

 27 29  0  0  0  0  0  0  0  0999 V2000
   47.6862    6.3540   13.3774 C   0  0  0  0  0  0  0  0  0  0  0  0
   47.3960    4.4368   14.7562 C   0  0  0  0  0  0  0  0  0  0  0  0
   47.1551    4.9279   13.3328 C   0  0  0  0  0  0  0  0  0  0  0  0
   48.1625    6.6377   14.7302 C   0  0  0  0  0  0  0  0  0  0  0  0
   47.9906    5.5218   15.5340 C   0  0  0  0  0  0  0  0  0  0  0  0
   47.7399    7.1660   12.4703 O   0  0  0  0  0  0  0  0  0  0  0  0
   47.1759    3.3301   15.2168 O   0  0  0  0  0  0  0  0  0  0  0  0
   45.7131    4.7660   12.8955 C   0  0  0  0  0  0  0  0  0  0  0  0
   48.7136    7.8081   15.2199 C   0  0  0  0  0  0  0  0  0  0  0  0
   48.3621    5.5216   16.8663 C   0  0  0  0  0  0  0  0  0  0  0  0
   44.8253    5.8441   12.7601 C   0  0  0  0  0  0  0  0  0  0  0  0
   45.2311    3.4725   12.6271 C   0  0  0  0  0  0  0  0  0  0  0  0
   49.0948    7.8294   16.5648 C   0  0  0  0  0  0  0  0  0  0  0  0
   48.9204    6.6952   17.3816 C   0  0  0  0  0  0  0  0  0  0  0  0
   43.5014    5.6344   12.3635 C   0  0  0  0  0  0  0  0  0  0  0  0
   43.9079    3.2644   12.2336 C   0  0  0  0  0  0  0  0  0  0  0  0
   43.0431    4.3462   12.1008 C   0  0  0  0  0  0  0  0  0  0  0  0
   47.8204    4.3665   12.6643 H   0  0  0  0  0  0  0  0  0  0  0  0
   48.8441    8.6768   14.5814 H   0  0  0  0  0  0  0  0  0  0  0  0
   48.2233    4.6412   17.4870 H   0  0  0  0  0  0  0  0  0  0  0  0
   45.1421    6.8681   12.9465 H   0  0  0  0  0  0  0  0  0  0  0  0
   45.8864    2.6091   12.7360 H   0  0  0  0  0  0  0  0  0  0  0  0
   49.5319    8.7326   16.9875 H   0  0  0  0  0  0  0  0  0  0  0  0
   49.2245    6.7345   18.4264 H   0  0  0  0  0  0  0  0  0  0  0  0
   42.8281    6.4812   12.2566 H   0  0  0  0  0  0  0  0  0  0  0  0
   43.5537    2.2563   12.0347 H   0  0  0  0  0  0  0  0  0  0  0  0
   42.0132    4.1862   11.7933 H   0  0  0  0  0  0  0  0  0  0  0  0
  2  3  1  0
  3  1  1  0
  4  1  1  0
  5  4  2  0
  6  1  2  0
  7  2  2  0
  8  3  1  0
  9  4  1  0
 10  5  1  0
 11  8  2  0
 12  8  1  0
 13  9  2  0
 14 13  1  0
 15 11  1  0
 16 12  2  0
 17 16  1  0
  5  2  1  0
 14 10  2  0
 17 15  2  0
  3 18  1  0
  9 19  1  0
 10 20  1  0
 11 21  1  0
 12 22  1  0
 13 23  1  0
 14 24  1  0
 15 25  1  0
 16 26  1  0
 17 27  1  0
M  END
> <Uni-Dock RESULT> 
ENERGY=   -3.780  LOWER_BOUND=    4.578  UPPER_BOUND=    6.683
INTER + INTRA:          -3.780
INTER:                  -3.780
INTRA:                   0.000
UNBOUND:                 0.000

$$$$

     RDKit          3D

 27 29  0  0  0  0  0  0  0  0999 V2000
   42.6026   10.5503   10.3153 C   0  0  0  0  0  0  0  0  0  0  0  0
   42.0605   12.8629   10.4543 C   0  0  0  0  0  0  0  0  0  0  0  0
   41.9085   11.5553   11.2241 C   0  0  0  0  0  0  0  0  0  0  0  0
   43.0809   11.2458    9.1216 C   0  0  0  0  0  0  0  0  0  0  0  0
   42.7624   12.5923    9.2013 C   0  0  0  0  0  0  0  0  0  0  0  0
   42.7701    9.3576   10.5011 O   0  0  0  0  0  0  0  0  0  0  0  0
   41.7023   13.9785   10.7896 O   0  0  0  0  0  0  0  0  0  0  0  0
   40.4669   11.2506   11.5784 C   0  0  0  0  0  0  0  0  0  0  0  0
   43.7555   10.7218    8.0336 C   0  0  0  0  0  0  0  0  0  0  0  0
   43.1036   13.4805    8.1975 C   0  0  0  0  0  0  0  0  0  0  0  0
   39.7150   10.2492   10.9452 C   0  0  0  0  0  0  0  0  0  0  0  0
   39.8417   12.0168   12.5782 C   0  0  0  0  0  0  0  0  0  0  0  0
   44.1087   11.6027    7.0070 C   0  0  0  0  0  0  0  0  0  0  0  0
   43.7852   12.9712    7.0883 C   0  0  0  0  0  0  0  0  0  0  0  0
   38.3841   10.0192   11.3055 C   0  0  0  0  0  0  0  0  0  0  0  0
   38.5117   11.7875   12.9351 C   0  0  0  0  0  0  0  0  0  0  0  0
   37.7830   10.7874   12.2989 C   0  0  0  0  0  0  0  0  0  0  0  0
   42.5169   11.6266   12.1350 H   0  0  0  0  0  0  0  0  0  0  0  0
   44.0004    9.6651    7.9811 H   0  0  0  0  0  0  0  0  0  0  0  0
   42.8495   14.5339    8.2706 H   0  0  0  0  0  0  0  0  0  0  0  0
   40.1460    9.6194   10.1699 H   0  0  0  0  0  0  0  0  0  0  0  0
   40.3886   12.8132   13.0816 H   0  0  0  0  0  0  0  0  0  0  0  0
   44.6401   11.2281    6.1336 H   0  0  0  0  0  0  0  0  0  0  0  0
   44.0702   13.6390    6.2768 H   0  0  0  0  0  0  0  0  0  0  0  0
   37.8174    9.2348   10.8099 H   0  0  0  0  0  0  0  0  0  0  0  0
   38.0455   12.3935   13.7077 H   0  0  0  0  0  0  0  0  0  0  0  0
   36.7481   10.6067   12.5764 H   0  0  0  0  0  0  0  0  0  0  0  0
  2  3  1  0
  3  1  1  0
  4  1  1  0
  5  4  2  0
  6  1  2  0
  7  2  2  0
  8  3  1  0
  9  4  1  0
 10  5  1  0
 11  8  2  0
 12  8  1  0
 13  9  2  0
 14 13  1  0
 15 11  1  0
 16 12  2  0
 17 16  1  0
  5  2  1  0
 14 10  2  0
 17 15  2  0
  3 18  1  0
  9 19  1  0
 10 20  1  0
 11 21  1  0
 12 22  1  0
 13 23  1  0
 14 24  1  0
 15 25  1  0
 16 26  1  0
 17 27  1  0
M  END
> <Uni-Dock RESULT> 
ENERGY=   -3.735  LOWER_BOUND=    7.898  UPPER_BOUND=   10.508
INTER + INTRA:          -3.735
INTER:                  -3.735
INTRA:                   0.000
UNBOUND:                 0.000

$$$$
