
     RDKit          3D

 41 45  0  0  0  0  0  0  0  0999 V2000
    6.6710    0.5236   -1.3323 C   0  0  0  0  0  0  0  0  0  0  0  0
    5.5040    0.0766   -0.7828 C   0  0  0  0  0  0  0  0  0  0  0  0
    4.5620   -0.6954   -1.3954 C   0  0  0  0  0  0  0  0  0  0  0  0
    4.8457   -1.0538   -2.7278 C   0  0  0  0  0  0  0  0  0  0  0  0
    6.0055   -0.6297   -3.3250 C   0  0  0  0  0  0  0  0  0  0  0  0
    6.9314    0.1564   -2.6532 C   0  0  0  0  0  0  0  0  0  0  0  0
    2.5864    1.1222   -1.5538 C   0  0  0  0  0  0  0  0  0  0  0  0
    2.2766   -0.1094   -1.0120 C   0  0  0  0  0  0  0  0  0  0  0  0
    3.3161   -1.1882   -0.8505 C   0  0  0  0  0  0  0  0  0  0  0  0
    0.9822   -0.3460   -0.6071 C   0  0  0  0  0  0  0  0  0  0  0  0
   -0.0018    0.6102   -0.7296 C   0  0  0  0  0  0  0  0  0  0  0  0
    0.3429    1.8292   -1.2751 C   0  0  0  0  0  0  0  0  0  0  0  0
    1.6285    2.1180   -1.6975 C   0  0  0  0  0  0  0  0  0  0  0  0
   -0.6332    2.7664   -1.3921 F   0  0  0  0  0  0  0  0  0  0  0  0
   -0.9201    1.0736    1.8733 O   0  0  0  0  0  0  0  0  0  0  0  0
   -1.7395    0.5644    1.0509 C   0  0  0  0  0  0  0  0  0  0  0  0
   -1.3284    0.3055   -0.2887 N   0  0  0  0  0  0  0  0  0  0  0  0
    7.6064    1.3351   -0.6127 C   0  0  0  0  0  0  0  0  0  0  0  0
    8.3597    1.9941   -0.0451 N   0  0  0  0  0  0  0  0  0  0  0  0
    3.2765   -1.8419    0.3597 N   0  0  0  0  0  0  0  0  0  0  0  0
    3.5978   -1.2193    1.5591 C   0  0  0  0  0  0  0  0  0  0  0  0
    5.0310   -0.8770    1.7568 C   0  0  0  0  0  0  0  0  0  0  0  0
    5.3491   -0.1841    3.1067 C   0  0  0  0  0  0  0  0  0  0  0  0
    5.8915   -1.6098    2.7595 C   0  0  0  0  0  0  0  0  0  0  0  0
   -3.0850    0.2647    1.5282 C   0  0  0  0  0  0  0  0  0  0  0  0
   -3.4960    0.5024    2.8220 C   0  0  0  0  0  0  0  0  0  0  0  0
   -4.8227    0.0839    2.8676 C   0  0  0  0  0  0  0  0  0  0  0  0
   -5.1248   -0.3618    1.6573 N   0  0  0  0  0  0  0  0  0  0  0  0
   -4.1003   -0.2689    0.8199 N   0  0  0  0  0  0  0  0  0  0  0  0
   -5.6343    0.1768    4.1104 C   0  0  0  0  0  0  0  0  0  0  0  0
   -6.4063    1.3304    4.0028 F   0  0  0  0  0  0  0  0  0  0  0  0
   -6.4950   -0.9131    4.1449 F   0  0  0  0  0  0  0  0  0  0  0  0
   -4.8539    0.1701    5.2407 F   0  0  0  0  0  0  0  0  0  0  0  0
   -4.0705   -0.6509   -0.5501 C   0  0  0  0  0  0  0  0  0  0  0  0
   -4.6839    0.1281   -1.5388 C   0  0  0  0  0  0  0  0  0  0  0  0
   -3.4296   -1.8135   -0.9442 C   0  0  0  0  0  0  0  0  0  0  0  0
   -3.3863   -2.2106   -2.2736 C   0  0  0  0  0  0  0  0  0  0  0  0
   -3.9888   -1.4472   -3.2514 C   0  0  0  0  0  0  0  0  0  0  0  0
   -4.6306   -0.2866   -2.8738 C   0  0  0  0  0  0  0  0  0  0  0  0
   -5.2738    0.5183   -3.9592 C   0  0  0  0  0  0  0  0  0  0  0  0
   -6.6596    0.0573   -4.1206 N   0  0  0  0  0  0  0  0  0  0  0  0
  1  2  2  0
  2  3  1  0
  3  4  2  0
  4  5  1  0
  5  6  2  0
  1  6  1  0
  7  8  2  0
  8  9  1  0
  9  3  1  0
 10 11  2  0
 11 12  1  0
 12 13  2  0
  7 13  1  0
  8 10  1  0
 15 16  2  0
 16 17  1  0
 14 12  1  0
 17 11  1  0
  1 18  1  0
 18 19  3  0
  9 20  1  0
 20 21  1  0
 21 22  1  0
 22 23  1  0
 22 24  1  0
 23 24  1  0
 16 25  1  0
 26 27  1  0
 27 28  2  0
 28 29  1  0
 29 25  1  0
 26 25  2  0
 27 30  1  0
 30 31  1  0
 30 32  1  0
 30 33  1  0
 29 34  1  0
 36 37  1  0
 37 38  2  0
 38 39  1  0
 35 39  2  0
 35 34  1  0
 34 36  2  0
 39 40  1  0
 40 41  1  0
M  END
