
     RDKit          3D

 67 71  0  0  0  0  0  0  0  0999 V2000
   -6.9764   -1.7547   -1.1152 C   0  0  0  0  0  0  0  0  0  0  0  0
   -6.0835   -0.6773   -1.1592 C   0  0  0  0  0  0  0  0  0  0  0  0
   -4.6933   -0.8945   -1.1662 C   0  0  0  0  0  0  0  0  0  0  0  0
   -4.2232   -2.2184   -1.1019 C   0  0  0  0  0  0  0  0  0  0  0  0
   -5.1120   -3.2943   -1.0550 C   0  0  0  0  0  0  0  0  0  0  0  0
   -6.4870   -3.0630   -1.0691 C   0  0  0  0  0  0  0  0  0  0  0  0
   -2.7368   -0.3188   -3.4512 C   0  0  0  0  0  0  0  0  0  0  0  0
   -2.5306    0.1520   -2.1374 C   0  0  0  0  0  0  0  0  0  0  0  0
   -3.7463    0.3076   -1.2058 C   0  0  2  0  0  0  0  0  0  0  0  0
   -1.2221    0.5342   -1.7704 C   0  0  0  0  0  0  0  0  0  0  0  0
   -0.1516    0.4171   -2.6616 C   0  0  0  0  0  0  0  0  0  0  0  0
   -0.3995   -0.0841   -3.9434 C   0  0  0  0  0  0  0  0  0  0  0  0
   -1.6759   -0.4477   -4.3466 C   0  0  0  0  0  0  0  0  0  0  0  0
    0.6174   -0.2065   -4.8132 F   0  0  0  0  0  0  0  0  0  0  0  0
    1.0295    1.5317   -0.1840 O   0  0  0  0  0  0  0  0  0  0  0  0
    1.6885    1.2844   -1.1859 C   0  0  0  0  0  0  0  0  0  0  0  0
    1.1823    0.7731   -2.3646 N   0  0  0  0  0  0  0  0  0  0  0  0
   -8.3903   -1.5133   -1.1311 C   0  0  0  0  0  0  0  0  0  0  0  0
   -9.5339   -1.3150   -1.1555 N   0  0  0  0  0  0  0  0  0  0  0  0
   -3.4804    0.8419    0.1373 N   0  0  0  0  0  0  0  0  0  0  0  0
   -2.9104   -0.1010    1.0906 C   0  0  0  0  0  0  0  0  0  0  0  0
   -2.4221    0.6834    2.2746 C   0  0  0  0  0  0  0  0  0  0  0  0
   -3.3897    1.3069    3.2488 C   0  0  0  0  0  0  0  0  0  0  0  0
   -2.5622    0.1231    3.6695 C   0  0  0  0  0  0  0  0  0  0  0  0
    3.1095    1.5219   -1.2514 C   0  0  0  0  0  0  0  0  0  0  0  0
    3.7811    2.2340   -2.2329 C   0  0  0  0  0  0  0  0  0  0  0  0
    5.1211    2.3269   -1.8074 C   0  0  0  0  0  0  0  0  0  0  0  0
    5.2852    1.6898   -0.6387 N   0  0  0  0  0  0  0  0  0  0  0  0
    4.0703    1.1513   -0.3165 N   0  0  0  0  0  0  0  0  0  0  0  0
    6.2454    3.0415   -2.5107 C   0  0  0  0  0  0  0  0  0  0  0  0
    7.3042    2.2272   -2.7582 F   0  0  0  0  0  0  0  0  0  0  0  0
    5.8459    3.5292   -3.7189 F   0  0  0  0  0  0  0  0  0  0  0  0
    6.7104    4.1031   -1.8026 F   0  0  0  0  0  0  0  0  0  0  0  0
    3.9980    0.2840    0.8237 C   0  0  0  0  0  0  0  0  0  0  0  0
    5.1150    0.2000    1.6806 C   0  0  0  0  0  0  0  0  0  0  0  0
    2.8818   -0.5089    1.1053 C   0  0  0  0  0  0  0  0  0  0  0  0
    2.8702   -1.3411    2.2297 C   0  0  0  0  0  0  0  0  0  0  0  0
    3.9767   -1.4070    3.0724 C   0  0  0  0  0  0  0  0  0  0  0  0
    5.1134   -0.6369    2.8093 C   0  0  0  0  0  0  0  0  0  0  0  0
    6.3303   -0.7275    3.6976 C   0  0  0  0  0  0  0  0  0  0  0  0
    5.9978   -0.4880    5.0984 N   0  0  0  0  0  0  0  0  0  0  0  0
   -6.4670    0.3430   -1.1802 H   0  0  0  0  0  0  0  0  0  0  0  0
   -3.1538   -2.4200   -1.0821 H   0  0  0  0  0  0  0  0  0  0  0  0
   -4.7317   -4.3121   -1.0043 H   0  0  0  0  0  0  0  0  0  0  0  0
   -7.1719   -3.9095   -1.0341 H   0  0  0  0  0  0  0  0  0  0  0  0
   -3.7368   -0.5905   -3.7872 H   0  0  0  0  0  0  0  0  0  0  0  0
   -4.3126    1.1141   -1.6970 H   0  0  0  0  0  0  0  0  0  0  0  0
   -1.0471    0.9357   -0.7799 H   0  0  0  0  0  0  0  0  0  0  0  0
   -1.8390   -0.8192   -5.3533 H   0  0  0  0  0  0  0  0  0  0  0  0
    1.8379    0.6081   -3.1219 H   0  0  0  0  0  0  0  0  0  0  0  0
   -2.8973    1.6706    0.0607 H   0  0  0  0  0  0  0  0  0  0  0  0
   -2.0599   -0.6579    0.6810 H   0  0  0  0  0  0  0  0  0  0  0  0
   -3.6673   -0.8255    1.4099 H   0  0  0  0  0  0  0  0  0  0  0  0
   -1.5111    1.2297    2.0507 H   0  0  0  0  0  0  0  0  0  0  0  0
   -4.4516    1.1585    3.0917 H   0  0  0  0  0  0  0  0  0  0  0  0
   -3.1364    2.2780    3.6582 H   0  0  0  0  0  0  0  0  0  0  0  0
   -3.0743   -0.8211    3.8086 H   0  0  0  0  0  0  0  0  0  0  0  0
   -1.7416    0.2865    4.3578 H   0  0  0  0  0  0  0  0  0  0  0  0
    3.3459    2.6863   -3.1156 H   0  0  0  0  0  0  0  0  0  0  0  0
    6.0071    0.7898    1.4770 H   0  0  0  0  0  0  0  0  0  0  0  0
    2.0000   -0.5371    0.4796 H   0  0  0  0  0  0  0  0  0  0  0  0
    1.9912   -1.9415    2.4476 H   0  0  0  0  0  0  0  0  0  0  0  0
    3.9548   -2.0607    3.9434 H   0  0  0  0  0  0  0  0  0  0  0  0
    6.7762   -1.7226    3.5872 H   0  0  0  0  0  0  0  0  0  0  0  0
    7.0858    0.0030    3.3871 H   0  0  0  0  0  0  0  0  0  0  0  0
    6.8538   -0.4872    5.6476 H   0  0  0  0  0  0  0  0  0  0  0  0
    5.5996    0.4465    5.1845 H   0  0  0  0  0  0  0  0  0  0  0  0
  1  2  2  0
  2  3  1  0
  3  4  2  0
  4  5  1  0
  5  6  2  0
  1  6  1  0
  7  8  2  0
  8  9  1  0
  9  3  1  0
 10 11  2  0
 11 12  1  0
 12 13  2  0
  7 13  1  0
  8 10  1  0
 15 16  2  0
 16 17  1  0
 14 12  1  0
 17 11  1  0
  1 18  1  0
 18 19  3  0
  9 20  1  0
 20 21  1  0
 21 22  1  0
 22 23  1  0
 22 24  1  0
 23 24  1  0
 16 25  1  0
 26 27  1  0
 27 28  2  0
 28 29  1  0
 29 25  1  0
 26 25  2  0
 27 30  1  0
 30 31  1  0
 30 32  1  0
 30 33  1  0
 29 34  1  0
 36 37  1  0
 37 38  2  0
 38 39  1  0
 35 39  2  0
 35 34  1  0
 34 36  2  0
 39 40  1  0
 40 41  1  0
  2 42  1  0
  4 43  1  0
  5 44  1  0
  6 45  1  0
  7 46  1  0
  9 47  1  6
 10 48  1  0
 13 49  1  0
 17 50  1  0
 20 51  1  0
 21 52  1  0
 21 53  1  0
 22 54  1  0
 23 55  1  0
 23 56  1  0
 24 57  1  0
 24 58  1  0
 26 59  1  0
 35 60  1  0
 36 61  1  0
 37 62  1  0
 38 63  1  0
 40 64  1  0
 40 65  1  0
 41 66  1  0
 41 67  1  0
M  END
$$$$
