
     RDKit          3D

 67 71  0  0  0  0  0  0  0  0999 V2000
   -6.6133   -0.4267   -2.0450 C   0  0  0  0  0  0  0  0  0  0  0  0
   -5.6316    0.4222   -1.5157 C   0  0  0  0  0  0  0  0  0  0  0  0
   -4.5441   -0.1027   -0.7926 C   0  0  0  0  0  0  0  0  0  0  0  0
   -4.4652   -1.4941   -0.6099 C   0  0  0  0  0  0  0  0  0  0  0  0
   -5.4447   -2.3402   -1.1366 C   0  0  0  0  0  0  0  0  0  0  0  0
   -6.5177   -1.8083   -1.8547 C   0  0  0  0  0  0  0  0  0  0  0  0
   -2.0966    1.1361   -2.3326 C   0  0  0  0  0  0  0  0  0  0  0  0
   -2.1560    0.6815   -0.9986 C   0  0  0  0  0  0  0  0  0  0  0  0
   -3.4752    0.8343   -0.2263 C   0  0  2  0  0  0  0  0  0  0  0  0
   -1.0065    0.0773   -0.4419 C   0  0  0  0  0  0  0  0  0  0  0  0
    0.1692   -0.0563   -1.1864 C   0  0  0  0  0  0  0  0  0  0  0  0
    0.1799    0.3981   -2.5109 C   0  0  0  0  0  0  0  0  0  0  0  0
   -0.9360    0.9901   -3.0883 C   0  0  0  0  0  0  0  0  0  0  0  0
    1.2972    0.2706   -3.2448 F   0  0  0  0  0  0  0  0  0  0  0  0
    0.8776   -0.9901    1.5290 O   0  0  0  0  0  0  0  0  0  0  0  0
    1.6546   -1.0379    0.5839 C   0  0  0  0  0  0  0  0  0  0  0  0
    1.3696   -0.6252   -0.7035 N   0  0  0  0  0  0  0  0  0  0  0  0
   -7.7114    0.1267   -2.7827 C   0  0  0  0  0  0  0  0  0  0  0  0
   -8.5900    0.5955   -3.3810 N   0  0  0  0  0  0  0  0  0  0  0  0
   -3.3193    0.6698    1.2298 N   0  0  0  0  0  0  0  0  0  0  0  0
   -4.4914    1.1277    1.9718 C   0  0  0  0  0  0  0  0  0  0  0  0
   -4.2483    0.8552    3.4271 C   0  0  0  0  0  0  0  0  0  0  0  0
   -5.4161    0.5995    4.3476 C   0  0  0  0  0  0  0  0  0  0  0  0
   -4.4816   -0.5227    3.9974 C   0  0  0  0  0  0  0  0  0  0  0  0
    2.9767   -1.5945    0.7394 C   0  0  0  0  0  0  0  0  0  0  0  0
    3.2770   -2.7961    1.3577 C   0  0  0  0  0  0  0  0  0  0  0  0
    4.6526   -3.0188    1.1369 C   0  0  0  0  0  0  0  0  0  0  0  0
    5.1861   -1.9958    0.4491 N   0  0  0  0  0  0  0  0  0  0  0  0
    4.1954   -1.0653    0.3434 N   0  0  0  0  0  0  0  0  0  0  0  0
    5.4416   -4.2276    1.5713 C   0  0  0  0  0  0  0  0  0  0  0  0
    6.7302   -4.2216    1.1411 F   0  0  0  0  0  0  0  0  0  0  0  0
    5.4797   -4.3358    2.9272 F   0  0  0  0  0  0  0  0  0  0  0  0
    4.8812   -5.3805    1.1114 F   0  0  0  0  0  0  0  0  0  0  0  0
    4.5286    0.2460   -0.1226 C   0  0  0  0  0  0  0  0  0  0  0  0
    5.7679    0.4445   -0.7585 C   0  0  0  0  0  0  0  0  0  0  0  0
    3.6787    1.3422    0.0622 C   0  0  0  0  0  0  0  0  0  0  0  0
    4.0395    2.6005   -0.4312 C   0  0  0  0  0  0  0  0  0  0  0  0
    5.2525    2.7809   -1.0931 C   0  0  0  0  0  0  0  0  0  0  0  0
    6.1337    1.7068   -1.2544 C   0  0  0  0  0  0  0  0  0  0  0  0
    7.4676    1.9045   -1.9287 C   0  0  0  0  0  0  0  0  0  0  0  0
    8.4468    2.4768   -1.0144 N   0  0  0  0  0  0  0  0  0  0  0  0
   -5.7119    1.4992   -1.6659 H   0  0  0  0  0  0  0  0  0  0  0  0
   -3.6358   -1.9223   -0.0456 H   0  0  0  0  0  0  0  0  0  0  0  0
   -5.3683   -3.4142   -0.9839 H   0  0  0  0  0  0  0  0  0  0  0  0
   -7.2755   -2.4778   -2.2616 H   0  0  0  0  0  0  0  0  0  0  0  0
   -2.9659    1.6009   -2.7935 H   0  0  0  0  0  0  0  0  0  0  0  0
   -3.7862    1.8755   -0.3951 H   0  0  0  0  0  0  0  0  0  0  0  0
   -1.0590   -0.3021    0.5755 H   0  0  0  0  0  0  0  0  0  0  0  0
   -0.8910    1.3453   -4.1105 H   0  0  0  0  0  0  0  0  0  0  0  0
    2.0944   -0.7201   -1.4068 H   0  0  0  0  0  0  0  0  0  0  0  0
   -2.5181    1.2230    1.5336 H   0  0  0  0  0  0  0  0  0  0  0  0
   -5.3978    0.6057    1.6480 H   0  0  0  0  0  0  0  0  0  0  0  0
   -4.6509    2.2012    1.8279 H   0  0  0  0  0  0  0  0  0  0  0  0
   -3.4253    1.4373    3.8252 H   0  0  0  0  0  0  0  0  0  0  0  0
   -6.4169    0.5779    3.9297 H   0  0  0  0  0  0  0  0  0  0  0  0
   -5.3664    1.0052    5.3508 H   0  0  0  0  0  0  0  0  0  0  0  0
   -3.8002   -0.8805    4.7618 H   0  0  0  0  0  0  0  0  0  0  0  0
   -4.8389   -1.2994    3.3313 H   0  0  0  0  0  0  0  0  0  0  0  0
    2.5691   -3.4534    1.8463 H   0  0  0  0  0  0  0  0  0  0  0  0
    6.4606   -0.3880   -0.8883 H   0  0  0  0  0  0  0  0  0  0  0  0
    2.7458    1.2757    0.6113 H   0  0  0  0  0  0  0  0  0  0  0  0
    3.3731    3.4479   -0.2878 H   0  0  0  0  0  0  0  0  0  0  0  0
    5.5156    3.7682   -1.4709 H   0  0  0  0  0  0  0  0  0  0  0  0
    7.8455    0.9479   -2.3081 H   0  0  0  0  0  0  0  0  0  0  0  0
    7.3496    2.5506   -2.8039 H   0  0  0  0  0  0  0  0  0  0  0  0
    8.1020    3.3723   -0.6700 H   0  0  0  0  0  0  0  0  0  0  0  0
    8.5136    1.8774   -0.1912 H   0  0  0  0  0  0  0  0  0  0  0  0
  1  2  2  0
  2  3  1  0
  3  4  2  0
  4  5  1  0
  5  6  2  0
  1  6  1  0
  7  8  2  0
  8  9  1  0
  9  3  1  0
 10 11  2  0
 11 12  1  0
 12 13  2  0
  7 13  1  0
  8 10  1  0
 15 16  2  0
 16 17  1  0
 14 12  1  0
 17 11  1  0
  1 18  1  0
 18 19  3  0
  9 20  1  0
 20 21  1  0
 21 22  1  0
 22 23  1  0
 22 24  1  0
 23 24  1  0
 16 25  1  0
 26 27  1  0
 27 28  2  0
 28 29  1  0
 29 25  1  0
 26 25  2  0
 27 30  1  0
 30 31  1  0
 30 32  1  0
 30 33  1  0
 29 34  1  0
 36 37  1  0
 37 38  2  0
 38 39  1  0
 35 39  2  0
 35 34  1  0
 34 36  2  0
 39 40  1  0
 40 41  1  0
  2 42  1  0
  4 43  1  0
  5 44  1  0
  6 45  1  0
  7 46  1  0
  9 47  1  1
 10 48  1  0
 13 49  1  0
 17 50  1  0
 20 51  1  0
 21 52  1  0
 21 53  1  0
 22 54  1  0
 23 55  1  0
 23 56  1  0
 24 57  1  0
 24 58  1  0
 26 59  1  0
 35 60  1  0
 36 61  1  0
 37 62  1  0
 38 63  1  0
 40 64  1  0
 40 65  1  0
 41 66  1  0
 41 67  1  0
M  END
$$$$
