
     RDKit          3D

 67 71  0  0  0  0  0  0  0  0999 V2000
   -5.5640    0.3998    2.4363 C   0  0  0  0  0  0  0  0  0  0  0  0
   -4.6064    0.0678    1.4714 C   0  0  0  0  0  0  0  0  0  0  0  0
   -4.8479   -0.9619    0.5424 C   0  0  0  0  0  0  0  0  0  0  0  0
   -6.0715   -1.6503    0.6050 C   0  0  0  0  0  0  0  0  0  0  0  0
   -7.0284   -1.3193    1.5662 C   0  0  0  0  0  0  0  0  0  0  0  0
   -6.7757   -0.2967    2.4805 C   0  0  0  0  0  0  0  0  0  0  0  0
   -2.7604   -3.5102    0.3239 C   0  0  0  0  0  0  0  0  0  0  0  0
   -2.6483   -2.1206    0.1398 C   0  0  0  0  0  0  0  0  0  0  0  0
   -3.8030   -1.3496   -0.5046 C   0  0  2  0  0  0  0  0  0  0  0  0
   -1.4808   -1.4654    0.5895 C   0  0  0  0  0  0  0  0  0  0  0  0
   -0.4381   -2.1781    1.1819 C   0  0  0  0  0  0  0  0  0  0  0  0
   -0.5853   -3.5598    1.3457 C   0  0  0  0  0  0  0  0  0  0  0  0
   -1.7298   -4.2282    0.9269 C   0  0  0  0  0  0  0  0  0  0  0  0
    0.4061   -4.2646    1.9153 F   0  0  0  0  0  0  0  0  0  0  0  0
    0.5355    0.6155    1.0248 O   0  0  0  0  0  0  0  0  0  0  0  0
    1.1876   -0.2948    1.5163 C   0  0  0  0  0  0  0  0  0  0  0  0
    0.7740   -1.6072    1.6268 N   0  0  0  0  0  0  0  0  0  0  0  0
   -5.3065    1.4489    3.3793 C   0  0  0  0  0  0  0  0  0  0  0  0
   -5.1142    2.2964    4.1486 N   0  0  0  0  0  0  0  0  0  0  0  0
   -3.3697   -0.1605   -1.2563 N   0  0  0  0  0  0  0  0  0  0  0  0
   -2.7153   -0.5030   -2.5161 C   0  0  0  0  0  0  0  0  0  0  0  0
   -2.0934    0.6857   -3.1886 C   0  0  0  0  0  0  0  0  0  0  0  0
   -2.5121    2.1195   -2.9565 C   0  0  0  0  0  0  0  0  0  0  0  0
   -1.1918    1.6277   -2.4275 C   0  0  0  0  0  0  0  0  0  0  0  0
    2.5092   -0.0858    2.0532 C   0  0  0  0  0  0  0  0  0  0  0  0
    2.9614   -0.4565    3.3092 C   0  0  0  0  0  0  0  0  0  0  0  0
    4.2563    0.0847    3.4387 C   0  0  0  0  0  0  0  0  0  0  0  0
    4.6041    0.7374    2.3198 N   0  0  0  0  0  0  0  0  0  0  0  0
    3.5609    0.5923    1.4485 N   0  0  0  0  0  0  0  0  0  0  0  0
    5.1557   -0.0051    4.6437 C   0  0  0  0  0  0  0  0  0  0  0  0
    5.3074    1.1915    5.2685 F   0  0  0  0  0  0  0  0  0  0  0  0
    6.3991   -0.4586    4.3348 F   0  0  0  0  0  0  0  0  0  0  0  0
    4.6551   -0.8655    5.5750 F   0  0  0  0  0  0  0  0  0  0  0  0
    3.7379    1.0543    0.1025 C   0  0  0  0  0  0  0  0  0  0  0  0
    4.8568    1.8573   -0.1937 C   0  0  0  0  0  0  0  0  0  0  0  0
    2.8747    0.7047   -0.9408 C   0  0  0  0  0  0  0  0  0  0  0  0
    3.1139    1.1622   -2.2414 C   0  0  0  0  0  0  0  0  0  0  0  0
    4.2201    1.9609   -2.5199 C   0  0  0  0  0  0  0  0  0  0  0  0
    5.1011    2.3223   -1.4970 C   0  0  0  0  0  0  0  0  0  0  0  0
    6.3186    3.1590   -1.7932 C   0  0  0  0  0  0  0  0  0  0  0  0
    7.4679    2.3229   -2.1191 N   0  0  0  0  0  0  0  0  0  0  0  0
   -3.6621    0.6123    1.4367 H   0  0  0  0  0  0  0  0  0  0  0  0
   -6.2899   -2.4542   -0.0962 H   0  0  0  0  0  0  0  0  0  0  0  0
   -7.9713   -1.8605    1.6036 H   0  0  0  0  0  0  0  0  0  0  0  0
   -7.5280   -0.0474    3.2267 H   0  0  0  0  0  0  0  0  0  0  0  0
   -3.6558   -4.0378    0.0020 H   0  0  0  0  0  0  0  0  0  0  0  0
   -4.2951   -2.0206   -1.2229 H   0  0  0  0  0  0  0  0  0  0  0  0
   -1.4147   -0.3890    0.4555 H   0  0  0  0  0  0  0  0  0  0  0  0
   -1.8103   -5.3009    1.0715 H   0  0  0  0  0  0  0  0  0  0  0  0
    1.4278   -2.2708    2.0297 H   0  0  0  0  0  0  0  0  0  0  0  0
   -4.1924    0.3983   -1.4745 H   0  0  0  0  0  0  0  0  0  0  0  0
   -3.4479   -0.9450   -3.2014 H   0  0  0  0  0  0  0  0  0  0  0  0
   -1.9222   -1.2432   -2.3655 H   0  0  0  0  0  0  0  0  0  0  0  0
   -1.7745    0.4218   -4.1930 H   0  0  0  0  0  0  0  0  0  0  0  0
   -3.2843    2.3496   -2.2327 H   0  0  0  0  0  0  0  0  0  0  0  0
   -2.4962    2.7948   -3.8045 H   0  0  0  0  0  0  0  0  0  0  0  0
   -0.2875    1.9735   -2.9136 H   0  0  0  0  0  0  0  0  0  0  0  0
   -1.0908    1.5074   -1.3541 H   0  0  0  0  0  0  0  0  0  0  0  0
    2.4021   -0.9934    4.0658 H   0  0  0  0  0  0  0  0  0  0  0  0
    5.5529    2.1435    0.5955 H   0  0  0  0  0  0  0  0  0  0  0  0
    2.0140    0.0617   -0.8072 H   0  0  0  0  0  0  0  0  0  0  0  0
    2.4318    0.8865   -3.0419 H   0  0  0  0  0  0  0  0  0  0  0  0
    4.3923    2.3002   -3.5393 H   0  0  0  0  0  0  0  0  0  0  0  0
    6.5589    3.7926   -0.9323 H   0  0  0  0  0  0  0  0  0  0  0  0
    6.1139    3.8397   -2.6269 H   0  0  0  0  0  0  0  0  0  0  0  0
    7.2178    1.7092   -2.8936 H   0  0  0  0  0  0  0  0  0  0  0  0
    7.6507    1.7026   -1.3305 H   0  0  0  0  0  0  0  0  0  0  0  0
  1  2  2  0
  2  3  1  0
  3  4  2  0
  4  5  1  0
  5  6  2  0
  1  6  1  0
  7  8  2  0
  8  9  1  0
  9  3  1  0
 10 11  2  0
 11 12  1  0
 12 13  2  0
  7 13  1  0
  8 10  1  0
 15 16  2  0
 16 17  1  0
 14 12  1  0
 17 11  1  0
  1 18  1  0
 18 19  3  0
  9 20  1  0
 20 21  1  0
 21 22  1  0
 22 23  1  0
 22 24  1  0
 23 24  1  0
 16 25  1  0
 26 27  1  0
 27 28  2  0
 28 29  1  0
 29 25  1  0
 26 25  2  0
 27 30  1  0
 30 31  1  0
 30 32  1  0
 30 33  1  0
 29 34  1  0
 36 37  1  0
 37 38  2  0
 38 39  1  0
 35 39  2  0
 35 34  1  0
 34 36  2  0
 39 40  1  0
 40 41  1  0
  2 42  1  0
  4 43  1  0
  5 44  1  0
  6 45  1  0
  7 46  1  0
  9 47  1  6
 10 48  1  0
 13 49  1  0
 17 50  1  0
 20 51  1  0
 21 52  1  0
 21 53  1  0
 22 54  1  0
 23 55  1  0
 23 56  1  0
 24 57  1  0
 24 58  1  0
 26 59  1  0
 35 60  1  0
 36 61  1  0
 37 62  1  0
 38 63  1  0
 40 64  1  0
 40 65  1  0
 41 66  1  0
 41 67  1  0
M  END
$$$$
