
     RDKit          3D

 67 71  0  0  0  0  0  0  0  0999 V2000
   -6.1558   -1.6416   -1.4437 C   0  0  0  0  0  0  0  0  0  0  0  0
   -5.3968   -0.4709   -1.3173 C   0  0  0  0  0  0  0  0  0  0  0  0
   -4.2037   -0.4640   -0.5747 C   0  0  0  0  0  0  0  0  0  0  0  0
   -3.7873   -1.6614    0.0313 C   0  0  0  0  0  0  0  0  0  0  0  0
   -4.5440   -2.8289   -0.0898 C   0  0  0  0  0  0  0  0  0  0  0  0
   -5.7271   -2.8201   -0.8270 C   0  0  0  0  0  0  0  0  0  0  0  0
   -2.4678    1.3327   -2.7977 C   0  0  0  0  0  0  0  0  0  0  0  0
   -2.2423    0.7876   -1.5202 C   0  0  0  0  0  0  0  0  0  0  0  0
   -3.3710    0.8137   -0.4802 C   0  0  2  0  0  0  0  0  0  0  0  0
   -0.9965    0.1801   -1.2472 C   0  0  0  0  0  0  0  0  0  0  0  0
    0.0029    0.1262   -2.2202 C   0  0  0  0  0  0  0  0  0  0  0  0
   -0.2602    0.6763   -3.4804 C   0  0  0  0  0  0  0  0  0  0  0  0
   -1.4774    1.2773   -3.7758 C   0  0  0  0  0  0  0  0  0  0  0  0
    0.6873    0.6262   -4.4310 F   0  0  0  0  0  0  0  0  0  0  0  0
    1.2674   -0.9844    0.2188 O   0  0  0  0  0  0  0  0  0  0  0  0
    1.8233   -0.9574   -0.8712 C   0  0  0  0  0  0  0  0  0  0  0  0
    1.2772   -0.4530   -2.0350 N   0  0  0  0  0  0  0  0  0  0  0  0
   -7.3651   -1.6305   -2.2123 C   0  0  0  0  0  0  0  0  0  0  0  0
   -8.3415   -1.6110   -2.8391 N   0  0  0  0  0  0  0  0  0  0  0  0
   -2.8447    1.0688    0.8691 N   0  0  0  0  0  0  0  0  0  0  0  0
   -3.8582    1.3690    1.8746 C   0  0  0  0  0  0  0  0  0  0  0  0
   -4.4222    2.7466    1.7017 C   0  0  0  0  0  0  0  0  0  0  0  0
   -5.7326    2.9777    0.9899 C   0  0  0  0  0  0  0  0  0  0  0  0
   -5.6521    3.1427    2.4806 C   0  0  0  0  0  0  0  0  0  0  0  0
    3.1591   -1.4669   -1.0637 C   0  0  0  0  0  0  0  0  0  0  0  0
    3.5757   -2.3569   -2.0396 C   0  0  0  0  0  0  0  0  0  0  0  0
    4.9085   -2.6926   -1.7251 C   0  0  0  0  0  0  0  0  0  0  0  0
    5.3117   -2.0303   -0.6308 N   0  0  0  0  0  0  0  0  0  0  0  0
    4.2703   -1.2234   -0.2651 N   0  0  0  0  0  0  0  0  0  0  0  0
    5.7909   -3.6671   -2.4605 C   0  0  0  0  0  0  0  0  0  0  0  0
    6.9568   -3.1037   -2.8741 F   0  0  0  0  0  0  0  0  0  0  0  0
    5.1791   -4.1447   -3.5806 F   0  0  0  0  0  0  0  0  0  0  0  0
    6.1133   -4.7507   -1.7082 F   0  0  0  0  0  0  0  0  0  0  0  0
    4.4957   -0.2492    0.7613 C   0  0  0  0  0  0  0  0  0  0  0  0
    5.6780   -0.3295    1.5242 C   0  0  0  0  0  0  0  0  0  0  0  0
    3.6178    0.8154    0.9981 C   0  0  0  0  0  0  0  0  0  0  0  0
    3.8986    1.7546    1.9950 C   0  0  0  0  0  0  0  0  0  0  0  0
    5.0624    1.6525    2.7543 C   0  0  0  0  0  0  0  0  0  0  0  0
    5.9685    0.6115    2.5260 C   0  0  0  0  0  0  0  0  0  0  0  0
    7.2495    0.5230    3.3171 C   0  0  0  0  0  0  0  0  0  0  0  0
    6.9900    0.4586    4.7521 N   0  0  0  0  0  0  0  0  0  0  0  0
   -5.7355    0.4420   -1.8045 H   0  0  0  0  0  0  0  0  0  0  0  0
   -2.8634   -1.6852    0.6085 H   0  0  0  0  0  0  0  0  0  0  0  0
   -4.2058   -3.7450    0.3899 H   0  0  0  0  0  0  0  0  0  0  0  0
   -6.3075   -3.7361   -0.9186 H   0  0  0  0  0  0  0  0  0  0  0  0
   -3.4228    1.7949   -3.0394 H   0  0  0  0  0  0  0  0  0  0  0  0
   -4.0081    1.6664   -0.7470 H   0  0  0  0  0  0  0  0  0  0  0  0
   -0.8420   -0.2567   -0.2641 H   0  0  0  0  0  0  0  0  0  0  0  0
   -1.6469    1.6907   -4.7645 H   0  0  0  0  0  0  0  0  0  0  0  0
    1.8766   -0.4169   -2.8523 H   0  0  0  0  0  0  0  0  0  0  0  0
   -2.1789    1.8381    0.8262 H   0  0  0  0  0  0  0  0  0  0  0  0
   -4.6455    0.6065    1.9008 H   0  0  0  0  0  0  0  0  0  0  0  0
   -3.3700    1.3281    2.8559 H   0  0  0  0  0  0  0  0  0  0  0  0
   -3.6493    3.5038    1.6208 H   0  0  0  0  0  0  0  0  0  0  0  0
   -5.8330    3.8746    0.3879 H   0  0  0  0  0  0  0  0  0  0  0  0
   -6.2827    2.1237    0.6116 H   0  0  0  0  0  0  0  0  0  0  0  0
   -6.1405    2.3988    3.0999 H   0  0  0  0  0  0  0  0  0  0  0  0
   -5.6929    4.1487    2.8834 H   0  0  0  0  0  0  0  0  0  0  0  0
    2.9712   -2.7720   -2.8368 H   0  0  0  0  0  0  0  0  0  0  0  0
    6.3914   -1.1312    1.3423 H   0  0  0  0  0  0  0  0  0  0  0  0
    2.7137    0.9771    0.4242 H   0  0  0  0  0  0  0  0  0  0  0  0
    3.2072    2.5750    2.1753 H   0  0  0  0  0  0  0  0  0  0  0  0
    5.2677    2.3912    3.5267 H   0  0  0  0  0  0  0  0  0  0  0  0
    7.8233   -0.3617    3.0190 H   0  0  0  0  0  0  0  0  0  0  0  0
    7.8655    1.3993    3.0904 H   0  0  0  0  0  0  0  0  0  0  0  0
    7.8675    0.2967    5.2422 H   0  0  0  0  0  0  0  0  0  0  0  0
    6.4026   -0.3535    4.9389 H   0  0  0  0  0  0  0  0  0  0  0  0
  1  2  2  0
  2  3  1  0
  3  4  2  0
  4  5  1  0
  5  6  2  0
  1  6  1  0
  7  8  2  0
  8  9  1  0
  9  3  1  0
 10 11  2  0
 11 12  1  0
 12 13  2  0
  7 13  1  0
  8 10  1  0
 15 16  2  0
 16 17  1  0
 14 12  1  0
 17 11  1  0
  1 18  1  0
 18 19  3  0
  9 20  1  0
 20 21  1  0
 21 22  1  0
 22 23  1  0
 22 24  1  0
 23 24  1  0
 16 25  1  0
 26 27  1  0
 27 28  2  0
 28 29  1  0
 29 25  1  0
 26 25  2  0
 27 30  1  0
 30 31  1  0
 30 32  1  0
 30 33  1  0
 29 34  1  0
 36 37  1  0
 37 38  2  0
 38 39  1  0
 35 39  2  0
 35 34  1  0
 34 36  2  0
 39 40  1  0
 40 41  1  0
  2 42  1  0
  4 43  1  0
  5 44  1  0
  6 45  1  0
  7 46  1  0
  9 47  1  6
 10 48  1  0
 13 49  1  0
 17 50  1  0
 20 51  1  0
 21 52  1  0
 21 53  1  0
 22 54  1  0
 23 55  1  0
 23 56  1  0
 24 57  1  0
 24 58  1  0
 26 59  1  0
 35 60  1  0
 36 61  1  0
 37 62  1  0
 38 63  1  0
 40 64  1  0
 40 65  1  0
 41 66  1  0
 41 67  1  0
M  END
$$$$
