
     RDKit          3D

 67 71  0  0  0  0  0  0  0  0999 V2000
   -5.9188   -1.6201    0.1680 C   0  0  0  0  0  0  0  0  0  0  0  0
   -4.6743   -1.0671   -0.1623 C   0  0  0  0  0  0  0  0  0  0  0  0
   -3.9361   -0.3206    0.7780 C   0  0  0  0  0  0  0  0  0  0  0  0
   -4.4761   -0.1661    2.0670 C   0  0  0  0  0  0  0  0  0  0  0  0
   -5.7193   -0.7129    2.3975 C   0  0  0  0  0  0  0  0  0  0  0  0
   -6.4412   -1.4365    1.4497 C   0  0  0  0  0  0  0  0  0  0  0  0
   -1.3302   -1.6274    1.6407 C   0  0  0  0  0  0  0  0  0  0  0  0
   -1.4249   -0.7617    0.5380 C   0  0  0  0  0  0  0  0  0  0  0  0
   -2.5717    0.2392    0.3641 C   0  0  2  0  0  0  0  0  0  0  0  0
   -0.3879   -0.7706   -0.4221 C   0  0  0  0  0  0  0  0  0  0  0  0
    0.7010   -1.6345   -0.3002 C   0  0  0  0  0  0  0  0  0  0  0  0
    0.7476   -2.4982    0.7989 C   0  0  0  0  0  0  0  0  0  0  0  0
   -0.2499   -2.5008    1.7654 C   0  0  0  0  0  0  0  0  0  0  0  0
    1.7918   -3.3308    0.9386 F   0  0  0  0  0  0  0  0  0  0  0  0
    1.1350   -0.2357   -2.8780 O   0  0  0  0  0  0  0  0  0  0  0  0
    1.9986   -0.9004   -2.3178 C   0  0  0  0  0  0  0  0  0  0  0  0
    1.8031   -1.6606   -1.1818 N   0  0  0  0  0  0  0  0  0  0  0  0
   -6.6507   -2.3778   -0.8048 C   0  0  0  0  0  0  0  0  0  0  0  0
   -7.2395   -2.9937   -1.5921 N   0  0  0  0  0  0  0  0  0  0  0  0
   -2.1869    1.5065    0.9954 N   0  0  0  0  0  0  0  0  0  0  0  0
   -2.6588    2.7058    0.3181 C   0  0  0  0  0  0  0  0  0  0  0  0
   -4.1106    2.9665    0.5599 C   0  0  0  0  0  0  0  0  0  0  0  0
   -4.6116    4.3822    0.7068 C   0  0  0  0  0  0  0  0  0  0  0  0
   -4.6005    3.4649    1.8971 C   0  0  0  0  0  0  0  0  0  0  0  0
    3.3385   -0.9878   -2.8455 C   0  0  0  0  0  0  0  0  0  0  0  0
    3.6991   -1.2043   -4.1626 C   0  0  0  0  0  0  0  0  0  0  0  0
    5.1003   -1.3877   -4.1568 C   0  0  0  0  0  0  0  0  0  0  0  0
    5.5833   -1.2704   -2.9064 N   0  0  0  0  0  0  0  0  0  0  0  0
    4.5307   -0.8564   -2.1502 N   0  0  0  0  0  0  0  0  0  0  0  0
    5.9656   -1.7243   -5.3434 C   0  0  0  0  0  0  0  0  0  0  0  0
    6.1932   -3.0619   -5.4414 F   0  0  0  0  0  0  0  0  0  0  0  0
    5.3779   -1.3495   -6.5136 F   0  0  0  0  0  0  0  0  0  0  0  0
    7.1798   -1.1143   -5.3086 F   0  0  0  0  0  0  0  0  0  0  0  0
    4.7599   -0.3822   -0.8240 C   0  0  0  0  0  0  0  0  0  0  0  0
    3.8290    0.4373   -0.1673 C   0  0  0  0  0  0  0  0  0  0  0  0
    5.9494   -0.7283   -0.1682 C   0  0  0  0  0  0  0  0  0  0  0  0
    6.1670   -0.3241    1.1498 C   0  0  0  0  0  0  0  0  0  0  0  0
    5.2103    0.4401    1.8153 C   0  0  0  0  0  0  0  0  0  0  0  0
    4.0442    0.8521    1.1564 C   0  0  0  0  0  0  0  0  0  0  0  0
    3.0245    1.7077    1.8640 C   0  0  0  0  0  0  0  0  0  0  0  0
    2.0908    0.8950    2.6324 N   0  0  0  0  0  0  0  0  0  0  0  0
   -4.2707   -1.2226   -1.1630 H   0  0  0  0  0  0  0  0  0  0  0  0
   -3.9369    0.3790    2.8379 H   0  0  0  0  0  0  0  0  0  0  0  0
   -6.1230   -0.5753    3.3982 H   0  0  0  0  0  0  0  0  0  0  0  0
   -7.4076   -1.8592    1.7195 H   0  0  0  0  0  0  0  0  0  0  0  0
   -2.0931   -1.6331    2.4144 H   0  0  0  0  0  0  0  0  0  0  0  0
   -2.6463    0.4176   -0.7190 H   0  0  0  0  0  0  0  0  0  0  0  0
   -0.4493   -0.0673   -1.2485 H   0  0  0  0  0  0  0  0  0  0  0  0
   -0.1749   -3.1734    2.6142 H   0  0  0  0  0  0  0  0  0  0  0  0
    2.5491   -2.2893   -0.8962 H   0  0  0  0  0  0  0  0  0  0  0  0
   -2.4228    1.5248    1.9793 H   0  0  0  0  0  0  0  0  0  0  0  0
   -2.0638    3.5475    0.6944 H   0  0  0  0  0  0  0  0  0  0  0  0
   -2.4568    2.6605   -0.7589 H   0  0  0  0  0  0  0  0  0  0  0  0
   -4.7476    2.2936   -0.0034 H   0  0  0  0  0  0  0  0  0  0  0  0
   -3.8967    5.1972    0.6878 H   0  0  0  0  0  0  0  0  0  0  0  0
   -5.5704    4.6285    0.2645 H   0  0  0  0  0  0  0  0  0  0  0  0
   -5.5517    3.0894    2.2573 H   0  0  0  0  0  0  0  0  0  0  0  0
   -3.8768    3.6641    2.6789 H   0  0  0  0  0  0  0  0  0  0  0  0
    3.0259   -1.2905   -5.0070 H   0  0  0  0  0  0  0  0  0  0  0  0
    2.9388    0.8067   -0.6715 H   0  0  0  0  0  0  0  0  0  0  0  0
    6.7079   -1.3341   -0.6600 H   0  0  0  0  0  0  0  0  0  0  0  0
    7.0810   -0.6163    1.6602 H   0  0  0  0  0  0  0  0  0  0  0  0
    5.3810    0.7318    2.8496 H   0  0  0  0  0  0  0  0  0  0  0  0
    2.4727    2.3144    1.1380 H   0  0  0  0  0  0  0  0  0  0  0  0
    3.5336    2.4114    2.5309 H   0  0  0  0  0  0  0  0  0  0  0  0
    1.5706    0.2942    1.9929 H   0  0  0  0  0  0  0  0  0  0  0  0
    1.3964    1.5099    3.0555 H   0  0  0  0  0  0  0  0  0  0  0  0
  1  2  2  0
  2  3  1  0
  3  4  2  0
  4  5  1  0
  5  6  2  0
  1  6  1  0
  7  8  2  0
  8  9  1  0
  9  3  1  0
 10 11  2  0
 11 12  1  0
 12 13  2  0
  7 13  1  0
  8 10  1  0
 15 16  2  0
 16 17  1  0
 14 12  1  0
 17 11  1  0
  1 18  1  0
 18 19  3  0
  9 20  1  0
 20 21  1  0
 21 22  1  0
 22 23  1  0
 22 24  1  0
 23 24  1  0
 16 25  1  0
 26 27  1  0
 27 28  2  0
 28 29  1  0
 29 25  1  0
 26 25  2  0
 27 30  1  0
 30 31  1  0
 30 32  1  0
 30 33  1  0
 29 34  1  0
 36 37  1  0
 37 38  2  0
 38 39  1  0
 35 39  2  0
 35 34  1  0
 34 36  2  0
 39 40  1  0
 40 41  1  0
  2 42  1  0
  4 43  1  0
  5 44  1  0
  6 45  1  0
  7 46  1  0
  9 47  1  6
 10 48  1  0
 13 49  1  0
 17 50  1  0
 20 51  1  0
 21 52  1  0
 21 53  1  0
 22 54  1  0
 23 55  1  0
 23 56  1  0
 24 57  1  0
 24 58  1  0
 26 59  1  0
 35 60  1  0
 36 61  1  0
 37 62  1  0
 38 63  1  0
 40 64  1  0
 40 65  1  0
 41 66  1  0
 41 67  1  0
M  END
$$$$
