
     RDKit          3D

 67 71  0  0  0  0  0  0  0  0999 V2000
   -4.6153    3.3398    0.4372 C   0  0  0  0  0  0  0  0  0  0  0  0
   -4.2187    2.0612    0.0265 C   0  0  0  0  0  0  0  0  0  0  0  0
   -4.5643    0.9218    0.7753 C   0  0  0  0  0  0  0  0  0  0  0  0
   -5.3088    1.1009    1.9550 C   0  0  0  0  0  0  0  0  0  0  0  0
   -5.7102    2.3737    2.3643 C   0  0  0  0  0  0  0  0  0  0  0  0
   -5.3648    3.4923    1.6066 C   0  0  0  0  0  0  0  0  0  0  0  0
   -2.7437   -1.8009    2.0602 C   0  0  0  0  0  0  0  0  0  0  0  0
   -2.7843   -0.8376    1.0428 C   0  0  0  0  0  0  0  0  0  0  0  0
   -4.1117   -0.4884    0.3756 C   0  0  2  0  0  0  0  0  0  0  0  0
   -1.5850   -0.1936    0.6783 C   0  0  0  0  0  0  0  0  0  0  0  0
   -0.3657   -0.4694    1.3225 C   0  0  0  0  0  0  0  0  0  0  0  0
   -0.3688   -1.4225    2.3463 C   0  0  0  0  0  0  0  0  0  0  0  0
   -1.5420   -2.0891    2.7028 C   0  0  0  0  0  0  0  0  0  0  0  0
    0.7222   -1.7233    3.0578 F   0  0  0  0  0  0  0  0  0  0  0  0
    2.5581   -0.6661    1.9722 O   0  0  0  0  0  0  0  0  0  0  0  0
    2.0742    0.1823    1.2417 C   0  0  0  0  0  0  0  0  0  0  0  0
    0.7443    0.2864    0.8769 N   0  0  0  0  0  0  0  0  0  0  0  0
   -4.2486    4.4878   -0.3391 C   0  0  0  0  0  0  0  0  0  0  0  0
   -3.9444    5.4162   -0.9647 N   0  0  0  0  0  0  0  0  0  0  0  0
   -4.0817   -0.6430   -1.0891 N   0  0  0  0  0  0  0  0  0  0  0  0
   -3.8707   -2.0173   -1.5528 C   0  0  0  0  0  0  0  0  0  0  0  0
   -5.0214   -2.9110   -1.2017 C   0  0  0  0  0  0  0  0  0  0  0  0
   -5.5797   -3.8865   -2.2093 C   0  0  0  0  0  0  0  0  0  0  0  0
   -6.3910   -2.6884   -1.7975 C   0  0  0  0  0  0  0  0  0  0  0  0
    2.8878    1.2243    0.6533 C   0  0  0  0  0  0  0  0  0  0  0  0
    2.6004    2.5795    0.6102 C   0  0  0  0  0  0  0  0  0  0  0  0
    3.7664    3.2183    0.1378 C   0  0  0  0  0  0  0  0  0  0  0  0
    4.7166    2.3127   -0.1385 N   0  0  0  0  0  0  0  0  0  0  0  0
    4.1618    1.0869    0.1119 N   0  0  0  0  0  0  0  0  0  0  0  0
    3.9750    4.7023   -0.0191 C   0  0  0  0  0  0  0  0  0  0  0  0
    4.6959    5.0254   -1.1241 F   0  0  0  0  0  0  0  0  0  0  0  0
    2.7870    5.3603   -0.1291 F   0  0  0  0  0  0  0  0  0  0  0  0
    4.6135    5.2450    1.0507 F   0  0  0  0  0  0  0  0  0  0  0  0
    4.8924   -0.0790   -0.2813 C   0  0  0  0  0  0  0  0  0  0  0  0
    6.2512    0.0575   -0.6205 C   0  0  0  0  0  0  0  0  0  0  0  0
    4.2932   -1.3389   -0.4052 C   0  0  0  0  0  0  0  0  0  0  0  0
    5.0461   -2.4429   -0.8188 C   0  0  0  0  0  0  0  0  0  0  0  0
    6.3989   -2.2990   -1.1221 C   0  0  0  0  0  0  0  0  0  0  0  0
    7.0176   -1.0479   -1.0255 C   0  0  0  0  0  0  0  0  0  0  0  0
    8.4733   -0.8850   -1.3831 C   0  0  0  0  0  0  0  0  0  0  0  0
    8.6585   -0.8886   -2.8273 N   0  0  0  0  0  0  0  0  0  0  0  0
   -3.6300    1.9521   -0.8836 H   0  0  0  0  0  0  0  0  0  0  0  0
   -5.5746    0.2439    2.5727 H   0  0  0  0  0  0  0  0  0  0  0  0
   -6.2866    2.4921    3.2801 H   0  0  0  0  0  0  0  0  0  0  0  0
   -5.6790    4.4812    1.9359 H   0  0  0  0  0  0  0  0  0  0  0  0
   -3.6447   -2.3271    2.3652 H   0  0  0  0  0  0  0  0  0  0  0  0
   -4.8900   -1.1591    0.7669 H   0  0  0  0  0  0  0  0  0  0  0  0
   -1.6208    0.5394   -0.1263 H   0  0  0  0  0  0  0  0  0  0  0  0
   -1.5024   -2.8302    3.4989 H   0  0  0  0  0  0  0  0  0  0  0  0
    0.5454    0.9589    0.1504 H   0  0  0  0  0  0  0  0  0  0  0  0
   -4.9811   -0.3291   -1.4518 H   0  0  0  0  0  0  0  0  0  0  0  0
   -3.7522   -1.9752   -2.6436 H   0  0  0  0  0  0  0  0  0  0  0  0
   -2.9346   -2.4365   -1.1670 H   0  0  0  0  0  0  0  0  0  0  0  0
   -4.9679   -3.2553   -0.1753 H   0  0  0  0  0  0  0  0  0  0  0  0
   -5.1751   -3.8952   -3.2161 H   0  0  0  0  0  0  0  0  0  0  0  0
   -5.9022   -4.8616   -1.8575 H   0  0  0  0  0  0  0  0  0  0  0  0
   -6.5334   -1.9195   -2.5478 H   0  0  0  0  0  0  0  0  0  0  0  0
   -7.2537   -2.8509   -1.1595 H   0  0  0  0  0  0  0  0  0  0  0  0
    1.6947    3.0620    0.9576 H   0  0  0  0  0  0  0  0  0  0  0  0
    6.7359    1.0297   -0.5603 H   0  0  0  0  0  0  0  0  0  0  0  0
    3.2392   -1.5114   -0.2174 H   0  0  0  0  0  0  0  0  0  0  0  0
    4.5721   -3.4173   -0.9103 H   0  0  0  0  0  0  0  0  0  0  0  0
    6.9700   -3.1642   -1.4546 H   0  0  0  0  0  0  0  0  0  0  0  0
    9.0546   -1.6982   -0.9340 H   0  0  0  0  0  0  0  0  0  0  0  0
    8.8652    0.0471   -0.9596 H   0  0  0  0  0  0  0  0  0  0  0  0
    9.6287   -0.7005   -3.0554 H   0  0  0  0  0  0  0  0  0  0  0  0
    8.1092   -0.1313   -3.2342 H   0  0  0  0  0  0  0  0  0  0  0  0
  1  2  2  0
  2  3  1  0
  3  4  2  0
  4  5  1  0
  5  6  2  0
  1  6  1  0
  7  8  2  0
  8  9  1  0
  9  3  1  0
 10 11  2  0
 11 12  1  0
 12 13  2  0
  7 13  1  0
  8 10  1  0
 15 16  2  0
 16 17  1  0
 14 12  1  0
 17 11  1  0
  1 18  1  0
 18 19  3  0
  9 20  1  0
 20 21  1  0
 21 22  1  0
 22 23  1  0
 22 24  1  0
 23 24  1  0
 16 25  1  0
 26 27  1  0
 27 28  2  0
 28 29  1  0
 29 25  1  0
 26 25  2  0
 27 30  1  0
 30 31  1  0
 30 32  1  0
 30 33  1  0
 29 34  1  0
 36 37  1  0
 37 38  2  0
 38 39  1  0
 35 39  2  0
 35 34  1  0
 34 36  2  0
 39 40  1  0
 40 41  1  0
  2 42  1  0
  4 43  1  0
  5 44  1  0
  6 45  1  0
  7 46  1  0
  9 47  1  1
 10 48  1  0
 13 49  1  0
 17 50  1  0
 20 51  1  0
 21 52  1  0
 21 53  1  0
 22 54  1  0
 23 55  1  0
 23 56  1  0
 24 57  1  0
 24 58  1  0
 26 59  1  0
 35 60  1  0
 36 61  1  0
 37 62  1  0
 38 63  1  0
 40 64  1  0
 40 65  1  0
 41 66  1  0
 41 67  1  0
M  END
$$$$
