
     RDKit          3D

 67 71  0  0  0  0  0  0  0  0999 V2000
   -3.6446    3.5182    2.0252 C   0  0  0  0  0  0  0  0  0  0  0  0
   -3.0077    2.3893    1.4921 C   0  0  0  0  0  0  0  0  0  0  0  0
   -3.6496    1.5874    0.5306 C   0  0  0  0  0  0  0  0  0  0  0  0
   -4.9359    1.9618    0.1039 C   0  0  0  0  0  0  0  0  0  0  0  0
   -5.5723    3.0854    0.6339 C   0  0  0  0  0  0  0  0  0  0  0  0
   -4.9298    3.8615    1.5973 C   0  0  0  0  0  0  0  0  0  0  0  0
   -2.3025    1.5888   -2.2154 C   0  0  0  0  0  0  0  0  0  0  0  0
   -1.9364    0.7432   -1.1536 C   0  0  0  0  0  0  0  0  0  0  0  0
   -2.9253    0.3663   -0.0415 C   0  0  2  0  0  0  0  0  0  0  0  0
   -0.6468    0.1682   -1.1536 C   0  0  0  0  0  0  0  0  0  0  0  0
    0.2608    0.4433   -2.1779 C   0  0  0  0  0  0  0  0  0  0  0  0
   -0.1309    1.3114   -3.2032 C   0  0  0  0  0  0  0  0  0  0  0  0
   -1.3966    1.8814   -3.2326 C   0  0  0  0  0  0  0  0  0  0  0  0
    0.7309    1.5874   -4.1964 F   0  0  0  0  0  0  0  0  0  0  0  0
    1.6683   -1.4445   -0.3935 O   0  0  0  0  0  0  0  0  0  0  0  0
    2.1650   -1.0161   -1.4283 C   0  0  0  0  0  0  0  0  0  0  0  0
    1.5553   -0.1132   -2.2777 N   0  0  0  0  0  0  0  0  0  0  0  0
   -2.9793    4.3226    3.0081 C   0  0  0  0  0  0  0  0  0  0  0  0
   -2.4418    4.9746    3.8032 N   0  0  0  0  0  0  0  0  0  0  0  0
   -3.8379   -0.6827   -0.5415 N   0  0  0  0  0  0  0  0  0  0  0  0
   -4.1447   -1.7095    0.4572 C   0  0  0  0  0  0  0  0  0  0  0  0
   -5.1003   -1.2233    1.5000 C   0  0  0  0  0  0  0  0  0  0  0  0
   -6.5637   -1.0392    1.1813 C   0  0  0  0  0  0  0  0  0  0  0  0
   -6.1296   -2.1609    2.0835 C   0  0  0  0  0  0  0  0  0  0  0  0
    3.4664   -1.4383   -1.8961 C   0  0  0  0  0  0  0  0  0  0  0  0
    3.8138   -1.7682   -3.1979 C   0  0  0  0  0  0  0  0  0  0  0  0
    5.1160   -2.3043   -3.1397 C   0  0  0  0  0  0  0  0  0  0  0  0
    5.5713   -2.2878   -1.8788 N   0  0  0  0  0  0  0  0  0  0  0  0
    4.5973   -1.6938   -1.1253 N   0  0  0  0  0  0  0  0  0  0  0  0
    5.9132   -2.8653   -4.2888 C   0  0  0  0  0  0  0  0  0  0  0  0
    6.0898   -4.2090   -4.1900 F   0  0  0  0  0  0  0  0  0  0  0  0
    5.2868   -2.6473   -5.4799 F   0  0  0  0  0  0  0  0  0  0  0  0
    7.1458   -2.3029   -4.3962 F   0  0  0  0  0  0  0  0  0  0  0  0
    4.8974   -1.3860    0.2411 C   0  0  0  0  0  0  0  0  0  0  0  0
    4.1248   -0.5051    1.0070 C   0  0  0  0  0  0  0  0  0  0  0  0
    6.0344   -1.9670    0.8306 C   0  0  0  0  0  0  0  0  0  0  0  0
    6.3702   -1.6967    2.1592 C   0  0  0  0  0  0  0  0  0  0  0  0
    5.5767   -0.8413    2.9187 C   0  0  0  0  0  0  0  0  0  0  0  0
    4.4424   -0.2468    2.3545 C   0  0  0  0  0  0  0  0  0  0  0  0
    3.5804    0.6808    3.1708 C   0  0  0  0  0  0  0  0  0  0  0  0
    3.9868    2.0691    3.0040 N   0  0  0  0  0  0  0  0  0  0  0  0
   -2.0039    2.1293    1.8273 H   0  0  0  0  0  0  0  0  0  0  0  0
   -5.4558    1.3635   -0.6443 H   0  0  0  0  0  0  0  0  0  0  0  0
   -6.5717    3.3490    0.2978 H   0  0  0  0  0  0  0  0  0  0  0  0
   -5.4376    4.7334    2.0064 H   0  0  0  0  0  0  0  0  0  0  0  0
   -3.3001    2.0196   -2.2604 H   0  0  0  0  0  0  0  0  0  0  0  0
   -2.3268   -0.0501    0.7813 H   0  0  0  0  0  0  0  0  0  0  0  0
   -0.3826   -0.5011   -0.3412 H   0  0  0  0  0  0  0  0  0  0  0  0
   -1.6751    2.5389   -4.0491 H   0  0  0  0  0  0  0  0  0  0  0  0
    2.0838    0.2047   -3.0834 H   0  0  0  0  0  0  0  0  0  0  0  0
   -3.3635   -1.1589   -1.3094 H   0  0  0  0  0  0  0  0  0  0  0  0
   -4.5955   -2.5532   -0.0776 H   0  0  0  0  0  0  0  0  0  0  0  0
   -3.2330   -2.1001    0.9229 H   0  0  0  0  0  0  0  0  0  0  0  0
   -4.6384   -0.5271    2.1915 H   0  0  0  0  0  0  0  0  0  0  0  0
   -7.0703   -0.1902    1.6256 H   0  0  0  0  0  0  0  0  0  0  0  0
   -6.9059   -1.2858    0.1823 H   0  0  0  0  0  0  0  0  0  0  0  0
   -6.3405   -2.0750    3.1430 H   0  0  0  0  0  0  0  0  0  0  0  0
   -6.1905   -3.1738    1.7013 H   0  0  0  0  0  0  0  0  0  0  0  0
    3.1798   -1.7090   -4.0741 H   0  0  0  0  0  0  0  0  0  0  0  0
    3.2681    0.0152    0.5962 H   0  0  0  0  0  0  0  0  0  0  0  0
    6.6664   -2.6566    0.2708 H   0  0  0  0  0  0  0  0  0  0  0  0
    7.2459   -2.1657    2.6019 H   0  0  0  0  0  0  0  0  0  0  0  0
    5.8391   -0.6471    3.9559 H   0  0  0  0  0  0  0  0  0  0  0  0
    2.5300    0.5678    2.8790 H   0  0  0  0  0  0  0  0  0  0  0  0
    3.6310    0.4108    4.2334 H   0  0  0  0  0  0  0  0  0  0  0  0
    4.9589    2.1624    3.2940 H   0  0  0  0  0  0  0  0  0  0  0  0
    3.9698    2.3072    2.0139 H   0  0  0  0  0  0  0  0  0  0  0  0
  1  2  2  0
  2  3  1  0
  3  4  2  0
  4  5  1  0
  5  6  2  0
  1  6  1  0
  7  8  2  0
  8  9  1  0
  9  3  1  0
 10 11  2  0
 11 12  1  0
 12 13  2  0
  7 13  1  0
  8 10  1  0
 15 16  2  0
 16 17  1  0
 14 12  1  0
 17 11  1  0
  1 18  1  0
 18 19  3  0
  9 20  1  0
 20 21  1  0
 21 22  1  0
 22 23  1  0
 22 24  1  0
 23 24  1  0
 16 25  1  0
 26 27  1  0
 27 28  2  0
 28 29  1  0
 29 25  1  0
 26 25  2  0
 27 30  1  0
 30 31  1  0
 30 32  1  0
 30 33  1  0
 29 34  1  0
 36 37  1  0
 37 38  2  0
 38 39  1  0
 35 39  2  0
 35 34  1  0
 34 36  2  0
 39 40  1  0
 40 41  1  0
  2 42  1  0
  4 43  1  0
  5 44  1  0
  6 45  1  0
  7 46  1  0
  9 47  1  1
 10 48  1  0
 13 49  1  0
 17 50  1  0
 20 51  1  0
 21 52  1  0
 21 53  1  0
 22 54  1  0
 23 55  1  0
 23 56  1  0
 24 57  1  0
 24 58  1  0
 26 59  1  0
 35 60  1  0
 36 61  1  0
 37 62  1  0
 38 63  1  0
 40 64  1  0
 40 65  1  0
 41 66  1  0
 41 67  1  0
M  END
$$$$
