
     RDKit          2D

 41 45  0  0  0  0  0  0  0  0999 V2000
    1.3247    2.2861    0.0000 C   0  0  0  0  0  0  0  0  0  0  0  0
    0.6102    1.8735    0.0000 C   0  0  0  0  0  0  0  0  0  0  0  0
    0.6102    1.0485    0.0000 C   0  0  0  0  0  0  0  0  0  0  0  0
    1.3247    0.6360    0.0000 C   0  0  0  0  0  0  0  0  0  0  0  0
    2.0391    1.0485    0.0000 C   0  0  0  0  0  0  0  0  0  0  0  0
    2.0391    1.8735    0.0000 C   0  0  0  0  0  0  0  0  0  0  0  0
   -0.8187    1.8735    0.0000 C   0  0  0  0  0  0  0  0  0  0  0  0
   -0.8187    1.0485    0.0000 C   0  0  0  0  0  0  0  0  0  0  0  0
   -0.1043    0.6360    0.0000 C   0  0  0  0  0  0  0  0  0  0  0  0
   -1.5332    0.6360    0.0000 C   0  0  0  0  0  0  0  0  0  0  0  0
   -2.2477    1.0485    0.0000 C   0  0  0  0  0  0  0  0  0  0  0  0
   -2.2477    1.8735    0.0000 C   0  0  0  0  0  0  0  0  0  0  0  0
   -1.5332    2.2860    0.0000 C   0  0  0  0  0  0  0  0  0  0  0  0
   -2.9622    2.2860    0.0000 F   0  0  0  0  0  0  0  0  0  0  0  0
   -3.6766    1.8735    0.0000 O   0  0  0  0  0  0  0  0  0  0  0  0
   -3.6766    1.0485    0.0000 C   0  0  0  0  0  0  0  0  0  0  0  0
   -2.9622    0.6360    0.0000 N   0  0  0  0  0  0  0  0  0  0  0  0
    1.2815    3.1099    0.0000 C   0  0  0  0  0  0  0  0  0  0  0  0
    1.2383    3.9338    0.0000 N   0  0  0  0  0  0  0  0  0  0  0  0
   -0.1043   -0.1890    0.0000 N   0  0  0  0  0  0  0  0  0  0  0  0
    0.6102   -0.6015    0.0000 C   0  0  0  0  0  0  0  0  0  0  0  0
    0.6102   -1.4265    0.0000 C   0  0  0  0  0  0  0  0  0  0  0  0
    0.1977   -2.1410    0.0000 C   0  0  0  0  0  0  0  0  0  0  0  0
    1.0227   -2.1410    0.0000 C   0  0  0  0  0  0  0  0  0  0  0  0
   -4.3685    0.5992    0.0000 C   0  0  0  0  0  0  0  0  0  0  0  0
   -5.1387    0.8948    0.0000 C   0  0  0  0  0  0  0  0  0  0  0  0
   -5.6579    0.2537    0.0000 C   0  0  0  0  0  0  0  0  0  0  0  0
   -5.2086   -0.4382    0.0000 N   0  0  0  0  0  0  0  0  0  0  0  0
   -4.4117   -0.2247    0.0000 N   0  0  0  0  0  0  0  0  0  0  0  0
   -6.4818    0.2968    0.0000 C   0  0  0  0  0  0  0  0  0  0  0  0
   -6.7698    1.0233    0.0000 F   0  0  0  0  0  0  0  0  0  0  0  0
   -7.3056    0.3400    0.0000 F   0  0  0  0  0  0  0  0  0  0  0  0
   -6.8171   -0.3712    0.0000 F   0  0  0  0  0  0  0  0  0  0  0  0
   -3.8283   -0.8080    0.0000 C   0  0  0  0  0  0  0  0  0  0  0  0
   -3.0314   -0.5945    0.0000 C   0  0  0  0  0  0  0  0  0  0  0  0
   -4.0418   -1.6049    0.0000 C   0  0  0  0  0  0  0  0  0  0  0  0
   -3.4585   -2.1883    0.0000 C   0  0  0  0  0  0  0  0  0  0  0  0
   -2.6616   -1.9748    0.0000 C   0  0  0  0  0  0  0  0  0  0  0  0
   -2.4481   -1.1778    0.0000 C   0  0  0  0  0  0  0  0  0  0  0  0
   -1.6635   -0.9229    0.0000 C   0  0  0  0  0  0  0  0  0  0  0  0
   -1.0504   -1.4749    0.0000 N   0  0  0  0  0  0  0  0  0  0  0  0
  1  2  2  0
  2  3  1  0
  3  4  2  0
  4  5  1  0
  5  6  2  0
  1  6  1  0
  7  8  2  0
  8  9  1  0
  9  3  1  0
 10 11  2  0
 11 12  1  0
 12 13  2  0
  7 13  1  0
  8 10  1  0
 15 16  2  0
 16 17  1  0
 14 12  1  0
 17 11  1  0
  1 18  1  0
 18 19  3  0
  9 20  1  0
 20 21  1  0
 21 22  1  0
 22 23  1  0
 22 24  1  0
 23 24  1  0
 16 25  1  0
 26 27  1  0
 27 28  2  0
 28 29  1  0
 29 25  1  0
 26 25  2  0
 27 30  1  0
 30 31  1  0
 30 32  1  0
 30 33  1  0
 29 34  1  0
 36 37  2  0
 37 38  1  0
 38 39  2  0
 35 39  1  0
 35 34  2  0
 34 36  1  0
 39 40  1  0
 40 41  1  0
M  END
> <chembl_id>
CHEMBL4594271

> <chembl_pref_name>
BEROTRALSTAT
