
     RDKit          3D

 67 71  0  0  0  0  0  0  0  0999 V2000
    5.3224    0.5970   -2.9423 C   0  0  0  0  0  0  0  0  0  0  0  0
    4.5528    1.1446   -1.9099 C   0  0  0  0  0  0  0  0  0  0  0  0
    3.8235    0.3159   -1.0378 C   0  0  0  0  0  0  0  0  0  0  0  0
    3.8763   -1.0747   -1.2331 C   0  0  0  0  0  0  0  0  0  0  0  0
    4.6438   -1.6232   -2.2619 C   0  0  0  0  0  0  0  0  0  0  0  0
    5.3659   -0.7892   -3.1157 C   0  0  0  0  0  0  0  0  0  0  0  0
    1.4016    2.6450   -1.0112 C   0  0  0  0  0  0  0  0  0  0  0  0
    1.5982    1.3471   -0.5051 C   0  0  0  0  0  0  0  0  0  0  0  0
    2.9477    0.8959    0.0703 C   0  0  2  0  0  0  0  0  0  0  0  0
    0.5389    0.4174   -0.5855 C   0  0  0  0  0  0  0  0  0  0  0  0
   -0.6867    0.7710   -1.1519 C   0  0  0  0  0  0  0  0  0  0  0  0
   -0.8495    2.0764   -1.6296 C   0  0  0  0  0  0  0  0  0  0  0  0
    0.1767    3.0111   -1.5655 C   0  0  0  0  0  0  0  0  0  0  0  0
   -2.0231    2.4355   -2.1739 F   0  0  0  0  0  0  0  0  0  0  0  0
   -0.9429   -2.1003   -0.4821 O   0  0  0  0  0  0  0  0  0  0  0  0
   -1.8601   -1.4389   -0.9531 C   0  0  0  0  0  0  0  0  0  0  0  0
   -1.7882   -0.1022   -1.2913 N   0  0  0  0  0  0  0  0  0  0  0  0
    6.0593    1.4557   -3.8229 C   0  0  0  0  0  0  0  0  0  0  0  0
    6.6562    2.1491   -4.5379 N   0  0  0  0  0  0  0  0  0  0  0  0
    3.5943    1.9904    0.8165 N   0  0  0  0  0  0  0  0  0  0  0  0
    4.7656    1.5888    1.5919 C   0  0  0  0  0  0  0  0  0  0  0  0
    4.3917    0.7654    2.7867 C   0  0  0  0  0  0  0  0  0  0  0  0
    5.4742    0.0652    3.5705 C   0  0  0  0  0  0  0  0  0  0  0  0
    4.4966   -0.7398    2.7631 C   0  0  0  0  0  0  0  0  0  0  0  0
   -3.1294   -2.0431   -1.2705 C   0  0  0  0  0  0  0  0  0  0  0  0
   -3.3209   -3.1962   -2.0105 C   0  0  0  0  0  0  0  0  0  0  0  0
   -4.7140   -3.2984   -2.2197 C   0  0  0  0  0  0  0  0  0  0  0  0
   -5.3518   -2.2799   -1.6174 N   0  0  0  0  0  0  0  0  0  0  0  0
   -4.3967   -1.6138   -0.9107 N   0  0  0  0  0  0  0  0  0  0  0  0
   -5.4323   -4.3485   -3.0271 C   0  0  0  0  0  0  0  0  0  0  0  0
   -6.2677   -5.1037   -2.2667 F   0  0  0  0  0  0  0  0  0  0  0  0
   -4.5596   -5.2132   -3.6149 F   0  0  0  0  0  0  0  0  0  0  0  0
   -6.1764   -3.8144   -4.0310 F   0  0  0  0  0  0  0  0  0  0  0  0
   -4.7973   -0.6331    0.0474 C   0  0  0  0  0  0  0  0  0  0  0  0
   -3.9310   -0.1810    1.0545 C   0  0  0  0  0  0  0  0  0  0  0  0
   -6.1109   -0.1408    0.0048 C   0  0  0  0  0  0  0  0  0  0  0  0
   -6.5386    0.8145    0.9268 C   0  0  0  0  0  0  0  0  0  0  0  0
   -5.6640    1.2775    1.9070 C   0  0  0  0  0  0  0  0  0  0  0  0
   -4.3545    0.7853    1.9836 C   0  0  0  0  0  0  0  0  0  0  0  0
   -3.4267    1.2697    3.0711 C   0  0  0  0  0  0  0  0  0  0  0  0
   -3.8803    0.8341    4.3861 N   0  0  0  0  0  0  0  0  0  0  0  0
    4.5178    2.2251   -1.7761 H   0  0  0  0  0  0  0  0  0  0  0  0
    3.3097   -1.7429   -0.5862 H   0  0  0  0  0  0  0  0  0  0  0  0
    4.6706   -2.7012   -2.4032 H   0  0  0  0  0  0  0  0  0  0  0  0
    5.9571   -1.2261   -3.9180 H   0  0  0  0  0  0  0  0  0  0  0  0
    2.2098    3.3739   -0.9817 H   0  0  0  0  0  0  0  0  0  0  0  0
    2.7200    0.1014    0.7920 H   0  0  0  0  0  0  0  0  0  0  0  0
    0.7089   -0.5868   -0.2083 H   0  0  0  0  0  0  0  0  0  0  0  0
    0.0203    4.0114   -1.9562 H   0  0  0  0  0  0  0  0  0  0  0  0
   -2.5960    0.3157   -1.7445 H   0  0  0  0  0  0  0  0  0  0  0  0
    2.9082    2.3937    1.4519 H   0  0  0  0  0  0  0  0  0  0  0  0
    5.2479    2.5047    1.9536 H   0  0  0  0  0  0  0  0  0  0  0  0
    5.5133    1.0864    0.9675 H   0  0  0  0  0  0  0  0  0  0  0  0
    3.6006    1.2198    3.3748 H   0  0  0  0  0  0  0  0  0  0  0  0
    5.3840    0.0408    4.6512 H   0  0  0  0  0  0  0  0  0  0  0  0
    6.4972    0.1252    3.2146 H   0  0  0  0  0  0  0  0  0  0  0  0
    3.7440   -1.3095    3.2967 H   0  0  0  0  0  0  0  0  0  0  0  0
    4.8689   -1.2264    1.8683 H   0  0  0  0  0  0  0  0  0  0  0  0
   -2.5445   -3.8382   -2.4091 H   0  0  0  0  0  0  0  0  0  0  0  0
   -2.9335   -0.5916    1.1766 H   0  0  0  0  0  0  0  0  0  0  0  0
   -6.8171   -0.4858   -0.7492 H   0  0  0  0  0  0  0  0  0  0  0  0
   -7.5576    1.1903    0.8870 H   0  0  0  0  0  0  0  0  0  0  0  0
   -6.0111    2.0117    2.6323 H   0  0  0  0  0  0  0  0  0  0  0  0
   -3.3765    2.3644    3.0394 H   0  0  0  0  0  0  0  0  0  0  0  0
   -2.4083    0.9019    2.8990 H   0  0  0  0  0  0  0  0  0  0  0  0
   -3.9240   -0.1837    4.4024 H   0  0  0  0  0  0  0  0  0  0  0  0
   -3.1927    1.1072    5.0846 H   0  0  0  0  0  0  0  0  0  0  0  0
  1  2  2  0
  2  3  1  0
  3  4  2  0
  4  5  1  0
  5  6  2  0
  1  6  1  0
  7  8  2  0
  8  9  1  0
  9  3  1  0
 10 11  2  0
 11 12  1  0
 12 13  2  0
  7 13  1  0
  8 10  1  0
 15 16  2  0
 16 17  1  0
 14 12  1  0
 17 11  1  0
  1 18  1  0
 18 19  3  0
  9 20  1  0
 20 21  1  0
 21 22  1  0
 22 23  1  0
 22 24  1  0
 23 24  1  0
 16 25  1  0
 26 27  1  0
 27 28  2  0
 28 29  1  0
 29 25  1  0
 26 25  2  0
 27 30  1  0
 30 31  1  0
 30 32  1  0
 30 33  1  0
 29 34  1  0
 36 37  1  0
 37 38  2  0
 38 39  1  0
 35 39  2  0
 35 34  1  0
 34 36  2  0
 39 40  1  0
 40 41  1  0
  2 42  1  0
  4 43  1  0
  5 44  1  0
  6 45  1  0
  7 46  1  0
  9 47  1  1
 10 48  1  0
 13 49  1  0
 17 50  1  0
 20 51  1  0
 21 52  1  0
 21 53  1  0
 22 54  1  0
 23 55  1  0
 23 56  1  0
 24 57  1  0
 24 58  1  0
 26 59  1  0
 35 60  1  0
 36 61  1  0
 37 62  1  0
 38 63  1  0
 40 64  1  0
 40 65  1  0
 41 66  1  0
 41 67  1  0
M  END
$$$$
