
     RDKit          3D

 84 92  0  0  0  0  0  0  0  0999 V2000
    5.7520    0.2394   -1.6079 C   0  0  0  0  0  0  0  0  0  0  0  0
    4.9815    0.5597   -0.4839 C   0  0  0  0  0  0  0  0  0  0  0  0
    5.6111    1.0529    0.6645 C   0  0  0  0  0  0  0  0  0  0  0  0
    6.9923    1.2139    0.6803 C   0  0  0  0  0  0  0  0  0  0  0  0
    7.7617    0.8930   -0.4376 C   0  0  0  0  0  0  0  0  0  0  0  0
    7.1375    0.4043   -1.5858 C   0  0  0  0  0  0  0  0  0  0  0  0
    0.1590    5.1984    1.1752 C   0  0  0  0  0  0  0  0  0  0  0  0
    0.2516    6.5030    1.6508 C   0  0  0  0  0  0  0  0  0  0  0  0
   -0.3171    7.5615    0.9509 C   0  0  0  0  0  0  0  0  0  0  0  0
   -0.9867    7.3197   -0.2492 C   0  0  0  0  0  0  0  0  0  0  0  0
   -1.0801    6.0154   -0.7378 C   0  0  0  0  0  0  0  0  0  0  0  0
   -0.5158    4.9464   -0.0269 C   0  0  0  0  0  0  0  0  0  0  0  0
    1.5762   -1.0746   -0.1423 N   0  0  0  0  0  0  0  0  0  0  0  0
    2.9069   -0.7798   -0.1796 C   0  0  0  0  0  0  0  0  0  0  0  0
    3.6903   -1.9860    0.2565 C   0  0  0  0  0  0  0  0  0  0  0  0
    2.6979   -3.1057    0.0744 C   0  0  0  0  0  0  0  0  0  0  0  0
    1.3464   -2.4057    0.0536 C   0  0  0  0  0  0  0  0  0  0  0  0
    1.2968    1.7145   -0.5408 N   0  0  0  0  0  0  0  0  0  0  0  0
    0.8091    2.9169   -0.9725 C   0  0  0  0  0  0  0  0  0  0  0  0
    1.7769    3.5142   -1.7576 C   0  0  0  0  0  0  0  0  0  0  0  0
    2.9250    2.6802   -1.7258 C   0  0  0  0  0  0  0  0  0  0  0  0
    2.6086    1.6017   -0.9333 C   0  0  0  0  0  0  0  0  0  0  0  0
   -2.0099    1.3882   -0.5550 N   0  0  0  0  0  0  0  0  0  0  0  0
   -3.3440    1.0571   -0.5311 C   0  0  0  0  0  0  0  0  0  0  0  0
   -4.0821    2.2099   -0.6774 C   0  0  0  0  0  0  0  0  0  0  0  0
   -3.1574    3.2811   -0.7526 C   0  0  0  0  0  0  0  0  0  0  0  0
   -1.8853    2.7523   -0.6451 C   0  0  0  0  0  0  0  0  0  0  0  0
   -1.6033   -1.3756   -0.0790 N   0  0  0  0  0  0  0  0  0  0  0  0
   -1.0918   -2.6388    0.0944 C   0  0  0  0  0  0  0  0  0  0  0  0
   -2.2564   -3.5140    0.1889 C   0  0  0  0  0  0  0  0  0  0  0  0
   -3.3608   -2.7906    0.0558 C   0  0  0  0  0  0  0  0  0  0  0  0
   -2.9724   -1.4130   -0.1325 C   0  0  0  0  0  0  0  0  0  0  0  0
    0.1869   -3.1361    0.1632 C   0  0  0  0  0  0  0  0  0  0  0  0
    3.5192    0.3848   -0.5230 C   0  0  0  0  0  0  0  0  0  0  0  0
   -0.5533    3.5731   -0.5782 C   0  0  0  0  0  0  0  0  0  0  0  0
   -3.8772   -0.4173   -0.3272 C   0  0  0  0  0  0  0  0  0  0  0  0
    0.3486   -4.6114    0.3417 C   0  0  0  0  0  0  0  0  0  0  0  0
    0.3920   -5.1639    1.6280 C   0  0  0  0  0  0  0  0  0  0  0  0
    0.5536   -6.5393    1.7833 C   0  0  0  0  0  0  0  0  0  0  0  0
    0.6754   -7.3787    0.6805 C   0  0  0  0  0  0  0  0  0  0  0  0
    0.6295   -6.8345   -0.6039 C   0  0  0  0  0  0  0  0  0  0  0  0
    0.4638   -5.4570   -0.7724 C   0  0  0  0  0  0  0  0  0  0  0  0
   -5.3349   -0.6582   -0.3319 C   0  0  0  0  0  0  0  0  0  0  0  0
   -6.0452   -0.6666    0.8748 C   0  0  0  0  0  0  0  0  0  0  0  0
   -7.4190   -0.8984    0.8658 C   0  0  0  0  0  0  0  0  0  0  0  0
   -8.0980   -1.1138   -0.3293 C   0  0  0  0  0  0  0  0  0  0  0  0
   -7.3913   -1.1072   -1.5333 C   0  0  0  0  0  0  0  0  0  0  0  0
   -6.0116   -0.8818   -1.5355 C   0  0  0  0  0  0  0  0  0  0  0  0
   -8.1326   -0.9236    2.0314 O   0  0  0  0  0  0  0  0  0  0  0  0
    0.5968   -7.1003    3.0303 O   0  0  0  0  0  0  0  0  0  0  0  0
    7.5764    1.6942    1.8171 O   0  0  0  0  0  0  0  0  0  0  0  0
    0.9136    6.7828    2.8143 O   0  0  0  0  0  0  0  0  0  0  0  0
    5.2523   -0.1493   -2.4924 H   0  0  0  0  0  0  0  0  0  0  0  0
    5.0147    1.3021    1.5371 H   0  0  0  0  0  0  0  0  0  0  0  0
    8.8384    1.0138   -0.4299 H   0  0  0  0  0  0  0  0  0  0  0  0
    7.7201    0.1498   -2.4648 H   0  0  0  0  0  0  0  0  0  0  0  0
    0.6105    4.3707    1.7136 H   0  0  0  0  0  0  0  0  0  0  0  0
   -0.2328    8.5716    1.3384 H   0  0  0  0  0  0  0  0  0  0  0  0
   -1.4209    8.1414   -0.8089 H   0  0  0  0  0  0  0  0  0  0  0  0
   -1.5714    5.8296   -1.6905 H   0  0  0  0  0  0  0  0  0  0  0  0
    3.9765   -1.8918    1.3116 H   0  0  0  0  0  0  0  0  0  0  0  0
    4.5908   -2.1764   -0.3368 H   0  0  0  0  0  0  0  0  0  0  0  0
    2.8166   -3.8362    0.8816 H   0  0  0  0  0  0  0  0  0  0  0  0
    2.8759   -3.6053   -0.8887 H   0  0  0  0  0  0  0  0  0  0  0  0
    0.8282    0.9601   -0.0383 H   0  0  0  0  0  0  0  0  0  0  0  0
    1.6871    4.4685   -2.2565 H   0  0  0  0  0  0  0  0  0  0  0  0
    3.8763    2.8568   -2.2054 H   0  0  0  0  0  0  0  0  0  0  0  0
   -1.2861    0.6722   -0.4608 H   0  0  0  0  0  0  0  0  0  0  0  0
   -5.1599    2.2756   -0.6981 H   0  0  0  0  0  0  0  0  0  0  0  0
   -3.4102    4.3269   -0.8333 H   0  0  0  0  0  0  0  0  0  0  0  0
   -2.2362   -4.5791    0.3311 H   0  0  0  0  0  0  0  0  0  0  0  0
   -4.3644   -3.1758    0.0760 H   0  0  0  0  0  0  0  0  0  0  0  0
    0.3015   -4.4874    2.4729 H   0  0  0  0  0  0  0  0  0  0  0  0
    0.7977   -8.4477    0.8218 H   0  0  0  0  0  0  0  0  0  0  0  0
    0.7250   -7.4719   -1.4762 H   0  0  0  0  0  0  0  0  0  0  0  0
    0.4274   -5.0113   -1.7635 H   0  0  0  0  0  0  0  0  0  0  0  0
   -5.4964   -0.4992    1.7970 H   0  0  0  0  0  0  0  0  0  0  0  0
   -9.1656   -1.2986   -0.3256 H   0  0  0  0  0  0  0  0  0  0  0  0
   -7.9083   -1.2865   -2.4710 H   0  0  0  0  0  0  0  0  0  0  0  0
   -5.4463   -0.8839   -2.4645 H   0  0  0  0  0  0  0  0  0  0  0  0
   -7.4773   -0.8723    2.7494 H   0  0  0  0  0  0  0  0  0  0  0  0
    0.4323   -6.3714    3.6522 H   0  0  0  0  0  0  0  0  0  0  0  0
    8.5358    1.6816    1.6844 H   0  0  0  0  0  0  0  0  0  0  0  0
    1.2580    5.9369    3.1507 H   0  0  0  0  0  0  0  0  0  0  0  0
 25 26  2  0
 26 27  1  0
 27 23  1  0
 28 29  1  0
  1  2  2  0
  3  4  2  0
  7  8  2  0
 14 15  1  0
 29 30  1  0
 30 31  2  0
 31 32  1  0
 32 28  2  0
 15 16  1  0
 29 33  2  0
 17 33  1  0
 16 17  1  0
 14 34  2  0
 22 34  1  0
 17 13  2  0
 27 35  2  0
 19 35  1  0
 18 19  1  0
 24 36  2  0
 32 36  1  0
  8  9  1  0
  4  5  1  0
 37 38  2  0
  9 10  2  0
 38 39  1  0
  2  3  1  0
 39 40  2  0
 10 11  1  0
 40 41  1  0
 19 20  2  0
 41 42  2  0
 42 37  1  0
 33 37  1  0
 20 21  1  0
 21 22  2  0
 43 44  2  0
 22 18  1  0
 44 45  1  0
 23 24  1  0
 45 46  2  0
  5  6  2  0
 46 47  1  0
 11 12  2  0
 47 48  2  0
 48 43  1  0
 36 43  1  0
 12  7  1  0
 45 49  1  0
 13 14  1  0
 39 50  1  0
 35 12  1  0
 34  2  1  0
  6  1  1  0
  4 51  1  0
 24 25  1  0
  8 52  1  0
  1 53  1  0
  3 54  1  0
  5 55  1  0
  6 56  1  0
  7 57  1  0
  9 58  1  0
 10 59  1  0
 11 60  1  0
 15 61  1  0
 15 62  1  0
 16 63  1  0
 16 64  1  0
 18 65  1  0
 20 66  1  0
 21 67  1  0
 23 68  1  0
 25 69  1  0
 26 70  1  0
 30 71  1  0
 31 72  1  0
 38 73  1  0
 40 74  1  0
 41 75  1  0
 42 76  1  0
 44 77  1  0
 46 78  1  0
 47 79  1  0
 48 80  1  0
 49 81  1  0
 50 82  1  0
 51 83  1  0
 52 84  1  0
M  END
$$$$
