
     RDKit          3D

 87 92  0  0  0  0  0  0  0  0999 V2000
    0.5587   -1.1424    0.5795 N   0  0  0  0  0  0  0  0  0  0  0  0
    1.0127   -0.5937   -0.7091 C   0  0  0  0  0  0  0  0  0  0  0  0
    2.4470   -1.0010   -1.0328 C   0  0  0  0  0  0  0  0  0  0  0  0
    3.4291   -0.4442    0.0052 C   0  0  0  0  0  0  0  0  0  0  0  0
    2.7597   -0.2315    1.3708 C   0  0  0  0  0  0  0  0  0  0  0  0
    1.6273   -1.2288    1.5887 C   0  0  0  0  0  0  0  0  0  0  0  0
    4.5994   -1.3105    0.1034 N   0  0  0  0  0  0  0  0  0  0  0  0
   -0.6215   -0.4313    1.0997 C   0  0  0  0  0  0  0  0  0  0  0  0
   -1.8589   -0.5975    0.2071 C   0  0  0  0  0  0  0  0  0  0  0  0
   -3.0735    0.1278    0.8011 C   0  0  0  0  0  0  0  0  0  0  0  0
   -4.3252   -0.1228   -0.0516 C   0  0  0  0  0  0  0  0  0  0  0  0
   -5.6573    0.4727    0.4782 C   0  0  0  0  0  0  0  0  0  0  0  0
   -6.1100   -0.1595    1.8190 C   0  0  0  0  0  0  0  0  0  0  0  0
   -5.6539    2.0115    0.5186 C   0  0  0  0  0  0  0  0  0  0  0  0
   -6.5439    2.5314   -0.4489 C   0  0  0  0  0  0  0  0  0  0  0  0
   -7.2013    1.4386   -1.1307 C   0  0  0  0  0  0  0  0  0  0  0  0
   -6.7373    0.2173   -0.5990 C   0  0  0  0  0  0  0  0  0  0  0  0
   -8.1596    1.4495   -2.1311 C   0  0  0  0  0  0  0  0  0  0  0  0
   -8.6553    0.2269   -2.5953 C   0  0  0  0  0  0  0  0  0  0  0  0
   -8.1970   -0.9866   -2.0571 C   0  0  0  0  0  0  0  0  0  0  0  0
   -7.2311   -1.0004   -1.0501 C   0  0  0  0  0  0  0  0  0  0  0  0
   -4.9592    2.8589    1.3723 C   0  0  0  0  0  0  0  0  0  0  0  0
   -5.1251    4.2372    1.2235 C   0  0  0  0  0  0  0  0  0  0  0  0
   -5.9865    4.7534    0.2439 C   0  0  0  0  0  0  0  0  0  0  0  0
   -6.7073    3.9001   -0.5956 C   0  0  0  0  0  0  0  0  0  0  0  0
   -5.5515   -1.1295    2.3296 O   0  0  0  0  0  0  0  0  0  0  0  0
   -7.2215    0.4167    2.4101 N   0  0  0  0  0  0  0  0  0  0  0  0
   -7.8554   -0.2020    3.5735 C   0  0  0  0  0  0  0  0  0  0  0  0
    5.7880   -0.8780    0.6543 C   0  0  0  0  0  0  0  0  0  0  0  0
    6.8398   -1.9213    0.7411 C   0  0  0  0  0  0  0  0  0  0  0  0
    5.9824    0.2531    1.0779 O   0  0  0  0  0  0  0  0  0  0  0  0
    8.0981   -1.7541    0.1314 C   0  0  0  0  0  0  0  0  0  0  0  0
    9.0313   -2.8014    0.2547 C   0  0  0  0  0  0  0  0  0  0  0  0
    8.7262   -3.9675    0.9623 C   0  0  0  0  0  0  0  0  0  0  0  0
    7.4796   -4.1125    1.5641 C   0  0  0  0  0  0  0  0  0  0  0  0
    6.5360   -3.0928    1.4561 C   0  0  0  0  0  0  0  0  0  0  0  0
    8.4704   -0.5628   -0.6434 C   0  0  0  0  0  0  0  0  0  0  0  0
    8.4581   -0.5877   -2.0461 C   0  0  0  0  0  0  0  0  0  0  0  0
    8.8285    0.5404   -2.7857 C   0  0  0  0  0  0  0  0  0  0  0  0
    9.2273    1.7192   -2.1389 C   0  0  0  0  0  0  0  0  0  0  0  0
    9.2338    1.7493   -0.7377 C   0  0  0  0  0  0  0  0  0  0  0  0
    8.8664    0.6189   -0.0009 C   0  0  0  0  0  0  0  0  0  0  0  0
    9.6021    2.9413   -2.9409 C   0  0  0  0  0  0  0  0  0  0  0  0
   -8.8201   -1.3478    3.2542 C   0  0  0  0  0  0  0  0  0  0  0  0
   -9.3746   -1.8309    4.3906 F   0  0  0  0  0  0  0  0  0  0  0  0
   -8.2254   -2.3766    2.6175 F   0  0  0  0  0  0  0  0  0  0  0  0
   -9.8341   -0.9086    2.4697 F   0  0  0  0  0  0  0  0  0  0  0  0
   10.2629    2.6374   -4.0944 F   0  0  0  0  0  0  0  0  0  0  0  0
   10.4169    3.8018   -2.2670 F   0  0  0  0  0  0  0  0  0  0  0  0
    8.5158    3.6716   -3.3165 F   0  0  0  0  0  0  0  0  0  0  0  0
    0.3621   -0.9637   -1.5094 H   0  0  0  0  0  0  0  0  0  0  0  0
    0.9489    0.5026   -0.7176 H   0  0  0  0  0  0  0  0  0  0  0  0
    2.7257   -0.6398   -2.0303 H   0  0  0  0  0  0  0  0  0  0  0  0
    2.5037   -2.0968   -1.0816 H   0  0  0  0  0  0  0  0  0  0  0  0
    3.7942    0.5326   -0.3376 H   0  0  0  0  0  0  0  0  0  0  0  0
    3.4829   -0.3071    2.1905 H   0  0  0  0  0  0  0  0  0  0  0  0
    2.3477    0.7851    1.4162 H   0  0  0  0  0  0  0  0  0  0  0  0
    2.0413   -2.2446    1.5468 H   0  0  0  0  0  0  0  0  0  0  0  0
    1.2338   -1.1203    2.6071 H   0  0  0  0  0  0  0  0  0  0  0  0
    4.5149   -2.2796   -0.1766 H   0  0  0  0  0  0  0  0  0  0  0  0
   -0.3977    0.6333    1.2444 H   0  0  0  0  0  0  0  0  0  0  0  0
   -0.8805   -0.8381    2.0861 H   0  0  0  0  0  0  0  0  0  0  0  0
   -1.6706   -0.1959   -0.7953 H   0  0  0  0  0  0  0  0  0  0  0  0
   -2.0849   -1.6653    0.0954 H   0  0  0  0  0  0  0  0  0  0  0  0
   -3.2348   -0.2098    1.8302 H   0  0  0  0  0  0  0  0  0  0  0  0
   -2.8451    1.1973    0.8360 H   0  0  0  0  0  0  0  0  0  0  0  0
   -4.4435   -1.2096   -0.1636 H   0  0  0  0  0  0  0  0  0  0  0  0
   -4.1255    0.2613   -1.0627 H   0  0  0  0  0  0  0  0  0  0  0  0
   -8.5259    2.3803   -2.5513 H   0  0  0  0  0  0  0  0  0  0  0  0
   -9.4069    0.2141   -3.3814 H   0  0  0  0  0  0  0  0  0  0  0  0
   -8.5985   -1.9261   -2.4308 H   0  0  0  0  0  0  0  0  0  0  0  0
   -6.8783   -1.9416   -0.6372 H   0  0  0  0  0  0  0  0  0  0  0  0
   -4.3055    2.4718    2.1482 H   0  0  0  0  0  0  0  0  0  0  0  0
   -4.5842    4.9197    1.8759 H   0  0  0  0  0  0  0  0  0  0  0  0
   -6.1014    5.8305    0.1446 H   0  0  0  0  0  0  0  0  0  0  0  0
   -7.3845    4.3118   -1.3368 H   0  0  0  0  0  0  0  0  0  0  0  0
   -7.7688    1.0664    1.8526 H   0  0  0  0  0  0  0  0  0  0  0  0
   -7.0728   -0.5651    4.2496 H   0  0  0  0  0  0  0  0  0  0  0  0
   -8.3984    0.5962    4.0911 H   0  0  0  0  0  0  0  0  0  0  0  0
   10.0148   -2.7067   -0.2046 H   0  0  0  0  0  0  0  0  0  0  0  0
    9.4671   -4.7594    1.0458 H   0  0  0  0  0  0  0  0  0  0  0  0
    7.2460   -5.0161    2.1222 H   0  0  0  0  0  0  0  0  0  0  0  0
    5.5706   -3.2038    1.9449 H   0  0  0  0  0  0  0  0  0  0  0  0
    8.1525   -1.4896   -2.5734 H   0  0  0  0  0  0  0  0  0  0  0  0
    8.8045    0.4965   -3.8735 H   0  0  0  0  0  0  0  0  0  0  0  0
    9.5193    2.6563   -0.2064 H   0  0  0  0  0  0  0  0  0  0  0  0
    8.8665    0.6718    1.0871 H   0  0  0  0  0  0  0  0  0  0  0  0
  1  8  1  0
  8  9  1  0
  9 10  1  0
 10 11  1  0
 11 12  1  0
 12 13  1  0
 12 14  1  0
 14 15  2  0
 15 16  1  0
 16 17  1  0
 17 12  1  0
 16 18  2  0
 18 19  1  0
 19 20  2  0
 20 21  1  0
 21 17  2  0
 14 22  1  0
 22 23  2  0
 23 24  1  0
 24 25  2  0
 25 15  1  0
 13 26  2  0
 13 27  1  0
 27 28  1  0
  7 29  1  0
 29 30  1  0
 29 31  2  0
 30 32  1  0
 32 33  2  0
 33 34  1  0
 34 35  2  0
 35 36  1  0
 36 30  2  0
 32 37  1  0
 37 38  2  0
 38 39  1  0
 39 40  2  0
 40 41  1  0
 41 42  2  0
 42 37  1  0
 40 43  1  0
 28 44  1  0
  1  2  1  0
  2  3  1  0
 44 45  1  0
  3  4  1  0
 44 46  1  0
  4  5  1  0
 44 47  1  0
  5  6  1  0
 43 48  1  0
  6  1  1  0
 43 49  1  0
  4  7  1  0
 43 50  1  0
  2 51  1  0
  2 52  1  0
  3 53  1  0
  3 54  1  0
  4 55  1  0
  5 56  1  0
  5 57  1  0
  6 58  1  0
  6 59  1  0
  7 60  1  0
  8 61  1  0
  8 62  1  0
  9 63  1  0
  9 64  1  0
 10 65  1  0
 10 66  1  0
 11 67  1  0
 11 68  1  0
 18 69  1  0
 19 70  1  0
 20 71  1  0
 21 72  1  0
 22 73  1  0
 23 74  1  0
 24 75  1  0
 25 76  1  0
 27 77  1  0
 28 78  1  0
 28 79  1  0
 33 80  1  0
 34 81  1  0
 35 82  1  0
 36 83  1  0
 38 84  1  0
 39 85  1  0
 41 86  1  0
 42 87  1  0
M  END
$$$$
