
     RDKit          3D

 50 55  0  0  0  0  0  0  0  0999 V2000
    0.3172   -0.2320    1.1331 N   0  0  0  0  0  0  0  0  0  0  0  0
   -0.3383   -1.4546    1.6158 C   0  0  0  0  0  0  0  0  0  0  0  0
   -0.7526   -1.1496    3.0632 C   0  0  0  0  0  0  0  0  0  0  0  0
   -2.0295   -0.3089    2.9235 C   0  0  0  0  0  0  0  0  0  0  0  0
   -1.7327    0.8415    1.9585 C   0  0  0  0  0  0  0  0  0  0  0  0
   -0.2111    0.9367    1.8007 C   0  0  0  0  0  0  0  0  0  0  0  0
   -2.9932   -1.1680    2.3106 N   0  0  0  0  0  0  0  0  0  0  0  0
    1.7294   -0.3509    1.5046 C   0  0  0  0  0  0  0  0  0  0  0  0
    2.3596   -1.4857    0.6497 C   0  0  0  0  0  0  0  0  0  0  0  0
    2.1986   -1.0463   -0.7531 C   0  0  0  0  0  0  0  0  0  0  0  0
    2.9391    0.1575   -1.1323 C   0  0  0  0  0  0  0  0  0  0  0  0
    4.4145    0.0460   -1.1846 C   0  0  0  0  0  0  0  0  0  0  0  0
    5.1625   -0.3108    0.0270 C   0  0  0  0  0  0  0  0  0  0  0  0
    4.7622   -1.0712   -2.1802 C   0  0  0  0  0  0  0  0  0  0  0  0
    5.4428   -0.5473   -3.2340 C   0  0  0  0  0  0  0  0  0  0  0  0
    5.6171    0.8755   -3.0486 C   0  0  0  0  0  0  0  0  0  0  0  0
    5.0328    1.2304   -1.8602 C   0  0  0  0  0  0  0  0  0  0  0  0
    6.2309    1.8574   -3.8083 C   0  0  0  0  0  0  0  0  0  0  0  0
    6.2667    3.1724   -3.3986 C   0  0  0  0  0  0  0  0  0  0  0  0
    5.6678    3.5004   -2.1919 C   0  0  0  0  0  0  0  0  0  0  0  0
    5.0570    2.5300   -1.4340 C   0  0  0  0  0  0  0  0  0  0  0  0
    4.4857   -2.4146   -2.1413 C   0  0  0  0  0  0  0  0  0  0  0  0
    4.8950   -3.2348   -3.1681 C   0  0  0  0  0  0  0  0  0  0  0  0
    5.5862   -2.7123   -4.2440 C   0  0  0  0  0  0  0  0  0  0  0  0
    5.8529   -1.3625   -4.2609 C   0  0  0  0  0  0  0  0  0  0  0  0
    4.7462   -0.3970    1.1883 O   0  0  0  0  0  0  0  0  0  0  0  0
    6.5563   -0.5976   -0.1717 N   0  0  0  0  0  0  0  0  0  0  0  0
    7.4668   -0.9523    0.8305 C   0  0  0  0  0  0  0  0  0  0  0  0
   -4.3383   -0.8619    1.9943 C   0  0  0  0  0  0  0  0  0  0  0  0
   -5.1264   -1.9224    1.3679 C   0  0  0  0  0  0  0  0  0  0  0  0
   -4.7600    0.2729    2.2655 O   0  0  0  0  0  0  0  0  0  0  0  0
   -6.2856   -1.6620    0.6874 C   0  0  0  0  0  0  0  0  0  0  0  0
   -6.9942   -2.7290    0.1195 C   0  0  0  0  0  0  0  0  0  0  0  0
   -6.5402   -4.0249    0.2380 C   0  0  0  0  0  0  0  0  0  0  0  0
   -5.3724   -4.3033    0.9211 C   0  0  0  0  0  0  0  0  0  0  0  0
   -4.7133   -3.2319    1.4591 C   0  0  0  0  0  0  0  0  0  0  0  0
   -6.8568   -0.3469    0.4835 C   0  0  0  0  0  0  0  0  0  0  0  0
   -8.2224   -0.2248    0.7859 C   0  0  0  0  0  0  0  0  0  0  0  0
   -8.8929    0.9712    0.6134 C   0  0  0  0  0  0  0  0  0  0  0  0
   -8.1917    2.0822    0.1267 C   0  0  0  0  0  0  0  0  0  0  0  0
   -6.8503    1.9758   -0.1740 C   0  0  0  0  0  0  0  0  0  0  0  0
   -6.1855    0.7513    0.0079 C   0  0  0  0  0  0  0  0  0  0  0  0
   -8.9797    3.3290   -0.0349 C   0  0  0  0  0  0  0  0  0  0  0  0
    7.7225    0.0585    1.8863 C   0  0  0  0  0  0  0  0  0  0  0  0
    6.5911    0.3901    2.5819 F   0  0  0  0  0  0  0  0  0  0  0  0
    8.6636   -0.4301    2.8147 F   0  0  0  0  0  0  0  0  0  0  0  0
    8.3301    1.2111    1.3775 F   0  0  0  0  0  0  0  0  0  0  0  0
   -9.5689    3.2783   -1.3035 F   0  0  0  0  0  0  0  0  0  0  0  0
   -9.9487    3.3902    0.9514 F   0  0  0  0  0  0  0  0  0  0  0  0
   -8.2102    4.4540    0.0367 F   0  0  0  0  0  0  0  0  0  0  0  0
  1  8  1  0
  8  9  1  0
  9 10  1  0
 10 11  1  0
 11 12  1  0
 12 13  1  0
 12 14  1  0
 14 15  2  0
 15 16  1  0
 16 17  1  0
 17 12  1  0
 16 18  2  0
 18 19  1  0
 19 20  2  0
 20 21  1  0
 21 17  2  0
 14 22  1  0
 22 23  2  0
 23 24  1  0
 24 25  2  0
 25 15  1  0
 13 26  2  0
 13 27  1  0
 27 28  1  0
  7 29  1  0
 29 30  1  0
 29 31  2  0
 30 32  1  0
 32 33  2  0
 33 34  1  0
 34 35  2  0
 35 36  1  0
 36 30  2  0
 32 37  1  0
 37 38  2  0
 38 39  1  0
 39 40  2  0
 40 41  1  0
 41 42  2  0
 42 37  1  0
 40 43  1  0
 28 44  1  0
  1  2  1  0
  2  3  1  0
 44 45  1  0
  3  4  1  0
 44 46  1  0
  4  5  1  0
 44 47  1  0
  5  6  1  0
 43 48  1  0
  6  1  1  0
 43 49  1  0
  4  7  1  0
 43 50  1  0
M  END
