
     RDKit          3D

 87 92  0  0  0  0  0  0  0  0999 V2000
    0.1791   -1.0104    0.5268 N   0  0  0  0  0  0  0  0  0  0  0  0
    1.1612   -2.0129    0.9675 C   0  0  0  0  0  0  0  0  0  0  0  0
    2.4486   -1.9344    0.1558 C   0  0  0  0  0  0  0  0  0  0  0  0
    3.1509   -0.5926    0.3976 C   0  0  0  0  0  0  0  0  0  0  0  0
    2.1559    0.5285    0.7244 C   0  0  0  0  0  0  0  0  0  0  0  0
    0.7851    0.2624    0.1060 C   0  0  0  0  0  0  0  0  0  0  0  0
    3.9933   -0.2419   -0.7398 N   0  0  0  0  0  0  0  0  0  0  0  0
   -0.8973   -0.8438    1.5125 C   0  0  0  0  0  0  0  0  0  0  0  0
   -2.2919   -0.9012    0.8693 C   0  0  0  0  0  0  0  0  0  0  0  0
   -2.5911    0.2259   -0.1175 C   0  0  0  0  0  0  0  0  0  0  0  0
   -3.9584    0.1342   -0.8169 C   0  0  0  0  0  0  0  0  0  0  0  0
   -5.2633    0.2300    0.0253 C   0  0  0  0  0  0  0  0  0  0  0  0
   -5.5187   -0.9739    0.9812 C   0  0  0  0  0  0  0  0  0  0  0  0
   -6.4556    0.3644   -0.9634 C   0  0  0  0  0  0  0  0  0  0  0  0
   -7.0959    1.6104   -0.7901 C   0  0  0  0  0  0  0  0  0  0  0  0
   -6.4334    2.3480    0.2607 C   0  0  0  0  0  0  0  0  0  0  0  0
   -5.3699    1.5763    0.7746 C   0  0  0  0  0  0  0  0  0  0  0  0
   -6.7189    3.6020    0.7817 C   0  0  0  0  0  0  0  0  0  0  0  0
   -5.9431    4.0812    1.8397 C   0  0  0  0  0  0  0  0  0  0  0  0
   -4.9058    3.3036    2.3727 C   0  0  0  0  0  0  0  0  0  0  0  0
   -4.6178    2.0418    1.8472 C   0  0  0  0  0  0  0  0  0  0  0  0
   -6.8981   -0.5270   -1.9358 C   0  0  0  0  0  0  0  0  0  0  0  0
   -7.9995   -0.1712   -2.7184 C   0  0  0  0  0  0  0  0  0  0  0  0
   -8.6405    1.0618   -2.5362 C   0  0  0  0  0  0  0  0  0  0  0  0
   -8.1883    1.9623   -1.5694 C   0  0  0  0  0  0  0  0  0  0  0  0
   -5.8931   -0.8548    2.1475 O   0  0  0  0  0  0  0  0  0  0  0  0
   -5.2920   -2.2339    0.4546 N   0  0  0  0  0  0  0  0  0  0  0  0
   -5.6578   -3.4329    1.2130 C   0  0  0  0  0  0  0  0  0  0  0  0
    5.2244   -0.8355   -0.9326 C   0  0  0  0  0  0  0  0  0  0  0  0
    5.9150   -0.4319   -2.1795 C   0  0  0  0  0  0  0  0  0  0  0  0
    5.7318   -1.6466   -0.1703 O   0  0  0  0  0  0  0  0  0  0  0  0
    7.1777    0.1898   -2.1398 C   0  0  0  0  0  0  0  0  0  0  0  0
    7.7819    0.5267   -3.3646 C   0  0  0  0  0  0  0  0  0  0  0  0
    7.1508    0.2539   -4.5820 C   0  0  0  0  0  0  0  0  0  0  0  0
    5.9026   -0.3640   -4.6008 C   0  0  0  0  0  0  0  0  0  0  0  0
    5.2822   -0.7094   -3.4016 C   0  0  0  0  0  0  0  0  0  0  0  0
    7.8652    0.5190   -0.8847 C   0  0  0  0  0  0  0  0  0  0  0  0
    8.8922   -0.3004   -0.3958 C   0  0  0  0  0  0  0  0  0  0  0  0
    9.5436    0.0057    0.8024 C   0  0  0  0  0  0  0  0  0  0  0  0
    9.1783    1.1391    1.5422 C   0  0  0  0  0  0  0  0  0  0  0  0
    8.1618    1.9693    1.0480 C   0  0  0  0  0  0  0  0  0  0  0  0
    7.5115    1.6601   -0.1504 C   0  0  0  0  0  0  0  0  0  0  0  0
    9.8872    1.4780    2.8295 C   0  0  0  0  0  0  0  0  0  0  0  0
   -7.1171   -3.8694    1.0604 C   0  0  0  0  0  0  0  0  0  0  0  0
   -7.9928   -2.9547    1.5162 F   0  0  0  0  0  0  0  0  0  0  0  0
   -7.3993   -4.0970   -0.2467 F   0  0  0  0  0  0  0  0  0  0  0  0
   -7.3401   -5.0264    1.7251 F   0  0  0  0  0  0  0  0  0  0  0  0
   10.3718    0.3857    3.4835 F   0  0  0  0  0  0  0  0  0  0  0  0
   10.9581    2.2955    2.6281 F   0  0  0  0  0  0  0  0  0  0  0  0
    9.0890    2.1225    3.7268 F   0  0  0  0  0  0  0  0  0  0  0  0
    1.4083   -1.8847    2.0302 H   0  0  0  0  0  0  0  0  0  0  0  0
    0.7241   -3.0118    0.8531 H   0  0  0  0  0  0  0  0  0  0  0  0
    2.2195   -2.0699   -0.9099 H   0  0  0  0  0  0  0  0  0  0  0  0
    3.1176   -2.7584    0.4312 H   0  0  0  0  0  0  0  0  0  0  0  0
    3.8198   -0.7013    1.2613 H   0  0  0  0  0  0  0  0  0  0  0  0
    2.5362    1.5018    0.3924 H   0  0  0  0  0  0  0  0  0  0  0  0
    2.0386    0.5987    1.8138 H   0  0  0  0  0  0  0  0  0  0  0  0
    0.8944    0.2336   -0.9855 H   0  0  0  0  0  0  0  0  0  0  0  0
    0.1260    1.1147    0.3089 H   0  0  0  0  0  0  0  0  0  0  0  0
    3.6157    0.3519   -1.4663 H   0  0  0  0  0  0  0  0  0  0  0  0
   -0.7778    0.0776    2.0968 H   0  0  0  0  0  0  0  0  0  0  0  0
   -0.8710   -1.6598    2.2476 H   0  0  0  0  0  0  0  0  0  0  0  0
   -2.4139   -1.8687    0.3662 H   0  0  0  0  0  0  0  0  0  0  0  0
   -3.0165   -0.8731    1.6887 H   0  0  0  0  0  0  0  0  0  0  0  0
   -2.4743    1.1975    0.3712 H   0  0  0  0  0  0  0  0  0  0  0  0
   -1.8384    0.2043   -0.9153 H   0  0  0  0  0  0  0  0  0  0  0  0
   -3.9630   -0.7902   -1.4091 H   0  0  0  0  0  0  0  0  0  0  0  0
   -3.9685    0.9439   -1.5624 H   0  0  0  0  0  0  0  0  0  0  0  0
   -7.5350    4.2009    0.3921 H   0  0  0  0  0  0  0  0  0  0  0  0
   -6.1578    5.0578    2.2670 H   0  0  0  0  0  0  0  0  0  0  0  0
   -4.3291    3.6812    3.2137 H   0  0  0  0  0  0  0  0  0  0  0  0
   -3.8369    1.4372    2.2957 H   0  0  0  0  0  0  0  0  0  0  0  0
   -6.4173   -1.4821   -2.1078 H   0  0  0  0  0  0  0  0  0  0  0  0
   -8.3667   -0.8576   -3.4784 H   0  0  0  0  0  0  0  0  0  0  0  0
   -9.4980    1.3192   -3.1536 H   0  0  0  0  0  0  0  0  0  0  0  0
   -8.6904    2.9149   -1.4373 H   0  0  0  0  0  0  0  0  0  0  0  0
   -5.1554   -2.3358   -0.5410 H   0  0  0  0  0  0  0  0  0  0  0  0
   -5.4334   -3.2709    2.2723 H   0  0  0  0  0  0  0  0  0  0  0  0
   -5.0033   -4.2334    0.8534 H   0  0  0  0  0  0  0  0  0  0  0  0
    8.7569    1.0118   -3.3725 H   0  0  0  0  0  0  0  0  0  0  0  0
    7.6400    0.5208   -5.5161 H   0  0  0  0  0  0  0  0  0  0  0  0
    5.4192   -0.5858   -5.5492 H   0  0  0  0  0  0  0  0  0  0  0  0
    4.3199   -1.2158   -3.4201 H   0  0  0  0  0  0  0  0  0  0  0  0
    9.1766   -1.1986   -0.9411 H   0  0  0  0  0  0  0  0  0  0  0  0
   10.3305   -0.6559    1.1615 H   0  0  0  0  0  0  0  0  0  0  0  0
    7.8641    2.8589    1.6011 H   0  0  0  0  0  0  0  0  0  0  0  0
    6.7194    2.3150   -0.5074 H   0  0  0  0  0  0  0  0  0  0  0  0
  1  8  1  0
  8  9  1  0
  9 10  1  0
 10 11  1  0
 11 12  1  0
 12 13  1  0
 12 14  1  0
 14 15  2  0
 15 16  1  0
 16 17  1  0
 17 12  1  0
 16 18  2  0
 18 19  1  0
 19 20  2  0
 20 21  1  0
 21 17  2  0
 14 22  1  0
 22 23  2  0
 23 24  1  0
 24 25  2  0
 25 15  1  0
 13 26  2  0
 13 27  1  0
 27 28  1  0
  7 29  1  0
 29 30  1  0
 29 31  2  0
 30 32  1  0
 32 33  2  0
 33 34  1  0
 34 35  2  0
 35 36  1  0
 36 30  2  0
 32 37  1  0
 37 38  2  0
 38 39  1  0
 39 40  2  0
 40 41  1  0
 41 42  2  0
 42 37  1  0
 40 43  1  0
 28 44  1  0
  1  2  1  0
  2  3  1  0
 44 45  1  0
  3  4  1  0
 44 46  1  0
  4  5  1  0
 44 47  1  0
  5  6  1  0
 43 48  1  0
  6  1  1  0
 43 49  1  0
  4  7  1  0
 43 50  1  0
  2 51  1  0
  2 52  1  0
  3 53  1  0
  3 54  1  0
  4 55  1  0
  5 56  1  0
  5 57  1  0
  6 58  1  0
  6 59  1  0
  7 60  1  0
  8 61  1  0
  8 62  1  0
  9 63  1  0
  9 64  1  0
 10 65  1  0
 10 66  1  0
 11 67  1  0
 11 68  1  0
 18 69  1  0
 19 70  1  0
 20 71  1  0
 21 72  1  0
 22 73  1  0
 23 74  1  0
 24 75  1  0
 25 76  1  0
 27 77  1  0
 28 78  1  0
 28 79  1  0
 33 80  1  0
 34 81  1  0
 35 82  1  0
 36 83  1  0
 38 84  1  0
 39 85  1  0
 41 86  1  0
 42 87  1  0
M  END
$$$$
