
     RDKit          3D

 87 92  0  0  0  0  0  0  0  0999 V2000
    0.3482    0.6459   -0.4782 N   0  0  0  0  0  0  0  0  0  0  0  0
    1.1890   -0.1005   -1.4272 C   0  0  0  0  0  0  0  0  0  0  0  0
    2.5665    0.5502   -1.5810 C   0  0  0  0  0  0  0  0  0  0  0  0
    3.2687    0.6772   -0.2302 C   0  0  0  0  0  0  0  0  0  0  0  0
    2.3656    1.4144    0.7612 C   0  0  0  0  0  0  0  0  0  0  0  0
    1.0006    0.7350    0.8430 C   0  0  0  0  0  0  0  0  0  0  0  0
    4.5568    1.3468   -0.3659 N   0  0  0  0  0  0  0  0  0  0  0  0
   -0.9869    0.0359   -0.3168 C   0  0  0  0  0  0  0  0  0  0  0  0
   -1.8534    0.0913   -1.5875 C   0  0  0  0  0  0  0  0  0  0  0  0
   -3.2900   -0.3904   -1.3331 C   0  0  0  0  0  0  0  0  0  0  0  0
   -4.1630    0.6824   -0.6547 C   0  0  0  0  0  0  0  0  0  0  0  0
   -5.5630    0.2066   -0.1782 C   0  0  0  0  0  0  0  0  0  0  0  0
   -6.3320    1.4174    0.4254 C   0  0  0  0  0  0  0  0  0  0  0  0
   -6.4059   -0.4009   -1.3108 C   0  0  0  0  0  0  0  0  0  0  0  0
   -6.7323   -1.7429   -1.0155 C   0  0  0  0  0  0  0  0  0  0  0  0
   -6.1560   -2.1011    0.2641 C   0  0  0  0  0  0  0  0  0  0  0  0
   -5.4597   -0.9871    0.7882 C   0  0  0  0  0  0  0  0  0  0  0  0
   -6.2104   -3.2898    0.9724 C   0  0  0  0  0  0  0  0  0  0  0  0
   -5.5611   -3.3603    2.2092 C   0  0  0  0  0  0  0  0  0  0  0  0
   -4.8658   -2.2545    2.7229 C   0  0  0  0  0  0  0  0  0  0  0  0
   -4.8093   -1.0538    2.0132 C   0  0  0  0  0  0  0  0  0  0  0  0
   -6.8439    0.2068   -2.4789 C   0  0  0  0  0  0  0  0  0  0  0  0
   -7.6138   -0.5493   -3.3653 C   0  0  0  0  0  0  0  0  0  0  0  0
   -7.9357   -1.8849   -3.0784 C   0  0  0  0  0  0  0  0  0  0  0  0
   -7.4966   -2.4893   -1.8982 C   0  0  0  0  0  0  0  0  0  0  0  0
   -6.2306    2.5569   -0.0402 O   0  0  0  0  0  0  0  0  0  0  0  0
   -7.2126    1.1476    1.4601 N   0  0  0  0  0  0  0  0  0  0  0  0
   -8.0931    2.1804    2.0135 C   0  0  0  0  0  0  0  0  0  0  0  0
    5.5612    1.1777    0.5662 C   0  0  0  0  0  0  0  0  0  0  0  0
    6.7463    2.0426    0.3634 C   0  0  0  0  0  0  0  0  0  0  0  0
    5.5025    0.4158    1.5212 O   0  0  0  0  0  0  0  0  0  0  0  0
    8.0168    1.4922    0.1120 C   0  0  0  0  0  0  0  0  0  0  0  0
    9.0986    2.3810   -0.0422 C   0  0  0  0  0  0  0  0  0  0  0  0
    8.9184    3.7646    0.0563 C   0  0  0  0  0  0  0  0  0  0  0  0
    7.6530    4.2903    0.3084 C   0  0  0  0  0  0  0  0  0  0  0  0
    6.5639    3.4318    0.4616 C   0  0  0  0  0  0  0  0  0  0  0  0
    8.2563    0.0493   -0.0115 C   0  0  0  0  0  0  0  0  0  0  0  0
    8.6277   -0.7068    1.1102 C   0  0  0  0  0  0  0  0  0  0  0  0
    8.8899   -2.0738    0.9962 C   0  0  0  0  0  0  0  0  0  0  0  0
    8.7951   -2.7178   -0.2461 C   0  0  0  0  0  0  0  0  0  0  0  0
    8.4135   -1.9661   -1.3702 C   0  0  0  0  0  0  0  0  0  0  0  0
    8.1471   -0.5977   -1.2525 C   0  0  0  0  0  0  0  0  0  0  0  0
    9.0635   -4.1979   -0.3575 C   0  0  0  0  0  0  0  0  0  0  0  0
   -8.4184    2.0073    3.5005 C   0  0  0  0  0  0  0  0  0  0  0  0
   -7.3081    2.0831    4.2694 F   0  0  0  0  0  0  0  0  0  0  0  0
   -9.2774    2.9634    3.9259 F   0  0  0  0  0  0  0  0  0  0  0  0
   -8.9954    0.8019    3.7253 F   0  0  0  0  0  0  0  0  0  0  0  0
    9.4229   -4.5801   -1.6145 F   0  0  0  0  0  0  0  0  0  0  0  0
   10.0705   -4.6216    0.4592 F   0  0  0  0  0  0  0  0  0  0  0  0
    7.9770   -4.9533   -0.0376 F   0  0  0  0  0  0  0  0  0  0  0  0
    0.7259   -0.1149   -2.4191 H   0  0  0  0  0  0  0  0  0  0  0  0
    1.3072   -1.1426   -1.1072 H   0  0  0  0  0  0  0  0  0  0  0  0
    2.4516    1.5410   -2.0402 H   0  0  0  0  0  0  0  0  0  0  0  0
    3.1816   -0.0436   -2.2690 H   0  0  0  0  0  0  0  0  0  0  0  0
    3.4602   -0.3309    0.1608 H   0  0  0  0  0  0  0  0  0  0  0  0
    2.2457    2.4651    0.4558 H   0  0  0  0  0  0  0  0  0  0  0  0
    2.8251    1.4310    1.7611 H   0  0  0  0  0  0  0  0  0  0  0  0
    1.1157   -0.2666    1.2821 H   0  0  0  0  0  0  0  0  0  0  0  0
    0.3739    1.3215    1.5278 H   0  0  0  0  0  0  0  0  0  0  0  0
    4.6547    2.0763   -1.0618 H   0  0  0  0  0  0  0  0  0  0  0  0
   -0.8988   -1.0061    0.0235 H   0  0  0  0  0  0  0  0  0  0  0  0
   -1.5183    0.5796    0.4729 H   0  0  0  0  0  0  0  0  0  0  0  0
   -1.4157   -0.5661   -2.3477 H   0  0  0  0  0  0  0  0  0  0  0  0
   -1.8661    1.1069   -2.0054 H   0  0  0  0  0  0  0  0  0  0  0  0
   -3.7392   -0.6512   -2.2979 H   0  0  0  0  0  0  0  0  0  0  0  0
   -3.2539   -1.3113   -0.7431 H   0  0  0  0  0  0  0  0  0  0  0  0
   -3.6311    1.1035    0.2085 H   0  0  0  0  0  0  0  0  0  0  0  0
   -4.2739    1.5131   -1.3666 H   0  0  0  0  0  0  0  0  0  0  0  0
   -6.7421   -4.1529    0.5863 H   0  0  0  0  0  0  0  0  0  0  0  0
   -5.5933   -4.2862    2.7797 H   0  0  0  0  0  0  0  0  0  0  0  0
   -4.3642   -2.3376    3.6844 H   0  0  0  0  0  0  0  0  0  0  0  0
   -4.2737   -0.1999    2.4141 H   0  0  0  0  0  0  0  0  0  0  0  0
   -6.6092    1.2470   -2.6959 H   0  0  0  0  0  0  0  0  0  0  0  0
   -7.9719   -0.0973   -4.2882 H   0  0  0  0  0  0  0  0  0  0  0  0
   -8.5385   -2.4548   -3.7832 H   0  0  0  0  0  0  0  0  0  0  0  0
   -7.7472   -3.5246   -1.6888 H   0  0  0  0  0  0  0  0  0  0  0  0
   -7.4717    0.1830    1.6290 H   0  0  0  0  0  0  0  0  0  0  0  0
   -7.6463    3.1694    1.8549 H   0  0  0  0  0  0  0  0  0  0  0  0
   -9.0205    2.1400    1.4279 H   0  0  0  0  0  0  0  0  0  0  0  0
   10.0974    1.9906   -0.2369 H   0  0  0  0  0  0  0  0  0  0  0  0
    9.7733    4.4316   -0.0525 H   0  0  0  0  0  0  0  0  0  0  0  0
    7.5176    5.3669    0.3937 H   0  0  0  0  0  0  0  0  0  0  0  0
    5.5809    3.8436    0.6784 H   0  0  0  0  0  0  0  0  0  0  0  0
    8.7050   -0.2300    2.0867 H   0  0  0  0  0  0  0  0  0  0  0  0
    9.1745   -2.6327    1.8859 H   0  0  0  0  0  0  0  0  0  0  0  0
    8.3251   -2.4454   -2.3472 H   0  0  0  0  0  0  0  0  0  0  0  0
    7.8552   -0.0371   -2.1391 H   0  0  0  0  0  0  0  0  0  0  0  0
  1  8  1  0
  8  9  1  0
  9 10  1  0
 10 11  1  0
 11 12  1  0
 12 13  1  0
 12 14  1  0
 14 15  2  0
 15 16  1  0
 16 17  1  0
 17 12  1  0
 16 18  2  0
 18 19  1  0
 19 20  2  0
 20 21  1  0
 21 17  2  0
 14 22  1  0
 22 23  2  0
 23 24  1  0
 24 25  2  0
 25 15  1  0
 13 26  2  0
 13 27  1  0
 27 28  1  0
  7 29  1  0
 29 30  1  0
 29 31  2  0
 30 32  1  0
 32 33  2  0
 33 34  1  0
 34 35  2  0
 35 36  1  0
 36 30  2  0
 32 37  1  0
 37 38  2  0
 38 39  1  0
 39 40  2  0
 40 41  1  0
 41 42  2  0
 42 37  1  0
 40 43  1  0
 28 44  1  0
  1  2  1  0
  2  3  1  0
 44 45  1  0
  3  4  1  0
 44 46  1  0
  4  5  1  0
 44 47  1  0
  5  6  1  0
 43 48  1  0
  6  1  1  0
 43 49  1  0
  4  7  1  0
 43 50  1  0
  2 51  1  0
  2 52  1  0
  3 53  1  0
  3 54  1  0
  4 55  1  0
  5 56  1  0
  5 57  1  0
  6 58  1  0
  6 59  1  0
  7 60  1  0
  8 61  1  0
  8 62  1  0
  9 63  1  0
  9 64  1  0
 10 65  1  0
 10 66  1  0
 11 67  1  0
 11 68  1  0
 18 69  1  0
 19 70  1  0
 20 71  1  0
 21 72  1  0
 22 73  1  0
 23 74  1  0
 24 75  1  0
 25 76  1  0
 27 77  1  0
 28 78  1  0
 28 79  1  0
 33 80  1  0
 34 81  1  0
 35 82  1  0
 36 83  1  0
 38 84  1  0
 39 85  1  0
 41 86  1  0
 42 87  1  0
M  END
$$$$
