
     RDKit          3D

 56 27  0  0  0  0  0  0  0  0999 V2000
    0.0000    0.0000    0.0000 Mg  0  0  0  0  0 15  0  0  0  0  0  0
    0.0020    0.0022    0.0000 C   0  0  0  0  0  0  0  0  0  0  0  0
   -1.2148   -0.6390   -0.0038 O   0  0  0  0  0  0  0  0  0  0  0  0
    1.2194   -0.6277   -0.0099 O   0  0  0  0  0  0  0  0  0  0  0  0
   -0.0067    1.2645    0.0137 O   0  0  0  0  0  0  0  0  0  0  0  0
    0.4953    0.0000    0.0000 O   0  0  0  0  0  0  0  0  0  0  0  0
    0.4929    0.0000    0.0000 O   0  0  0  0  0  0  0  0  0  0  0  0
    0.4921    0.0000    0.0000 O   0  0  0  0  0  0  0  0  0  0  0  0
    0.0000    0.0000    0.0000 Mg  0  0  0  0  0 15  0  0  0  0  0  0
    0.0000    0.0000    0.0000 Mg  0  0  0  0  0 15  0  0  0  0  0  0
   -0.0029    0.4050   -0.0000 O   0  0  0  0  0  0  0  0  0  0  0  0
    0.4928    0.0000    0.0000 O   0  0  0  0  0  0  0  0  0  0  0  0
    0.4988    0.0000    0.0000 O   0  0  0  0  0  0  0  0  0  0  0  0
    0.4986    0.0000    0.0000 O   0  0  0  0  0  0  0  0  0  0  0  0
    0.4989    0.0000    0.0000 O   0  0  0  0  0  0  0  0  0  0  0  0
    0.4907    0.0000    0.0000 O   0  0  0  0  0  0  0  0  0  0  0  0
    0.4998    0.0000    0.0000 O   0  0  0  0  0  0  0  0  0  0  0  0
    0.4992    0.0000    0.0000 O   0  0  0  0  0  0  0  0  0  0  0  0
    0.4975    0.0000    0.0000 O   0  0  0  0  0  0  0  0  0  0  0  0
    0.4903    0.0000    0.0000 O   0  0  0  0  0  0  0  0  0  0  0  0
    0.4903    0.0000    0.0000 O   0  0  0  0  0  0  0  0  0  0  0  0
    0.4958    0.0000    0.0000 O   0  0  0  0  0  0  0  0  0  0  0  0
    0.4932    0.0000    0.0000 O   0  0  0  0  0  0  0  0  0  0  0  0
    0.4993    0.0000    0.0000 O   0  0  0  0  0  0  0  0  0  0  0  0
   -0.0067    0.3790   -0.0000 O   0  0  0  0  0  0  0  0  0  0  0  0
   -0.0030    0.3718   -0.0000 O   0  0  0  0  0  0  0  0  0  0  0  0
   -0.0040    0.4026   -0.0000 O   0  0  0  0  0  0  0  0  0  0  0  0
    0.0000    0.0000    0.0000 Al  0  0  0  0  0 15  0  0  0  0  0  0
    0.0000    0.0000    0.0000 Al  0  0  0  0  0 15  0  0  0  0  0  0
    0.0000    0.0000    0.0000 Mg  0  0  0  0  0 15  0  0  0  0  0  0
    0.0000    0.0000    0.0000 Mg  0  0  0  0  0 15  0  0  0  0  0  0
    0.0000    0.0000    0.0000 Mg  0  0  0  0  0 15  0  0  0  0  0  0
   -0.4953    0.0000    0.0000 H   0  0  0  0  0  0  0  0  0  0  0  0
   -0.4929    0.0000    0.0000 H   0  0  0  0  0  0  0  0  0  0  0  0
   -0.4921    0.0000    0.0000 H   0  0  0  0  0  0  0  0  0  0  0  0
    0.7918   -0.2015    0.0000 H   0  0  0  0  0  0  0  0  0  0  0  0
   -0.7889   -0.2035   -0.0000 H   0  0  0  0  0  0  0  0  0  0  0  0
   -0.4928    0.0000    0.0000 H   0  0  0  0  0  0  0  0  0  0  0  0
   -0.4988    0.0000    0.0000 H   0  0  0  0  0  0  0  0  0  0  0  0
   -0.4986    0.0000    0.0000 H   0  0  0  0  0  0  0  0  0  0  0  0
   -0.4989    0.0000    0.0000 H   0  0  0  0  0  0  0  0  0  0  0  0
   -0.4907    0.0000    0.0000 H   0  0  0  0  0  0  0  0  0  0  0  0
   -0.4998    0.0000    0.0000 H   0  0  0  0  0  0  0  0  0  0  0  0
   -0.4992    0.0000    0.0000 H   0  0  0  0  0  0  0  0  0  0  0  0
   -0.4975    0.0000    0.0000 H   0  0  0  0  0  0  0  0  0  0  0  0
   -0.4903    0.0000    0.0000 H   0  0  0  0  0  0  0  0  0  0  0  0
   -0.4903    0.0000    0.0000 H   0  0  0  0  0  0  0  0  0  0  0  0
   -0.4958    0.0000    0.0000 H   0  0  0  0  0  0  0  0  0  0  0  0
   -0.4932    0.0000    0.0000 H   0  0  0  0  0  0  0  0  0  0  0  0
   -0.4993    0.0000    0.0000 H   0  0  0  0  0  0  0  0  0  0  0  0
   -0.8082   -0.1919   -0.0000 H   0  0  0  0  0  0  0  0  0  0  0  0
    0.8149   -0.1871    0.0000 H   0  0  0  0  0  0  0  0  0  0  0  0
    0.8225   -0.1849    0.0000 H   0  0  0  0  0  0  0  0  0  0  0  0
   -0.8194   -0.1869   -0.0000 H   0  0  0  0  0  0  0  0  0  0  0  0
    0.7912   -0.1998    0.0000 H   0  0  0  0  0  0  0  0  0  0  0  0
   -0.7872   -0.2028   -0.0000 H   0  0  0  0  0  0  0  0  0  0  0  0
  3  2  1  0
  4  2  1  0
  5  2  2  0
  6 33  1  0
  7 34  1  0
  8 35  1  0
 11 36  1  0
 11 37  1  0
 12 38  1  0
 13 39  1  0
 14 40  1  0
 15 41  1  0
 16 42  1  0
 17 43  1  0
 18 44  1  0
 19 45  1  0
 20 46  1  0
 21 47  1  0
 22 48  1  0
 23 49  1  0
 24 50  1  0
 25 51  1  0
 25 52  1  0
 26 53  1  0
 26 54  1  0
 27 55  1  0
 27 56  1  0
M  CHG  8   1   2   3  -1   4  -1   6  -1   7  -1   8  -1   9   2  10   2
M  CHG  8  12  -1  13  -1  14  -1  15  -1  16  -1  17  -1  18  -1  19  -1
M  CHG  8  20  -1  21  -1  22  -1  23  -1  24  -1  28   3  29   3  30   2
M  CHG  2  31   2  32   2
M  END
$$$$
