
     RDKit          3D

 56 27  0  0  0  0  0  0  0  0999 V2000
    0.0000    0.0000    0.0000 Mg  0  0  0  0  0 15  0  0  0  0  0  0
    0.0059    0.0418    0.0003 C   0  0  0  0  0  0  0  0  0  0  0  0
   -1.0833   -0.7960    0.0073 O   0  0  0  0  0  0  0  0  0  0  0  0
    1.2700   -0.5235   -0.0225 O   0  0  0  0  0  0  0  0  0  0  0  0
   -0.1926    1.2777    0.0149 O   0  0  0  0  0  0  0  0  0  0  0  0
    0.4978    0.0000    0.0000 O   0  0  0  0  0  0  0  0  0  0  0  0
    0.4984    0.0000    0.0000 O   0  0  0  0  0  0  0  0  0  0  0  0
    0.4986    0.0000    0.0000 O   0  0  0  0  0  0  0  0  0  0  0  0
    0.0000    0.0000    0.0000 Mg  0  0  0  0  0 15  0  0  0  0  0  0
    0.0000    0.0000    0.0000 Mg  0  0  0  0  0 15  0  0  0  0  0  0
   -0.0072    0.3766   -0.0000 O   0  0  0  0  0  0  0  0  0  0  0  0
    0.4953    0.0000    0.0000 O   0  0  0  0  0  0  0  0  0  0  0  0
    0.4970    0.0000    0.0000 O   0  0  0  0  0  0  0  0  0  0  0  0
    0.4964    0.0000    0.0000 O   0  0  0  0  0  0  0  0  0  0  0  0
    0.4962    0.0000    0.0000 O   0  0  0  0  0  0  0  0  0  0  0  0
    0.4919    0.0000    0.0000 O   0  0  0  0  0  0  0  0  0  0  0  0
    0.4940    0.0000    0.0000 O   0  0  0  0  0  0  0  0  0  0  0  0
    0.4903    0.0000    0.0000 O   0  0  0  0  0  0  0  0  0  0  0  0
    0.4916    0.0000    0.0000 O   0  0  0  0  0  0  0  0  0  0  0  0
    0.4944    0.0000    0.0000 O   0  0  0  0  0  0  0  0  0  0  0  0
    0.4966    0.0000    0.0000 O   0  0  0  0  0  0  0  0  0  0  0  0
    0.4987    0.0000    0.0000 O   0  0  0  0  0  0  0  0  0  0  0  0
    0.4905    0.0000    0.0000 O   0  0  0  0  0  0  0  0  0  0  0  0
    0.4993    0.0000    0.0000 O   0  0  0  0  0  0  0  0  0  0  0  0
   -0.0059    0.3760   -0.0000 O   0  0  0  0  0  0  0  0  0  0  0  0
   -0.0080    0.3767   -0.0000 O   0  0  0  0  0  0  0  0  0  0  0  0
   -0.0050    0.3904   -0.0000 O   0  0  0  0  0  0  0  0  0  0  0  0
    0.0000    0.0000    0.0000 Al  0  0  0  0  0 15  0  0  0  0  0  0
    0.0000    0.0000    0.0000 Al  0  0  0  0  0 15  0  0  0  0  0  0
    0.0000    0.0000    0.0000 Mg  0  0  0  0  0 15  0  0  0  0  0  0
    0.0000    0.0000    0.0000 Mg  0  0  0  0  0 15  0  0  0  0  0  0
    0.0000    0.0000    0.0000 Mg  0  0  0  0  0 15  0  0  0  0  0  0
   -0.4978    0.0000    0.0000 H   0  0  0  0  0  0  0  0  0  0  0  0
   -0.4984    0.0000    0.0000 H   0  0  0  0  0  0  0  0  0  0  0  0
   -0.4986    0.0000    0.0000 H   0  0  0  0  0  0  0  0  0  0  0  0
   -0.8097   -0.1908   -0.0000 H   0  0  0  0  0  0  0  0  0  0  0  0
    0.8169   -0.1858    0.0000 H   0  0  0  0  0  0  0  0  0  0  0  0
   -0.4953    0.0000    0.0000 H   0  0  0  0  0  0  0  0  0  0  0  0
   -0.4970    0.0000    0.0000 H   0  0  0  0  0  0  0  0  0  0  0  0
   -0.4964    0.0000    0.0000 H   0  0  0  0  0  0  0  0  0  0  0  0
   -0.4962    0.0000    0.0000 H   0  0  0  0  0  0  0  0  0  0  0  0
   -0.4919    0.0000    0.0000 H   0  0  0  0  0  0  0  0  0  0  0  0
   -0.4940    0.0000    0.0000 H   0  0  0  0  0  0  0  0  0  0  0  0
   -0.4903    0.0000    0.0000 H   0  0  0  0  0  0  0  0  0  0  0  0
   -0.4916    0.0000    0.0000 H   0  0  0  0  0  0  0  0  0  0  0  0
   -0.4944    0.0000    0.0000 H   0  0  0  0  0  0  0  0  0  0  0  0
   -0.4966    0.0000    0.0000 H   0  0  0  0  0  0  0  0  0  0  0  0
   -0.4987    0.0000    0.0000 H   0  0  0  0  0  0  0  0  0  0  0  0
   -0.4905    0.0000    0.0000 H   0  0  0  0  0  0  0  0  0  0  0  0
   -0.4993    0.0000    0.0000 H   0  0  0  0  0  0  0  0  0  0  0  0
    0.8191   -0.1860    0.0000 H   0  0  0  0  0  0  0  0  0  0  0  0
   -0.8131   -0.1900   -0.0000 H   0  0  0  0  0  0  0  0  0  0  0  0
    0.8174   -0.1856    0.0000 H   0  0  0  0  0  0  0  0  0  0  0  0
   -0.8094   -0.1911   -0.0000 H   0  0  0  0  0  0  0  0  0  0  0  0
   -0.7987   -0.1971   -0.0000 H   0  0  0  0  0  0  0  0  0  0  0  0
    0.8037   -0.1933    0.0000 H   0  0  0  0  0  0  0  0  0  0  0  0
  3  2  1  0
  4  2  1  0
  5  2  2  0
  6 33  1  0
  7 34  1  0
  8 35  1  0
 11 36  1  0
 11 37  1  0
 12 38  1  0
 13 39  1  0
 14 40  1  0
 15 41  1  0
 16 42  1  0
 17 43  1  0
 18 44  1  0
 19 45  1  0
 20 46  1  0
 21 47  1  0
 22 48  1  0
 23 49  1  0
 24 50  1  0
 25 51  1  0
 25 52  1  0
 26 53  1  0
 26 54  1  0
 27 55  1  0
 27 56  1  0
M  CHG  8   1   2   3  -1   4  -1   6  -1   7  -1   8  -1   9   2  10   2
M  CHG  8  12  -1  13  -1  14  -1  15  -1  16  -1  17  -1  18  -1  19  -1
M  CHG  8  20  -1  21  -1  22  -1  23  -1  24  -1  28   3  29   3  30   2
M  CHG  2  31   2  32   2
M  END
$$$$
