
     RDKit          3D

 56 27  0  0  0  0  0  0  0  0999 V2000
    0.0000    0.0000    0.0000 Mg  0  0  0  0  0 15  0  0  0  0  0  0
   -0.0037    0.0278    0.0001 C   0  0  0  0  0  0  0  0  0  0  0  0
   -1.1026   -0.7869    0.0145 O   0  0  0  0  0  0  0  0  0  0  0  0
    1.2590   -0.5035   -0.0194 O   0  0  0  0  0  0  0  0  0  0  0  0
   -0.1527    1.2626    0.0048 O   0  0  0  0  0  0  0  0  0  0  0  0
    0.4975    0.0000    0.0000 O   0  0  0  0  0  0  0  0  0  0  0  0
    0.4934    0.0000    0.0000 O   0  0  0  0  0  0  0  0  0  0  0  0
    0.4904    0.0000    0.0000 O   0  0  0  0  0  0  0  0  0  0  0  0
    0.0000    0.0000    0.0000 Mg  0  0  0  0  0 15  0  0  0  0  0  0
    0.0000    0.0000    0.0000 Mg  0  0  0  0  0 15  0  0  0  0  0  0
   -0.0007    0.3629   -0.0000 O   0  0  0  0  0  0  0  0  0  0  0  0
    0.4954    0.0000    0.0000 O   0  0  0  0  0  0  0  0  0  0  0  0
    0.4919    0.0000    0.0000 O   0  0  0  0  0  0  0  0  0  0  0  0
    0.4980    0.0000    0.0000 O   0  0  0  0  0  0  0  0  0  0  0  0
    0.4965    0.0000    0.0000 O   0  0  0  0  0  0  0  0  0  0  0  0
    0.4907    0.0000    0.0000 O   0  0  0  0  0  0  0  0  0  0  0  0
    0.4904    0.0000    0.0000 O   0  0  0  0  0  0  0  0  0  0  0  0
    0.4976    0.0000    0.0000 O   0  0  0  0  0  0  0  0  0  0  0  0
    0.4965    0.0000    0.0000 O   0  0  0  0  0  0  0  0  0  0  0  0
    0.4921    0.0000    0.0000 O   0  0  0  0  0  0  0  0  0  0  0  0
    0.4965    0.0000    0.0000 O   0  0  0  0  0  0  0  0  0  0  0  0
    0.4913    0.0000    0.0000 O   0  0  0  0  0  0  0  0  0  0  0  0
    0.4991    0.0000    0.0000 O   0  0  0  0  0  0  0  0  0  0  0  0
    0.4990    0.0000    0.0000 O   0  0  0  0  0  0  0  0  0  0  0  0
   -0.0000    0.3991   -0.0000 O   0  0  0  0  0  0  0  0  0  0  0  0
   -0.0011    0.3810   -0.0000 O   0  0  0  0  0  0  0  0  0  0  0  0
   -0.0055    0.3865   -0.0000 O   0  0  0  0  0  0  0  0  0  0  0  0
    0.0000    0.0000    0.0000 Al  0  0  0  0  0 15  0  0  0  0  0  0
    0.0000    0.0000    0.0000 Al  0  0  0  0  0 15  0  0  0  0  0  0
    0.0000    0.0000    0.0000 Mg  0  0  0  0  0 15  0  0  0  0  0  0
    0.0000    0.0000    0.0000 Mg  0  0  0  0  0 15  0  0  0  0  0  0
    0.0000    0.0000    0.0000 Mg  0  0  0  0  0 15  0  0  0  0  0  0
   -0.4975    0.0000    0.0000 H   0  0  0  0  0  0  0  0  0  0  0  0
   -0.4934    0.0000    0.0000 H   0  0  0  0  0  0  0  0  0  0  0  0
   -0.4904    0.0000    0.0000 H   0  0  0  0  0  0  0  0  0  0  0  0
    0.8256   -0.1812    0.0000 H   0  0  0  0  0  0  0  0  0  0  0  0
   -0.8249   -0.1816   -0.0000 H   0  0  0  0  0  0  0  0  0  0  0  0
   -0.4954    0.0000    0.0000 H   0  0  0  0  0  0  0  0  0  0  0  0
   -0.4919    0.0000    0.0000 H   0  0  0  0  0  0  0  0  0  0  0  0
   -0.4980    0.0000    0.0000 H   0  0  0  0  0  0  0  0  0  0  0  0
   -0.4965    0.0000    0.0000 H   0  0  0  0  0  0  0  0  0  0  0  0
   -0.4907    0.0000    0.0000 H   0  0  0  0  0  0  0  0  0  0  0  0
   -0.4904    0.0000    0.0000 H   0  0  0  0  0  0  0  0  0  0  0  0
   -0.4976    0.0000    0.0000 H   0  0  0  0  0  0  0  0  0  0  0  0
   -0.4965    0.0000    0.0000 H   0  0  0  0  0  0  0  0  0  0  0  0
   -0.4921    0.0000    0.0000 H   0  0  0  0  0  0  0  0  0  0  0  0
   -0.4965    0.0000    0.0000 H   0  0  0  0  0  0  0  0  0  0  0  0
   -0.4913    0.0000    0.0000 H   0  0  0  0  0  0  0  0  0  0  0  0
   -0.4991    0.0000    0.0000 H   0  0  0  0  0  0  0  0  0  0  0  0
   -0.4990    0.0000    0.0000 H   0  0  0  0  0  0  0  0  0  0  0  0
   -0.8000   -0.1996   -0.0000 H   0  0  0  0  0  0  0  0  0  0  0  0
    0.8000   -0.1995    0.0000 H   0  0  0  0  0  0  0  0  0  0  0  0
    0.8028   -0.1901    0.0000 H   0  0  0  0  0  0  0  0  0  0  0  0
   -0.8017   -0.1908   -0.0000 H   0  0  0  0  0  0  0  0  0  0  0  0
    0.8009   -0.1913    0.0000 H   0  0  0  0  0  0  0  0  0  0  0  0
   -0.7954   -0.1952   -0.0000 H   0  0  0  0  0  0  0  0  0  0  0  0
  3  2  1  0
  4  2  1  0
  5  2  2  0
  6 33  1  0
  7 34  1  0
  8 35  1  0
 11 36  1  0
 11 37  1  0
 12 38  1  0
 13 39  1  0
 14 40  1  0
 15 41  1  0
 16 42  1  0
 17 43  1  0
 18 44  1  0
 19 45  1  0
 20 46  1  0
 21 47  1  0
 22 48  1  0
 23 49  1  0
 24 50  1  0
 25 51  1  0
 25 52  1  0
 26 53  1  0
 26 54  1  0
 27 55  1  0
 27 56  1  0
M  CHG  8   1   2   3  -1   4  -1   6  -1   7  -1   8  -1   9   2  10   2
M  CHG  8  12  -1  13  -1  14  -1  15  -1  16  -1  17  -1  18  -1  19  -1
M  CHG  8  20  -1  21  -1  22  -1  23  -1  24  -1  28   3  29   3  30   2
M  CHG  2  31   2  32   2
M  END
$$$$
