
     RDKit          3D

 56 27  0  0  0  0  0  0  0  0999 V2000
    0.0000    0.0000    0.0000 Mg  0  0  0  0  0 15  0  0  0  0  0  0
    0.0047    0.0430    0.0004 C   0  0  0  0  0  0  0  0  0  0  0  0
    1.2975   -0.4530   -0.0008 O   0  0  0  0  0  0  0  0  0  0  0  0
   -1.0308   -0.8628   -0.0101 O   0  0  0  0  0  0  0  0  0  0  0  0
   -0.2713    1.2728    0.0106 O   0  0  0  0  0  0  0  0  0  0  0  0
    0.4925    0.0000    0.0000 O   0  0  0  0  0  0  0  0  0  0  0  0
    0.4938    0.0000    0.0000 O   0  0  0  0  0  0  0  0  0  0  0  0
    0.4964    0.0000    0.0000 O   0  0  0  0  0  0  0  0  0  0  0  0
    0.0000    0.0000    0.0000 Mg  0  0  0  0  0 15  0  0  0  0  0  0
    0.0000    0.0000    0.0000 Mg  0  0  0  0  0 15  0  0  0  0  0  0
   -0.0017    0.3821   -0.0000 O   0  0  0  0  0  0  0  0  0  0  0  0
    0.4978    0.0000    0.0000 O   0  0  0  0  0  0  0  0  0  0  0  0
    0.4990    0.0000    0.0000 O   0  0  0  0  0  0  0  0  0  0  0  0
    0.4980    0.0000    0.0000 O   0  0  0  0  0  0  0  0  0  0  0  0
    0.5001    0.0000    0.0000 O   0  0  0  0  0  0  0  0  0  0  0  0
    0.4996    0.0000    0.0000 O   0  0  0  0  0  0  0  0  0  0  0  0
    0.4978    0.0000    0.0000 O   0  0  0  0  0  0  0  0  0  0  0  0
    0.4974    0.0000    0.0000 O   0  0  0  0  0  0  0  0  0  0  0  0
    0.4963    0.0000    0.0000 O   0  0  0  0  0  0  0  0  0  0  0  0
    0.4966    0.0000    0.0000 O   0  0  0  0  0  0  0  0  0  0  0  0
    0.4999    0.0000    0.0000 O   0  0  0  0  0  0  0  0  0  0  0  0
    0.4928    0.0000    0.0000 O   0  0  0  0  0  0  0  0  0  0  0  0
    0.4987    0.0000    0.0000 O   0  0  0  0  0  0  0  0  0  0  0  0
    0.4978    0.0000    0.0000 O   0  0  0  0  0  0  0  0  0  0  0  0
   -0.0001    0.3738   -0.0000 O   0  0  0  0  0  0  0  0  0  0  0  0
   -0.0027    0.3667   -0.0000 O   0  0  0  0  0  0  0  0  0  0  0  0
   -0.0066    0.3702   -0.0000 O   0  0  0  0  0  0  0  0  0  0  0  0
    0.0000    0.0000    0.0000 Al  0  0  0  0  0 15  0  0  0  0  0  0
    0.0000    0.0000    0.0000 Al  0  0  0  0  0 15  0  0  0  0  0  0
    0.0000    0.0000    0.0000 Mg  0  0  0  0  0 15  0  0  0  0  0  0
    0.0000    0.0000    0.0000 Mg  0  0  0  0  0 15  0  0  0  0  0  0
    0.0000    0.0000    0.0000 Mg  0  0  0  0  0 15  0  0  0  0  0  0
   -0.4925    0.0000    0.0000 H   0  0  0  0  0  0  0  0  0  0  0  0
   -0.4938    0.0000    0.0000 H   0  0  0  0  0  0  0  0  0  0  0  0
   -0.4964    0.0000    0.0000 H   0  0  0  0  0  0  0  0  0  0  0  0
    0.8063   -0.1905    0.0000 H   0  0  0  0  0  0  0  0  0  0  0  0
   -0.8046   -0.1916   -0.0000 H   0  0  0  0  0  0  0  0  0  0  0  0
   -0.4978    0.0000    0.0000 H   0  0  0  0  0  0  0  0  0  0  0  0
   -0.4990    0.0000    0.0000 H   0  0  0  0  0  0  0  0  0  0  0  0
   -0.4980    0.0000    0.0000 H   0  0  0  0  0  0  0  0  0  0  0  0
   -0.5001    0.0000    0.0000 H   0  0  0  0  0  0  0  0  0  0  0  0
   -0.4996    0.0000    0.0000 H   0  0  0  0  0  0  0  0  0  0  0  0
   -0.4978    0.0000    0.0000 H   0  0  0  0  0  0  0  0  0  0  0  0
   -0.4974    0.0000    0.0000 H   0  0  0  0  0  0  0  0  0  0  0  0
   -0.4963    0.0000    0.0000 H   0  0  0  0  0  0  0  0  0  0  0  0
   -0.4966    0.0000    0.0000 H   0  0  0  0  0  0  0  0  0  0  0  0
   -0.4999    0.0000    0.0000 H   0  0  0  0  0  0  0  0  0  0  0  0
   -0.4928    0.0000    0.0000 H   0  0  0  0  0  0  0  0  0  0  0  0
   -0.4987    0.0000    0.0000 H   0  0  0  0  0  0  0  0  0  0  0  0
   -0.4978    0.0000    0.0000 H   0  0  0  0  0  0  0  0  0  0  0  0
    0.8280   -0.1868    0.0000 H   0  0  0  0  0  0  0  0  0  0  0  0
   -0.8279   -0.1869   -0.0000 H   0  0  0  0  0  0  0  0  0  0  0  0
    0.8231   -0.1825    0.0000 H   0  0  0  0  0  0  0  0  0  0  0  0
   -0.8204   -0.1843   -0.0000 H   0  0  0  0  0  0  0  0  0  0  0  0
    0.8220   -0.1829    0.0000 H   0  0  0  0  0  0  0  0  0  0  0  0
   -0.8154   -0.1873   -0.0000 H   0  0  0  0  0  0  0  0  0  0  0  0
  3  2  1  0
  4  2  1  0
  5  2  2  0
  6 33  1  0
  7 34  1  0
  8 35  1  0
 11 36  1  0
 11 37  1  0
 12 38  1  0
 13 39  1  0
 14 40  1  0
 15 41  1  0
 16 42  1  0
 17 43  1  0
 18 44  1  0
 19 45  1  0
 20 46  1  0
 21 47  1  0
 22 48  1  0
 23 49  1  0
 24 50  1  0
 25 51  1  0
 25 52  1  0
 26 53  1  0
 26 54  1  0
 27 55  1  0
 27 56  1  0
M  CHG  8   1   2   3  -1   4  -1   6  -1   7  -1   8  -1   9   2  10   2
M  CHG  8  12  -1  13  -1  14  -1  15  -1  16  -1  17  -1  18  -1  19  -1
M  CHG  8  20  -1  21  -1  22  -1  23  -1  24  -1  28   3  29   3  30   2
M  CHG  2  31   2  32   2
M  END
$$$$
