
     RDKit          3D

 56 27  0  0  0  0  0  0  0  0999 V2000
    0.0000    0.0000    0.0000 Mg  0  0  0  0  0 15  0  0  0  0  0  0
   -0.0009    0.0126   -0.0001 C   0  0  0  0  0  0  0  0  0  0  0  0
   -1.1940   -0.6854   -0.0007 O   0  0  0  0  0  0  0  0  0  0  0  0
    1.2450   -0.5852    0.0061 O   0  0  0  0  0  0  0  0  0  0  0  0
   -0.0501    1.2580   -0.0054 O   0  0  0  0  0  0  0  0  0  0  0  0
    0.4994    0.0000    0.0000 O   0  0  0  0  0  0  0  0  0  0  0  0
    0.4912    0.0000    0.0000 O   0  0  0  0  0  0  0  0  0  0  0  0
    0.4918    0.0000    0.0000 O   0  0  0  0  0  0  0  0  0  0  0  0
    0.0000    0.0000    0.0000 Mg  0  0  0  0  0 15  0  0  0  0  0  0
    0.0000    0.0000    0.0000 Mg  0  0  0  0  0 15  0  0  0  0  0  0
   -0.0063    0.3647   -0.0000 O   0  0  0  0  0  0  0  0  0  0  0  0
    0.4996    0.0000    0.0000 O   0  0  0  0  0  0  0  0  0  0  0  0
    0.4968    0.0000    0.0000 O   0  0  0  0  0  0  0  0  0  0  0  0
    0.4996    0.0000    0.0000 O   0  0  0  0  0  0  0  0  0  0  0  0
    0.4976    0.0000    0.0000 O   0  0  0  0  0  0  0  0  0  0  0  0
    0.4912    0.0000    0.0000 O   0  0  0  0  0  0  0  0  0  0  0  0
    0.4968    0.0000    0.0000 O   0  0  0  0  0  0  0  0  0  0  0  0
    0.4947    0.0000    0.0000 O   0  0  0  0  0  0  0  0  0  0  0  0
    0.4989    0.0000    0.0000 O   0  0  0  0  0  0  0  0  0  0  0  0
    0.4938    0.0000    0.0000 O   0  0  0  0  0  0  0  0  0  0  0  0
    0.4940    0.0000    0.0000 O   0  0  0  0  0  0  0  0  0  0  0  0
    0.4995    0.0000    0.0000 O   0  0  0  0  0  0  0  0  0  0  0  0
    0.4973    0.0000    0.0000 O   0  0  0  0  0  0  0  0  0  0  0  0
    0.4990    0.0000    0.0000 O   0  0  0  0  0  0  0  0  0  0  0  0
   -0.0023    0.3737   -0.0000 O   0  0  0  0  0  0  0  0  0  0  0  0
   -0.0045    0.3712   -0.0000 O   0  0  0  0  0  0  0  0  0  0  0  0
   -0.0071    0.3856   -0.0000 O   0  0  0  0  0  0  0  0  0  0  0  0
    0.0000    0.0000    0.0000 Al  0  0  0  0  0 15  0  0  0  0  0  0
    0.0000    0.0000    0.0000 Al  0  0  0  0  0 15  0  0  0  0  0  0
    0.0000    0.0000    0.0000 Mg  0  0  0  0  0 15  0  0  0  0  0  0
    0.0000    0.0000    0.0000 Mg  0  0  0  0  0 15  0  0  0  0  0  0
    0.0000    0.0000    0.0000 Mg  0  0  0  0  0 15  0  0  0  0  0  0
   -0.4994    0.0000    0.0000 H   0  0  0  0  0  0  0  0  0  0  0  0
   -0.4912    0.0000    0.0000 H   0  0  0  0  0  0  0  0  0  0  0  0
   -0.4918    0.0000    0.0000 H   0  0  0  0  0  0  0  0  0  0  0  0
   -0.8225   -0.1844   -0.0000 H   0  0  0  0  0  0  0  0  0  0  0  0
    0.8288   -0.1802    0.0000 H   0  0  0  0  0  0  0  0  0  0  0  0
   -0.4996    0.0000    0.0000 H   0  0  0  0  0  0  0  0  0  0  0  0
   -0.4968    0.0000    0.0000 H   0  0  0  0  0  0  0  0  0  0  0  0
   -0.4996    0.0000    0.0000 H   0  0  0  0  0  0  0  0  0  0  0  0
   -0.4976    0.0000    0.0000 H   0  0  0  0  0  0  0  0  0  0  0  0
   -0.4912    0.0000    0.0000 H   0  0  0  0  0  0  0  0  0  0  0  0
   -0.4968    0.0000    0.0000 H   0  0  0  0  0  0  0  0  0  0  0  0
   -0.4947    0.0000    0.0000 H   0  0  0  0  0  0  0  0  0  0  0  0
   -0.4989    0.0000    0.0000 H   0  0  0  0  0  0  0  0  0  0  0  0
   -0.4938    0.0000    0.0000 H   0  0  0  0  0  0  0  0  0  0  0  0
   -0.4940    0.0000    0.0000 H   0  0  0  0  0  0  0  0  0  0  0  0
   -0.4995    0.0000    0.0000 H   0  0  0  0  0  0  0  0  0  0  0  0
   -0.4973    0.0000    0.0000 H   0  0  0  0  0  0  0  0  0  0  0  0
   -0.4990    0.0000    0.0000 H   0  0  0  0  0  0  0  0  0  0  0  0
   -0.8121   -0.1877   -0.0000 H   0  0  0  0  0  0  0  0  0  0  0  0
    0.8144   -0.1860    0.0000 H   0  0  0  0  0  0  0  0  0  0  0  0
    0.8232   -0.1841    0.0000 H   0  0  0  0  0  0  0  0  0  0  0  0
   -0.8188   -0.1871   -0.0000 H   0  0  0  0  0  0  0  0  0  0  0  0
    0.8042   -0.1903    0.0000 H   0  0  0  0  0  0  0  0  0  0  0  0
   -0.7972   -0.1953   -0.0000 H   0  0  0  0  0  0  0  0  0  0  0  0
  3  2  1  0
  4  2  1  0
  5  2  2  0
  6 33  1  0
  7 34  1  0
  8 35  1  0
 11 36  1  0
 11 37  1  0
 12 38  1  0
 13 39  1  0
 14 40  1  0
 15 41  1  0
 16 42  1  0
 17 43  1  0
 18 44  1  0
 19 45  1  0
 20 46  1  0
 21 47  1  0
 22 48  1  0
 23 49  1  0
 24 50  1  0
 25 51  1  0
 25 52  1  0
 26 53  1  0
 26 54  1  0
 27 55  1  0
 27 56  1  0
M  CHG  8   1   2   3  -1   4  -1   6  -1   7  -1   8  -1   9   2  10   2
M  CHG  8  12  -1  13  -1  14  -1  15  -1  16  -1  17  -1  18  -1  19  -1
M  CHG  8  20  -1  21  -1  22  -1  23  -1  24  -1  28   3  29   3  30   2
M  CHG  2  31   2  32   2
M  END
$$$$
