
     RDKit          3D

 56 27  0  0  0  0  0  0  0  0999 V2000
    0.0000    0.0000    0.0000 Mg  0  0  0  0  0 15  0  0  0  0  0  0
   -0.0117    0.0168   -0.0001 C   0  0  0  0  0  0  0  0  0  0  0  0
    1.2662   -0.5489    0.0014 O   0  0  0  0  0  0  0  0  0  0  0  0
   -1.1707   -0.7366    0.0054 O   0  0  0  0  0  0  0  0  0  0  0  0
   -0.0838    1.2687   -0.0067 O   0  0  0  0  0  0  0  0  0  0  0  0
    0.4906    0.0000    0.0000 O   0  0  0  0  0  0  0  0  0  0  0  0
    0.4998    0.0000    0.0000 O   0  0  0  0  0  0  0  0  0  0  0  0
    0.4955    0.0000    0.0000 O   0  0  0  0  0  0  0  0  0  0  0  0
    0.0000    0.0000    0.0000 Mg  0  0  0  0  0 15  0  0  0  0  0  0
    0.0000    0.0000    0.0000 Mg  0  0  0  0  0 15  0  0  0  0  0  0
   -0.0063    0.3796   -0.0000 O   0  0  0  0  0  0  0  0  0  0  0  0
    0.4925    0.0000    0.0000 O   0  0  0  0  0  0  0  0  0  0  0  0
    0.4965    0.0000    0.0000 O   0  0  0  0  0  0  0  0  0  0  0  0
    0.4904    0.0000    0.0000 O   0  0  0  0  0  0  0  0  0  0  0  0
    0.4951    0.0000    0.0000 O   0  0  0  0  0  0  0  0  0  0  0  0
    0.4985    0.0000    0.0000 O   0  0  0  0  0  0  0  0  0  0  0  0
    0.4998    0.0000    0.0000 O   0  0  0  0  0  0  0  0  0  0  0  0
    0.4958    0.0000    0.0000 O   0  0  0  0  0  0  0  0  0  0  0  0
    0.4949    0.0000    0.0000 O   0  0  0  0  0  0  0  0  0  0  0  0
    0.4990    0.0000    0.0000 O   0  0  0  0  0  0  0  0  0  0  0  0
    0.4961    0.0000    0.0000 O   0  0  0  0  0  0  0  0  0  0  0  0
    0.4981    0.0000    0.0000 O   0  0  0  0  0  0  0  0  0  0  0  0
    0.4963    0.0000    0.0000 O   0  0  0  0  0  0  0  0  0  0  0  0
    0.4924    0.0000    0.0000 O   0  0  0  0  0  0  0  0  0  0  0  0
   -0.0047    0.3938   -0.0000 O   0  0  0  0  0  0  0  0  0  0  0  0
   -0.0034    0.3850   -0.0000 O   0  0  0  0  0  0  0  0  0  0  0  0
   -0.0025    0.3773   -0.0000 O   0  0  0  0  0  0  0  0  0  0  0  0
    0.0000    0.0000    0.0000 Al  0  0  0  0  0 15  0  0  0  0  0  0
    0.0000    0.0000    0.0000 Al  0  0  0  0  0 15  0  0  0  0  0  0
    0.0000    0.0000    0.0000 Mg  0  0  0  0  0 15  0  0  0  0  0  0
    0.0000    0.0000    0.0000 Mg  0  0  0  0  0 15  0  0  0  0  0  0
    0.0000    0.0000    0.0000 Mg  0  0  0  0  0 15  0  0  0  0  0  0
   -0.4906    0.0000    0.0000 H   0  0  0  0  0  0  0  0  0  0  0  0
   -0.4998    0.0000    0.0000 H   0  0  0  0  0  0  0  0  0  0  0  0
   -0.4955    0.0000    0.0000 H   0  0  0  0  0  0  0  0  0  0  0  0
   -0.8097   -0.1921   -0.0000 H   0  0  0  0  0  0  0  0  0  0  0  0
    0.8160   -0.1876    0.0000 H   0  0  0  0  0  0  0  0  0  0  0  0
   -0.4925    0.0000    0.0000 H   0  0  0  0  0  0  0  0  0  0  0  0
   -0.4965    0.0000    0.0000 H   0  0  0  0  0  0  0  0  0  0  0  0
   -0.4904    0.0000    0.0000 H   0  0  0  0  0  0  0  0  0  0  0  0
   -0.4951    0.0000    0.0000 H   0  0  0  0  0  0  0  0  0  0  0  0
   -0.4985    0.0000    0.0000 H   0  0  0  0  0  0  0  0  0  0  0  0
   -0.4998    0.0000    0.0000 H   0  0  0  0  0  0  0  0  0  0  0  0
   -0.4958    0.0000    0.0000 H   0  0  0  0  0  0  0  0  0  0  0  0
   -0.4949    0.0000    0.0000 H   0  0  0  0  0  0  0  0  0  0  0  0
   -0.4990    0.0000    0.0000 H   0  0  0  0  0  0  0  0  0  0  0  0
   -0.4961    0.0000    0.0000 H   0  0  0  0  0  0  0  0  0  0  0  0
   -0.4981    0.0000    0.0000 H   0  0  0  0  0  0  0  0  0  0  0  0
   -0.4963    0.0000    0.0000 H   0  0  0  0  0  0  0  0  0  0  0  0
   -0.4924    0.0000    0.0000 H   0  0  0  0  0  0  0  0  0  0  0  0
   -0.7894   -0.1987   -0.0000 H   0  0  0  0  0  0  0  0  0  0  0  0
    0.7941   -0.1951    0.0000 H   0  0  0  0  0  0  0  0  0  0  0  0
   -0.8049   -0.1938   -0.0000 H   0  0  0  0  0  0  0  0  0  0  0  0
    0.8083   -0.1913    0.0000 H   0  0  0  0  0  0  0  0  0  0  0  0
   -0.8100   -0.1895   -0.0000 H   0  0  0  0  0  0  0  0  0  0  0  0
    0.8124   -0.1878    0.0000 H   0  0  0  0  0  0  0  0  0  0  0  0
  3  2  1  0
  4  2  1  0
  5  2  2  0
  6 33  1  0
  7 34  1  0
  8 35  1  0
 11 36  1  0
 11 37  1  0
 12 38  1  0
 13 39  1  0
 14 40  1  0
 15 41  1  0
 16 42  1  0
 17 43  1  0
 18 44  1  0
 19 45  1  0
 20 46  1  0
 21 47  1  0
 22 48  1  0
 23 49  1  0
 24 50  1  0
 25 51  1  0
 25 52  1  0
 26 53  1  0
 26 54  1  0
 27 55  1  0
 27 56  1  0
M  CHG  8   1   2   3  -1   4  -1   6  -1   7  -1   8  -1   9   2  10   2
M  CHG  8  12  -1  13  -1  14  -1  15  -1  16  -1  17  -1  18  -1  19  -1
M  CHG  8  20  -1  21  -1  22  -1  23  -1  24  -1  28   3  29   3  30   2
M  CHG  2  31   2  32   2
M  END
$$$$
