
     RDKit          3D

 56 27  0  0  0  0  0  0  0  0999 V2000
    0.0000    0.0000    0.0000 Mg  0  0  0  0  0 15  0  0  0  0  0  0
    0.0085    0.0213    0.0003 C   0  0  0  0  0  0  0  0  0  0  0  0
   -1.0790   -0.8352   -0.0433 O   0  0  0  0  0  0  0  0  0  0  0  0
    1.3128   -0.4449    0.0529 O   0  0  0  0  0  0  0  0  0  0  0  0
   -0.2423    1.2588   -0.0100 O   0  0  0  0  0  0  0  0  0  0  0  0
    0.4962    0.0000    0.0000 O   0  0  0  0  0  0  0  0  0  0  0  0
    0.4937    0.0000    0.0000 O   0  0  0  0  0  0  0  0  0  0  0  0
    0.4962    0.0000    0.0000 O   0  0  0  0  0  0  0  0  0  0  0  0
    0.0000    0.0000    0.0000 Mg  0  0  0  0  0 15  0  0  0  0  0  0
    0.0000    0.0000    0.0000 Mg  0  0  0  0  0 15  0  0  0  0  0  0
   -0.0007    0.3908   -0.0000 O   0  0  0  0  0  0  0  0  0  0  0  0
    0.4927    0.0000    0.0000 O   0  0  0  0  0  0  0  0  0  0  0  0
    0.4953    0.0000    0.0000 O   0  0  0  0  0  0  0  0  0  0  0  0
    0.4939    0.0000    0.0000 O   0  0  0  0  0  0  0  0  0  0  0  0
    0.4962    0.0000    0.0000 O   0  0  0  0  0  0  0  0  0  0  0  0
    0.5000    0.0000    0.0000 O   0  0  0  0  0  0  0  0  0  0  0  0
    0.4905    0.0000    0.0000 O   0  0  0  0  0  0  0  0  0  0  0  0
    0.4997    0.0000    0.0000 O   0  0  0  0  0  0  0  0  0  0  0  0
    0.4922    0.0000    0.0000 O   0  0  0  0  0  0  0  0  0  0  0  0
    0.4990    0.0000    0.0000 O   0  0  0  0  0  0  0  0  0  0  0  0
    0.4915    0.0000    0.0000 O   0  0  0  0  0  0  0  0  0  0  0  0
    0.4916    0.0000    0.0000 O   0  0  0  0  0  0  0  0  0  0  0  0
    0.4937    0.0000    0.0000 O   0  0  0  0  0  0  0  0  0  0  0  0
    0.4937    0.0000    0.0000 O   0  0  0  0  0  0  0  0  0  0  0  0
   -0.0074    0.3689   -0.0000 O   0  0  0  0  0  0  0  0  0  0  0  0
   -0.0096    0.3914   -0.0000 O   0  0  0  0  0  0  0  0  0  0  0  0
   -0.0041    0.3886   -0.0000 O   0  0  0  0  0  0  0  0  0  0  0  0
    0.0000    0.0000    0.0000 Al  0  0  0  0  0 15  0  0  0  0  0  0
    0.0000    0.0000    0.0000 Al  0  0  0  0  0 15  0  0  0  0  0  0
    0.0000    0.0000    0.0000 Mg  0  0  0  0  0 15  0  0  0  0  0  0
    0.0000    0.0000    0.0000 Mg  0  0  0  0  0 15  0  0  0  0  0  0
    0.0000    0.0000    0.0000 Mg  0  0  0  0  0 15  0  0  0  0  0  0
   -0.4962    0.0000    0.0000 H   0  0  0  0  0  0  0  0  0  0  0  0
   -0.4937    0.0000    0.0000 H   0  0  0  0  0  0  0  0  0  0  0  0
   -0.4962    0.0000    0.0000 H   0  0  0  0  0  0  0  0  0  0  0  0
    0.7983   -0.1952    0.0000 H   0  0  0  0  0  0  0  0  0  0  0  0
   -0.7976   -0.1956   -0.0000 H   0  0  0  0  0  0  0  0  0  0  0  0
   -0.4927    0.0000    0.0000 H   0  0  0  0  0  0  0  0  0  0  0  0
   -0.4953    0.0000    0.0000 H   0  0  0  0  0  0  0  0  0  0  0  0
   -0.4939    0.0000    0.0000 H   0  0  0  0  0  0  0  0  0  0  0  0
   -0.4962    0.0000    0.0000 H   0  0  0  0  0  0  0  0  0  0  0  0
   -0.5000    0.0000    0.0000 H   0  0  0  0  0  0  0  0  0  0  0  0
   -0.4905    0.0000    0.0000 H   0  0  0  0  0  0  0  0  0  0  0  0
   -0.4997    0.0000    0.0000 H   0  0  0  0  0  0  0  0  0  0  0  0
   -0.4922    0.0000    0.0000 H   0  0  0  0  0  0  0  0  0  0  0  0
   -0.4990    0.0000    0.0000 H   0  0  0  0  0  0  0  0  0  0  0  0
   -0.4915    0.0000    0.0000 H   0  0  0  0  0  0  0  0  0  0  0  0
   -0.4916    0.0000    0.0000 H   0  0  0  0  0  0  0  0  0  0  0  0
   -0.4937    0.0000    0.0000 H   0  0  0  0  0  0  0  0  0  0  0  0
   -0.4937    0.0000    0.0000 H   0  0  0  0  0  0  0  0  0  0  0  0
   -0.8153   -0.1870   -0.0000 H   0  0  0  0  0  0  0  0  0  0  0  0
    0.8227   -0.1819    0.0000 H   0  0  0  0  0  0  0  0  0  0  0  0
   -0.7924   -0.1993   -0.0000 H   0  0  0  0  0  0  0  0  0  0  0  0
    0.8021   -0.1921    0.0000 H   0  0  0  0  0  0  0  0  0  0  0  0
    0.7952   -0.1929    0.0000 H   0  0  0  0  0  0  0  0  0  0  0  0
   -0.7911   -0.1958   -0.0000 H   0  0  0  0  0  0  0  0  0  0  0  0
  3  2  1  0
  4  2  1  0
  5  2  2  0
  6 33  1  0
  7 34  1  0
  8 35  1  0
 11 36  1  0
 11 37  1  0
 12 38  1  0
 13 39  1  0
 14 40  1  0
 15 41  1  0
 16 42  1  0
 17 43  1  0
 18 44  1  0
 19 45  1  0
 20 46  1  0
 21 47  1  0
 22 48  1  0
 23 49  1  0
 24 50  1  0
 25 51  1  0
 25 52  1  0
 26 53  1  0
 26 54  1  0
 27 55  1  0
 27 56  1  0
M  CHG  8   1   2   3  -1   4  -1   6  -1   7  -1   8  -1   9   2  10   2
M  CHG  8  12  -1  13  -1  14  -1  15  -1  16  -1  17  -1  18  -1  19  -1
M  CHG  8  20  -1  21  -1  22  -1  23  -1  24  -1  28   3  29   3  30   2
M  CHG  2  31   2  32   2
M  END
$$$$
