
     RDKit          3D

100105  0  0  0  0  0  0  0  0999 V2000
   -5.8915    0.4526    1.7024 N   0  0  0  0  0  0  0  0  0  0  0  0
   -7.0149    1.0399    1.0539 C   0  0  0  0  0  0  0  0  0  0  0  0
    5.3287   -0.3400   -1.1265 N   0  0  0  0  0  0  0  0  0  0  0  0
    6.0955   -1.8682    0.6258 C   0  0  0  0  0  0  0  0  0  0  0  0
    4.9009   -1.1733   -0.0250 C   0  0  0  0  0  0  0  0  0  0  0  0
   -4.8397    0.6215    0.9409 C   0  0  0  0  0  0  0  0  0  0  0  0
   -5.1726    1.3988   -0.3412 C   0  0  0  0  0  0  0  0  0  0  0  0
   -6.6601    1.6101   -0.1466 C   0  0  0  0  0  0  0  0  0  0  0  0
    7.2462   -1.3347   -0.2103 C   0  0  0  0  0  0  0  0  0  0  0  0
    6.7516   -0.4762   -1.1820 C   0  0  0  0  0  0  0  0  0  0  0  0
    7.3357    3.5532    0.6904 S   0  0  0  0  0  0  0  0  0  0  0  0
   -8.7831   -4.2949    1.0775 S   0  0  0  0  0  0  0  0  0  0  0  0
   -7.6272    2.2606   -0.9525 C   0  0  0  0  0  0  0  0  0  0  0  0
    8.6448   -1.5716   -0.1051 C   0  0  0  0  0  0  0  0  0  0  0  0
   -8.3361    1.0619    1.5150 C   0  0  0  0  0  0  0  0  0  0  0  0
    7.6114    0.1891   -2.0676 C   0  0  0  0  0  0  0  0  0  0  0  0
    7.9334    3.2982    2.2392 O   0  0  0  0  0  0  0  0  0  0  0  0
   -8.7711   -5.9667    0.9191 O   0  0  0  0  0  0  0  0  0  0  0  0
    3.6420   -1.3529    0.4553 C   0  0  0  0  0  0  0  0  0  0  0  0
   -3.4884    0.0982    1.3191 C   0  0  0  0  0  0  0  0  0  0  0  0
    8.3819    3.1601   -0.3143 O   0  0  0  0  0  0  0  0  0  0  0  0
    6.9989    5.0079    0.5202 O   0  0  0  0  0  0  0  0  0  0  0  0
   -9.9822   -3.8828    1.8836 O   0  0  0  0  0  0  0  0  0  0  0  0
   -8.8587   -3.6684   -0.2862 O   0  0  0  0  0  0  0  0  0  0  0  0
    2.3645   -0.7996   -0.0409 C   0  0  0  0  0  0  0  0  0  0  0  0
   -2.4054    0.1405    0.5353 C   0  0  0  0  0  0  0  0  0  0  0  0
   -1.1158   -0.3974    1.0039 C   0  0  0  0  0  0  0  0  0  0  0  0
   -0.0243   -0.3377    0.2376 C   0  0  0  0  0  0  0  0  0  0  0  0
    1.2642   -0.8688    0.7149 C   0  0  0  0  0  0  0  0  0  0  0  0
   -5.9430   -0.2766    2.9828 C   0  0  0  0  0  0  0  0  0  0  0  0
    9.5127   -0.8940   -1.0094 C   0  0  0  0  0  0  0  0  0  0  0  0
   -8.9723    2.2979   -0.4854 C   0  0  0  0  0  0  0  0  0  0  0  0
    8.9863   -0.0223   -1.9760 C   0  0  0  0  0  0  0  0  0  0  0  0
   -9.3122    1.6954    0.7410 C   0  0  0  0  0  0  0  0  0  0  0  0
    4.5462    0.5657   -1.9804 C   0  0  0  0  0  0  0  0  0  0  0  0
    5.9481   -3.3972    0.4733 C   0  0  0  0  0  0  0  0  0  0  0  0
    6.2207   -1.4291    2.1025 C   0  0  0  0  0  0  0  0  0  0  0  0
   -4.4358    2.7552   -0.3481 C   0  0  0  0  0  0  0  0  0  0  0  0
   -4.9022    0.5430   -1.6035 C   0  0  0  0  0  0  0  0  0  0  0  0
    5.8737    2.5591    0.4566 C   0  0  0  0  0  0  0  0  0  0  0  0
   -7.2895   -3.7733    1.9032 C   0  0  0  0  0  0  0  0  0  0  0  0
    9.2167   -2.4415    0.8469 C   0  0  0  0  0  0  0  0  0  0  0  0
   -7.3201    2.8656   -2.1873 C   0  0  0  0  0  0  0  0  0  0  0  0
   -9.9615    2.9335   -1.2517 C   0  0  0  0  0  0  0  0  0  0  0  0
   10.9004   -1.0928   -0.9376 C   0  0  0  0  0  0  0  0  0  0  0  0
   -5.9736   -1.7964    2.7625 C   0  0  0  0  0  0  0  0  0  0  0  0
    4.0981    1.8342   -1.2301 C   0  0  0  0  0  0  0  0  0  0  0  0
    5.2568    2.8034   -0.9257 C   0  0  0  0  0  0  0  0  0  0  0  0
   -7.2599   -2.2520    2.0618 C   0  0  0  0  0  0  0  0  0  0  0  0
   -8.3184    3.4943   -2.9356 C   0  0  0  0  0  0  0  0  0  0  0  0
   10.6004   -2.6267    0.9029 C   0  0  0  0  0  0  0  0  0  0  0  0
   11.4390   -1.9554    0.0154 C   0  0  0  0  0  0  0  0  0  0  0  0
   -9.6326    3.5294   -2.4699 C   0  0  0  0  0  0  0  0  0  0  0  0
   -8.6237    0.6018    2.4484 H   0  0  0  0  0  0  0  0  0  0  0  0
    7.2526    0.8724   -2.8206 H   0  0  0  0  0  0  0  0  0  0  0  0
    3.5407   -1.9929    1.3228 H   0  0  0  0  0  0  0  0  0  0  0  0
   -3.3681   -0.3600    2.2902 H   0  0  0  0  0  0  0  0  0  0  0  0
    2.2673   -0.3652   -1.0135 H   0  0  0  0  0  0  0  0  0  0  0  0
   -2.4446    0.5676   -0.4511 H   0  0  0  0  0  0  0  0  0  0  0  0
   -1.0550   -0.8444    1.9906 H   0  0  0  0  0  0  0  0  0  0  0  0
   -0.0812    0.1108   -0.7491 H   0  0  0  0  0  0  0  0  0  0  0  0
    1.3146   -1.3132    1.7036 H   0  0  0  0  0  0  0  0  0  0  0  0
   -5.0733   -0.0046    3.6163 H   0  0  0  0  0  0  0  0  0  0  0  0
   -6.8241    0.0308    3.5810 H   0  0  0  0  0  0  0  0  0  0  0  0
    9.6428    0.4997   -2.6625 H   0  0  0  0  0  0  0  0  0  0  0  0
  -10.3347    1.7144    1.0995 H   0  0  0  0  0  0  0  0  0  0  0  0
    5.1190    0.8679   -2.8761 H   0  0  0  0  0  0  0  0  0  0  0  0
    3.6989    0.0230   -2.4334 H   0  0  0  0  0  0  0  0  0  0  0  0
    5.0431   -3.7610    1.0034 H   0  0  0  0  0  0  0  0  0  0  0  0
    5.8548   -3.6706   -0.6003 H   0  0  0  0  0  0  0  0  0  0  0  0
    6.8082   -3.9489    0.8932 H   0  0  0  0  0  0  0  0  0  0  0  0
    5.3505   -1.7764    2.6964 H   0  0  0  0  0  0  0  0  0  0  0  0
    6.2715   -0.3223    2.1770 H   0  0  0  0  0  0  0  0  0  0  0  0
    7.1209   -1.8408    2.5919 H   0  0  0  0  0  0  0  0  0  0  0  0
   -4.6571    3.3395   -1.2597 H   0  0  0  0  0  0  0  0  0  0  0  0
   -3.3379    2.6235   -0.3098 H   0  0  0  0  0  0  0  0  0  0  0  0
   -4.7342    3.3606    0.5345 H   0  0  0  0  0  0  0  0  0  0  0  0
   -5.6692    0.6973   -2.3888 H   0  0  0  0  0  0  0  0  0  0  0  0
   -3.9242    0.7908   -2.0654 H   0  0  0  0  0  0  0  0  0  0  0  0
   -4.9149   -0.5429   -1.3603 H   0  0  0  0  0  0  0  0  0  0  0  0
    6.1592    1.4992    0.5796 H   0  0  0  0  0  0  0  0  0  0  0  0
    5.1367    2.8136    1.2469 H   0  0  0  0  0  0  0  0  0  0  0  0
   -7.2451   -4.2614    2.9003 H   0  0  0  0  0  0  0  0  0  0  0  0
   -6.4179   -4.1091    1.3022 H   0  0  0  0  0  0  0  0  0  0  0  0
    8.6254   -2.9928    1.5538 H   0  0  0  0  0  0  0  0  0  0  0  0
   -6.3234    2.8531   -2.5961 H   0  0  0  0  0  0  0  0  0  0  0  0
  -10.9887    2.9691   -0.9082 H   0  0  0  0  0  0  0  0  0  0  0  0
   11.5685   -0.5805   -1.6197 H   0  0  0  0  0  0  0  0  0  0  0  0
   -5.0925   -2.1077    2.1613 H   0  0  0  0  0  0  0  0  0  0  0  0
   -5.9018   -2.2948    3.7540 H   0  0  0  0  0  0  0  0  0  0  0  0
    3.5587    1.5780   -0.2954 H   0  0  0  0  0  0  0  0  0  0  0  0
    3.3703    2.3618   -1.8840 H   0  0  0  0  0  0  0  0  0  0  0  0
    6.0355    2.7387   -1.7151 H   0  0  0  0  0  0  0  0  0  0  0  0
    4.8610    3.8420   -0.9449 H   0  0  0  0  0  0  0  0  0  0  0  0
   -7.3197   -1.7853    1.0552 H   0  0  0  0  0  0  0  0  0  0  0  0
   -8.1398   -1.9279    2.6593 H   0  0  0  0  0  0  0  0  0  0  0  0
   -8.0716    3.9530   -3.8844 H   0  0  0  0  0  0  0  0  0  0  0  0
   11.0251   -3.2957    1.6404 H   0  0  0  0  0  0  0  0  0  0  0  0
   12.5097   -2.1064    0.0646 H   0  0  0  0  0  0  0  0  0  0  0  0
  -10.3997    4.0175   -3.0565 H   0  0  0  0  0  0  0  0  0  0  0  0
  2  1  1  0
  3  5  1  0
  4  5  1  0
  5 19  2  0
  6  1  2  0
  7  6  1  0
  8  2  2  0
  9  4  1  0
 10  3  1  0
 11 40  1  0
 12 41  1  0
 13  8  1  0
 14  9  2  0
 15  2  1  0
 16 10  2  0
 17 11  1  0
 18 12  1  0
 19 25  1  0
 20  6  1  0
 21 11  2  0
 22 11  2  0
 23 12  2  0
 24 12  2  0
 25 29  2  0
 26 20  2  0
 27 26  1  0
 28 27  2  0
 29 28  1  0
 30  1  1  0
 31 14  1  0
 32 34  1  0
 33 16  1  0
 34 15  2  0
 35  3  1  0
 36  4  1  0
 37  4  1  0
 38  7  1  0
 39  7  1  0
 40 48  1  0
 41 49  1  0
 42 14  1  0
 43 13  2  0
 44 32  2  0
 45 31  1  0
 46 30  1  0
 47 35  1  0
 48 47  1  0
 49 46  1  0
 50 43  1  0
 51 42  2  0
 52 51  1  0
 53 44  1  0
  7  8  1  0
 13 32  1  0
 53 50  2  0
 10  9  1  0
 31 33  2  0
 52 45  2  0
 15 54  1  0
 16 55  1  0
 19 56  1  0
 20 57  1  0
 25 58  1  0
 26 59  1  0
 27 60  1  0
 28 61  1  0
 29 62  1  0
 30 63  1  0
 30 64  1  0
 33 65  1  0
 34 66  1  0
 35 67  1  0
 35 68  1  0
 36 69  1  0
 36 70  1  0
 36 71  1  0
 37 72  1  0
 37 73  1  0
 37 74  1  0
 38 75  1  0
 38 76  1  0
 38 77  1  0
 39 78  1  0
 39 79  1  0
 39 80  1  0
 40 81  1  0
 40 82  1  0
 41 83  1  0
 41 84  1  0
 42 85  1  0
 43 86  1  0
 44 87  1  0
 45 88  1  0
 46 89  1  0
 46 90  1  0
 47 91  1  0
 47 92  1  0
 48 93  1  0
 48 94  1  0
 49 95  1  0
 49 96  1  0
 50 97  1  0
 51 98  1  0
 52 99  1  0
 53100  1  0
M  CHG  3   1   1  17  -1  18  -1
M  END
$$$$
