
     RDKit          3D

100105  0  0  0  0  0  0  0  0999 V2000
    5.6594    1.1612    1.0649 N   0  0  0  0  0  0  0  0  0  0  0  0
    6.6040    0.3448    1.7499 C   0  0  0  0  0  0  0  0  0  0  0  0
   -5.5317   -0.1254   -0.7539 N   0  0  0  0  0  0  0  0  0  0  0  0
   -6.1377    1.6183   -2.3672 C   0  0  0  0  0  0  0  0  0  0  0  0
   -5.0288    0.9610   -1.5541 C   0  0  0  0  0  0  0  0  0  0  0  0
    4.5137    0.5286    1.0367 C   0  0  0  0  0  0  0  0  0  0  0  0
    4.5885   -0.8415    1.7247 C   0  0  0  0  0  0  0  0  0  0  0  0
    6.0415   -0.8448    2.1506 C   0  0  0  0  0  0  0  0  0  0  0  0
   -7.3492    0.8389   -1.8842 C   0  0  0  0  0  0  0  0  0  0  0  0
   -6.9415   -0.1176   -0.9666 C   0  0  0  0  0  0  0  0  0  0  0  0
   -5.1670   -4.6619    1.7988 S   0  0  0  0  0  0  0  0  0  0  0  0
    8.9134    3.9982   -2.2918 S   0  0  0  0  0  0  0  0  0  0  0  0
    6.8138   -1.8185    2.8290 C   0  0  0  0  0  0  0  0  0  0  0  0
   -8.7191    0.9394   -2.2500 C   0  0  0  0  0  0  0  0  0  0  0  0
    7.9471    0.6419    2.0034 C   0  0  0  0  0  0  0  0  0  0  0  0
   -7.8527   -0.9934   -0.3698 C   0  0  0  0  0  0  0  0  0  0  0  0
   -4.9901   -6.3266    1.6696 O   0  0  0  0  0  0  0  0  0  0  0  0
   10.4988    4.5537   -2.3367 O   0  0  0  0  0  0  0  0  0  0  0  0
   -3.7501    1.4022   -1.5858 C   0  0  0  0  0  0  0  0  0  0  0  0
    3.3176    1.0735    0.3231 C   0  0  0  0  0  0  0  0  0  0  0  0
   -5.3158   -4.2930    3.2477 O   0  0  0  0  0  0  0  0  0  0  0  0
   -6.3974   -4.2444    1.0453 O   0  0  0  0  0  0  0  0  0  0  0  0
    8.0165    5.1220   -1.8532 O   0  0  0  0  0  0  0  0  0  0  0  0
    8.5146    3.5454   -3.6680 O   0  0  0  0  0  0  0  0  0  0  0  0
   -2.6622    0.9595   -0.6944 C   0  0  0  0  0  0  0  0  0  0  0  0
    2.0728    0.6087    0.4703 C   0  0  0  0  0  0  0  0  0  0  0  0
    0.9636    1.1620   -0.3261 C   0  0  0  0  0  0  0  0  0  0  0  0
   -0.2969    0.7830   -0.1082 C   0  0  0  0  0  0  0  0  0  0  0  0
   -1.3921    1.2682   -0.9642 C   0  0  0  0  0  0  0  0  0  0  0  0
    5.9488    2.4758    0.4638 C   0  0  0  0  0  0  0  0  0  0  0  0
   -9.6483    0.0502   -1.6344 C   0  0  0  0  0  0  0  0  0  0  0  0
    8.1881   -1.5342    3.0718 C   0  0  0  0  0  0  0  0  0  0  0  0
   -9.2050   -0.9020   -0.7002 C   0  0  0  0  0  0  0  0  0  0  0  0
    8.7386   -0.3050    2.6602 C   0  0  0  0  0  0  0  0  0  0  0  0
   -4.8029   -1.3482   -0.3854 C   0  0  0  0  0  0  0  0  0  0  0  0
   -6.2458    3.1149   -2.0025 C   0  0  0  0  0  0  0  0  0  0  0  0
   -5.8735    1.3915   -3.8690 C   0  0  0  0  0  0  0  0  0  0  0  0
    4.3198   -1.9581    0.6946 C   0  0  0  0  0  0  0  0  0  0  0  0
    3.6563   -0.9139    2.9604 C   0  0  0  0  0  0  0  0  0  0  0  0
   -3.7238   -3.8680    1.0993 C   0  0  0  0  0  0  0  0  0  0  0  0
    8.8066    2.6404   -1.1296 C   0  0  0  0  0  0  0  0  0  0  0  0
   -9.2024    1.8648   -3.1977 C   0  0  0  0  0  0  0  0  0  0  0  0
    6.2835   -3.0449    3.2735 C   0  0  0  0  0  0  0  0  0  0  0  0
    8.9925   -2.4812    3.7250 C   0  0  0  0  0  0  0  0  0  0  0  0
  -11.0106    0.1151   -1.9683 C   0  0  0  0  0  0  0  0  0  0  0  0
    6.2365    2.3639   -1.0465 C   0  0  0  0  0  0  0  0  0  0  0  0
   -4.6715   -1.4605    1.1436 C   0  0  0  0  0  0  0  0  0  0  0  0
   -3.5462   -2.4169    1.5749 C   0  0  0  0  0  0  0  0  0  0  0  0
    7.5963    1.7246   -1.3826 C   0  0  0  0  0  0  0  0  0  0  0  0
    7.0999   -3.9746    3.9220 C   0  0  0  0  0  0  0  0  0  0  0  0
  -10.5621    1.9140   -3.5168 C   0  0  0  0  0  0  0  0  0  0  0  0
  -11.4626    1.0441   -2.9041 C   0  0  0  0  0  0  0  0  0  0  0  0
    8.4489   -3.6962    4.1436 C   0  0  0  0  0  0  0  0  0  0  0  0
    8.3896    1.5767    1.6985 H   0  0  0  0  0  0  0  0  0  0  0  0
   -7.5314   -1.7433    0.3363 H   0  0  0  0  0  0  0  0  0  0  0  0
   -3.5024    2.1860   -2.2911 H   0  0  0  0  0  0  0  0  0  0  0  0
    3.4562    1.9031   -0.3565 H   0  0  0  0  0  0  0  0  0  0  0  0
   -2.8809    0.4083    0.2043 H   0  0  0  0  0  0  0  0  0  0  0  0
    1.8554   -0.1893    1.1600 H   0  0  0  0  0  0  0  0  0  0  0  0
    1.1819    1.8705   -1.1185 H   0  0  0  0  0  0  0  0  0  0  0  0
   -0.5211    0.0913    0.6970 H   0  0  0  0  0  0  0  0  0  0  0  0
   -1.1536    1.8582   -1.8433 H   0  0  0  0  0  0  0  0  0  0  0  0
    6.7879    2.9713    0.9880 H   0  0  0  0  0  0  0  0  0  0  0  0
    5.0847    3.1560    0.6209 H   0  0  0  0  0  0  0  0  0  0  0  0
   -9.9061   -1.5840   -0.2336 H   0  0  0  0  0  0  0  0  0  0  0  0
    9.7814   -0.0774    2.8476 H   0  0  0  0  0  0  0  0  0  0  0  0
   -5.3456   -2.2360   -0.7767 H   0  0  0  0  0  0  0  0  0  0  0  0
   -3.8111   -1.3756   -0.8792 H   0  0  0  0  0  0  0  0  0  0  0  0
   -6.3988    3.2346   -0.9078 H   0  0  0  0  0  0  0  0  0  0  0  0
   -7.0844    3.6151   -2.5204 H   0  0  0  0  0  0  0  0  0  0  0  0
   -5.3207    3.6586   -2.2883 H   0  0  0  0  0  0  0  0  0  0  0  0
   -6.6645    1.8281   -4.5052 H   0  0  0  0  0  0  0  0  0  0  0  0
   -4.9156    1.8634   -4.1736 H   0  0  0  0  0  0  0  0  0  0  0  0
   -5.8128    0.3034   -4.0892 H   0  0  0  0  0  0  0  0  0  0  0  0
    4.4053   -2.9652    1.1434 H   0  0  0  0  0  0  0  0  0  0  0  0
    3.2971   -1.8735    0.2740 H   0  0  0  0  0  0  0  0  0  0  0  0
    5.0437   -1.8912   -0.1461 H   0  0  0  0  0  0  0  0  0  0  0  0
    3.3443    0.1002    3.2905 H   0  0  0  0  0  0  0  0  0  0  0  0
    2.7456   -1.5109    2.7483 H   0  0  0  0  0  0  0  0  0  0  0  0
    4.1496   -1.3879    3.8318 H   0  0  0  0  0  0  0  0  0  0  0  0
   -3.7755   -3.9156   -0.0080 H   0  0  0  0  0  0  0  0  0  0  0  0
   -2.8302   -4.4489    1.4119 H   0  0  0  0  0  0  0  0  0  0  0  0
    9.7301    2.0331   -1.2346 H   0  0  0  0  0  0  0  0  0  0  0  0
    8.7952    3.0501   -0.1009 H   0  0  0  0  0  0  0  0  0  0  0  0
   -8.5564    2.5544   -3.7086 H   0  0  0  0  0  0  0  0  0  0  0  0
    5.2438   -3.2970    3.1409 H   0  0  0  0  0  0  0  0  0  0  0  0
   10.0411   -2.2828    3.9111 H   0  0  0  0  0  0  0  0  0  0  0  0
  -11.7262   -0.5568   -1.5095 H   0  0  0  0  0  0  0  0  0  0  0  0
    5.4440    1.7505   -1.5262 H   0  0  0  0  0  0  0  0  0  0  0  0
    6.1675    3.3724   -1.5046 H   0  0  0  0  0  0  0  0  0  0  0  0
   -5.6324   -1.7817    1.5929 H   0  0  0  0  0  0  0  0  0  0  0  0
   -4.4549   -0.4591    1.5737 H   0  0  0  0  0  0  0  0  0  0  0  0
   -3.4712   -2.4038    2.6836 H   0  0  0  0  0  0  0  0  0  0  0  0
   -2.5791   -2.0326    1.1824 H   0  0  0  0  0  0  0  0  0  0  0  0
    7.7201    0.7871   -0.8014 H   0  0  0  0  0  0  0  0  0  0  0  0
    7.5928    1.4209   -2.4519 H   0  0  0  0  0  0  0  0  0  0  0  0
    6.6836   -4.9162    4.2562 H   0  0  0  0  0  0  0  0  0  0  0  0
  -10.9195    2.6311   -4.2452 H   0  0  0  0  0  0  0  0  0  0  0  0
  -12.5142    1.0874   -3.1573 H   0  0  0  0  0  0  0  0  0  0  0  0
    9.0735   -4.4217    4.6485 H   0  0  0  0  0  0  0  0  0  0  0  0
  2  1  1  0
  3  5  1  0
  4  5  1  0
  5 19  2  0
  6  1  2  0
  7  6  1  0
  8  2  2  0
  9  4  1  0
 10  3  1  0
 11 40  1  0
 12 41  1  0
 13  8  1  0
 14  9  2  0
 15  2  1  0
 16 10  2  0
 17 11  1  0
 18 12  1  0
 19 25  1  0
 20  6  1  0
 21 11  2  0
 22 11  2  0
 23 12  2  0
 24 12  2  0
 25 29  2  0
 26 20  2  0
 27 26  1  0
 28 27  2  0
 29 28  1  0
 30  1  1  0
 31 14  1  0
 32 34  1  0
 33 16  1  0
 34 15  2  0
 35  3  1  0
 36  4  1  0
 37  4  1  0
 38  7  1  0
 39  7  1  0
 40 48  1  0
 41 49  1  0
 42 14  1  0
 43 13  2  0
 44 32  2  0
 45 31  1  0
 46 30  1  0
 47 35  1  0
 48 47  1  0
 49 46  1  0
 50 43  1  0
 51 42  2  0
 52 51  1  0
 53 44  1  0
  7  8  1  0
 13 32  1  0
 53 50  2  0
 10  9  1  0
 31 33  2  0
 52 45  2  0
 15 54  1  0
 16 55  1  0
 19 56  1  0
 20 57  1  0
 25 58  1  0
 26 59  1  0
 27 60  1  0
 28 61  1  0
 29 62  1  0
 30 63  1  0
 30 64  1  0
 33 65  1  0
 34 66  1  0
 35 67  1  0
 35 68  1  0
 36 69  1  0
 36 70  1  0
 36 71  1  0
 37 72  1  0
 37 73  1  0
 37 74  1  0
 38 75  1  0
 38 76  1  0
 38 77  1  0
 39 78  1  0
 39 79  1  0
 39 80  1  0
 40 81  1  0
 40 82  1  0
 41 83  1  0
 41 84  1  0
 42 85  1  0
 43 86  1  0
 44 87  1  0
 45 88  1  0
 46 89  1  0
 46 90  1  0
 47 91  1  0
 47 92  1  0
 48 93  1  0
 48 94  1  0
 49 95  1  0
 49 96  1  0
 50 97  1  0
 51 98  1  0
 52 99  1  0
 53100  1  0
M  CHG  3   1   1  17  -1  18  -1
M  END
$$$$
