
     RDKit          3D

100105  0  0  0  0  0  0  0  0999 V2000
   -6.0637    1.5553    0.2981 N   0  0  0  0  0  0  0  0  0  0  0  0
   -7.2270    0.7875    0.0158 C   0  0  0  0  0  0  0  0  0  0  0  0
    4.9240   -0.6742   -1.3868 N   0  0  0  0  0  0  0  0  0  0  0  0
    6.1404    1.4416   -1.1070 C   0  0  0  0  0  0  0  0  0  0  0  0
    4.8153    0.7006   -0.9757 C   0  0  0  0  0  0  0  0  0  0  0  0
   -5.0133    0.8566   -0.0536 C   0  0  0  0  0  0  0  0  0  0  0  0
   -5.3976   -0.5105   -0.6390 C   0  0  0  0  0  0  0  0  0  0  0  0
   -6.9053   -0.4343   -0.5256 C   0  0  0  0  0  0  0  0  0  0  0  0
    7.0080    0.3568   -1.7223 C   0  0  0  0  0  0  0  0  0  0  0  0
    6.2568   -0.7988   -1.8780 C   0  0  0  0  0  0  0  0  0  0  0  0
    6.8014   -2.3069    3.1646 S   0  0  0  0  0  0  0  0  0  0  0  0
   -6.4568    0.3346    4.9758 S   0  0  0  0  0  0  0  0  0  0  0  0
   -7.9177   -1.3669   -0.8564 C   0  0  0  0  0  0  0  0  0  0  0  0
    8.3735    0.3776   -2.1108 C   0  0  0  0  0  0  0  0  0  0  0  0
   -8.5530    1.1624    0.2511 C   0  0  0  0  0  0  0  0  0  0  0  0
    6.8029   -1.9579   -2.4362 C   0  0  0  0  0  0  0  0  0  0  0  0
    7.6091   -0.9108    2.6909 O   0  0  0  0  0  0  0  0  0  0  0  0
   -7.8951    0.2936    4.1060 O   0  0  0  0  0  0  0  0  0  0  0  0
    3.6676    1.3201   -0.6328 C   0  0  0  0  0  0  0  0  0  0  0  0
   -3.6148    1.3184    0.2068 C   0  0  0  0  0  0  0  0  0  0  0  0
    7.2524   -3.4604    2.3121 O   0  0  0  0  0  0  0  0  0  0  0  0
    7.1306   -2.6014    4.6010 O   0  0  0  0  0  0  0  0  0  0  0  0
   -6.7653    0.2059    6.4415 O   0  0  0  0  0  0  0  0  0  0  0  0
   -5.5880   -0.8170    4.5519 O   0  0  0  0  0  0  0  0  0  0  0  0
    2.3254    0.7935   -0.9278 C   0  0  0  0  0  0  0  0  0  0  0  0
   -2.5291    0.7948   -0.3717 C   0  0  0  0  0  0  0  0  0  0  0  0
   -1.1822    1.2955   -0.0453 C   0  0  0  0  0  0  0  0  0  0  0  0
   -0.0998    0.7893   -0.6398 C   0  0  0  0  0  0  0  0  0  0  0  0
    1.2474    1.2863   -0.3155 C   0  0  0  0  0  0  0  0  0  0  0  0
   -6.0866    2.8821    0.9378 C   0  0  0  0  0  0  0  0  0  0  0  0
    8.9299   -0.8041   -2.6822 C   0  0  0  0  0  0  0  0  0  0  0  0
   -9.2716   -1.0024   -0.6054 C   0  0  0  0  0  0  0  0  0  0  0  0
    8.1377   -1.9548   -2.8425 C   0  0  0  0  0  0  0  0  0  0  0  0
   -9.5747    0.2598   -0.0590 C   0  0  0  0  0  0  0  0  0  0  0  0
    4.1949   -1.8182   -0.8055 C   0  0  0  0  0  0  0  0  0  0  0  0
    5.9782    2.6395   -2.0689 C   0  0  0  0  0  0  0  0  0  0  0  0
    6.6478    1.8708    0.2837 C   0  0  0  0  0  0  0  0  0  0  0  0
   -4.9690   -0.6385   -2.1221 C   0  0  0  0  0  0  0  0  0  0  0  0
   -4.8411   -1.6377    0.2562 C   0  0  0  0  0  0  0  0  0  0  0  0
    5.0324   -2.0820    3.0084 C   0  0  0  0  0  0  0  0  0  0  0  0
   -5.5859    1.8741    4.6964 C   0  0  0  0  0  0  0  0  0  0  0  0
    9.2043    1.5047   -1.9528 C   0  0  0  0  0  0  0  0  0  0  0  0
   -7.6461   -2.6261   -1.4253 C   0  0  0  0  0  0  0  0  0  0  0  0
  -10.3048   -1.9019   -0.9092 C   0  0  0  0  0  0  0  0  0  0  0  0
   10.2743   -0.8235   -3.0850 C   0  0  0  0  0  0  0  0  0  0  0  0
   -6.3714    2.7731    2.4439 C   0  0  0  0  0  0  0  0  0  0  0  0
    4.8669   -2.3484    0.4715 C   0  0  0  0  0  0  0  0  0  0  0  0
    4.6306   -1.4268    1.6797 C   0  0  0  0  0  0  0  0  0  0  0  0
   -5.2370    2.0817    3.2151 C   0  0  0  0  0  0  0  0  0  0  0  0
   -8.6886   -3.5070   -1.7242 C   0  0  0  0  0  0  0  0  0  0  0  0
   10.5403    1.4660   -2.3588 C   0  0  0  0  0  0  0  0  0  0  0  0
   11.0727    0.3083   -2.9236 C   0  0  0  0  0  0  0  0  0  0  0  0
  -10.0115   -3.1485   -1.4642 C   0  0  0  0  0  0  0  0  0  0  0  0
   -8.8018    2.1280    0.6682 H   0  0  0  0  0  0  0  0  0  0  0  0
    6.2110   -2.8541   -2.5586 H   0  0  0  0  0  0  0  0  0  0  0  0
    3.7196    2.3314   -0.2469 H   0  0  0  0  0  0  0  0  0  0  0  0
   -3.4575    2.1198    0.9132 H   0  0  0  0  0  0  0  0  0  0  0  0
    2.2049    0.0468   -1.7039 H   0  0  0  0  0  0  0  0  0  0  0  0
   -2.6126   -0.0016   -1.0905 H   0  0  0  0  0  0  0  0  0  0  0  0
   -1.0720    2.0873    0.6879 H   0  0  0  0  0  0  0  0  0  0  0  0
   -0.2096   -0.0007   -1.3747 H   0  0  0  0  0  0  0  0  0  0  0  0
    1.3616    2.0593    0.4372 H   0  0  0  0  0  0  0  0  0  0  0  0
   -6.8894    3.4920    0.4709 H   0  0  0  0  0  0  0  0  0  0  0  0
   -5.1540    3.4528    0.7542 H   0  0  0  0  0  0  0  0  0  0  0  0
    8.5548   -2.8553   -3.2776 H   0  0  0  0  0  0  0  0  0  0  0  0
  -10.6024    0.5466    0.1273 H   0  0  0  0  0  0  0  0  0  0  0  0
    4.1542   -2.6365   -1.5543 H   0  0  0  0  0  0  0  0  0  0  0  0
    3.1431   -1.5778   -0.5782 H   0  0  0  0  0  0  0  0  0  0  0  0
    6.9391    3.1449   -2.2758 H   0  0  0  0  0  0  0  0  0  0  0  0
    5.2975    3.4029   -1.6365 H   0  0  0  0  0  0  0  0  0  0  0  0
    5.5545    2.3018   -3.0401 H   0  0  0  0  0  0  0  0  0  0  0  0
    5.8638    2.4341    0.8323 H   0  0  0  0  0  0  0  0  0  0  0  0
    6.9283    0.9831    0.8870 H   0  0  0  0  0  0  0  0  0  0  0  0
    7.5304    2.5341    0.2164 H   0  0  0  0  0  0  0  0  0  0  0  0
   -4.0514   -1.2546   -2.2277 H   0  0  0  0  0  0  0  0  0  0  0  0
   -4.7812    0.3617   -2.5710 H   0  0  0  0  0  0  0  0  0  0  0  0
   -5.7489   -1.1229   -2.7445 H   0  0  0  0  0  0  0  0  0  0  0  0
   -5.2402   -1.5431    1.2906 H   0  0  0  0  0  0  0  0  0  0  0  0
   -5.1061   -2.6411   -0.1283 H   0  0  0  0  0  0  0  0  0  0  0  0
   -3.7343   -1.5936    0.3107 H   0  0  0  0  0  0  0  0  0  0  0  0
    4.6954   -1.4281    3.8407 H   0  0  0  0  0  0  0  0  0  0  0  0
    4.5257   -3.0643    3.1230 H   0  0  0  0  0  0  0  0  0  0  0  0
   -6.1919    2.7206    5.0849 H   0  0  0  0  0  0  0  0  0  0  0  0
   -4.6444    1.8371    5.2846 H   0  0  0  0  0  0  0  0  0  0  0  0
    8.8514    2.4205   -1.5164 H   0  0  0  0  0  0  0  0  0  0  0  0
   -6.6421   -2.9395   -1.6617 H   0  0  0  0  0  0  0  0  0  0  0  0
  -11.3389   -1.6399   -0.7196 H   0  0  0  0  0  0  0  0  0  0  0  0
   10.7083   -1.7152   -3.5223 H   0  0  0  0  0  0  0  0  0  0  0  0
   -6.5086    3.7993    2.8498 H   0  0  0  0  0  0  0  0  0  0  0  0
   -7.3238    2.2290    2.5967 H   0  0  0  0  0  0  0  0  0  0  0  0
    5.9554   -2.4788    0.2964 H   0  0  0  0  0  0  0  0  0  0  0  0
    4.4381   -3.3515    0.6922 H   0  0  0  0  0  0  0  0  0  0  0  0
    3.5485   -1.1766    1.7414 H   0  0  0  0  0  0  0  0  0  0  0  0
    5.1850   -0.4754    1.5514 H   0  0  0  0  0  0  0  0  0  0  0  0
   -4.9881    1.1035    2.7518 H   0  0  0  0  0  0  0  0  0  0  0  0
   -4.3323    2.7241    3.1540 H   0  0  0  0  0  0  0  0  0  0  0  0
   -8.4693   -4.4726   -2.1611 H   0  0  0  0  0  0  0  0  0  0  0  0
   11.1667    2.3400   -2.2336 H   0  0  0  0  0  0  0  0  0  0  0  0
   12.1083    0.2877   -3.2359 H   0  0  0  0  0  0  0  0  0  0  0  0
  -10.8129   -3.8368   -1.6993 H   0  0  0  0  0  0  0  0  0  0  0  0
  2  1  1  0
  3  5  1  0
  4  5  1  0
  5 19  2  0
  6  1  2  0
  7  6  1  0
  8  2  2  0
  9  4  1  0
 10  3  1  0
 11 40  1  0
 12 41  1  0
 13  8  1  0
 14  9  2  0
 15  2  1  0
 16 10  2  0
 17 11  1  0
 18 12  1  0
 19 25  1  0
 20  6  1  0
 21 11  2  0
 22 11  2  0
 23 12  2  0
 24 12  2  0
 25 29  2  0
 26 20  2  0
 27 26  1  0
 28 27  2  0
 29 28  1  0
 30  1  1  0
 31 14  1  0
 32 34  1  0
 33 16  1  0
 34 15  2  0
 35  3  1  0
 36  4  1  0
 37  4  1  0
 38  7  1  0
 39  7  1  0
 40 48  1  0
 41 49  1  0
 42 14  1  0
 43 13  2  0
 44 32  2  0
 45 31  1  0
 46 30  1  0
 47 35  1  0
 48 47  1  0
 49 46  1  0
 50 43  1  0
 51 42  2  0
 52 51  1  0
 53 44  1  0
  7  8  1  0
 13 32  1  0
 53 50  2  0
 10  9  1  0
 31 33  2  0
 52 45  2  0
 15 54  1  0
 16 55  1  0
 19 56  1  0
 20 57  1  0
 25 58  1  0
 26 59  1  0
 27 60  1  0
 28 61  1  0
 29 62  1  0
 30 63  1  0
 30 64  1  0
 33 65  1  0
 34 66  1  0
 35 67  1  0
 35 68  1  0
 36 69  1  0
 36 70  1  0
 36 71  1  0
 37 72  1  0
 37 73  1  0
 37 74  1  0
 38 75  1  0
 38 76  1  0
 38 77  1  0
 39 78  1  0
 39 79  1  0
 39 80  1  0
 40 81  1  0
 40 82  1  0
 41 83  1  0
 41 84  1  0
 42 85  1  0
 43 86  1  0
 44 87  1  0
 45 88  1  0
 46 89  1  0
 46 90  1  0
 47 91  1  0
 47 92  1  0
 48 93  1  0
 48 94  1  0
 49 95  1  0
 49 96  1  0
 50 97  1  0
 51 98  1  0
 52 99  1  0
 53100  1  0
M  CHG  3   1   1  17  -1  18  -1
M  END
$$$$
