
     RDKit          3D

100105  0  0  0  0  0  0  0  0999 V2000
   -5.1704   -0.8780   -0.9885 N   0  0  0  0  0  0  0  0  0  0  0  0
   -6.4031   -1.4109   -0.5182 C   0  0  0  0  0  0  0  0  0  0  0  0
    4.7127    2.0942    0.4768 N   0  0  0  0  0  0  0  0  0  0  0  0
    6.3942    1.1370   -1.0359 C   0  0  0  0  0  0  0  0  0  0  0  0
    4.9257    1.2130   -0.6420 C   0  0  0  0  0  0  0  0  0  0  0  0
   -4.3538   -1.8801   -1.1817 C   0  0  0  0  0  0  0  0  0  0  0  0
   -4.9914   -3.2310   -0.8868 C   0  0  0  0  0  0  0  0  0  0  0  0
   -6.3574   -2.7845   -0.4161 C   0  0  0  0  0  0  0  0  0  0  0  0
    6.9855    2.1906   -0.1183 C   0  0  0  0  0  0  0  0  0  0  0  0
    5.9831    2.7108    0.6864 C   0  0  0  0  0  0  0  0  0  0  0  0
    2.0460   -2.6851    1.7700 S   0  0  0  0  0  0  0  0  0  0  0  0
   -6.3831    4.1939   -0.6588 S   0  0  0  0  0  0  0  0  0  0  0  0
   -7.4825   -3.5113    0.0406 C   0  0  0  0  0  0  0  0  0  0  0  0
    8.3195    2.6615    0.0083 C   0  0  0  0  0  0  0  0  0  0  0  0
   -7.5526   -0.6875   -0.1933 C   0  0  0  0  0  0  0  0  0  0  0  0
    6.2414    3.7319    1.6054 C   0  0  0  0  0  0  0  0  0  0  0  0
    2.7038   -3.0431    0.2637 O   0  0  0  0  0  0  0  0  0  0  0  0
   -7.0973    5.6253   -0.1494 O   0  0  0  0  0  0  0  0  0  0  0  0
    3.9599    0.5536   -1.3170 C   0  0  0  0  0  0  0  0  0  0  0  0
   -2.9577   -1.7722   -1.6810 C   0  0  0  0  0  0  0  0  0  0  0  0
    0.5553   -2.8672    1.7175 O   0  0  0  0  0  0  0  0  0  0  0  0
    2.6256   -3.6165    2.8027 O   0  0  0  0  0  0  0  0  0  0  0  0
   -7.3838    3.0803   -0.5417 O   0  0  0  0  0  0  0  0  0  0  0  0
   -5.9570    4.3416   -2.0932 O   0  0  0  0  0  0  0  0  0  0  0  0
    2.5163    0.7670   -1.1475 C   0  0  0  0  0  0  0  0  0  0  0  0
   -2.0688   -0.9006   -1.1969 C   0  0  0  0  0  0  0  0  0  0  0  0
   -0.6578   -0.9645   -1.6046 C   0  0  0  0  0  0  0  0  0  0  0  0
    0.2130   -0.0409   -1.1997 C   0  0  0  0  0  0  0  0  0  0  0  0
    1.6490   -0.1896   -1.4782 C   0  0  0  0  0  0  0  0  0  0  0  0
   -4.9237    0.5472   -1.2584 C   0  0  0  0  0  0  0  0  0  0  0  0
    8.5815    3.7050    0.9443 C   0  0  0  0  0  0  0  0  0  0  0  0
   -8.6536   -2.7798    0.3939 C   0  0  0  0  0  0  0  0  0  0  0  0
    7.5388    4.2307    1.7287 C   0  0  0  0  0  0  0  0  0  0  0  0
   -8.6764   -1.3766    0.2695 C   0  0  0  0  0  0  0  0  0  0  0  0
    3.7861    1.8493    1.6008 C   0  0  0  0  0  0  0  0  0  0  0  0
    6.5681    1.5182   -2.5230 C   0  0  0  0  0  0  0  0  0  0  0  0
    6.9345   -0.2691   -0.7153 C   0  0  0  0  0  0  0  0  0  0  0  0
   -5.0865   -4.0665   -2.1759 C   0  0  0  0  0  0  0  0  0  0  0  0
   -4.1924   -3.9443    0.2180 C   0  0  0  0  0  0  0  0  0  0  0  0
    2.4107   -0.9954    2.2129 C   0  0  0  0  0  0  0  0  0  0  0  0
   -4.9610    3.8595    0.3747 C   0  0  0  0  0  0  0  0  0  0  0  0
    9.3959    2.1397   -0.7364 C   0  0  0  0  0  0  0  0  0  0  0  0
   -7.4957   -4.9132    0.1610 C   0  0  0  0  0  0  0  0  0  0  0  0
   -9.7889   -3.4598    0.8625 C   0  0  0  0  0  0  0  0  0  0  0  0
    9.8847    4.2095    1.0875 C   0  0  0  0  0  0  0  0  0  0  0  0
   -4.7153    1.3208    0.0558 C   0  0  0  0  0  0  0  0  0  0  0  0
    4.2814    0.7239    2.5329 C   0  0  0  0  0  0  0  0  0  0  0  0
    3.9111   -0.6988    2.0677 C   0  0  0  0  0  0  0  0  0  0  0  0
   -4.0973    2.7176   -0.1774 C   0  0  0  0  0  0  0  0  0  0  0  0
   -8.6342   -5.5726    0.6317 C   0  0  0  0  0  0  0  0  0  0  0  0
   10.6855    2.6518   -0.5789 C   0  0  0  0  0  0  0  0  0  0  0  0
   10.9285    3.6864    0.3237 C   0  0  0  0  0  0  0  0  0  0  0  0
   -9.7755   -4.8507    0.9805 C   0  0  0  0  0  0  0  0  0  0  0  0
   -7.5891    0.3861   -0.2972 H   0  0  0  0  0  0  0  0  0  0  0  0
    5.4536    4.1554    2.2095 H   0  0  0  0  0  0  0  0  0  0  0  0
    4.2583   -0.1626   -2.0717 H   0  0  0  0  0  0  0  0  0  0  0  0
   -2.6089   -2.5400   -2.3599 H   0  0  0  0  0  0  0  0  0  0  0  0
    2.1487    1.7146   -0.7801 H   0  0  0  0  0  0  0  0  0  0  0  0
   -2.3591   -0.1832   -0.4441 H   0  0  0  0  0  0  0  0  0  0  0  0
   -0.3178   -1.7973   -2.2113 H   0  0  0  0  0  0  0  0  0  0  0  0
   -0.1285    0.8061   -0.6167 H   0  0  0  0  0  0  0  0  0  0  0  0
    2.0105   -1.1212   -1.8994 H   0  0  0  0  0  0  0  0  0  0  0  0
   -4.0558    0.6714   -1.9367 H   0  0  0  0  0  0  0  0  0  0  0  0
   -5.7916    0.9742   -1.8053 H   0  0  0  0  0  0  0  0  0  0  0  0
    7.7292    5.0261    2.4410 H   0  0  0  0  0  0  0  0  0  0  0  0
   -9.5656   -0.8143    0.5291 H   0  0  0  0  0  0  0  0  0  0  0  0
    3.6940    2.7770    2.1995 H   0  0  0  0  0  0  0  0  0  0  0  0
    2.7601    1.6561    1.2623 H   0  0  0  0  0  0  0  0  0  0  0  0
    6.0725    0.7740   -3.1817 H   0  0  0  0  0  0  0  0  0  0  0  0
    7.6305    1.5538   -2.8272 H   0  0  0  0  0  0  0  0  0  0  0  0
    6.1178    2.5162   -2.7221 H   0  0  0  0  0  0  0  0  0  0  0  0
    6.8203   -0.4884    0.3688 H   0  0  0  0  0  0  0  0  0  0  0  0
    8.0026   -0.3758   -0.9777 H   0  0  0  0  0  0  0  0  0  0  0  0
    6.3774   -1.0395   -1.2890 H   0  0  0  0  0  0  0  0  0  0  0  0
   -5.5982   -3.4897   -2.9771 H   0  0  0  0  0  0  0  0  0  0  0  0
   -4.0753   -4.3463   -2.5336 H   0  0  0  0  0  0  0  0  0  0  0  0
   -5.6502   -5.0050   -2.0165 H   0  0  0  0  0  0  0  0  0  0  0  0
   -4.6091   -4.9412    0.4523 H   0  0  0  0  0  0  0  0  0  0  0  0
   -4.1866   -3.3356    1.1481 H   0  0  0  0  0  0  0  0  0  0  0  0
   -3.1402   -4.0958   -0.1063 H   0  0  0  0  0  0  0  0  0  0  0  0
    2.0909   -0.8283    3.2643 H   0  0  0  0  0  0  0  0  0  0  0  0
    1.8123   -0.3374    1.5537 H   0  0  0  0  0  0  0  0  0  0  0  0
   -5.2956    3.6339    1.4112 H   0  0  0  0  0  0  0  0  0  0  0  0
   -4.3462    4.7830    0.4116 H   0  0  0  0  0  0  0  0  0  0  0  0
    9.2728    1.3341   -1.4357 H   0  0  0  0  0  0  0  0  0  0  0  0
   -6.6453   -5.5171   -0.1012 H   0  0  0  0  0  0  0  0  0  0  0  0
  -10.6837   -2.9140    1.1419 H   0  0  0  0  0  0  0  0  0  0  0  0
   10.0959    5.0069    1.7920 H   0  0  0  0  0  0  0  0  0  0  0  0
   -5.6817    1.3964    0.5935 H   0  0  0  0  0  0  0  0  0  0  0  0
   -4.0485    0.7403    0.7270 H   0  0  0  0  0  0  0  0  0  0  0  0
    5.3878    0.7908    2.6363 H   0  0  0  0  0  0  0  0  0  0  0  0
    3.8570    0.8899    3.5479 H   0  0  0  0  0  0  0  0  0  0  0  0
    4.2354   -0.8630    1.0208 H   0  0  0  0  0  0  0  0  0  0  0  0
    4.4763   -1.4194    2.6999 H   0  0  0  0  0  0  0  0  0  0  0  0
   -3.8819    2.9027   -1.2522 H   0  0  0  0  0  0  0  0  0  0  0  0
   -3.1152    2.7554    0.3421 H   0  0  0  0  0  0  0  0  0  0  0  0
   -8.6312   -6.6510    0.7214 H   0  0  0  0  0  0  0  0  0  0  0  0
   11.5027    2.2440   -1.1605 H   0  0  0  0  0  0  0  0  0  0  0  0
   11.9312    4.0780    0.4369 H   0  0  0  0  0  0  0  0  0  0  0  0
  -10.6531   -5.3706    1.3470 H   0  0  0  0  0  0  0  0  0  0  0  0
  2  1  1  0
  3  5  1  0
  4  5  1  0
  5 19  2  0
  6  1  2  0
  7  6  1  0
  8  2  2  0
  9  4  1  0
 10  3  1  0
 11 40  1  0
 12 41  1  0
 13  8  1  0
 14  9  2  0
 15  2  1  0
 16 10  2  0
 17 11  1  0
 18 12  1  0
 19 25  1  0
 20  6  1  0
 21 11  2  0
 22 11  2  0
 23 12  2  0
 24 12  2  0
 25 29  2  0
 26 20  2  0
 27 26  1  0
 28 27  2  0
 29 28  1  0
 30  1  1  0
 31 14  1  0
 32 34  1  0
 33 16  1  0
 34 15  2  0
 35  3  1  0
 36  4  1  0
 37  4  1  0
 38  7  1  0
 39  7  1  0
 40 48  1  0
 41 49  1  0
 42 14  1  0
 43 13  2  0
 44 32  2  0
 45 31  1  0
 46 30  1  0
 47 35  1  0
 48 47  1  0
 49 46  1  0
 50 43  1  0
 51 42  2  0
 52 51  1  0
 53 44  1  0
  7  8  1  0
 13 32  1  0
 53 50  2  0
 10  9  1  0
 31 33  2  0
 52 45  2  0
 15 54  1  0
 16 55  1  0
 19 56  1  0
 20 57  1  0
 25 58  1  0
 26 59  1  0
 27 60  1  0
 28 61  1  0
 29 62  1  0
 30 63  1  0
 30 64  1  0
 33 65  1  0
 34 66  1  0
 35 67  1  0
 35 68  1  0
 36 69  1  0
 36 70  1  0
 36 71  1  0
 37 72  1  0
 37 73  1  0
 37 74  1  0
 38 75  1  0
 38 76  1  0
 38 77  1  0
 39 78  1  0
 39 79  1  0
 39 80  1  0
 40 81  1  0
 40 82  1  0
 41 83  1  0
 41 84  1  0
 42 85  1  0
 43 86  1  0
 44 87  1  0
 45 88  1  0
 46 89  1  0
 46 90  1  0
 47 91  1  0
 47 92  1  0
 48 93  1  0
 48 94  1  0
 49 95  1  0
 49 96  1  0
 50 97  1  0
 51 98  1  0
 52 99  1  0
 53100  1  0
M  CHG  3   1   1  17  -1  18  -1
M  END
$$$$
