
     RDKit          3D

 22 18  0  0  0  0  0  0  0  0999 V2000
    0.0000    0.0000    0.0000 Al  0  0  0  0  0 15  0  0  0  0  0  0
    0.8248    0.0811   -0.0468 C   0  0  0  0  0  0  0  0  0  0  0  0
    1.6039   -1.0794   -0.0529 O   0  0  0  0  0  0  0  0  0  0  0  0
    1.3505    1.2340   -0.1197 O   0  0  0  0  0  0  0  0  0  0  0  0
   -0.6425   -0.0515    0.0473 C   0  0  0  0  0  0  0  0  0  0  0  0
    0.8134    0.1119   -0.1358 C   0  0  0  0  0  0  0  0  0  0  0  0
    1.5988   -0.9676   -0.5750 O   0  0  0  0  0  0  0  0  0  0  0  0
    1.3022    1.2561    0.0632 O   0  0  0  0  0  0  0  0  0  0  0  0
   -0.6390   -0.0769    0.1082 C   0  0  0  0  0  0  0  0  0  0  0  0
    0.7978   -0.0764   -0.2195 C   0  0  0  0  0  0  0  0  0  0  0  0
    1.5675    1.0408    0.1160 O   0  0  0  0  0  0  0  0  0  0  0  0
    1.2901   -1.0931   -0.7756 O   0  0  0  0  0  0  0  0  0  0  0  0
   -0.6560    0.0124    0.1258 C   0  0  0  0  0  0  0  0  0  0  0  0
   -1.1163    0.9578    0.0339 H   0  0  0  0  0  0  0  0  0  0  0  0
   -0.9523   -0.5549    0.9807 H   0  0  0  0  0  0  0  0  0  0  0  0
   -1.0681   -0.5871   -0.8425 H   0  0  0  0  0  0  0  0  0  0  0  0
   -0.8909    0.4300    1.0719 H   0  0  0  0  0  0  0  0  0  0  0  0
   -1.2572    0.3896   -0.6859 H   0  0  0  0  0  0  0  0  0  0  0  0
   -0.9273   -1.1432    0.1533 H   0  0  0  0  0  0  0  0  0  0  0  0
   -1.0514    1.0290   -0.0984 H   0  0  0  0  0  0  0  0  0  0  0  0
   -0.7085   -0.1402    1.2375 H   0  0  0  0  0  0  0  0  0  0  0  0
   -1.2396   -0.7726   -0.3858 H   0  0  0  0  0  0  0  0  0  0  0  0
  3  2  1  0
  4  2  2  0
  5  2  1  0
  7  6  1  0
  8  6  2  0
  9  6  1  0
 11 10  1  0
 12 10  2  0
 13 10  1  0
  5 14  1  0
  5 15  1  0
  5 16  1  0
  9 17  1  0
  9 18  1  0
  9 19  1  0
 13 20  1  0
 13 21  1  0
 13 22  1  0
M  CHG  4   1   3   3  -1   7  -1  11  -1
M  END
$$$$
