
     RDKit          2D

 13  9  0  0  0  0  0  0  0  0999 V2000
    4.6042   -8.2500    0.0000 Al  0  0  0  0  0 15  0  0  0  0  0  0
    6.0167   -8.2292    0.0000 C   0  0  0  0  0  0  0  0  0  0  0  0
    5.4042   -7.8625    0.0000 O   0  0  0  0  0  0  0  0  0  0  0  0
    6.0000   -8.9417    0.0000 O   0  0  0  0  0  0  0  0  0  0  0  0
    6.6375   -7.8875    0.0000 C   0  0  0  0  0  0  0  0  0  0  0  0
    4.1542   -7.1000    0.0000 C   0  0  0  0  0  0  0  0  0  0  0  0
    4.1375   -7.8042    0.0000 O   0  0  0  0  0  0  0  0  0  0  0  0
    4.7792   -6.7542    0.0000 O   0  0  0  0  0  0  0  0  0  0  0  0
    3.5500   -6.7292    0.0000 C   0  0  0  0  0  0  0  0  0  0  0  0
    4.1042   -9.2750    0.0000 C   0  0  0  0  0  0  0  0  0  0  0  0
    4.7292   -8.9292    0.0000 O   0  0  0  0  0  0  0  0  0  0  0  0
    3.5042   -8.9125    0.0000 O   0  0  0  0  0  0  0  0  0  0  0  0
    4.0875   -9.9875    0.0000 C   0  0  0  0  0  0  0  0  0  0  0  0
  3  2  1  0
  4  2  2  0
  5  2  1  0
  7  6  1  0
  8  6  2  0
  9  6  1  0
 11 10  1  0
 12 10  2  0
 13 10  1  0
M  CHG  4   1   3   3  -1   7  -1  11  -1
M  END
> <chembl_id>
CHEMBL1201015

> <chembl_pref_name>
ALUMINUM ACETATE
