
     RDKit          3D

 22 18  0  0  0  0  0  0  0  0999 V2000
    0.0000    0.0000    0.0000 Al  0  0  0  0  0 15  0  0  0  0  0  0
    0.8072    0.0121   -0.0614 C   0  0  0  0  0  0  0  0  0  0  0  0
    1.4565    1.2532   -0.1734 O   0  0  0  0  0  0  0  0  0  0  0  0
    1.5314   -0.9970   -0.0823 O   0  0  0  0  0  0  0  0  0  0  0  0
   -0.6735   -0.0589    0.0740 C   0  0  0  0  0  0  0  0  0  0  0  0
    0.8378    0.1068   -0.0761 C   0  0  0  0  0  0  0  0  0  0  0  0
    1.6118   -1.0443   -0.0144 O   0  0  0  0  0  0  0  0  0  0  0  0
    1.3215    1.2570   -0.2480 O   0  0  0  0  0  0  0  0  0  0  0  0
   -0.6362   -0.0621    0.0722 C   0  0  0  0  0  0  0  0  0  0  0  0
    0.8147   -0.0458    0.0260 C   0  0  0  0  0  0  0  0  0  0  0  0
    1.4955    1.1649    0.0185 O   0  0  0  0  0  0  0  0  0  0  0  0
    1.4799   -1.0912    0.0563 O   0  0  0  0  0  0  0  0  0  0  0  0
   -0.6466   -0.0228   -0.0022 C   0  0  0  0  0  0  0  0  0  0  0  0
   -1.0097   -0.8870   -0.5725 H   0  0  0  0  0  0  0  0  0  0  0  0
   -1.1639    0.8519   -0.3115 H   0  0  0  0  0  0  0  0  0  0  0  0
   -0.9480   -0.1743    1.1272 H   0  0  0  0  0  0  0  0  0  0  0  0
   -0.9400   -0.2925    1.0938 H   0  0  0  0  0  0  0  0  0  0  0  0
   -1.0533   -0.8478   -0.5816 H   0  0  0  0  0  0  0  0  0  0  0  0
   -1.1415    0.8829   -0.2459 H   0  0  0  0  0  0  0  0  0  0  0  0
   -1.1142   -1.0097   -0.1142 H   0  0  0  0  0  0  0  0  0  0  0  0
   -0.9681    0.5675   -0.9050 H   0  0  0  0  0  0  0  0  0  0  0  0
   -1.0611    0.4373    0.9206 H   0  0  0  0  0  0  0  0  0  0  0  0
  3  2  1  0
  4  2  2  0
  5  2  1  0
  7  6  1  0
  8  6  2  0
  9  6  1  0
 11 10  1  0
 12 10  2  0
 13 10  1  0
  5 14  1  0
  5 15  1  0
  5 16  1  0
  9 17  1  0
  9 18  1  0
  9 19  1  0
 13 20  1  0
 13 21  1  0
 13 22  1  0
M  CHG  4   1   3   3  -1   7  -1  11  -1
M  END
$$$$
