
     RDKit          3D

 22 18  0  0  0  0  0  0  0  0999 V2000
    0.0000    0.0000    0.0000 Al  0  0  0  0  0 15  0  0  0  0  0  0
    0.7830   -0.0244   -0.0494 C   0  0  0  0  0  0  0  0  0  0  0  0
    1.5642    1.1482   -0.0142 O   0  0  0  0  0  0  0  0  0  0  0  0
    1.4529   -1.0963   -0.1970 O   0  0  0  0  0  0  0  0  0  0  0  0
   -0.6721   -0.0232    0.0719 C   0  0  0  0  0  0  0  0  0  0  0  0
    0.8127   -0.0079   -0.0103 C   0  0  0  0  0  0  0  0  0  0  0  0
    1.5055    1.2106    0.0054 O   0  0  0  0  0  0  0  0  0  0  0  0
    1.4403   -1.1113   -0.0356 O   0  0  0  0  0  0  0  0  0  0  0  0
   -0.6671   -0.0268    0.0026 C   0  0  0  0  0  0  0  0  0  0  0  0
    0.7970    0.1086   -0.2057 C   0  0  0  0  0  0  0  0  0  0  0  0
    1.5839   -1.0349   -0.1420 O   0  0  0  0  0  0  0  0  0  0  0  0
    1.2475    1.2418   -0.5208 O   0  0  0  0  0  0  0  0  0  0  0  0
   -0.6533   -0.0514    0.1227 C   0  0  0  0  0  0  0  0  0  0  0  0
   -1.0816   -0.8476   -0.5588 H   0  0  0  0  0  0  0  0  0  0  0  0
   -1.0629    0.9117   -0.3778 H   0  0  0  0  0  0  0  0  0  0  0  0
   -0.9836   -0.0684    1.1252 H   0  0  0  0  0  0  0  0  0  0  0  0
   -1.0591    1.0059    0.0449 H   0  0  0  0  0  0  0  0  0  0  0  0
   -1.0162   -0.5506    0.9142 H   0  0  0  0  0  0  0  0  0  0  0  0
   -1.0162   -0.5200   -0.9211 H   0  0  0  0  0  0  0  0  0  0  0  0
   -1.2233    0.8803   -0.0400 H   0  0  0  0  0  0  0  0  0  0  0  0
   -0.6895   -0.2432    1.2338 H   0  0  0  0  0  0  0  0  0  0  0  0
   -1.0623   -0.9012   -0.4479 H   0  0  0  0  0  0  0  0  0  0  0  0
  3  2  1  0
  4  2  2  0
  5  2  1  0
  7  6  1  0
  8  6  2  0
  9  6  1  0
 11 10  1  0
 12 10  2  0
 13 10  1  0
  5 14  1  0
  5 15  1  0
  5 16  1  0
  9 17  1  0
  9 18  1  0
  9 19  1  0
 13 20  1  0
 13 21  1  0
 13 22  1  0
M  CHG  4   1   3   3  -1   7  -1  11  -1
M  END
$$$$
