
     RDKit          3D

 22 18  0  0  0  0  0  0  0  0999 V2000
    0.0000    0.0000    0.0000 Al  0  0  0  0  0 15  0  0  0  0  0  0
    0.8111    0.0748   -0.1830 C   0  0  0  0  0  0  0  0  0  0  0  0
    1.6099   -1.0671   -0.0124 O   0  0  0  0  0  0  0  0  0  0  0  0
    1.3185    1.1593   -0.5840 O   0  0  0  0  0  0  0  0  0  0  0  0
   -0.6498   -0.0457    0.1268 C   0  0  0  0  0  0  0  0  0  0  0  0
    0.7930    0.0523   -0.1462 C   0  0  0  0  0  0  0  0  0  0  0  0
    1.4859   -1.1414    0.0445 O   0  0  0  0  0  0  0  0  0  0  0  0
    1.3708    1.1138   -0.5040 O   0  0  0  0  0  0  0  0  0  0  0  0
   -0.6925    0.0052    0.1000 C   0  0  0  0  0  0  0  0  0  0  0  0
    0.8101    0.1775    0.0783 C   0  0  0  0  0  0  0  0  0  0  0  0
    1.6653   -0.9401    0.0653 O   0  0  0  0  0  0  0  0  0  0  0  0
    1.2623    1.3510    0.2045 O   0  0  0  0  0  0  0  0  0  0  0  0
   -0.6657   -0.0808   -0.0643 C   0  0  0  0  0  0  0  0  0  0  0  0
   -0.8011   -0.4422    1.1543 H   0  0  0  0  0  0  0  0  0  0  0  0
   -1.1762   -0.6434   -0.6273 H   0  0  0  0  0  0  0  0  0  0  0  0
   -1.1124    0.9643    0.1256 H   0  0  0  0  0  0  0  0  0  0  0  0
   -1.1045    0.9850   -0.1633 H   0  0  0  0  0  0  0  0  0  0  0  0
   -1.0628   -0.8142   -0.5195 H   0  0  0  0  0  0  0  0  0  0  0  0
   -0.7899   -0.2006    1.1884 H   0  0  0  0  0  0  0  0  0  0  0  0
   -0.8093   -1.0273   -0.6148 H   0  0  0  0  0  0  0  0  0  0  0  0
   -1.1358   -0.2227    0.9392 H   0  0  0  0  0  0  0  0  0  0  0  0
   -1.1268    0.7425   -0.6082 H   0  0  0  0  0  0  0  0  0  0  0  0
  3  2  1  0
  4  2  2  0
  5  2  1  0
  7  6  1  0
  8  6  2  0
  9  6  1  0
 11 10  1  0
 12 10  2  0
 13 10  1  0
  5 14  1  0
  5 15  1  0
  5 16  1  0
  9 17  1  0
  9 18  1  0
  9 19  1  0
 13 20  1  0
 13 21  1  0
 13 22  1  0
M  CHG  4   1   3   3  -1   7  -1  11  -1
M  END
$$$$
