
     RDKit          3D

 22 18  0  0  0  0  0  0  0  0999 V2000
    0.0000    0.0000    0.0000 Al  0  0  0  0  0 15  0  0  0  0  0  0
    0.7934    0.1260   -0.0420 C   0  0  0  0  0  0  0  0  0  0  0  0
    1.6812   -0.9551   -0.1036 O   0  0  0  0  0  0  0  0  0  0  0  0
    1.2793    1.2871   -0.0578 O   0  0  0  0  0  0  0  0  0  0  0  0
   -0.6845   -0.0825    0.0400 C   0  0  0  0  0  0  0  0  0  0  0  0
    0.8337   -0.0179    0.0121 C   0  0  0  0  0  0  0  0  0  0  0  0
    1.5031    1.2018    0.0771 O   0  0  0  0  0  0  0  0  0  0  0  0
    1.5126   -1.0494   -0.0362 O   0  0  0  0  0  0  0  0  0  0  0  0
   -0.6672   -0.0045    0.0046 C   0  0  0  0  0  0  0  0  0  0  0  0
    0.8094    0.0663   -0.0827 C   0  0  0  0  0  0  0  0  0  0  0  0
    1.5485   -1.1132   -0.1071 O   0  0  0  0  0  0  0  0  0  0  0  0
    1.3305    1.2075   -0.1847 O   0  0  0  0  0  0  0  0  0  0  0  0
   -0.6734   -0.0384    0.0724 C   0  0  0  0  0  0  0  0  0  0  0  0
   -1.0217    0.1884    1.0423 H   0  0  0  0  0  0  0  0  0  0  0  0
   -0.8668   -1.1408   -0.1843 H   0  0  0  0  0  0  0  0  0  0  0  0
   -1.1808    0.5767   -0.6948 H   0  0  0  0  0  0  0  0  0  0  0  0
   -1.0740    0.1086    1.0215 H   0  0  0  0  0  0  0  0  0  0  0  0
   -1.0701    0.7533   -0.7136 H   0  0  0  0  0  0  0  0  0  0  0  0
   -1.0380   -0.9920   -0.3655 H   0  0  0  0  0  0  0  0  0  0  0  0
   -1.0929    0.6482   -0.6910 H   0  0  0  0  0  0  0  0  0  0  0  0
   -1.0457   -1.0465   -0.1182 H   0  0  0  0  0  0  0  0  0  0  0  0
   -0.8763    0.2762    1.1112 H   0  0  0  0  0  0  0  0  0  0  0  0
  3  2  1  0
  4  2  2  0
  5  2  1  0
  7  6  1  0
  8  6  2  0
  9  6  1  0
 11 10  1  0
 12 10  2  0
 13 10  1  0
  5 14  1  0
  5 15  1  0
  5 16  1  0
  9 17  1  0
  9 18  1  0
  9 19  1  0
 13 20  1  0
 13 21  1  0
 13 22  1  0
M  CHG  4   1   3   3  -1   7  -1  11  -1
M  END
$$$$
