
     RDKit          3D

 50 54  0  0  0  0  0  0  0  0999 V2000
   50.3537    6.6347   18.2893 C   0  0  1  0  0  0  0  0  0  0  0  0
   50.5486    8.0738   18.7364 C   0  0  0  0  0  0  0  0  0  0  0  0
   51.4177    8.5478   17.5868 C   0  0  2  0  0  0  0  0  0  0  0  0
   50.5843    8.6776   16.4305 O   0  0  0  0  0  0  0  0  0  0  0  0
   49.9533    7.4743   15.9740 C   0  0  1  0  0  0  0  0  0  0  0  0
   49.5263    6.6290   17.0828 N   0  0  0  0  0  0  0  0  0  0  0  0
   48.7173    5.5314   16.8216 C   0  0  0  0  0  0  0  0  0  0  0  0
   48.7654    7.8469   15.0761 C   0  0  0  0  0  0  0  0  0  0  0  0
   48.0649    6.6292   14.6332 N   0  0  0  0  0  0  0  0  0  0  0  0
   47.9860    5.5143   15.4864 C   0  0  0  0  0  0  0  0  0  0  0  0
   47.2803    4.4015   15.1761 C   0  0  0  0  0  0  0  0  0  0  0  0
   47.3534    6.6167   13.4424 C   0  0  0  0  0  0  0  0  0  0  0  0
   46.6170    5.5883   12.9932 C   0  0  0  0  0  0  0  0  0  0  0  0
   46.5587    4.3764   13.8543 C   0  0  0  0  0  0  0  0  0  0  0  0
   52.4738    7.4458   17.4314 C   0  0  0  0  0  0  0  0  0  0  0  0
   51.7837    6.1784   17.9633 C   0  0  0  0  0  0  0  0  0  0  0  0
   48.5745    4.6037   17.6201 O   0  0  0  0  0  0  0  0  0  0  0  0
   45.9305    3.3811   13.4918 O   0  0  0  0  0  0  0  0  0  0  0  0
   47.1640    3.2744   15.9760 O   0  0  0  0  0  0  0  0  0  0  0  0
   45.9224    5.7338   11.6824 C   0  0  0  0  0  0  0  0  0  0  0  0
   45.1858    4.6520   11.2817 N   0  0  0  0  0  0  0  0  0  0  0  0
   46.0169    6.7648   11.0216 O   0  0  0  0  0  0  0  0  0  0  0  0
   44.4966    4.5891   10.0138 C   0  0  0  0  0  0  0  0  0  0  0  0
   45.1830    3.6492    9.0688 C   0  0  0  0  0  0  0  0  0  0  0  0
   46.6613    3.2519    7.1780 C   0  0  0  0  0  0  0  0  0  0  0  0
   46.0044    4.1218    8.0428 C   0  0  0  0  0  0  0  0  0  0  0  0
   45.0405    2.2660    9.2068 C   0  0  0  0  0  0  0  0  0  0  0  0
   45.6883    1.3783    8.3542 C   0  0  0  0  0  0  0  0  0  0  0  0
   46.4956    1.8841    7.3444 C   0  0  0  0  0  0  0  0  0  0  0  0
   46.1680    5.4399    7.8670 F   0  0  0  0  0  0  0  0  0  0  0  0
   47.1243    1.0396    6.5171 F   0  0  0  0  0  0  0  0  0  0  0  0
   44.2614    1.7715   10.1795 F   0  0  0  0  0  0  0  0  0  0  0  0
   49.8991    6.0187   19.0712 H   0  0  0  0  0  0  0  0  0  0  0  0
   51.0778    8.1291   19.6938 H   0  0  0  0  0  0  0  0  0  0  0  0
   49.6016    8.6192   18.8066 H   0  0  0  0  0  0  0  0  0  0  0  0
   51.8717    9.5236   17.7820 H   0  0  0  0  0  0  0  0  0  0  0  0
   50.6796    6.9030   15.3803 H   0  0  0  0  0  0  0  0  0  0  0  0
   48.0640    8.4909   15.6224 H   0  0  0  0  0  0  0  0  0  0  0  0
   49.1288    8.4309   14.2208 H   0  0  0  0  0  0  0  0  0  0  0  0
   47.4352    7.5380   12.8659 H   0  0  0  0  0  0  0  0  0  0  0  0
   53.3528    7.6630   18.0485 H   0  0  0  0  0  0  0  0  0  0  0  0
   52.8027    7.3221   16.3948 H   0  0  0  0  0  0  0  0  0  0  0  0
   51.8188    5.3579   17.2388 H   0  0  0  0  0  0  0  0  0  0  0  0
   52.2915    5.8442   18.8758 H   0  0  0  0  0  0  0  0  0  0  0  0
   47.6360    3.4413   16.8213 H   0  0  0  0  0  0  0  0  0  0  0  0
   45.1678    3.8226   11.8789 H   0  0  0  0  0  0  0  0  0  0  0  0
   44.4053    5.5890    9.5754 H   0  0  0  0  0  0  0  0  0  0  0  0
   43.4774    4.2381   10.2133 H   0  0  0  0  0  0  0  0  0  0  0  0
   47.2942    3.6381    6.3869 H   0  0  0  0  0  0  0  0  0  0  0  0
   45.5664    0.3082    8.4791 H   0  0  0  0  0  0  0  0  0  0  0  0
  1  2  1  0
  2  3  1  0
  3  4  1  0
  4  5  1  0
  5  6  1  0
  1  6  1  0
  8  9  1  0
  9 10  1  0
  7 10  1  0
  5  8  1  0
  7  6  1  0
 12 13  2  0
 13 14  1  0
 11 14  1  0
  9 12  1  0
 11 10  2  0
  3 15  1  0
  1 16  1  0
 16 15  1  0
  7 17  2  0
 14 18  2  0
 11 19  1  0
 13 20  1  0
 20 21  1  0
 20 22  2  0
 21 23  1  0
 23 24  1  0
 25 26  2  0
 27 28  1  0
 28 29  2  0
 25 29  1  0
 26 24  1  0
 24 27  2  0
 26 30  1  0
 29 31  1  0
 27 32  1  0
  1 33  1  6
  2 34  1  0
  2 35  1  0
  3 36  1  1
  5 37  1  1
  8 38  1  0
  8 39  1  0
 12 40  1  0
 15 41  1  0
 15 42  1  0
 16 43  1  0
 16 44  1  0
 19 45  1  0
 21 46  1  0
 23 47  1  0
 23 48  1  0
 25 49  1  0
 28 50  1  0
M  END
> <Uni-Dock RESULT> 
ENERGY=   -5.977  LOWER_BOUND=    0.000  UPPER_BOUND=    0.000
INTER + INTRA:          -5.977
INTER:                  -5.977
INTRA:                   0.000
UNBOUND:                 0.000

$$$$

     RDKit          3D

 50 54  0  0  0  0  0  0  0  0999 V2000
   50.2420    6.5753   18.3508 C   0  0  1  0  0  0  0  0  0  0  0  0
   50.4268    8.0116   18.8107 C   0  0  0  0  0  0  0  0  0  0  0  0
   51.3119    8.4955   17.6775 C   0  0  2  0  0  0  0  0  0  0  0  0
   50.4956    8.6314   16.5098 O   0  0  0  0  0  0  0  0  0  0  0  0
   49.8742    7.4299   16.0356 C   0  0  1  0  0  0  0  0  0  0  0  0
   49.4326    6.5761   17.1321 N   0  0  0  0  0  0  0  0  0  0  0  0
   48.6302    5.4785   16.8513 C   0  0  0  0  0  0  0  0  0  0  0  0
   48.6991    7.8061   15.1226 C   0  0  0  0  0  0  0  0  0  0  0  0
   48.0080    6.5899   14.6610 N   0  0  0  0  0  0  0  0  0  0  0  0
   47.9189    5.4690   15.5052 C   0  0  0  0  0  0  0  0  0  0  0  0
   47.2205    4.3568   15.1767 C   0  0  0  0  0  0  0  0  0  0  0  0
   47.3145    6.5841   13.4596 C   0  0  0  0  0  0  0  0  0  0  0  0
   46.5872    5.5572   12.9924 C   0  0  0  0  0  0  0  0  0  0  0  0
   46.5188    4.3393   13.8442 C   0  0  0  0  0  0  0  0  0  0  0  0
   52.3727    7.3969   17.5303 C   0  0  0  0  0  0  0  0  0  0  0  0
   51.6777    6.1243   18.0432 C   0  0  0  0  0  0  0  0  0  0  0  0
   48.4776    4.5450   17.6412 O   0  0  0  0  0  0  0  0  0  0  0  0
   45.8984    3.3451   13.4655 O   0  0  0  0  0  0  0  0  0  0  0  0
   47.0948    3.2240   15.9671 O   0  0  0  0  0  0  0  0  0  0  0  0
   45.9119    5.7102   11.6724 C   0  0  0  0  0  0  0  0  0  0  0  0
   45.1839    4.6296   11.2533 N   0  0  0  0  0  0  0  0  0  0  0  0
   46.0139    6.7459   11.0202 O   0  0  0  0  0  0  0  0  0  0  0  0
   44.5138    4.5739    9.9748 C   0  0  0  0  0  0  0  0  0  0  0  0
   45.2164    3.6421    9.0338 C   0  0  0  0  0  0  0  0  0  0  0  0
   46.7237    3.2611    7.1626 C   0  0  0  0  0  0  0  0  0  0  0  0
   46.0520    4.1236    8.0234 C   0  0  0  0  0  0  0  0  0  0  0  0
   45.0751    2.2576    9.1601 C   0  0  0  0  0  0  0  0  0  0  0  0
   45.7375    1.3772    8.3113 C   0  0  0  0  0  0  0  0  0  0  0  0
   46.5587    1.8918    7.3171 C   0  0  0  0  0  0  0  0  0  0  0  0
   46.2151    5.4432    7.8592 F   0  0  0  0  0  0  0  0  0  0  0  0
   47.2016    1.0544    6.4936 F   0  0  0  0  0  0  0  0  0  0  0  0
   44.2826    1.7547   10.1176 F   0  0  0  0  0  0  0  0  0  0  0  0
   49.7771    5.9528   19.1216 H   0  0  0  0  0  0  0  0  0  0  0  0
   50.9416    8.0615   19.7763 H   0  0  0  0  0  0  0  0  0  0  0  0
   49.4776    8.5545   18.8704 H   0  0  0  0  0  0  0  0  0  0  0  0
   51.7607    9.4709   17.8862 H   0  0  0  0  0  0  0  0  0  0  0  0
   50.6106    6.8643   15.4490 H   0  0  0  0  0  0  0  0  0  0  0  0
   47.9881    8.4448   15.6628 H   0  0  0  0  0  0  0  0  0  0  0  0
   49.0739    8.3968   14.2769 H   0  0  0  0  0  0  0  0  0  0  0  0
   47.4027    7.5095   12.8907 H   0  0  0  0  0  0  0  0  0  0  0  0
   53.2420    7.6117   18.1620 H   0  0  0  0  0  0  0  0  0  0  0  0
   52.7174    7.2810   16.4979 H   0  0  0  0  0  0  0  0  0  0  0  0
   51.7255    5.3090   17.3137 H   0  0  0  0  0  0  0  0  0  0  0  0
   52.1726    5.7850   18.9609 H   0  0  0  0  0  0  0  0  0  0  0  0
   47.5538    3.3861   16.8205 H   0  0  0  0  0  0  0  0  0  0  0  0
   45.1588    3.7961   11.8444 H   0  0  0  0  0  0  0  0  0  0  0  0
   44.4268    5.5766    9.5420 H   0  0  0  0  0  0  0  0  0  0  0  0
   43.4925    4.2194   10.1566 H   0  0  0  0  0  0  0  0  0  0  0  0
   47.3675    3.6541    6.3837 H   0  0  0  0  0  0  0  0  0  0  0  0
   45.6162    0.3061    8.4269 H   0  0  0  0  0  0  0  0  0  0  0  0
  1  2  1  0
  2  3  1  0
  3  4  1  0
  4  5  1  0
  5  6  1  0
  1  6  1  0
  8  9  1  0
  9 10  1  0
  7 10  1  0
  5  8  1  0
  7  6  1  0
 12 13  2  0
 13 14  1  0
 11 14  1  0
  9 12  1  0
 11 10  2  0
  3 15  1  0
  1 16  1  0
 16 15  1  0
  7 17  2  0
 14 18  2  0
 11 19  1  0
 13 20  1  0
 20 21  1  0
 20 22  2  0
 21 23  1  0
 23 24  1  0
 25 26  2  0
 27 28  1  0
 28 29  2  0
 25 29  1  0
 26 24  1  0
 24 27  2  0
 26 30  1  0
 29 31  1  0
 27 32  1  0
  1 33  1  6
  2 34  1  0
  2 35  1  0
  3 36  1  1
  5 37  1  1
  8 38  1  0
  8 39  1  0
 12 40  1  0
 15 41  1  0
 15 42  1  0
 16 43  1  0
 16 44  1  0
 19 45  1  0
 21 46  1  0
 23 47  1  0
 23 48  1  0
 25 49  1  0
 28 50  1  0
M  END
> <Uni-Dock RESULT> 
ENERGY=   -5.950  LOWER_BOUND=    0.090  UPPER_BOUND=    0.090
INTER + INTRA:          -5.950
INTER:                  -5.950
INTRA:                   0.000
UNBOUND:                 0.000

$$$$

     RDKit          3D

 50 54  0  0  0  0  0  0  0  0999 V2000
   45.2236    3.3003   12.0929 C   0  0  1  0  0  0  0  0  0  0  0  0
   45.0156    3.2175   10.5900 C   0  0  0  0  0  0  0  0  0  0  0  0
   43.9710    4.3089   10.4500 C   0  0  2  0  0  0  0  0  0  0  0  0
   44.6276    5.5695   10.6175 O   0  0  0  0  0  0  0  0  0  0  0  0
   45.2530    5.7869   11.8888 C   0  0  1  0  0  0  0  0  0  0  0  0
   45.8747    4.5728   12.4043 N   0  0  0  0  0  0  0  0  0  0  0  0
   46.6974    4.6575   13.5194 C   0  0  0  0  0  0  0  0  0  0  0  0
   46.2828    6.9164   11.7484 C   0  0  0  0  0  0  0  0  0  0  0  0
   46.9796    7.1273   13.0289 N   0  0  0  0  0  0  0  0  0  0  0  0
   47.2361    6.0358   13.8774 C   0  0  0  0  0  0  0  0  0  0  0  0
   47.9508    6.1482   15.0216 C   0  0  0  0  0  0  0  0  0  0  0  0
   47.5185    8.3660   13.3445 C   0  0  0  0  0  0  0  0  0  0  0  0
   48.2397    8.6373   14.4436 C   0  0  0  0  0  0  0  0  0  0  0  0
   48.4822    7.5101   15.3839 C   0  0  0  0  0  0  0  0  0  0  0  0
   42.9645    4.0152   11.5700 C   0  0  0  0  0  0  0  0  0  0  0  0
   43.7889    3.2813   12.6411 C   0  0  0  0  0  0  0  0  0  0  0  0
   46.9994    3.6762   14.2008 O   0  0  0  0  0  0  0  0  0  0  0  0
   49.1066    7.6912   16.4298 O   0  0  0  0  0  0  0  0  0  0  0  0
   48.2375    5.1099   15.8954 O   0  0  0  0  0  0  0  0  0  0  0  0
   48.7368   10.0289   14.6389 C   0  0  0  0  0  0  0  0  0  0  0  0
   49.4677   10.2402   15.7766 N   0  0  0  0  0  0  0  0  0  0  0  0
   48.4960   10.9127   13.8207 O   0  0  0  0  0  0  0  0  0  0  0  0
   49.9766   11.5360   16.1617 C   0  0  0  0  0  0  0  0  0  0  0  0
   49.2172   12.0927   17.3283 C   0  0  0  0  0  0  0  0  0  0  0  0
   47.5143   13.5755   18.2337 C   0  0  0  0  0  0  0  0  0  0  0  0
   48.2371   13.0728   17.1562 C   0  0  0  0  0  0  0  0  0  0  0  0
   49.4518   11.6238   18.6235 C   0  0  0  0  0  0  0  0  0  0  0  0
   48.7406   12.1115   19.7148 C   0  0  0  0  0  0  0  0  0  0  0  0
   47.7749   13.0868   19.5063 C   0  0  0  0  0  0  0  0  0  0  0  0
   47.9800   13.5579   15.9341 F   0  0  0  0  0  0  0  0  0  0  0  0
   47.0838   13.5644   20.5489 F   0  0  0  0  0  0  0  0  0  0  0  0
   50.3839   10.6827   18.8315 F   0  0  0  0  0  0  0  0  0  0  0  0
   45.8150    2.4617   12.4734 H   0  0  0  0  0  0  0  0  0  0  0  0
   44.6222    2.2397   10.2919 H   0  0  0  0  0  0  0  0  0  0  0  0
   45.9324    3.4322   10.0309 H   0  0  0  0  0  0  0  0  0  0  0  0
   43.4967    4.3081    9.4644 H   0  0  0  0  0  0  0  0  0  0  0  0
   44.4831    6.0979   12.6077 H   0  0  0  0  0  0  0  0  0  0  0  0
   47.0176    6.6657   10.9721 H   0  0  0  0  0  0  0  0  0  0  0  0
   45.7733    7.8302   11.4167 H   0  0  0  0  0  0  0  0  0  0  0  0
   47.3080    9.1428   12.6097 H   0  0  0  0  0  0  0  0  0  0  0  0
   42.1692    3.3523   11.2111 H   0  0  0  0  0  0  0  0  0  0  0  0
   42.5019    4.9238   11.9683 H   0  0  0  0  0  0  0  0  0  0  0  0
   43.6978    3.7550   13.6242 H   0  0  0  0  0  0  0  0  0  0  0  0
   43.4314    2.2486   12.7301 H   0  0  0  0  0  0  0  0  0  0  0  0
   47.8791    4.2764   15.5184 H   0  0  0  0  0  0  0  0  0  0  0  0
   49.6131    9.4580   16.4184 H   0  0  0  0  0  0  0  0  0  0  0  0
   49.9522   12.2271   15.3118 H   0  0  0  0  0  0  0  0  0  0  0  0
   51.0310   11.4057   16.4317 H   0  0  0  0  0  0  0  0  0  0  0  0
   46.7578   14.3369   18.0801 H   0  0  0  0  0  0  0  0  0  0  0  0
   48.9361   11.7332   20.7119 H   0  0  0  0  0  0  0  0  0  0  0  0
  1  2  1  0
  2  3  1  0
  3  4  1  0
  4  5  1  0
  5  6  1  0
  1  6  1  0
  8  9  1  0
  9 10  1  0
  7 10  1  0
  5  8  1  0
  7  6  1  0
 12 13  2  0
 13 14  1  0
 11 14  1  0
  9 12  1  0
 11 10  2  0
  3 15  1  0
  1 16  1  0
 16 15  1  0
  7 17  2  0
 14 18  2  0
 11 19  1  0
 13 20  1  0
 20 21  1  0
 20 22  2  0
 21 23  1  0
 23 24  1  0
 25 26  2  0
 27 28  1  0
 28 29  2  0
 25 29  1  0
 26 24  1  0
 24 27  2  0
 26 30  1  0
 29 31  1  0
 27 32  1  0
  1 33  1  6
  2 34  1  0
  2 35  1  0
  3 36  1  1
  5 37  1  1
  8 38  1  0
  8 39  1  0
 12 40  1  0
 15 41  1  0
 15 42  1  0
 16 43  1  0
 16 44  1  0
 19 45  1  0
 21 46  1  0
 23 47  1  0
 23 48  1  0
 25 49  1  0
 28 50  1  0
M  END
> <Uni-Dock RESULT> 
ENERGY=   -4.734  LOWER_BOUND=    4.940  UPPER_BOUND=    9.783
INTER + INTRA:          -4.734
INTER:                  -4.734
INTRA:                   0.000
UNBOUND:                 0.000

$$$$

     RDKit          3D

 50 54  0  0  0  0  0  0  0  0999 V2000
   53.4302    7.3617   16.9416 C   0  0  1  0  0  0  0  0  0  0  0  0
   54.2524    8.6310   16.7942 C   0  0  0  0  0  0  0  0  0  0  0  0
   54.7567    8.4061   15.3811 C   0  0  2  0  0  0  0  0  0  0  0  0
   53.6625    8.6226   14.4844 O   0  0  0  0  0  0  0  0  0  0  0  0
   52.5389    7.7468   14.6431 C   0  0  1  0  0  0  0  0  0  0  0  0
   52.2768    7.4463   16.0457 N   0  0  0  0  0  0  0  0  0  0  0  0
   51.1049    6.7842   16.3861 C   0  0  0  0  0  0  0  0  0  0  0  0
   51.3127    8.3876   13.9785 C   0  0  0  0  0  0  0  0  0  0  0  0
   50.1287    7.5328   14.1711 N   0  0  0  0  0  0  0  0  0  0  0  0
   49.9848    6.7879   15.3549 C   0  0  0  0  0  0  0  0  0  0  0  0
   48.8798    6.0565   15.6318 C   0  0  0  0  0  0  0  0  0  0  0  0
   49.0792    7.5643   13.2644 C   0  0  0  0  0  0  0  0  0  0  0  0
   47.9266    6.8886   13.3930 C   0  0  0  0  0  0  0  0  0  0  0  0
   47.7703    6.0520   14.6133 C   0  0  0  0  0  0  0  0  0  0  0  0
   55.2410    6.9503   15.3794 C   0  0  0  0  0  0  0  0  0  0  0  0
   54.3989    6.2669   16.4700 C   0  0  0  0  0  0  0  0  0  0  0  0
   50.9500    6.2180   17.4696 O   0  0  0  0  0  0  0  0  0  0  0  0
   46.7541    5.3774   14.7834 O   0  0  0  0  0  0  0  0  0  0  0  0
   48.6802    5.3053   16.7806 O   0  0  0  0  0  0  0  0  0  0  0  0
   46.9028    7.0235   12.3181 C   0  0  0  0  0  0  0  0  0  0  0  0
   45.7491    6.3122   12.5095 N   0  0  0  0  0  0  0  0  0  0  0  0
   47.1005    7.7317   11.3344 O   0  0  0  0  0  0  0  0  0  0  0  0
   44.6741    6.2727   11.5455 C   0  0  0  0  0  0  0  0  0  0  0  0
   44.6094    4.9418   10.8586 C   0  0  0  0  0  0  0  0  0  0  0  0
   45.0786    3.5251    8.9373 C   0  0  0  0  0  0  0  0  0  0  0  0
   45.1162    4.7642    9.5693 C   0  0  0  0  0  0  0  0  0  0  0  0
   44.0618    3.8299   11.5041 C   0  0  0  0  0  0  0  0  0  0  0  0
   44.0146    2.5821   10.8916 C   0  0  0  0  0  0  0  0  0  0  0  0
   44.5264    2.4432    9.6086 C   0  0  0  0  0  0  0  0  0  0  0  0
   45.6462    5.8016    8.9075 F   0  0  0  0  0  0  0  0  0  0  0  0
   44.4865    1.2470    9.0083 F   0  0  0  0  0  0  0  0  0  0  0  0
   43.5651    3.9579   12.7429 F   0  0  0  0  0  0  0  0  0  0  0  0
   53.1052    7.1994   17.9739 H   0  0  0  0  0  0  0  0  0  0  0  0
   55.0745    8.6638   17.5173 H   0  0  0  0  0  0  0  0  0  0  0  0
   53.6418    9.5352   16.8889 H   0  0  0  0  0  0  0  0  0  0  0  0
   55.5550    9.1021   15.1075 H   0  0  0  0  0  0  0  0  0  0  0  0
   52.7611    6.7986   14.1353 H   0  0  0  0  0  0  0  0  0  0  0  0
   51.1200    9.3777   14.4119 H   0  0  0  0  0  0  0  0  0  0  0  0
   51.5212    8.5454   12.9125 H   0  0  0  0  0  0  0  0  0  0  0  0
   49.2586    8.2015   12.3986 H   0  0  0  0  0  0  0  0  0  0  0  0
   56.3001    6.8948   15.6548 H   0  0  0  0  0  0  0  0  0  0  0  0
   55.1123    6.4657   14.4064 H   0  0  0  0  0  0  0  0  0  0  0  0
   53.8886    5.3738   16.0943 H   0  0  0  0  0  0  0  0  0  0  0  0
   55.0530    5.9596   17.2946 H   0  0  0  0  0  0  0  0  0  0  0  0
   49.4506    5.4350   17.3764 H   0  0  0  0  0  0  0  0  0  0  0  0
   45.6640    5.7319   13.3467 H   0  0  0  0  0  0  0  0  0  0  0  0
   44.7797    7.0851   10.8180 H   0  0  0  0  0  0  0  0  0  0  0  0
   43.7405    6.4566   12.0899 H   0  0  0  0  0  0  0  0  0  0  0  0
   45.4765    3.4074    7.9356 H   0  0  0  0  0  0  0  0  0  0  0  0
   43.5874    1.7311   11.4101 H   0  0  0  0  0  0  0  0  0  0  0  0
  1  2  1  0
  2  3  1  0
  3  4  1  0
  4  5  1  0
  5  6  1  0
  1  6  1  0
  8  9  1  0
  9 10  1  0
  7 10  1  0
  5  8  1  0
  7  6  1  0
 12 13  2  0
 13 14  1  0
 11 14  1  0
  9 12  1  0
 11 10  2  0
  3 15  1  0
  1 16  1  0
 16 15  1  0
  7 17  2  0
 14 18  2  0
 11 19  1  0
 13 20  1  0
 20 21  1  0
 20 22  2  0
 21 23  1  0
 23 24  1  0
 25 26  2  0
 27 28  1  0
 28 29  2  0
 25 29  1  0
 26 24  1  0
 24 27  2  0
 26 30  1  0
 29 31  1  0
 27 32  1  0
  1 33  1  6
  2 34  1  0
  2 35  1  0
  3 36  1  1
  5 37  1  1
  8 38  1  0
  8 39  1  0
 12 40  1  0
 15 41  1  0
 15 42  1  0
 16 43  1  0
 16 44  1  0
 19 45  1  0
 21 46  1  0
 23 47  1  0
 23 48  1  0
 25 49  1  0
 28 50  1  0
M  END
> <Uni-Dock RESULT> 
ENERGY=   -4.720  LOWER_BOUND=    2.051  UPPER_BOUND=    2.787
INTER + INTRA:          -4.720
INTER:                  -4.720
INTRA:                   0.000
UNBOUND:                 0.000

$$$$

     RDKit          3D

 50 54  0  0  0  0  0  0  0  0999 V2000
   43.8080    5.2820   11.0782 C   0  0  1  0  0  0  0  0  0  0  0  0
   42.8219    4.2965   11.6823 C   0  0  0  0  0  0  0  0  0  0  0  0
   43.7010    3.0603   11.6595 C   0  0  2  0  0  0  0  0  0  0  0  0
   44.6870    3.2033   12.6870 O   0  0  0  0  0  0  0  0  0  0  0  0
   45.5766    4.3191   12.5515 C   0  0  1  0  0  0  0  0  0  0  0  0
   44.8948    5.4992   12.0332 N   0  0  0  0  0  0  0  0  0  0  0  0
   45.5591    6.7183   12.0374 C   0  0  0  0  0  0  0  0  0  0  0  0
   46.2202    4.6087   13.9145 C   0  0  0  0  0  0  0  0  0  0  0  0
   47.1016    5.7849   13.8177 N   0  0  0  0  0  0  0  0  0  0  0  0
   46.7704    6.8418   12.9515 C   0  0  0  0  0  0  0  0  0  0  0  0
   47.4880    7.9877   12.8843 C   0  0  0  0  0  0  0  0  0  0  0  0
   48.1794    5.9331   14.6784 C   0  0  0  0  0  0  0  0  0  0  0  0
   48.9893    7.0025   14.7253 C   0  0  0  0  0  0  0  0  0  0  0  0
   48.6905    8.1139   13.7824 C   0  0  0  0  0  0  0  0  0  0  0  0
   44.3124    3.0567   10.2523 C   0  0  0  0  0  0  0  0  0  0  0  0
   44.3228    4.5376    9.8372 C   0  0  0  0  0  0  0  0  0  0  0  0
   45.2008    7.6748   11.3481 O   0  0  0  0  0  0  0  0  0  0  0  0
   49.4101    9.1127   13.7445 O   0  0  0  0  0  0  0  0  0  0  0  0
   47.2097    9.0629   12.0535 O   0  0  0  0  0  0  0  0  0  0  0  0
   50.1133    6.9974   15.7042 C   0  0  0  0  0  0  0  0  0  0  0  0
   50.9004    8.1172   15.7047 N   0  0  0  0  0  0  0  0  0  0  0  0
   50.3029    6.0421   16.4525 O   0  0  0  0  0  0  0  0  0  0  0  0
   52.0696    8.2629   16.5404 C   0  0  0  0  0  0  0  0  0  0  0  0
   53.3291    8.1725   15.7323 C   0  0  0  0  0  0  0  0  0  0  0  0
   55.2520    6.9093   14.9416 C   0  0  0  0  0  0  0  0  0  0  0  0
   54.0947    7.0046   15.7083 C   0  0  0  0  0  0  0  0  0  0  0  0
   53.7589    9.2515   14.9552 C   0  0  0  0  0  0  0  0  0  0  0  0
   54.9119    9.1779   14.1809 C   0  0  0  0  0  0  0  0  0  0  0  0
   55.6490    8.0015   14.1828 C   0  0  0  0  0  0  0  0  0  0  0  0
   53.7263    5.9452   16.4410 F   0  0  0  0  0  0  0  0  0  0  0  0
   56.7610    7.9186   13.4417 F   0  0  0  0  0  0  0  0  0  0  0  0
   53.0518   10.3907   14.9500 F   0  0  0  0  0  0  0  0  0  0  0  0
   43.3318    6.2313   10.8140 H   0  0  0  0  0  0  0  0  0  0  0  0
   41.9360    4.1753   11.0496 H   0  0  0  0  0  0  0  0  0  0  0  0
   42.5158    4.5820   12.6943 H   0  0  0  0  0  0  0  0  0  0  0  0
   43.1382    2.1445   11.8623 H   0  0  0  0  0  0  0  0  0  0  0  0
   46.3668    4.0506   11.8374 H   0  0  0  0  0  0  0  0  0  0  0  0
   45.4445    4.7973   14.6682 H   0  0  0  0  0  0  0  0  0  0  0  0
   46.7744    3.7218   14.2478 H   0  0  0  0  0  0  0  0  0  0  0  0
   48.3360    5.0853   15.3450 H   0  0  0  0  0  0  0  0  0  0  0  0
   43.6802    2.4925    9.5575 H   0  0  0  0  0  0  0  0  0  0  0  0
   45.3177    2.6242   10.2320 H   0  0  0  0  0  0  0  0  0  0  0  0
   45.3177    4.8672    9.5198 H   0  0  0  0  0  0  0  0  0  0  0  0
   43.6350    4.6837    8.9959 H   0  0  0  0  0  0  0  0  0  0  0  0
   46.3799    8.8721   11.5632 H   0  0  0  0  0  0  0  0  0  0  0  0
   50.6892    8.8654   15.0410 H   0  0  0  0  0  0  0  0  0  0  0  0
   52.0641    7.5172   17.3431 H   0  0  0  0  0  0  0  0  0  0  0  0
   52.0061    9.2454   17.0224 H   0  0  0  0  0  0  0  0  0  0  0  0
   55.8335    5.9943   14.9366 H   0  0  0  0  0  0  0  0  0  0  0  0
   55.2276   10.0256   13.5832 H   0  0  0  0  0  0  0  0  0  0  0  0
  1  2  1  0
  2  3  1  0
  3  4  1  0
  4  5  1  0
  5  6  1  0
  1  6  1  0
  8  9  1  0
  9 10  1  0
  7 10  1  0
  5  8  1  0
  7  6  1  0
 12 13  2  0
 13 14  1  0
 11 14  1  0
  9 12  1  0
 11 10  2  0
  3 15  1  0
  1 16  1  0
 16 15  1  0
  7 17  2  0
 14 18  2  0
 11 19  1  0
 13 20  1  0
 20 21  1  0
 20 22  2  0
 21 23  1  0
 23 24  1  0
 25 26  2  0
 27 28  1  0
 28 29  2  0
 25 29  1  0
 26 24  1  0
 24 27  2  0
 26 30  1  0
 29 31  1  0
 27 32  1  0
  1 33  1  6
  2 34  1  0
  2 35  1  0
  3 36  1  1
  5 37  1  1
  8 38  1  0
  8 39  1  0
 12 40  1  0
 15 41  1  0
 15 42  1  0
 16 43  1  0
 16 44  1  0
 19 45  1  0
 21 46  1  0
 23 47  1  0
 23 48  1  0
 25 49  1  0
 28 50  1  0
M  END
> <Uni-Dock RESULT> 
ENERGY=   -4.556  LOWER_BOUND=    4.196  UPPER_BOUND=    9.211
INTER + INTRA:          -4.556
INTER:                  -4.556
INTRA:                   0.000
UNBOUND:                 0.000

$$$$

     RDKit          3D

 50 54  0  0  0  0  0  0  0  0999 V2000
   43.2761    9.5420   10.2602 C   0  0  1  0  0  0  0  0  0  0  0  0
   43.5835   10.7961    9.4592 C   0  0  0  0  0  0  0  0  0  0  0  0
   43.5523   11.7994   10.5967 C   0  0  2  0  0  0  0  0  0  0  0  0
   44.7372   11.6150   11.3779 O   0  0  0  0  0  0  0  0  0  0  0  0
   44.8888   10.3295   11.9936 C   0  0  1  0  0  0  0  0  0  0  0  0
   44.4159    9.2534   11.1307 N   0  0  0  0  0  0  0  0  0  0  0  0
   44.6800    7.9378   11.4869 C   0  0  0  0  0  0  0  0  0  0  0  0
   46.3641   10.1288   12.3664 C   0  0  0  0  0  0  0  0  0  0  0  0
   46.5597    8.7928   12.9551 N   0  0  0  0  0  0  0  0  0  0  0  0
   45.7885    7.7068   12.5047 C   0  0  0  0  0  0  0  0  0  0  0  0
   45.9824    6.4392   12.9387 C   0  0  0  0  0  0  0  0  0  0  0  0
   47.5971    8.5578   13.8455 C   0  0  0  0  0  0  0  0  0  0  0  0
   47.9083    7.3626   14.3711 C   0  0  0  0  0  0  0  0  0  0  0  0
   47.0742    6.2050   13.9494 C   0  0  0  0  0  0  0  0  0  0  0  0
   42.2750   11.4521   11.3726 C   0  0  0  0  0  0  0  0  0  0  0  0
   42.0538    9.9560   11.0932 C   0  0  0  0  0  0  0  0  0  0  0  0
   44.0651    6.9821   11.0103 O   0  0  0  0  0  0  0  0  0  0  0  0
   47.2788    5.0837   14.4157 O   0  0  0  0  0  0  0  0  0  0  0  0
   45.2569    5.3299   12.5302 O   0  0  0  0  0  0  0  0  0  0  0  0
   49.0500    7.2844   15.3261 C   0  0  0  0  0  0  0  0  0  0  0  0
   49.3184    6.0380   15.8242 N   0  0  0  0  0  0  0  0  0  0  0  0
   49.6951    8.2837   15.6320 O   0  0  0  0  0  0  0  0  0  0  0  0
   50.3459    5.7822   16.8066 C   0  0  0  0  0  0  0  0  0  0  0  0
   49.7505    5.4761   18.1479 C   0  0  0  0  0  0  0  0  0  0  0  0
   49.1356    6.1642   20.3989 C   0  0  0  0  0  0  0  0  0  0  0  0
   49.7079    6.4374   19.1604 C   0  0  0  0  0  0  0  0  0  0  0  0
   49.1942    4.2222   18.4140 C   0  0  0  0  0  0  0  0  0  0  0  0
   48.6164    3.9277   19.6444 C   0  0  0  0  0  0  0  0  0  0  0  0
   48.5935    4.9073   20.6278 C   0  0  0  0  0  0  0  0  0  0  0  0
   50.2333    7.6526   18.9549 F   0  0  0  0  0  0  0  0  0  0  0  0
   48.0403    4.6358   21.8166 F   0  0  0  0  0  0  0  0  0  0  0  0
   49.2142    3.2717   17.4685 F   0  0  0  0  0  0  0  0  0  0  0  0
   43.0570    8.6852    9.6155 H   0  0  0  0  0  0  0  0  0  0  0  0
   42.8040   11.0004    8.7174 H   0  0  0  0  0  0  0  0  0  0  0  0
   44.5590   10.7446    8.9643 H   0  0  0  0  0  0  0  0  0  0  0  0
   43.5450   12.8336   10.2406 H   0  0  0  0  0  0  0  0  0  0  0  0
   44.2863   10.3092   12.9118 H   0  0  0  0  0  0  0  0  0  0  0  0
   46.9978   10.2294   11.4756 H   0  0  0  0  0  0  0  0  0  0  0  0
   46.6713   10.9199   13.0626 H   0  0  0  0  0  0  0  0  0  0  0  0
   48.1702    9.4477   14.1055 H   0  0  0  0  0  0  0  0  0  0  0  0
   41.4214   12.0204   10.9863 H   0  0  0  0  0  0  0  0  0  0  0  0
   42.3664   11.6539   12.4445 H   0  0  0  0  0  0  0  0  0  0  0  0
   41.9472    9.3779   12.0171 H   0  0  0  0  0  0  0  0  0  0  0  0
   41.1358    9.8278   10.5075 H   0  0  0  0  0  0  0  0  0  0  0  0
   44.6173    5.6120   11.8398 H   0  0  0  0  0  0  0  0  0  0  0  0
   48.7269    5.2563   15.5344 H   0  0  0  0  0  0  0  0  0  0  0  0
   51.0383    6.6291   16.8686 H   0  0  0  0  0  0  0  0  0  0  0  0
   50.9290    4.9237   16.4533 H   0  0  0  0  0  0  0  0  0  0  0  0
   49.1128    6.9234   21.1727 H   0  0  0  0  0  0  0  0  0  0  0  0
   48.1882    2.9492   19.8304 H   0  0  0  0  0  0  0  0  0  0  0  0
  1  2  1  0
  2  3  1  0
  3  4  1  0
  4  5  1  0
  5  6  1  0
  1  6  1  0
  8  9  1  0
  9 10  1  0
  7 10  1  0
  5  8  1  0
  7  6  1  0
 12 13  2  0
 13 14  1  0
 11 14  1  0
  9 12  1  0
 11 10  2  0
  3 15  1  0
  1 16  1  0
 16 15  1  0
  7 17  2  0
 14 18  2  0
 11 19  1  0
 13 20  1  0
 20 21  1  0
 20 22  2  0
 21 23  1  0
 23 24  1  0
 25 26  2  0
 27 28  1  0
 28 29  2  0
 25 29  1  0
 26 24  1  0
 24 27  2  0
 26 30  1  0
 29 31  1  0
 27 32  1  0
  1 33  1  6
  2 34  1  0
  2 35  1  0
  3 36  1  1
  5 37  1  1
  8 38  1  0
  8 39  1  0
 12 40  1  0
 15 41  1  0
 15 42  1  0
 16 43  1  0
 16 44  1  0
 19 45  1  0
 21 46  1  0
 23 47  1  0
 23 48  1  0
 25 49  1  0
 28 50  1  0
M  END
> <Uni-Dock RESULT> 
ENERGY=   -4.285  LOWER_BOUND=    4.783  UPPER_BOUND=    9.076
INTER + INTRA:          -4.285
INTER:                  -4.285
INTRA:                   0.000
UNBOUND:                 0.000

$$$$

     RDKit          3D

 50 54  0  0  0  0  0  0  0  0999 V2000
   42.3993   11.8261    9.5439 C   0  0  1  0  0  0  0  0  0  0  0  0
   42.8719   13.0416    8.7640 C   0  0  0  0  0  0  0  0  0  0  0  0
   43.0960   13.9822    9.9331 C   0  0  2  0  0  0  0  0  0  0  0  0
   44.2782   13.5570   10.6186 O   0  0  0  0  0  0  0  0  0  0  0  0
   44.2383   12.2384   11.1791 C   0  0  1  0  0  0  0  0  0  0  0  0
   43.5245   11.3024   10.3184 N   0  0  0  0  0  0  0  0  0  0  0  0
   43.5724    9.9461   10.6109 C   0  0  0  0  0  0  0  0  0  0  0  0
   45.6755   11.7647   11.4358 C   0  0  0  0  0  0  0  0  0  0  0  0
   45.6679   10.3898   11.9643 N   0  0  0  0  0  0  0  0  0  0  0  0
   44.6870    9.4779   11.5364 C   0  0  0  0  0  0  0  0  0  0  0  0
   44.6798    8.1776   11.9132 C   0  0  0  0  0  0  0  0  0  0  0  0
   46.7036    9.9359   12.7680 C   0  0  0  0  0  0  0  0  0  0  0  0
   46.8305    8.6820   13.2298 C   0  0  0  0  0  0  0  0  0  0  0  0
   45.7769    7.7095   12.8327 C   0  0  0  0  0  0  0  0  0  0  0  0
   41.8317   13.8301   10.7888 C   0  0  0  0  0  0  0  0  0  0  0  0
   41.3287   12.4105   10.4775 C   0  0  0  0  0  0  0  0  0  0  0  0
   42.7665    9.1360   10.1496 O   0  0  0  0  0  0  0  0  0  0  0  0
   45.8084    6.5497   13.2457 O   0  0  0  0  0  0  0  0  0  0  0  0
   43.7422    7.2329   11.5229 O   0  0  0  0  0  0  0  0  0  0  0  0
   48.0008    8.3610   14.0953 C   0  0  0  0  0  0  0  0  0  0  0  0
   48.0747    7.0656   14.5312 N   0  0  0  0  0  0  0  0  0  0  0  0
   48.8329    9.2165   14.3856 O   0  0  0  0  0  0  0  0  0  0  0  0
   49.1030    6.5888   15.4265 C   0  0  0  0  0  0  0  0  0  0  0  0
   48.5529    6.3318   16.7972 C   0  0  0  0  0  0  0  0  0  0  0  0
   48.2218    7.0146   19.1086 C   0  0  0  0  0  0  0  0  0  0  0  0
   48.7501    7.2386   17.8410 C   0  0  0  0  0  0  0  0  0  0  0  0
   47.8005    5.1845   17.0621 C   0  0  0  0  0  0  0  0  0  0  0  0
   47.2625    4.9408   18.3213 C   0  0  0  0  0  0  0  0  0  0  0  0
   47.4803    5.8635   19.3354 C   0  0  0  0  0  0  0  0  0  0  0  0
   49.4693    8.3506   17.6375 F   0  0  0  0  0  0  0  0  0  0  0  0
   46.9677    5.6399   20.5520 F   0  0  0  0  0  0  0  0  0  0  0  0
   47.5875    4.2891   16.0870 F   0  0  0  0  0  0  0  0  0  0  0  0
   41.9884   11.0513    8.8893 H   0  0  0  0  0  0  0  0  0  0  0  0
   42.0938   13.4132    8.0885 H   0  0  0  0  0  0  0  0  0  0  0  0
   43.7874   12.8418    8.1974 H   0  0  0  0  0  0  0  0  0  0  0  0
   43.2500   15.0166    9.6125 H   0  0  0  0  0  0  0  0  0  0  0  0
   43.7042   12.2828   12.1378 H   0  0  0  0  0  0  0  0  0  0  0  0
   46.2564   11.7925   10.5045 H   0  0  0  0  0  0  0  0  0  0  0  0
   46.1646   12.4570   12.1330 H   0  0  0  0  0  0  0  0  0  0  0  0
   47.4424   10.6984   13.0142 H   0  0  0  0  0  0  0  0  0  0  0  0
   41.0696   14.5566   10.4852 H   0  0  0  0  0  0  0  0  0  0  0  0
   42.0287   13.9639   11.8572 H   0  0  0  0  0  0  0  0  0  0  0  0
   41.1822   11.8189   11.3874 H   0  0  0  0  0  0  0  0  0  0  0  0
   40.3657   12.4724    9.9570 H   0  0  0  0  0  0  0  0  0  0  0  0
   43.1189    7.6540   10.8909 H   0  0  0  0  0  0  0  0  0  0  0  0
   47.3351    6.4141   14.2601 H   0  0  0  0  0  0  0  0  0  0  0  0
   49.9381    7.2971   15.4653 H   0  0  0  0  0  0  0  0  0  0  0  0
   49.4985    5.6581   15.0034 H   0  0  0  0  0  0  0  0  0  0  0  0
   48.3865    7.7301   19.9064 H   0  0  0  0  0  0  0  0  0  0  0  0
   46.6797    4.0454   18.5061 H   0  0  0  0  0  0  0  0  0  0  0  0
  1  2  1  0
  2  3  1  0
  3  4  1  0
  4  5  1  0
  5  6  1  0
  1  6  1  0
  8  9  1  0
  9 10  1  0
  7 10  1  0
  5  8  1  0
  7  6  1  0
 12 13  2  0
 13 14  1  0
 11 14  1  0
  9 12  1  0
 11 10  2  0
  3 15  1  0
  1 16  1  0
 16 15  1  0
  7 17  2  0
 14 18  2  0
 11 19  1  0
 13 20  1  0
 20 21  1  0
 20 22  2  0
 21 23  1  0
 23 24  1  0
 25 26  2  0
 27 28  1  0
 28 29  2  0
 25 29  1  0
 26 24  1  0
 24 27  2  0
 26 30  1  0
 29 31  1  0
 27 32  1  0
  1 33  1  6
  2 34  1  0
  2 35  1  0
  3 36  1  1
  5 37  1  1
  8 38  1  0
  8 39  1  0
 12 40  1  0
 15 41  1  0
 15 42  1  0
 16 43  1  0
 16 44  1  0
 19 45  1  0
 21 46  1  0
 23 47  1  0
 23 48  1  0
 25 49  1  0
 28 50  1  0
M  END
> <Uni-Dock RESULT> 
ENERGY=   -4.122  LOWER_BOUND=    5.547  UPPER_BOUND=    9.395
INTER + INTRA:          -4.122
INTER:                  -4.122
INTRA:                   0.000
UNBOUND:                 0.000

$$$$

     RDKit          3D

 50 54  0  0  0  0  0  0  0  0999 V2000
   49.4364   10.7254   22.3338 C   0  0  1  0  0  0  0  0  0  0  0  0
   50.4963   10.1842   23.2785 C   0  0  0  0  0  0  0  0  0  0  0  0
   49.8088    8.8881   23.6645 C   0  0  2  0  0  0  0  0  0  0  0  0
   49.8871    7.9990   22.5457 O   0  0  0  0  0  0  0  0  0  0  0  0
   49.2409    8.4427   21.3456 C   0  0  1  0  0  0  0  0  0  0  0  0
   49.3972    9.8781   21.1419 N   0  0  0  0  0  0  0  0  0  0  0  0
   49.0125   10.4330   19.9288 C   0  0  0  0  0  0  0  0  0  0  0  0
   49.8057    7.6528   20.1569 C   0  0  0  0  0  0  0  0  0  0  0  0
   49.1966    8.1243   18.9014 N   0  0  0  0  0  0  0  0  0  0  0  0
   48.8531    9.4796   18.7526 C   0  0  0  0  0  0  0  0  0  0  0  0
   48.3760    9.9926   17.5942 C   0  0  0  0  0  0  0  0  0  0  0  0
   49.0911    7.2794   17.8062 C   0  0  0  0  0  0  0  0  0  0  0  0
   48.6295    7.6357   16.5972 C   0  0  0  0  0  0  0  0  0  0  0  0
   48.2111    9.0534   16.4284 C   0  0  0  0  0  0  0  0  0  0  0  0
   48.3678    9.3053   23.9860 C   0  0  0  0  0  0  0  0  0  0  0  0
   48.1412   10.5732   23.1454 C   0  0  0  0  0  0  0  0  0  0  0  0
   48.8106   11.6398   19.7822 O   0  0  0  0  0  0  0  0  0  0  0  0
   47.7457    9.4451   15.3575 O   0  0  0  0  0  0  0  0  0  0  0  0
   48.0230   11.3179   17.3872 O   0  0  0  0  0  0  0  0  0  0  0  0
   48.5698    6.5988   15.5280 C   0  0  0  0  0  0  0  0  0  0  0  0
   48.0928    7.0256   14.3182 N   0  0  0  0  0  0  0  0  0  0  0  0
   48.9303    5.4439   15.7390 O   0  0  0  0  0  0  0  0  0  0  0  0
   47.9064    6.1479   13.1862 C   0  0  0  0  0  0  0  0  0  0  0  0
   46.4515    5.8897   12.9332 C   0  0  0  0  0  0  0  0  0  0  0  0
   44.4896    4.4636   13.1221 C   0  0  0  0  0  0  0  0  0  0  0  0
   45.8447    4.6975   13.3347 C   0  0  0  0  0  0  0  0  0  0  0  0
   45.6524    6.8516   12.3097 C   0  0  0  0  0  0  0  0  0  0  0  0
   44.2959    6.6393   12.0879 C   0  0  0  0  0  0  0  0  0  0  0  0
   43.7270    5.4415   12.4989 C   0  0  0  0  0  0  0  0  0  0  0  0
   46.5705    3.7426   13.9317 F   0  0  0  0  0  0  0  0  0  0  0  0
   42.4222    5.2252   12.2907 F   0  0  0  0  0  0  0  0  0  0  0  0
   46.1963    8.0100   11.9096 F   0  0  0  0  0  0  0  0  0  0  0  0
   49.6235   11.7682   22.0593 H   0  0  0  0  0  0  0  0  0  0  0  0
   50.6372   10.8412   24.1435 H   0  0  0  0  0  0  0  0  0  0  0  0
   51.4567   10.0232   22.7775 H   0  0  0  0  0  0  0  0  0  0  0  0
   50.2910    8.3974   24.5149 H   0  0  0  0  0  0  0  0  0  0  0  0
   48.1660    8.2335   21.4304 H   0  0  0  0  0  0  0  0  0  0  0  0
   50.8950    7.7777   20.1013 H   0  0  0  0  0  0  0  0  0  0  0  0
   49.6188    6.5826   20.3133 H   0  0  0  0  0  0  0  0  0  0  0  0
   49.4210    6.2586   17.9986 H   0  0  0  0  0  0  0  0  0  0  0  0
   48.2652    9.5545   25.0481 H   0  0  0  0  0  0  0  0  0  0  0  0
   47.6401    8.5243   23.7437 H   0  0  0  0  0  0  0  0  0  0  0  0
   47.2472   10.4945   22.5178 H   0  0  0  0  0  0  0  0  0  0  0  0
   48.0097   11.4329   23.8131 H   0  0  0  0  0  0  0  0  0  0  0  0
   48.2250   11.8261   18.2034 H   0  0  0  0  0  0  0  0  0  0  0  0
   47.7970    7.9995   14.2235 H   0  0  0  0  0  0  0  0  0  0  0  0
   48.4518    5.2091   13.3333 H   0  0  0  0  0  0  0  0  0  0  0  0
   48.3544    6.6394   12.3147 H   0  0  0  0  0  0  0  0  0  0  0  0
   44.0368    3.5312   13.4403 H   0  0  0  0  0  0  0  0  0  0  0  0
   43.6925    7.3991   11.6041 H   0  0  0  0  0  0  0  0  0  0  0  0
  1  2  1  0
  2  3  1  0
  3  4  1  0
  4  5  1  0
  5  6  1  0
  1  6  1  0
  8  9  1  0
  9 10  1  0
  7 10  1  0
  5  8  1  0
  7  6  1  0
 12 13  2  0
 13 14  1  0
 11 14  1  0
  9 12  1  0
 11 10  2  0
  3 15  1  0
  1 16  1  0
 16 15  1  0
  7 17  2  0
 14 18  2  0
 11 19  1  0
 13 20  1  0
 20 21  1  0
 20 22  2  0
 21 23  1  0
 23 24  1  0
 25 26  2  0
 27 28  1  0
 28 29  2  0
 25 29  1  0
 26 24  1  0
 24 27  2  0
 26 30  1  0
 29 31  1  0
 27 32  1  0
  1 33  1  6
  2 34  1  0
  2 35  1  0
  3 36  1  1
  5 37  1  1
  8 38  1  0
  8 39  1  0
 12 40  1  0
 15 41  1  0
 15 42  1  0
 16 43  1  0
 16 44  1  0
 19 45  1  0
 21 46  1  0
 23 47  1  0
 23 48  1  0
 25 49  1  0
 28 50  1  0
M  END
> <Uni-Dock RESULT> 
ENERGY=   -4.075  LOWER_BOUND=    3.715  UPPER_BOUND=    6.070
INTER + INTRA:          -4.075
INTER:                  -4.075
INTRA:                   0.000
UNBOUND:                 0.000

$$$$
