
     RDKit          3D

 50 54  0  0  0  0  0  0  0  0999 V2000
   40.4628   16.0348    9.9662 C   0  0  1  0  0  0  0  0  0  0  0  0
   41.2770   17.2561    9.5748 C   0  0  0  0  0  0  0  0  0  0  0  0
   41.9065   17.5447   10.9242 C   0  0  2  0  0  0  0  0  0  0  0  0
   42.9076   16.5504   11.1641 O   0  0  0  0  0  0  0  0  0  0  0  0
   42.4440   15.1958   11.2291 C   0  0  1  0  0  0  0  0  0  0  0  0
   41.3829   14.9370   10.2637 N   0  0  0  0  0  0  0  0  0  0  0  0
   40.9683   13.6294   10.0513 C   0  0  0  0  0  0  0  0  0  0  0  0
   43.6346   14.2532   11.0059 C   0  0  0  0  0  0  0  0  0  0  0  0
   43.1800   12.8520   11.0119 N   0  0  0  0  0  0  0  0  0  0  0  0
   41.9102   12.5233   10.5060 C   0  0  0  0  0  0  0  0  0  0  0  0
   41.4702   11.2473   10.4000 C   0  0  0  0  0  0  0  0  0  0  0  0
   44.0454   11.8298   11.3732 C   0  0  0  0  0  0  0  0  0  0  0  0
   43.7535   10.5205   11.3316 C   0  0  0  0  0  0  0  0  0  0  0  0
   42.3954   10.1485   10.8515 C   0  0  0  0  0  0  0  0  0  0  0  0
   40.7382   17.4548   11.9137 C   0  0  0  0  0  0  0  0  0  0  0  0
   39.7426   16.4946   11.2422 C   0  0  0  0  0  0  0  0  0  0  0  0
   39.8957   13.3499    9.5136 O   0  0  0  0  0  0  0  0  0  0  0  0
   42.0427    8.9686   10.8252 O   0  0  0  0  0  0  0  0  0  0  0  0
   40.2318   10.8623    9.9092 O   0  0  0  0  0  0  0  0  0  0  0  0
   44.7960    9.5471   11.7620 C   0  0  0  0  0  0  0  0  0  0  0  0
   44.4607    8.2260   11.6306 N   0  0  0  0  0  0  0  0  0  0  0  0
   45.8782    9.9184   12.2094 O   0  0  0  0  0  0  0  0  0  0  0  0
   45.3252    7.1761   12.1120 C   0  0  0  0  0  0  0  0  0  0  0  0
   44.8675    5.8280   11.6504 C   0  0  0  0  0  0  0  0  0  0  0  0
   43.5052    3.8383   11.9698 C   0  0  0  0  0  0  0  0  0  0  0  0
   43.9567    5.0812   12.4010 C   0  0  0  0  0  0  0  0  0  0  0  0
   45.3102    5.2935   10.4385 C   0  0  0  0  0  0  0  0  0  0  0  0
   44.8722    4.0523    9.9883 C   0  0  0  0  0  0  0  0  0  0  0  0
   43.9705    3.3353   10.7628 C   0  0  0  0  0  0  0  0  0  0  0  0
   43.5015    5.5615   13.5666 F   0  0  0  0  0  0  0  0  0  0  0  0
   43.5435    2.1390   10.3390 F   0  0  0  0  0  0  0  0  0  0  0  0
   46.1803    5.9791    9.6839 F   0  0  0  0  0  0  0  0  0  0  0  0
   39.7558   15.7436    9.1837 H   0  0  0  0  0  0  0  0  0  0  0  0
   40.6341   18.0788    9.2433 H   0  0  0  0  0  0  0  0  0  0  0  0
   42.0174   17.0313    8.8001 H   0  0  0  0  0  0  0  0  0  0  0  0
   42.3937   18.5233   10.9560 H   0  0  0  0  0  0  0  0  0  0  0  0
   42.0333   15.0152   12.2312 H   0  0  0  0  0  0  0  0  0  0  0  0
   44.3863   14.4311   11.7854 H   0  0  0  0  0  0  0  0  0  0  0  0
   44.1185   14.4737   10.0455 H   0  0  0  0  0  0  0  0  0  0  0  0
   45.0238   12.1726   11.7081 H   0  0  0  0  0  0  0  0  0  0  0  0
   41.0488   17.0914   12.8981 H   0  0  0  0  0  0  0  0  0  0  0  0
   40.2634   18.4341   12.0414 H   0  0  0  0  0  0  0  0  0  0  0  0
   38.8281   17.0418   10.9847 H   0  0  0  0  0  0  0  0  0  0  0  0
   39.4651   15.6658   11.9015 H   0  0  0  0  0  0  0  0  0  0  0  0
   39.7528   11.6648    9.6062 H   0  0  0  0  0  0  0  0  0  0  0  0
   43.5023    7.9969   11.3614 H   0  0  0  0  0  0  0  0  0  0  0  0
   45.3420    7.2272   13.2073 H   0  0  0  0  0  0  0  0  0  0  0  0
   46.3514    7.3741   11.7793 H   0  0  0  0  0  0  0  0  0  0  0  0
   42.7982    3.2730   12.5662 H   0  0  0  0  0  0  0  0  0  0  0  0
   45.2278    3.6527    9.0455 H   0  0  0  0  0  0  0  0  0  0  0  0
  1  2  1  0
  2  3  1  0
  3  4  1  0
  4  5  1  0
  5  6  1  0
  1  6  1  0
  8  9  1  0
  9 10  1  0
  7 10  1  0
  5  8  1  0
  7  6  1  0
 12 13  2  0
 13 14  1  0
 11 14  1  0
  9 12  1  0
 11 10  2  0
  3 15  1  0
  1 16  1  0
 16 15  1  0
  7 17  2  0
 14 18  2  0
 11 19  1  0
 13 20  1  0
 20 21  1  0
 20 22  2  0
 21 23  1  0
 23 24  1  0
 25 26  2  0
 27 28  1  0
 28 29  2  0
 25 29  1  0
 26 24  1  0
 24 27  2  0
 26 30  1  0
 29 31  1  0
 27 32  1  0
  1 33  1  6
  2 34  1  0
  2 35  1  0
  3 36  1  1
  5 37  1  6
  8 38  1  0
  8 39  1  0
 12 40  1  0
 15 41  1  0
 15 42  1  0
 16 43  1  0
 16 44  1  0
 19 45  1  0
 21 46  1  0
 23 47  1  0
 23 48  1  0
 25 49  1  0
 28 50  1  0
M  END
> <Uni-Dock RESULT> 
ENERGY=   -4.576  LOWER_BOUND=    0.000  UPPER_BOUND=    0.000
INTER + INTRA:          -4.576
INTER:                  -4.576
INTRA:                   0.000
UNBOUND:                 0.000

$$$$

     RDKit          3D

 50 54  0  0  0  0  0  0  0  0999 V2000
   43.4368    4.7230   11.0271 C   0  0  1  0  0  0  0  0  0  0  0  0
   43.2256    3.4394   11.8114 C   0  0  0  0  0  0  0  0  0  0  0  0
   44.5904    2.8164   11.5889 C   0  0  2  0  0  0  0  0  0  0  0  0
   45.5367    3.5334   12.3882 O   0  0  0  0  0  0  0  0  0  0  0  0
   45.6869    4.9261   12.0851 C   0  0  1  0  0  0  0  0  0  0  0  0
   44.4151    5.5473   11.7368 N   0  0  0  0  0  0  0  0  0  0  0  0
   44.3488    6.9289   11.6196 C   0  0  0  0  0  0  0  0  0  0  0  0
   46.3326    5.6283   13.2875 C   0  0  0  0  0  0  0  0  0  0  0  0
   46.4499    7.0735   13.0278 N   0  0  0  0  0  0  0  0  0  0  0  0
   45.4703    7.7317   12.2639 C   0  0  0  0  0  0  0  0  0  0  0  0
   45.4717    9.0709   12.0655 C   0  0  0  0  0  0  0  0  0  0  0  0
   47.4350    7.8258   13.6507 C   0  0  0  0  0  0  0  0  0  0  0  0
   47.5726    9.1566   13.5448 C   0  0  0  0  0  0  0  0  0  0  0  0
   46.5804    9.8706   12.6968 C   0  0  0  0  0  0  0  0  0  0  0  0
   44.8424    2.9846   10.0854 C   0  0  0  0  0  0  0  0  0  0  0  0
   44.0180    4.2229    9.6966 C   0  0  0  0  0  0  0  0  0  0  0  0
   43.4304    7.5042   11.0338 O   0  0  0  0  0  0  0  0  0  0  0  0
   46.6683   11.0864   12.5202 O   0  0  0  0  0  0  0  0  0  0  0  0
   44.5342    9.7746   11.3248 O   0  0  0  0  0  0  0  0  0  0  0  0
   48.6924    9.8145   14.2747 C   0  0  0  0  0  0  0  0  0  0  0  0
   48.7365   11.1799   14.1818 N   0  0  0  0  0  0  0  0  0  0  0  0
   49.5184    9.1630   14.9089 O   0  0  0  0  0  0  0  0  0  0  0  0
   49.8274   11.9401   14.7418 C   0  0  0  0  0  0  0  0  0  0  0  0
   49.5428   13.4093   14.7259 C   0  0  0  0  0  0  0  0  0  0  0  0
   49.6051   15.5588   13.5889 C   0  0  0  0  0  0  0  0  0  0  0  0
   49.8870   14.1972   13.6253 C   0  0  0  0  0  0  0  0  0  0  0  0
   48.8928   14.0282   15.7959 C   0  0  0  0  0  0  0  0  0  0  0  0
   48.6016   15.3884   15.7809 C   0  0  0  0  0  0  0  0  0  0  0  0
   48.9629   16.1419   14.6725 C   0  0  0  0  0  0  0  0  0  0  0  0
   50.5056   13.6406   12.5746 F   0  0  0  0  0  0  0  0  0  0  0  0
   48.6882   17.4522   14.6485 F   0  0  0  0  0  0  0  0  0  0  0  0
   48.5397   13.3084   16.8700 F   0  0  0  0  0  0  0  0  0  0  0  0
   42.5029    5.2739   10.8804 H   0  0  0  0  0  0  0  0  0  0  0  0
   42.4260    2.8294   11.3771 H   0  0  0  0  0  0  0  0  0  0  0  0
   43.0124    3.6284   12.8687 H   0  0  0  0  0  0  0  0  0  0  0  0
   44.6240    1.7666   11.8932 H   0  0  0  0  0  0  0  0  0  0  0  0
   46.3537    5.0247   11.2184 H   0  0  0  0  0  0  0  0  0  0  0  0
   47.3141    5.1781   13.4834 H   0  0  0  0  0  0  0  0  0  0  0  0
   45.7277    5.4694   14.1897 H   0  0  0  0  0  0  0  0  0  0  0  0
   48.1225    7.2410   14.2609 H   0  0  0  0  0  0  0  0  0  0  0  0
   45.9031    3.1149    9.8495 H   0  0  0  0  0  0  0  0  0  0  0  0
   44.4698    2.1158    9.5313 H   0  0  0  0  0  0  0  0  0  0  0  0
   43.2099    3.9228    9.0191 H   0  0  0  0  0  0  0  0  0  0  0  0
   44.6261    4.9749    9.1835 H   0  0  0  0  0  0  0  0  0  0  0  0
   43.8459    9.1461   11.0142 H   0  0  0  0  0  0  0  0  0  0  0  0
   48.0858   11.6404   13.5429 H   0  0  0  0  0  0  0  0  0  0  0  0
   50.7306   11.7125   14.1629 H   0  0  0  0  0  0  0  0  0  0  0  0
   50.0214   11.5918   15.7635 H   0  0  0  0  0  0  0  0  0  0  0  0
   49.8802   16.1544   12.7259 H   0  0  0  0  0  0  0  0  0  0  0  0
   48.0976   15.8519   16.6212 H   0  0  0  0  0  0  0  0  0  0  0  0
  1  2  1  0
  2  3  1  0
  3  4  1  0
  4  5  1  0
  5  6  1  0
  1  6  1  0
  8  9  1  0
  9 10  1  0
  7 10  1  0
  5  8  1  0
  7  6  1  0
 12 13  2  0
 13 14  1  0
 11 14  1  0
  9 12  1  0
 11 10  2  0
  3 15  1  0
  1 16  1  0
 16 15  1  0
  7 17  2  0
 14 18  2  0
 11 19  1  0
 13 20  1  0
 20 21  1  0
 20 22  2  0
 21 23  1  0
 23 24  1  0
 25 26  2  0
 27 28  1  0
 28 29  2  0
 25 29  1  0
 26 24  1  0
 24 27  2  0
 26 30  1  0
 29 31  1  0
 27 32  1  0
  1 33  1  6
  2 34  1  0
  2 35  1  0
  3 36  1  1
  5 37  1  6
  8 38  1  0
  8 39  1  0
 12 40  1  0
 15 41  1  0
 15 42  1  0
 16 43  1  0
 16 44  1  0
 19 45  1  0
 21 46  1  0
 23 47  1  0
 23 48  1  0
 25 49  1  0
 28 50  1  0
M  END
> <Uni-Dock RESULT> 
ENERGY=   -4.373  LOWER_BOUND=    6.178  UPPER_BOUND=   10.160
INTER + INTRA:          -4.373
INTER:                  -4.373
INTRA:                   0.000
UNBOUND:                 0.000

$$$$

     RDKit          3D

 50 54  0  0  0  0  0  0  0  0999 V2000
   52.5404   10.9027   17.1157 C   0  0  1  0  0  0  0  0  0  0  0  0
   52.3212   12.1080   18.0139 C   0  0  0  0  0  0  0  0  0  0  0  0
   52.1591   13.1618   16.9353 C   0  0  2  0  0  0  0  0  0  0  0  0
   50.8778   12.9738   16.3258 O   0  0  0  0  0  0  0  0  0  0  0  0
   50.6704   11.7129   15.6768 C   0  0  1  0  0  0  0  0  0  0  0  0
   51.2927   10.6159   16.4077 N   0  0  0  0  0  0  0  0  0  0  0  0
   51.0125    9.3097   16.0311 C   0  0  0  0  0  0  0  0  0  0  0  0
   49.1618   11.4815   15.5140 C   0  0  0  0  0  0  0  0  0  0  0  0
   48.9142   10.1662   14.8987 N   0  0  0  0  0  0  0  0  0  0  0  0
   49.7714    9.0874   15.1779 C   0  0  0  0  0  0  0  0  0  0  0  0
   49.5476    7.8341   14.7177 C   0  0  0  0  0  0  0  0  0  0  0  0
   47.7606    9.9358   14.1635 C   0  0  0  0  0  0  0  0  0  0  0  0
   47.4049    8.7544   13.6354 C   0  0  0  0  0  0  0  0  0  0  0  0
   48.3238    7.6081   13.8701 C   0  0  0  0  0  0  0  0  0  0  0  0
   53.3172   12.8929   15.9664 C   0  0  0  0  0  0  0  0  0  0  0  0
   53.6153   11.3939   16.1352 C   0  0  0  0  0  0  0  0  0  0  0  0
   51.7152    8.3548   16.3659 O   0  0  0  0  0  0  0  0  0  0  0  0
   48.0833    6.5034   13.3814 O   0  0  0  0  0  0  0  0  0  0  0  0
   50.3546    6.7328   14.9603 O   0  0  0  0  0  0  0  0  0  0  0  0
   46.1329    8.6762   12.8637 C   0  0  0  0  0  0  0  0  0  0  0  0
   45.7928    7.4297   12.4106 N   0  0  0  0  0  0  0  0  0  0  0  0
   45.4472    9.6728   12.6499 O   0  0  0  0  0  0  0  0  0  0  0  0
   44.6497    7.2233   11.5548 C   0  0  0  0  0  0  0  0  0  0  0  0
   44.3418    5.7685   11.3851 C   0  0  0  0  0  0  0  0  0  0  0  0
   44.6706    3.6651   10.2085 C   0  0  0  0  0  0  0  0  0  0  0  0
   44.9299    5.0231   10.3609 C   0  0  0  0  0  0  0  0  0  0  0  0
   43.4855    5.1062   12.2675 C   0  0  0  0  0  0  0  0  0  0  0  0
   43.2117    3.7490   12.1334 C   0  0  0  0  0  0  0  0  0  0  0  0
   43.8100    3.0405   11.1004 C   0  0  0  0  0  0  0  0  0  0  0  0
   45.7635    5.6192    9.4969 F   0  0  0  0  0  0  0  0  0  0  0  0
   43.5522    1.7338   10.9620 F   0  0  0  0  0  0  0  0  0  0  0  0
   42.9038    5.7822   13.2681 F   0  0  0  0  0  0  0  0  0  0  0  0
   52.8744   10.0257   17.6781 H   0  0  0  0  0  0  0  0  0  0  0  0
   53.1954   12.3043   18.6442 H   0  0  0  0  0  0  0  0  0  0  0  0
   51.4303   12.0022   18.6416 H   0  0  0  0  0  0  0  0  0  0  0  0
   52.1914   14.1782   17.3376 H   0  0  0  0  0  0  0  0  0  0  0  0
   51.1313   11.7530   14.6810 H   0  0  0  0  0  0  0  0  0  0  0  0
   48.7363   12.2911   14.9074 H   0  0  0  0  0  0  0  0  0  0  0  0
   48.6635   11.5249   16.4912 H   0  0  0  0  0  0  0  0  0  0  0  0
   47.1309   10.8157   14.0362 H   0  0  0  0  0  0  0  0  0  0  0  0
   53.0643   13.1405   14.9309 H   0  0  0  0  0  0  0  0  0  0  0  0
   54.2032   13.4705   16.2530 H   0  0  0  0  0  0  0  0  0  0  0  0
   54.6128   11.2693   16.5730 H   0  0  0  0  0  0  0  0  0  0  0  0
   53.5988   10.8630   15.1779 H   0  0  0  0  0  0  0  0  0  0  0  0
   51.0826    7.0054   15.5610 H   0  0  0  0  0  0  0  0  0  0  0  0
   46.4695    6.6735   12.5274 H   0  0  0  0  0  0  0  0  0  0  0  0
   44.8631    7.6913   10.5863 H   0  0  0  0  0  0  0  0  0  0  0  0
   43.7874    7.7580   11.9712 H   0  0  0  0  0  0  0  0  0  0  0  0
   45.1363    3.1030    9.4070 H   0  0  0  0  0  0  0  0  0  0  0  0
   42.5433    3.2520   12.8270 H   0  0  0  0  0  0  0  0  0  0  0  0
  1  2  1  0
  2  3  1  0
  3  4  1  0
  4  5  1  0
  5  6  1  0
  1  6  1  0
  8  9  1  0
  9 10  1  0
  7 10  1  0
  5  8  1  0
  7  6  1  0
 12 13  2  0
 13 14  1  0
 11 14  1  0
  9 12  1  0
 11 10  2  0
  3 15  1  0
  1 16  1  0
 16 15  1  0
  7 17  2  0
 14 18  2  0
 11 19  1  0
 13 20  1  0
 20 21  1  0
 20 22  2  0
 21 23  1  0
 23 24  1  0
 25 26  2  0
 27 28  1  0
 28 29  2  0
 25 29  1  0
 26 24  1  0
 24 27  2  0
 26 30  1  0
 29 31  1  0
 27 32  1  0
  1 33  1  6
  2 34  1  0
  2 35  1  0
  3 36  1  1
  5 37  1  6
  8 38  1  0
  8 39  1  0
 12 40  1  0
 15 41  1  0
 15 42  1  0
 16 43  1  0
 16 44  1  0
 19 45  1  0
 21 46  1  0
 23 47  1  0
 23 48  1  0
 25 49  1  0
 28 50  1  0
M  END
> <Uni-Dock RESULT> 
ENERGY=   -4.371  LOWER_BOUND=    5.779  UPPER_BOUND=    8.732
INTER + INTRA:          -4.371
INTER:                  -4.371
INTRA:                   0.000
UNBOUND:                 0.000

$$$$

     RDKit          3D

 50 54  0  0  0  0  0  0  0  0999 V2000
   43.6520    5.0473   11.1932 C   0  0  1  0  0  0  0  0  0  0  0  0
   43.0280    3.7575   11.6977 C   0  0  0  0  0  0  0  0  0  0  0  0
   44.1850    2.8218   11.4042 C   0  0  2  0  0  0  0  0  0  0  0  0
   45.2148    3.0813   12.3636 O   0  0  0  0  0  0  0  0  0  0  0  0
   45.7666    4.4040   12.3499 C   0  0  1  0  0  0  0  0  0  0  0  0
   44.7499    5.4150   12.0874 N   0  0  0  0  0  0  0  0  0  0  0  0
   45.0745    6.7552   12.2458 C   0  0  0  0  0  0  0  0  0  0  0  0
   46.4680    4.6623   13.6905 C   0  0  0  0  0  0  0  0  0  0  0  0
   46.9988    6.0359   13.7286 N   0  0  0  0  0  0  0  0  0  0  0  0
   46.3096    7.0736   13.0768 C   0  0  0  0  0  0  0  0  0  0  0  0
   46.6949    8.3694   13.1497 C   0  0  0  0  0  0  0  0  0  0  0  0
   48.0914    6.3496   14.5237 C   0  0  0  0  0  0  0  0  0  0  0  0
   48.5963    7.5818   14.6904 C   0  0  0  0  0  0  0  0  0  0  0  0
   47.9180    8.6908   13.9669 C   0  0  0  0  0  0  0  0  0  0  0  0
   44.6084    3.1805    9.9744 C   0  0  0  0  0  0  0  0  0  0  0  0
   44.1924    4.6518    9.8113 C   0  0  0  0  0  0  0  0  0  0  0  0
   44.4053    7.6652   11.7541 O   0  0  0  0  0  0  0  0  0  0  0  0
   48.3504    9.8419   14.0396 O   0  0  0  0  0  0  0  0  0  0  0  0
   46.0564    9.4336   12.5312 O   0  0  0  0  0  0  0  0  0  0  0  0
   49.7825    7.7488   15.5762 C   0  0  0  0  0  0  0  0  0  0  0  0
   50.2062    9.0379   15.7591 N   0  0  0  0  0  0  0  0  0  0  0  0
   50.3381    6.7847   16.0968 O   0  0  0  0  0  0  0  0  0  0  0  0
   51.4080    9.3401   16.4980 C   0  0  0  0  0  0  0  0  0  0  0  0
   51.5384   10.8069   16.7653 C   0  0  0  0  0  0  0  0  0  0  0  0
   52.2884   13.0179   16.0828 C   0  0  0  0  0  0  0  0  0  0  0  0
   52.1829   11.6495   15.8569 C   0  0  0  0  0  0  0  0  0  0  0  0
   50.9881   11.3811   17.9134 C   0  0  0  0  0  0  0  0  0  0  0  0
   51.0823   12.7469   18.1595 C   0  0  0  0  0  0  0  0  0  0  0  0
   51.7346   13.5537   17.2373 C   0  0  0  0  0  0  0  0  0  0  0  0
   52.7184   11.1395   14.7391 F   0  0  0  0  0  0  0  0  0  0  0  0
   51.8317   14.8696   17.4654 F   0  0  0  0  0  0  0  0  0  0  0  0
   50.3560   10.6098   18.8090 F   0  0  0  0  0  0  0  0  0  0  0  0
   42.9215    5.8591   11.1261 H   0  0  0  0  0  0  0  0  0  0  0  0
   42.1349    3.4907   11.1222 H   0  0  0  0  0  0  0  0  0  0  0  0
   42.7798    3.8047   12.7631 H   0  0  0  0  0  0  0  0  0  0  0  0
   43.9027    1.7691   11.4940 H   0  0  0  0  0  0  0  0  0  0  0  0
   46.5106    4.4633   11.5446 H   0  0  0  0  0  0  0  0  0  0  0  0
   47.2672    3.9228   13.8275 H   0  0  0  0  0  0  0  0  0  0  0  0
   45.7636    4.5221   14.5207 H   0  0  0  0  0  0  0  0  0  0  0  0
   48.5347    5.4923   15.0291 H   0  0  0  0  0  0  0  0  0  0  0  0
   45.6811    3.0429    9.8072 H   0  0  0  0  0  0  0  0  0  0  0  0
   44.0642    2.5698    9.2452 H   0  0  0  0  0  0  0  0  0  0  0  0
   43.3978    4.7231    9.0592 H   0  0  0  0  0  0  0  0  0  0  0  0
   45.0267    5.2788    9.4804 H   0  0  0  0  0  0  0  0  0  0  0  0
   45.2536    9.0951   12.0772 H   0  0  0  0  0  0  0  0  0  0  0  0
   49.7668    9.7729   15.2021 H   0  0  0  0  0  0  0  0  0  0  0  0
   52.2632    8.9729   15.9179 H   0  0  0  0  0  0  0  0  0  0  0  0
   51.4061    8.7718   17.4360 H   0  0  0  0  0  0  0  0  0  0  0  0
   52.7926   13.6562   15.3663 H   0  0  0  0  0  0  0  0  0  0  0  0
   50.6502   13.1747   19.0569 H   0  0  0  0  0  0  0  0  0  0  0  0
  1  2  1  0
  2  3  1  0
  3  4  1  0
  4  5  1  0
  5  6  1  0
  1  6  1  0
  8  9  1  0
  9 10  1  0
  7 10  1  0
  5  8  1  0
  7  6  1  0
 12 13  2  0
 13 14  1  0
 11 14  1  0
  9 12  1  0
 11 10  2  0
  3 15  1  0
  1 16  1  0
 16 15  1  0
  7 17  2  0
 14 18  2  0
 11 19  1  0
 13 20  1  0
 20 21  1  0
 20 22  2  0
 21 23  1  0
 23 24  1  0
 25 26  2  0
 27 28  1  0
 28 29  2  0
 25 29  1  0
 26 24  1  0
 24 27  2  0
 26 30  1  0
 29 31  1  0
 27 32  1  0
  1 33  1  6
  2 34  1  0
  2 35  1  0
  3 36  1  1
  5 37  1  6
  8 38  1  0
  8 39  1  0
 12 40  1  0
 15 41  1  0
 15 42  1  0
 16 43  1  0
 16 44  1  0
 19 45  1  0
 21 46  1  0
 23 47  1  0
 23 48  1  0
 25 49  1  0
 28 50  1  0
M  END
> <Uni-Dock RESULT> 
ENERGY=   -4.298  LOWER_BOUND=    7.141  UPPER_BOUND=   10.632
INTER + INTRA:          -4.298
INTER:                  -4.298
INTRA:                   0.000
UNBOUND:                 0.000

$$$$

     RDKit          3D

 50 54  0  0  0  0  0  0  0  0999 V2000
   47.9114    5.5114   21.6064 C   0  0  1  0  0  0  0  0  0  0  0  0
   47.1107    5.3607   22.8885 C   0  0  0  0  0  0  0  0  0  0  0  0
   47.9549    6.2483   23.7828 C   0  0  2  0  0  0  0  0  0  0  0  0
   47.7134    7.6080   23.4071 O   0  0  0  0  0  0  0  0  0  0  0  0
   48.0635    7.9594   22.0624 C   0  0  1  0  0  0  0  0  0  0  0  0
   47.7649    6.8847   21.1240 N   0  0  0  0  0  0  0  0  0  0  0  0
   47.8479    7.1364   19.7615 C   0  0  0  0  0  0  0  0  0  0  0  0
   47.3239    9.2483   21.6783 C   0  0  0  0  0  0  0  0  0  0  0  0
   47.6207    9.6058   20.2805 N   0  0  0  0  0  0  0  0  0  0  0  0
   47.8272    8.5948   19.3256 C   0  0  0  0  0  0  0  0  0  0  0  0
   48.0136    8.8550   18.0101 C   0  0  0  0  0  0  0  0  0  0  0  0
   47.5529   10.9256   19.8588 C   0  0  0  0  0  0  0  0  0  0  0  0
   47.7234   11.3417   18.5943 C   0  0  0  0  0  0  0  0  0  0  0  0
   47.9982   10.2957   17.5727 C   0  0  0  0  0  0  0  0  0  0  0  0
   49.3966    5.8069   23.5017 C   0  0  0  0  0  0  0  0  0  0  0  0
   49.3533    5.2537   22.0677 C   0  0  0  0  0  0  0  0  0  0  0  0
   47.9268    6.2383   18.9219 O   0  0  0  0  0  0  0  0  0  0  0  0
   48.2058   10.6067   16.3992 O   0  0  0  0  0  0  0  0  0  0  0  0
   48.2204    7.9023   17.0239 O   0  0  0  0  0  0  0  0  0  0  0  0
   47.6255   12.8005   18.3080 C   0  0  0  0  0  0  0  0  0  0  0  0
   47.7401   13.1526   16.9898 N   0  0  0  0  0  0  0  0  0  0  0  0
   47.4592   13.6230   19.2052 O   0  0  0  0  0  0  0  0  0  0  0  0
   47.7782   14.5348   16.5779 C   0  0  0  0  0  0  0  0  0  0  0  0
   47.6685   14.6719   15.0916 C   0  0  0  0  0  0  0  0  0  0  0  0
   48.7149   14.7599   12.8975 C   0  0  0  0  0  0  0  0  0  0  0  0
   48.8062   14.6582   14.2817 C   0  0  0  0  0  0  0  0  0  0  0  0
   46.4233   14.7816   14.4688 C   0  0  0  0  0  0  0  0  0  0  0  0
   46.3088   14.8849   13.0863 C   0  0  0  0  0  0  0  0  0  0  0  0
   47.4613   14.8731   12.3127 C   0  0  0  0  0  0  0  0  0  0  0  0
   50.0200   14.5473   14.8393 F   0  0  0  0  0  0  0  0  0  0  0  0
   47.3620   14.9731   10.9811 F   0  0  0  0  0  0  0  0  0  0  0  0
   45.3052   14.7933   15.2079 F   0  0  0  0  0  0  0  0  0  0  0  0
   47.5973    4.7978   20.8388 H   0  0  0  0  0  0  0  0  0  0  0  0
   47.1033    4.3227   23.2385 H   0  0  0  0  0  0  0  0  0  0  0  0
   46.0824    5.7212   22.7812 H   0  0  0  0  0  0  0  0  0  0  0  0
   47.6948    6.1428   24.8398 H   0  0  0  0  0  0  0  0  0  0  0  0
   49.1446    8.1465   22.0209 H   0  0  0  0  0  0  0  0  0  0  0  0
   47.6187   10.0515   22.3657 H   0  0  0  0  0  0  0  0  0  0  0  0
   46.2408    9.1142   21.7968 H   0  0  0  0  0  0  0  0  0  0  0  0
   47.3419   11.6373   20.6563 H   0  0  0  0  0  0  0  0  0  0  0  0
   50.1132    6.6286   23.5964 H   0  0  0  0  0  0  0  0  0  0  0  0
   49.6966    5.0065   24.1873 H   0  0  0  0  0  0  0  0  0  0  0  0
   49.5578    4.1767   22.0879 H   0  0  0  0  0  0  0  0  0  0  0  0
   50.1017    5.7268   21.4237 H   0  0  0  0  0  0  0  0  0  0  0  0
   48.1575    7.0111   17.4326 H   0  0  0  0  0  0  0  0  0  0  0  0
   47.9928   12.4262   16.3175 H   0  0  0  0  0  0  0  0  0  0  0  0
   48.7173   14.9700   16.9405 H   0  0  0  0  0  0  0  0  0  0  0  0
   46.9716   15.0822   17.0803 H   0  0  0  0  0  0  0  0  0  0  0  0
   49.6093   14.7477   12.2851 H   0  0  0  0  0  0  0  0  0  0  0  0
   45.3338   14.9707   12.6205 H   0  0  0  0  0  0  0  0  0  0  0  0
  1  2  1  0
  2  3  1  0
  3  4  1  0
  4  5  1  0
  5  6  1  0
  1  6  1  0
  8  9  1  0
  9 10  1  0
  7 10  1  0
  5  8  1  0
  7  6  1  0
 12 13  2  0
 13 14  1  0
 11 14  1  0
  9 12  1  0
 11 10  2  0
  3 15  1  0
  1 16  1  0
 16 15  1  0
  7 17  2  0
 14 18  2  0
 11 19  1  0
 13 20  1  0
 20 21  1  0
 20 22  2  0
 21 23  1  0
 23 24  1  0
 25 26  2  0
 27 28  1  0
 28 29  2  0
 25 29  1  0
 26 24  1  0
 24 27  2  0
 26 30  1  0
 29 31  1  0
 27 32  1  0
  1 33  1  6
  2 34  1  0
  2 35  1  0
  3 36  1  1
  5 37  1  6
  8 38  1  0
  8 39  1  0
 12 40  1  0
 15 41  1  0
 15 42  1  0
 16 43  1  0
 16 44  1  0
 19 45  1  0
 21 46  1  0
 23 47  1  0
 23 48  1  0
 25 49  1  0
 28 50  1  0
M  END
> <Uni-Dock RESULT> 
ENERGY=   -4.089  LOWER_BOUND=    8.476  UPPER_BOUND=   12.614
INTER + INTRA:          -4.089
INTER:                  -4.089
INTRA:                   0.000
UNBOUND:                 0.000

$$$$

     RDKit          3D

 50 54  0  0  0  0  0  0  0  0999 V2000
   47.8525    3.1270   16.6406 C   0  0  1  0  0  0  0  0  0  0  0  0
   47.7255    3.0892   18.1539 C   0  0  0  0  0  0  0  0  0  0  0  0
   49.1287    3.5448   18.5056 C   0  0  2  0  0  0  0  0  0  0  0  0
   49.2206    4.9447   18.2224 O   0  0  0  0  0  0  0  0  0  0  0  0
   49.0163    5.3232   16.8552 C   0  0  1  0  0  0  0  0  0  0  0  0
   47.9786    4.5219   16.2181 N   0  0  0  0  0  0  0  0  0  0  0  0
   47.5125    4.8948   14.9649 C   0  0  0  0  0  0  0  0  0  0  0  0
   48.6704    6.8176   16.8011 C   0  0  0  0  0  0  0  0  0  0  0  0
   48.4000    7.2254   15.4117 N   0  0  0  0  0  0  0  0  0  0  0  0
   47.7923    6.3237   14.5205 C   0  0  0  0  0  0  0  0  0  0  0  0
   47.4356    6.6656   13.2601 C   0  0  0  0  0  0  0  0  0  0  0  0
   48.6005    8.5375   15.0085 C   0  0  0  0  0  0  0  0  0  0  0  0
   48.3067    9.0250   13.7931 C   0  0  0  0  0  0  0  0  0  0  0  0
   47.7130    8.0764   12.8128 C   0  0  0  0  0  0  0  0  0  0  0  0
   50.0378    2.7006   17.6038 C   0  0  0  0  0  0  0  0  0  0  0  0
   49.1619    2.3665   16.3851 C   0  0  0  0  0  0  0  0  0  0  0  0
   46.8905    4.1263   14.2300 O   0  0  0  0  0  0  0  0  0  0  0  0
   47.4556    8.4423   11.6652 O   0  0  0  0  0  0  0  0  0  0  0  0
   46.8336    5.8224   12.3385 O   0  0  0  0  0  0  0  0  0  0  0  0
   48.5911   10.4611   13.5168 C   0  0  0  0  0  0  0  0  0  0  0  0
   48.2052   10.9128   12.2832 N   0  0  0  0  0  0  0  0  0  0  0  0
   49.1417   11.1797   14.3471 O   0  0  0  0  0  0  0  0  0  0  0  0
   48.5186   12.2483   11.8361 C   0  0  0  0  0  0  0  0  0  0  0  0
   47.7985   12.5903   10.5693 C   0  0  0  0  0  0  0  0  0  0  0  0
   47.6916   12.5995    8.1393 C   0  0  0  0  0  0  0  0  0  0  0  0
   48.3620   12.3088    9.3228 C   0  0  0  0  0  0  0  0  0  0  0  0
   46.5273   13.1679   10.5973 C   0  0  0  0  0  0  0  0  0  0  0  0
   45.8391   13.4673    9.4261 C   0  0  0  0  0  0  0  0  0  0  0  0
   46.4318   13.1785    8.2046 C   0  0  0  0  0  0  0  0  0  0  0  0
   49.5773   11.7479    9.2520 F   0  0  0  0  0  0  0  0  0  0  0  0
   45.7782   13.4638    7.0713 F   0  0  0  0  0  0  0  0  0  0  0  0
   45.9471   13.4496   11.7723 F   0  0  0  0  0  0  0  0  0  0  0  0
   47.0024    2.6495   16.1443 H   0  0  0  0  0  0  0  0  0  0  0  0
   47.5262    2.0746   18.5156 H   0  0  0  0  0  0  0  0  0  0  0  0
   46.9525    3.7710   18.5234 H   0  0  0  0  0  0  0  0  0  0  0  0
   49.3597    3.4027   19.5651 H   0  0  0  0  0  0  0  0  0  0  0  0
   49.9510    5.1566   16.3037 H   0  0  0  0  0  0  0  0  0  0  0  0
   49.4984    7.3951   17.2315 H   0  0  0  0  0  0  0  0  0  0  0  0
   47.7870    7.0254   17.4189 H   0  0  0  0  0  0  0  0  0  0  0  0
   49.0312    9.1783   15.7770 H   0  0  0  0  0  0  0  0  0  0  0  0
   50.9498    3.2309   17.3128 H   0  0  0  0  0  0  0  0  0  0  0  0
   50.3249    1.7703   18.1065 H   0  0  0  0  0  0  0  0  0  0  0  0
   48.9738    1.2867   16.3584 H   0  0  0  0  0  0  0  0  0  0  0  0
   49.6456    2.6476   15.4440 H   0  0  0  0  0  0  0  0  0  0  0  0
   46.6652    4.9564   12.7710 H   0  0  0  0  0  0  0  0  0  0  0  0
   47.8608   10.2297   11.6062 H   0  0  0  0  0  0  0  0  0  0  0  0
   49.6043   12.3121   11.6957 H   0  0  0  0  0  0  0  0  0  0  0  0
   48.2689   12.9616   12.6309 H   0  0  0  0  0  0  0  0  0  0  0  0
   48.1451   12.3740    7.1808 H   0  0  0  0  0  0  0  0  0  0  0  0
   44.8536   13.9168    9.4674 H   0  0  0  0  0  0  0  0  0  0  0  0
  1  2  1  0
  2  3  1  0
  3  4  1  0
  4  5  1  0
  5  6  1  0
  1  6  1  0
  8  9  1  0
  9 10  1  0
  7 10  1  0
  5  8  1  0
  7  6  1  0
 12 13  2  0
 13 14  1  0
 11 14  1  0
  9 12  1  0
 11 10  2  0
  3 15  1  0
  1 16  1  0
 16 15  1  0
  7 17  2  0
 14 18  2  0
 11 19  1  0
 13 20  1  0
 20 21  1  0
 20 22  2  0
 21 23  1  0
 23 24  1  0
 25 26  2  0
 27 28  1  0
 28 29  2  0
 25 29  1  0
 26 24  1  0
 24 27  2  0
 26 30  1  0
 29 31  1  0
 27 32  1  0
  1 33  1  6
  2 34  1  0
  2 35  1  0
  3 36  1  1
  5 37  1  6
  8 38  1  0
  8 39  1  0
 12 40  1  0
 15 41  1  0
 15 42  1  0
 16 43  1  0
 16 44  1  0
 19 45  1  0
 21 46  1  0
 23 47  1  0
 23 48  1  0
 25 49  1  0
 28 50  1  0
M  END
> <Uni-Dock RESULT> 
ENERGY=   -3.936  LOWER_BOUND=    5.878  UPPER_BOUND=   11.016
INTER + INTRA:          -3.936
INTER:                  -3.936
INTRA:                   0.000
UNBOUND:                 0.000

$$$$

     RDKit          3D

 50 54  0  0  0  0  0  0  0  0999 V2000
   44.3685    4.1110   12.6934 C   0  0  1  0  0  0  0  0  0  0  0  0
   44.0183    3.6944   11.2752 C   0  0  0  0  0  0  0  0  0  0  0  0
   43.5440    5.0396   10.7596 C   0  0  2  0  0  0  0  0  0  0  0  0
   44.6943    5.8718   10.5789 O   0  0  0  0  0  0  0  0  0  0  0  0
   45.4586    6.1510   11.7587 C   0  0  1  0  0  0  0  0  0  0  0  0
   45.5321    4.9963   12.6453 N   0  0  0  0  0  0  0  0  0  0  0  0
   46.4028    5.0298   13.7258 C   0  0  0  0  0  0  0  0  0  0  0  0
   46.8606    6.6169   11.3424 C   0  0  0  0  0  0  0  0  0  0  0  0
   47.6895    6.8592   12.5357 N   0  0  0  0  0  0  0  0  0  0  0  0
   47.5172    6.0661   13.6836 C   0  0  0  0  0  0  0  0  0  0  0  0
   48.3063    6.1778   14.7780 C   0  0  0  0  0  0  0  0  0  0  0  0
   48.7417    7.7622   12.4938 C   0  0  0  0  0  0  0  0  0  0  0  0
   49.6028    7.9913   13.4975 C   0  0  0  0  0  0  0  0  0  0  0  0
   49.4080    7.2036   14.7445 C   0  0  0  0  0  0  0  0  0  0  0  0
   42.6091    5.5580   11.8594 C   0  0  0  0  0  0  0  0  0  0  0  0
   43.1211    4.8852   13.1436 C   0  0  0  0  0  0  0  0  0  0  0  0
   46.3053    4.2613   14.6837 O   0  0  0  0  0  0  0  0  0  0  0  0
   50.1344    7.3896   15.7216 O   0  0  0  0  0  0  0  0  0  0  0  0
   48.1857    5.4246   15.9360 O   0  0  0  0  0  0  0  0  0  0  0  0
   50.6774    9.0028   13.2935 C   0  0  0  0  0  0  0  0  0  0  0  0
   51.5636    9.1397   14.3283 N   0  0  0  0  0  0  0  0  0  0  0  0
   50.7485    9.6679   12.2631 O   0  0  0  0  0  0  0  0  0  0  0  0
   52.5855   10.1581   14.3176 C   0  0  0  0  0  0  0  0  0  0  0  0
   53.5707    9.9643   15.4275 C   0  0  0  0  0  0  0  0  0  0  0  0
   54.2579   10.3449   17.7296 C   0  0  0  0  0  0  0  0  0  0  0  0
   53.3620   10.5385   16.6834 C   0  0  0  0  0  0  0  0  0  0  0  0
   54.7087    9.1745   15.2501 C   0  0  0  0  0  0  0  0  0  0  0  0
   55.6181    8.9679   16.2823 C   0  0  0  0  0  0  0  0  0  0  0  0
   55.3814    9.5584   17.5161 C   0  0  0  0  0  0  0  0  0  0  0  0
   52.2783   11.2977   16.8974 F   0  0  0  0  0  0  0  0  0  0  0  0
   56.2512    9.3667   18.5160 F   0  0  0  0  0  0  0  0  0  0  0  0
   54.9450    8.6000   14.0624 F   0  0  0  0  0  0  0  0  0  0  0  0
   44.5662    3.2496   13.3383 H   0  0  0  0  0  0  0  0  0  0  0  0
   43.2156    2.9492   11.2614 H   0  0  0  0  0  0  0  0  0  0  0  0
   44.8861    3.3119   10.7279 H   0  0  0  0  0  0  0  0  0  0  0  0
   43.0346    4.9602    9.7951 H   0  0  0  0  0  0  0  0  0  0  0  0
   44.9657    6.9628   12.3098 H   0  0  0  0  0  0  0  0  0  0  0  0
   46.7721    7.5223   10.7286 H   0  0  0  0  0  0  0  0  0  0  0  0
   47.3422    5.8564   10.7140 H   0  0  0  0  0  0  0  0  0  0  0  0
   48.8302    8.2990   11.5499 H   0  0  0  0  0  0  0  0  0  0  0  0
   42.6225    6.6492   11.9419 H   0  0  0  0  0  0  0  0  0  0  0  0
   41.5777    5.2386   11.6724 H   0  0  0  0  0  0  0  0  0  0  0  0
   42.3593    4.1913   13.5183 H   0  0  0  0  0  0  0  0  0  0  0  0
   43.3296    5.6148   13.9328 H   0  0  0  0  0  0  0  0  0  0  0  0
   47.4680    4.7662   15.8070 H   0  0  0  0  0  0  0  0  0  0  0  0
   51.3715    8.6371   15.1966 H   0  0  0  0  0  0  0  0  0  0  0  0
   52.0918   11.1337   14.4015 H   0  0  0  0  0  0  0  0  0  0  0  0
   53.0897   10.1516   13.3436 H   0  0  0  0  0  0  0  0  0  0  0  0
   54.0793   10.7990   18.6976 H   0  0  0  0  0  0  0  0  0  0  0  0
   56.4968    8.3528   16.1258 H   0  0  0  0  0  0  0  0  0  0  0  0
  1  2  1  0
  2  3  1  0
  3  4  1  0
  4  5  1  0
  5  6  1  0
  1  6  1  0
  8  9  1  0
  9 10  1  0
  7 10  1  0
  5  8  1  0
  7  6  1  0
 12 13  2  0
 13 14  1  0
 11 14  1  0
  9 12  1  0
 11 10  2  0
  3 15  1  0
  1 16  1  0
 16 15  1  0
  7 17  2  0
 14 18  2  0
 11 19  1  0
 13 20  1  0
 20 21  1  0
 20 22  2  0
 21 23  1  0
 23 24  1  0
 25 26  2  0
 27 28  1  0
 28 29  2  0
 25 29  1  0
 26 24  1  0
 24 27  2  0
 26 30  1  0
 29 31  1  0
 27 32  1  0
  1 33  1  6
  2 34  1  0
  2 35  1  0
  3 36  1  1
  5 37  1  6
  8 38  1  0
  8 39  1  0
 12 40  1  0
 15 41  1  0
 15 42  1  0
 16 43  1  0
 16 44  1  0
 19 45  1  0
 21 46  1  0
 23 47  1  0
 23 48  1  0
 25 49  1  0
 28 50  1  0
M  END
> <Uni-Dock RESULT> 
ENERGY=   -3.900  LOWER_BOUND=    7.824  UPPER_BOUND=   10.808
INTER + INTRA:          -3.900
INTER:                  -3.900
INTRA:                   0.000
UNBOUND:                 0.000

$$$$

     RDKit          3D

 50 54  0  0  0  0  0  0  0  0999 V2000
   44.9904    3.8809   12.1481 C   0  0  1  0  0  0  0  0  0  0  0  0
   44.6834    4.0861   10.6746 C   0  0  0  0  0  0  0  0  0  0  0  0
   43.7410    5.2671   10.8068 C   0  0  2  0  0  0  0  0  0  0  0  0
   44.5230    6.4188   11.1390 O   0  0  0  0  0  0  0  0  0  0  0  0
   45.2446    6.3522   12.3756 C   0  0  1  0  0  0  0  0  0  0  0  0
   45.7782    5.0184   12.6230 N   0  0  0  0  0  0  0  0  0  0  0  0
   46.6741    4.8332   13.6669 C   0  0  0  0  0  0  0  0  0  0  0  0
   46.3665    7.3994   12.3518 C   0  0  0  0  0  0  0  0  0  0  0  0
   47.1622    7.3180   13.5888 N   0  0  0  0  0  0  0  0  0  0  0  0
   47.3652    6.0748   14.2130 C   0  0  0  0  0  0  0  0  0  0  0  0
   48.1594    5.9196   15.2984 C   0  0  0  0  0  0  0  0  0  0  0  0
   47.8401    8.4297   14.0674 C   0  0  0  0  0  0  0  0  0  0  0  0
   48.6545    8.4371   15.1342 C   0  0  0  0  0  0  0  0  0  0  0  0
   48.8430    7.1444   15.8461 C   0  0  0  0  0  0  0  0  0  0  0  0
   42.7820    4.8617   11.9331 C   0  0  0  0  0  0  0  0  0  0  0  0
   43.5974    3.8833   12.7945 C   0  0  0  0  0  0  0  0  0  0  0  0
   46.9229    3.7242   14.1421 O   0  0  0  0  0  0  0  0  0  0  0  0
   49.5434    7.0836   16.8574 O   0  0  0  0  0  0  0  0  0  0  0  0
   48.3983    4.7218   15.9548 O   0  0  0  0  0  0  0  0  0  0  0  0
   49.3031    9.7207   15.5229 C   0  0  0  0  0  0  0  0  0  0  0  0
   50.1748    9.6467   16.5762 N   0  0  0  0  0  0  0  0  0  0  0  0
   49.0584   10.7702   14.9332 O   0  0  0  0  0  0  0  0  0  0  0  0
   50.7879   10.8278   17.1334 C   0  0  0  0  0  0  0  0  0  0  0  0
   51.8704   10.4817   18.1073 C   0  0  0  0  0  0  0  0  0  0  0  0
   52.5799    9.9469   20.3717 C   0  0  0  0  0  0  0  0  0  0  0  0
   51.5866   10.2931   19.4618 C   0  0  0  0  0  0  0  0  0  0  0  0
   53.1891   10.3021   17.6840 C   0  0  0  0  0  0  0  0  0  0  0  0
   54.1982    9.9563   18.5768 C   0  0  0  0  0  0  0  0  0  0  0  0
   53.8808    9.7820   19.9169 C   0  0  0  0  0  0  0  0  0  0  0  0
   50.3322   10.4488   19.9078 F   0  0  0  0  0  0  0  0  0  0  0  0
   54.8452    9.4502   20.7846 F   0  0  0  0  0  0  0  0  0  0  0  0
   53.5045   10.4677   16.3919 F   0  0  0  0  0  0  0  0  0  0  0  0
   45.5210    2.9417   12.3309 H   0  0  0  0  0  0  0  0  0  0  0  0
   44.1814    3.2134   10.2429 H   0  0  0  0  0  0  0  0  0  0  0  0
   45.5800    4.3215   10.0920 H   0  0  0  0  0  0  0  0  0  0  0  0
   43.2091    5.4820    9.8758 H   0  0  0  0  0  0  0  0  0  0  0  0
   44.5548    6.5919   13.1955 H   0  0  0  0  0  0  0  0  0  0  0  0
   45.9260    8.3967   12.2267 H   0  0  0  0  0  0  0  0  0  0  0  0
   47.0220    7.2339   11.4869 H   0  0  0  0  0  0  0  0  0  0  0  0
   47.6623    9.3397   13.4955 H   0  0  0  0  0  0  0  0  0  0  0  0
   42.4330    5.7194   12.5163 H   0  0  0  0  0  0  0  0  0  0  0  0
   41.9073    4.3411   11.5275 H   0  0  0  0  0  0  0  0  0  0  0  0
   43.1492    2.8846   12.7322 H   0  0  0  0  0  0  0  0  0  0  0  0
   43.6129    4.1805   13.8481 H   0  0  0  0  0  0  0  0  0  0  0  0
   47.9369    4.0025   15.4698 H   0  0  0  0  0  0  0  0  0  0  0  0
   50.2376    8.7650   17.0884 H   0  0  0  0  0  0  0  0  0  0  0  0
   50.0026   11.4197   17.6188 H   0  0  0  0  0  0  0  0  0  0  0  0
   51.1807   11.4478   16.3185 H   0  0  0  0  0  0  0  0  0  0  0  0
   52.3406    9.8051   21.4194 H   0  0  0  0  0  0  0  0  0  0  0  0
   55.2166    9.8224   18.2302 H   0  0  0  0  0  0  0  0  0  0  0  0
  1  2  1  0
  2  3  1  0
  3  4  1  0
  4  5  1  0
  5  6  1  0
  1  6  1  0
  8  9  1  0
  9 10  1  0
  7 10  1  0
  5  8  1  0
  7  6  1  0
 12 13  2  0
 13 14  1  0
 11 14  1  0
  9 12  1  0
 11 10  2  0
  3 15  1  0
  1 16  1  0
 16 15  1  0
  7 17  2  0
 14 18  2  0
 11 19  1  0
 13 20  1  0
 20 21  1  0
 20 22  2  0
 21 23  1  0
 23 24  1  0
 25 26  2  0
 27 28  1  0
 28 29  2  0
 25 29  1  0
 26 24  1  0
 24 27  2  0
 26 30  1  0
 29 31  1  0
 27 32  1  0
  1 33  1  6
  2 34  1  0
  2 35  1  0
  3 36  1  1
  5 37  1  6
  8 38  1  0
  8 39  1  0
 12 40  1  0
 15 41  1  0
 15 42  1  0
 16 43  1  0
 16 44  1  0
 19 45  1  0
 21 46  1  0
 23 47  1  0
 23 48  1  0
 25 49  1  0
 28 50  1  0
M  END
> <Uni-Dock RESULT> 
ENERGY=   -3.738  LOWER_BOUND=    7.583  UPPER_BOUND=   10.943
INTER + INTRA:          -3.738
INTER:                  -3.738
INTRA:                   0.000
UNBOUND:                 0.000

$$$$

     RDKit          3D

 50 54  0  0  0  0  0  0  0  0999 V2000
   54.9791    1.9575   17.9997 C   0  0  1  0  0  0  0  0  0  0  0  0
   54.9147    0.9736   16.8441 C   0  0  0  0  0  0  0  0  0  0  0  0
   53.8121    0.0783   17.3764 C   0  0  2  0  0  0  0  0  0  0  0  0
   52.5756    0.7904   17.2659 O   0  0  0  0  0  0  0  0  0  0  0  0
   52.4850    2.0105   18.0123 C   0  0  1  0  0  0  0  0  0  0  0  0
   53.7451    2.7432   18.0123 N   0  0  0  0  0  0  0  0  0  0  0  0
   53.7721    4.0388   18.5096 C   0  0  0  0  0  0  0  0  0  0  0  0
   51.3503    2.8647   17.4301 C   0  0  0  0  0  0  0  0  0  0  0  0
   51.2680    4.1516   18.1421 N   0  0  0  0  0  0  0  0  0  0  0  0
   52.4376    4.7617   18.6281 C   0  0  0  0  0  0  0  0  0  0  0  0
   52.4404    5.9843   19.2095 C   0  0  0  0  0  0  0  0  0  0  0  0
   50.0689    4.8457   18.2109 C   0  0  0  0  0  0  0  0  0  0  0  0
   49.9099    6.0591   18.7619 C   0  0  0  0  0  0  0  0  0  0  0  0
   51.1232    6.7032   19.3333 C   0  0  0  0  0  0  0  0  0  0  0  0
   54.2106   -0.1871   18.8335 C   0  0  0  0  0  0  0  0  0  0  0  0
   55.0465    1.0410   19.2300 C   0  0  0  0  0  0  0  0  0  0  0  0
   54.8160    4.6040   18.8392 O   0  0  0  0  0  0  0  0  0  0  0  0
   51.0459    7.7984   19.8916 O   0  0  0  0  0  0  0  0  0  0  0  0
   53.5595    6.6358   19.7055 O   0  0  0  0  0  0  0  0  0  0  0  0
   48.5493    6.6660   18.7611 C   0  0  0  0  0  0  0  0  0  0  0  0
   48.4673    7.9325   19.2752 N   0  0  0  0  0  0  0  0  0  0  0  0
   47.5730    6.0574   18.3304 O   0  0  0  0  0  0  0  0  0  0  0  0
   47.1986    8.5990   19.4421 C   0  0  0  0  0  0  0  0  0  0  0  0
   47.3749   10.0431   19.7936 C   0  0  0  0  0  0  0  0  0  0  0  0
   47.6715   11.7879   21.4623 C   0  0  0  0  0  0  0  0  0  0  0  0
   47.4826   10.4518   21.1247 C   0  0  0  0  0  0  0  0  0  0  0  0
   47.4728   11.0191   18.7995 C   0  0  0  0  0  0  0  0  0  0  0  0
   47.6612   12.3609   19.1144 C   0  0  0  0  0  0  0  0  0  0  0  0
   47.7587   12.7319   20.4485 C   0  0  0  0  0  0  0  0  0  0  0  0
   47.4012    9.5455   22.1088 F   0  0  0  0  0  0  0  0  0  0  0  0
   47.9390   14.0211   20.7624 F   0  0  0  0  0  0  0  0  0  0  0  0
   47.3804   10.6699   17.5087 F   0  0  0  0  0  0  0  0  0  0  0  0
   55.8525    2.6132   17.9336 H   0  0  0  0  0  0  0  0  0  0  0  0
   55.8577    0.4289   16.7265 H   0  0  0  0  0  0  0  0  0  0  0  0
   54.6487    1.4588   15.8993 H   0  0  0  0  0  0  0  0  0  0  0  0
   53.7157   -0.8488   16.8045 H   0  0  0  0  0  0  0  0  0  0  0  0
   52.2430    1.7647   19.0547 H   0  0  0  0  0  0  0  0  0  0  0  0
   50.4070    2.3086   17.5025 H   0  0  0  0  0  0  0  0  0  0  0  0
   51.5249    3.0509   16.3624 H   0  0  0  0  0  0  0  0  0  0  0  0
   49.2240    4.3195   17.7679 H   0  0  0  0  0  0  0  0  0  0  0  0
   53.3438   -0.3147   19.4892 H   0  0  0  0  0  0  0  0  0  0  0  0
   54.8339   -1.0853   18.9064 H   0  0  0  0  0  0  0  0  0  0  0  0
   56.0818    0.7310   19.4151 H   0  0  0  0  0  0  0  0  0  0  0  0
   54.6691    1.5163   20.1412 H   0  0  0  0  0  0  0  0  0  0  0  0
   54.3507    6.0845   19.5176 H   0  0  0  0  0  0  0  0  0  0  0  0
   49.2984    8.3266   19.7195 H   0  0  0  0  0  0  0  0  0  0  0  0
   46.6407    8.0731   20.2262 H   0  0  0  0  0  0  0  0  0  0  0  0
   46.6116    8.4908   18.5220 H   0  0  0  0  0  0  0  0  0  0  0  0
   47.7525   12.0863   22.5012 H   0  0  0  0  0  0  0  0  0  0  0  0
   47.7335   13.1048   18.3293 H   0  0  0  0  0  0  0  0  0  0  0  0
  1  2  1  0
  2  3  1  0
  3  4  1  0
  4  5  1  0
  5  6  1  0
  1  6  1  0
  8  9  1  0
  9 10  1  0
  7 10  1  0
  5  8  1  0
  7  6  1  0
 12 13  2  0
 13 14  1  0
 11 14  1  0
  9 12  1  0
 11 10  2  0
  3 15  1  0
  1 16  1  0
 16 15  1  0
  7 17  2  0
 14 18  2  0
 11 19  1  0
 13 20  1  0
 20 21  1  0
 20 22  2  0
 21 23  1  0
 23 24  1  0
 25 26  2  0
 27 28  1  0
 28 29  2  0
 25 29  1  0
 26 24  1  0
 24 27  2  0
 26 30  1  0
 29 31  1  0
 27 32  1  0
  1 33  1  6
  2 34  1  0
  2 35  1  0
  3 36  1  1
  5 37  1  6
  8 38  1  0
  8 39  1  0
 12 40  1  0
 15 41  1  0
 15 42  1  0
 16 43  1  0
 16 44  1  0
 19 45  1  0
 21 46  1  0
 23 47  1  0
 23 48  1  0
 25 49  1  0
 28 50  1  0
M  END
> <Uni-Dock RESULT> 
ENERGY=   -3.688  LOWER_BOUND=   10.272  UPPER_BOUND=   15.436
INTER + INTRA:          -3.688
INTER:                  -3.688
INTRA:                   0.000
UNBOUND:                 0.000

$$$$
