
     RDKit          3D

 50 54  0  0  0  0  0  0  0  0999 V2000
   40.4350   16.0266    9.9763 C   0  0  1  0  0  0  0  0  0  0  0  0
   41.2448   17.2495    9.5812 C   0  0  0  0  0  0  0  0  0  0  0  0
   41.8800   17.5394   10.9276 C   0  0  2  0  0  0  0  0  0  0  0  0
   42.8842   16.5472   11.1629 O   0  0  0  0  0  0  0  0  0  0  0  0
   42.4237   15.1916   11.2300 C   0  0  1  0  0  0  0  0  0  0  0  0
   41.3587   14.9307   10.2696 N   0  0  0  0  0  0  0  0  0  0  0  0
   40.9458   13.6223   10.0590 C   0  0  0  0  0  0  0  0  0  0  0  0
   43.6151   14.2514   11.0014 C   0  0  0  0  0  0  0  0  0  0  0  0
   43.1635   12.8493   11.0094 N   0  0  0  0  0  0  0  0  0  0  0  0
   41.8920   12.5179   10.5094 C   0  0  0  0  0  0  0  0  0  0  0  0
   41.4542   11.2411   10.4055 C   0  0  0  0  0  0  0  0  0  0  0  0
   44.0325   11.8289   11.3667 C   0  0  0  0  0  0  0  0  0  0  0  0
   43.7432   10.5190   11.3264 C   0  0  0  0  0  0  0  0  0  0  0  0
   42.3837   10.1441   10.8528 C   0  0  0  0  0  0  0  0  0  0  0  0
   40.7165   17.4471   11.9226 C   0  0  0  0  0  0  0  0  0  0  0  0
   39.7198   16.4849   11.2557 C   0  0  0  0  0  0  0  0  0  0  0  0
   39.8712   13.3406    9.5263 O   0  0  0  0  0  0  0  0  0  0  0  0
   42.0333    8.9636   10.8279 O   0  0  0  0  0  0  0  0  0  0  0  0
   40.2143   10.8536    9.9203 O   0  0  0  0  0  0  0  0  0  0  0  0
   44.7897    9.5477   11.7521 C   0  0  0  0  0  0  0  0  0  0  0  0
   44.4565    8.2260   11.6221 N   0  0  0  0  0  0  0  0  0  0  0  0
   45.8732    9.9212   12.1944 O   0  0  0  0  0  0  0  0  0  0  0  0
   45.3254    7.1779   12.0995 C   0  0  0  0  0  0  0  0  0  0  0  0
   44.8683    5.8288   11.6399 C   0  0  0  0  0  0  0  0  0  0  0  0
   44.8690    4.0532    9.9778 C   0  0  0  0  0  0  0  0  0  0  0  0
   45.3066    5.2952   10.4259 C   0  0  0  0  0  0  0  0  0  0  0  0
   43.9625    5.0801   12.3947 C   0  0  0  0  0  0  0  0  0  0  0  0
   43.5116    3.8362   11.9656 C   0  0  0  0  0  0  0  0  0  0  0  0
   43.9725    3.3342   10.7564 C   0  0  0  0  0  0  0  0  0  0  0  0
   46.1717    5.9827    9.6674 F   0  0  0  0  0  0  0  0  0  0  0  0
   43.5460    2.1370   10.3346 F   0  0  0  0  0  0  0  0  0  0  0  0
   43.5117    5.5594   13.5624 F   0  0  0  0  0  0  0  0  0  0  0  0
   39.7250   15.7339    9.1970 H   0  0  0  0  0  0  0  0  0  0  0  0
   41.9821   17.0262    8.8031 H   0  0  0  0  0  0  0  0  0  0  0  0
   40.5988   18.0709    9.2526 H   0  0  0  0  0  0  0  0  0  0  0  0
   42.3654   18.5189   10.9571 H   0  0  0  0  0  0  0  0  0  0  0  0
   42.0180   15.0101   12.2340 H   0  0  0  0  0  0  0  0  0  0  0  0
   44.3701   14.4308   11.7774 H   0  0  0  0  0  0  0  0  0  0  0  0
   44.0942   14.4729   10.0387 H   0  0  0  0  0  0  0  0  0  0  0  0
   45.0118   12.1736   11.6970 H   0  0  0  0  0  0  0  0  0  0  0  0
   40.2402   18.4254   12.0524 H   0  0  0  0  0  0  0  0  0  0  0  0
   41.0324   17.0843   12.9055 H   0  0  0  0  0  0  0  0  0  0  0  0
   39.4469   15.6555   11.9162 H   0  0  0  0  0  0  0  0  0  0  0  0
   38.8029   17.0301   11.0024 H   0  0  0  0  0  0  0  0  0  0  0  0
   39.7322   11.6551    9.6196 H   0  0  0  0  0  0  0  0  0  0  0  0
   43.4973    7.9949   11.3574 H   0  0  0  0  0  0  0  0  0  0  0  0
   46.3496    7.3780   11.7622 H   0  0  0  0  0  0  0  0  0  0  0  0
   45.3471    7.2289   13.1947 H   0  0  0  0  0  0  0  0  0  0  0  0
   45.2212    3.6543    9.0334 H   0  0  0  0  0  0  0  0  0  0  0  0
   42.8085    3.2694   12.5651 H   0  0  0  0  0  0  0  0  0  0  0  0
  1  2  1  0
  2  3  1  0
  3  4  1  0
  4  5  1  0
  5  6  1  0
  1  6  1  0
  8  9  1  0
  9 10  1  0
  7 10  1  0
  5  8  1  0
  7  6  1  0
 12 13  2  0
 13 14  1  0
 11 14  1  0
  9 12  1  0
 11 10  2  0
  3 15  1  0
  1 16  1  0
 16 15  1  0
  7 17  2  0
 14 18  2  0
 11 19  1  0
 13 20  1  0
 20 21  1  0
 20 22  2  0
 21 23  1  0
 23 24  1  0
 25 26  2  0
 27 28  1  0
 28 29  2  0
 25 29  1  0
 26 24  1  0
 24 27  2  0
 26 30  1  0
 29 31  1  0
 27 32  1  0
  1 33  1  1
  2 34  1  0
  2 35  1  0
  3 36  1  6
  5 37  1  1
  8 38  1  0
  8 39  1  0
 12 40  1  0
 15 41  1  0
 15 42  1  0
 16 43  1  0
 16 44  1  0
 19 45  1  0
 21 46  1  0
 23 47  1  0
 23 48  1  0
 25 49  1  0
 28 50  1  0
M  END
> <Uni-Dock RESULT> 
ENERGY=   -4.571  LOWER_BOUND=    0.000  UPPER_BOUND=    0.000
INTER + INTRA:          -4.571
INTER:                  -4.571
INTRA:                   0.000
UNBOUND:                 0.000

$$$$

     RDKit          3D

 50 54  0  0  0  0  0  0  0  0999 V2000
   43.4394    4.7165   11.0149 C   0  0  1  0  0  0  0  0  0  0  0  0
   43.2233    3.4306   11.7943 C   0  0  0  0  0  0  0  0  0  0  0  0
   44.5877    2.8060   11.5743 C   0  0  2  0  0  0  0  0  0  0  0  0
   45.5326    3.5186   12.3791 O   0  0  0  0  0  0  0  0  0  0  0  0
   45.6863    4.9120   12.0812 C   0  0  1  0  0  0  0  0  0  0  0  0
   44.4169    5.5367   11.7306 N   0  0  0  0  0  0  0  0  0  0  0  0
   44.3534    6.9187   11.6178 C   0  0  0  0  0  0  0  0  0  0  0  0
   46.3293    5.6091   13.2880 C   0  0  0  0  0  0  0  0  0  0  0  0
   46.4500    7.0549   13.0334 N   0  0  0  0  0  0  0  0  0  0  0  0
   45.4742    7.7175   12.2683 C   0  0  0  0  0  0  0  0  0  0  0  0
   45.4788    9.0572   12.0744 C   0  0  0  0  0  0  0  0  0  0  0  0
   47.4344    7.8033   13.6619 C   0  0  0  0  0  0  0  0  0  0  0  0
   47.5747    9.1343   13.5611 C   0  0  0  0  0  0  0  0  0  0  0  0
   46.5868    9.8529   12.7120 C   0  0  0  0  0  0  0  0  0  0  0  0
   44.8451    2.9786   10.0722 C   0  0  0  0  0  0  0  0  0  0  0  0
   44.0243    4.2197    9.6848 C   0  0  0  0  0  0  0  0  0  0  0  0
   43.4380    7.4976   11.0306 O   0  0  0  0  0  0  0  0  0  0  0  0
   46.6774   11.0690   12.5397 O   0  0  0  0  0  0  0  0  0  0  0  0
   44.5449    9.7651   11.3328 O   0  0  0  0  0  0  0  0  0  0  0  0
   48.6933    9.7877   14.2968 C   0  0  0  0  0  0  0  0  0  0  0  0
   48.7402   11.1533   14.2085 N   0  0  0  0  0  0  0  0  0  0  0  0
   49.5160    9.1326   14.9317 O   0  0  0  0  0  0  0  0  0  0  0  0
   49.8306   11.9095   14.7747 C   0  0  0  0  0  0  0  0  0  0  0  0
   49.5487   13.3794   14.7628 C   0  0  0  0  0  0  0  0  0  0  0  0
   48.6075   15.3567   15.8211 C   0  0  0  0  0  0  0  0  0  0  0  0
   48.8962   13.9960   15.8327 C   0  0  0  0  0  0  0  0  0  0  0  0
   49.8979   14.1704   13.6659 C   0  0  0  0  0  0  0  0  0  0  0  0
   49.6188   15.5326   13.6331 C   0  0  0  0  0  0  0  0  0  0  0  0
   48.9739   16.1132   14.7165 C   0  0  0  0  0  0  0  0  0  0  0  0
   48.5382   13.2731   16.9031 F   0  0  0  0  0  0  0  0  0  0  0  0
   48.7017   17.4241   14.6960 F   0  0  0  0  0  0  0  0  0  0  0  0
   50.5191   13.6161   12.6154 F   0  0  0  0  0  0  0  0  0  0  0  0
   42.5070    5.2696   10.8669 H   0  0  0  0  0  0  0  0  0  0  0  0
   43.0069    3.6167   12.8513 H   0  0  0  0  0  0  0  0  0  0  0  0
   42.4241    2.8236   11.3553 H   0  0  0  0  0  0  0  0  0  0  0  0
   44.6184    1.7551   11.8753 H   0  0  0  0  0  0  0  0  0  0  0  0
   46.3562    5.0122   11.2169 H   0  0  0  0  0  0  0  0  0  0  0  0
   47.3094    5.1565   13.4857 H   0  0  0  0  0  0  0  0  0  0  0  0
   45.7210    5.4483   14.1876 H   0  0  0  0  0  0  0  0  0  0  0  0
   48.1187    7.2154   14.2726 H   0  0  0  0  0  0  0  0  0  0  0  0
   44.4727    2.1123    9.5140 H   0  0  0  0  0  0  0  0  0  0  0  0
   45.9067    3.1077    9.8403 H   0  0  0  0  0  0  0  0  0  0  0  0
   44.6354    4.9723    9.1761 H   0  0  0  0  0  0  0  0  0  0  0  0
   43.2179    3.9233    9.0035 H   0  0  0  0  0  0  0  0  0  0  0  0
   43.8566    9.1388   11.0179 H   0  0  0  0  0  0  0  0  0  0  0  0
   48.0925   11.6171   13.5690 H   0  0  0  0  0  0  0  0  0  0  0  0
   50.0205   11.5576   15.7959 H   0  0  0  0  0  0  0  0  0  0  0  0
   50.7352   11.6823   14.1981 H   0  0  0  0  0  0  0  0  0  0  0  0
   48.1016   15.8183   16.6614 H   0  0  0  0  0  0  0  0  0  0  0  0
   49.8977   16.1305   12.7731 H   0  0  0  0  0  0  0  0  0  0  0  0
  1  2  1  0
  2  3  1  0
  3  4  1  0
  4  5  1  0
  5  6  1  0
  1  6  1  0
  8  9  1  0
  9 10  1  0
  7 10  1  0
  5  8  1  0
  7  6  1  0
 12 13  2  0
 13 14  1  0
 11 14  1  0
  9 12  1  0
 11 10  2  0
  3 15  1  0
  1 16  1  0
 16 15  1  0
  7 17  2  0
 14 18  2  0
 11 19  1  0
 13 20  1  0
 20 21  1  0
 20 22  2  0
 21 23  1  0
 23 24  1  0
 25 26  2  0
 27 28  1  0
 28 29  2  0
 25 29  1  0
 26 24  1  0
 24 27  2  0
 26 30  1  0
 29 31  1  0
 27 32  1  0
  1 33  1  1
  2 34  1  0
  2 35  1  0
  3 36  1  6
  5 37  1  1
  8 38  1  0
  8 39  1  0
 12 40  1  0
 15 41  1  0
 15 42  1  0
 16 43  1  0
 16 44  1  0
 19 45  1  0
 21 46  1  0
 23 47  1  0
 23 48  1  0
 25 49  1  0
 28 50  1  0
M  END
> <Uni-Dock RESULT> 
ENERGY=   -4.373  LOWER_BOUND=    6.196  UPPER_BOUND=   10.166
INTER + INTRA:          -4.373
INTER:                  -4.373
INTRA:                   0.000
UNBOUND:                 0.000

$$$$

     RDKit          3D

 50 54  0  0  0  0  0  0  0  0999 V2000
   52.3200   10.4300   17.8867 C   0  0  1  0  0  0  0  0  0  0  0  0
   52.0708   11.6205   18.7968 C   0  0  0  0  0  0  0  0  0  0  0  0
   52.0376   12.7059   17.7380 C   0  0  2  0  0  0  0  0  0  0  0  0
   50.8057   12.5826   17.0201 O   0  0  0  0  0  0  0  0  0  0  0  0
   50.6072   11.3469   16.3216 C   0  0  1  0  0  0  0  0  0  0  0  0
   51.1260   10.2092   17.0706 N   0  0  0  0  0  0  0  0  0  0  0  0
   50.8308    8.9243   16.6363 C   0  0  0  0  0  0  0  0  0  0  0  0
   49.1101   11.1780   16.0286 C   0  0  0  0  0  0  0  0  0  0  0  0
   48.8668    9.8887   15.3590 N   0  0  0  0  0  0  0  0  0  0  0  0
   49.6579    8.7711   15.6780 C   0  0  0  0  0  0  0  0  0  0  0  0
   49.4276    7.5390   15.1664 C   0  0  0  0  0  0  0  0  0  0  0  0
   47.7710    9.7211   14.5251 C   0  0  0  0  0  0  0  0  0  0  0  0
   47.4177    8.5676   13.9371 C   0  0  0  0  0  0  0  0  0  0  0  0
   48.2714    7.3813   14.2148 C   0  0  0  0  0  0  0  0  0  0  0  0
   53.2619   12.4162   16.8608 C   0  0  0  0  0  0  0  0  0  0  0  0
   53.4901   10.9033   17.0120 C   0  0  0  0  0  0  0  0  0  0  0  0
   51.4679    7.9350   17.0014 O   0  0  0  0  0  0  0  0  0  0  0  0
   48.0323    6.2990   13.6778 O   0  0  0  0  0  0  0  0  0  0  0  0
   50.1709    6.4018   15.4442 O   0  0  0  0  0  0  0  0  0  0  0  0
   46.2124    8.5575   13.0614 C   0  0  0  0  0  0  0  0  0  0  0  0
   45.8660    7.3366   12.5475 N   0  0  0  0  0  0  0  0  0  0  0  0
   45.5837    9.5848   12.8194 O   0  0  0  0  0  0  0  0  0  0  0  0
   44.7915    7.1956   11.5952 C   0  0  0  0  0  0  0  0  0  0  0  0
   44.4459    5.7583   11.3605 C   0  0  0  0  0  0  0  0  0  0  0  0
   43.1845    3.7662   11.9571 C   0  0  0  0  0  0  0  0  0  0  0  0
   43.4954    5.1082   12.1507 C   0  0  0  0  0  0  0  0  0  0  0  0
   45.0899    5.0160   10.3680 C   0  0  0  0  0  0  0  0  0  0  0  0
   44.7947    3.6732   10.1573 C   0  0  0  0  0  0  0  0  0  0  0  0
   43.8405    3.0606   10.9578 C   0  0  0  0  0  0  0  0  0  0  0  0
   42.8575    5.7816   13.1183 F   0  0  0  0  0  0  0  0  0  0  0  0
   43.5476    1.7687   10.7625 F   0  0  0  0  0  0  0  0  0  0  0  0
   46.0137    5.6004    9.5925 F   0  0  0  0  0  0  0  0  0  0  0  0
   52.5737    9.5273   18.4504 H   0  0  0  0  0  0  0  0  0  0  0  0
   51.1273   11.5338   19.3457 H   0  0  0  0  0  0  0  0  0  0  0  0
   52.8959   11.7674   19.5021 H   0  0  0  0  0  0  0  0  0  0  0  0
   52.0733   13.7102   18.1695 H   0  0  0  0  0  0  0  0  0  0  0  0
   51.1507   11.3935   15.3686 H   0  0  0  0  0  0  0  0  0  0  0  0
   48.7665   12.0180   15.4116 H   0  0  0  0  0  0  0  0  0  0  0  0
   48.5339   11.2166   16.9623 H   0  0  0  0  0  0  0  0  0  0  0  0
   47.1865   10.6274   14.3707 H   0  0  0  0  0  0  0  0  0  0  0  0
   54.1414   12.9520   17.2353 H   0  0  0  0  0  0  0  0  0  0  0  0
   53.1055   12.6988   15.8152 H   0  0  0  0  0  0  0  0  0  0  0  0
   53.5341   10.3969   16.0423 H   0  0  0  0  0  0  0  0  0  0  0  0
   54.4424   10.7295   17.5269 H   0  0  0  0  0  0  0  0  0  0  0  0
   50.8558    6.6312   16.1101 H   0  0  0  0  0  0  0  0  0  0  0  0
   46.5027    6.5521   12.6988 H   0  0  0  0  0  0  0  0  0  0  0  0
   43.9176    7.7529   11.9535 H   0  0  0  0  0  0  0  0  0  0  0  0
   45.1019    7.6785   10.6608 H   0  0  0  0  0  0  0  0  0  0  0  0
   42.4428    3.2787   12.5793 H   0  0  0  0  0  0  0  0  0  0  0  0
   45.3048    3.1132    9.3819 H   0  0  0  0  0  0  0  0  0  0  0  0
  1  2  1  0
  2  3  1  0
  3  4  1  0
  4  5  1  0
  5  6  1  0
  1  6  1  0
  8  9  1  0
  9 10  1  0
  7 10  1  0
  5  8  1  0
  7  6  1  0
 12 13  2  0
 13 14  1  0
 11 14  1  0
  9 12  1  0
 11 10  2  0
  3 15  1  0
  1 16  1  0
 16 15  1  0
  7 17  2  0
 14 18  2  0
 11 19  1  0
 13 20  1  0
 20 21  1  0
 20 22  2  0
 21 23  1  0
 23 24  1  0
 25 26  2  0
 27 28  1  0
 28 29  2  0
 25 29  1  0
 26 24  1  0
 24 27  2  0
 26 30  1  0
 29 31  1  0
 27 32  1  0
  1 33  1  1
  2 34  1  0
  2 35  1  0
  3 36  1  6
  5 37  1  1
  8 38  1  0
  8 39  1  0
 12 40  1  0
 15 41  1  0
 15 42  1  0
 16 43  1  0
 16 44  1  0
 19 45  1  0
 21 46  1  0
 23 47  1  0
 23 48  1  0
 25 49  1  0
 28 50  1  0
M  END
> <Uni-Dock RESULT> 
ENERGY=   -4.352  LOWER_BOUND=    5.907  UPPER_BOUND=    8.982
INTER + INTRA:          -4.352
INTER:                  -4.352
INTRA:                   0.000
UNBOUND:                 0.000

$$$$

     RDKit          3D

 50 54  0  0  0  0  0  0  0  0999 V2000
   43.6519    5.0472   11.1932 C   0  0  1  0  0  0  0  0  0  0  0  0
   43.0280    3.7573   11.6977 C   0  0  0  0  0  0  0  0  0  0  0  0
   44.1850    2.8217   11.4042 C   0  0  2  0  0  0  0  0  0  0  0  0
   45.2148    3.0812   12.3636 O   0  0  0  0  0  0  0  0  0  0  0  0
   45.7666    4.4039   12.3500 C   0  0  1  0  0  0  0  0  0  0  0  0
   44.7499    5.4148   12.0874 N   0  0  0  0  0  0  0  0  0  0  0  0
   45.0743    6.7551   12.2459 C   0  0  0  0  0  0  0  0  0  0  0  0
   46.4681    4.6623   13.6904 C   0  0  0  0  0  0  0  0  0  0  0  0
   46.9987    6.0359   13.7285 N   0  0  0  0  0  0  0  0  0  0  0  0
   46.3095    7.0736   13.0768 C   0  0  0  0  0  0  0  0  0  0  0  0
   46.6947    8.3694   13.1497 C   0  0  0  0  0  0  0  0  0  0  0  0
   48.0913    6.3496   14.5235 C   0  0  0  0  0  0  0  0  0  0  0  0
   48.5962    7.5819   14.6903 C   0  0  0  0  0  0  0  0  0  0  0  0
   47.9180    8.6909   13.9668 C   0  0  0  0  0  0  0  0  0  0  0  0
   44.6083    3.1806    9.9744 C   0  0  0  0  0  0  0  0  0  0  0  0
   44.1923    4.6517    9.8113 C   0  0  0  0  0  0  0  0  0  0  0  0
   44.4050    7.6651   11.7541 O   0  0  0  0  0  0  0  0  0  0  0  0
   48.3501    9.8419   14.0396 O   0  0  0  0  0  0  0  0  0  0  0  0
   46.0561    9.4336   12.5313 O   0  0  0  0  0  0  0  0  0  0  0  0
   49.7824    7.7489   15.5761 C   0  0  0  0  0  0  0  0  0  0  0  0
   50.2061    9.0380   15.7590 N   0  0  0  0  0  0  0  0  0  0  0  0
   50.3381    6.7849   16.0967 O   0  0  0  0  0  0  0  0  0  0  0  0
   51.4078    9.3402   16.4978 C   0  0  0  0  0  0  0  0  0  0  0  0
   51.5381   10.8071   16.7653 C   0  0  0  0  0  0  0  0  0  0  0  0
   51.0819   12.7470   18.1596 C   0  0  0  0  0  0  0  0  0  0  0  0
   50.9879   11.3811   17.9135 C   0  0  0  0  0  0  0  0  0  0  0  0
   52.1825   11.6498   15.8569 C   0  0  0  0  0  0  0  0  0  0  0  0
   52.2880   13.0182   16.0829 C   0  0  0  0  0  0  0  0  0  0  0  0
   51.7342   13.5539   17.2374 C   0  0  0  0  0  0  0  0  0  0  0  0
   50.3559   10.6097   18.8090 F   0  0  0  0  0  0  0  0  0  0  0  0
   51.8312   14.8697   17.4656 F   0  0  0  0  0  0  0  0  0  0  0  0
   52.7180   11.1399   14.7390 F   0  0  0  0  0  0  0  0  0  0  0  0
   42.9213    5.8589   11.1262 H   0  0  0  0  0  0  0  0  0  0  0  0
   42.7799    3.8045   12.7631 H   0  0  0  0  0  0  0  0  0  0  0  0
   42.1349    3.4904   11.1223 H   0  0  0  0  0  0  0  0  0  0  0  0
   43.9028    1.7690   11.4941 H   0  0  0  0  0  0  0  0  0  0  0  0
   46.5105    4.4634   11.5445 H   0  0  0  0  0  0  0  0  0  0  0  0
   47.2674    3.9229   13.8274 H   0  0  0  0  0  0  0  0  0  0  0  0
   45.7637    4.5220   14.5207 H   0  0  0  0  0  0  0  0  0  0  0  0
   48.5347    5.4924   15.0290 H   0  0  0  0  0  0  0  0  0  0  0  0
   44.0642    2.5698    9.2452 H   0  0  0  0  0  0  0  0  0  0  0  0
   45.6810    3.0430    9.8071 H   0  0  0  0  0  0  0  0  0  0  0  0
   45.0266    5.2788    9.4804 H   0  0  0  0  0  0  0  0  0  0  0  0
   43.3977    4.7230    9.0592 H   0  0  0  0  0  0  0  0  0  0  0  0
   45.2533    9.0950   12.0773 H   0  0  0  0  0  0  0  0  0  0  0  0
   49.7665    9.7730   15.2020 H   0  0  0  0  0  0  0  0  0  0  0  0
   51.4061    8.7718   17.4357 H   0  0  0  0  0  0  0  0  0  0  0  0
   52.2629    8.9732   15.9177 H   0  0  0  0  0  0  0  0  0  0  0  0
   50.6500   13.1746   19.0571 H   0  0  0  0  0  0  0  0  0  0  0  0
   52.7921   13.6566   15.3664 H   0  0  0  0  0  0  0  0  0  0  0  0
  1  2  1  0
  2  3  1  0
  3  4  1  0
  4  5  1  0
  5  6  1  0
  1  6  1  0
  8  9  1  0
  9 10  1  0
  7 10  1  0
  5  8  1  0
  7  6  1  0
 12 13  2  0
 13 14  1  0
 11 14  1  0
  9 12  1  0
 11 10  2  0
  3 15  1  0
  1 16  1  0
 16 15  1  0
  7 17  2  0
 14 18  2  0
 11 19  1  0
 13 20  1  0
 20 21  1  0
 20 22  2  0
 21 23  1  0
 23 24  1  0
 25 26  2  0
 27 28  1  0
 28 29  2  0
 25 29  1  0
 26 24  1  0
 24 27  2  0
 26 30  1  0
 29 31  1  0
 27 32  1  0
  1 33  1  1
  2 34  1  0
  2 35  1  0
  3 36  1  6
  5 37  1  1
  8 38  1  0
  8 39  1  0
 12 40  1  0
 15 41  1  0
 15 42  1  0
 16 43  1  0
 16 44  1  0
 19 45  1  0
 21 46  1  0
 23 47  1  0
 23 48  1  0
 25 49  1  0
 28 50  1  0
M  END
> <Uni-Dock RESULT> 
ENERGY=   -4.298  LOWER_BOUND=    7.145  UPPER_BOUND=   10.636
INTER + INTRA:          -4.298
INTER:                  -4.298
INTRA:                   0.000
UNBOUND:                 0.000

$$$$

     RDKit          3D

 50 54  0  0  0  0  0  0  0  0999 V2000
   52.7101   11.3693   16.1665 C   0  0  1  0  0  0  0  0  0  0  0  0
   52.5293   12.6238   17.0039 C   0  0  0  0  0  0  0  0  0  0  0  0
   52.2717   13.6068   15.8781 C   0  0  2  0  0  0  0  0  0  0  0  0
   50.9555   13.3615   15.3725 O   0  0  0  0  0  0  0  0  0  0  0  0
   50.7290   12.0600   14.8165 C   0  0  1  0  0  0  0  0  0  0  0  0
   51.4224   11.0200   15.5664 N   0  0  0  0  0  0  0  0  0  0  0  0
   51.1432    9.6888   15.2895 C   0  0  0  0  0  0  0  0  0  0  0  0
   49.2178   11.7951   14.7742 C   0  0  0  0  0  0  0  0  0  0  0  0
   48.9548   10.4408   14.2580 N   0  0  0  0  0  0  0  0  0  0  0  0
   49.8508    9.3949   14.5405 C   0  0  0  0  0  0  0  0  0  0  0  0
   49.6210    8.1123   14.1732 C   0  0  0  0  0  0  0  0  0  0  0  0
   47.7581   10.1474   13.6208 C   0  0  0  0  0  0  0  0  0  0  0  0
   47.3905    8.9303   13.1909 C   0  0  0  0  0  0  0  0  0  0  0  0
   48.3463    7.8153   13.4287 C   0  0  0  0  0  0  0  0  0  0  0  0
   53.3652   13.2974   14.8481 C   0  0  0  0  0  0  0  0  0  0  0  0
   53.7044   11.8166   15.0852 C   0  0  0  0  0  0  0  0  0  0  0  0
   51.8866    8.7674   15.6309 O   0  0  0  0  0  0  0  0  0  0  0  0
   48.0949    6.6791   13.0254 O   0  0  0  0  0  0  0  0  0  0  0  0
   50.4649    7.0410   14.4242 O   0  0  0  0  0  0  0  0  0  0  0  0
   46.0700    8.7848   12.5165 C   0  0  0  0  0  0  0  0  0  0  0  0
   45.7245    7.5077   12.1640 N   0  0  0  0  0  0  0  0  0  0  0  0
   45.3512    9.7554   12.2920 O   0  0  0  0  0  0  0  0  0  0  0  0
   44.5294    7.2310   11.4047 C   0  0  0  0  0  0  0  0  0  0  0  0
   44.2398    5.7638   11.3447 C   0  0  0  0  0  0  0  0  0  0  0  0
   43.2051    3.7763   12.2904 C   0  0  0  0  0  0  0  0  0  0  0  0
   43.4600    5.1433   12.3233 C   0  0  0  0  0  0  0  0  0  0  0  0
   44.7706    4.9665   10.3283 C   0  0  0  0  0  0  0  0  0  0  0  0
   44.5287    3.5978   10.2762 C   0  0  0  0  0  0  0  0  0  0  0  0
   43.7446    3.0153   11.2624 C   0  0  0  0  0  0  0  0  0  0  0  0
   42.9356    5.8702   13.3198 F   0  0  0  0  0  0  0  0  0  0  0  0
   43.5042    1.6987   11.2211 F   0  0  0  0  0  0  0  0  0  0  0  0
   45.5303    5.5217    9.3737 F   0  0  0  0  0  0  0  0  0  0  0  0
   53.0998   10.5339   16.7558 H   0  0  0  0  0  0  0  0  0  0  0  0
   51.6862   12.5424   17.6978 H   0  0  0  0  0  0  0  0  0  0  0  0
   53.4408   12.8722   17.5583 H   0  0  0  0  0  0  0  0  0  0  0  0
   52.3113   14.6464   16.2154 H   0  0  0  0  0  0  0  0  0  0  0  0
   51.1191   12.0463   13.7902 H   0  0  0  0  0  0  0  0  0  0  0  0
   48.7352   12.5591   14.1515 H   0  0  0  0  0  0  0  0  0  0  0  0
   48.7875   11.8903   15.7797 H   0  0  0  0  0  0  0  0  0  0  0  0
   47.1034   11.0076   13.4855 H   0  0  0  0  0  0  0  0  0  0  0  0
   54.2571   13.9055   15.0366 H   0  0  0  0  0  0  0  0  0  0  0  0
   53.0365   13.4771   13.8200 H   0  0  0  0  0  0  0  0  0  0  0  0
   53.6325   11.2278   14.1650 H   0  0  0  0  0  0  0  0  0  0  0  0
   54.7321   11.7349   15.4585 H   0  0  0  0  0  0  0  0  0  0  0  0
   51.2271    7.3614   14.9548 H   0  0  0  0  0  0  0  0  0  0  0  0
   46.4229    6.7708   12.2782 H   0  0  0  0  0  0  0  0  0  0  0  0
   43.6874    7.7765   11.8477 H   0  0  0  0  0  0  0  0  0  0  0  0
   44.6659    7.6421   10.3973 H   0  0  0  0  0  0  0  0  0  0  0  0
   42.5963    3.3122   13.0579 H   0  0  0  0  0  0  0  0  0  0  0  0
   44.9491    2.9950    9.4794 H   0  0  0  0  0  0  0  0  0  0  0  0
  1  2  1  0
  2  3  1  0
  3  4  1  0
  4  5  1  0
  5  6  1  0
  1  6  1  0
  8  9  1  0
  9 10  1  0
  7 10  1  0
  5  8  1  0
  7  6  1  0
 12 13  2  0
 13 14  1  0
 11 14  1  0
  9 12  1  0
 11 10  2  0
  3 15  1  0
  1 16  1  0
 16 15  1  0
  7 17  2  0
 14 18  2  0
 11 19  1  0
 13 20  1  0
 20 21  1  0
 20 22  2  0
 21 23  1  0
 23 24  1  0
 25 26  2  0
 27 28  1  0
 28 29  2  0
 25 29  1  0
 26 24  1  0
 24 27  2  0
 26 30  1  0
 29 31  1  0
 27 32  1  0
  1 33  1  1
  2 34  1  0
  2 35  1  0
  3 36  1  6
  5 37  1  1
  8 38  1  0
  8 39  1  0
 12 40  1  0
 15 41  1  0
 15 42  1  0
 16 43  1  0
 16 44  1  0
 19 45  1  0
 21 46  1  0
 23 47  1  0
 23 48  1  0
 25 49  1  0
 28 50  1  0
M  END
> <Uni-Dock RESULT> 
ENERGY=   -4.289  LOWER_BOUND=    5.651  UPPER_BOUND=    8.467
INTER + INTRA:          -4.289
INTER:                  -4.289
INTRA:                   0.000
UNBOUND:                 0.000

$$$$

     RDKit          3D

 50 54  0  0  0  0  0  0  0  0999 V2000
   43.5614    5.7283   12.0223 C   0  0  1  0  0  0  0  0  0  0  0  0
   42.9605    4.5644   12.7916 C   0  0  0  0  0  0  0  0  0  0  0  0
   43.9446    3.4894   12.3720 C   0  0  2  0  0  0  0  0  0  0  0  0
   45.1776    3.7299   13.0579 O   0  0  0  0  0  0  0  0  0  0  0  0
   45.8188    4.9805   12.7765 C   0  0  1  0  0  0  0  0  0  0  0  0
   44.8551    6.0625   12.6181 N   0  0  0  0  0  0  0  0  0  0  0  0
   45.3146    7.3705   12.5494 C   0  0  0  0  0  0  0  0  0  0  0  0
   46.8161    5.2904   13.9013 C   0  0  0  0  0  0  0  0  0  0  0  0
   47.4523    6.5984   13.6687 N   0  0  0  0  0  0  0  0  0  0  0  0
   46.7238    7.6358   13.0606 C   0  0  0  0  0  0  0  0  0  0  0  0
   47.2199    8.8853   12.9013 C   0  0  0  0  0  0  0  0  0  0  0  0
   48.7146    6.8704   14.1754 C   0  0  0  0  0  0  0  0  0  0  0  0
   49.3425    8.0535   14.0895 C   0  0  0  0  0  0  0  0  0  0  0  0
   48.6147    9.1535   13.4013 C   0  0  0  0  0  0  0  0  0  0  0  0
   44.0716    3.6646   10.8536 C   0  0  0  0  0  0  0  0  0  0  0  0
   43.7513    5.1489   10.6129 C   0  0  0  0  0  0  0  0  0  0  0  0
   44.6300    8.2945   12.1072 O   0  0  0  0  0  0  0  0  0  0  0  0
   49.1446   10.2547   13.2487 O   0  0  0  0  0  0  0  0  0  0  0  0
   46.5500    9.9468   12.3119 O   0  0  0  0  0  0  0  0  0  0  0  0
   50.7037    8.1791   14.6818 C   0  0  0  0  0  0  0  0  0  0  0  0
   51.2608    9.4284   14.6219 N   0  0  0  0  0  0  0  0  0  0  0  0
   51.2797    7.2161   15.1820 O   0  0  0  0  0  0  0  0  0  0  0  0
   52.6160    9.6723   15.0527 C   0  0  0  0  0  0  0  0  0  0  0  0
   52.9209   11.1362   15.1159 C   0  0  0  0  0  0  0  0  0  0  0  0
   52.9415   13.2368   16.3417 C   0  0  0  0  0  0  0  0  0  0  0  0
   52.6847   11.8711   16.2799 C   0  0  0  0  0  0  0  0  0  0  0  0
   53.4167   11.8169   14.0017 C   0  0  0  0  0  0  0  0  0  0  0  0
   53.6803   13.1820   14.0412 C   0  0  0  0  0  0  0  0  0  0  0  0
   53.4390   13.8799   15.2165 C   0  0  0  0  0  0  0  0  0  0  0  0
   52.2040   11.2585   17.3708 F   0  0  0  0  0  0  0  0  0  0  0  0
   53.6907   15.1941   15.2660 F   0  0  0  0  0  0  0  0  0  0  0  0
   53.6504   11.1499   12.8628 F   0  0  0  0  0  0  0  0  0  0  0  0
   42.9026    6.6018   12.0168 H   0  0  0  0  0  0  0  0  0  0  0  0
   42.9569    4.7383   13.8726 H   0  0  0  0  0  0  0  0  0  0  0  0
   41.9441    4.3388   12.4508 H   0  0  0  0  0  0  0  0  0  0  0  0
   43.6042    2.4852   12.6399 H   0  0  0  0  0  0  0  0  0  0  0  0
   46.3701    4.8851   11.8317 H   0  0  0  0  0  0  0  0  0  0  0  0
   47.5630    4.4879   13.9521 H   0  0  0  0  0  0  0  0  0  0  0  0
   46.3020    5.3040   14.8712 H   0  0  0  0  0  0  0  0  0  0  0  0
   49.1867    6.0235   14.6722 H   0  0  0  0  0  0  0  0  0  0  0  0
   43.3328    3.0475   10.3301 H   0  0  0  0  0  0  0  0  0  0  0  0
   45.0666    3.4005   10.4823 H   0  0  0  0  0  0  0  0  0  0  0  0
   44.5408    5.6512   10.0444 H   0  0  0  0  0  0  0  0  0  0  0  0
   42.8195    5.2311   10.0409 H   0  0  0  0  0  0  0  0  0  0  0  0
   45.6423    9.6522   12.0784 H   0  0  0  0  0  0  0  0  0  0  0  0
   50.7712   10.1491   14.0885 H   0  0  0  0  0  0  0  0  0  0  0  0
   52.7738    9.1989   16.0293 H   0  0  0  0  0  0  0  0  0  0  0  0
   53.2901    9.1645   14.3526 H   0  0  0  0  0  0  0  0  0  0  0  0
   52.7534   13.7906   17.2543 H   0  0  0  0  0  0  0  0  0  0  0  0
   54.0652   13.6933   13.1663 H   0  0  0  0  0  0  0  0  0  0  0  0
  1  2  1  0
  2  3  1  0
  3  4  1  0
  4  5  1  0
  5  6  1  0
  1  6  1  0
  8  9  1  0
  9 10  1  0
  7 10  1  0
  5  8  1  0
  7  6  1  0
 12 13  2  0
 13 14  1  0
 11 14  1  0
  9 12  1  0
 11 10  2  0
  3 15  1  0
  1 16  1  0
 16 15  1  0
  7 17  2  0
 14 18  2  0
 11 19  1  0
 13 20  1  0
 20 21  1  0
 20 22  2  0
 21 23  1  0
 23 24  1  0
 25 26  2  0
 27 28  1  0
 28 29  2  0
 25 29  1  0
 26 24  1  0
 24 27  2  0
 26 30  1  0
 29 31  1  0
 27 32  1  0
  1 33  1  1
  2 34  1  0
  2 35  1  0
  3 36  1  6
  5 37  1  1
  8 38  1  0
  8 39  1  0
 12 40  1  0
 15 41  1  0
 15 42  1  0
 16 43  1  0
 16 44  1  0
 19 45  1  0
 21 46  1  0
 23 47  1  0
 23 48  1  0
 25 49  1  0
 28 50  1  0
M  END
> <Uni-Dock RESULT> 
ENERGY=   -4.178  LOWER_BOUND=    7.057  UPPER_BOUND=   10.631
INTER + INTRA:          -4.178
INTER:                  -4.178
INTRA:                   0.000
UNBOUND:                 0.000

$$$$

     RDKit          3D

 50 54  0  0  0  0  0  0  0  0999 V2000
   47.9104    5.5120   21.6062 C   0  0  1  0  0  0  0  0  0  0  0  0
   47.1094    5.3616   22.8881 C   0  0  0  0  0  0  0  0  0  0  0  0
   47.9533    6.2492   23.7825 C   0  0  2  0  0  0  0  0  0  0  0  0
   47.7120    7.6089   23.4066 O   0  0  0  0  0  0  0  0  0  0  0  0
   48.0625    7.9601   22.0619 C   0  0  1  0  0  0  0  0  0  0  0  0
   47.7641    6.8854   21.1236 N   0  0  0  0  0  0  0  0  0  0  0  0
   47.8476    7.1368   19.7611 C   0  0  0  0  0  0  0  0  0  0  0  0
   47.3233    9.2491   21.6774 C   0  0  0  0  0  0  0  0  0  0  0  0
   47.6204    9.6063   20.2796 N   0  0  0  0  0  0  0  0  0  0  0  0
   47.8272    8.5952   19.3248 C   0  0  0  0  0  0  0  0  0  0  0  0
   48.0140    8.8552   18.0095 C   0  0  0  0  0  0  0  0  0  0  0  0
   47.5530   10.9260   19.8578 C   0  0  0  0  0  0  0  0  0  0  0  0
   47.7237   11.3420   18.5932 C   0  0  0  0  0  0  0  0  0  0  0  0
   47.9988   10.2959   17.5718 C   0  0  0  0  0  0  0  0  0  0  0  0
   49.3951    5.8077   23.5018 C   0  0  0  0  0  0  0  0  0  0  0  0
   49.3522    5.2544   22.0680 C   0  0  0  0  0  0  0  0  0  0  0  0
   47.9267    6.2385   18.9216 O   0  0  0  0  0  0  0  0  0  0  0  0
   48.2067   10.6067   16.3983 O   0  0  0  0  0  0  0  0  0  0  0  0
   48.2209    7.9023   17.0235 O   0  0  0  0  0  0  0  0  0  0  0  0
   47.6260   12.8007   18.3067 C   0  0  0  0  0  0  0  0  0  0  0  0
   47.7410   13.1526   16.9885 N   0  0  0  0  0  0  0  0  0  0  0  0
   47.4595   13.6234   19.2037 O   0  0  0  0  0  0  0  0  0  0  0  0
   47.7794   14.5347   16.5765 C   0  0  0  0  0  0  0  0  0  0  0  0
   47.6701   14.6717   15.0901 C   0  0  0  0  0  0  0  0  0  0  0  0
   46.3108   14.8846   13.0845 C   0  0  0  0  0  0  0  0  0  0  0  0
   46.4249   14.7814   14.4669 C   0  0  0  0  0  0  0  0  0  0  0  0
   48.8080   14.6578   14.2805 C   0  0  0  0  0  0  0  0  0  0  0  0
   48.7171   14.7594   12.8962 C   0  0  0  0  0  0  0  0  0  0  0  0
   47.4635   14.8726   12.3111 C   0  0  0  0  0  0  0  0  0  0  0  0
   45.3068   14.7932   15.2058 F   0  0  0  0  0  0  0  0  0  0  0  0
   47.3646   14.9725   10.9794 F   0  0  0  0  0  0  0  0  0  0  0  0
   50.0216   14.5468   14.8384 F   0  0  0  0  0  0  0  0  0  0  0  0
   47.5964    4.7984   20.8386 H   0  0  0  0  0  0  0  0  0  0  0  0
   46.0812    5.7221   22.7804 H   0  0  0  0  0  0  0  0  0  0  0  0
   47.1017    4.3236   23.2382 H   0  0  0  0  0  0  0  0  0  0  0  0
   47.6928    6.1440   24.8394 H   0  0  0  0  0  0  0  0  0  0  0  0
   49.1437    8.1471   22.0206 H   0  0  0  0  0  0  0  0  0  0  0  0
   47.6179   10.0523   22.3648 H   0  0  0  0  0  0  0  0  0  0  0  0
   46.2401    9.1150   21.7955 H   0  0  0  0  0  0  0  0  0  0  0  0
   47.3417   11.6378   20.6550 H   0  0  0  0  0  0  0  0  0  0  0  0
   49.6948    5.0074   24.1876 H   0  0  0  0  0  0  0  0  0  0  0  0
   50.1117    6.6293   23.5966 H   0  0  0  0  0  0  0  0  0  0  0  0
   50.1008    5.7272   21.4241 H   0  0  0  0  0  0  0  0  0  0  0  0
   49.5566    4.1773   22.0883 H   0  0  0  0  0  0  0  0  0  0  0  0
   48.1578    7.0112   17.4322 H   0  0  0  0  0  0  0  0  0  0  0  0
   47.9939   12.4260   16.3163 H   0  0  0  0  0  0  0  0  0  0  0  0
   46.9727   15.0824   17.0786 H   0  0  0  0  0  0  0  0  0  0  0  0
   48.7183   14.9699   16.9392 H   0  0  0  0  0  0  0  0  0  0  0  0
   45.3360   14.9704   12.6184 H   0  0  0  0  0  0  0  0  0  0  0  0
   49.6115   14.7470   12.2840 H   0  0  0  0  0  0  0  0  0  0  0  0
  1  2  1  0
  2  3  1  0
  3  4  1  0
  4  5  1  0
  5  6  1  0
  1  6  1  0
  8  9  1  0
  9 10  1  0
  7 10  1  0
  5  8  1  0
  7  6  1  0
 12 13  2  0
 13 14  1  0
 11 14  1  0
  9 12  1  0
 11 10  2  0
  3 15  1  0
  1 16  1  0
 16 15  1  0
  7 17  2  0
 14 18  2  0
 11 19  1  0
 13 20  1  0
 20 21  1  0
 20 22  2  0
 21 23  1  0
 23 24  1  0
 25 26  2  0
 27 28  1  0
 28 29  2  0
 25 29  1  0
 26 24  1  0
 24 27  2  0
 26 30  1  0
 29 31  1  0
 27 32  1  0
  1 33  1  1
  2 34  1  0
  2 35  1  0
  3 36  1  6
  5 37  1  1
  8 38  1  0
  8 39  1  0
 12 40  1  0
 15 41  1  0
 15 42  1  0
 16 43  1  0
 16 44  1  0
 19 45  1  0
 21 46  1  0
 23 47  1  0
 23 48  1  0
 25 49  1  0
 28 50  1  0
M  END
> <Uni-Dock RESULT> 
ENERGY=   -4.088  LOWER_BOUND=    8.487  UPPER_BOUND=   12.616
INTER + INTRA:          -4.088
INTER:                  -4.088
INTRA:                   0.000
UNBOUND:                 0.000

$$$$

     RDKit          3D

 50 54  0  0  0  0  0  0  0  0999 V2000
   47.8532    3.1252   16.6404 C   0  0  1  0  0  0  0  0  0  0  0  0
   47.7272    3.0870   18.1537 C   0  0  0  0  0  0  0  0  0  0  0  0
   49.1305    3.5427   18.5047 C   0  0  2  0  0  0  0  0  0  0  0  0
   49.2220    4.9426   18.2218 O   0  0  0  0  0  0  0  0  0  0  0  0
   49.0168    5.3215   16.8548 C   0  0  1  0  0  0  0  0  0  0  0  0
   47.9789    4.5202   16.2182 N   0  0  0  0  0  0  0  0  0  0  0  0
   47.5120    4.8933   14.9654 C   0  0  0  0  0  0  0  0  0  0  0  0
   48.6707    6.8158   16.8011 C   0  0  0  0  0  0  0  0  0  0  0  0
   48.3994    7.2239   15.4120 N   0  0  0  0  0  0  0  0  0  0  0  0
   47.7913    6.3223   14.5209 C   0  0  0  0  0  0  0  0  0  0  0  0
   47.4338    6.6645   13.2609 C   0  0  0  0  0  0  0  0  0  0  0  0
   48.5994    8.5360   15.0089 C   0  0  0  0  0  0  0  0  0  0  0  0
   48.3048    9.0238   13.7938 C   0  0  0  0  0  0  0  0  0  0  0  0
   47.7107    8.0754   12.8136 C   0  0  0  0  0  0  0  0  0  0  0  0
   50.0391    2.6989   17.6021 C   0  0  0  0  0  0  0  0  0  0  0  0
   49.1626    2.3649   16.3839 C   0  0  0  0  0  0  0  0  0  0  0  0
   46.8897    4.1247   14.2305 O   0  0  0  0  0  0  0  0  0  0  0  0
   47.4525    8.4415   11.6664 O   0  0  0  0  0  0  0  0  0  0  0  0
   46.8313    5.8213   12.3395 O   0  0  0  0  0  0  0  0  0  0  0  0
   48.5889   10.4600   13.5177 C   0  0  0  0  0  0  0  0  0  0  0  0
   48.2021   10.9119   12.2844 N   0  0  0  0  0  0  0  0  0  0  0  0
   49.1398   11.1786   14.3479 O   0  0  0  0  0  0  0  0  0  0  0  0
   48.5150   12.2475   11.8375 C   0  0  0  0  0  0  0  0  0  0  0  0
   47.7941   12.5898   10.5713 C   0  0  0  0  0  0  0  0  0  0  0  0
   45.8338   13.4667    9.4295 C   0  0  0  0  0  0  0  0  0  0  0  0
   46.5227   13.1672   10.6002 C   0  0  0  0  0  0  0  0  0  0  0  0
   48.3568   12.3086    9.3242 C   0  0  0  0  0  0  0  0  0  0  0  0
   47.6856   12.5995    8.1412 C   0  0  0  0  0  0  0  0  0  0  0  0
   46.4258   13.1784    8.2075 C   0  0  0  0  0  0  0  0  0  0  0  0
   45.9433   13.4485   11.7756 F   0  0  0  0  0  0  0  0  0  0  0  0
   45.7714   13.4639    7.0747 F   0  0  0  0  0  0  0  0  0  0  0  0
   49.5721   11.7480    9.2525 F   0  0  0  0  0  0  0  0  0  0  0  0
   47.0028    2.6476   16.1445 H   0  0  0  0  0  0  0  0  0  0  0  0
   46.9543    3.7686   18.5238 H   0  0  0  0  0  0  0  0  0  0  0  0
   47.5282    2.0723   18.5154 H   0  0  0  0  0  0  0  0  0  0  0  0
   49.3621    3.4005   19.5640 H   0  0  0  0  0  0  0  0  0  0  0  0
   49.9511    5.1551   16.3026 H   0  0  0  0  0  0  0  0  0  0  0  0
   49.4989    7.3934   17.2311 H   0  0  0  0  0  0  0  0  0  0  0  0
   47.7876    7.0233   17.4195 H   0  0  0  0  0  0  0  0  0  0  0  0
   49.0304    9.1768   15.7774 H   0  0  0  0  0  0  0  0  0  0  0  0
   50.3267    1.7685   18.1044 H   0  0  0  0  0  0  0  0  0  0  0  0
   50.9509    3.2294   17.3107 H   0  0  0  0  0  0  0  0  0  0  0  0
   49.6457    2.6462   15.4425 H   0  0  0  0  0  0  0  0  0  0  0  0
   48.9746    1.2851   16.3571 H   0  0  0  0  0  0  0  0  0  0  0  0
   46.6633    4.9553   12.7718 H   0  0  0  0  0  0  0  0  0  0  0  0
   47.8573   10.2289   11.6075 H   0  0  0  0  0  0  0  0  0  0  0  0
   48.2658   12.9606   12.6326 H   0  0  0  0  0  0  0  0  0  0  0  0
   49.6006   12.3115   11.6965 H   0  0  0  0  0  0  0  0  0  0  0  0
   44.8483   13.9162    9.4715 H   0  0  0  0  0  0  0  0  0  0  0  0
   48.1384   12.3743    7.1824 H   0  0  0  0  0  0  0  0  0  0  0  0
  1  2  1  0
  2  3  1  0
  3  4  1  0
  4  5  1  0
  5  6  1  0
  1  6  1  0
  8  9  1  0
  9 10  1  0
  7 10  1  0
  5  8  1  0
  7  6  1  0
 12 13  2  0
 13 14  1  0
 11 14  1  0
  9 12  1  0
 11 10  2  0
  3 15  1  0
  1 16  1  0
 16 15  1  0
  7 17  2  0
 14 18  2  0
 11 19  1  0
 13 20  1  0
 20 21  1  0
 20 22  2  0
 21 23  1  0
 23 24  1  0
 25 26  2  0
 27 28  1  0
 28 29  2  0
 25 29  1  0
 26 24  1  0
 24 27  2  0
 26 30  1  0
 29 31  1  0
 27 32  1  0
  1 33  1  1
  2 34  1  0
  2 35  1  0
  3 36  1  6
  5 37  1  1
  8 38  1  0
  8 39  1  0
 12 40  1  0
 15 41  1  0
 15 42  1  0
 16 43  1  0
 16 44  1  0
 19 45  1  0
 21 46  1  0
 23 47  1  0
 23 48  1  0
 25 49  1  0
 28 50  1  0
M  END
> <Uni-Dock RESULT> 
ENERGY=   -3.936  LOWER_BOUND=    5.885  UPPER_BOUND=   11.019
INTER + INTRA:          -3.936
INTER:                  -3.936
INTRA:                   0.000
UNBOUND:                 0.000

$$$$

     RDKit          3D

 50 54  0  0  0  0  0  0  0  0999 V2000
   44.3682    4.1111   12.6934 C   0  0  1  0  0  0  0  0  0  0  0  0
   44.0179    3.6944   11.2752 C   0  0  0  0  0  0  0  0  0  0  0  0
   43.5438    5.0395   10.7595 C   0  0  2  0  0  0  0  0  0  0  0  0
   44.6941    5.8715   10.5786 O   0  0  0  0  0  0  0  0  0  0  0  0
   45.4586    6.1509   11.7584 C   0  0  1  0  0  0  0  0  0  0  0  0
   45.5320    4.9964   12.6451 N   0  0  0  0  0  0  0  0  0  0  0  0
   46.4026    5.0299   13.7256 C   0  0  0  0  0  0  0  0  0  0  0  0
   46.8605    6.6166   11.3420 C   0  0  0  0  0  0  0  0  0  0  0  0
   47.6895    6.8590   12.5352 N   0  0  0  0  0  0  0  0  0  0  0  0
   47.5171    6.0661   13.6833 C   0  0  0  0  0  0  0  0  0  0  0  0
   48.3062    6.1780   14.7776 C   0  0  0  0  0  0  0  0  0  0  0  0
   48.7417    7.7619   12.4932 C   0  0  0  0  0  0  0  0  0  0  0  0
   49.6029    7.9910   13.4968 C   0  0  0  0  0  0  0  0  0  0  0  0
   49.4081    7.2037   14.7439 C   0  0  0  0  0  0  0  0  0  0  0  0
   42.6090    5.5582   11.8592 C   0  0  0  0  0  0  0  0  0  0  0  0
   43.1209    4.8856   13.1435 C   0  0  0  0  0  0  0  0  0  0  0  0
   46.3050    4.2615   14.6837 O   0  0  0  0  0  0  0  0  0  0  0  0
   50.1345    7.3896   15.7210 O   0  0  0  0  0  0  0  0  0  0  0  0
   48.1856    5.4249   15.9358 O   0  0  0  0  0  0  0  0  0  0  0  0
   50.6776    9.0025   13.2927 C   0  0  0  0  0  0  0  0  0  0  0  0
   51.5638    9.1394   14.3273 N   0  0  0  0  0  0  0  0  0  0  0  0
   50.7488    9.6673   12.2621 O   0  0  0  0  0  0  0  0  0  0  0  0
   52.5858   10.1577   14.3164 C   0  0  0  0  0  0  0  0  0  0  0  0
   53.5710    9.9640   15.4263 C   0  0  0  0  0  0  0  0  0  0  0  0
   55.6184    8.9675   16.2812 C   0  0  0  0  0  0  0  0  0  0  0  0
   54.7091    9.1740   15.2490 C   0  0  0  0  0  0  0  0  0  0  0  0
   53.3624   10.5384   16.6822 C   0  0  0  0  0  0  0  0  0  0  0  0
   54.2584   10.3450   17.7284 C   0  0  0  0  0  0  0  0  0  0  0  0
   55.3819    9.5582   17.5150 C   0  0  0  0  0  0  0  0  0  0  0  0
   54.9450    8.5993   14.0614 F   0  0  0  0  0  0  0  0  0  0  0  0
   56.2517    9.3666   18.5148 F   0  0  0  0  0  0  0  0  0  0  0  0
   52.2789   11.2977   16.8961 F   0  0  0  0  0  0  0  0  0  0  0  0
   44.5659    3.2498   13.3384 H   0  0  0  0  0  0  0  0  0  0  0  0
   44.8858    3.3117   10.7281 H   0  0  0  0  0  0  0  0  0  0  0  0
   43.2152    2.9492   11.2616 H   0  0  0  0  0  0  0  0  0  0  0  0
   43.0345    4.9600    9.7950 H   0  0  0  0  0  0  0  0  0  0  0  0
   44.9657    6.9628   12.3094 H   0  0  0  0  0  0  0  0  0  0  0  0
   46.7721    7.5220   10.7281 H   0  0  0  0  0  0  0  0  0  0  0  0
   47.3421    5.8559   10.7137 H   0  0  0  0  0  0  0  0  0  0  0  0
   48.8303    8.2985   11.5492 H   0  0  0  0  0  0  0  0  0  0  0  0
   41.5776    5.2388   11.6723 H   0  0  0  0  0  0  0  0  0  0  0  0
   42.6224    6.6493   11.9415 H   0  0  0  0  0  0  0  0  0  0  0  0
   43.3295    5.6153   13.9326 H   0  0  0  0  0  0  0  0  0  0  0  0
   42.3591    4.1918   13.5184 H   0  0  0  0  0  0  0  0  0  0  0  0
   47.4678    4.7666   15.8069 H   0  0  0  0  0  0  0  0  0  0  0  0
   51.3717    8.6369   15.1958 H   0  0  0  0  0  0  0  0  0  0  0  0
   53.0899   10.1511   13.3424 H   0  0  0  0  0  0  0  0  0  0  0  0
   52.0922   11.1333   14.4003 H   0  0  0  0  0  0  0  0  0  0  0  0
   56.4970    8.3523   16.1247 H   0  0  0  0  0  0  0  0  0  0  0  0
   54.0799   10.7991   18.6963 H   0  0  0  0  0  0  0  0  0  0  0  0
  1  2  1  0
  2  3  1  0
  3  4  1  0
  4  5  1  0
  5  6  1  0
  1  6  1  0
  8  9  1  0
  9 10  1  0
  7 10  1  0
  5  8  1  0
  7  6  1  0
 12 13  2  0
 13 14  1  0
 11 14  1  0
  9 12  1  0
 11 10  2  0
  3 15  1  0
  1 16  1  0
 16 15  1  0
  7 17  2  0
 14 18  2  0
 11 19  1  0
 13 20  1  0
 20 21  1  0
 20 22  2  0
 21 23  1  0
 23 24  1  0
 25 26  2  0
 27 28  1  0
 28 29  2  0
 25 29  1  0
 26 24  1  0
 24 27  2  0
 26 30  1  0
 29 31  1  0
 27 32  1  0
  1 33  1  1
  2 34  1  0
  2 35  1  0
  3 36  1  6
  5 37  1  1
  8 38  1  0
  8 39  1  0
 12 40  1  0
 15 41  1  0
 15 42  1  0
 16 43  1  0
 16 44  1  0
 19 45  1  0
 21 46  1  0
 23 47  1  0
 23 48  1  0
 25 49  1  0
 28 50  1  0
M  END
> <Uni-Dock RESULT> 
ENERGY=   -3.901  LOWER_BOUND=    7.825  UPPER_BOUND=   10.811
INTER + INTRA:          -3.901
INTER:                  -3.901
INTRA:                   0.000
UNBOUND:                 0.000

$$$$
