
     RDKit          3D

 50 54  0  0  0  0  0  0  0  0999 V2000
   49.4545    6.3256   18.4760 C   0  0  1  0  0  0  0  0  0  0  0  0
   50.0004    5.2136   19.3549 C   0  0  0  0  0  0  0  0  0  0  0  0
   48.6818    4.6720   19.8715 C   0  0  2  0  0  0  0  0  0  0  0  0
   48.0518    3.9575   18.8038 O   0  0  0  0  0  0  0  0  0  0  0  0
   47.7351    4.7258   17.6351 C   0  0  1  0  0  0  0  0  0  0  0  0
   48.7511    5.7247   17.3425 N   0  0  0  0  0  0  0  0  0  0  0  0
   48.7019    6.4195   16.1325 C   0  0  0  0  0  0  0  0  0  0  0  0
   47.5632    3.7686   16.4502 C   0  0  0  0  0  0  0  0  0  0  0  0
   47.2550    4.5308   15.2287 N   0  0  0  0  0  0  0  0  0  0  0  0
   47.8094    5.8174   15.0430 C   0  0  0  0  0  0  0  0  0  0  0  0
   47.5715    6.5330   13.9220 C   0  0  0  0  0  0  0  0  0  0  0  0
   46.5034    3.9562   14.2120 C   0  0  0  0  0  0  0  0  0  0  0  0
   46.1977    4.5468   13.0466 C   0  0  0  0  0  0  0  0  0  0  0  0
   46.7246    5.9169   12.8515 C   0  0  0  0  0  0  0  0  0  0  0  0
   47.8949    5.9205   20.2888 C   0  0  0  0  0  0  0  0  0  0  0  0
   48.4616    7.0418   19.4030 C   0  0  0  0  0  0  0  0  0  0  0  0
   49.3651    7.4386   15.9598 O   0  0  0  0  0  0  0  0  0  0  0  0
   46.4985    6.5727   11.8321 O   0  0  0  0  0  0  0  0  0  0  0  0
   48.0361    7.8084   13.6689 O   0  0  0  0  0  0  0  0  0  0  0  0
   45.3738    3.8006   12.0570 C   0  0  0  0  0  0  0  0  0  0  0  0
   45.0870    4.4754   10.9003 N   0  0  0  0  0  0  0  0  0  0  0  0
   44.9885    2.6564   12.2789 O   0  0  0  0  0  0  0  0  0  0  0  0
   44.3773    3.8701    9.7956 C   0  0  0  0  0  0  0  0  0  0  0  0
   45.3184    3.3104    8.7709 C   0  0  0  0  0  0  0  0  0  0  0  0
   47.0591    3.6441    7.1017 C   0  0  0  0  0  0  0  0  0  0  0  0
   46.1759    4.1472    8.0509 C   0  0  0  0  0  0  0  0  0  0  0  0
   45.3641    1.9413    8.4992 C   0  0  0  0  0  0  0  0  0  0  0  0
   46.2400    1.4166    7.5539 C   0  0  0  0  0  0  0  0  0  0  0  0
   47.0829    2.2771    6.8645 C   0  0  0  0  0  0  0  0  0  0  0  0
   46.1522    5.4698    8.2700 F   0  0  0  0  0  0  0  0  0  0  0  0
   47.9282    1.7813    5.9520 F   0  0  0  0  0  0  0  0  0  0  0  0
   44.5436    1.1012    9.1443 F   0  0  0  0  0  0  0  0  0  0  0  0
   50.2446    6.9990   18.1313 H   0  0  0  0  0  0  0  0  0  0  0  0
   50.5692    4.4730   18.7831 H   0  0  0  0  0  0  0  0  0  0  0  0
   50.6212    5.6098   20.1658 H   0  0  0  0  0  0  0  0  0  0  0  0
   48.8149    3.9767   20.7050 H   0  0  0  0  0  0  0  0  0  0  0  0
   46.7881    5.2526   17.8115 H   0  0  0  0  0  0  0  0  0  0  0  0
   48.4801    3.1856   16.2939 H   0  0  0  0  0  0  0  0  0  0  0  0
   46.7681    3.0484   16.6816 H   0  0  0  0  0  0  0  0  0  0  0  0
   46.1588    2.9462   14.4316 H   0  0  0  0  0  0  0  0  0  0  0  0
   48.0831    6.1629   21.3407 H   0  0  0  0  0  0  0  0  0  0  0  0
   46.8159    5.8023   20.1498 H   0  0  0  0  0  0  0  0  0  0  0  0
   47.6728    7.5728   18.8603 H   0  0  0  0  0  0  0  0  0  0  0  0
   48.9878    7.7701   20.0314 H   0  0  0  0  0  0  0  0  0  0  0  0
   47.7122    8.0428   12.7752 H   0  0  0  0  0  0  0  0  0  0  0  0
   45.4881    5.4023   10.7550 H   0  0  0  0  0  0  0  0  0  0  0  0
   43.6967    3.1003   10.1753 H   0  0  0  0  0  0  0  0  0  0  0  0
   43.7587    4.6491    9.3359 H   0  0  0  0  0  0  0  0  0  0  0  0
   47.7180    4.3095    6.5557 H   0  0  0  0  0  0  0  0  0  0  0  0
   46.2616    0.3504    7.3586 H   0  0  0  0  0  0  0  0  0  0  0  0
  1  2  1  0
  2  3  1  0
  3  4  1  0
  4  5  1  0
  5  6  1  0
  1  6  1  0
  8  9  1  0
  9 10  1  0
  7 10  1  0
  5  8  1  0
  7  6  1  0
 12 13  2  0
 13 14  1  0
 11 14  1  0
  9 12  1  0
 11 10  2  0
  3 15  1  0
  1 16  1  0
 16 15  1  0
  7 17  2  0
 14 18  2  0
 11 19  1  0
 13 20  1  0
 20 21  1  0
 20 22  2  0
 21 23  1  0
 23 24  1  0
 25 26  2  0
 27 28  1  0
 28 29  2  0
 25 29  1  0
 26 24  1  0
 24 27  2  0
 26 30  1  0
 29 31  1  0
 27 32  1  0
  1 33  1  1
  2 34  1  0
  2 35  1  0
  3 36  1  6
  5 37  1  1
  8 38  1  0
  8 39  1  0
 12 40  1  0
 15 41  1  0
 15 42  1  0
 16 43  1  0
 16 44  1  0
 19 45  1  0
 21 46  1  0
 23 47  1  0
 23 48  1  0
 25 49  1  0
 28 50  1  0
M  END
> <Uni-Dock RESULT> 
ENERGY=   -7.318  LOWER_BOUND=    0.000  UPPER_BOUND=    0.000
INTER + INTRA:          -7.318
INTER:                  -7.318
INTRA:                   0.000
UNBOUND:                 0.000

$$$$

     RDKit          3D

 50 54  0  0  0  0  0  0  0  0999 V2000
   43.4653    4.7140   10.9290 C   0  0  1  0  0  0  0  0  0  0  0  0
   43.2176    3.4024   11.6539 C   0  0  0  0  0  0  0  0  0  0  0  0
   44.5864    2.7800   11.4594 C   0  0  2  0  0  0  0  0  0  0  0  0
   45.5036    3.4567   12.3243 O   0  0  0  0  0  0  0  0  0  0  0  0
   45.6690    4.8615   12.0885 C   0  0  1  0  0  0  0  0  0  0  0  0
   44.4223    5.5043   11.7037 N   0  0  0  0  0  0  0  0  0  0  0  0
   44.3617    6.8974   11.6336 C   0  0  0  0  0  0  0  0  0  0  0  0
   46.2402    5.5079   13.3557 C   0  0  0  0  0  0  0  0  0  0  0  0
   46.4043    6.9568   13.1509 N   0  0  0  0  0  0  0  0  0  0  0  0
   45.4938    7.6592   12.3295 C   0  0  0  0  0  0  0  0  0  0  0  0
   45.5969    8.9933   12.1424 C   0  0  0  0  0  0  0  0  0  0  0  0
   47.3879    7.6571   13.8369 C   0  0  0  0  0  0  0  0  0  0  0  0
   47.5984    8.9797   13.7526 C   0  0  0  0  0  0  0  0  0  0  0  0
   46.6885    9.7291   12.8563 C   0  0  0  0  0  0  0  0  0  0  0  0
   44.9004    3.0070    9.9755 C   0  0  0  0  0  0  0  0  0  0  0  0
   44.0942    4.2618    9.6031 C   0  0  0  0  0  0  0  0  0  0  0  0
   43.4311    7.4632   11.0662 O   0  0  0  0  0  0  0  0  0  0  0  0
   46.7899   10.9451   12.6788 O   0  0  0  0  0  0  0  0  0  0  0  0
   44.7810    9.7565   11.3310 O   0  0  0  0  0  0  0  0  0  0  0  0
   48.7016    9.5841   14.5477 C   0  0  0  0  0  0  0  0  0  0  0  0
   48.8670   10.9350   14.3948 N   0  0  0  0  0  0  0  0  0  0  0  0
   49.4043    8.9021   15.2880 O   0  0  0  0  0  0  0  0  0  0  0  0
   49.8287   11.6980   15.1586 C   0  0  0  0  0  0  0  0  0  0  0  0
   49.2086   12.3100   16.3792 C   0  0  0  0  0  0  0  0  0  0  0  0
   47.6116   13.8460   17.3880 C   0  0  0  0  0  0  0  0  0  0  0  0
   48.2017   13.2730   16.2666 C   0  0  0  0  0  0  0  0  0  0  0  0
   49.6196   11.9440   17.6626 C   0  0  0  0  0  0  0  0  0  0  0  0
   49.0429   12.5044   18.7982 C   0  0  0  0  0  0  0  0  0  0  0  0
   48.0396   13.4514   18.6477 C   0  0  0  0  0  0  0  0  0  0  0  0
   47.7892   13.6641   15.0522 F   0  0  0  0  0  0  0  0  0  0  0  0
   47.4797   13.9971   19.7346 F   0  0  0  0  0  0  0  0  0  0  0  0
   50.5996   11.0443   17.8227 F   0  0  0  0  0  0  0  0  0  0  0  0
   42.5390    5.2730   10.7679 H   0  0  0  0  0  0  0  0  0  0  0  0
   42.9647    3.5517   12.7087 H   0  0  0  0  0  0  0  0  0  0  0  0
   42.4324    2.8151   11.1657 H   0  0  0  0  0  0  0  0  0  0  0  0
   44.6024    1.7185   11.7215 H   0  0  0  0  0  0  0  0  0  0  0  0
   46.3827    4.9941   11.2648 H   0  0  0  0  0  0  0  0  0  0  0  0
   45.5708    5.3343   14.2083 H   0  0  0  0  0  0  0  0  0  0  0  0
   47.1963    5.0299   13.6041 H   0  0  0  0  0  0  0  0  0  0  0  0
   48.0103    7.0342   14.4786 H   0  0  0  0  0  0  0  0  0  0  0  0
   44.5502    2.1620    9.3721 H   0  0  0  0  0  0  0  0  0  0  0  0
   45.9700    3.1440    9.7891 H   0  0  0  0  0  0  0  0  0  0  0  0
   44.7229    5.0301    9.1412 H   0  0  0  0  0  0  0  0  0  0  0  0
   43.3110    3.9905    8.8854 H   0  0  0  0  0  0  0  0  0  0  0  0
   45.0954   10.6794   11.4211 H   0  0  0  0  0  0  0  0  0  0  0  0
   48.2105   11.4512   13.8086 H   0  0  0  0  0  0  0  0  0  0  0  0
   50.6786   11.0584   15.4205 H   0  0  0  0  0  0  0  0  0  0  0  0
   50.2111   12.4915   14.5067 H   0  0  0  0  0  0  0  0  0  0  0  0
   46.8301   14.5894   17.2795 H   0  0  0  0  0  0  0  0  0  0  0  0
   49.3748   12.2057   19.7861 H   0  0  0  0  0  0  0  0  0  0  0  0
  1  2  1  0
  2  3  1  0
  3  4  1  0
  4  5  1  0
  5  6  1  0
  1  6  1  0
  8  9  1  0
  9 10  1  0
  7 10  1  0
  5  8  1  0
  7  6  1  0
 12 13  2  0
 13 14  1  0
 11 14  1  0
  9 12  1  0
 11 10  2  0
  3 15  1  0
  1 16  1  0
 16 15  1  0
  7 17  2  0
 14 18  2  0
 11 19  1  0
 13 20  1  0
 20 21  1  0
 20 22  2  0
 21 23  1  0
 23 24  1  0
 25 26  2  0
 27 28  1  0
 28 29  2  0
 25 29  1  0
 26 24  1  0
 24 27  2  0
 26 30  1  0
 29 31  1  0
 27 32  1  0
  1 33  1  1
  2 34  1  0
  2 35  1  0
  3 36  1  6
  5 37  1  1
  8 38  1  0
  8 39  1  0
 12 40  1  0
 15 41  1  0
 15 42  1  0
 16 43  1  0
 16 44  1  0
 19 45  1  0
 21 46  1  0
 23 47  1  0
 23 48  1  0
 25 49  1  0
 28 50  1  0
M  END
> <Uni-Dock RESULT> 
ENERGY=   -5.116  LOWER_BOUND=    5.410  UPPER_BOUND=    9.899
INTER + INTRA:          -5.116
INTER:                  -5.116
INTRA:                   0.000
UNBOUND:                 0.000

$$$$

     RDKit          3D

 50 54  0  0  0  0  0  0  0  0999 V2000
   53.1048    8.3593   16.3385 C   0  0  1  0  0  0  0  0  0  0  0  0
   53.4656    7.5552   17.5755 C   0  0  0  0  0  0  0  0  0  0  0  0
   52.3640    8.0516   18.4915 C   0  0  2  0  0  0  0  0  0  0  0  0
   51.1361    7.4528   18.0662 O   0  0  0  0  0  0  0  0  0  0  0  0
   50.7141    7.7655   16.7318 C   0  0  1  0  0  0  0  0  0  0  0  0
   51.8349    7.8612   15.8096 N   0  0  0  0  0  0  0  0  0  0  0  0
   51.5890    7.9588   14.4387 C   0  0  0  0  0  0  0  0  0  0  0  0
   49.7230    6.6927   16.2663 C   0  0  0  0  0  0  0  0  0  0  0  0
   49.2848    6.9766   14.8896 N   0  0  0  0  0  0  0  0  0  0  0  0
   50.1794    7.5782   13.9759 C   0  0  0  0  0  0  0  0  0  0  0  0
   49.8208    7.8266   12.6972 C   0  0  0  0  0  0  0  0  0  0  0  0
   48.0316    6.5680   14.4521 C   0  0  0  0  0  0  0  0  0  0  0  0
   47.5497    6.7420   13.2119 C   0  0  0  0  0  0  0  0  0  0  0  0
   48.4509    7.4180   12.2508 C   0  0  0  0  0  0  0  0  0  0  0  0
   52.3717    9.5739   18.3058 C   0  0  0  0  0  0  0  0  0  0  0  0
   52.9334    9.7822   16.8901 C   0  0  0  0  0  0  0  0  0  0  0  0
   52.4730    8.3049   13.6597 O   0  0  0  0  0  0  0  0  0  0  0  0
   48.1187    7.6529   11.0868 O   0  0  0  0  0  0  0  0  0  0  0  0
   50.6098    8.4431   11.7465 O   0  0  0  0  0  0  0  0  0  0  0  0
   46.1796    6.2532   12.8980 C   0  0  0  0  0  0  0  0  0  0  0  0
   45.7502    6.4838   11.6181 N   0  0  0  0  0  0  0  0  0  0  0  0
   45.4958    5.6812   13.7419 O   0  0  0  0  0  0  0  0  0  0  0  0
   44.4846    5.9966   11.1166 C   0  0  0  0  0  0  0  0  0  0  0  0
   44.6363    4.6831   10.4090 C   0  0  0  0  0  0  0  0  0  0  0  0
   45.5482    3.3708    8.5722 C   0  0  0  0  0  0  0  0  0  0  0  0
   45.3921    4.5820    9.2375 C   0  0  0  0  0  0  0  0  0  0  0  0
   44.0248    3.5242   10.8919 C   0  0  0  0  0  0  0  0  0  0  0  0
   44.1678    2.3020   10.2423 C   0  0  0  0  0  0  0  0  0  0  0  0
   44.9330    2.2382    9.0863 C   0  0  0  0  0  0  0  0  0  0  0  0
   45.9827    5.6743    8.7315 F   0  0  0  0  0  0  0  0  0  0  0  0
   45.0751    1.0666    8.4536 F   0  0  0  0  0  0  0  0  0  0  0  0
   43.2686    3.5748   11.9969 F   0  0  0  0  0  0  0  0  0  0  0  0
   53.8889    8.3119   15.5773 H   0  0  0  0  0  0  0  0  0  0  0  0
   53.4170    6.4758   17.3985 H   0  0  0  0  0  0  0  0  0  0  0  0
   54.4583    7.8227   17.9538 H   0  0  0  0  0  0  0  0  0  0  0  0
   52.5298    7.7674   19.5344 H   0  0  0  0  0  0  0  0  0  0  0  0
   50.2080    8.7398   16.7466 H   0  0  0  0  0  0  0  0  0  0  0  0
   50.1899    5.6998   16.3024 H   0  0  0  0  0  0  0  0  0  0  0  0
   48.8713    6.6651   16.9578 H   0  0  0  0  0  0  0  0  0  0  0  0
   47.4336    6.0744   15.2175 H   0  0  0  0  0  0  0  0  0  0  0  0
   53.0407   10.0490   19.0320 H   0  0  0  0  0  0  0  0  0  0  0  0
   51.3760   10.0148   18.4142 H   0  0  0  0  0  0  0  0  0  0  0  0
   52.2748   10.4050   16.2760 H   0  0  0  0  0  0  0  0  0  0  0  0
   53.9066   10.2829   16.9556 H   0  0  0  0  0  0  0  0  0  0  0  0
   50.0797    8.4600   10.9234 H   0  0  0  0  0  0  0  0  0  0  0  0
   46.3915    6.9120   10.9500 H   0  0  0  0  0  0  0  0  0  0  0  0
   43.7670    5.9254   11.9411 H   0  0  0  0  0  0  0  0  0  0  0  0
   44.0981    6.7457   10.4165 H   0  0  0  0  0  0  0  0  0  0  0  0
   46.1407    3.3128    7.6663 H   0  0  0  0  0  0  0  0  0  0  0  0
   43.6864    1.4131   10.6342 H   0  0  0  0  0  0  0  0  0  0  0  0
  1  2  1  0
  2  3  1  0
  3  4  1  0
  4  5  1  0
  5  6  1  0
  1  6  1  0
  8  9  1  0
  9 10  1  0
  7 10  1  0
  5  8  1  0
  7  6  1  0
 12 13  2  0
 13 14  1  0
 11 14  1  0
  9 12  1  0
 11 10  2  0
  3 15  1  0
  1 16  1  0
 16 15  1  0
  7 17  2  0
 14 18  2  0
 11 19  1  0
 13 20  1  0
 20 21  1  0
 20 22  2  0
 21 23  1  0
 23 24  1  0
 25 26  2  0
 27 28  1  0
 28 29  2  0
 25 29  1  0
 26 24  1  0
 24 27  2  0
 26 30  1  0
 29 31  1  0
 27 32  1  0
  1 33  1  1
  2 34  1  0
  2 35  1  0
  3 36  1  6
  5 37  1  1
  8 38  1  0
  8 39  1  0
 12 40  1  0
 15 41  1  0
 15 42  1  0
 16 43  1  0
 16 44  1  0
 19 45  1  0
 21 46  1  0
 23 47  1  0
 23 48  1  0
 25 49  1  0
 28 50  1  0
M  END
> <Uni-Dock RESULT> 
ENERGY=   -5.080  LOWER_BOUND=    2.764  UPPER_BOUND=    3.582
INTER + INTRA:          -5.080
INTER:                  -5.080
INTRA:                   0.000
UNBOUND:                 0.000

$$$$
