
     RDKit          3D

 50 54  0  0  0  0  0  0  0  0999 V2000
   47.7069    3.4965   15.8993 C   0  0  1  0  0  0  0  0  0  0  0  0
   46.8544    4.0642   17.0341 C   0  0  0  0  0  0  0  0  0  0  0  0
   47.8628    5.0627   17.5904 C   0  0  2  0  0  0  0  0  0  0  0  0
   48.0334    6.1439   16.6506 O   0  0  0  0  0  0  0  0  0  0  0  0
   48.5578    5.7417   15.3755 C   0  0  1  0  0  0  0  0  0  0  0  0
   47.8375    4.5737   14.9077 N   0  0  0  0  0  0  0  0  0  0  0  0
   46.7798    4.6877   13.9978 C   0  0  0  0  0  0  0  0  0  0  0  0
   48.6132    6.9065   14.3800 C   0  0  0  0  0  0  0  0  0  0  0  0
   47.3102    7.1578   13.7514 N   0  0  0  0  0  0  0  0  0  0  0  0
   46.4421    6.0833   13.4818 C   0  0  0  0  0  0  0  0  0  0  0  0
   45.2848    6.2637   12.8063 C   0  0  0  0  0  0  0  0  0  0  0  0
   47.0031    8.4247   13.2696 C   0  0  0  0  0  0  0  0  0  0  0  0
   45.8969    8.7471   12.5829 C   0  0  0  0  0  0  0  0  0  0  0  0
   44.9505    7.6404   12.3211 C   0  0  0  0  0  0  0  0  0  0  0  0
   49.1346    4.2163   17.7425 C   0  0  0  0  0  0  0  0  0  0  0  0
   49.0308    3.1719   16.6136 C   0  0  0  0  0  0  0  0  0  0  0  0
   46.1415    3.6905   13.6645 O   0  0  0  0  0  0  0  0  0  0  0  0
   43.8928    7.8066   11.7093 O   0  0  0  0  0  0  0  0  0  0  0  0
   44.3520    5.2839   12.5274 O   0  0  0  0  0  0  0  0  0  0  0  0
   45.7108   10.1541   12.1357 C   0  0  0  0  0  0  0  0  0  0  0  0
   44.5395   10.4119   11.4742 N   0  0  0  0  0  0  0  0  0  0  0  0
   46.5633   11.0115   12.3491 O   0  0  0  0  0  0  0  0  0  0  0  0
   44.2348   11.7001   10.8931 C   0  0  0  0  0  0  0  0  0  0  0  0
   44.5909   11.7493    9.4371 C   0  0  0  0  0  0  0  0  0  0  0  0
   44.2499   10.9686    7.1564 C   0  0  0  0  0  0  0  0  0  0  0  0
   43.9275   10.9417    8.5089 C   0  0  0  0  0  0  0  0  0  0  0  0
   45.5895   12.6023    8.9626 C   0  0  0  0  0  0  0  0  0  0  0  0
   45.9283   12.6454    7.6136 C   0  0  0  0  0  0  0  0  0  0  0  0
   45.2534   11.8231    6.7222 C   0  0  0  0  0  0  0  0  0  0  0  0
   42.9520   10.1193    8.9211 F   0  0  0  0  0  0  0  0  0  0  0  0
   45.5721   11.8584    5.4221 F   0  0  0  0  0  0  0  0  0  0  0  0
   46.2375   13.4140    9.8091 F   0  0  0  0  0  0  0  0  0  0  0  0
   47.2631    2.6029   15.4506 H   0  0  0  0  0  0  0  0  0  0  0  0
   46.5983    3.2939   17.7700 H   0  0  0  0  0  0  0  0  0  0  0  0
   45.9388    4.5483   16.6798 H   0  0  0  0  0  0  0  0  0  0  0  0
   47.5406    5.4946   18.5419 H   0  0  0  0  0  0  0  0  0  0  0  0
   49.6048    5.4555   15.5258 H   0  0  0  0  0  0  0  0  0  0  0  0
   48.9713    7.8054   14.8969 H   0  0  0  0  0  0  0  0  0  0  0  0
   49.3269    6.6678   13.5812 H   0  0  0  0  0  0  0  0  0  0  0  0
   47.7543    9.1800   13.4976 H   0  0  0  0  0  0  0  0  0  0  0  0
   49.1390    3.7010   18.7099 H   0  0  0  0  0  0  0  0  0  0  0  0
   50.0512    4.8092   17.6661 H   0  0  0  0  0  0  0  0  0  0  0  0
   49.8950    3.1967   15.9420 H   0  0  0  0  0  0  0  0  0  0  0  0
   48.9841    2.1698   17.0565 H   0  0  0  0  0  0  0  0  0  0  0  0
   43.6353    5.7267   12.0288 H   0  0  0  0  0  0  0  0  0  0  0  0
   43.9034    9.6393   11.2755 H   0  0  0  0  0  0  0  0  0  0  0  0
   43.1584   11.8677   11.0116 H   0  0  0  0  0  0  0  0  0  0  0  0
   44.7471   12.4879   11.4560 H   0  0  0  0  0  0  0  0  0  0  0  0
   43.7253   10.3324    6.4527 H   0  0  0  0  0  0  0  0  0  0  0  0
   46.7076   13.3136    7.2652 H   0  0  0  0  0  0  0  0  0  0  0  0
  1  2  1  0
  2  3  1  0
  3  4  1  0
  4  5  1  0
  5  6  1  0
  1  6  1  0
  8  9  1  0
  9 10  1  0
  7 10  1  0
  5  8  1  0
  7  6  1  0
 12 13  2  0
 13 14  1  0
 11 14  1  0
  9 12  1  0
 11 10  2  0
  3 15  1  0
  1 16  1  0
 16 15  1  0
  7 17  2  0
 14 18  2  0
 11 19  1  0
 13 20  1  0
 20 21  1  0
 20 22  2  0
 21 23  1  0
 23 24  1  0
 25 26  2  0
 27 28  1  0
 28 29  2  0
 25 29  1  0
 26 24  1  0
 24 27  2  0
 26 30  1  0
 29 31  1  0
 27 32  1  0
  1 33  1  6
  2 34  1  0
  2 35  1  0
  3 36  1  6
  5 37  1  1
  8 38  1  0
  8 39  1  0
 12 40  1  0
 15 41  1  0
 15 42  1  0
 16 43  1  0
 16 44  1  0
 19 45  1  0
 21 46  1  0
 23 47  1  0
 23 48  1  0
 25 49  1  0
 28 50  1  0
M  END
> <Uni-Dock RESULT> 
ENERGY=   -5.100  LOWER_BOUND=    0.000  UPPER_BOUND=    0.000
INTER + INTRA:          -5.100
INTER:                  -5.100
INTRA:                   0.000
UNBOUND:                 0.000

$$$$

     RDKit          3D

 50 54  0  0  0  0  0  0  0  0999 V2000
   49.1538    7.0827   18.3885 C   0  0  1  0  0  0  0  0  0  0  0  0
   47.8781    7.8989   18.5962 C   0  0  0  0  0  0  0  0  0  0  0  0
   48.2848    9.1465   17.8207 C   0  0  2  0  0  0  0  0  0  0  0  0
   48.3283    8.8404   16.4116 O   0  0  0  0  0  0  0  0  0  0  0  0
   49.2920    7.8374   16.0539 C   0  0  1  0  0  0  0  0  0  0  0  0
   49.1774    6.7159   16.9653 N   0  0  0  0  0  0  0  0  0  0  0  0
   48.4430    5.5738   16.6244 C   0  0  0  0  0  0  0  0  0  0  0  0
   49.2191    7.4701   14.5671 C   0  0  0  0  0  0  0  0  0  0  0  0
   48.1393    6.5154   14.2868 N   0  0  0  0  0  0  0  0  0  0  0  0
   47.8048    5.5346   15.2391 C   0  0  0  0  0  0  0  0  0  0  0  0
   46.8930    4.5729   14.9710 C   0  0  0  0  0  0  0  0  0  0  0  0
   47.5631    6.4685   13.0229 C   0  0  0  0  0  0  0  0  0  0  0  0
   46.6515    5.5716   12.6181 C   0  0  0  0  0  0  0  0  0  0  0  0
   46.2556    4.5536   13.6160 C   0  0  0  0  0  0  0  0  0  0  0  0
   49.6737    9.4668   18.3910 C   0  0  0  0  0  0  0  0  0  0  0  0
   50.2538    8.0895   18.7690 C   0  0  0  0  0  0  0  0  0  0  0  0
   48.3058    4.6619   17.4382 O   0  0  0  0  0  0  0  0  0  0  0  0
   45.4203    3.6798   13.3725 O   0  0  0  0  0  0  0  0  0  0  0  0
   46.4704    3.5941   15.8491 O   0  0  0  0  0  0  0  0  0  0  0  0
   46.1261    5.6553   11.2284 C   0  0  0  0  0  0  0  0  0  0  0  0
   45.1713    4.7287   10.9029 N   0  0  0  0  0  0  0  0  0  0  0  0
   46.5368    6.5008   10.4387 O   0  0  0  0  0  0  0  0  0  0  0  0
   44.6176    4.6081    9.5729 C   0  0  0  0  0  0  0  0  0  0  0  0
   45.3257    3.5569    8.7713 C   0  0  0  0  0  0  0  0  0  0  0  0
   45.9234    1.2237    8.4157 C   0  0  0  0  0  0  0  0  0  0  0  0
   45.2666    2.2107    9.1427 C   0  0  0  0  0  0  0  0  0  0  0  0
   46.0607    3.8865    7.6306 C   0  0  0  0  0  0  0  0  0  0  0  0
   46.7256    2.9153    6.8883 C   0  0  0  0  0  0  0  0  0  0  0  0
   46.6510    1.5894    7.2921 C   0  0  0  0  0  0  0  0  0  0  0  0
   44.5592    1.8499   10.2231 F   0  0  0  0  0  0  0  0  0  0  0  0
   47.2869    0.6478    6.5835 F   0  0  0  0  0  0  0  0  0  0  0  0
   46.1273    5.1600    7.2194 F   0  0  0  0  0  0  0  0  0  0  0  0
   49.1877    6.1922   19.0231 H   0  0  0  0  0  0  0  0  0  0  0  0
   47.7079    8.1179   19.6562 H   0  0  0  0  0  0  0  0  0  0  0  0
   46.9893    7.4171   18.1765 H   0  0  0  0  0  0  0  0  0  0  0  0
   47.5824    9.9726   17.9618 H   0  0  0  0  0  0  0  0  0  0  0  0
   50.2875    8.2771   16.1823 H   0  0  0  0  0  0  0  0  0  0  0  0
   49.0876    8.3849   13.9760 H   0  0  0  0  0  0  0  0  0  0  0  0
   50.1637    7.0022   14.2619 H   0  0  0  0  0  0  0  0  0  0  0  0
   47.9139    7.2469   12.3463 H   0  0  0  0  0  0  0  0  0  0  0  0
   49.5850   10.0801   19.2951 H   0  0  0  0  0  0  0  0  0  0  0  0
   50.3134    9.9968   17.6788 H   0  0  0  0  0  0  0  0  0  0  0  0
   51.2074    7.8878   18.2708 H   0  0  0  0  0  0  0  0  0  0  0  0
   50.4326    8.0614   19.8506 H   0  0  0  0  0  0  0  0  0  0  0  0
   45.8145    3.0566   15.3601 H   0  0  0  0  0  0  0  0  0  0  0  0
   44.9213    4.0147   11.5876 H   0  0  0  0  0  0  0  0  0  0  0  0
   43.5615    4.3358    9.6802 H   0  0  0  0  0  0  0  0  0  0  0  0
   44.6497    5.5814    9.0715 H   0  0  0  0  0  0  0  0  0  0  0  0
   45.8673    0.1853    8.7218 H   0  0  0  0  0  0  0  0  0  0  0  0
   47.2922    3.1916    6.0065 H   0  0  0  0  0  0  0  0  0  0  0  0
  1  2  1  0
  2  3  1  0
  3  4  1  0
  4  5  1  0
  5  6  1  0
  1  6  1  0
  8  9  1  0
  9 10  1  0
  7 10  1  0
  5  8  1  0
  7  6  1  0
 12 13  2  0
 13 14  1  0
 11 14  1  0
  9 12  1  0
 11 10  2  0
  3 15  1  0
  1 16  1  0
 16 15  1  0
  7 17  2  0
 14 18  2  0
 11 19  1  0
 13 20  1  0
 20 21  1  0
 20 22  2  0
 21 23  1  0
 23 24  1  0
 25 26  2  0
 27 28  1  0
 28 29  2  0
 25 29  1  0
 26 24  1  0
 24 27  2  0
 26 30  1  0
 29 31  1  0
 27 32  1  0
  1 33  1  6
  2 34  1  0
  2 35  1  0
  3 36  1  6
  5 37  1  1
  8 38  1  0
  8 39  1  0
 12 40  1  0
 15 41  1  0
 15 42  1  0
 16 43  1  0
 16 44  1  0
 19 45  1  0
 21 46  1  0
 23 47  1  0
 23 48  1  0
 25 49  1  0
 28 50  1  0
M  END
> <Uni-Dock RESULT> 
ENERGY=   -4.788  LOWER_BOUND=    4.494  UPPER_BOUND=    6.095
INTER + INTRA:          -4.788
INTER:                  -4.788
INTRA:                   0.000
UNBOUND:                 0.000

$$$$

     RDKit          3D

 50 54  0  0  0  0  0  0  0  0999 V2000
   42.9094   11.3249    8.8710 C   0  0  1  0  0  0  0  0  0  0  0  0
   43.9534   10.9024    7.8374 C   0  0  0  0  0  0  0  0  0  0  0  0
   44.9449   12.0410    8.0461 C   0  0  2  0  0  0  0  0  0  0  0  0
   45.5831   11.8899    9.3310 O   0  0  0  0  0  0  0  0  0  0  0  0
   44.6841   11.9566   10.4491 C   0  0  1  0  0  0  0  0  0  0  0  0
   43.5304   11.1188   10.1872 N   0  0  0  0  0  0  0  0  0  0  0  0
   43.4455    9.8179   10.6973 C   0  0  0  0  0  0  0  0  0  0  0  0
   45.3943   11.6785   11.7791 C   0  0  0  0  0  0  0  0  0  0  0  0
   45.5695   10.2409   12.0212 N   0  0  0  0  0  0  0  0  0  0  0  0
   44.5927    9.3302   11.5771 C   0  0  0  0  0  0  0  0  0  0  0  0
   44.6666    8.0140   11.8777 C   0  0  0  0  0  0  0  0  0  0  0  0
   46.6063    9.7932   12.8313 C   0  0  0  0  0  0  0  0  0  0  0  0
   46.8006    8.5218   13.2119 C   0  0  0  0  0  0  0  0  0  0  0  0
   45.8071    7.5398   12.7245 C   0  0  0  0  0  0  0  0  0  0  0  0
   44.0525   13.2886    7.9814 C   0  0  0  0  0  0  0  0  0  0  0  0
   42.6946   12.8108    8.5326 C   0  0  0  0  0  0  0  0  0  0  0  0
   42.4873    9.1026   10.4090 O   0  0  0  0  0  0  0  0  0  0  0  0
   45.8779    6.3388   12.9949 O   0  0  0  0  0  0  0  0  0  0  0  0
   43.7824    7.0395   11.4579 O   0  0  0  0  0  0  0  0  0  0  0  0
   47.9635    8.2000   14.0828 C   0  0  0  0  0  0  0  0  0  0  0  0
   48.1157    6.8755   14.3966 N   0  0  0  0  0  0  0  0  0  0  0  0
   48.7215    9.0767   14.4880 O   0  0  0  0  0  0  0  0  0  0  0  0
   49.1361    6.3969   15.3021 C   0  0  0  0  0  0  0  0  0  0  0  0
   48.6108    6.2455   16.6986 C   0  0  0  0  0  0  0  0  0  0  0  0
   47.1124    5.1596   18.2808 C   0  0  0  0  0  0  0  0  0  0  0  0
   47.6167    5.3081   16.9932 C   0  0  0  0  0  0  0  0  0  0  0  0
   49.0980    7.0299   17.7462 C   0  0  0  0  0  0  0  0  0  0  0  0
   48.6079    6.8981   19.0419 C   0  0  0  0  0  0  0  0  0  0  0  0
   47.6149    5.9620   19.2954 C   0  0  0  0  0  0  0  0  0  0  0  0
   47.1323    4.5248   16.0188 F   0  0  0  0  0  0  0  0  0  0  0  0
   47.1379    5.8275   20.5393 F   0  0  0  0  0  0  0  0  0  0  0  0
   50.0684    7.9256   17.5195 F   0  0  0  0  0  0  0  0  0  0  0  0
   41.9800   10.7546    8.7828 H   0  0  0  0  0  0  0  0  0  0  0  0
   43.5402   10.9054    6.8226 H   0  0  0  0  0  0  0  0  0  0  0  0
   44.3921    9.9221    8.0491 H   0  0  0  0  0  0  0  0  0  0  0  0
   45.7285   12.0567    7.2835 H   0  0  0  0  0  0  0  0  0  0  0  0
   44.3376   12.9930   10.5312 H   0  0  0  0  0  0  0  0  0  0  0  0
   46.3644   12.1909   11.7835 H   0  0  0  0  0  0  0  0  0  0  0  0
   44.7934   12.0834   12.6033 H   0  0  0  0  0  0  0  0  0  0  0  0
   47.2884   10.5791   13.1535 H   0  0  0  0  0  0  0  0  0  0  0  0
   43.9243   13.6150    6.9430 H   0  0  0  0  0  0  0  0  0  0  0  0
   44.4535   14.1281    8.5574 H   0  0  0  0  0  0  0  0  0  0  0  0
   42.3632   13.4005    9.3933 H   0  0  0  0  0  0  0  0  0  0  0  0
   41.9345   12.9126    7.7488 H   0  0  0  0  0  0  0  0  0  0  0  0
   44.1050    6.1983   11.8408 H   0  0  0  0  0  0  0  0  0  0  0  0
   47.4132    6.2078   14.0777 H   0  0  0  0  0  0  0  0  0  0  0  0
   49.4735    5.4225   14.9313 H   0  0  0  0  0  0  0  0  0  0  0  0
   49.9999    7.0697   15.2713 H   0  0  0  0  0  0  0  0  0  0  0  0
   46.3395    4.4284   18.4882 H   0  0  0  0  0  0  0  0  0  0  0  0
   48.9982    7.5174   19.8414 H   0  0  0  0  0  0  0  0  0  0  0  0
  1  2  1  0
  2  3  1  0
  3  4  1  0
  4  5  1  0
  5  6  1  0
  1  6  1  0
  8  9  1  0
  9 10  1  0
  7 10  1  0
  5  8  1  0
  7  6  1  0
 12 13  2  0
 13 14  1  0
 11 14  1  0
  9 12  1  0
 11 10  2  0
  3 15  1  0
  1 16  1  0
 16 15  1  0
  7 17  2  0
 14 18  2  0
 11 19  1  0
 13 20  1  0
 20 21  1  0
 20 22  2  0
 21 23  1  0
 23 24  1  0
 25 26  2  0
 27 28  1  0
 28 29  2  0
 25 29  1  0
 26 24  1  0
 24 27  2  0
 26 30  1  0
 29 31  1  0
 27 32  1  0
  1 33  1  6
  2 34  1  0
  2 35  1  0
  3 36  1  6
  5 37  1  1
  8 38  1  0
  8 39  1  0
 12 40  1  0
 15 41  1  0
 15 42  1  0
 16 43  1  0
 16 44  1  0
 19 45  1  0
 21 46  1  0
 23 47  1  0
 23 48  1  0
 25 49  1  0
 28 50  1  0
M  END
> <Uni-Dock RESULT> 
ENERGY=   -4.545  LOWER_BOUND=    3.801  UPPER_BOUND=    9.265
INTER + INTRA:          -4.545
INTER:                  -4.545
INTRA:                   0.000
UNBOUND:                 0.000

$$$$

     RDKit          3D

 50 54  0  0  0  0  0  0  0  0999 V2000
   42.9098   11.3253    8.8719 C   0  0  1  0  0  0  0  0  0  0  0  0
   43.9537   10.9028    7.8382 C   0  0  0  0  0  0  0  0  0  0  0  0
   44.9453   12.0415    8.0469 C   0  0  2  0  0  0  0  0  0  0  0  0
   45.5835   11.8902    9.3319 O   0  0  0  0  0  0  0  0  0  0  0  0
   44.6845   11.9569   10.4500 C   0  0  1  0  0  0  0  0  0  0  0  0
   43.5308   11.1191   10.1881 N   0  0  0  0  0  0  0  0  0  0  0  0
   43.4459    9.8181   10.6981 C   0  0  0  0  0  0  0  0  0  0  0  0
   45.3949   11.6786   11.7800 C   0  0  0  0  0  0  0  0  0  0  0  0
   45.5700   10.2410   12.0219 N   0  0  0  0  0  0  0  0  0  0  0  0
   44.5932    9.3303   11.5777 C   0  0  0  0  0  0  0  0  0  0  0  0
   44.6671    8.0141   11.8783 C   0  0  0  0  0  0  0  0  0  0  0  0
   46.6068    9.7932   12.8319 C   0  0  0  0  0  0  0  0  0  0  0  0
   46.8012    8.5217   13.2123 C   0  0  0  0  0  0  0  0  0  0  0  0
   45.8076    7.5398   12.7249 C   0  0  0  0  0  0  0  0  0  0  0  0
   44.0529   13.2890    7.9824 C   0  0  0  0  0  0  0  0  0  0  0  0
   42.6949   12.8112    8.5337 C   0  0  0  0  0  0  0  0  0  0  0  0
   42.4877    9.1029   10.4098 O   0  0  0  0  0  0  0  0  0  0  0  0
   45.8784    6.3388   12.9952 O   0  0  0  0  0  0  0  0  0  0  0  0
   43.7828    7.0396   11.4585 O   0  0  0  0  0  0  0  0  0  0  0  0
   47.9641    8.1999   14.0832 C   0  0  0  0  0  0  0  0  0  0  0  0
   48.1163    6.8753   14.3968 N   0  0  0  0  0  0  0  0  0  0  0  0
   48.7222    9.0764   14.4884 O   0  0  0  0  0  0  0  0  0  0  0  0
   49.1367    6.3966   15.3022 C   0  0  0  0  0  0  0  0  0  0  0  0
   48.6115    6.2452   16.6988 C   0  0  0  0  0  0  0  0  0  0  0  0
   47.1132    5.1591   18.2809 C   0  0  0  0  0  0  0  0  0  0  0  0
   47.6174    5.3077   16.9933 C   0  0  0  0  0  0  0  0  0  0  0  0
   49.0988    7.0294   17.7464 C   0  0  0  0  0  0  0  0  0  0  0  0
   48.6088    6.8975   19.0421 C   0  0  0  0  0  0  0  0  0  0  0  0
   47.6158    5.9614   19.2956 C   0  0  0  0  0  0  0  0  0  0  0  0
   47.1330    4.5245   16.0189 F   0  0  0  0  0  0  0  0  0  0  0  0
   47.1388    5.8268   20.5395 F   0  0  0  0  0  0  0  0  0  0  0  0
   50.0692    7.9251   17.5198 F   0  0  0  0  0  0  0  0  0  0  0  0
   41.9803   10.7550    8.7837 H   0  0  0  0  0  0  0  0  0  0  0  0
   43.5404   10.9060    6.8235 H   0  0  0  0  0  0  0  0  0  0  0  0
   44.3924    9.9225    8.0498 H   0  0  0  0  0  0  0  0  0  0  0  0
   45.7288   12.0571    7.2843 H   0  0  0  0  0  0  0  0  0  0  0  0
   44.3381   12.9932   10.5322 H   0  0  0  0  0  0  0  0  0  0  0  0
   46.3649   12.1910   11.7843 H   0  0  0  0  0  0  0  0  0  0  0  0
   44.7939   12.0834   12.6041 H   0  0  0  0  0  0  0  0  0  0  0  0
   47.2890   10.5791   13.1541 H   0  0  0  0  0  0  0  0  0  0  0  0
   43.9246   13.6156    6.9440 H   0  0  0  0  0  0  0  0  0  0  0  0
   44.4539   14.1285    8.5585 H   0  0  0  0  0  0  0  0  0  0  0  0
   42.3636   13.4009    9.3944 H   0  0  0  0  0  0  0  0  0  0  0  0
   41.9348   12.9132    7.7499 H   0  0  0  0  0  0  0  0  0  0  0  0
   44.1054    6.1984   11.8412 H   0  0  0  0  0  0  0  0  0  0  0  0
   47.4137    6.2077   14.0780 H   0  0  0  0  0  0  0  0  0  0  0  0
   49.4741    5.4222   14.9313 H   0  0  0  0  0  0  0  0  0  0  0  0
   50.0005    7.0694   15.2715 H   0  0  0  0  0  0  0  0  0  0  0  0
   46.3403    4.4279   18.4884 H   0  0  0  0  0  0  0  0  0  0  0  0
   48.9991    7.5168   19.8416 H   0  0  0  0  0  0  0  0  0  0  0  0
  1  2  1  0
  2  3  1  0
  3  4  1  0
  4  5  1  0
  5  6  1  0
  1  6  1  0
  8  9  1  0
  9 10  1  0
  7 10  1  0
  5  8  1  0
  7  6  1  0
 12 13  2  0
 13 14  1  0
 11 14  1  0
  9 12  1  0
 11 10  2  0
  3 15  1  0
  1 16  1  0
 16 15  1  0
  7 17  2  0
 14 18  2  0
 11 19  1  0
 13 20  1  0
 20 21  1  0
 20 22  2  0
 21 23  1  0
 23 24  1  0
 25 26  2  0
 27 28  1  0
 28 29  2  0
 25 29  1  0
 26 24  1  0
 24 27  2  0
 26 30  1  0
 29 31  1  0
 27 32  1  0
  1 33  1  6
  2 34  1  0
  2 35  1  0
  3 36  1  6
  5 37  1  1
  8 38  1  0
  8 39  1  0
 12 40  1  0
 15 41  1  0
 15 42  1  0
 16 43  1  0
 16 44  1  0
 19 45  1  0
 21 46  1  0
 23 47  1  0
 23 48  1  0
 25 49  1  0
 28 50  1  0
M  END
> <Uni-Dock RESULT> 
ENERGY=   -4.543  LOWER_BOUND=    3.801  UPPER_BOUND=    9.265
INTER + INTRA:          -4.543
INTER:                  -4.543
INTRA:                   0.000
UNBOUND:                 0.000

$$$$

     RDKit          3D

 50 54  0  0  0  0  0  0  0  0999 V2000
   49.4356    6.0865   16.2836 C   0  0  1  0  0  0  0  0  0  0  0  0
   48.6563    6.8043   17.3855 C   0  0  0  0  0  0  0  0  0  0  0  0
   49.5779    8.0055   17.5620 C   0  0  2  0  0  0  0  0  0  0  0  0
   49.4841    8.8548   16.3996 O   0  0  0  0  0  0  0  0  0  0  0  0
   49.9012    8.2300   15.1756 C   0  0  1  0  0  0  0  0  0  0  0  0
   49.2969    6.9159   15.0780 N   0  0  0  0  0  0  0  0  0  0  0  0
   48.1317    6.7049   14.3313 C   0  0  0  0  0  0  0  0  0  0  0  0
   49.6760    9.1352   13.9587 C   0  0  0  0  0  0  0  0  0  0  0  0
   48.2848    9.0952   13.4910 N   0  0  0  0  0  0  0  0  0  0  0  0
   47.5462    7.9010   13.5868 C   0  0  0  0  0  0  0  0  0  0  0  0
   46.3022    7.7973   13.0673 C   0  0  0  0  0  0  0  0  0  0  0  0
   47.7511   10.1780   12.8023 C   0  0  0  0  0  0  0  0  0  0  0  0
   46.5365   10.2145   12.2342 C   0  0  0  0  0  0  0  0  0  0  0  0
   45.7263    8.9826   12.3560 C   0  0  0  0  0  0  0  0  0  0  0  0
   50.9627    7.3574   17.7003 C   0  0  0  0  0  0  0  0  0  0  0  0
   50.8679    6.0774   16.8466 C   0  0  0  0  0  0  0  0  0  0  0  0
   47.6007    5.5955   14.3153 O   0  0  0  0  0  0  0  0  0  0  0  0
   44.5898    8.8904   11.8863 O   0  0  0  0  0  0  0  0  0  0  0  0
   45.4858    6.6857   13.1437 O   0  0  0  0  0  0  0  0  0  0  0  0
   46.1068   11.4537   11.5313 C   0  0  0  0  0  0  0  0  0  0  0  0
   44.8401   11.4265   11.0110 N   0  0  0  0  0  0  0  0  0  0  0  0
   46.8530   12.4232   11.4295 O   0  0  0  0  0  0  0  0  0  0  0  0
   44.2939   12.5074   10.2215 C   0  0  0  0  0  0  0  0  0  0  0  0
   44.4618   12.2599    8.7519 C   0  0  0  0  0  0  0  0  0  0  0  0
   43.9589   10.9462    6.7647 C   0  0  0  0  0  0  0  0  0  0  0  0
   43.8085   11.1952    8.1247 C   0  0  0  0  0  0  0  0  0  0  0  0
   45.2695   13.0835    7.9649 C   0  0  0  0  0  0  0  0  0  0  0  0
   45.4342   12.8528    6.6025 C   0  0  0  0  0  0  0  0  0  0  0  0
   44.7760   11.7810    6.0156 C   0  0  0  0  0  0  0  0  0  0  0  0
   43.0118   10.3895    8.8416 F   0  0  0  0  0  0  0  0  0  0  0  0
   44.9278   11.5518    4.7051 F   0  0  0  0  0  0  0  0  0  0  0  0
   45.8973   14.1319    8.5146 F   0  0  0  0  0  0  0  0  0  0  0  0
   49.0678    5.0717   16.1054 H   0  0  0  0  0  0  0  0  0  0  0  0
   48.5988    6.2000   18.2977 H   0  0  0  0  0  0  0  0  0  0  0  0
   47.6470    7.0938   17.0761 H   0  0  0  0  0  0  0  0  0  0  0  0
   49.3165    8.6067   18.4372 H   0  0  0  0  0  0  0  0  0  0  0  0
   50.9880    8.0994   15.2266 H   0  0  0  0  0  0  0  0  0  0  0  0
   49.9671   10.1616   14.2144 H   0  0  0  0  0  0  0  0  0  0  0  0
   50.3143    8.7978   13.1322 H   0  0  0  0  0  0  0  0  0  0  0  0
   48.4135   11.0413   12.7512 H   0  0  0  0  0  0  0  0  0  0  0  0
   51.1542    7.0805   18.7434 H   0  0  0  0  0  0  0  0  0  0  0  0
   51.7733    8.0116   17.3652 H   0  0  0  0  0  0  0  0  0  0  0  0
   51.6332    6.0401   16.0647 H   0  0  0  0  0  0  0  0  0  0  0  0
   51.0128    5.2042   17.4939 H   0  0  0  0  0  0  0  0  0  0  0  0
   44.6604    6.9234   12.6742 H   0  0  0  0  0  0  0  0  0  0  0  0
   44.2966   10.5655   11.0770 H   0  0  0  0  0  0  0  0  0  0  0  0
   43.2268   12.5816   10.4597 H   0  0  0  0  0  0  0  0  0  0  0  0
   44.7573   13.4532   10.5224 H   0  0  0  0  0  0  0  0  0  0  0  0
   43.4456   10.1136    6.2976 H   0  0  0  0  0  0  0  0  0  0  0  0
   46.0668   13.5029    6.0089 H   0  0  0  0  0  0  0  0  0  0  0  0
  1  2  1  0
  2  3  1  0
  3  4  1  0
  4  5  1  0
  5  6  1  0
  1  6  1  0
  8  9  1  0
  9 10  1  0
  7 10  1  0
  5  8  1  0
  7  6  1  0
 12 13  2  0
 13 14  1  0
 11 14  1  0
  9 12  1  0
 11 10  2  0
  3 15  1  0
  1 16  1  0
 16 15  1  0
  7 17  2  0
 14 18  2  0
 11 19  1  0
 13 20  1  0
 20 21  1  0
 20 22  2  0
 21 23  1  0
 23 24  1  0
 25 26  2  0
 27 28  1  0
 28 29  2  0
 25 29  1  0
 26 24  1  0
 24 27  2  0
 26 30  1  0
 29 31  1  0
 27 32  1  0
  1 33  1  6
  2 34  1  0
  2 35  1  0
  3 36  1  6
  5 37  1  1
  8 38  1  0
  8 39  1  0
 12 40  1  0
 15 41  1  0
 15 42  1  0
 16 43  1  0
 16 44  1  0
 19 45  1  0
 21 46  1  0
 23 47  1  0
 23 48  1  0
 25 49  1  0
 28 50  1  0
M  END
> <Uni-Dock RESULT> 
ENERGY=   -4.234  LOWER_BOUND=    1.768  UPPER_BOUND=    2.119
INTER + INTRA:          -4.234
INTER:                  -4.234
INTRA:                   0.000
UNBOUND:                 0.000

$$$$

     RDKit          3D

 50 54  0  0  0  0  0  0  0  0999 V2000
   45.3738    5.9850   10.9840 C   0  0  1  0  0  0  0  0  0  0  0  0
   44.2822    6.7513   11.7310 C   0  0  0  0  0  0  0  0  0  0  0  0
   43.6102    5.5674   12.4166 C   0  0  2  0  0  0  0  0  0  0  0  0
   44.4875    5.0438   13.4351 O   0  0  0  0  0  0  0  0  0  0  0  0
   45.7362    4.5383   12.9372 C   0  0  1  0  0  0  0  0  0  0  0  0
   46.3058    5.4965   12.0104 N   0  0  0  0  0  0  0  0  0  0  0  0
   47.2861    6.4088   12.4184 C   0  0  0  0  0  0  0  0  0  0  0  0
   46.6740    4.0990   14.0679 C   0  0  0  0  0  0  0  0  0  0  0  0
   47.3862    5.2348   14.6668 N   0  0  0  0  0  0  0  0  0  0  0  0
   47.7655    6.3273   13.8647 C   0  0  0  0  0  0  0  0  0  0  0  0
   48.5168    7.3375   14.3579 C   0  0  0  0  0  0  0  0  0  0  0  0
   47.8348    5.1602   15.9801 C   0  0  0  0  0  0  0  0  0  0  0  0
   48.5873    6.0833   16.5971 C   0  0  0  0  0  0  0  0  0  0  0  0
   48.9660    7.2602   15.7843 C   0  0  0  0  0  0  0  0  0  0  0  0
   43.4004    4.5771   11.2623 C   0  0  0  0  0  0  0  0  0  0  0  0
   44.5777    4.8553   10.3070 C   0  0  0  0  0  0  0  0  0  0  0  0
   47.7084    7.2548   11.6319 O   0  0  0  0  0  0  0  0  0  0  0  0
   49.6470    8.1835   16.2363 O   0  0  0  0  0  0  0  0  0  0  0  0
   48.9060    8.4668   13.6644 O   0  0  0  0  0  0  0  0  0  0  0  0
   48.9864    5.8587   18.0129 C   0  0  0  0  0  0  0  0  0  0  0  0
   49.7214    6.8634   18.5842 N   0  0  0  0  0  0  0  0  0  0  0  0
   48.6737    4.8331   18.6110 O   0  0  0  0  0  0  0  0  0  0  0  0
   50.2678    6.7727   19.9196 C   0  0  0  0  0  0  0  0  0  0  0  0
   51.6899    6.2966   19.9053 C   0  0  0  0  0  0  0  0  0  0  0  0
   54.0210    6.6387   19.2919 C   0  0  0  0  0  0  0  0  0  0  0  0
   52.6985    7.0681   19.3212 C   0  0  0  0  0  0  0  0  0  0  0  0
   52.0518    5.0744   20.4757 C   0  0  0  0  0  0  0  0  0  0  0  0
   53.3688    4.6254   20.4577 C   0  0  0  0  0  0  0  0  0  0  0  0
   54.3424    5.4148   19.8616 C   0  0  0  0  0  0  0  0  0  0  0  0
   52.3957    8.2548   18.7755 F   0  0  0  0  0  0  0  0  0  0  0  0
   55.6125    4.9912   19.8403 F   0  0  0  0  0  0  0  0  0  0  0  0
   51.1254    4.3100   21.0696 F   0  0  0  0  0  0  0  0  0  0  0  0
   45.8922    6.6074   10.2486 H   0  0  0  0  0  0  0  0  0  0  0  0
   43.6011    7.2594   11.0393 H   0  0  0  0  0  0  0  0  0  0  0  0
   44.6825    7.4766   12.4465 H   0  0  0  0  0  0  0  0  0  0  0  0
   42.6677    5.8438   12.8971 H   0  0  0  0  0  0  0  0  0  0  0  0
   45.5208    3.6182   12.3824 H   0  0  0  0  0  0  0  0  0  0  0  0
   46.0937    3.5633   14.8294 H   0  0  0  0  0  0  0  0  0  0  0  0
   47.4269    3.4084   13.6674 H   0  0  0  0  0  0  0  0  0  0  0  0
   47.5194    4.2598   16.5060 H   0  0  0  0  0  0  0  0  0  0  0  0
   42.4584    4.7874   10.7429 H   0  0  0  0  0  0  0  0  0  0  0  0
   43.3830    3.5347   11.5948 H   0  0  0  0  0  0  0  0  0  0  0  0
   45.1816    3.9619   10.1183 H   0  0  0  0  0  0  0  0  0  0  0  0
   44.1829    5.1980    9.3430 H   0  0  0  0  0  0  0  0  0  0  0  0
   49.4370    8.9995   14.2908 H   0  0  0  0  0  0  0  0  0  0  0  0
   49.9998    7.6600   18.0107 H   0  0  0  0  0  0  0  0  0  0  0  0
   50.2226    7.7744   20.3618 H   0  0  0  0  0  0  0  0  0  0  0  0
   49.6351    6.1215   20.5323 H   0  0  0  0  0  0  0  0  0  0  0  0
   54.7883    7.2506   18.8316 H   0  0  0  0  0  0  0  0  0  0  0  0
   53.6294    3.6729   20.9048 H   0  0  0  0  0  0  0  0  0  0  0  0
  1  2  1  0
  2  3  1  0
  3  4  1  0
  4  5  1  0
  5  6  1  0
  1  6  1  0
  8  9  1  0
  9 10  1  0
  7 10  1  0
  5  8  1  0
  7  6  1  0
 12 13  2  0
 13 14  1  0
 11 14  1  0
  9 12  1  0
 11 10  2  0
  3 15  1  0
  1 16  1  0
 16 15  1  0
  7 17  2  0
 14 18  2  0
 11 19  1  0
 13 20  1  0
 20 21  1  0
 20 22  2  0
 21 23  1  0
 23 24  1  0
 25 26  2  0
 27 28  1  0
 28 29  2  0
 25 29  1  0
 26 24  1  0
 24 27  2  0
 26 30  1  0
 29 31  1  0
 27 32  1  0
  1 33  1  6
  2 34  1  0
  2 35  1  0
  3 36  1  6
  5 37  1  1
  8 38  1  0
  8 39  1  0
 12 40  1  0
 15 41  1  0
 15 42  1  0
 16 43  1  0
 16 44  1  0
 19 45  1  0
 21 46  1  0
 23 47  1  0
 23 48  1  0
 25 49  1  0
 28 50  1  0
M  END
> <Uni-Dock RESULT> 
ENERGY=   -4.065  LOWER_BOUND=    5.488  UPPER_BOUND=    9.939
INTER + INTRA:          -4.065
INTER:                  -4.065
INTRA:                   0.000
UNBOUND:                 0.000

$$$$

     RDKit          3D

 50 54  0  0  0  0  0  0  0  0999 V2000
   53.7627    7.3598    6.5701 C   0  0  1  0  0  0  0  0  0  0  0  0
   55.1776    7.9329    6.4907 C   0  0  0  0  0  0  0  0  0  0  0  0
   54.9760    9.1459    7.3913 C   0  0  2  0  0  0  0  0  0  0  0  0
   54.8079    8.7062    8.7550 O   0  0  0  0  0  0  0  0  0  0  0  0
   53.6568    7.8750    8.9706 C   0  0  1  0  0  0  0  0  0  0  0  0
   53.6022    6.8555    7.9414 N   0  0  0  0  0  0  0  0  0  0  0  0
   54.0914    5.5640    8.1704 C   0  0  0  0  0  0  0  0  0  0  0  0
   53.5877    7.3448   10.4076 C   0  0  0  0  0  0  0  0  0  0  0  0
   54.4540    6.1762   10.6070 N   0  0  0  0  0  0  0  0  0  0  0  0
   54.6435    5.2561    9.5590 C   0  0  0  0  0  0  0  0  0  0  0  0
   55.3442    4.1141    9.7410 C   0  0  0  0  0  0  0  0  0  0  0  0
   54.9497    5.8856   11.8725 C   0  0  0  0  0  0  0  0  0  0  0  0
   55.6558    4.7924   12.1975 C   0  0  0  0  0  0  0  0  0  0  0  0
   55.9007    3.8290   11.1017 C   0  0  0  0  0  0  0  0  0  0  0  0
   53.7011    9.7859    6.8237 C   0  0  0  0  0  0  0  0  0  0  0  0
   52.8913    8.5939    6.2765 C   0  0  0  0  0  0  0  0  0  0  0  0
   54.0937    4.7343    7.2624 O   0  0  0  0  0  0  0  0  0  0  0  0
   56.5441    2.7901   11.2671 O   0  0  0  0  0  0  0  0  0  0  0  0
   55.6169    3.1711    8.7692 O   0  0  0  0  0  0  0  0  0  0  0  0
   56.1201    4.6256   13.6014 C   0  0  0  0  0  0  0  0  0  0  0  0
   56.8669    3.5037   13.8454 N   0  0  0  0  0  0  0  0  0  0  0  0
   55.8382    5.4457   14.4704 O   0  0  0  0  0  0  0  0  0  0  0  0
   57.3234    3.1384   15.1676 C   0  0  0  0  0  0  0  0  0  0  0  0
   56.3925    2.1639   15.8256 C   0  0  0  0  0  0  0  0  0  0  0  0
   55.3503   -0.0352   15.8982 C   0  0  0  0  0  0  0  0  0  0  0  0
   56.2152    0.8786   15.3057 C   0  0  0  0  0  0  0  0  0  0  0  0
   55.6786    2.5058   16.9760 C   0  0  0  0  0  0  0  0  0  0  0  0
   54.8080    1.6073   17.5852 C   0  0  0  0  0  0  0  0  0  0  0  0
   54.6513    0.3423   17.0360 C   0  0  0  0  0  0  0  0  0  0  0  0
   56.8932    0.5053   14.2109 F   0  0  0  0  0  0  0  0  0  0  0  0
   53.8164   -0.5293   17.6159 F   0  0  0  0  0  0  0  0  0  0  0  0
   55.8329    3.7174   17.5269 F   0  0  0  0  0  0  0  0  0  0  0  0
   53.5925    6.5648    5.8380 H   0  0  0  0  0  0  0  0  0  0  0  0
   55.4368    8.2263    5.4673 H   0  0  0  0  0  0  0  0  0  0  0  0
   55.9387    7.2475    6.8769 H   0  0  0  0  0  0  0  0  0  0  0  0
   55.8271    9.8319    7.3638 H   0  0  0  0  0  0  0  0  0  0  0  0
   52.7691    8.5089    8.8660 H   0  0  0  0  0  0  0  0  0  0  0  0
   53.8603    8.1494   11.1019 H   0  0  0  0  0  0  0  0  0  0  0  0
   52.5584    7.0376   10.6322 H   0  0  0  0  0  0  0  0  0  0  0  0
   54.7193    6.6407   12.6232 H   0  0  0  0  0  0  0  0  0  0  0  0
   53.9469   10.4631    5.9977 H   0  0  0  0  0  0  0  0  0  0  0  0
   53.1390   10.3504    7.5738 H   0  0  0  0  0  0  0  0  0  0  0  0
   51.8939    8.5275    6.7228 H   0  0  0  0  0  0  0  0  0  0  0  0
   52.7626    8.7155    5.1944 H   0  0  0  0  0  0  0  0  0  0  0  0
   56.1357    2.4688    9.2117 H   0  0  0  0  0  0  0  0  0  0  0  0
   57.0107    2.8316   13.0912 H   0  0  0  0  0  0  0  0  0  0  0  0
   58.3133    2.6812   15.0587 H   0  0  0  0  0  0  0  0  0  0  0  0
   57.4508    4.0410   15.7750 H   0  0  0  0  0  0  0  0  0  0  0  0
   55.2248   -1.0265   15.4780 H   0  0  0  0  0  0  0  0  0  0  0  0
   54.2617    1.8923   18.4771 H   0  0  0  0  0  0  0  0  0  0  0  0
  1  2  1  0
  2  3  1  0
  3  4  1  0
  4  5  1  0
  5  6  1  0
  1  6  1  0
  8  9  1  0
  9 10  1  0
  7 10  1  0
  5  8  1  0
  7  6  1  0
 12 13  2  0
 13 14  1  0
 11 14  1  0
  9 12  1  0
 11 10  2  0
  3 15  1  0
  1 16  1  0
 16 15  1  0
  7 17  2  0
 14 18  2  0
 11 19  1  0
 13 20  1  0
 20 21  1  0
 20 22  2  0
 21 23  1  0
 23 24  1  0
 25 26  2  0
 27 28  1  0
 28 29  2  0
 25 29  1  0
 26 24  1  0
 24 27  2  0
 26 30  1  0
 29 31  1  0
 27 32  1  0
  1 33  1  6
  2 34  1  0
  2 35  1  0
  3 36  1  6
  5 37  1  1
  8 38  1  0
  8 39  1  0
 12 40  1  0
 15 41  1  0
 15 42  1  0
 16 43  1  0
 16 44  1  0
 19 45  1  0
 21 46  1  0
 23 47  1  0
 23 48  1  0
 25 49  1  0
 28 50  1  0
M  END
> <Uni-Dock RESULT> 
ENERGY=   -3.918  LOWER_BOUND=    9.665  UPPER_BOUND=   13.337
INTER + INTRA:          -3.918
INTER:                  -3.918
INTRA:                   0.000
UNBOUND:                 0.000

$$$$

     RDKit          3D

 50 54  0  0  0  0  0  0  0  0999 V2000
   50.5024    7.3991   22.2525 C   0  0  1  0  0  0  0  0  0  0  0  0
   51.8267    6.8397   21.7330 C   0  0  0  0  0  0  0  0  0  0  0  0
   51.5946    5.3716   22.0707 C   0  0  2  0  0  0  0  0  0  0  0  0
   50.5757    4.8362   21.2009 O   0  0  0  0  0  0  0  0  0  0  0  0
   49.2923    5.4666   21.3357 C   0  0  1  0  0  0  0  0  0  0  0  0
   49.4632    6.9062   21.3372 N   0  0  0  0  0  0  0  0  0  0  0  0
   49.2761    7.6620   20.1738 C   0  0  0  0  0  0  0  0  0  0  0  0
   48.2789    4.9387   20.3134 C   0  0  0  0  0  0  0  0  0  0  0  0
   48.4392    5.5733   18.9990 N   0  0  0  0  0  0  0  0  0  0  0  0
   48.8415    6.9193   18.9139 C   0  0  0  0  0  0  0  0  0  0  0  0
   48.8931    7.5665   17.7279 C   0  0  0  0  0  0  0  0  0  0  0  0
   48.0340    4.9049   17.8499 C   0  0  0  0  0  0  0  0  0  0  0  0
   48.0286    5.4218   16.6121 C   0  0  0  0  0  0  0  0  0  0  0  0
   48.4847    6.8242   16.4931 C   0  0  0  0  0  0  0  0  0  0  0  0
   51.1411    5.4248   23.5364 C   0  0  0  0  0  0  0  0  0  0  0  0
   50.4115    6.7773   23.6574 C   0  0  0  0  0  0  0  0  0  0  0  0
   49.4892    8.8733   20.1831 O   0  0  0  0  0  0  0  0  0  0  0  0
   48.5363    7.4123   15.4104 O   0  0  0  0  0  0  0  0  0  0  0  0
   49.3100    8.8694   17.5370 O   0  0  0  0  0  0  0  0  0  0  0  0
   47.5662    4.5747   15.4795 C   0  0  0  0  0  0  0  0  0  0  0  0
   47.6263    5.1607   14.2429 N   0  0  0  0  0  0  0  0  0  0  0  0
   47.1562    3.4318   15.6608 O   0  0  0  0  0  0  0  0  0  0  0  0
   47.1348    4.5164   13.0457 C   0  0  0  0  0  0  0  0  0  0  0  0
   45.7318    4.9382   12.7255 C   0  0  0  0  0  0  0  0  0  0  0  0
   44.1453    6.6721   12.0898 C   0  0  0  0  0  0  0  0  0  0  0  0
   45.4415    6.2617   12.3820 C   0  0  0  0  0  0  0  0  0  0  0  0
   44.6748    4.0261   12.7563 C   0  0  0  0  0  0  0  0  0  0  0  0
   43.3703    4.4150   12.4675 C   0  0  0  0  0  0  0  0  0  0  0  0
   43.1187    5.7397   12.1383 C   0  0  0  0  0  0  0  0  0  0  0  0
   46.4301    7.1658   12.3264 F   0  0  0  0  0  0  0  0  0  0  0  0
   41.8667    6.1229   11.8580 F   0  0  0  0  0  0  0  0  0  0  0  0
   44.9055    2.7407   13.0558 F   0  0  0  0  0  0  0  0  0  0  0  0
   50.4994    8.4922   22.2963 H   0  0  0  0  0  0  0  0  0  0  0  0
   52.6812    7.2517   22.2814 H   0  0  0  0  0  0  0  0  0  0  0  0
   51.9688    7.0044   20.6602 H   0  0  0  0  0  0  0  0  0  0  0  0
   52.4962    4.7664   21.9415 H   0  0  0  0  0  0  0  0  0  0  0  0
   48.8826    5.1738   22.3089 H   0  0  0  0  0  0  0  0  0  0  0  0
   48.3844    3.8498   20.2309 H   0  0  0  0  0  0  0  0  0  0  0  0
   47.2622    5.1550   20.6651 H   0  0  0  0  0  0  0  0  0  0  0  0
   47.7057    3.8809   18.0248 H   0  0  0  0  0  0  0  0  0  0  0  0
   52.0083    5.4228   24.2066 H   0  0  0  0  0  0  0  0  0  0  0  0
   50.4936    4.5866   23.8114 H   0  0  0  0  0  0  0  0  0  0  0  0
   49.3807    6.6651   24.0082 H   0  0  0  0  0  0  0  0  0  0  0  0
   50.9417    7.4061   24.3827 H   0  0  0  0  0  0  0  0  0  0  0  0
   49.2298    9.0413   16.5767 H   0  0  0  0  0  0  0  0  0  0  0  0
   47.9181    6.1358   14.1714 H   0  0  0  0  0  0  0  0  0  0  0  0
   47.7990    4.8025   12.2224 H   0  0  0  0  0  0  0  0  0  0  0  0
   47.2093    3.4291   13.1562 H   0  0  0  0  0  0  0  0  0  0  0  0
   43.9405    7.7039   11.8281 H   0  0  0  0  0  0  0  0  0  0  0  0
   42.5631    3.6920   12.4982 H   0  0  0  0  0  0  0  0  0  0  0  0
  1  2  1  0
  2  3  1  0
  3  4  1  0
  4  5  1  0
  5  6  1  0
  1  6  1  0
  8  9  1  0
  9 10  1  0
  7 10  1  0
  5  8  1  0
  7  6  1  0
 12 13  2  0
 13 14  1  0
 11 14  1  0
  9 12  1  0
 11 10  2  0
  3 15  1  0
  1 16  1  0
 16 15  1  0
  7 17  2  0
 14 18  2  0
 11 19  1  0
 13 20  1  0
 20 21  1  0
 20 22  2  0
 21 23  1  0
 23 24  1  0
 25 26  2  0
 27 28  1  0
 28 29  2  0
 25 29  1  0
 26 24  1  0
 24 27  2  0
 26 30  1  0
 29 31  1  0
 27 32  1  0
  1 33  1  6
  2 34  1  0
  2 35  1  0
  3 36  1  6
  5 37  1  1
  8 38  1  0
  8 39  1  0
 12 40  1  0
 15 41  1  0
 15 42  1  0
 16 43  1  0
 16 44  1  0
 19 45  1  0
 21 46  1  0
 23 47  1  0
 23 48  1  0
 25 49  1  0
 28 50  1  0
M  END
> <Uni-Dock RESULT> 
ENERGY=   -3.860  LOWER_BOUND=    4.440  UPPER_BOUND=    7.316
INTER + INTRA:          -3.860
INTER:                  -3.860
INTRA:                   0.000
UNBOUND:                 0.000

$$$$

     RDKit          3D

 50 54  0  0  0  0  0  0  0  0999 V2000
   49.3011   11.9467   22.2205 C   0  0  1  0  0  0  0  0  0  0  0  0
   50.7571   12.0515   21.7668 C   0  0  0  0  0  0  0  0  0  0  0  0
   51.2650   10.7368   22.3471 C   0  0  2  0  0  0  0  0  0  0  0  0
   50.7016    9.6365   21.6033 O   0  0  0  0  0  0  0  0  0  0  0  0
   49.2692    9.5531   21.6649 C   0  0  1  0  0  0  0  0  0  0  0  0
   48.7018   10.8654   21.4253 N   0  0  0  0  0  0  0  0  0  0  0  0
   48.2350   11.2357   20.1585 C   0  0  0  0  0  0  0  0  0  0  0  0
   48.7162    8.4382   20.7692 C   0  0  0  0  0  0  0  0  0  0  0  0
   48.6195    8.8555   19.3648 N   0  0  0  0  0  0  0  0  0  0  0  0
   48.3043   10.1903   19.0492 C   0  0  0  0  0  0  0  0  0  0  0  0
   48.0995   10.5839   17.7720 C   0  0  0  0  0  0  0  0  0  0  0  0
   48.6705    7.9053   18.3518 C   0  0  0  0  0  0  0  0  0  0  0  0
   48.4842    8.1513   17.0464 C   0  0  0  0  0  0  0  0  0  0  0  0
   48.1896    9.5559   16.6868 C   0  0  0  0  0  0  0  0  0  0  0  0
   50.7569   10.7825   23.7951 C   0  0  0  0  0  0  0  0  0  0  0  0
   49.4460   11.5892   23.7103 C   0  0  0  0  0  0  0  0  0  0  0  0
   47.8172   12.3759   19.9630 O   0  0  0  0  0  0  0  0  0  0  0  0
   48.0079    9.9151   15.5212 O   0  0  0  0  0  0  0  0  0  0  0  0
   47.8248   11.8730   17.3590 O   0  0  0  0  0  0  0  0  0  0  0  0
   48.5735    7.0229   16.0806 C   0  0  0  0  0  0  0  0  0  0  0  0
   48.4095    7.3606   14.7634 N   0  0  0  0  0  0  0  0  0  0  0  0
   48.7753    5.8721   16.4577 O   0  0  0  0  0  0  0  0  0  0  0  0
   48.3768    6.3804   13.7012 C   0  0  0  0  0  0  0  0  0  0  0  0
   46.9720    5.9890   13.3515 C   0  0  0  0  0  0  0  0  0  0  0  0
   44.7757    6.5750   12.4795 C   0  0  0  0  0  0  0  0  0  0  0  0
   46.0841    6.9184   12.8024 C   0  0  0  0  0  0  0  0  0  0  0  0
   46.5082    4.6881   13.5586 C   0  0  0  0  0  0  0  0  0  0  0  0
   45.2032    4.3227   13.2427 C   0  0  0  0  0  0  0  0  0  0  0  0
   44.3473    5.2748   12.7065 C   0  0  0  0  0  0  0  0  0  0  0  0
   46.4942    8.1743   12.5739 F   0  0  0  0  0  0  0  0  0  0  0  0
   43.0900    4.9320   12.3987 F   0  0  0  0  0  0  0  0  0  0  0  0
   47.3283    3.7545   14.0595 F   0  0  0  0  0  0  0  0  0  0  0  0
   48.7528   12.8835   22.0839 H   0  0  0  0  0  0  0  0  0  0  0  0
   51.2588   12.9147   22.2182 H   0  0  0  0  0  0  0  0  0  0  0  0
   50.8634   12.0966   20.6783 H   0  0  0  0  0  0  0  0  0  0  0  0
   52.3540   10.6517   22.2965 H   0  0  0  0  0  0  0  0  0  0  0  0
   49.0009    9.2495   22.6830 H   0  0  0  0  0  0  0  0  0  0  0  0
   49.3535    7.5503   20.8643 H   0  0  0  0  0  0  0  0  0  0  0  0
   47.7071    8.1689   21.1061 H   0  0  0  0  0  0  0  0  0  0  0  0
   48.8844    6.8958   18.7010 H   0  0  0  0  0  0  0  0  0  0  0  0
   51.4680   11.3182   24.4344 H   0  0  0  0  0  0  0  0  0  0  0  0
   50.5961    9.7872   24.2205 H   0  0  0  0  0  0  0  0  0  0  0  0
   48.5880   11.0326   24.1007 H   0  0  0  0  0  0  0  0  0  0  0  0
   49.5486   12.5023   24.3087 H   0  0  0  0  0  0  0  0  0  0  0  0
   47.7282   11.8305   16.3858 H   0  0  0  0  0  0  0  0  0  0  0  0
   48.1821    8.3263   14.5250 H   0  0  0  0  0  0  0  0  0  0  0  0
   48.8597    6.8287   12.8255 H   0  0  0  0  0  0  0  0  0  0  0  0
   48.9747    5.5083   13.9872 H   0  0  0  0  0  0  0  0  0  0  0  0
   44.1017    7.3113   12.0569 H   0  0  0  0  0  0  0  0  0  0  0  0
   44.8616    3.3080   13.4123 H   0  0  0  0  0  0  0  0  0  0  0  0
  1  2  1  0
  2  3  1  0
  3  4  1  0
  4  5  1  0
  5  6  1  0
  1  6  1  0
  8  9  1  0
  9 10  1  0
  7 10  1  0
  5  8  1  0
  7  6  1  0
 12 13  2  0
 13 14  1  0
 11 14  1  0
  9 12  1  0
 11 10  2  0
  3 15  1  0
  1 16  1  0
 16 15  1  0
  7 17  2  0
 14 18  2  0
 11 19  1  0
 13 20  1  0
 20 21  1  0
 20 22  2  0
 21 23  1  0
 23 24  1  0
 25 26  2  0
 27 28  1  0
 28 29  2  0
 25 29  1  0
 26 24  1  0
 24 27  2  0
 26 30  1  0
 29 31  1  0
 27 32  1  0
  1 33  1  6
  2 34  1  0
  2 35  1  0
  3 36  1  6
  5 37  1  1
  8 38  1  0
  8 39  1  0
 12 40  1  0
 15 41  1  0
 15 42  1  0
 16 43  1  0
 16 44  1  0
 19 45  1  0
 21 46  1  0
 23 47  1  0
 23 48  1  0
 25 49  1  0
 28 50  1  0
M  END
> <Uni-Dock RESULT> 
ENERGY=   -3.831  LOWER_BOUND=    5.526  UPPER_BOUND=    8.053
INTER + INTRA:          -3.831
INTER:                  -3.831
INTRA:                   0.000
UNBOUND:                 0.000

$$$$
