
     RDKit          3D

 50 54  0  0  0  0  0  0  0  0999 V2000
   43.1101    9.5813   10.2626 C   0  0  1  0  0  0  0  0  0  0  0  0
   43.3013   10.8481    9.4353 C   0  0  0  0  0  0  0  0  0  0  0  0
   43.2811   11.8603   10.5715 C   0  0  2  0  0  0  0  0  0  0  0  0
   44.5214   11.7493   11.2793 O   0  0  0  0  0  0  0  0  0  0  0  0
   44.7753   10.4802   11.8986 C   0  0  1  0  0  0  0  0  0  0  0  0
   44.3089    9.3655   11.0735 N   0  0  0  0  0  0  0  0  0  0  0  0
   44.6665    8.0679   11.4160 C   0  0  0  0  0  0  0  0  0  0  0  0
   46.2758   10.3559   12.1953 C   0  0  0  0  0  0  0  0  0  0  0  0
   46.5603    9.0472   12.8033 N   0  0  0  0  0  0  0  0  0  0  0  0
   45.8061    7.9098   12.4112 C   0  0  0  0  0  0  0  0  0  0  0  0
   46.0425    6.6523   12.8791 C   0  0  0  0  0  0  0  0  0  0  0  0
   47.6423    8.8653   13.6547 C   0  0  0  0  0  0  0  0  0  0  0  0
   47.9649    7.6896   14.2179 C   0  0  0  0  0  0  0  0  0  0  0  0
   47.1321    6.4961   13.9048 C   0  0  0  0  0  0  0  0  0  0  0  0
   42.0685   11.4462   11.4232 C   0  0  0  0  0  0  0  0  0  0  0  0
   41.9135    9.9302   11.1636 C   0  0  0  0  0  0  0  0  0  0  0  0
   44.1059    7.0751   10.9444 O   0  0  0  0  0  0  0  0  0  0  0  0
   47.3228    5.4237   14.4882 O   0  0  0  0  0  0  0  0  0  0  0  0
   45.3397    5.4986   12.5196 O   0  0  0  0  0  0  0  0  0  0  0  0
   49.1020    7.6277   15.1531 C   0  0  0  0  0  0  0  0  0  0  0  0
   48.7295    7.3380   16.4535 N   0  0  0  0  0  0  0  0  0  0  0  0
   50.2562    7.8298   14.7753 O   0  0  0  0  0  0  0  0  0  0  0  0
   49.7041    6.9741   17.4606 C   0  0  0  0  0  0  0  0  0  0  0  0
   49.8814    5.4867   17.5577 C   0  0  0  0  0  0  0  0  0  0  0  0
   48.9353    3.2532   17.8883 C   0  0  0  0  0  0  0  0  0  0  0  0
   48.7919    4.6350   17.8168 C   0  0  0  0  0  0  0  0  0  0  0  0
   51.1412    4.9060   17.3933 C   0  0  0  0  0  0  0  0  0  0  0  0
   51.3120    3.5292   17.4576 C   0  0  0  0  0  0  0  0  0  0  0  0
   50.2046    2.7146   17.6973 C   0  0  0  0  0  0  0  0  0  0  0  0
   47.5734    5.1620   18.0114 F   0  0  0  0  0  0  0  0  0  0  0  0
   50.3565    1.3802   17.7406 F   0  0  0  0  0  0  0  0  0  0  0  0
   52.2201    5.6773   17.1747 F   0  0  0  0  0  0  0  0  0  0  0  0
   42.9038    8.7042    9.6336 H   0  0  0  0  0  0  0  0  0  0  0  0
   44.2466   10.8413    8.8733 H   0  0  0  0  0  0  0  0  0  0  0  0
   42.4682   11.0026    8.7415 H   0  0  0  0  0  0  0  0  0  0  0  0
   43.1937   12.8928   10.2172 H   0  0  0  0  0  0  0  0  0  0  0  0
   44.2254   10.4386   12.8515 H   0  0  0  0  0  0  0  0  0  0  0  0
   46.5788   11.1771   12.8625 H   0  0  0  0  0  0  0  0  0  0  0  0
   46.8602   10.4710   11.2763 H   0  0  0  0  0  0  0  0  0  0  0  0
   48.2185    9.7627   13.8682 H   0  0  0  0  0  0  0  0  0  0  0  0
   41.1703   11.9768   11.0750 H   0  0  0  0  0  0  0  0  0  0  0  0
   42.2089   11.6667   12.4886 H   0  0  0  0  0  0  0  0  0  0  0  0
   41.8939    9.3559   12.1058 H   0  0  0  0  0  0  0  0  0  0  0  0
   40.9716    9.7315   10.6322 H   0  0  0  0  0  0  0  0  0  0  0  0
   44.6653    5.7388   11.8549 H   0  0  0  0  0  0  0  0  0  0  0  0
   47.7728    7.0534   16.6374 H   0  0  0  0  0  0  0  0  0  0  0  0
   50.6406    7.4689   17.2493 H   0  0  0  0  0  0  0  0  0  0  0  0
   49.3510    7.3522   18.4089 H   0  0  0  0  0  0  0  0  0  0  0  0
   48.0729    2.6127   18.0775 H   0  0  0  0  0  0  0  0  0  0  0  0
   52.2953    3.0938   17.3158 H   0  0  0  0  0  0  0  0  0  0  0  0
  1  2  1  0
  2  3  1  0
  3  4  1  0
  4  5  1  0
  5  6  1  0
  1  6  1  0
  8  9  1  0
  9 10  1  0
  7 10  1  0
  5  8  1  0
  7  6  1  0
 12 13  2  0
 13 14  1  0
 11 14  1  0
  9 12  1  0
 11 10  2  0
  3 15  1  0
  1 16  1  0
 16 15  1  0
  7 17  2  0
 14 18  2  0
 11 19  1  0
 13 20  1  0
 20 21  1  0
 20 22  2  0
 21 23  1  0
 23 24  1  0
 25 26  2  0
 27 28  1  0
 28 29  2  0
 25 29  1  0
 26 24  1  0
 24 27  2  0
 26 30  1  0
 29 31  1  0
 27 32  1  0
  1 33  1  1
  2 34  1  0
  2 35  1  0
  3 36  1  6
  5 37  1  6
  8 38  1  0
  8 39  1  0
 12 40  1  0
 15 41  1  0
 15 42  1  0
 16 43  1  0
 16 44  1  0
 19 45  1  0
 21 46  1  0
 23 47  1  0
 23 48  1  0
 25 49  1  0
 28 50  1  0
M  END
> <Uni-Dock RESULT> 
ENERGY=   -4.470  LOWER_BOUND=    0.000  UPPER_BOUND=    0.000
INTER + INTRA:          -4.470
INTER:                  -4.470
INTRA:                   0.000
UNBOUND:                 0.000

$$$$

     RDKit          3D

 50 54  0  0  0  0  0  0  0  0999 V2000
   43.7458    5.1794   11.1754 C   0  0  1  0  0  0  0  0  0  0  0  0
   42.9324    3.9972   11.6915 C   0  0  0  0  0  0  0  0  0  0  0  0
   43.9856    2.9119   11.5213 C   0  0  2  0  0  0  0  0  0  0  0  0
   44.9714    3.0939   12.5445 O   0  0  0  0  0  0  0  0  0  0  0  0
   45.6886    4.3360   12.5065 C   0  0  1  0  0  0  0  0  0  0  0  0
   44.8265    5.4543   12.1231 N   0  0  0  0  0  0  0  0  0  0  0  0
   45.3008    6.7538   12.2462 C   0  0  0  0  0  0  0  0  0  0  0  0
   46.3377    4.5847   13.8746 C   0  0  0  0  0  0  0  0  0  0  0  0
   47.0528    5.8699   13.8645 N   0  0  0  0  0  0  0  0  0  0  0  0
   46.5437    6.9530   13.1003 C   0  0  0  0  0  0  0  0  0  0  0  0
   47.1093    8.1922   13.0817 C   0  0  0  0  0  0  0  0  0  0  0  0
   48.1437    6.0970   14.6936 C   0  0  0  0  0  0  0  0  0  0  0  0
   48.8185    7.2569   14.7454 C   0  0  0  0  0  0  0  0  0  0  0  0
   48.3699    8.3826   13.8807 C   0  0  0  0  0  0  0  0  0  0  0  0
   44.5431    3.1468   10.1067 C   0  0  0  0  0  0  0  0  0  0  0  0
   44.3213    4.6548    9.8492 C   0  0  0  0  0  0  0  0  0  0  0  0
   44.7540    7.7176   11.7034 O   0  0  0  0  0  0  0  0  0  0  0  0
   49.0286    9.4257   13.8117 O   0  0  0  0  0  0  0  0  0  0  0  0
   46.6448    9.2942   12.3579 O   0  0  0  0  0  0  0  0  0  0  0  0
   49.9984    7.3644   15.6215 C   0  0  0  0  0  0  0  0  0  0  0  0
   51.1849    7.5264   14.9290 N   0  0  0  0  0  0  0  0  0  0  0  0
   49.8964    7.3018   16.8469 O   0  0  0  0  0  0  0  0  0  0  0  0
   52.4093    7.9130   15.5982 C   0  0  0  0  0  0  0  0  0  0  0  0
   52.6112    9.4004   15.5827 C   0  0  0  0  0  0  0  0  0  0  0  0
   52.8063   11.5033   14.3448 C   0  0  0  0  0  0  0  0  0  0  0  0
   52.6420   10.1224   14.3755 C   0  0  0  0  0  0  0  0  0  0  0  0
   52.7758   10.1106   16.7743 C   0  0  0  0  0  0  0  0  0  0  0  0
   52.9394   11.4897   16.7723 C   0  0  0  0  0  0  0  0  0  0  0  0
   52.9455   12.1745   15.5564 C   0  0  0  0  0  0  0  0  0  0  0  0
   52.5188    9.4673   13.2109 F   0  0  0  0  0  0  0  0  0  0  0  0
   53.0824   13.5112   15.5456 F   0  0  0  0  0  0  0  0  0  0  0  0
   52.7854    9.4645   17.9530 F   0  0  0  0  0  0  0  0  0  0  0  0
   43.1252    6.0736   11.0244 H   0  0  0  0  0  0  0  0  0  0  0  0
   42.6113    4.1344   12.7344 H   0  0  0  0  0  0  0  0  0  0  0  0
   42.0547    3.8106   11.0636 H   0  0  0  0  0  0  0  0  0  0  0  0
   43.5755    1.9028   11.6329 H   0  0  0  0  0  0  0  0  0  0  0  0
   46.4849    4.2583   11.7502 H   0  0  0  0  0  0  0  0  0  0  0  0
   47.0208    3.7529   14.1042 H   0  0  0  0  0  0  0  0  0  0  0  0
   45.5792    4.5905   14.6647 H   0  0  0  0  0  0  0  0  0  0  0  0
   48.4478    5.2472   15.3005 H   0  0  0  0  0  0  0  0  0  0  0  0
   43.9689    2.5567    9.3776 H   0  0  0  0  0  0  0  0  0  0  0  0
   45.6006    2.8681   10.0206 H   0  0  0  0  0  0  0  0  0  0  0  0
   45.2564    5.1582    9.5491 H   0  0  0  0  0  0  0  0  0  0  0  0
   43.5911    4.7972    9.0395 H   0  0  0  0  0  0  0  0  0  0  0  0
   45.8292    9.0360   11.8860 H   0  0  0  0  0  0  0  0  0  0  0  0
   51.1492    7.7034   13.9303 H   0  0  0  0  0  0  0  0  0  0  0  0
   52.4044    7.5271   16.6070 H   0  0  0  0  0  0  0  0  0  0  0  0
   53.2293    7.4380   15.0796 H   0  0  0  0  0  0  0  0  0  0  0  0
   52.8138   12.0425   13.3967 H   0  0  0  0  0  0  0  0  0  0  0  0
   53.0541   12.0273   17.7074 H   0  0  0  0  0  0  0  0  0  0  0  0
  1  2  1  0
  2  3  1  0
  3  4  1  0
  4  5  1  0
  5  6  1  0
  1  6  1  0
  8  9  1  0
  9 10  1  0
  7 10  1  0
  5  8  1  0
  7  6  1  0
 12 13  2  0
 13 14  1  0
 11 14  1  0
  9 12  1  0
 11 10  2  0
  3 15  1  0
  1 16  1  0
 16 15  1  0
  7 17  2  0
 14 18  2  0
 11 19  1  0
 13 20  1  0
 20 21  1  0
 20 22  2  0
 21 23  1  0
 23 24  1  0
 25 26  2  0
 27 28  1  0
 28 29  2  0
 25 29  1  0
 26 24  1  0
 24 27  2  0
 26 30  1  0
 29 31  1  0
 27 32  1  0
  1 33  1  1
  2 34  1  0
  2 35  1  0
  3 36  1  6
  5 37  1  6
  8 38  1  0
  8 39  1  0
 12 40  1  0
 15 41  1  0
 15 42  1  0
 16 43  1  0
 16 44  1  0
 19 45  1  0
 21 46  1  0
 23 47  1  0
 23 48  1  0
 25 49  1  0
 28 50  1  0
M  END
> <Uni-Dock RESULT> 
ENERGY=   -4.335  LOWER_BOUND=    3.811  UPPER_BOUND=    5.996
INTER + INTRA:          -4.335
INTER:                  -4.335
INTRA:                   0.000
UNBOUND:                 0.000

$$$$

     RDKit          3D

 50 54  0  0  0  0  0  0  0  0999 V2000
   43.5060    5.8279   12.1560 C   0  0  1  0  0  0  0  0  0  0  0  0
   42.9695    4.6964   13.0263 C   0  0  0  0  0  0  0  0  0  0  0  0
   43.8920    3.5872   12.5418 C   0  0  2  0  0  0  0  0  0  0  0  0
   45.1922    3.8267   13.0929 O   0  0  0  0  0  0  0  0  0  0  0  0
   45.8224    5.0529   12.6954 C   0  0  1  0  0  0  0  0  0  0  0  0
   44.8636    6.1535   12.5946 N   0  0  0  0  0  0  0  0  0  0  0  0
   45.3306    7.4517   12.4346 C   0  0  0  0  0  0  0  0  0  0  0  0
   46.9432    5.3880   13.6887 C   0  0  0  0  0  0  0  0  0  0  0  0
   47.5816    6.6591   13.3146 N   0  0  0  0  0  0  0  0  0  0  0  0
   46.8031    7.6929   12.7302 C   0  0  0  0  0  0  0  0  0  0  0  0
   47.3008    8.9197   12.4090 C   0  0  0  0  0  0  0  0  0  0  0  0
   48.9037    6.9286   13.6435 C   0  0  0  0  0  0  0  0  0  0  0  0
   49.5305    8.0797   13.3507 C   0  0  0  0  0  0  0  0  0  0  0  0
   48.7687    9.1480   12.6476 C   0  0  0  0  0  0  0  0  0  0  0  0
   43.8606    3.7142   11.0088 C   0  0  0  0  0  0  0  0  0  0  0  0
   43.5358    5.2033   10.7508 C   0  0  0  0  0  0  0  0  0  0  0  0
   44.6039    8.3825   12.0769 O   0  0  0  0  0  0  0  0  0  0  0  0
   49.3358   10.1744   12.2580 O   0  0  0  0  0  0  0  0  0  0  0  0
   46.5786    9.9745   11.8432 O   0  0  0  0  0  0  0  0  0  0  0  0
   50.9546    8.2320   13.6973 C   0  0  0  0  0  0  0  0  0  0  0  0
   51.7822    8.3282   12.5929 N   0  0  0  0  0  0  0  0  0  0  0  0
   51.3314    8.2571   14.8691 O   0  0  0  0  0  0  0  0  0  0  0  0
   53.1641    8.7437   12.7122 C   0  0  0  0  0  0  0  0  0  0  0  0
   53.3237   10.2233   12.5158 C   0  0  0  0  0  0  0  0  0  0  0  0
   52.9993   12.2310   11.1534 C   0  0  0  0  0  0  0  0  0  0  0  0
   52.8788   10.8581   11.3418 C   0  0  0  0  0  0  0  0  0  0  0  0
   53.9229   11.0131   13.5000 C   0  0  0  0  0  0  0  0  0  0  0  0
   54.0538   12.3862   13.3385 C   0  0  0  0  0  0  0  0  0  0  0  0
   53.5833   12.9837   12.1684 C   0  0  0  0  0  0  0  0  0  0  0  0
   52.3274   10.1247   10.3628 F   0  0  0  0  0  0  0  0  0  0  0  0
   53.6868   14.3143   12.0121 F   0  0  0  0  0  0  0  0  0  0  0  0
   54.3930   10.4514   14.6271 F   0  0  0  0  0  0  0  0  0  0  0  0
   42.8624    6.7179   12.1922 H   0  0  0  0  0  0  0  0  0  0  0  0
   43.0712    4.9111   14.1002 H   0  0  0  0  0  0  0  0  0  0  0  0
   41.9208    4.4785   12.7980 H   0  0  0  0  0  0  0  0  0  0  0  0
   43.5702    2.5942   12.8728 H   0  0  0  0  0  0  0  0  0  0  0  0
   46.2686    4.9111   11.6989 H   0  0  0  0  0  0  0  0  0  0  0  0
   47.6737    4.5648   13.6964 H   0  0  0  0  0  0  0  0  0  0  0  0
   46.5459    5.4599   14.7067 H   0  0  0  0  0  0  0  0  0  0  0  0
   49.4294    6.1194   14.1454 H   0  0  0  0  0  0  0  0  0  0  0  0
   43.0590    3.0824   10.5992 H   0  0  0  0  0  0  0  0  0  0  0  0
   44.8079    3.4153   10.5434 H   0  0  0  0  0  0  0  0  0  0  0  0
   44.2770    5.6712   10.0803 H   0  0  0  0  0  0  0  0  0  0  0  0
   42.5489    5.2987   10.2755 H   0  0  0  0  0  0  0  0  0  0  0  0
   45.6482    9.6953   11.7398 H   0  0  0  0  0  0  0  0  0  0  0  0
   51.3635    8.4350   11.6746 H   0  0  0  0  0  0  0  0  0  0  0  0
   53.5520    8.4298   13.6700 H   0  0  0  0  0  0  0  0  0  0  0  0
   53.7289    8.2219   11.9534 H   0  0  0  0  0  0  0  0  0  0  0  0
   52.6348   12.7021   10.2396 H   0  0  0  0  0  0  0  0  0  0  0  0
   54.5109   12.9865   14.1177 H   0  0  0  0  0  0  0  0  0  0  0  0
  1  2  1  0
  2  3  1  0
  3  4  1  0
  4  5  1  0
  5  6  1  0
  1  6  1  0
  8  9  1  0
  9 10  1  0
  7 10  1  0
  5  8  1  0
  7  6  1  0
 12 13  2  0
 13 14  1  0
 11 14  1  0
  9 12  1  0
 11 10  2  0
  3 15  1  0
  1 16  1  0
 16 15  1  0
  7 17  2  0
 14 18  2  0
 11 19  1  0
 13 20  1  0
 20 21  1  0
 20 22  2  0
 21 23  1  0
 23 24  1  0
 25 26  2  0
 27 28  1  0
 28 29  2  0
 25 29  1  0
 26 24  1  0
 24 27  2  0
 26 30  1  0
 29 31  1  0
 27 32  1  0
  1 33  1  1
  2 34  1  0
  2 35  1  0
  3 36  1  6
  5 37  1  6
  8 38  1  0
  8 39  1  0
 12 40  1  0
 15 41  1  0
 15 42  1  0
 16 43  1  0
 16 44  1  0
 19 45  1  0
 21 46  1  0
 23 47  1  0
 23 48  1  0
 25 49  1  0
 28 50  1  0
M  END
> <Uni-Dock RESULT> 
ENERGY=   -4.245  LOWER_BOUND=    4.464  UPPER_BOUND=    6.830
INTER + INTRA:          -4.245
INTER:                  -4.245
INTRA:                   0.000
UNBOUND:                 0.000

$$$$

     RDKit          3D

 50 54  0  0  0  0  0  0  0  0999 V2000
   44.6218    4.1868   11.6767 C   0  0  1  0  0  0  0  0  0  0  0  0
   44.4844    4.9226   10.3481 C   0  0  0  0  0  0  0  0  0  0  0  0
   43.8154    6.1886   10.8636 C   0  0  2  0  0  0  0  0  0  0  0  0
   44.8067    6.9575   11.5548 O   0  0  0  0  0  0  0  0  0  0  0  0
   45.3892    6.3329   12.7077 C   0  0  1  0  0  0  0  0  0  0  0  0
   45.5937    4.8979   12.5081 N   0  0  0  0  0  0  0  0  0  0  0  0
   46.3423    4.1811   13.4327 C   0  0  0  0  0  0  0  0  0  0  0  0
   46.7104    7.0356   13.0475 C   0  0  0  0  0  0  0  0  0  0  0  0
   47.3383    6.3888   14.2097 N   0  0  0  0  0  0  0  0  0  0  0  0
   47.1972    4.9884   14.3977 C   0  0  0  0  0  0  0  0  0  0  0  0
   47.7937    4.3015   15.4117 C   0  0  0  0  0  0  0  0  0  0  0  0
   48.1835    7.0910   15.0590 C   0  0  0  0  0  0  0  0  0  0  0  0
   48.8036    6.5473   16.1189 C   0  0  0  0  0  0  0  0  0  0  0  0
   48.5964    5.1006   16.4021 C   0  0  0  0  0  0  0  0  0  0  0  0
   42.7028    5.6745   11.7936 C   0  0  0  0  0  0  0  0  0  0  0  0
   43.2145    4.3017   12.2865 C   0  0  0  0  0  0  0  0  0  0  0  0
   46.3354    2.9484   13.4843 O   0  0  0  0  0  0  0  0  0  0  0  0
   49.0539    4.5873   17.4287 O   0  0  0  0  0  0  0  0  0  0  0  0
   47.6975    2.9251   15.6368 O   0  0  0  0  0  0  0  0  0  0  0  0
   49.6322    7.4040   16.9853 C   0  0  0  0  0  0  0  0  0  0  0  0
   49.1200    7.5551   18.2614 N   0  0  0  0  0  0  0  0  0  0  0  0
   50.6689    7.9242   16.5721 O   0  0  0  0  0  0  0  0  0  0  0  0
   49.9053    8.1311   19.3329 C   0  0  0  0  0  0  0  0  0  0  0  0
   50.6222    7.0805   20.1300 C   0  0  0  0  0  0  0  0  0  0  0  0
   50.5748    5.0345   21.4733 C   0  0  0  0  0  0  0  0  0  0  0  0
   49.9236    6.0280   20.7495 C   0  0  0  0  0  0  0  0  0  0  0  0
   52.0106    7.1214   20.2790 C   0  0  0  0  0  0  0  0  0  0  0  0
   52.6859    6.1411   20.9944 C   0  0  0  0  0  0  0  0  0  0  0  0
   51.9612    5.1016   21.5789 C   0  0  0  0  0  0  0  0  0  0  0  0
   48.5863    5.9761   20.6531 F   0  0  0  0  0  0  0  0  0  0  0  0
   52.6078    4.1373   22.2554 F   0  0  0  0  0  0  0  0  0  0  0  0
   52.7219    8.1228   19.7332 F   0  0  0  0  0  0  0  0  0  0  0  0
   44.9216    3.1385   11.5396 H   0  0  0  0  0  0  0  0  0  0  0  0
   45.4575    5.1065    9.8698 H   0  0  0  0  0  0  0  0  0  0  0  0
   43.8366    4.3772    9.6536 H   0  0  0  0  0  0  0  0  0  0  0  0
   43.4143    6.8133   10.0586 H   0  0  0  0  0  0  0  0  0  0  0  0
   44.7000    6.4533   13.5578 H   0  0  0  0  0  0  0  0  0  0  0  0
   46.5102    8.0994   13.2462 H   0  0  0  0  0  0  0  0  0  0  0  0
   47.3942    7.0029   12.1926 H   0  0  0  0  0  0  0  0  0  0  0  0
   48.2996    8.1471   14.8262 H   0  0  0  0  0  0  0  0  0  0  0  0
   41.7723    5.5415   11.2227 H   0  0  0  0  0  0  0  0  0  0  0  0
   42.5022    6.3596   12.6266 H   0  0  0  0  0  0  0  0  0  0  0  0
   43.2090    4.2369   13.3881 H   0  0  0  0  0  0  0  0  0  0  0  0
   42.5709    3.4974   11.9018 H   0  0  0  0  0  0  0  0  0  0  0  0
   47.1513    2.5309   14.9292 H   0  0  0  0  0  0  0  0  0  0  0  0
   48.3355    6.9774   18.5462 H   0  0  0  0  0  0  0  0  0  0  0  0
   50.5958    8.8538   18.9235 H   0  0  0  0  0  0  0  0  0  0  0  0
   49.2290    8.6688   19.9813 H   0  0  0  0  0  0  0  0  0  0  0  0
   50.0123    4.2212   21.9337 H   0  0  0  0  0  0  0  0  0  0  0  0
   53.7655    6.1814   21.0904 H   0  0  0  0  0  0  0  0  0  0  0  0
  1  2  1  0
  2  3  1  0
  3  4  1  0
  4  5  1  0
  5  6  1  0
  1  6  1  0
  8  9  1  0
  9 10  1  0
  7 10  1  0
  5  8  1  0
  7  6  1  0
 12 13  2  0
 13 14  1  0
 11 14  1  0
  9 12  1  0
 11 10  2  0
  3 15  1  0
  1 16  1  0
 16 15  1  0
  7 17  2  0
 14 18  2  0
 11 19  1  0
 13 20  1  0
 20 21  1  0
 20 22  2  0
 21 23  1  0
 23 24  1  0
 25 26  2  0
 27 28  1  0
 28 29  2  0
 25 29  1  0
 26 24  1  0
 24 27  2  0
 26 30  1  0
 29 31  1  0
 27 32  1  0
  1 33  1  1
  2 34  1  0
  2 35  1  0
  3 36  1  6
  5 37  1  6
  8 38  1  0
  8 39  1  0
 12 40  1  0
 15 41  1  0
 15 42  1  0
 16 43  1  0
 16 44  1  0
 19 45  1  0
 21 46  1  0
 23 47  1  0
 23 48  1  0
 25 49  1  0
 28 50  1  0
M  END
> <Uni-Dock RESULT> 
ENERGY=   -4.169  LOWER_BOUND=    3.216  UPPER_BOUND=    4.195
INTER + INTRA:          -4.169
INTER:                  -4.169
INTRA:                   0.000
UNBOUND:                 0.000

$$$$

     RDKit          3D

 50 54  0  0  0  0  0  0  0  0999 V2000
   52.6048   10.7873   15.3967 C   0  0  1  0  0  0  0  0  0  0  0  0
   53.2446   10.7440   16.7802 C   0  0  0  0  0  0  0  0  0  0  0  0
   52.0327   11.1655   17.5986 C   0  0  2  0  0  0  0  0  0  0  0  0
   51.1212   10.0612   17.6321 O   0  0  0  0  0  0  0  0  0  0  0  0
   50.6015    9.6419   16.3622 C   0  0  1  0  0  0  0  0  0  0  0  0
   51.6112    9.7168   15.3059 N   0  0  0  0  0  0  0  0  0  0  0  0
   51.3455    9.1469   14.0676 C   0  0  0  0  0  0  0  0  0  0  0  0
   50.0442    8.2180   16.4915 C   0  0  0  0  0  0  0  0  0  0  0  0
   49.5340    7.7587   15.1907 N   0  0  0  0  0  0  0  0  0  0  0  0
   50.1769    8.1757   13.9952 C   0  0  0  0  0  0  0  0  0  0  0  0
   49.8072    7.7513   12.7546 C   0  0  0  0  0  0  0  0  0  0  0  0
   48.5191    6.8146   15.1044 C   0  0  0  0  0  0  0  0  0  0  0  0
   48.0316    6.3403   13.9464 C   0  0  0  0  0  0  0  0  0  0  0  0
   48.6179    6.8336   12.6701 C   0  0  0  0  0  0  0  0  0  0  0  0
   51.4708   12.3807   16.8405 C   0  0  0  0  0  0  0  0  0  0  0  0
   51.9118   12.1602   15.3754 C   0  0  0  0  0  0  0  0  0  0  0  0
   52.0148    9.3960   13.0614 O   0  0  0  0  0  0  0  0  0  0  0  0
   48.1246    6.5119   11.5839 O   0  0  0  0  0  0  0  0  0  0  0  0
   50.4103    8.1205   11.5488 O   0  0  0  0  0  0  0  0  0  0  0  0
   46.9121    5.3827   13.9755 C   0  0  0  0  0  0  0  0  0  0  0  0
   45.7418    5.8882   13.4383 N   0  0  0  0  0  0  0  0  0  0  0  0
   47.0442    4.2541   14.4495 O   0  0  0  0  0  0  0  0  0  0  0  0
   44.6140    5.0332   13.1325 C   0  0  0  0  0  0  0  0  0  0  0  0
   44.6415    4.5563   11.7094 C   0  0  0  0  0  0  0  0  0  0  0  0
   44.7289    5.0373    9.3108 C   0  0  0  0  0  0  0  0  0  0  0  0
   44.6811    5.4629   10.6342 C   0  0  0  0  0  0  0  0  0  0  0  0
   44.6273    3.1910   11.4140 C   0  0  0  0  0  0  0  0  0  0  0  0
   44.6766    2.7390   10.1018 C   0  0  0  0  0  0  0  0  0  0  0  0
   44.7346    3.6678    9.0618 C   0  0  0  0  0  0  0  0  0  0  0  0
   44.6637    6.7816   10.8814 F   0  0  0  0  0  0  0  0  0  0  0  0
   44.8035    3.2398    7.7899 F   0  0  0  0  0  0  0  0  0  0  0  0
   44.5585    2.2838   12.4035 F   0  0  0  0  0  0  0  0  0  0  0  0
   53.3495   10.6948   14.5939 H   0  0  0  0  0  0  0  0  0  0  0  0
   53.6177    9.7417   17.0368 H   0  0  0  0  0  0  0  0  0  0  0  0
   54.0620   11.4679   16.8661 H   0  0  0  0  0  0  0  0  0  0  0  0
   52.2873   11.4160   18.6337 H   0  0  0  0  0  0  0  0  0  0  0  0
   49.7778   10.3159   16.0803 H   0  0  0  0  0  0  0  0  0  0  0  0
   49.2500    8.2113   17.2534 H   0  0  0  0  0  0  0  0  0  0  0  0
   50.8206    7.5320   16.8466 H   0  0  0  0  0  0  0  0  0  0  0  0
   48.1091    6.4883   16.0575 H   0  0  0  0  0  0  0  0  0  0  0  0
   51.9233   13.3043   17.2300 H   0  0  0  0  0  0  0  0  0  0  0  0
   50.3808   12.4649   16.9315 H   0  0  0  0  0  0  0  0  0  0  0  0
   51.0552   12.2066   14.6812 H   0  0  0  0  0  0  0  0  0  0  0  0
   52.6277   12.9385   15.0743 H   0  0  0  0  0  0  0  0  0  0  0  0
   51.1606    8.7149   11.7445 H   0  0  0  0  0  0  0  0  0  0  0  0
   45.7708    6.7775   12.9500 H   0  0  0  0  0  0  0  0  0  0  0  0
   44.5935    4.2045   13.8248 H   0  0  0  0  0  0  0  0  0  0  0  0
   43.7141    5.6078   13.2970 H   0  0  0  0  0  0  0  0  0  0  0  0
   44.7723    5.7596    8.4946 H   0  0  0  0  0  0  0  0  0  0  0  0
   44.6768    1.6752    9.8904 H   0  0  0  0  0  0  0  0  0  0  0  0
  1  2  1  0
  2  3  1  0
  3  4  1  0
  4  5  1  0
  5  6  1  0
  1  6  1  0
  8  9  1  0
  9 10  1  0
  7 10  1  0
  5  8  1  0
  7  6  1  0
 12 13  2  0
 13 14  1  0
 11 14  1  0
  9 12  1  0
 11 10  2  0
  3 15  1  0
  1 16  1  0
 16 15  1  0
  7 17  2  0
 14 18  2  0
 11 19  1  0
 13 20  1  0
 20 21  1  0
 20 22  2  0
 21 23  1  0
 23 24  1  0
 25 26  2  0
 27 28  1  0
 28 29  2  0
 25 29  1  0
 26 24  1  0
 24 27  2  0
 26 30  1  0
 29 31  1  0
 27 32  1  0
  1 33  1  1
  2 34  1  0
  2 35  1  0
  3 36  1  6
  5 37  1  6
  8 38  1  0
  8 39  1  0
 12 40  1  0
 15 41  1  0
 15 42  1  0
 16 43  1  0
 16 44  1  0
 19 45  1  0
 21 46  1  0
 23 47  1  0
 23 48  1  0
 25 49  1  0
 28 50  1  0
M  END
> <Uni-Dock RESULT> 
ENERGY=   -4.147  LOWER_BOUND=    4.547  UPPER_BOUND=    7.957
INTER + INTRA:          -4.147
INTER:                  -4.147
INTRA:                   0.000
UNBOUND:                 0.000

$$$$

     RDKit          3D

 50 54  0  0  0  0  0  0  0  0999 V2000
   52.3153    5.1709   22.1369 C   0  0  1  0  0  0  0  0  0  0  0  0
   53.2329    6.2236   22.7496 C   0  0  0  0  0  0  0  0  0  0  0  0
   54.2955    6.2528   21.6605 C   0  0  2  0  0  0  0  0  0  0  0  0
   53.7420    6.9307   20.5266 O   0  0  0  0  0  0  0  0  0  0  0  0
   52.5942    6.3117   19.9282 C   0  0  1  0  0  0  0  0  0  0  0  0
   51.7023    5.7281   20.9306 N   0  0  0  0  0  0  0  0  0  0  0  0
   50.4441    5.2827   20.5465 C   0  0  0  0  0  0  0  0  0  0  0  0
   51.8551    7.3460   19.0687 C   0  0  0  0  0  0  0  0  0  0  0  0
   50.6570    6.7375   18.4708 N   0  0  0  0  0  0  0  0  0  0  0  0
   49.9344    5.7502   19.1916 C   0  0  0  0  0  0  0  0  0  0  0  0
   48.7834    5.1794   18.7384 C   0  0  0  0  0  0  0  0  0  0  0  0
   50.1318    7.2015   17.2718 C   0  0  0  0  0  0  0  0  0  0  0  0
   49.0279    6.7022   16.6926 C   0  0  0  0  0  0  0  0  0  0  0  0
   48.3020    5.5962   17.3752 C   0  0  0  0  0  0  0  0  0  0  0  0
   54.5912    4.7686   21.3831 C   0  0  0  0  0  0  0  0  0  0  0  0
   53.2848    4.0361   21.7659 C   0  0  0  0  0  0  0  0  0  0  0  0
   49.7516    4.5478   21.2556 O   0  0  0  0  0  0  0  0  0  0  0  0
   47.3511    5.0316   16.8240 O   0  0  0  0  0  0  0  0  0  0  0  0
   48.0281    4.2135   19.4098 O   0  0  0  0  0  0  0  0  0  0  0  0
   48.5959    7.2348   15.3884 C   0  0  0  0  0  0  0  0  0  0  0  0
   48.6888    6.3142   14.3601 N   0  0  0  0  0  0  0  0  0  0  0  0
   48.2054    8.3961   15.2662 O   0  0  0  0  0  0  0  0  0  0  0  0
   48.0728    6.5492   13.0710 C   0  0  0  0  0  0  0  0  0  0  0  0
   46.6931    5.9628   12.9936 C   0  0  0  0  0  0  0  0  0  0  0  0
   45.1895    4.0409   13.1884 C   0  0  0  0  0  0  0  0  0  0  0  0
   46.4642    4.5957   13.2347 C   0  0  0  0  0  0  0  0  0  0  0  0
   45.5938    6.7645   12.6772 C   0  0  0  0  0  0  0  0  0  0  0  0
   44.3102    6.2367   12.6264 C   0  0  0  0  0  0  0  0  0  0  0  0
   44.1193    4.8797   12.8903 C   0  0  0  0  0  0  0  0  0  0  0  0
   47.5019    3.7909   13.5101 F   0  0  0  0  0  0  0  0  0  0  0  0
   42.8786    4.3643   12.8640 F   0  0  0  0  0  0  0  0  0  0  0  0
   45.7621    8.0705   12.4076 F   0  0  0  0  0  0  0  0  0  0  0  0
   51.5445    4.8329   22.8434 H   0  0  0  0  0  0  0  0  0  0  0  0
   52.7254    7.1891   22.8906 H   0  0  0  0  0  0  0  0  0  0  0  0
   53.6446    5.8874   23.7071 H   0  0  0  0  0  0  0  0  0  0  0  0
   55.1969    6.7960   21.9631 H   0  0  0  0  0  0  0  0  0  0  0  0
   52.9369    5.4944   19.2750 H   0  0  0  0  0  0  0  0  0  0  0  0
   52.5386    7.7212   18.2919 H   0  0  0  0  0  0  0  0  0  0  0  0
   51.5665    8.2126   19.6731 H   0  0  0  0  0  0  0  0  0  0  0  0
   50.6969    8.0013   16.7985 H   0  0  0  0  0  0  0  0  0  0  0  0
   55.4127    4.4257   22.0289 H   0  0  0  0  0  0  0  0  0  0  0  0
   54.8726    4.5847   20.3389 H   0  0  0  0  0  0  0  0  0  0  0  0
   52.9184    3.4002   20.9418 H   0  0  0  0  0  0  0  0  0  0  0  0
   53.4560    3.3874   22.6371 H   0  0  0  0  0  0  0  0  0  0  0  0
   48.4486    4.0334   20.2730 H   0  0  0  0  0  0  0  0  0  0  0  0
   48.8910    5.3456   14.5862 H   0  0  0  0  0  0  0  0  0  0  0  0
   48.0616    7.6096   12.8663 H   0  0  0  0  0  0  0  0  0  0  0  0
   48.6976    6.0867   12.3209 H   0  0  0  0  0  0  0  0  0  0  0  0
   45.0357    2.9804   13.3920 H   0  0  0  0  0  0  0  0  0  0  0  0
   43.4660    6.8757   12.3908 H   0  0  0  0  0  0  0  0  0  0  0  0
  1  2  1  0
  2  3  1  0
  3  4  1  0
  4  5  1  0
  5  6  1  0
  1  6  1  0
  8  9  1  0
  9 10  1  0
  7 10  1  0
  5  8  1  0
  7  6  1  0
 12 13  2  0
 13 14  1  0
 11 14  1  0
  9 12  1  0
 11 10  2  0
  3 15  1  0
  1 16  1  0
 16 15  1  0
  7 17  2  0
 14 18  2  0
 11 19  1  0
 13 20  1  0
 20 21  1  0
 20 22  2  0
 21 23  1  0
 23 24  1  0
 25 26  2  0
 27 28  1  0
 28 29  2  0
 25 29  1  0
 26 24  1  0
 24 27  2  0
 26 30  1  0
 29 31  1  0
 27 32  1  0
  1 33  1  1
  2 34  1  0
  2 35  1  0
  3 36  1  6
  5 37  1  6
  8 38  1  0
  8 39  1  0
 12 40  1  0
 15 41  1  0
 15 42  1  0
 16 43  1  0
 16 44  1  0
 19 45  1  0
 21 46  1  0
 23 47  1  0
 23 48  1  0
 25 49  1  0
 28 50  1  0
M  END
> <Uni-Dock RESULT> 
ENERGY=   -3.969  LOWER_BOUND=    3.925  UPPER_BOUND=    9.739
INTER + INTRA:          -3.969
INTER:                  -3.969
INTRA:                   0.000
UNBOUND:                 0.000

$$$$

     RDKit          3D

 50 54  0  0  0  0  0  0  0  0999 V2000
   45.1191    3.4521   12.0004 C   0  0  1  0  0  0  0  0  0  0  0  0
   44.8729    3.5622   10.4994 C   0  0  0  0  0  0  0  0  0  0  0  0
   43.8943    4.7275   10.5199 C   0  0  2  0  0  0  0  0  0  0  0  0
   44.6362    5.9176   10.8112 O   0  0  0  0  0  0  0  0  0  0  0  0
   45.2956    5.9460   12.0852 C   0  0  1  0  0  0  0  0  0  0  0  0
   45.8494    4.6401   12.4441 N   0  0  0  0  0  0  0  0  0  0  0  0
   46.7030    4.5383   13.5349 C   0  0  0  0  0  0  0  0  0  0  0  0
   46.3903    7.0211   12.0618 C   0  0  0  0  0  0  0  0  0  0  0  0
   47.0986    7.0442   13.3507 N   0  0  0  0  0  0  0  0  0  0  0  0
   47.2903    5.8353   14.0705 C   0  0  0  0  0  0  0  0  0  0  0  0
   47.9849    5.7579   15.2399 C   0  0  0  0  0  0  0  0  0  0  0  0
   47.7074    8.2006   13.8206 C   0  0  0  0  0  0  0  0  0  0  0  0
   48.3881    8.2742   14.9759 C   0  0  0  0  0  0  0  0  0  0  0  0
   48.5224    7.0449   15.8045 C   0  0  0  0  0  0  0  0  0  0  0  0
   42.8947    4.3602   11.6303 C   0  0  0  0  0  0  0  0  0  0  0  0
   43.6978    3.4506   12.5880 C   0  0  0  0  0  0  0  0  0  0  0  0
   46.9910    3.4585   14.0579 O   0  0  0  0  0  0  0  0  0  0  0  0
   49.0398    7.0936   16.9255 O   0  0  0  0  0  0  0  0  0  0  0  0
   48.2126    4.5956   15.9824 O   0  0  0  0  0  0  0  0  0  0  0  0
   48.9428    9.5709   15.4029 C   0  0  0  0  0  0  0  0  0  0  0  0
   48.3480   10.0740   16.5460 N   0  0  0  0  0  0  0  0  0  0  0  0
   49.8422   10.1245   14.7701 O   0  0  0  0  0  0  0  0  0  0  0  0
   48.9184   11.1892   17.2722 C   0  0  0  0  0  0  0  0  0  0  0  0
   49.8280   10.7333   18.3759 C   0  0  0  0  0  0  0  0  0  0  0  0
   50.2102    9.4173   20.4043 C   0  0  0  0  0  0  0  0  0  0  0  0
   49.3746    9.8664   19.3871 C   0  0  0  0  0  0  0  0  0  0  0  0
   51.1566   11.1615   18.4283 C   0  0  0  0  0  0  0  0  0  0  0  0
   52.0129   10.7268   19.4316 C   0  0  0  0  0  0  0  0  0  0  0  0
   51.5327    9.8517   20.4069 C   0  0  0  0  0  0  0  0  0  0  0  0
   48.0955    9.4610   19.3848 F   0  0  0  0  0  0  0  0  0  0  0  0
   52.3592    9.4093   21.3696 F   0  0  0  0  0  0  0  0  0  0  0  0
   51.6312   12.0144   17.5041 F   0  0  0  0  0  0  0  0  0  0  0  0
   45.6691    2.5377   12.2630 H   0  0  0  0  0  0  0  0  0  0  0  0
   45.7950    3.7761    9.9394 H   0  0  0  0  0  0  0  0  0  0  0  0
   44.4101    2.6527   10.1019 H   0  0  0  0  0  0  0  0  0  0  0  0
   43.3939    4.8770    9.5574 H   0  0  0  0  0  0  0  0  0  0  0  0
   44.5573    6.2149   12.8565 H   0  0  0  0  0  0  0  0  0  0  0  0
   45.9302    7.9970   11.8449 H   0  0  0  0  0  0  0  0  0  0  0  0
   47.1025    6.8270   11.2527 H   0  0  0  0  0  0  0  0  0  0  0  0
   47.5766    9.0795   13.1934 H   0  0  0  0  0  0  0  0  0  0  0  0
   42.0525    3.7975   11.2019 H   0  0  0  0  0  0  0  0  0  0  0  0
   42.4947    5.2432   12.1439 H   0  0  0  0  0  0  0  0  0  0  0  0
   43.6547    3.8163   13.6283 H   0  0  0  0  0  0  0  0  0  0  0  0
   43.2864    2.4310   12.5755 H   0  0  0  0  0  0  0  0  0  0  0  0
   47.8125    3.8402   15.5095 H   0  0  0  0  0  0  0  0  0  0  0  0
   47.7131    9.4803   17.0700 H   0  0  0  0  0  0  0  0  0  0  0  0
   49.4333   11.8414   16.5822 H   0  0  0  0  0  0  0  0  0  0  0  0
   48.1018   11.7552   17.6962 H   0  0  0  0  0  0  0  0  0  0  0  0
   49.8388    8.7349   21.1699 H   0  0  0  0  0  0  0  0  0  0  0  0
   53.0450   11.0597   19.4508 H   0  0  0  0  0  0  0  0  0  0  0  0
  1  2  1  0
  2  3  1  0
  3  4  1  0
  4  5  1  0
  5  6  1  0
  1  6  1  0
  8  9  1  0
  9 10  1  0
  7 10  1  0
  5  8  1  0
  7  6  1  0
 12 13  2  0
 13 14  1  0
 11 14  1  0
  9 12  1  0
 11 10  2  0
  3 15  1  0
  1 16  1  0
 16 15  1  0
  7 17  2  0
 14 18  2  0
 11 19  1  0
 13 20  1  0
 20 21  1  0
 20 22  2  0
 21 23  1  0
 23 24  1  0
 25 26  2  0
 27 28  1  0
 28 29  2  0
 25 29  1  0
 26 24  1  0
 24 27  2  0
 26 30  1  0
 29 31  1  0
 27 32  1  0
  1 33  1  1
  2 34  1  0
  2 35  1  0
  3 36  1  6
  5 37  1  6
  8 38  1  0
  8 39  1  0
 12 40  1  0
 15 41  1  0
 15 42  1  0
 16 43  1  0
 16 44  1  0
 19 45  1  0
 21 46  1  0
 23 47  1  0
 23 48  1  0
 25 49  1  0
 28 50  1  0
M  END
> <Uni-Dock RESULT> 
ENERGY=   -3.954  LOWER_BOUND=    3.876  UPPER_BOUND=    5.300
INTER + INTRA:          -3.954
INTER:                  -3.954
INTRA:                   0.000
UNBOUND:                 0.000

$$$$

     RDKit          3D

 50 54  0  0  0  0  0  0  0  0999 V2000
   42.6132   10.1333   10.2944 C   0  0  1  0  0  0  0  0  0  0  0  0
   42.6011   11.2291    9.2340 C   0  0  0  0  0  0  0  0  0  0  0  0
   42.7043   12.4337   10.1583 C   0  0  2  0  0  0  0  0  0  0  0  0
   44.0449   12.4875   10.6598 O   0  0  0  0  0  0  0  0  0  0  0  0
   44.4632   11.3622   11.4455 C   0  0  1  0  0  0  0  0  0  0  0  0
   43.9351   10.1023   10.9215 N   0  0  0  0  0  0  0  0  0  0  0  0
   44.4136    8.9003   11.4267 C   0  0  0  0  0  0  0  0  0  0  0  0
   45.9963   11.3335   11.5076 C   0  0  0  0  0  0  0  0  0  0  0  0
   46.4452   10.1679   12.2843 N   0  0  0  0  0  0  0  0  0  0  0  0
   45.7028    8.9586   12.2319 C   0  0  0  0  0  0  0  0  0  0  0  0
   46.0793    7.8162   12.8715 C   0  0  0  0  0  0  0  0  0  0  0  0
   47.6563   10.1747   12.9639 C   0  0  0  0  0  0  0  0  0  0  0  0
   48.1283    9.1325   13.6671 C   0  0  0  0  0  0  0  0  0  0  0  0
   47.3240    7.8807   13.7144 C   0  0  0  0  0  0  0  0  0  0  0  0
   41.6660   12.1538   11.2588 C   0  0  0  0  0  0  0  0  0  0  0  0
   41.5563   10.6125   11.3037 C   0  0  0  0  0  0  0  0  0  0  0  0
   43.8414    7.8232   11.2393 O   0  0  0  0  0  0  0  0  0  0  0  0
   47.6635    6.9403   14.4404 O   0  0  0  0  0  0  0  0  0  0  0  0
   45.3936    6.5983   12.8453 O   0  0  0  0  0  0  0  0  0  0  0  0
   49.4003    9.2741   14.3974 C   0  0  0  0  0  0  0  0  0  0  0  0
   49.2542    9.2212   15.7720 N   0  0  0  0  0  0  0  0  0  0  0  0
   50.4675    9.4321   13.8041 O   0  0  0  0  0  0  0  0  0  0  0  0
   50.3941    9.0753   16.6528 C   0  0  0  0  0  0  0  0  0  0  0  0
   50.6666    7.6367   16.9837 C   0  0  0  0  0  0  0  0  0  0  0  0
   49.9097    5.4799   17.8600 C   0  0  0  0  0  0  0  0  0  0  0  0
   49.6804    6.8203   17.5673 C   0  0  0  0  0  0  0  0  0  0  0  0
   51.9149    7.0680   16.7200 C   0  0  0  0  0  0  0  0  0  0  0  0
   52.1697    5.7319   17.0003 C   0  0  0  0  0  0  0  0  0  0  0  0
   51.1608    4.9478   17.5613 C   0  0  0  0  0  0  0  0  0  0  0  0
   48.4806    7.3430   17.8631 F   0  0  0  0  0  0  0  0  0  0  0  0
   51.3913    3.6489   17.8168 F   0  0  0  0  0  0  0  0  0  0  0  0
   52.9015    7.8127   16.1918 F   0  0  0  0  0  0  0  0  0  0  0  0
   42.3593    9.1497    9.8753 H   0  0  0  0  0  0  0  0  0  0  0  0
   43.4449   11.1424    8.5339 H   0  0  0  0  0  0  0  0  0  0  0  0
   41.6617   11.2310    8.6710 H   0  0  0  0  0  0  0  0  0  0  0  0
   42.5051   13.3799    9.6445 H   0  0  0  0  0  0  0  0  0  0  0  0
   44.0736   11.4840   12.4680 H   0  0  0  0  0  0  0  0  0  0  0  0
   46.3547   12.2716   11.9578 H   0  0  0  0  0  0  0  0  0  0  0  0
   46.4212   11.2910   10.4991 H   0  0  0  0  0  0  0  0  0  0  0  0
   48.2084   11.1105   12.9153 H   0  0  0  0  0  0  0  0  0  0  0  0
   40.6962   12.5876   10.9745 H   0  0  0  0  0  0  0  0  0  0  0  0
   41.9602   12.5716   12.2295 H   0  0  0  0  0  0  0  0  0  0  0  0
   41.7173   10.2226   12.3234 H   0  0  0  0  0  0  0  0  0  0  0  0
   40.5548   10.2948   10.9794 H   0  0  0  0  0  0  0  0  0  0  0  0
   44.6105    6.6937   12.2690 H   0  0  0  0  0  0  0  0  0  0  0  0
   48.3557    8.9512   16.1593 H   0  0  0  0  0  0  0  0  0  0  0  0
   51.2567    9.5462   16.2048 H   0  0  0  0  0  0  0  0  0  0  0  0
   50.1745    9.6136   17.5634 H   0  0  0  0  0  0  0  0  0  0  0  0
   49.1247    4.8638   18.3005 H   0  0  0  0  0  0  0  0  0  0  0  0
   53.1409    5.3030   16.7782 H   0  0  0  0  0  0  0  0  0  0  0  0
  1  2  1  0
  2  3  1  0
  3  4  1  0
  4  5  1  0
  5  6  1  0
  1  6  1  0
  8  9  1  0
  9 10  1  0
  7 10  1  0
  5  8  1  0
  7  6  1  0
 12 13  2  0
 13 14  1  0
 11 14  1  0
  9 12  1  0
 11 10  2  0
  3 15  1  0
  1 16  1  0
 16 15  1  0
  7 17  2  0
 14 18  2  0
 11 19  1  0
 13 20  1  0
 20 21  1  0
 20 22  2  0
 21 23  1  0
 23 24  1  0
 25 26  2  0
 27 28  1  0
 28 29  2  0
 25 29  1  0
 26 24  1  0
 24 27  2  0
 26 30  1  0
 29 31  1  0
 27 32  1  0
  1 33  1  1
  2 34  1  0
  2 35  1  0
  3 36  1  6
  5 37  1  6
  8 38  1  0
  8 39  1  0
 12 40  1  0
 15 41  1  0
 15 42  1  0
 16 43  1  0
 16 44  1  0
 19 45  1  0
 21 46  1  0
 23 47  1  0
 23 48  1  0
 25 49  1  0
 28 50  1  0
M  END
> <Uni-Dock RESULT> 
ENERGY=   -3.776  LOWER_BOUND=    1.408  UPPER_BOUND=    1.703
INTER + INTRA:          -3.776
INTER:                  -3.776
INTRA:                   0.000
UNBOUND:                 0.000

$$$$

     RDKit          3D

 50 54  0  0  0  0  0  0  0  0999 V2000
   53.8083    3.4804   19.6213 C   0  0  1  0  0  0  0  0  0  0  0  0
   55.2229    3.7455   20.1253 C   0  0  0  0  0  0  0  0  0  0  0  0
   55.9781    3.4337   18.8413 C   0  0  2  0  0  0  0  0  0  0  0  0
   55.7551    4.5147   17.9285 O   0  0  0  0  0  0  0  0  0  0  0  0
   54.3925    4.7262   17.5321 C   0  0  1  0  0  0  0  0  0  0  0  0
   53.4605    4.5076   18.6387 N   0  0  0  0  0  0  0  0  0  0  0  0
   52.1297    4.8769   18.4919 C   0  0  0  0  0  0  0  0  0  0  0  0
   54.2480    6.1435   16.9620 C   0  0  0  0  0  0  0  0  0  0  0  0
   52.8497    6.3898   16.5781 N   0  0  0  0  0  0  0  0  0  0  0  0
   51.7987    5.8059   17.3337 C   0  0  0  0  0  0  0  0  0  0  0  0
   50.4783    6.0293   17.0838 C   0  0  0  0  0  0  0  0  0  0  0  0
   52.5237    7.2924   15.5742 C   0  0  0  0  0  0  0  0  0  0  0  0
   51.2657    7.5758   15.1991 C   0  0  0  0  0  0  0  0  0  0  0  0
   50.1416    6.9032   15.9062 C   0  0  0  0  0  0  0  0  0  0  0  0
   55.3662    2.1076   18.3573 C   0  0  0  0  0  0  0  0  0  0  0  0
   53.9330    2.1090   18.9364 C   0  0  0  0  0  0  0  0  0  0  0  0
   51.2416    4.4882   19.2552 O   0  0  0  0  0  0  0  0  0  0  0  0
   48.9771    7.0467   15.5187 O   0  0  0  0  0  0  0  0  0  0  0  0
   49.4060    5.4902   17.8006 O   0  0  0  0  0  0  0  0  0  0  0  0
   51.0412    8.5077   14.0799 C   0  0  0  0  0  0  0  0  0  0  0  0
   50.4800    7.9064   12.9677 N   0  0  0  0  0  0  0  0  0  0  0  0
   51.3463    9.6976   14.1636 O   0  0  0  0  0  0  0  0  0  0  0  0
   49.9411    8.6855   11.8726 C   0  0  0  0  0  0  0  0  0  0  0  0
   48.4707    8.9396   12.0355 C   0  0  0  0  0  0  0  0  0  0  0  0
   46.1937    8.0990   12.3538 C   0  0  0  0  0  0  0  0  0  0  0  0
   47.5563    7.8801   12.1801 C   0  0  0  0  0  0  0  0  0  0  0  0
   47.9688   10.2432   12.0470 C   0  0  0  0  0  0  0  0  0  0  0  0
   46.6132   10.4900   12.2210 C   0  0  0  0  0  0  0  0  0  0  0  0
   45.7387    9.4143   12.3805 C   0  0  0  0  0  0  0  0  0  0  0  0
   48.0005    6.6145   12.1418 F   0  0  0  0  0  0  0  0  0  0  0  0
   44.4283    9.6439   12.5702 F   0  0  0  0  0  0  0  0  0  0  0  0
   48.7960   11.2898   11.8816 F   0  0  0  0  0  0  0  0  0  0  0  0
   53.0748    3.4616   20.4394 H   0  0  0  0  0  0  0  0  0  0  0  0
   55.3564    4.7814   20.4699 H   0  0  0  0  0  0  0  0  0  0  0  0
   55.4960    3.0571   20.9321 H   0  0  0  0  0  0  0  0  0  0  0  0
   57.0588    3.3488   18.9959 H   0  0  0  0  0  0  0  0  0  0  0  0
   54.1410    4.0032   16.7407 H   0  0  0  0  0  0  0  0  0  0  0  0
   54.9213    6.2532   16.0984 H   0  0  0  0  0  0  0  0  0  0  0  0
   54.5651    6.8887   17.6994 H   0  0  0  0  0  0  0  0  0  0  0  0
   53.3721    7.7537   15.0739 H   0  0  0  0  0  0  0  0  0  0  0  0
   55.9342    1.2622   18.7722 H   0  0  0  0  0  0  0  0  0  0  0  0
   55.3657    2.0201   17.2638 H   0  0  0  0  0  0  0  0  0  0  0  0
   53.1764    1.9426   18.1505 H   0  0  0  0  0  0  0  0  0  0  0  0
   53.8242    1.3059   19.6796 H   0  0  0  0  0  0  0  0  0  0  0  0
   49.7609    4.9455   18.5299 H   0  0  0  0  0  0  0  0  0  0  0  0
   50.1392    6.9535   13.0452 H   0  0  0  0  0  0  0  0  0  0  0  0
   50.4926    9.6099   11.7841 H   0  0  0  0  0  0  0  0  0  0  0  0
   50.1062    8.1277   10.9623 H   0  0  0  0  0  0  0  0  0  0  0  0
   45.5061    7.2613   12.4768 H   0  0  0  0  0  0  0  0  0  0  0  0
   46.2417   11.5089   12.2392 H   0  0  0  0  0  0  0  0  0  0  0  0
  1  2  1  0
  2  3  1  0
  3  4  1  0
  4  5  1  0
  5  6  1  0
  1  6  1  0
  8  9  1  0
  9 10  1  0
  7 10  1  0
  5  8  1  0
  7  6  1  0
 12 13  2  0
 13 14  1  0
 11 14  1  0
  9 12  1  0
 11 10  2  0
  3 15  1  0
  1 16  1  0
 16 15  1  0
  7 17  2  0
 14 18  2  0
 11 19  1  0
 13 20  1  0
 20 21  1  0
 20 22  2  0
 21 23  1  0
 23 24  1  0
 25 26  2  0
 27 28  1  0
 28 29  2  0
 25 29  1  0
 26 24  1  0
 24 27  2  0
 26 30  1  0
 29 31  1  0
 27 32  1  0
  1 33  1  1
  2 34  1  0
  2 35  1  0
  3 36  1  6
  5 37  1  6
  8 38  1  0
  8 39  1  0
 12 40  1  0
 15 41  1  0
 15 42  1  0
 16 43  1  0
 16 44  1  0
 19 45  1  0
 21 46  1  0
 23 47  1  0
 23 48  1  0
 25 49  1  0
 28 50  1  0
M  END
> <Uni-Dock RESULT> 
ENERGY=   -3.680  LOWER_BOUND=    3.950  UPPER_BOUND=   10.143
INTER + INTRA:          -3.680
INTER:                  -3.680
INTRA:                   0.000
UNBOUND:                 0.000

$$$$
