
     RDKit          3D

 50 54  0  0  0  0  0  0  0  0999 V2000
   50.4221    9.5561   18.5880 C   0  0  1  0  0  0  0  0  0  0  0  0
   49.1262    9.3612   19.3750 C   0  0  0  0  0  0  0  0  0  0  0  0
   48.4662   10.6957   19.0488 C   0  0  2  0  0  0  0  0  0  0  0  0
   48.0810   10.7116   17.6587 O   0  0  0  0  0  0  0  0  0  0  0  0
   49.1784   10.5935   16.7398 C   0  0  1  0  0  0  0  0  0  0  0  0
   50.0478    9.5150   17.1672 N   0  0  0  0  0  0  0  0  0  0  0  0
   49.9501    8.2364   16.6058 C   0  0  0  0  0  0  0  0  0  0  0  0
   48.7059   10.5023   15.2840 C   0  0  0  0  0  0  0  0  0  0  0  0
   48.2761    9.1442   14.9275 N   0  0  0  0  0  0  0  0  0  0  0  0
   48.9239    8.0313   15.4956 C   0  0  0  0  0  0  0  0  0  0  0  0
   48.6276    6.7695   15.1100 C   0  0  0  0  0  0  0  0  0  0  0  0
   47.3523    8.9526   13.9069 C   0  0  0  0  0  0  0  0  0  0  0  0
   46.9691    7.7628   13.4206 C   0  0  0  0  0  0  0  0  0  0  0  0
   47.6025    6.5752   14.0358 C   0  0  0  0  0  0  0  0  0  0  0  0
   49.5753   11.7112   19.3581 C   0  0  0  0  0  0  0  0  0  0  0  0
   50.8804   10.9508   19.0499 C   0  0  0  0  0  0  0  0  0  0  0  0
   50.6543    7.3207   17.0283 O   0  0  0  0  0  0  0  0  0  0  0  0
   47.3176    5.4243   13.6959 O   0  0  0  0  0  0  0  0  0  0  0  0
   49.1758    5.6158   15.6355 O   0  0  0  0  0  0  0  0  0  0  0  0
   45.9659    7.7214   12.3229 C   0  0  0  0  0  0  0  0  0  0  0  0
   45.6662    6.4725   11.8455 N   0  0  0  0  0  0  0  0  0  0  0  0
   45.4457    8.7443   11.8857 O   0  0  0  0  0  0  0  0  0  0  0  0
   44.6269    6.2738   10.8635 C   0  0  0  0  0  0  0  0  0  0  0  0
   44.6524    4.8851   10.3054 C   0  0  0  0  0  0  0  0  0  0  0  0
   45.4403    3.2906    8.6463 C   0  0  0  0  0  0  0  0  0  0  0  0
   45.3930    4.5823    9.1608 C   0  0  0  0  0  0  0  0  0  0  0  0
   43.9631    3.8448   10.9327 C   0  0  0  0  0  0  0  0  0  0  0  0
   43.9966    2.5462   10.4358 C   0  0  0  0  0  0  0  0  0  0  0  0
   44.7379    2.2826    9.2923 C   0  0  0  0  0  0  0  0  0  0  0  0
   46.0764    5.5487    8.5322 F   0  0  0  0  0  0  0  0  0  0  0  0
   44.7771    1.0359    8.8055 F   0  0  0  0  0  0  0  0  0  0  0  0
   43.2503    4.0912   12.0408 F   0  0  0  0  0  0  0  0  0  0  0  0
   51.1695    8.7911   18.8185 H   0  0  0  0  0  0  0  0  0  0  0  0
   49.3185    9.2556   20.4485 H   0  0  0  0  0  0  0  0  0  0  0  0
   48.5377    8.5072   19.0247 H   0  0  0  0  0  0  0  0  0  0  0  0
   47.5680   10.8740   19.6465 H   0  0  0  0  0  0  0  0  0  0  0  0
   49.7497   11.5275   16.7879 H   0  0  0  0  0  0  0  0  0  0  0  0
   47.8907   11.2185   15.1243 H   0  0  0  0  0  0  0  0  0  0  0  0
   49.5329   10.7752   14.6161 H   0  0  0  0  0  0  0  0  0  0  0  0
   46.9371    9.8760   13.5049 H   0  0  0  0  0  0  0  0  0  0  0  0
   49.5603   11.9841   20.4195 H   0  0  0  0  0  0  0  0  0  0  0  0
   49.4887   12.6280   18.7673 H   0  0  0  0  0  0  0  0  0  0  0  0
   51.4967   11.4652   18.3058 H   0  0  0  0  0  0  0  0  0  0  0  0
   51.4717   10.8676   19.9696 H   0  0  0  0  0  0  0  0  0  0  0  0
   48.7574    4.8734   15.1544 H   0  0  0  0  0  0  0  0  0  0  0  0
   46.0484    5.6615   12.3313 H   0  0  0  0  0  0  0  0  0  0  0  0
   43.6633    6.4803   11.3445 H   0  0  0  0  0  0  0  0  0  0  0  0
   44.7380    7.0174   10.0652 H   0  0  0  0  0  0  0  0  0  0  0  0
   46.0191    3.0747    7.7555 H   0  0  0  0  0  0  0  0  0  0  0  0
   43.4543    1.7516   10.9357 H   0  0  0  0  0  0  0  0  0  0  0  0
  1  2  1  0
  2  3  1  0
  3  4  1  0
  4  5  1  0
  5  6  1  0
  1  6  1  0
  8  9  1  0
  9 10  1  0
  7 10  1  0
  5  8  1  0
  7  6  1  0
 12 13  2  0
 13 14  1  0
 11 14  1  0
  9 12  1  0
 11 10  2  0
  3 15  1  0
  1 16  1  0
 16 15  1  0
  7 17  2  0
 14 18  2  0
 11 19  1  0
 13 20  1  0
 20 21  1  0
 20 22  2  0
 21 23  1  0
 23 24  1  0
 25 26  2  0
 27 28  1  0
 28 29  2  0
 25 29  1  0
 26 24  1  0
 24 27  2  0
 26 30  1  0
 29 31  1  0
 27 32  1  0
  1 33  1  1
  2 34  1  0
  2 35  1  0
  3 36  1  6
  5 37  1  1
  8 38  1  0
  8 39  1  0
 12 40  1  0
 15 41  1  0
 15 42  1  0
 16 43  1  0
 16 44  1  0
 19 45  1  0
 21 46  1  0
 23 47  1  0
 23 48  1  0
 25 49  1  0
 28 50  1  0
M  END
> <Uni-Dock RESULT> 
ENERGY=   -4.915  LOWER_BOUND=    0.000  UPPER_BOUND=    0.000
INTER + INTRA:          -4.915
INTER:                  -4.915
INTRA:                   0.000
UNBOUND:                 0.000

$$$$

     RDKit          3D

 50 54  0  0  0  0  0  0  0  0999 V2000
   41.7759   15.7549   10.1115 C   0  0  1  0  0  0  0  0  0  0  0  0
   42.3767   15.5808    8.7166 C   0  0  0  0  0  0  0  0  0  0  0  0
   43.7922   16.0546    9.0245 C   0  0  2  0  0  0  0  0  0  0  0  0
   44.4518   15.0801    9.8590 O   0  0  0  0  0  0  0  0  0  0  0  0
   43.8298   14.8790   11.1378 C   0  0  1  0  0  0  0  0  0  0  0  0
   42.3995   14.7267   10.9566 N   0  0  0  0  0  0  0  0  0  0  0  0
   41.8038   13.4609   10.9054 C   0  0  0  0  0  0  0  0  0  0  0  0
   44.5016   13.7562   11.9370 C   0  0  0  0  0  0  0  0  0  0  0  0
   44.0402   12.4272   11.5163 N   0  0  0  0  0  0  0  0  0  0  0  0
   42.7103   12.2479   11.0916 C   0  0  0  0  0  0  0  0  0  0  0  0
   42.2217   11.0212   10.8004 C   0  0  0  0  0  0  0  0  0  0  0  0
   44.8574   11.3177   11.6976 C   0  0  0  0  0  0  0  0  0  0  0  0
   44.5044   10.0464   11.4564 C   0  0  0  0  0  0  0  0  0  0  0  0
   43.1248    9.8377   10.9635 C   0  0  0  0  0  0  0  0  0  0  0  0
   43.5571   17.3843    9.7551 C   0  0  0  0  0  0  0  0  0  0  0  0
   42.2120   17.1838   10.4810 C   0  0  0  0  0  0  0  0  0  0  0  0
   40.5980   13.3540   10.6873 O   0  0  0  0  0  0  0  0  0  0  0  0
   42.6866    8.7200   10.6806 O   0  0  0  0  0  0  0  0  0  0  0  0
   40.9491   10.7488   10.3378 O   0  0  0  0  0  0  0  0  0  0  0  0
   45.4955    8.9640   11.6999 C   0  0  0  0  0  0  0  0  0  0  0  0
   45.0422    7.6898   11.4801 N   0  0  0  0  0  0  0  0  0  0  0  0
   46.6408    9.2093   12.0689 O   0  0  0  0  0  0  0  0  0  0  0  0
   45.9280    6.5530   11.5643 C   0  0  0  0  0  0  0  0  0  0  0  0
   45.1722    5.2611   11.5446 C   0  0  0  0  0  0  0  0  0  0  0  0
   44.0289    3.4658   12.7216 C   0  0  0  0  0  0  0  0  0  0  0  0
   44.7501    4.6553   12.7301 C   0  0  0  0  0  0  0  0  0  0  0  0
   44.8381    4.6413   10.3383 C   0  0  0  0  0  0  0  0  0  0  0  0
   44.1177    3.4520   10.3065 C   0  0  0  0  0  0  0  0  0  0  0  0
   43.7199    2.8745   11.5044 C   0  0  0  0  0  0  0  0  0  0  0  0
   45.0417    5.2206   13.9097 F   0  0  0  0  0  0  0  0  0  0  0  0
   43.0258    1.7297   11.4853 F   0  0  0  0  0  0  0  0  0  0  0  0
   45.2139    5.1968    9.1778 F   0  0  0  0  0  0  0  0  0  0  0  0
   40.6865   15.6547   10.1122 H   0  0  0  0  0  0  0  0  0  0  0  0
   41.8836   16.2269    7.9818 H   0  0  0  0  0  0  0  0  0  0  0  0
   42.3500   14.5440    8.3661 H   0  0  0  0  0  0  0  0  0  0  0  0
   44.3946   16.1835    8.1212 H   0  0  0  0  0  0  0  0  0  0  0  0
   44.0008   15.7834   11.7327 H   0  0  0  0  0  0  0  0  0  0  0  0
   45.5900   13.8381   11.8284 H   0  0  0  0  0  0  0  0  0  0  0  0
   44.2573   13.8714   13.0007 H   0  0  0  0  0  0  0  0  0  0  0  0
   45.8541   11.5561   12.0672 H   0  0  0  0  0  0  0  0  0  0  0  0
   43.4586   18.2051    9.0355 H   0  0  0  0  0  0  0  0  0  0  0  0
   44.3628   17.6343   10.4519 H   0  0  0  0  0  0  0  0  0  0  0  0
   42.2943   17.3386   11.5615 H   0  0  0  0  0  0  0  0  0  0  0  0
   41.4863   17.9105   10.0965 H   0  0  0  0  0  0  0  0  0  0  0  0
   40.9058    9.7783   10.2192 H   0  0  0  0  0  0  0  0  0  0  0  0
   44.1188    7.5669   11.0654 H   0  0  0  0  0  0  0  0  0  0  0  0
   46.6268    6.6058   10.7209 H   0  0  0  0  0  0  0  0  0  0  0  0
   46.5358    6.6358   12.4733 H   0  0  0  0  0  0  0  0  0  0  0  0
   43.7113    3.0090   13.6521 H   0  0  0  0  0  0  0  0  0  0  0  0
   43.8684    2.9848    9.3605 H   0  0  0  0  0  0  0  0  0  0  0  0
  1  2  1  0
  2  3  1  0
  3  4  1  0
  4  5  1  0
  5  6  1  0
  1  6  1  0
  8  9  1  0
  9 10  1  0
  7 10  1  0
  5  8  1  0
  7  6  1  0
 12 13  2  0
 13 14  1  0
 11 14  1  0
  9 12  1  0
 11 10  2  0
  3 15  1  0
  1 16  1  0
 16 15  1  0
  7 17  2  0
 14 18  2  0
 11 19  1  0
 13 20  1  0
 20 21  1  0
 20 22  2  0
 21 23  1  0
 23 24  1  0
 25 26  2  0
 27 28  1  0
 28 29  2  0
 25 29  1  0
 26 24  1  0
 24 27  2  0
 26 30  1  0
 29 31  1  0
 27 32  1  0
  1 33  1  1
  2 34  1  0
  2 35  1  0
  3 36  1  6
  5 37  1  1
  8 38  1  0
  8 39  1  0
 12 40  1  0
 15 41  1  0
 15 42  1  0
 16 43  1  0
 16 44  1  0
 19 45  1  0
 21 46  1  0
 23 47  1  0
 23 48  1  0
 25 49  1  0
 28 50  1  0
M  END
> <Uni-Dock RESULT> 
ENERGY=   -4.688  LOWER_BOUND=    5.555  UPPER_BOUND=    8.014
INTER + INTRA:          -4.688
INTER:                  -4.688
INTRA:                   0.000
UNBOUND:                 0.000

$$$$

     RDKit          3D

 50 54  0  0  0  0  0  0  0  0999 V2000
   52.1272   10.5063   17.7911 C   0  0  1  0  0  0  0  0  0  0  0  0
   50.9552   10.7299   18.7467 C   0  0  0  0  0  0  0  0  0  0  0  0
   50.5033   12.0901   18.2285 C   0  0  2  0  0  0  0  0  0  0  0  0
   49.9167   11.9326   16.9199 O   0  0  0  0  0  0  0  0  0  0  0  0
   50.8192   11.4254   15.9246 C   0  0  1  0  0  0  0  0  0  0  0  0
   51.5361   10.2863   16.4635 N   0  0  0  0  0  0  0  0  0  0  0  0
   51.1245    8.9753   16.1961 C   0  0  0  0  0  0  0  0  0  0  0  0
   50.1184   11.1711   14.5849 C   0  0  0  0  0  0  0  0  0  0  0  0
   49.4016    9.8896   14.5716 N   0  0  0  0  0  0  0  0  0  0  0  0
   49.9188    8.7888   15.2800 C   0  0  0  0  0  0  0  0  0  0  0  0
   49.3445    7.5670   15.2029 C   0  0  0  0  0  0  0  0  0  0  0  0
   48.3117    9.7111   13.7278 C   0  0  0  0  0  0  0  0  0  0  0  0
   47.6503    8.5582   13.5482 C   0  0  0  0  0  0  0  0  0  0  0  0
   48.1474    7.3972   14.3195 C   0  0  0  0  0  0  0  0  0  0  0  0
   51.8112   12.8932   18.1883 C   0  0  0  0  0  0  0  0  0  0  0  0
   52.8946   11.8363   17.8957 C   0  0  0  0  0  0  0  0  0  0  0  0
   51.7095    8.0261   16.7154 O   0  0  0  0  0  0  0  0  0  0  0  0
   47.6111    6.2879   14.2623 O   0  0  0  0  0  0  0  0  0  0  0  0
   49.7511    6.4399   15.8900 O   0  0  0  0  0  0  0  0  0  0  0  0
   46.4982    8.5266   12.6075 C   0  0  0  0  0  0  0  0  0  0  0  0
   45.9087    7.3012   12.4390 N   0  0  0  0  0  0  0  0  0  0  0  0
   46.1090    9.5381   12.0302 O   0  0  0  0  0  0  0  0  0  0  0  0
   44.7113    7.1468   11.6476 C   0  0  0  0  0  0  0  0  0  0  0  0
   44.4000    5.7051   11.3920 C   0  0  0  0  0  0  0  0  0  0  0  0
   44.6219    3.7081   10.0216 C   0  0  0  0  0  0  0  0  0  0  0  0
   44.8878    5.0530   10.2575 C   0  0  0  0  0  0  0  0  0  0  0  0
   43.6406    4.9614   12.2981 C   0  0  0  0  0  0  0  0  0  0  0  0
   43.3628    3.6158   12.0824 C   0  0  0  0  0  0  0  0  0  0  0  0
   43.8584    3.0015   10.9407 C   0  0  0  0  0  0  0  0  0  0  0  0
   45.6280    5.7267    9.3662 F   0  0  0  0  0  0  0  0  0  0  0  0
   43.5971    1.7065   10.7231 F   0  0  0  0  0  0  0  0  0  0  0  0
   43.1640    5.5470   13.4057 F   0  0  0  0  0  0  0  0  0  0  0  0
   52.7515    9.6582   18.0874 H   0  0  0  0  0  0  0  0  0  0  0  0
   51.2893   10.7835   19.7888 H   0  0  0  0  0  0  0  0  0  0  0  0
   50.1757    9.9670   18.6528 H   0  0  0  0  0  0  0  0  0  0  0  0
   49.7554   12.5558   18.8761 H   0  0  0  0  0  0  0  0  0  0  0  0
   51.5495   12.2139   15.7102 H   0  0  0  0  0  0  0  0  0  0  0  0
   49.4304   11.9992   14.3752 H   0  0  0  0  0  0  0  0  0  0  0  0
   50.8673   11.1411   13.7833 H   0  0  0  0  0  0  0  0  0  0  0  0
   48.0119   10.6117   13.1933 H   0  0  0  0  0  0  0  0  0  0  0  0
   52.0100   13.3514   19.1638 H   0  0  0  0  0  0  0  0  0  0  0  0
   51.8003   13.6853   17.4335 H   0  0  0  0  0  0  0  0  0  0  0  0
   53.4705   12.0683   16.9942 H   0  0  0  0  0  0  0  0  0  0  0  0
   53.5965   11.8010   18.7374 H   0  0  0  0  0  0  0  0  0  0  0  0
   49.1366    5.7253   15.6262 H   0  0  0  0  0  0  0  0  0  0  0  0
   46.2095    6.5307   13.0353 H   0  0  0  0  0  0  0  0  0  0  0  0
   43.8868    7.6319   12.1837 H   0  0  0  0  0  0  0  0  0  0  0  0
   44.8292    7.6937   10.7044 H   0  0  0  0  0  0  0  0  0  0  0  0
   45.0074    3.2190    9.1342 H   0  0  0  0  0  0  0  0  0  0  0  0
   42.7705    3.0549   12.7965 H   0  0  0  0  0  0  0  0  0  0  0  0
  1  2  1  0
  2  3  1  0
  3  4  1  0
  4  5  1  0
  5  6  1  0
  1  6  1  0
  8  9  1  0
  9 10  1  0
  7 10  1  0
  5  8  1  0
  7  6  1  0
 12 13  2  0
 13 14  1  0
 11 14  1  0
  9 12  1  0
 11 10  2  0
  3 15  1  0
  1 16  1  0
 16 15  1  0
  7 17  2  0
 14 18  2  0
 11 19  1  0
 13 20  1  0
 20 21  1  0
 20 22  2  0
 21 23  1  0
 23 24  1  0
 25 26  2  0
 27 28  1  0
 28 29  2  0
 25 29  1  0
 26 24  1  0
 24 27  2  0
 26 30  1  0
 29 31  1  0
 27 32  1  0
  1 33  1  1
  2 34  1  0
  2 35  1  0
  3 36  1  6
  5 37  1  1
  8 38  1  0
  8 39  1  0
 12 40  1  0
 15 41  1  0
 15 42  1  0
 16 43  1  0
 16 44  1  0
 19 45  1  0
 21 46  1  0
 23 47  1  0
 23 48  1  0
 25 49  1  0
 28 50  1  0
M  END
> <Uni-Dock RESULT> 
ENERGY=   -4.528  LOWER_BOUND=    1.461  UPPER_BOUND=    1.711
INTER + INTRA:          -4.528
INTER:                  -4.528
INTRA:                   0.000
UNBOUND:                 0.000

$$$$

     RDKit          3D

 50 54  0  0  0  0  0  0  0  0999 V2000
   45.8929    6.3998   11.3765 C   0  0  1  0  0  0  0  0  0  0  0  0
   44.6978    6.9703   12.1400 C   0  0  0  0  0  0  0  0  0  0  0  0
   43.9522    5.6651   12.3918 C   0  0  2  0  0  0  0  0  0  0  0  0
   44.6854    4.8724   13.3485 O   0  0  0  0  0  0  0  0  0  0  0  0
   45.9978    4.4847   12.9128 C   0  0  1  0  0  0  0  0  0  0  0  0
   46.6787    5.6377   12.3573 N   0  0  0  0  0  0  0  0  0  0  0  0
   47.5805    6.3876   13.1216 C   0  0  0  0  0  0  0  0  0  0  0  0
   46.7743    3.7428   14.0071 C   0  0  0  0  0  0  0  0  0  0  0  0
   47.3806    4.6652   14.9754 N   0  0  0  0  0  0  0  0  0  0  0  0
   47.8535    5.9201   14.5480 C   0  0  0  0  0  0  0  0  0  0  0  0
   48.5131    6.7493   15.3882 C   0  0  0  0  0  0  0  0  0  0  0  0
   47.6442    4.2385   16.2716 C   0  0  0  0  0  0  0  0  0  0  0  0
   48.2917    4.9501   17.2061 C   0  0  0  0  0  0  0  0  0  0  0  0
   48.7571    6.2928   16.7934 C   0  0  0  0  0  0  0  0  0  0  0  0
   43.9183    5.0161   11.0009 C   0  0  0  0  0  0  0  0  0  0  0  0
   45.2137    5.5059   10.3238 C   0  0  0  0  0  0  0  0  0  0  0  0
   48.0981    7.3989   12.6501 O   0  0  0  0  0  0  0  0  0  0  0  0
   49.3422    7.0553   17.5664 O   0  0  0  0  0  0  0  0  0  0  0  0
   48.9768    8.0123   15.0758 O   0  0  0  0  0  0  0  0  0  0  0  0
   48.4962    4.3538   18.5536 C   0  0  0  0  0  0  0  0  0  0  0  0
   49.2115    5.1213   19.4350 N   0  0  0  0  0  0  0  0  0  0  0  0
   48.0459    3.2493   18.8452 O   0  0  0  0  0  0  0  0  0  0  0  0
   49.3858    4.7193   20.8105 C   0  0  0  0  0  0  0  0  0  0  0  0
   50.4044    5.5654   21.5085 C   0  0  0  0  0  0  0  0  0  0  0  0
   52.7093    5.9883   22.1597 C   0  0  0  0  0  0  0  0  0  0  0  0
   51.7517    5.1983   21.5320 C   0  0  0  0  0  0  0  0  0  0  0  0
   50.0420    6.7636   22.1279 C   0  0  0  0  0  0  0  0  0  0  0  0
   50.9828    7.5689   22.7611 C   0  0  0  0  0  0  0  0  0  0  0  0
   52.3122    7.1699   22.7704 C   0  0  0  0  0  0  0  0  0  0  0  0
   52.1445    4.0606   20.9425 F   0  0  0  0  0  0  0  0  0  0  0  0
   53.2262    7.9376   23.3771 F   0  0  0  0  0  0  0  0  0  0  0  0
   48.7610    7.1579   22.1173 F   0  0  0  0  0  0  0  0  0  0  0  0
   46.5005    7.1801   10.9088 H   0  0  0  0  0  0  0  0  0  0  0  0
   44.1133    7.6578   11.5185 H   0  0  0  0  0  0  0  0  0  0  0  0
   44.9848    7.4735   13.0689 H   0  0  0  0  0  0  0  0  0  0  0  0
   42.9483    5.8288   12.7930 H   0  0  0  0  0  0  0  0  0  0  0  0
   45.8740    3.7468   12.1120 H   0  0  0  0  0  0  0  0  0  0  0  0
   46.1008    3.0407   14.5138 H   0  0  0  0  0  0  0  0  0  0  0  0
   47.5851    3.1632   13.5476 H   0  0  0  0  0  0  0  0  0  0  0  0
   47.2736    3.2384   16.4937 H   0  0  0  0  0  0  0  0  0  0  0  0
   43.0553    5.3775   10.4300 H   0  0  0  0  0  0  0  0  0  0  0  0
   43.8683    3.9239   11.0428 H   0  0  0  0  0  0  0  0  0  0  0  0
   45.8494    4.6785    9.9927 H   0  0  0  0  0  0  0  0  0  0  0  0
   44.9528    6.0980    9.4385 H   0  0  0  0  0  0  0  0  0  0  0  0
   49.4013    8.3539   15.8888 H   0  0  0  0  0  0  0  0  0  0  0  0
   49.4553    6.0736   19.1640 H   0  0  0  0  0  0  0  0  0  0  0  0
   48.4125    4.7935   21.3103 H   0  0  0  0  0  0  0  0  0  0  0  0
   49.6689    3.6604   20.8438 H   0  0  0  0  0  0  0  0  0  0  0  0
   53.7505    5.6863   22.1694 H   0  0  0  0  0  0  0  0  0  0  0  0
   50.6826    8.4953   23.2375 H   0  0  0  0  0  0  0  0  0  0  0  0
  1  2  1  0
  2  3  1  0
  3  4  1  0
  4  5  1  0
  5  6  1  0
  1  6  1  0
  8  9  1  0
  9 10  1  0
  7 10  1  0
  5  8  1  0
  7  6  1  0
 12 13  2  0
 13 14  1  0
 11 14  1  0
  9 12  1  0
 11 10  2  0
  3 15  1  0
  1 16  1  0
 16 15  1  0
  7 17  2  0
 14 18  2  0
 11 19  1  0
 13 20  1  0
 20 21  1  0
 20 22  2  0
 21 23  1  0
 23 24  1  0
 25 26  2  0
 27 28  1  0
 28 29  2  0
 25 29  1  0
 26 24  1  0
 24 27  2  0
 26 30  1  0
 29 31  1  0
 27 32  1  0
  1 33  1  1
  2 34  1  0
  2 35  1  0
  3 36  1  6
  5 37  1  1
  8 38  1  0
  8 39  1  0
 12 40  1  0
 15 41  1  0
 15 42  1  0
 16 43  1  0
 16 44  1  0
 19 45  1  0
 21 46  1  0
 23 47  1  0
 23 48  1  0
 25 49  1  0
 28 50  1  0
M  END
> <Uni-Dock RESULT> 
ENERGY=   -4.524  LOWER_BOUND=    5.161  UPPER_BOUND=    9.974
INTER + INTRA:          -4.524
INTER:                  -4.524
INTRA:                   0.000
UNBOUND:                 0.000

$$$$

     RDKit          3D

 50 54  0  0  0  0  0  0  0  0999 V2000
   47.8758    3.4397   16.4526 C   0  0  1  0  0  0  0  0  0  0  0  0
   46.7787    3.9805   17.3695 C   0  0  0  0  0  0  0  0  0  0  0  0
   47.6310    4.9382   18.1937 C   0  0  2  0  0  0  0  0  0  0  0  0
   48.0347    6.0504   17.3682 O   0  0  0  0  0  0  0  0  0  0  0  0
   48.8491    5.6863   16.2428 C   0  0  1  0  0  0  0  0  0  0  0  0
   48.2532    4.5504   15.5672 N   0  0  0  0  0  0  0  0  0  0  0  0
   47.4491    4.7184   14.4337 C   0  0  0  0  0  0  0  0  0  0  0  0
   49.1552    6.8862   15.3388 C   0  0  0  0  0  0  0  0  0  0  0  0
   48.0458    7.1856   14.4246 N   0  0  0  0  0  0  0  0  0  0  0  0
   47.2589    6.1385   13.9094 C   0  0  0  0  0  0  0  0  0  0  0  0
   46.2999    6.3660   12.9836 C   0  0  0  0  0  0  0  0  0  0  0  0
   47.8779    8.4750   13.9335 C   0  0  0  0  0  0  0  0  0  0  0  0
   46.9747    8.8429   13.0127 C   0  0  0  0  0  0  0  0  0  0  0  0
   46.1037    7.7664   12.4908 C   0  0  0  0  0  0  0  0  0  0  0  0
   48.8200    4.0629   18.6147 C   0  0  0  0  0  0  0  0  0  0  0  0
   48.9836    3.0635   17.4525 C   0  0  0  0  0  0  0  0  0  0  0  0
   46.9022    3.7466   13.9147 O   0  0  0  0  0  0  0  0  0  0  0  0
   45.2171    7.9789   11.6600 O   0  0  0  0  0  0  0  0  0  0  0  0
   45.4515    5.4153   12.4507 O   0  0  0  0  0  0  0  0  0  0  0  0
   46.9170   10.2675   12.5879 C   0  0  0  0  0  0  0  0  0  0  0  0
   46.0044   10.5531   11.6066 N   0  0  0  0  0  0  0  0  0  0  0  0
   47.6410   11.1210   13.0932 O   0  0  0  0  0  0  0  0  0  0  0  0
   45.7598   11.9107   11.1812 C   0  0  0  0  0  0  0  0  0  0  0  0
   44.9280   11.9587    9.9376 C   0  0  0  0  0  0  0  0  0  0  0  0
   44.7578   11.9982    7.5117 C   0  0  0  0  0  0  0  0  0  0  0  0
   45.5222   11.9750    8.6738 C   0  0  0  0  0  0  0  0  0  0  0  0
   43.5329   11.9545   10.0045 C   0  0  0  0  0  0  0  0  0  0  0  0
   42.7493   11.9771    8.8557 C   0  0  0  0  0  0  0  0  0  0  0  0
   43.3737   11.9995    7.6162 C   0  0  0  0  0  0  0  0  0  0  0  0
   46.8578   11.9712    8.5634 F   0  0  0  0  0  0  0  0  0  0  0  0
   42.6289   12.0214    6.5037 F   0  0  0  0  0  0  0  0  0  0  0  0
   42.9236   11.9267   11.1981 F   0  0  0  0  0  0  0  0  0  0  0  0
   47.5459    2.5719   15.8738 H   0  0  0  0  0  0  0  0  0  0  0  0
   46.3444    3.1882   17.9893 H   0  0  0  0  0  0  0  0  0  0  0  0
   45.9809    4.4948   16.8241 H   0  0  0  0  0  0  0  0  0  0  0  0
   47.0916    5.3402   19.0557 H   0  0  0  0  0  0  0  0  0  0  0  0
   49.8257    5.3749   16.6304 H   0  0  0  0  0  0  0  0  0  0  0  0
   49.3857    7.7582   15.9631 H   0  0  0  0  0  0  0  0  0  0  0  0
   50.0389    6.6640   14.7271 H   0  0  0  0  0  0  0  0  0  0  0  0
   48.5605    9.2065   14.3643 H   0  0  0  0  0  0  0  0  0  0  0  0
   48.5845    3.5119   19.5324 H   0  0  0  0  0  0  0  0  0  0  0  0
   49.7330    4.6408   18.7868 H   0  0  0  0  0  0  0  0  0  0  0  0
   49.9851    3.0970   17.0119 H   0  0  0  0  0  0  0  0  0  0  0  0
   48.8214    2.0467   17.8296 H   0  0  0  0  0  0  0  0  0  0  0  0
   44.8757    5.8902   11.8178 H   0  0  0  0  0  0  0  0  0  0  0  0
   45.3583    9.8201   11.3150 H   0  0  0  0  0  0  0  0  0  0  0  0
   45.2592   12.4374   12.0025 H   0  0  0  0  0  0  0  0  0  0  0  0
   46.7193   12.4195   11.0288 H   0  0  0  0  0  0  0  0  0  0  0  0
   45.2366   12.0127    6.5392 H   0  0  0  0  0  0  0  0  0  0  0  0
   41.6676   11.9746    8.9273 H   0  0  0  0  0  0  0  0  0  0  0  0
  1  2  1  0
  2  3  1  0
  3  4  1  0
  4  5  1  0
  5  6  1  0
  1  6  1  0
  8  9  1  0
  9 10  1  0
  7 10  1  0
  5  8  1  0
  7  6  1  0
 12 13  2  0
 13 14  1  0
 11 14  1  0
  9 12  1  0
 11 10  2  0
  3 15  1  0
  1 16  1  0
 16 15  1  0
  7 17  2  0
 14 18  2  0
 11 19  1  0
 13 20  1  0
 20 21  1  0
 20 22  2  0
 21 23  1  0
 23 24  1  0
 25 26  2  0
 27 28  1  0
 28 29  2  0
 25 29  1  0
 26 24  1  0
 24 27  2  0
 26 30  1  0
 29 31  1  0
 27 32  1  0
  1 33  1  1
  2 34  1  0
  2 35  1  0
  3 36  1  6
  5 37  1  1
  8 38  1  0
  8 39  1  0
 12 40  1  0
 15 41  1  0
 15 42  1  0
 16 43  1  0
 16 44  1  0
 19 45  1  0
 21 46  1  0
 23 47  1  0
 23 48  1  0
 25 49  1  0
 28 50  1  0
M  END
> <Uni-Dock RESULT> 
ENERGY=   -4.309  LOWER_BOUND=    4.380  UPPER_BOUND=    6.162
INTER + INTRA:          -4.309
INTER:                  -4.309
INTRA:                   0.000
UNBOUND:                 0.000

$$$$

     RDKit          3D

 50 54  0  0  0  0  0  0  0  0999 V2000
   43.6228   10.2839   11.7230 C   0  0  1  0  0  0  0  0  0  0  0  0
   43.6320    9.9288   10.2362 C   0  0  0  0  0  0  0  0  0  0  0  0
   44.0419   11.2897    9.6860 C   0  0  2  0  0  0  0  0  0  0  0  0
   45.4171   11.5519   10.0341 O   0  0  0  0  0  0  0  0  0  0  0  0
   45.6666   11.6201   11.4468 C   0  0  1  0  0  0  0  0  0  0  0  0
   45.0272   10.4958   12.1015 N   0  0  0  0  0  0  0  0  0  0  0  0
   45.7454    9.3391   12.4267 C   0  0  0  0  0  0  0  0  0  0  0  0
   47.1575   11.7875   11.7629 C   0  0  0  0  0  0  0  0  0  0  0  0
   47.8799   10.5102   11.7085 N   0  0  0  0  0  0  0  0  0  0  0  0
   47.2370    9.3229   12.1061 C   0  0  0  0  0  0  0  0  0  0  0  0
   47.9027    8.1477   12.1715 C   0  0  0  0  0  0  0  0  0  0  0  0
   49.2417   10.4926   11.4311 C   0  0  0  0  0  0  0  0  0  0  0  0
   50.0260    9.4051   11.4632 C   0  0  0  0  0  0  0  0  0  0  0  0
   49.3614    8.1357   11.8330 C   0  0  0  0  0  0  0  0  0  0  0  0
   43.0699   12.2495   10.3868 C   0  0  0  0  0  0  0  0  0  0  0  0
   42.7910   11.5785   11.7464 C   0  0  0  0  0  0  0  0  0  0  0  0
   45.1688    8.3731   12.9239 O   0  0  0  0  0  0  0  0  0  0  0  0
   49.9659    7.0613   11.8741 O   0  0  0  0  0  0  0  0  0  0  0  0
   47.3521    6.9266   12.5082 O   0  0  0  0  0  0  0  0  0  0  0  0
   51.4709    9.5480   11.1392 C   0  0  0  0  0  0  0  0  0  0  0  0
   52.2146    8.4020   11.2453 N   0  0  0  0  0  0  0  0  0  0  0  0
   51.9517   10.6249   10.7970 O   0  0  0  0  0  0  0  0  0  0  0  0
   53.6025    8.3687   10.8498 C   0  0  0  0  0  0  0  0  0  0  0  0
   54.2726    7.1051   11.2913 C   0  0  0  0  0  0  0  0  0  0  0  0
   55.5286    5.8514   12.9545 C   0  0  0  0  0  0  0  0  0  0  0  0
   54.9211    7.0271   12.5258 C   0  0  0  0  0  0  0  0  0  0  0  0
   54.2396    5.9574   10.4961 C   0  0  0  0  0  0  0  0  0  0  0  0
   54.8400    4.7714   10.9050 C   0  0  0  0  0  0  0  0  0  0  0  0
   55.4814    4.7317   12.1354 C   0  0  0  0  0  0  0  0  0  0  0  0
   54.9692    8.1024   13.3242 F   0  0  0  0  0  0  0  0  0  0  0  0
   56.0627    3.5951   12.5389 F   0  0  0  0  0  0  0  0  0  0  0  0
   53.6167    5.9871    9.3096 F   0  0  0  0  0  0  0  0  0  0  0  0
   43.1656    9.5017   12.3362 H   0  0  0  0  0  0  0  0  0  0  0  0
   42.6367    9.6329    9.8862 H   0  0  0  0  0  0  0  0  0  0  0  0
   44.3535    9.1435    9.9888 H   0  0  0  0  0  0  0  0  0  0  0  0
   43.9570   11.3422    8.5971 H   0  0  0  0  0  0  0  0  0  0  0  0
   45.1994   12.5388   11.8194 H   0  0  0  0  0  0  0  0  0  0  0  0
   47.5959   12.5079   11.0614 H   0  0  0  0  0  0  0  0  0  0  0  0
   47.2706   12.1902   12.7775 H   0  0  0  0  0  0  0  0  0  0  0  0
   49.6547   11.4670   11.1728 H   0  0  0  0  0  0  0  0  0  0  0  0
   42.1325   12.3248    9.8239 H   0  0  0  0  0  0  0  0  0  0  0  0
   43.4798   13.2570   10.5061 H   0  0  0  0  0  0  0  0  0  0  0  0
   43.0386   12.2293   12.5910 H   0  0  0  0  0  0  0  0  0  0  0  0
   41.7231   11.3390   11.8146 H   0  0  0  0  0  0  0  0  0  0  0  0
   48.0829    6.2774   12.4603 H   0  0  0  0  0  0  0  0  0  0  0  0
   51.7300    7.5225   11.4221 H   0  0  0  0  0  0  0  0  0  0  0  0
   53.6456    8.4691    9.7586 H   0  0  0  0  0  0  0  0  0  0  0  0
   54.1158    9.2466   11.2601 H   0  0  0  0  0  0  0  0  0  0  0  0
   56.0292    5.8101   13.9152 H   0  0  0  0  0  0  0  0  0  0  0  0
   54.8051    3.8907   10.2737 H   0  0  0  0  0  0  0  0  0  0  0  0
  1  2  1  0
  2  3  1  0
  3  4  1  0
  4  5  1  0
  5  6  1  0
  1  6  1  0
  8  9  1  0
  9 10  1  0
  7 10  1  0
  5  8  1  0
  7  6  1  0
 12 13  2  0
 13 14  1  0
 11 14  1  0
  9 12  1  0
 11 10  2  0
  3 15  1  0
  1 16  1  0
 16 15  1  0
  7 17  2  0
 14 18  2  0
 11 19  1  0
 13 20  1  0
 20 21  1  0
 20 22  2  0
 21 23  1  0
 23 24  1  0
 25 26  2  0
 27 28  1  0
 28 29  2  0
 25 29  1  0
 26 24  1  0
 24 27  2  0
 26 30  1  0
 29 31  1  0
 27 32  1  0
  1 33  1  1
  2 34  1  0
  2 35  1  0
  3 36  1  6
  5 37  1  1
  8 38  1  0
  8 39  1  0
 12 40  1  0
 15 41  1  0
 15 42  1  0
 16 43  1  0
 16 44  1  0
 19 45  1  0
 21 46  1  0
 23 47  1  0
 23 48  1  0
 25 49  1  0
 28 50  1  0
M  END
> <Uni-Dock RESULT> 
ENERGY=   -4.274  LOWER_BOUND=    5.738  UPPER_BOUND=    8.307
INTER + INTRA:          -4.274
INTER:                  -4.274
INTRA:                   0.000
UNBOUND:                 0.000

$$$$

     RDKit          3D

 50 54  0  0  0  0  0  0  0  0999 V2000
   44.6209   16.5370   10.9834 C   0  0  1  0  0  0  0  0  0  0  0  0
   45.1519   16.3259    9.5656 C   0  0  0  0  0  0  0  0  0  0  0  0
   46.6405   16.4587    9.8647 C   0  0  2  0  0  0  0  0  0  0  0  0
   47.0803   15.3124   10.6220 O   0  0  0  0  0  0  0  0  0  0  0  0
   46.4449   15.1702   11.9020 C   0  0  1  0  0  0  0  0  0  0  0  0
   45.0139   15.3455   11.7490 N   0  0  0  0  0  0  0  0  0  0  0  0
   44.1545   14.2462   11.6376 C   0  0  0  0  0  0  0  0  0  0  0  0
   46.8636   13.8791   12.6150 C   0  0  0  0  0  0  0  0  0  0  0  0
   46.1169   12.7125   12.1275 N   0  0  0  0  0  0  0  0  0  0  0  0
   44.7750   12.8553   11.7273 C   0  0  0  0  0  0  0  0  0  0  0  0
   44.0258   11.7859   11.3758 C   0  0  0  0  0  0  0  0  0  0  0  0
   46.6729   11.4421   12.2209 C   0  0  0  0  0  0  0  0  0  0  0  0
   46.0468   10.2966   11.9131 C   0  0  0  0  0  0  0  0  0  0  0  0
   44.6491   10.4260   11.4444 C   0  0  0  0  0  0  0  0  0  0  0  0
   46.7117   17.7580   10.6794 C   0  0  0  0  0  0  0  0  0  0  0  0
   45.3642   17.8097   11.4264 C   0  0  0  0  0  0  0  0  0  0  0  0
   42.9521   14.4191   11.4446 O   0  0  0  0  0  0  0  0  0  0  0  0
   43.9731    9.4513   11.1065 O   0  0  0  0  0  0  0  0  0  0  0  0
   42.7189   11.8280   10.9308 O   0  0  0  0  0  0  0  0  0  0  0  0
   46.7792    9.0107   12.0657 C   0  0  0  0  0  0  0  0  0  0  0  0
   46.0548    7.8829   11.7817 N   0  0  0  0  0  0  0  0  0  0  0  0
   47.9547    8.9761   12.4190 O   0  0  0  0  0  0  0  0  0  0  0  0
   46.6706    6.5773   11.7748 C   0  0  0  0  0  0  0  0  0  0  0  0
   45.6496    5.4853   11.6973 C   0  0  0  0  0  0  0  0  0  0  0  0
   44.1547    3.9110   12.7938 C   0  0  0  0  0  0  0  0  0  0  0  0
   45.1193    4.9115   12.8549 C   0  0  0  0  0  0  0  0  0  0  0  0
   45.1732    5.0320   10.4651 C   0  0  0  0  0  0  0  0  0  0  0  0
   44.2091    4.0330   10.3807 C   0  0  0  0  0  0  0  0  0  0  0  0
   43.7088    3.4807   11.5517 C   0  0  0  0  0  0  0  0  0  0  0  0
   45.5420    5.3228   14.0583 F   0  0  0  0  0  0  0  0  0  0  0  0
   42.7803    2.5185   11.4820 F   0  0  0  0  0  0  0  0  0  0  0  0
   45.6476    5.5653    9.3306 F   0  0  0  0  0  0  0  0  0  0  0  0
   43.5361   16.6772   11.0063 H   0  0  0  0  0  0  0  0  0  0  0  0
   44.8038   17.1097    8.8838 H   0  0  0  0  0  0  0  0  0  0  0  0
   44.8942   15.3445    9.1544 H   0  0  0  0  0  0  0  0  0  0  0  0
   47.2456   16.5107    8.9554 H   0  0  0  0  0  0  0  0  0  0  0  0
   46.8172   15.9755   12.5454 H   0  0  0  0  0  0  0  0  0  0  0  0
   47.9421   13.7283   12.4834 H   0  0  0  0  0  0  0  0  0  0  0  0
   46.6634   13.9763   13.6896 H   0  0  0  0  0  0  0  0  0  0  0  0
   47.7020   11.4332   12.5782 H   0  0  0  0  0  0  0  0  0  0  0  0
   46.7869   18.6249   10.0131 H   0  0  0  0  0  0  0  0  0  0  0  0
   47.5610   17.7811   11.3689 H   0  0  0  0  0  0  0  0  0  0  0  0
   45.4915   17.8733   12.5118 H   0  0  0  0  0  0  0  0  0  0  0  0
   44.8110   18.7003   11.1051 H   0  0  0  0  0  0  0  0  0  0  0  0
   42.4624   10.8999   10.7554 H   0  0  0  0  0  0  0  0  0  0  0  0
   45.1220    7.9913   11.3844 H   0  0  0  0  0  0  0  0  0  0  0  0
   47.3537    6.5302   10.9183 H   0  0  0  0  0  0  0  0  0  0  0  0
   47.2927    6.4670   12.6712 H   0  0  0  0  0  0  0  0  0  0  0  0
   43.7559    3.4759   13.7031 H   0  0  0  0  0  0  0  0  0  0  0  0
   43.8520    3.6931    9.4152 H   0  0  0  0  0  0  0  0  0  0  0  0
  1  2  1  0
  2  3  1  0
  3  4  1  0
  4  5  1  0
  5  6  1  0
  1  6  1  0
  8  9  1  0
  9 10  1  0
  7 10  1  0
  5  8  1  0
  7  6  1  0
 12 13  2  0
 13 14  1  0
 11 14  1  0
  9 12  1  0
 11 10  2  0
  3 15  1  0
  1 16  1  0
 16 15  1  0
  7 17  2  0
 14 18  2  0
 11 19  1  0
 13 20  1  0
 20 21  1  0
 20 22  2  0
 21 23  1  0
 23 24  1  0
 25 26  2  0
 27 28  1  0
 28 29  2  0
 25 29  1  0
 26 24  1  0
 24 27  2  0
 26 30  1  0
 29 31  1  0
 27 32  1  0
  1 33  1  1
  2 34  1  0
  2 35  1  0
  3 36  1  6
  5 37  1  1
  8 38  1  0
  8 39  1  0
 12 40  1  0
 15 41  1  0
 15 42  1  0
 16 43  1  0
 16 44  1  0
 19 45  1  0
 21 46  1  0
 23 47  1  0
 23 48  1  0
 25 49  1  0
 28 50  1  0
M  END
> <Uni-Dock RESULT> 
ENERGY=   -4.063  LOWER_BOUND=    4.957  UPPER_BOUND=    7.066
INTER + INTRA:          -4.063
INTER:                  -4.063
INTRA:                   0.000
UNBOUND:                 0.000

$$$$

     RDKit          3D

 50 54  0  0  0  0  0  0  0  0999 V2000
   49.5916   15.5799   14.7894 C   0  0  1  0  0  0  0  0  0  0  0  0
   50.9262   15.5451   15.5340 C   0  0  0  0  0  0  0  0  0  0  0  0
   50.4341   16.0279   16.8933 C   0  0  2  0  0  0  0  0  0  0  0  0
   49.6210   15.0019   17.4995 O   0  0  0  0  0  0  0  0  0  0  0  0
   48.4354   14.6727   16.7590 C   0  0  1  0  0  0  0  0  0  0  0  0
   48.7763   14.4985   15.3607 N   0  0  0  0  0  0  0  0  0  0  0  0
   48.9959   13.2267   14.8187 C   0  0  0  0  0  0  0  0  0  0  0  0
   47.6685   13.5025   17.3861 C   0  0  0  0  0  0  0  0  0  0  0  0
   48.2458   12.2036   17.0173 N   0  0  0  0  0  0  0  0  0  0  0  0
   48.8199   12.0267   15.7445 C   0  0  0  0  0  0  0  0  0  0  0  0
   49.2630   10.8176   15.3319 C   0  0  0  0  0  0  0  0  0  0  0  0
   48.0751   11.1048   17.8511 C   0  0  0  0  0  0  0  0  0  0  0  0
   48.4583    9.8506   17.5699 C   0  0  0  0  0  0  0  0  0  0  0  0
   49.1076    9.6491   16.2555 C   0  0  0  0  0  0  0  0  0  0  0  0
   49.6220   17.2814   16.5383 C   0  0  0  0  0  0  0  0  0  0  0  0
   49.0593   16.9820   15.1346 C   0  0  0  0  0  0  0  0  0  0  0  0
   49.3463   13.1070   13.6458 O   0  0  0  0  0  0  0  0  0  0  0  0
   49.5280    8.5492   15.8883 O   0  0  0  0  0  0  0  0  0  0  0  0
   49.8766   10.5529   14.1232 O   0  0  0  0  0  0  0  0  0  0  0  0
   48.2057    8.7779   18.5693 C   0  0  0  0  0  0  0  0  0  0  0  0
   48.5783    7.5162   18.1862 N   0  0  0  0  0  0  0  0  0  0  0  0
   47.7003    9.0205   19.6619 O   0  0  0  0  0  0  0  0  0  0  0  0
   48.4991    6.4006   19.0989 C   0  0  0  0  0  0  0  0  0  0  0  0
   48.7063    5.0956   18.3956 C   0  0  0  0  0  0  0  0  0  0  0  0
   47.8104    3.1739   17.2039 C   0  0  0  0  0  0  0  0  0  0  0  0
   47.6266    4.3770   17.8777 C   0  0  0  0  0  0  0  0  0  0  0  0
   49.9888    4.5754   18.2075 C   0  0  0  0  0  0  0  0  0  0  0  0
   50.1958    3.3746   17.5369 C   0  0  0  0  0  0  0  0  0  0  0  0
   49.0988    2.6837   17.0408 C   0  0  0  0  0  0  0  0  0  0  0  0
   46.3795    4.8441   18.0281 F   0  0  0  0  0  0  0  0  0  0  0  0
   49.2866    1.5268   16.3936 F   0  0  0  0  0  0  0  0  0  0  0  0
   51.0529    5.2405   18.6787 F   0  0  0  0  0  0  0  0  0  0  0  0
   49.7125   15.4509   13.7098 H   0  0  0  0  0  0  0  0  0  0  0  0
   51.6510   16.2398   15.0950 H   0  0  0  0  0  0  0  0  0  0  0  0
   51.3640   14.5428   15.5799 H   0  0  0  0  0  0  0  0  0  0  0  0
   51.2558   16.2517   17.5791 H   0  0  0  0  0  0  0  0  0  0  0  0
   47.7516   15.5256   16.8365 H   0  0  0  0  0  0  0  0  0  0  0  0
   47.6563   13.6227   18.4763 H   0  0  0  0  0  0  0  0  0  0  0  0
   46.6301   13.5172   17.0315 H   0  0  0  0  0  0  0  0  0  0  0  0
   47.5852   11.3365   18.7961 H   0  0  0  0  0  0  0  0  0  0  0  0
   50.2759   18.1593   16.4838 H   0  0  0  0  0  0  0  0  0  0  0  0
   48.8267   17.4909   17.2599 H   0  0  0  0  0  0  0  0  0  0  0  0
   47.9669   17.0435   15.1017 H   0  0  0  0  0  0  0  0  0  0  0  0
   49.4542   17.7199   14.4261 H   0  0  0  0  0  0  0  0  0  0  0  0
   50.0807    9.5958   14.1267 H   0  0  0  0  0  0  0  0  0  0  0  0
   49.0956    7.4055   17.3145 H   0  0  0  0  0  0  0  0  0  0  0  0
   49.2578    6.5459   19.8772 H   0  0  0  0  0  0  0  0  0  0  0  0
   47.5281    6.4195   19.6084 H   0  0  0  0  0  0  0  0  0  0  0  0
   46.9600    2.6289   16.8104 H   0  0  0  0  0  0  0  0  0  0  0  0
   51.1986    2.9858   17.4014 H   0  0  0  0  0  0  0  0  0  0  0  0
  1  2  1  0
  2  3  1  0
  3  4  1  0
  4  5  1  0
  5  6  1  0
  1  6  1  0
  8  9  1  0
  9 10  1  0
  7 10  1  0
  5  8  1  0
  7  6  1  0
 12 13  2  0
 13 14  1  0
 11 14  1  0
  9 12  1  0
 11 10  2  0
  3 15  1  0
  1 16  1  0
 16 15  1  0
  7 17  2  0
 14 18  2  0
 11 19  1  0
 13 20  1  0
 20 21  1  0
 20 22  2  0
 21 23  1  0
 23 24  1  0
 25 26  2  0
 27 28  1  0
 28 29  2  0
 25 29  1  0
 26 24  1  0
 24 27  2  0
 26 30  1  0
 29 31  1  0
 27 32  1  0
  1 33  1  1
  2 34  1  0
  2 35  1  0
  3 36  1  6
  5 37  1  1
  8 38  1  0
  8 39  1  0
 12 40  1  0
 15 41  1  0
 15 42  1  0
 16 43  1  0
 16 44  1  0
 19 45  1  0
 21 46  1  0
 23 47  1  0
 23 48  1  0
 25 49  1  0
 28 50  1  0
M  END
> <Uni-Dock RESULT> 
ENERGY=   -4.049  LOWER_BOUND=    5.366  UPPER_BOUND=    7.004
INTER + INTRA:          -4.049
INTER:                  -4.049
INTRA:                   0.000
UNBOUND:                 0.000

$$$$

     RDKit          3D

 50 54  0  0  0  0  0  0  0  0999 V2000
   43.1112   11.9229    7.2938 C   0  0  1  0  0  0  0  0  0  0  0  0
   43.9983   10.9439    6.5248 C   0  0  0  0  0  0  0  0  0  0  0  0
   45.1499   11.8906    6.2079 C   0  0  2  0  0  0  0  0  0  0  0  0
   45.8658   12.1962    7.4226 O   0  0  0  0  0  0  0  0  0  0  0  0
   45.0803   12.8702    8.4181 C   0  0  1  0  0  0  0  0  0  0  0  0
   43.8052   12.1953    8.5605 N   0  0  0  0  0  0  0  0  0  0  0  0
   43.5860   11.2627    9.5812 C   0  0  0  0  0  0  0  0  0  0  0  0
   45.8537   13.0698    9.7268 C   0  0  0  0  0  0  0  0  0  0  0  0
   45.8507   11.8604   10.5596 N   0  0  0  0  0  0  0  0  0  0  0  0
   44.7253   11.0152   10.5654 C   0  0  0  0  0  0  0  0  0  0  0  0
   44.6442    9.9536   11.3991 C   0  0  0  0  0  0  0  0  0  0  0  0
   46.8793   11.6387   11.4677 C   0  0  0  0  0  0  0  0  0  0  0  0
   46.9282   10.6334   12.3543 C   0  0  0  0  0  0  0  0  0  0  0  0
   45.7768    9.7038   12.3463 C   0  0  0  0  0  0  0  0  0  0  0  0
   44.4342   13.1189    5.6283 C   0  0  0  0  0  0  0  0  0  0  0  0
   43.0740   13.1407    6.3535 C   0  0  0  0  0  0  0  0  0  0  0  0
   42.5182   10.6555    9.6444 O   0  0  0  0  0  0  0  0  0  0  0  0
   45.7130    8.7253   13.0945 O   0  0  0  0  0  0  0  0  0  0  0  0
   43.6048    9.0454   11.4498 O   0  0  0  0  0  0  0  0  0  0  0  0
   48.1016   10.5294   13.2628 C   0  0  0  0  0  0  0  0  0  0  0  0
   48.0523    9.5074   14.1741 N   0  0  0  0  0  0  0  0  0  0  0  0
   49.0462   11.3105   13.1882 O   0  0  0  0  0  0  0  0  0  0  0  0
   49.1719    9.2175   15.0381 C   0  0  0  0  0  0  0  0  0  0  0  0
   48.8023    8.2440   16.1134 C   0  0  0  0  0  0  0  0  0  0  0  0
   47.9644    7.7869   18.3505 C   0  0  0  0  0  0  0  0  0  0  0  0
   48.3305    8.6838   17.3521 C   0  0  0  0  0  0  0  0  0  0  0  0
   48.8869    6.8667   15.8971 C   0  0  0  0  0  0  0  0  0  0  0  0
   48.5261    5.9522   16.8809 C   0  0  0  0  0  0  0  0  0  0  0  0
   48.0673    6.4249   18.1027 C   0  0  0  0  0  0  0  0  0  0  0  0
   48.2254    9.9968   17.5991 F   0  0  0  0  0  0  0  0  0  0  0  0
   47.7172    5.5533   19.0569 F   0  0  0  0  0  0  0  0  0  0  0  0
   49.3233    6.4035   14.7174 F   0  0  0  0  0  0  0  0  0  0  0  0
   42.1085   11.5243    7.4743 H   0  0  0  0  0  0  0  0  0  0  0  0
   43.5067   10.5843    5.6140 H   0  0  0  0  0  0  0  0  0  0  0  0
   44.3151   10.0883    7.1299 H   0  0  0  0  0  0  0  0  0  0  0  0
   45.8624   11.4585    5.4999 H   0  0  0  0  0  0  0  0  0  0  0  0
   44.8868   13.8852    8.0529 H   0  0  0  0  0  0  0  0  0  0  0  0
   46.8815   13.3751    9.4950 H   0  0  0  0  0  0  0  0  0  0  0  0
   45.3838   13.8740   10.3073 H   0  0  0  0  0  0  0  0  0  0  0  0
   47.6852   12.3695   11.4126 H   0  0  0  0  0  0  0  0  0  0  0  0
   44.2661   12.9928    4.5526 H   0  0  0  0  0  0  0  0  0  0  0  0
   44.9925   14.0474    5.7813 H   0  0  0  0  0  0  0  0  0  0  0  0
   42.8989   14.0828    6.8827 H   0  0  0  0  0  0  0  0  0  0  0  0
   42.2727   13.0218    5.6146 H   0  0  0  0  0  0  0  0  0  0  0  0
   43.8429    8.3997   12.1456 H   0  0  0  0  0  0  0  0  0  0  0  0
   47.2940    8.8293   14.1038 H   0  0  0  0  0  0  0  0  0  0  0  0
   49.9836    8.8194   14.4175 H   0  0  0  0  0  0  0  0  0  0  0  0
   49.5457   10.1534   15.4705 H   0  0  0  0  0  0  0  0  0  0  0  0
   47.6021    8.1467   19.3067 H   0  0  0  0  0  0  0  0  0  0  0  0
   48.5994    4.8867   16.6953 H   0  0  0  0  0  0  0  0  0  0  0  0
  1  2  1  0
  2  3  1  0
  3  4  1  0
  4  5  1  0
  5  6  1  0
  1  6  1  0
  8  9  1  0
  9 10  1  0
  7 10  1  0
  5  8  1  0
  7  6  1  0
 12 13  2  0
 13 14  1  0
 11 14  1  0
  9 12  1  0
 11 10  2  0
  3 15  1  0
  1 16  1  0
 16 15  1  0
  7 17  2  0
 14 18  2  0
 11 19  1  0
 13 20  1  0
 20 21  1  0
 20 22  2  0
 21 23  1  0
 23 24  1  0
 25 26  2  0
 27 28  1  0
 28 29  2  0
 25 29  1  0
 26 24  1  0
 24 27  2  0
 26 30  1  0
 29 31  1  0
 27 32  1  0
  1 33  1  1
  2 34  1  0
  2 35  1  0
  3 36  1  6
  5 37  1  1
  8 38  1  0
  8 39  1  0
 12 40  1  0
 15 41  1  0
 15 42  1  0
 16 43  1  0
 16 44  1  0
 19 45  1  0
 21 46  1  0
 23 47  1  0
 23 48  1  0
 25 49  1  0
 28 50  1  0
M  END
> <Uni-Dock RESULT> 
ENERGY=   -3.792  LOWER_BOUND=    5.087  UPPER_BOUND=    9.257
INTER + INTRA:          -3.792
INTER:                  -3.792
INTRA:                   0.000
UNBOUND:                 0.000

$$$$
