
     RDKit          3D

 50 54  0  0  0  0  0  0  0  0999 V2000
   49.6155    6.0656   18.6096 C   0  0  1  0  0  0  0  0  0  0  0  0
   50.0473    4.9183   19.5067 C   0  0  0  0  0  0  0  0  0  0  0  0
   48.6826    4.5297   20.0421 C   0  0  2  0  0  0  0  0  0  0  0  0
   47.9695    3.8697   18.9914 O   0  0  0  0  0  0  0  0  0  0  0  0
   47.7221    4.6490   17.8143 C   0  0  1  0  0  0  0  0  0  0  0  0
   48.8460    5.5195   17.4918 N   0  0  0  0  0  0  0  0  0  0  0  0
   48.8562    6.1848   16.2734 C   0  0  0  0  0  0  0  0  0  0  0  0
   47.4069    3.7012   16.6487 C   0  0  0  0  0  0  0  0  0  0  0  0
   47.2007    4.4723   15.4105 N   0  0  0  0  0  0  0  0  0  0  0  0
   47.9318    5.6521   15.1875 C   0  0  0  0  0  0  0  0  0  0  0  0
   47.8562    6.3551   14.0329 C   0  0  0  0  0  0  0  0  0  0  0  0
   46.4001    3.9747   14.3929 C   0  0  0  0  0  0  0  0  0  0  0  0
   46.2153    4.5598   13.1989 C   0  0  0  0  0  0  0  0  0  0  0  0
   46.9439    5.8334   12.9544 C   0  0  0  0  0  0  0  0  0  0  0  0
   48.0397    5.8632   20.4429 C   0  0  0  0  0  0  0  0  0  0  0  0
   48.7117    6.9004   19.5284 C   0  0  0  0  0  0  0  0  0  0  0  0
   49.5776    7.1587   16.0523 O   0  0  0  0  0  0  0  0  0  0  0  0
   46.8068    6.4383   11.8905 O   0  0  0  0  0  0  0  0  0  0  0  0
   48.5533    7.5213   13.7550 O   0  0  0  0  0  0  0  0  0  0  0  0
   45.3134    3.8947   12.2161 C   0  0  0  0  0  0  0  0  0  0  0  0
   45.1457    4.5537   11.0281 N   0  0  0  0  0  0  0  0  0  0  0  0
   44.7662    2.8258   12.4738 O   0  0  0  0  0  0  0  0  0  0  0  0
   44.3755    4.0178    9.9294 C   0  0  0  0  0  0  0  0  0  0  0  0
   45.2627    3.4136    8.8826 C   0  0  0  0  0  0  0  0  0  0  0  0
   46.8949    3.6813    7.0958 C   0  0  0  0  0  0  0  0  0  0  0  0
   46.0504    4.2231    8.0590 C   0  0  0  0  0  0  0  0  0  0  0  0
   45.3431    2.0307    8.7073 C   0  0  0  0  0  0  0  0  0  0  0  0
   46.1808    1.4673    7.7496 C   0  0  0  0  0  0  0  0  0  0  0  0
   46.9520    2.3022    6.9524 C   0  0  0  0  0  0  0  0  0  0  0  0
   45.9947    5.5559    8.1887 F   0  0  0  0  0  0  0  0  0  0  0  0
   47.7613    1.7681    6.0286 F   0  0  0  0  0  0  0  0  0  0  0  0
   44.5947    1.2135    9.4608 F   0  0  0  0  0  0  0  0  0  0  0  0
   50.4681    6.6454   18.2438 H   0  0  0  0  0  0  0  0  0  0  0  0
   50.7135    5.2611   20.3058 H   0  0  0  0  0  0  0  0  0  0  0  0
   50.5288    4.1106   18.9460 H   0  0  0  0  0  0  0  0  0  0  0  0
   48.7479    3.8383   20.8868 H   0  0  0  0  0  0  0  0  0  0  0  0
   46.8482    5.2883   17.9962 H   0  0  0  0  0  0  0  0  0  0  0  0
   46.5206    3.1045   16.8987 H   0  0  0  0  0  0  0  0  0  0  0  0
   48.2327    2.9927   16.5019 H   0  0  0  0  0  0  0  0  0  0  0  0
   45.9057    3.0344   14.6355 H   0  0  0  0  0  0  0  0  0  0  0  0
   48.2667    6.1035   21.4875 H   0  0  0  0  0  0  0  0  0  0  0  0
   46.9526    5.8591   20.3184 H   0  0  0  0  0  0  0  0  0  0  0  0
   47.9770    7.4991   18.9802 H   0  0  0  0  0  0  0  0  0  0  0  0
   49.3167    7.5828   20.1368 H   0  0  0  0  0  0  0  0  0  0  0  0
   49.1460    7.7189   14.5132 H   0  0  0  0  0  0  0  0  0  0  0  0
   45.6635    5.4210   10.8714 H   0  0  0  0  0  0  0  0  0  0  0  0
   43.8031    4.8453    9.4954 H   0  0  0  0  0  0  0  0  0  0  0  0
   43.6482    3.2879   10.3007 H   0  0  0  0  0  0  0  0  0  0  0  0
   47.4992    4.3267    6.4686 H   0  0  0  0  0  0  0  0  0  0  0  0
   46.2293    0.3912    7.6287 H   0  0  0  0  0  0  0  0  0  0  0  0
  1  2  1  0
  2  3  1  0
  3  4  1  0
  4  5  1  0
  5  6  1  0
  1  6  1  0
  8  9  1  0
  9 10  1  0
  7 10  1  0
  5  8  1  0
  7  6  1  0
 12 13  2  0
 13 14  1  0
 11 14  1  0
  9 12  1  0
 11 10  2  0
  3 15  1  0
  1 16  1  0
 16 15  1  0
  7 17  2  0
 14 18  2  0
 11 19  1  0
 13 20  1  0
 20 21  1  0
 20 22  2  0
 21 23  1  0
 23 24  1  0
 25 26  2  0
 27 28  1  0
 28 29  2  0
 25 29  1  0
 26 24  1  0
 24 27  2  0
 26 30  1  0
 29 31  1  0
 27 32  1  0
  1 33  1  6
  2 34  1  0
  2 35  1  0
  3 36  1  6
  5 37  1  1
  8 38  1  0
  8 39  1  0
 12 40  1  0
 15 41  1  0
 15 42  1  0
 16 43  1  0
 16 44  1  0
 19 45  1  0
 21 46  1  0
 23 47  1  0
 23 48  1  0
 25 49  1  0
 28 50  1  0
M  END
> <Uni-Dock RESULT> 
ENERGY=   -7.450  LOWER_BOUND=    0.000  UPPER_BOUND=    0.000
INTER + INTRA:          -7.450
INTER:                  -7.450
INTRA:                   0.000
UNBOUND:                 0.000

$$$$

     RDKit          3D

 50 54  0  0  0  0  0  0  0  0999 V2000
   43.4785    4.6837   10.9146 C   0  0  1  0  0  0  0  0  0  0  0  0
   43.1884    3.3721   11.6236 C   0  0  0  0  0  0  0  0  0  0  0  0
   44.5396    2.7114   11.4295 C   0  0  2  0  0  0  0  0  0  0  0  0
   45.4729    3.3537   12.3040 O   0  0  0  0  0  0  0  0  0  0  0  0
   45.6841    4.7532   12.0785 C   0  0  1  0  0  0  0  0  0  0  0  0
   44.4515    5.4365   11.7061 N   0  0  0  0  0  0  0  0  0  0  0  0
   44.4382    6.8237   11.6550 C   0  0  0  0  0  0  0  0  0  0  0  0
   46.2974    5.3725   13.3421 C   0  0  0  0  0  0  0  0  0  0  0  0
   46.4764    6.8232   13.1594 N   0  0  0  0  0  0  0  0  0  0  0  0
   45.5563    7.5530   12.3867 C   0  0  0  0  0  0  0  0  0  0  0  0
   45.6125    8.8994   12.2562 C   0  0  0  0  0  0  0  0  0  0  0  0
   47.4599    7.5077   13.8582 C   0  0  0  0  0  0  0  0  0  0  0  0
   47.6498    8.8362   13.8236 C   0  0  0  0  0  0  0  0  0  0  0  0
   46.7160    9.6270   12.9778 C   0  0  0  0  0  0  0  0  0  0  0  0
   44.8648    2.9429    9.9487 C   0  0  0  0  0  0  0  0  0  0  0  0
   44.1018    4.2278    9.5873 C   0  0  0  0  0  0  0  0  0  0  0  0
   43.5675    7.4600   11.0593 O   0  0  0  0  0  0  0  0  0  0  0  0
   46.8420   10.8481   12.8800 O   0  0  0  0  0  0  0  0  0  0  0  0
   44.7338    9.6720   11.5117 O   0  0  0  0  0  0  0  0  0  0  0  0
   48.7611    9.4143   14.6314 C   0  0  0  0  0  0  0  0  0  0  0  0
   48.9193   10.7704   14.5333 N   0  0  0  0  0  0  0  0  0  0  0  0
   49.4768    8.7040   15.3327 O   0  0  0  0  0  0  0  0  0  0  0  0
   49.8890   11.5106   15.3075 C   0  0  0  0  0  0  0  0  0  0  0  0
   49.2503   12.1839   16.4850 C   0  0  0  0  0  0  0  0  0  0  0  0
   47.7915   13.9126   17.3862 C   0  0  0  0  0  0  0  0  0  0  0  0
   48.4095   13.2866   16.3087 C   0  0  0  0  0  0  0  0  0  0  0  0
   49.4600   11.7252   17.7870 C   0  0  0  0  0  0  0  0  0  0  0  0
   48.8523   12.3365   18.8794 C   0  0  0  0  0  0  0  0  0  0  0  0
   48.0200   13.4269   18.6658 C   0  0  0  0  0  0  0  0  0  0  0  0
   48.1902   13.7640   15.0758 F   0  0  0  0  0  0  0  0  0  0  0  0
   47.4308   14.0208   19.7116 F   0  0  0  0  0  0  0  0  0  0  0  0
   50.2712   10.6819   18.0092 F   0  0  0  0  0  0  0  0  0  0  0  0
   42.5718    5.2748   10.7549 H   0  0  0  0  0  0  0  0  0  0  0  0
   42.3888    2.8134   11.1250 H   0  0  0  0  0  0  0  0  0  0  0  0
   42.9345    3.5171   12.6786 H   0  0  0  0  0  0  0  0  0  0  0  0
   44.5233    1.6475   11.6820 H   0  0  0  0  0  0  0  0  0  0  0  0
   46.3927    4.8699   11.2481 H   0  0  0  0  0  0  0  0  0  0  0  0
   47.2524    4.8774   13.5593 H   0  0  0  0  0  0  0  0  0  0  0  0
   45.6456    5.1932   14.2073 H   0  0  0  0  0  0  0  0  0  0  0  0
   48.1004    6.8686   14.4654 H   0  0  0  0  0  0  0  0  0  0  0  0
   44.4881    2.1161    9.3363 H   0  0  0  0  0  0  0  0  0  0  0  0
   45.9386    3.0459    9.7660 H   0  0  0  0  0  0  0  0  0  0  0  0
   44.7583    4.9809    9.1394 H   0  0  0  0  0  0  0  0  0  0  0  0
   43.3154    3.9908    8.8611 H   0  0  0  0  0  0  0  0  0  0  0  0
   44.0387    9.0848   11.1415 H   0  0  0  0  0  0  0  0  0  0  0  0
   48.2612   11.3003   13.9579 H   0  0  0  0  0  0  0  0  0  0  0  0
   50.3308   12.2643   14.6461 H   0  0  0  0  0  0  0  0  0  0  0  0
   50.7023   10.8486   15.6236 H   0  0  0  0  0  0  0  0  0  0  0  0
   47.1412   14.7653   17.2275 H   0  0  0  0  0  0  0  0  0  0  0  0
   49.0276   11.9656   19.8828 H   0  0  0  0  0  0  0  0  0  0  0  0
  1  2  1  0
  2  3  1  0
  3  4  1  0
  4  5  1  0
  5  6  1  0
  1  6  1  0
  8  9  1  0
  9 10  1  0
  7 10  1  0
  5  8  1  0
  7  6  1  0
 12 13  2  0
 13 14  1  0
 11 14  1  0
  9 12  1  0
 11 10  2  0
  3 15  1  0
  1 16  1  0
 16 15  1  0
  7 17  2  0
 14 18  2  0
 11 19  1  0
 13 20  1  0
 20 21  1  0
 20 22  2  0
 21 23  1  0
 23 24  1  0
 25 26  2  0
 27 28  1  0
 28 29  2  0
 25 29  1  0
 26 24  1  0
 24 27  2  0
 26 30  1  0
 29 31  1  0
 27 32  1  0
  1 33  1  6
  2 34  1  0
  2 35  1  0
  3 36  1  6
  5 37  1  1
  8 38  1  0
  8 39  1  0
 12 40  1  0
 15 41  1  0
 15 42  1  0
 16 43  1  0
 16 44  1  0
 19 45  1  0
 21 46  1  0
 23 47  1  0
 23 48  1  0
 25 49  1  0
 28 50  1  0
M  END
> <Uni-Dock RESULT> 
ENERGY=   -4.967  LOWER_BOUND=    5.407  UPPER_BOUND=    9.881
INTER + INTRA:          -4.967
INTER:                  -4.967
INTRA:                   0.000
UNBOUND:                 0.000

$$$$

     RDKit          3D

 50 54  0  0  0  0  0  0  0  0999 V2000
   53.0168    8.4871   16.2247 C   0  0  1  0  0  0  0  0  0  0  0  0
   53.3241    7.7714   17.5288 C   0  0  0  0  0  0  0  0  0  0  0  0
   52.2316    8.3865   18.3821 C   0  0  2  0  0  0  0  0  0  0  0  0
   50.9841    7.8106   17.9819 O   0  0  0  0  0  0  0  0  0  0  0  0
   50.5949    8.0384   16.6215 C   0  0  1  0  0  0  0  0  0  0  0  0
   51.7357    7.9981   15.7150 N   0  0  0  0  0  0  0  0  0  0  0  0
   51.5093    7.9926   14.3454 C   0  0  0  0  0  0  0  0  0  0  0  0
   49.5396    6.9962   16.2259 C   0  0  0  0  0  0  0  0  0  0  0  0
   49.1589    7.1718   14.8137 N   0  0  0  0  0  0  0  0  0  0  0  0
   50.1135    7.6052   13.8772 C   0  0  0  0  0  0  0  0  0  0  0  0
   49.8522    7.6979   12.5521 C   0  0  0  0  0  0  0  0  0  0  0  0
   47.9073    6.7768   14.3646 C   0  0  0  0  0  0  0  0  0  0  0  0
   47.4958    6.8189   13.0875 C   0  0  0  0  0  0  0  0  0  0  0  0
   48.4734    7.3157   12.0823 C   0  0  0  0  0  0  0  0  0  0  0  0
   52.3124    9.8872   18.0763 C   0  0  0  0  0  0  0  0  0  0  0  0
   52.8989    9.9558   16.6568 C   0  0  0  0  0  0  0  0  0  0  0  0
   52.3834    8.2756   13.5246 O   0  0  0  0  0  0  0  0  0  0  0  0
   48.1599    7.4027   10.8946 O   0  0  0  0  0  0  0  0  0  0  0  0
   50.7519    8.1153   11.5828 O   0  0  0  0  0  0  0  0  0  0  0  0
   46.1121    6.3624   12.7736 C   0  0  0  0  0  0  0  0  0  0  0  0
   45.7438    6.4544   11.4585 N   0  0  0  0  0  0  0  0  0  0  0  0
   45.3667    5.9348   13.6510 O   0  0  0  0  0  0  0  0  0  0  0  0
   44.4731    5.9814   10.9590 C   0  0  0  0  0  0  0  0  0  0  0  0
   44.6092    4.6428   10.2976 C   0  0  0  0  0  0  0  0  0  0  0  0
   45.4026    3.2829    8.4402 C   0  0  0  0  0  0  0  0  0  0  0  0
   45.2485    4.5182    9.0607 C   0  0  0  0  0  0  0  0  0  0  0  0
   44.1192    3.4816   10.8984 C   0  0  0  0  0  0  0  0  0  0  0  0
   44.2620    2.2357   10.2953 C   0  0  0  0  0  0  0  0  0  0  0  0
   44.9064    2.1496    9.0687 C   0  0  0  0  0  0  0  0  0  0  0  0
   45.7241    5.6101    8.4461 F   0  0  0  0  0  0  0  0  0  0  0  0
   45.0486    0.9543    8.4816 F   0  0  0  0  0  0  0  0  0  0  0  0
   43.4836    3.5515   12.0761 F   0  0  0  0  0  0  0  0  0  0  0  0
   53.8068    8.3452   15.4812 H   0  0  0  0  0  0  0  0  0  0  0  0
   54.3218    8.0264   17.9023 H   0  0  0  0  0  0  0  0  0  0  0  0
   53.2306    6.6844   17.4386 H   0  0  0  0  0  0  0  0  0  0  0  0
   52.3685    8.1794   19.4471 H   0  0  0  0  0  0  0  0  0  0  0  0
   50.1482    9.0388   16.5491 H   0  0  0  0  0  0  0  0  0  0  0  0
   48.6701    7.0943   16.8882 H   0  0  0  0  0  0  0  0  0  0  0  0
   49.9343    5.9822   16.3722 H   0  0  0  0  0  0  0  0  0  0  0  0
   47.2466    6.4138   15.1515 H   0  0  0  0  0  0  0  0  0  0  0  0
   52.9949   10.3875   18.7724 H   0  0  0  0  0  0  0  0  0  0  0  0
   51.3376   10.3805   18.1348 H   0  0  0  0  0  0  0  0  0  0  0  0
   52.2739   10.5529   15.9846 H   0  0  0  0  0  0  0  0  0  0  0  0
   53.8913   10.4200   16.6961 H   0  0  0  0  0  0  0  0  0  0  0  0
   51.6196    8.2803   12.0128 H   0  0  0  0  0  0  0  0  0  0  0  0
   46.4317    6.7858   10.7788 H   0  0  0  0  0  0  0  0  0  0  0  0
   44.1117    6.7174   10.2321 H   0  0  0  0  0  0  0  0  0  0  0  0
   43.7387    5.9486   11.7708 H   0  0  0  0  0  0  0  0  0  0  0  0
   45.9035    3.2078    7.4818 H   0  0  0  0  0  0  0  0  0  0  0  0
   43.8748    1.3456   10.7777 H   0  0  0  0  0  0  0  0  0  0  0  0
  1  2  1  0
  2  3  1  0
  3  4  1  0
  4  5  1  0
  5  6  1  0
  1  6  1  0
  8  9  1  0
  9 10  1  0
  7 10  1  0
  5  8  1  0
  7  6  1  0
 12 13  2  0
 13 14  1  0
 11 14  1  0
  9 12  1  0
 11 10  2  0
  3 15  1  0
  1 16  1  0
 16 15  1  0
  7 17  2  0
 14 18  2  0
 11 19  1  0
 13 20  1  0
 20 21  1  0
 20 22  2  0
 21 23  1  0
 23 24  1  0
 25 26  2  0
 27 28  1  0
 28 29  2  0
 25 29  1  0
 26 24  1  0
 24 27  2  0
 26 30  1  0
 29 31  1  0
 27 32  1  0
  1 33  1  6
  2 34  1  0
  2 35  1  0
  3 36  1  6
  5 37  1  1
  8 38  1  0
  8 39  1  0
 12 40  1  0
 15 41  1  0
 15 42  1  0
 16 43  1  0
 16 44  1  0
 19 45  1  0
 21 46  1  0
 23 47  1  0
 23 48  1  0
 25 49  1  0
 28 50  1  0
M  END
> <Uni-Dock RESULT> 
ENERGY=   -4.794  LOWER_BOUND=    2.783  UPPER_BOUND=    3.620
INTER + INTRA:          -4.794
INTER:                  -4.794
INTRA:                   0.000
UNBOUND:                 0.000

$$$$
