
     RDKit          3D

 50 54  0  0  0  0  0  0  0  0999 V2000
   50.6793   12.6796   12.6308 C   0  0  1  0  0  0  0  0  0  0  0  0
   50.0562   14.0491   12.8382 C   0  0  0  0  0  0  0  0  0  0  0  0
   49.3446   14.1727   11.5053 C   0  0  2  0  0  0  0  0  0  0  0  0
   48.2115   13.2987   11.5292 O   0  0  0  0  0  0  0  0  0  0  0  0
   48.4993   11.9044   11.6998 C   0  0  1  0  0  0  0  0  0  0  0  0
   49.6128   11.6782   12.6058 N   0  0  0  0  0  0  0  0  0  0  0  0
   49.8949   10.3797   13.0355 C   0  0  0  0  0  0  0  0  0  0  0  0
   47.2370   11.2033   12.2142 C   0  0  0  0  0  0  0  0  0  0  0  0
   47.5026    9.7684   12.4056 N   0  0  0  0  0  0  0  0  0  0  0  0
   48.7858    9.3423   12.8276 C   0  0  0  0  0  0  0  0  0  0  0  0
   49.0600    8.0380   13.0551 C   0  0  0  0  0  0  0  0  0  0  0  0
   46.4722    8.8414   12.3213 C   0  0  0  0  0  0  0  0  0  0  0  0
   46.6139    7.5232   12.5192 C   0  0  0  0  0  0  0  0  0  0  0  0
   47.9632    7.0335   12.8690 C   0  0  0  0  0  0  0  0  0  0  0  0
   50.3946   13.7464   10.4718 C   0  0  0  0  0  0  0  0  0  0  0  0
   51.3297   12.8033   11.2453 C   0  0  0  0  0  0  0  0  0  0  0  0
   50.9665   10.1106   13.5711 O   0  0  0  0  0  0  0  0  0  0  0  0
   48.2397    5.8407   12.9832 O   0  0  0  0  0  0  0  0  0  0  0  0
   50.2892    7.5268   13.4211 O   0  0  0  0  0  0  0  0  0  0  0  0
   45.4382    6.6330   12.4518 C   0  0  0  0  0  0  0  0  0  0  0  0
   44.7789    6.6674   11.2436 N   0  0  0  0  0  0  0  0  0  0  0  0
   45.1002    5.9405   13.4019 O   0  0  0  0  0  0  0  0  0  0  0  0
   43.7170    5.7293   10.9406 C   0  0  0  0  0  0  0  0  0  0  0  0
   44.2301    4.4823   10.2802 C   0  0  0  0  0  0  0  0  0  0  0  0
   45.5629    3.3852    8.5617 C   0  0  0  0  0  0  0  0  0  0  0  0
   45.0989    4.5383    9.1856 C   0  0  0  0  0  0  0  0  0  0  0  0
   43.8117    3.2214   10.7127 C   0  0  0  0  0  0  0  0  0  0  0  0
   44.2631    2.0549   10.1033 C   0  0  0  0  0  0  0  0  0  0  0  0
   45.1408    2.1502    9.0332 C   0  0  0  0  0  0  0  0  0  0  0  0
   45.4979    5.7293    8.7124 F   0  0  0  0  0  0  0  0  0  0  0  0
   45.5766    1.0339    8.4359 F   0  0  0  0  0  0  0  0  0  0  0  0
   42.9392    3.1170   11.7245 F   0  0  0  0  0  0  0  0  0  0  0  0
   51.4158   12.4447   13.4045 H   0  0  0  0  0  0  0  0  0  0  0  0
   49.3687   14.0687   13.6903 H   0  0  0  0  0  0  0  0  0  0  0  0
   50.8204   14.8241   12.9627 H   0  0  0  0  0  0  0  0  0  0  0  0
   48.9793   15.1867   11.3200 H   0  0  0  0  0  0  0  0  0  0  0  0
   48.7710   11.4843   10.7226 H   0  0  0  0  0  0  0  0  0  0  0  0
   46.9145   11.6452   13.1661 H   0  0  0  0  0  0  0  0  0  0  0  0
   46.4190   11.3627   11.5000 H   0  0  0  0  0  0  0  0  0  0  0  0
   45.4992    9.2732   12.0955 H   0  0  0  0  0  0  0  0  0  0  0  0
   50.9667   14.6125   10.1207 H   0  0  0  0  0  0  0  0  0  0  0  0
   49.9506   13.2521    9.6026 H   0  0  0  0  0  0  0  0  0  0  0  0
   51.4495   11.8398   10.7398 H   0  0  0  0  0  0  0  0  0  0  0  0
   52.3206   13.2647   11.3317 H   0  0  0  0  0  0  0  0  0  0  0  0
   50.1572    6.5600   13.5131 H   0  0  0  0  0  0  0  0  0  0  0  0
   45.2227    7.1228   10.4552 H   0  0  0  0  0  0  0  0  0  0  0  0
   43.0206    6.2337   10.2617 H   0  0  0  0  0  0  0  0  0  0  0  0
   43.1740    5.4972   11.8632 H   0  0  0  0  0  0  0  0  0  0  0  0
   46.2412    3.4487    7.7185 H   0  0  0  0  0  0  0  0  0  0  0  0
   43.9306    1.0861   10.4582 H   0  0  0  0  0  0  0  0  0  0  0  0
  1  2  1  0
  2  3  1  0
  3  4  1  0
  4  5  1  0
  5  6  1  0
  1  6  1  0
  8  9  1  0
  9 10  1  0
  7 10  1  0
  5  8  1  0
  7  6  1  0
 12 13  2  0
 13 14  1  0
 11 14  1  0
  9 12  1  0
 11 10  2  0
  3 15  1  0
  1 16  1  0
 16 15  1  0
  7 17  2  0
 14 18  2  0
 11 19  1  0
 13 20  1  0
 20 21  1  0
 20 22  2  0
 21 23  1  0
 23 24  1  0
 25 26  2  0
 27 28  1  0
 28 29  2  0
 25 29  1  0
 26 24  1  0
 24 27  2  0
 26 30  1  0
 29 31  1  0
 27 32  1  0
  1 33  1  6
  2 34  1  0
  2 35  1  0
  3 36  1  1
  5 37  1  6
  8 38  1  0
  8 39  1  0
 12 40  1  0
 15 41  1  0
 15 42  1  0
 16 43  1  0
 16 44  1  0
 19 45  1  0
 21 46  1  0
 23 47  1  0
 23 48  1  0
 25 49  1  0
 28 50  1  0
M  END
> <Uni-Dock RESULT> 
ENERGY=   -5.116  LOWER_BOUND=    0.000  UPPER_BOUND=    0.000
INTER + INTRA:          -5.116
INTER:                  -5.116
INTRA:                   0.000
UNBOUND:                 0.000

$$$$

     RDKit          3D

 50 54  0  0  0  0  0  0  0  0999 V2000
   43.5935    4.9252   11.1760 C   0  0  1  0  0  0  0  0  0  0  0  0
   43.1387    3.5701   11.6895 C   0  0  0  0  0  0  0  0  0  0  0  0
   44.3717    2.7686   11.3213 C   0  0  2  0  0  0  0  0  0  0  0  0
   45.4152    3.1231   12.2343 O   0  0  0  0  0  0  0  0  0  0  0  0
   45.8164    4.4997   12.2235 C   0  0  1  0  0  0  0  0  0  0  0  0
   44.6943    5.3992   12.0152 N   0  0  0  0  0  0  0  0  0  0  0  0
   44.8784    6.7744   12.1751 C   0  0  0  0  0  0  0  0  0  0  0  0
   46.5194    4.8152   13.5485 C   0  0  0  0  0  0  0  0  0  0  0  0
   46.9389    6.2258   13.5706 N   0  0  0  0  0  0  0  0  0  0  0  0
   46.1434    7.2047   12.9263 C   0  0  0  0  0  0  0  0  0  0  0  0
   46.4703    8.5162   12.9576 C   0  0  0  0  0  0  0  0  0  0  0  0
   48.0231    6.6289   14.3387 C   0  0  0  0  0  0  0  0  0  0  0  0
   48.4510    7.8944   14.4496 C   0  0  0  0  0  0  0  0  0  0  0  0
   47.6977    8.9295   13.7122 C   0  0  0  0  0  0  0  0  0  0  0  0
   44.6833    3.1896    9.8797 C   0  0  0  0  0  0  0  0  0  0  0  0
   44.0982    4.6058    9.7614 C   0  0  0  0  0  0  0  0  0  0  0  0
   44.0491    7.5757   11.7536 O   0  0  0  0  0  0  0  0  0  0  0  0
   48.0454   10.1079   13.6591 O   0  0  0  0  0  0  0  0  0  0  0  0
   45.7840    9.5314   12.3216 O   0  0  0  0  0  0  0  0  0  0  0  0
   49.5875    8.2177   15.3345 C   0  0  0  0  0  0  0  0  0  0  0  0
   50.7509    7.5536   15.0163 N   0  0  0  0  0  0  0  0  0  0  0  0
   49.4759    9.0060   16.2632 O   0  0  0  0  0  0  0  0  0  0  0  0
   52.0050    7.8838   15.6627 C   0  0  0  0  0  0  0  0  0  0  0  0
   52.7658    8.9447   14.9211 C   0  0  0  0  0  0  0  0  0  0  0  0
   53.7042    9.8317   12.8557 C   0  0  0  0  0  0  0  0  0  0  0  0
   52.9859    8.8589   13.5426 C   0  0  0  0  0  0  0  0  0  0  0  0
   53.3225   10.0311   15.6006 C   0  0  0  0  0  0  0  0  0  0  0  0
   54.0446   11.0157   14.9337 C   0  0  0  0  0  0  0  0  0  0  0  0
   54.2242   10.9068   13.5624 C   0  0  0  0  0  0  0  0  0  0  0  0
   52.5013    7.8131   12.8547 F   0  0  0  0  0  0  0  0  0  0  0  0
   54.9226   11.8459   12.9118 F   0  0  0  0  0  0  0  0  0  0  0  0
   53.1835   10.1309   16.9298 F   0  0  0  0  0  0  0  0  0  0  0  0
   42.7756    5.6513   11.1599 H   0  0  0  0  0  0  0  0  0  0  0  0
   42.9430    3.5777   12.7668 H   0  0  0  0  0  0  0  0  0  0  0  0
   42.2505    3.2150   11.1555 H   0  0  0  0  0  0  0  0  0  0  0  0
   44.2084    1.6905   11.4042 H   0  0  0  0  0  0  0  0  0  0  0  0
   46.5237    4.6482   11.3971 H   0  0  0  0  0  0  0  0  0  0  0  0
   45.8470    4.6208   14.3945 H   0  0  0  0  0  0  0  0  0  0  0  0
   47.3797    4.1444   13.6696 H   0  0  0  0  0  0  0  0  0  0  0  0
   48.5104    5.8224   14.8830 H   0  0  0  0  0  0  0  0  0  0  0  0
   44.1777    2.5302    9.1655 H   0  0  0  0  0  0  0  0  0  0  0  0
   45.7554    3.1755    9.6615 H   0  0  0  0  0  0  0  0  0  0  0  0
   44.8380    5.3256    9.3969 H   0  0  0  0  0  0  0  0  0  0  0  0
   43.2608    4.5949    9.0537 H   0  0  0  0  0  0  0  0  0  0  0  0
   46.2657   10.3559   12.5427 H   0  0  0  0  0  0  0  0  0  0  0  0
   50.8099    7.0631   14.1321 H   0  0  0  0  0  0  0  0  0  0  0  0
   52.6059    6.9683   15.6950 H   0  0  0  0  0  0  0  0  0  0  0  0
   51.8031    8.1867   16.6959 H   0  0  0  0  0  0  0  0  0  0  0  0
   53.8588    9.7511   11.7858 H   0  0  0  0  0  0  0  0  0  0  0  0
   54.4634   11.8537   15.4790 H   0  0  0  0  0  0  0  0  0  0  0  0
  1  2  1  0
  2  3  1  0
  3  4  1  0
  4  5  1  0
  5  6  1  0
  1  6  1  0
  8  9  1  0
  9 10  1  0
  7 10  1  0
  5  8  1  0
  7  6  1  0
 12 13  2  0
 13 14  1  0
 11 14  1  0
  9 12  1  0
 11 10  2  0
  3 15  1  0
  1 16  1  0
 16 15  1  0
  7 17  2  0
 14 18  2  0
 11 19  1  0
 13 20  1  0
 20 21  1  0
 20 22  2  0
 21 23  1  0
 23 24  1  0
 25 26  2  0
 27 28  1  0
 28 29  2  0
 25 29  1  0
 26 24  1  0
 24 27  2  0
 26 30  1  0
 29 31  1  0
 27 32  1  0
  1 33  1  6
  2 34  1  0
  2 35  1  0
  3 36  1  1
  5 37  1  6
  8 38  1  0
  8 39  1  0
 12 40  1  0
 15 41  1  0
 15 42  1  0
 16 43  1  0
 16 44  1  0
 19 45  1  0
 21 46  1  0
 23 47  1  0
 23 48  1  0
 25 49  1  0
 28 50  1  0
M  END
> <Uni-Dock RESULT> 
ENERGY=   -4.396  LOWER_BOUND=    4.274  UPPER_BOUND=    9.249
INTER + INTRA:          -4.396
INTER:                  -4.396
INTRA:                   0.000
UNBOUND:                 0.000

$$$$

     RDKit          3D

 50 54  0  0  0  0  0  0  0  0999 V2000
   43.5793    4.8726   11.1989 C   0  0  1  0  0  0  0  0  0  0  0  0
   43.1390    3.5133   11.7139 C   0  0  0  0  0  0  0  0  0  0  0  0
   44.3747    2.7216   11.3335 C   0  0  2  0  0  0  0  0  0  0  0  0
   45.4235    3.0822   12.2381 O   0  0  0  0  0  0  0  0  0  0  0  0
   45.8144    4.4617   12.2262 C   0  0  1  0  0  0  0  0  0  0  0  0
   44.6839    5.3533   12.0293 N   0  0  0  0  0  0  0  0  0  0  0  0
   44.8592    6.7295   12.1901 C   0  0  0  0  0  0  0  0  0  0  0  0
   46.5265    4.7802   13.5457 C   0  0  0  0  0  0  0  0  0  0  0  0
   46.9357    6.1938   13.5666 N   0  0  0  0  0  0  0  0  0  0  0  0
   46.1274    7.1679   12.9311 C   0  0  0  0  0  0  0  0  0  0  0  0
   46.4450    8.4818   12.9619 C   0  0  0  0  0  0  0  0  0  0  0  0
   48.0236    6.6035   14.3260 C   0  0  0  0  0  0  0  0  0  0  0  0
   48.4431    7.8721   14.4355 C   0  0  0  0  0  0  0  0  0  0  0  0
   47.6758    8.9028   13.7065 C   0  0  0  0  0  0  0  0  0  0  0  0
   44.6706    3.1474    9.8900 C   0  0  0  0  0  0  0  0  0  0  0  0
   44.0740    4.5594    9.7794 C   0  0  0  0  0  0  0  0  0  0  0  0
   44.0204    7.5254   11.7773 O   0  0  0  0  0  0  0  0  0  0  0  0
   48.0142   10.0839   13.6525 O   0  0  0  0  0  0  0  0  0  0  0  0
   45.7456    9.4929   12.3337 O   0  0  0  0  0  0  0  0  0  0  0  0
   49.5849    8.2022   15.3110 C   0  0  0  0  0  0  0  0  0  0  0  0
   50.7503    7.5472   14.9815 N   0  0  0  0  0  0  0  0  0  0  0  0
   49.4755    8.9881   16.2421 O   0  0  0  0  0  0  0  0  0  0  0  0
   52.0075    7.8857   15.6176 C   0  0  0  0  0  0  0  0  0  0  0  0
   52.7540    8.9534   14.8713 C   0  0  0  0  0  0  0  0  0  0  0  0
   53.6677    9.8509   12.7994 C   0  0  0  0  0  0  0  0  0  0  0  0
   52.9627    8.8716   13.4907 C   0  0  0  0  0  0  0  0  0  0  0  0
   53.3085   10.0427   15.5479 C   0  0  0  0  0  0  0  0  0  0  0  0
   54.0175   11.0338   14.8765 C   0  0  0  0  0  0  0  0  0  0  0  0
   54.1859   10.9287   13.5034 C   0  0  0  0  0  0  0  0  0  0  0  0
   52.4799    7.8235   12.8052 F   0  0  0  0  0  0  0  0  0  0  0  0
   54.8716   11.8740   12.8485 F   0  0  0  0  0  0  0  0  0  0  0  0
   53.1804   10.1392   16.8784 F   0  0  0  0  0  0  0  0  0  0  0  0
   42.7560    5.5926   11.1912 H   0  0  0  0  0  0  0  0  0  0  0  0
   42.9526    3.5176   12.7929 H   0  0  0  0  0  0  0  0  0  0  0  0
   42.2488    3.1526   11.1870 H   0  0  0  0  0  0  0  0  0  0  0  0
   44.2201    1.6422   11.4159 H   0  0  0  0  0  0  0  0  0  0  0  0
   46.5133    4.6169   11.3939 H   0  0  0  0  0  0  0  0  0  0  0  0
   45.8630    4.5793   14.3971 H   0  0  0  0  0  0  0  0  0  0  0  0
   47.3927    4.1155   13.6580 H   0  0  0  0  0  0  0  0  0  0  0  0
   48.5216    5.7998   14.8646 H   0  0  0  0  0  0  0  0  0  0  0  0
   44.1636    2.4855    9.1790 H   0  0  0  0  0  0  0  0  0  0  0  0
   45.7408    3.1417    9.6625 H   0  0  0  0  0  0  0  0  0  0  0  0
   44.8053    5.2854    9.4097 H   0  0  0  0  0  0  0  0  0  0  0  0
   43.2306    4.5436    9.0790 H   0  0  0  0  0  0  0  0  0  0  0  0
   46.2231   10.3206   12.5521 H   0  0  0  0  0  0  0  0  0  0  0  0
   50.8052    7.0588   14.0959 H   0  0  0  0  0  0  0  0  0  0  0  0
   52.6154    6.9745   15.6430 H   0  0  0  0  0  0  0  0  0  0  0  0
   51.8124    8.1853   16.6530 H   0  0  0  0  0  0  0  0  0  0  0  0
   53.8136    9.7734   11.7280 H   0  0  0  0  0  0  0  0  0  0  0  0
   54.4348   11.8739   15.4197 H   0  0  0  0  0  0  0  0  0  0  0  0
  1  2  1  0
  2  3  1  0
  3  4  1  0
  4  5  1  0
  5  6  1  0
  1  6  1  0
  8  9  1  0
  9 10  1  0
  7 10  1  0
  5  8  1  0
  7  6  1  0
 12 13  2  0
 13 14  1  0
 11 14  1  0
  9 12  1  0
 11 10  2  0
  3 15  1  0
  1 16  1  0
 16 15  1  0
  7 17  2  0
 14 18  2  0
 11 19  1  0
 13 20  1  0
 20 21  1  0
 20 22  2  0
 21 23  1  0
 23 24  1  0
 25 26  2  0
 27 28  1  0
 28 29  2  0
 25 29  1  0
 26 24  1  0
 24 27  2  0
 26 30  1  0
 29 31  1  0
 27 32  1  0
  1 33  1  6
  2 34  1  0
  2 35  1  0
  3 36  1  1
  5 37  1  6
  8 38  1  0
  8 39  1  0
 12 40  1  0
 15 41  1  0
 15 42  1  0
 16 43  1  0
 16 44  1  0
 19 45  1  0
 21 46  1  0
 23 47  1  0
 23 48  1  0
 25 49  1  0
 28 50  1  0
M  END
> <Uni-Dock RESULT> 
ENERGY=   -4.392  LOWER_BOUND=    4.257  UPPER_BOUND=    9.252
INTER + INTRA:          -4.392
INTER:                  -4.392
INTRA:                   0.000
UNBOUND:                 0.000

$$$$

     RDKit          3D

 50 54  0  0  0  0  0  0  0  0999 V2000
   44.9542    3.9254   12.1539 C   0  0  1  0  0  0  0  0  0  0  0  0
   44.6342    4.2258   10.6999 C   0  0  0  0  0  0  0  0  0  0  0  0
   43.7477    5.4368   10.9139 C   0  0  2  0  0  0  0  0  0  0  0  0
   44.5858    6.5341   11.2905 O   0  0  0  0  0  0  0  0  0  0  0  0
   45.3309    6.3658   12.5040 C   0  0  1  0  0  0  0  0  0  0  0  0
   45.7957    5.0003   12.6805 N   0  0  0  0  0  0  0  0  0  0  0  0
   46.7004    4.7104   13.7042 C   0  0  0  0  0  0  0  0  0  0  0  0
   46.5150    7.3390   12.4904 C   0  0  0  0  0  0  0  0  0  0  0  0
   47.3045    7.1859   13.7231 N   0  0  0  0  0  0  0  0  0  0  0  0
   47.4287    5.9089   14.3229 C   0  0  0  0  0  0  0  0  0  0  0  0
   48.1779    5.7167   15.4319 C   0  0  0  0  0  0  0  0  0  0  0  0
   48.0491    8.2465   14.2218 C   0  0  0  0  0  0  0  0  0  0  0  0
   48.8260    8.1868   15.3127 C   0  0  0  0  0  0  0  0  0  0  0  0
   48.9028    6.8907   16.0175 C   0  0  0  0  0  0  0  0  0  0  0  0
   42.7911    5.0152   12.0362 C   0  0  0  0  0  0  0  0  0  0  0  0
   43.5724    3.9510   12.8231 C   0  0  0  0  0  0  0  0  0  0  0  0
   46.9059    3.5521   14.0559 O   0  0  0  0  0  0  0  0  0  0  0  0
   49.5048    6.7340   17.0783 O   0  0  0  0  0  0  0  0  0  0  0  0
   48.3185    4.5225   16.1103 O   0  0  0  0  0  0  0  0  0  0  0  0
   49.6138    9.3646   15.7268 C   0  0  0  0  0  0  0  0  0  0  0  0
   48.8542   10.4841   15.9826 N   0  0  0  0  0  0  0  0  0  0  0  0
   50.8327    9.3223   15.8217 O   0  0  0  0  0  0  0  0  0  0  0  0
   49.4409   11.6714   16.5706 C   0  0  0  0  0  0  0  0  0  0  0  0
   49.3751   11.6561   18.0705 C   0  0  0  0  0  0  0  0  0  0  0  0
   48.1183   11.3672   20.1369 C   0  0  0  0  0  0  0  0  0  0  0  0
   48.1863   11.3662   18.7479 C   0  0  0  0  0  0  0  0  0  0  0  0
   50.4961   11.9823   18.8378 C   0  0  0  0  0  0  0  0  0  0  0  0
   50.4507   11.9897   20.2283 C   0  0  0  0  0  0  0  0  0  0  0  0
   49.2586   11.6763   20.8650 C   0  0  0  0  0  0  0  0  0  0  0  0
   47.0746   11.0835   18.0509 F   0  0  0  0  0  0  0  0  0  0  0  0
   49.2026   11.6862   22.2027 F   0  0  0  0  0  0  0  0  0  0  0  0
   51.6447   12.3181   18.2345 F   0  0  0  0  0  0  0  0  0  0  0  0
   45.4436    2.9544   12.2721 H   0  0  0  0  0  0  0  0  0  0  0  0
   45.5313    4.4541   10.1150 H   0  0  0  0  0  0  0  0  0  0  0  0
   44.0870    3.4013   10.2298 H   0  0  0  0  0  0  0  0  0  0  0  0
   43.2091    5.7249   10.0069 H   0  0  0  0  0  0  0  0  0  0  0  0
   44.6751    6.6093   13.3501 H   0  0  0  0  0  0  0  0  0  0  0  0
   47.1565    7.1494   11.6198 H   0  0  0  0  0  0  0  0  0  0  0  0
   46.1382    8.3647   12.3864 H   0  0  0  0  0  0  0  0  0  0  0  0
   47.9749    9.1602   13.6355 H   0  0  0  0  0  0  0  0  0  0  0  0
   41.8832    4.5625   11.6221 H   0  0  0  0  0  0  0  0  0  0  0  0
   42.4970    5.8545   12.6737 H   0  0  0  0  0  0  0  0  0  0  0  0
   43.6173    4.1826   13.8920 H   0  0  0  0  0  0  0  0  0  0  0  0
   43.0780    2.9790   12.7089 H   0  0  0  0  0  0  0  0  0  0  0  0
   48.9246    4.7118   16.8570 H   0  0  0  0  0  0  0  0  0  0  0  0
   47.8487   10.3882   16.0578 H   0  0  0  0  0  0  0  0  0  0  0  0
   48.8773   12.5330   16.1959 H   0  0  0  0  0  0  0  0  0  0  0  0
   50.4734   11.7694   16.2179 H   0  0  0  0  0  0  0  0  0  0  0  0
   47.1893   11.1335   20.6443 H   0  0  0  0  0  0  0  0  0  0  0  0
   51.3337   12.2401   20.8051 H   0  0  0  0  0  0  0  0  0  0  0  0
  1  2  1  0
  2  3  1  0
  3  4  1  0
  4  5  1  0
  5  6  1  0
  1  6  1  0
  8  9  1  0
  9 10  1  0
  7 10  1  0
  5  8  1  0
  7  6  1  0
 12 13  2  0
 13 14  1  0
 11 14  1  0
  9 12  1  0
 11 10  2  0
  3 15  1  0
  1 16  1  0
 16 15  1  0
  7 17  2  0
 14 18  2  0
 11 19  1  0
 13 20  1  0
 20 21  1  0
 20 22  2  0
 21 23  1  0
 23 24  1  0
 25 26  2  0
 27 28  1  0
 28 29  2  0
 25 29  1  0
 26 24  1  0
 24 27  2  0
 26 30  1  0
 29 31  1  0
 27 32  1  0
  1 33  1  6
  2 34  1  0
  2 35  1  0
  3 36  1  1
  5 37  1  6
  8 38  1  0
  8 39  1  0
 12 40  1  0
 15 41  1  0
 15 42  1  0
 16 43  1  0
 16 44  1  0
 19 45  1  0
 21 46  1  0
 23 47  1  0
 23 48  1  0
 25 49  1  0
 28 50  1  0
M  END
> <Uni-Dock RESULT> 
ENERGY=   -4.331  LOWER_BOUND=    5.391  UPPER_BOUND=    9.764
INTER + INTRA:          -4.331
INTER:                  -4.331
INTRA:                   0.000
UNBOUND:                 0.000

$$$$

     RDKit          3D

 50 54  0  0  0  0  0  0  0  0999 V2000
   42.2111   10.2878   10.3429 C   0  0  1  0  0  0  0  0  0  0  0  0
   42.4770   11.5807    9.5917 C   0  0  0  0  0  0  0  0  0  0  0  0
   42.7083   12.4867   10.7850 C   0  0  2  0  0  0  0  0  0  0  0  0
   43.9897   12.1679   11.3370 O   0  0  0  0  0  0  0  0  0  0  0  0
   44.1487   10.8265   11.8179 C   0  0  1  0  0  0  0  0  0  0  0  0
   43.4512    9.8576   10.9892 N   0  0  0  0  0  0  0  0  0  0  0  0
   43.6653    8.4937   11.2004 C   0  0  0  0  0  0  0  0  0  0  0  0
   45.6456   10.5025   11.8791 C   0  0  0  0  0  0  0  0  0  0  0  0
   45.8419    9.1270   12.3645 N   0  0  0  0  0  0  0  0  0  0  0  0
   44.9009    8.1231   12.0284 C   0  0  0  0  0  0  0  0  0  0  0  0
   45.0647    6.8391   12.4187 C   0  0  0  0  0  0  0  0  0  0  0  0
   47.0116    8.7695   13.0217 C   0  0  0  0  0  0  0  0  0  0  0  0
   47.2923    7.5349   13.4624 C   0  0  0  0  0  0  0  0  0  0  0  0
   46.2866    6.4825   13.2103 C   0  0  0  0  0  0  0  0  0  0  0  0
   41.5567   12.1567   11.7428 C   0  0  0  0  0  0  0  0  0  0  0  0
   41.1764   10.7084   11.3968 C   0  0  0  0  0  0  0  0  0  0  0  0
   42.9097    7.6541   10.7193 O   0  0  0  0  0  0  0  0  0  0  0  0
   46.3854    5.3365   13.6452 O   0  0  0  0  0  0  0  0  0  0  0  0
   44.1798    5.8068   12.1792 O   0  0  0  0  0  0  0  0  0  0  0  0
   48.5906    7.2554   14.1071 C   0  0  0  0  0  0  0  0  0  0  0  0
   48.8342    8.0171   15.2279 N   0  0  0  0  0  0  0  0  0  0  0  0
   49.3636    6.4190   13.6608 O   0  0  0  0  0  0  0  0  0  0  0  0
   49.9721    7.7502   16.0844 C   0  0  0  0  0  0  0  0  0  0  0  0
   49.6422    6.7834   17.1848 C   0  0  0  0  0  0  0  0  0  0  0  0
   48.2107    6.0639   19.0195 C   0  0  0  0  0  0  0  0  0  0  0  0
   48.5101    6.9487   17.9891 C   0  0  0  0  0  0  0  0  0  0  0  0
   50.4902    5.7105   17.4707 C   0  0  0  0  0  0  0  0  0  0  0  0
   50.2104    4.8134   18.4966 C   0  0  0  0  0  0  0  0  0  0  0  0
   49.0667    4.9983   19.2597 C   0  0  0  0  0  0  0  0  0  0  0  0
   47.6866    7.9867   17.7747 F   0  0  0  0  0  0  0  0  0  0  0  0
   48.7911    4.1440   20.2533 F   0  0  0  0  0  0  0  0  0  0  0  0
   51.6146    5.5395   16.7618 F   0  0  0  0  0  0  0  0  0  0  0  0
   41.8234    9.5052    9.6844 H   0  0  0  0  0  0  0  0  0  0  0  0
   43.3516   11.5091    8.9367 H   0  0  0  0  0  0  0  0  0  0  0  0
   41.6040   11.8940    9.0086 H   0  0  0  0  0  0  0  0  0  0  0  0
   42.7181   13.5449   10.5095 H   0  0  0  0  0  0  0  0  0  0  0  0
   43.7266   10.7686   12.8297 H   0  0  0  0  0  0  0  0  0  0  0  0
   46.1012   10.6078   10.8858 H   0  0  0  0  0  0  0  0  0  0  0  0
   46.1456   11.2283   12.5333 H   0  0  0  0  0  0  0  0  0  0  0  0
   47.7235    9.5835   13.1429 H   0  0  0  0  0  0  0  0  0  0  0  0
   40.6970   12.8095   11.5547 H   0  0  0  0  0  0  0  0  0  0  0  0
   41.8432   12.2594   12.7937 H   0  0  0  0  0  0  0  0  0  0  0  0
   41.1769   10.0623   12.2805 H   0  0  0  0  0  0  0  0  0  0  0  0
   40.1682   10.6904   10.9662 H   0  0  0  0  0  0  0  0  0  0  0  0
   44.5868    5.0105   12.5805 H   0  0  0  0  0  0  0  0  0  0  0  0
   48.0747    8.5508   15.6331 H   0  0  0  0  0  0  0  0  0  0  0  0
   50.2784    8.7049   16.5261 H   0  0  0  0  0  0  0  0  0  0  0  0
   50.8020    7.3859   15.4692 H   0  0  0  0  0  0  0  0  0  0  0  0
   47.3249    6.2049   19.6282 H   0  0  0  0  0  0  0  0  0  0  0  0
   50.8787    3.9841   18.6982 H   0  0  0  0  0  0  0  0  0  0  0  0
  1  2  1  0
  2  3  1  0
  3  4  1  0
  4  5  1  0
  5  6  1  0
  1  6  1  0
  8  9  1  0
  9 10  1  0
  7 10  1  0
  5  8  1  0
  7  6  1  0
 12 13  2  0
 13 14  1  0
 11 14  1  0
  9 12  1  0
 11 10  2  0
  3 15  1  0
  1 16  1  0
 16 15  1  0
  7 17  2  0
 14 18  2  0
 11 19  1  0
 13 20  1  0
 20 21  1  0
 20 22  2  0
 21 23  1  0
 23 24  1  0
 25 26  2  0
 27 28  1  0
 28 29  2  0
 25 29  1  0
 26 24  1  0
 24 27  2  0
 26 30  1  0
 29 31  1  0
 27 32  1  0
  1 33  1  6
  2 34  1  0
  2 35  1  0
  3 36  1  1
  5 37  1  6
  8 38  1  0
  8 39  1  0
 12 40  1  0
 15 41  1  0
 15 42  1  0
 16 43  1  0
 16 44  1  0
 19 45  1  0
 21 46  1  0
 23 47  1  0
 23 48  1  0
 25 49  1  0
 28 50  1  0
M  END
> <Uni-Dock RESULT> 
ENERGY=   -4.280  LOWER_BOUND=    4.810  UPPER_BOUND=    7.556
INTER + INTRA:          -4.280
INTER:                  -4.280
INTRA:                   0.000
UNBOUND:                 0.000

$$$$

     RDKit          3D

 50 54  0  0  0  0  0  0  0  0999 V2000
   49.5367    9.2830   13.8179 C   0  0  1  0  0  0  0  0  0  0  0  0
   49.9355    7.8199   13.9019 C   0  0  0  0  0  0  0  0  0  0  0  0
   48.9118    7.3697   14.9254 C   0  0  2  0  0  0  0  0  0  0  0  0
   47.6366    7.3170   14.2778 O   0  0  0  0  0  0  0  0  0  0  0  0
   47.1515    8.5578   13.7475 C   0  0  1  0  0  0  0  0  0  0  0  0
   48.2175    9.3740   13.1916 N   0  0  0  0  0  0  0  0  0  0  0  0
   47.8946   10.5187   12.4595 C   0  0  0  0  0  0  0  0  0  0  0  0
   46.0945    8.2541   12.6798 C   0  0  0  0  0  0  0  0  0  0  0  0
   45.5805    9.5104   12.1109 N   0  0  0  0  0  0  0  0  0  0  0  0
   46.4451   10.6237   11.9723 C   0  0  0  0  0  0  0  0  0  0  0  0
   46.0247   11.7825   11.4171 C   0  0  0  0  0  0  0  0  0  0  0  0
   44.3018    9.5717   11.5730 C   0  0  0  0  0  0  0  0  0  0  0  0
   43.7664   10.6591   11.0003 C   0  0  0  0  0  0  0  0  0  0  0  0
   44.6115   11.8685   10.9249 C   0  0  0  0  0  0  0  0  0  0  0  0
   48.9713    8.4415   16.0209 C   0  0  0  0  0  0  0  0  0  0  0  0
   49.4590    9.7040   15.2926 C   0  0  0  0  0  0  0  0  0  0  0  0
   48.7447   11.3684   12.2086 O   0  0  0  0  0  0  0  0  0  0  0  0
   44.2041   12.9516   10.5088 O   0  0  0  0  0  0  0  0  0  0  0  0
   46.7796   12.9309   11.2844 O   0  0  0  0  0  0  0  0  0  0  0  0
   42.4119   10.5983   10.4164 C   0  0  0  0  0  0  0  0  0  0  0  0
   41.4311   10.2407   11.3142 N   0  0  0  0  0  0  0  0  0  0  0  0
   42.2088   10.8447    9.2355 O   0  0  0  0  0  0  0  0  0  0  0  0
   40.0279   10.3065   10.9591 C   0  0  0  0  0  0  0  0  0  0  0  0
   39.4190   11.6388   11.2887 C   0  0  0  0  0  0  0  0  0  0  0  0
   39.0111   13.4558   12.8588 C   0  0  0  0  0  0  0  0  0  0  0  0
   39.5873   12.2296   12.5452 C   0  0  0  0  0  0  0  0  0  0  0  0
   38.6196   12.3082   10.3588 C   0  0  0  0  0  0  0  0  0  0  0  0
   38.0333   13.5357   10.6512 C   0  0  0  0  0  0  0  0  0  0  0  0
   38.2403   14.1002   11.9014 C   0  0  0  0  0  0  0  0  0  0  0  0
   40.3168   11.6045   13.4826 F   0  0  0  0  0  0  0  0  0  0  0  0
   37.6758   15.2783   12.1951 F   0  0  0  0  0  0  0  0  0  0  0  0
   38.3857   11.7584    9.1593 F   0  0  0  0  0  0  0  0  0  0  0  0
   50.2716    9.8755   13.2657 H   0  0  0  0  0  0  0  0  0  0  0  0
   49.8312    7.3044   12.9415 H   0  0  0  0  0  0  0  0  0  0  0  0
   50.9591    7.7028   14.2744 H   0  0  0  0  0  0  0  0  0  0  0  0
   49.1267    6.3725   15.3195 H   0  0  0  0  0  0  0  0  0  0  0  0
   46.6852    9.1250   14.5637 H   0  0  0  0  0  0  0  0  0  0  0  0
   46.5254    7.6396   11.8784 H   0  0  0  0  0  0  0  0  0  0  0  0
   45.2863    7.6632   13.1296 H   0  0  0  0  0  0  0  0  0  0  0  0
   43.7471    8.6372   11.6299 H   0  0  0  0  0  0  0  0  0  0  0  0
   49.6993    8.1671   16.7925 H   0  0  0  0  0  0  0  0  0  0  0  0
   48.0025    8.6019   16.5034 H   0  0  0  0  0  0  0  0  0  0  0  0
   48.7938   10.5569   15.4610 H   0  0  0  0  0  0  0  0  0  0  0  0
   50.4550    9.9748   15.6623 H   0  0  0  0  0  0  0  0  0  0  0  0
   46.1957   13.5821   10.8418 H   0  0  0  0  0  0  0  0  0  0  0  0
   41.6506   10.2317   12.3029 H   0  0  0  0  0  0  0  0  0  0  0  0
   39.5109    9.5257   11.5278 H   0  0  0  0  0  0  0  0  0  0  0  0
   39.9193   10.0710    9.8948 H   0  0  0  0  0  0  0  0  0  0  0  0
   39.1583   13.9011   13.8361 H   0  0  0  0  0  0  0  0  0  0  0  0
   37.4211   14.0413    9.9133 H   0  0  0  0  0  0  0  0  0  0  0  0
  1  2  1  0
  2  3  1  0
  3  4  1  0
  4  5  1  0
  5  6  1  0
  1  6  1  0
  8  9  1  0
  9 10  1  0
  7 10  1  0
  5  8  1  0
  7  6  1  0
 12 13  2  0
 13 14  1  0
 11 14  1  0
  9 12  1  0
 11 10  2  0
  3 15  1  0
  1 16  1  0
 16 15  1  0
  7 17  2  0
 14 18  2  0
 11 19  1  0
 13 20  1  0
 20 21  1  0
 20 22  2  0
 21 23  1  0
 23 24  1  0
 25 26  2  0
 27 28  1  0
 28 29  2  0
 25 29  1  0
 26 24  1  0
 24 27  2  0
 26 30  1  0
 29 31  1  0
 27 32  1  0
  1 33  1  6
  2 34  1  0
  2 35  1  0
  3 36  1  1
  5 37  1  6
  8 38  1  0
  8 39  1  0
 12 40  1  0
 15 41  1  0
 15 42  1  0
 16 43  1  0
 16 44  1  0
 19 45  1  0
 21 46  1  0
 23 47  1  0
 23 48  1  0
 25 49  1  0
 28 50  1  0
M  END
> <Uni-Dock RESULT> 
ENERGY=   -3.970  LOWER_BOUND=    5.561  UPPER_BOUND=    7.779
INTER + INTRA:          -3.970
INTER:                  -3.970
INTRA:                   0.000
UNBOUND:                 0.000

$$$$

     RDKit          3D

 50 54  0  0  0  0  0  0  0  0999 V2000
   47.4664    4.2754   17.2649 C   0  0  1  0  0  0  0  0  0  0  0  0
   47.7109    4.6736   18.7100 C   0  0  0  0  0  0  0  0  0  0  0  0
   49.2070    4.4331   18.7558 C   0  0  2  0  0  0  0  0  0  0  0  0
   49.8438    5.4841   18.0222 O   0  0  0  0  0  0  0  0  0  0  0  0
   49.4973    5.5783   16.6340 C   0  0  1  0  0  0  0  0  0  0  0  0
   48.0989    5.2652   16.3925 N   0  0  0  0  0  0  0  0  0  0  0  0
   47.5512    5.5011   15.1296 C   0  0  0  0  0  0  0  0  0  0  0  0
   49.8239    6.9930   16.1427 C   0  0  0  0  0  0  0  0  0  0  0  0
   49.4730    7.1234   14.7193 N   0  0  0  0  0  0  0  0  0  0  0  0
   48.3546    6.4227   14.2051 C   0  0  0  0  0  0  0  0  0  0  0  0
   47.9732    6.5466   12.9139 C   0  0  0  0  0  0  0  0  0  0  0  0
   50.1333    8.0378   13.9094 C   0  0  0  0  0  0  0  0  0  0  0  0
   49.8546    8.2516   12.6157 C   0  0  0  0  0  0  0  0  0  0  0  0
   48.7526    7.4661   12.0230 C   0  0  0  0  0  0  0  0  0  0  0  0
   49.3927    3.0603   18.0976 C   0  0  0  0  0  0  0  0  0  0  0  0
   48.1880    2.9246   17.1530 C   0  0  0  0  0  0  0  0  0  0  0  0
   46.4731    5.0098   14.8072 O   0  0  0  0  0  0  0  0  0  0  0  0
   48.4635    7.5038   10.8284 O   0  0  0  0  0  0  0  0  0  0  0  0
   46.9297    5.8692   12.3152 O   0  0  0  0  0  0  0  0  0  0  0  0
   50.5895    9.2853   11.8603 C   0  0  0  0  0  0  0  0  0  0  0  0
   51.9522    9.0910   11.8268 N   0  0  0  0  0  0  0  0  0  0  0  0
   50.0136   10.2226   11.3254 O   0  0  0  0  0  0  0  0  0  0  0  0
   52.8061    9.9034   10.9838 C   0  0  0  0  0  0  0  0  0  0  0  0
   52.9931    9.3063    9.6190 C   0  0  0  0  0  0  0  0  0  0  0  0
   53.5391    7.4127    8.1874 C   0  0  0  0  0  0  0  0  0  0  0  0
   53.3493    7.9644    9.4498 C   0  0  0  0  0  0  0  0  0  0  0  0
   52.8642   10.0930    8.4716 C   0  0  0  0  0  0  0  0  0  0  0  0
   53.0496    9.5621    7.1991 C   0  0  0  0  0  0  0  0  0  0  0  0
   53.3818    8.2213    7.0705 C   0  0  0  0  0  0  0  0  0  0  0  0
   53.5205    7.1802   10.5256 F   0  0  0  0  0  0  0  0  0  0  0  0
   53.5683    7.7017    5.8506 F   0  0  0  0  0  0  0  0  0  0  0  0
   52.5751   11.3968    8.5838 F   0  0  0  0  0  0  0  0  0  0  0  0
   46.3996    4.1845   17.0413 H   0  0  0  0  0  0  0  0  0  0  0  0
   47.4421    5.7169   18.9053 H   0  0  0  0  0  0  0  0  0  0  0  0
   47.1740    4.0179   19.4043 H   0  0  0  0  0  0  0  0  0  0  0  0
   49.6015    4.4523   19.7756 H   0  0  0  0  0  0  0  0  0  0  0  0
   50.1048    4.8545   16.0751 H   0  0  0  0  0  0  0  0  0  0  0  0
   49.2677    7.7388   16.7258 H   0  0  0  0  0  0  0  0  0  0  0  0
   50.8899    7.1955   16.3078 H   0  0  0  0  0  0  0  0  0  0  0  0
   50.9089    8.6073   14.4176 H   0  0  0  0  0  0  0  0  0  0  0  0
   49.3538    2.2624   18.8476 H   0  0  0  0  0  0  0  0  0  0  0  0
   50.3409    2.9791   17.5578 H   0  0  0  0  0  0  0  0  0  0  0  0
   48.4946    2.6852   16.1297 H   0  0  0  0  0  0  0  0  0  0  0  0
   47.5372    2.1168   17.5079 H   0  0  0  0  0  0  0  0  0  0  0  0
   46.9092    6.1818   11.3864 H   0  0  0  0  0  0  0  0  0  0  0  0
   52.3290    8.2028   12.1348 H   0  0  0  0  0  0  0  0  0  0  0  0
   53.7802    9.9755   11.4800 H   0  0  0  0  0  0  0  0  0  0  0  0
   52.3874   10.9139   10.9229 H   0  0  0  0  0  0  0  0  0  0  0  0
   53.8086    6.3687    8.0761 H   0  0  0  0  0  0  0  0  0  0  0  0
   52.9391   10.1885    6.3214 H   0  0  0  0  0  0  0  0  0  0  0  0
  1  2  1  0
  2  3  1  0
  3  4  1  0
  4  5  1  0
  5  6  1  0
  1  6  1  0
  8  9  1  0
  9 10  1  0
  7 10  1  0
  5  8  1  0
  7  6  1  0
 12 13  2  0
 13 14  1  0
 11 14  1  0
  9 12  1  0
 11 10  2  0
  3 15  1  0
  1 16  1  0
 16 15  1  0
  7 17  2  0
 14 18  2  0
 11 19  1  0
 13 20  1  0
 20 21  1  0
 20 22  2  0
 21 23  1  0
 23 24  1  0
 25 26  2  0
 27 28  1  0
 28 29  2  0
 25 29  1  0
 26 24  1  0
 24 27  2  0
 26 30  1  0
 29 31  1  0
 27 32  1  0
  1 33  1  6
  2 34  1  0
  2 35  1  0
  3 36  1  1
  5 37  1  6
  8 38  1  0
  8 39  1  0
 12 40  1  0
 15 41  1  0
 15 42  1  0
 16 43  1  0
 16 44  1  0
 19 45  1  0
 21 46  1  0
 23 47  1  0
 23 48  1  0
 25 49  1  0
 28 50  1  0
M  END
> <Uni-Dock RESULT> 
ENERGY=   -3.776  LOWER_BOUND=    4.914  UPPER_BOUND=    8.598
INTER + INTRA:          -3.776
INTER:                  -3.776
INTRA:                   0.000
UNBOUND:                 0.000

$$$$
