
     RDKit          3D

 50 54  0  0  0  0  0  0  0  0999 V2000
   49.1511    7.1131   18.6034 C   0  0  1  0  0  0  0  0  0  0  0  0
   47.7615    7.5745   19.0439 C   0  0  0  0  0  0  0  0  0  0  0  0
   47.7818    8.9642   18.4187 C   0  0  2  0  0  0  0  0  0  0  0  0
   47.7159    8.8394   16.9833 O   0  0  0  0  0  0  0  0  0  0  0  0
   48.8282    8.1475   16.3946 C   0  0  1  0  0  0  0  0  0  0  0  0
   49.0820    6.9295   17.1459 N   0  0  0  0  0  0  0  0  0  0  0  0
   48.5832    5.7045   16.7115 C   0  0  0  0  0  0  0  0  0  0  0  0
   48.6474    7.9599   14.8813 C   0  0  0  0  0  0  0  0  0  0  0  0
   47.8237    6.7870   14.5583 N   0  0  0  0  0  0  0  0  0  0  0  0
   47.8752    5.6474   15.3708 C   0  0  0  0  0  0  0  0  0  0  0  0
   47.2734    4.4801   15.0358 C   0  0  0  0  0  0  0  0  0  0  0  0
   47.1518    6.7197   13.3453 C   0  0  0  0  0  0  0  0  0  0  0  0
   46.5027    5.6422   12.8774 C   0  0  0  0  0  0  0  0  0  0  0  0
   46.5309    4.4229   13.7271 C   0  0  0  0  0  0  0  0  0  0  0  0
   49.1251    9.5354   18.8945 C   0  0  0  0  0  0  0  0  0  0  0  0
   50.0384    8.2996   19.0187 C   0  0  0  0  0  0  0  0  0  0  0  0
   48.6634    4.6870   17.4058 O   0  0  0  0  0  0  0  0  0  0  0  0
   45.9640    3.3922   13.3613 O   0  0  0  0  0  0  0  0  0  0  0  0
   47.2767    3.3225   15.8008 O   0  0  0  0  0  0  0  0  0  0  0  0
   45.8275    5.7404   11.5526 C   0  0  0  0  0  0  0  0  0  0  0  0
   45.1683    4.6125   11.1421 N   0  0  0  0  0  0  0  0  0  0  0  0
   45.8713    6.7734   10.8883 O   0  0  0  0  0  0  0  0  0  0  0  0
   44.5034    4.5053    9.8642 C   0  0  0  0  0  0  0  0  0  0  0  0
   45.2373    3.5734    8.9476 C   0  0  0  0  0  0  0  0  0  0  0  0
   45.8026    1.3071    8.2602 C   0  0  0  0  0  0  0  0  0  0  0  0
   45.1125    2.1881    9.0862 C   0  0  0  0  0  0  0  0  0  0  0  0
   46.0866    4.0557    7.9498 C   0  0  0  0  0  0  0  0  0  0  0  0
   46.7859    3.1922    7.1119 C   0  0  0  0  0  0  0  0  0  0  0  0
   46.6366    1.8219    7.2778 C   0  0  0  0  0  0  0  0  0  0  0  0
   44.3060    1.6847   10.0314 F   0  0  0  0  0  0  0  0  0  0  0  0
   47.3064    0.9841    6.4756 F   0  0  0  0  0  0  0  0  0  0  0  0
   46.2353    5.3757    7.7749 F   0  0  0  0  0  0  0  0  0  0  0  0
   49.4595    6.1866   19.0973 H   0  0  0  0  0  0  0  0  0  0  0  0
   46.9585    6.9474   18.6447 H   0  0  0  0  0  0  0  0  0  0  0  0
   47.6796    7.6216   20.1355 H   0  0  0  0  0  0  0  0  0  0  0  0
   46.9363    9.5787   18.7403 H   0  0  0  0  0  0  0  0  0  0  0  0
   49.7072    8.7946   16.4915 H   0  0  0  0  0  0  0  0  0  0  0  0
   48.2070    8.8695   14.4534 H   0  0  0  0  0  0  0  0  0  0  0  0
   49.6311    7.8097   14.4176 H   0  0  0  0  0  0  0  0  0  0  0  0
   47.1848    7.6432   12.7678 H   0  0  0  0  0  0  0  0  0  0  0  0
   49.0154   10.0023   19.8804 H   0  0  0  0  0  0  0  0  0  0  0  0
   49.5380   10.2797   18.2067 H   0  0  0  0  0  0  0  0  0  0  0  0
   50.3503    8.1889   20.0644 H   0  0  0  0  0  0  0  0  0  0  0  0
   50.9447    8.3871   18.4105 H   0  0  0  0  0  0  0  0  0  0  0  0
   47.8002    3.4912   16.6148 H   0  0  0  0  0  0  0  0  0  0  0  0
   45.1894    3.7864   11.7436 H   0  0  0  0  0  0  0  0  0  0  0  0
   43.4935    4.1225   10.0533 H   0  0  0  0  0  0  0  0  0  0  0  0
   44.3848    5.4929    9.4056 H   0  0  0  0  0  0  0  0  0  0  0  0
   45.6928    0.2355    8.3846 H   0  0  0  0  0  0  0  0  0  0  0  0
   47.4378    3.5862    6.3403 H   0  0  0  0  0  0  0  0  0  0  0  0
  1  2  1  0
  2  3  1  0
  3  4  1  0
  4  5  1  0
  5  6  1  0
  1  6  1  0
  8  9  1  0
  9 10  1  0
  7 10  1  0
  5  8  1  0
  7  6  1  0
 12 13  2  0
 13 14  1  0
 11 14  1  0
  9 12  1  0
 11 10  2  0
  3 15  1  0
  1 16  1  0
 16 15  1  0
  7 17  2  0
 14 18  2  0
 11 19  1  0
 13 20  1  0
 20 21  1  0
 20 22  2  0
 21 23  1  0
 23 24  1  0
 25 26  2  0
 27 28  1  0
 28 29  2  0
 25 29  1  0
 26 24  1  0
 24 27  2  0
 26 30  1  0
 29 31  1  0
 27 32  1  0
  1 33  1  6
  2 34  1  0
  2 35  1  0
  3 36  1  6
  5 37  1  1
  8 38  1  0
  8 39  1  0
 12 40  1  0
 15 41  1  0
 15 42  1  0
 16 43  1  0
 16 44  1  0
 19 45  1  0
 21 46  1  0
 23 47  1  0
 23 48  1  0
 25 49  1  0
 28 50  1  0
M  END
> <Uni-Dock RESULT> 
ENERGY=   -6.713  LOWER_BOUND=    0.000  UPPER_BOUND=    0.000
INTER + INTRA:          -6.713
INTER:                  -6.713
INTRA:                   0.000
UNBOUND:                 0.000

$$$$

     RDKit          3D

 50 54  0  0  0  0  0  0  0  0999 V2000
   47.8057    3.5085   16.0136 C   0  0  1  0  0  0  0  0  0  0  0  0
   46.8674    3.9880   17.1215 C   0  0  0  0  0  0  0  0  0  0  0  0
   47.7944    5.0095   17.7695 C   0  0  2  0  0  0  0  0  0  0  0  0
   47.9568    6.1335   16.8804 O   0  0  0  0  0  0  0  0  0  0  0  0
   48.5725    5.8135   15.6230 C   0  0  1  0  0  0  0  0  0  0  0  0
   47.9368    4.6291   15.0702 N   0  0  0  0  0  0  0  0  0  0  0  0
   46.9310    4.7381   14.1139 C   0  0  0  0  0  0  0  0  0  0  0  0
   48.6229    7.0293   14.6864 C   0  0  0  0  0  0  0  0  0  0  0  0
   47.3645    7.2222   13.9532 N   0  0  0  0  0  0  0  0  0  0  0  0
   46.5991    6.1143   13.5682 C   0  0  0  0  0  0  0  0  0  0  0  0
   45.5238    6.2147   12.7494 C   0  0  0  0  0  0  0  0  0  0  0  0
   47.0303    8.4761   13.4598 C   0  0  0  0  0  0  0  0  0  0  0  0
   45.9944    8.7389   12.6480 C   0  0  0  0  0  0  0  0  0  0  0  0
   45.1579    7.5817   12.2349 C   0  0  0  0  0  0  0  0  0  0  0  0
   49.0977    4.2199   17.9573 C   0  0  0  0  0  0  0  0  0  0  0  0
   49.1044    3.2176   16.7859 C   0  0  0  0  0  0  0  0  0  0  0  0
   46.2812    3.7575   13.7395 O   0  0  0  0  0  0  0  0  0  0  0  0
   44.1939    7.7427   11.4850 O   0  0  0  0  0  0  0  0  0  0  0  0
   44.7191    5.1603   12.3420 O   0  0  0  0  0  0  0  0  0  0  0  0
   45.7735   10.1468   12.2125 C   0  0  0  0  0  0  0  0  0  0  0  0
   44.6896   10.3493   11.4006 N   0  0  0  0  0  0  0  0  0  0  0  0
   46.5253   11.0512   12.5690 O   0  0  0  0  0  0  0  0  0  0  0  0
   44.3514   11.6361   10.8382 C   0  0  0  0  0  0  0  0  0  0  0  0
   44.5937   11.6622    9.3591 C   0  0  0  0  0  0  0  0  0  0  0  0
   43.9004   11.0726    7.1008 C   0  0  0  0  0  0  0  0  0  0  0  0
   43.6824   11.0784    8.4745 C   0  0  0  0  0  0  0  0  0  0  0  0
   45.7448   12.2420    8.8221 C   0  0  0  0  0  0  0  0  0  0  0  0
   45.9825   12.2480    7.4509 C   0  0  0  0  0  0  0  0  0  0  0  0
   45.0546   11.6598    6.6021 C   0  0  0  0  0  0  0  0  0  0  0  0
   42.5640   10.5122    8.9500 F   0  0  0  0  0  0  0  0  0  0  0  0
   45.2762   11.6611    5.2811 F   0  0  0  0  0  0  0  0  0  0  0  0
   46.6455   12.8183    9.6294 F   0  0  0  0  0  0  0  0  0  0  0  0
   47.4300    2.6152   15.5055 H   0  0  0  0  0  0  0  0  0  0  0  0
   45.9495    4.4415   16.7350 H   0  0  0  0  0  0  0  0  0  0  0  0
   46.6112    3.1768   17.8120 H   0  0  0  0  0  0  0  0  0  0  0  0
   47.4016    5.3868   18.7176 H   0  0  0  0  0  0  0  0  0  0  0  0
   49.6226    5.5723   15.8225 H   0  0  0  0  0  0  0  0  0  0  0  0
   48.8704    7.9257   15.2692 H   0  0  0  0  0  0  0  0  0  0  0  0
   49.4173    6.8783   13.9439 H   0  0  0  0  0  0  0  0  0  0  0  0
   47.6942    9.2744   13.7903 H   0  0  0  0  0  0  0  0  0  0  0  0
   49.0778    3.6671   18.9039 H   0  0  0  0  0  0  0  0  0  0  0  0
   49.9861    4.8588   17.9520 H   0  0  0  0  0  0  0  0  0  0  0  0
   49.0832    2.1974   17.1880 H   0  0  0  0  0  0  0  0  0  0  0  0
   50.0002    3.3092   16.1628 H   0  0  0  0  0  0  0  0  0  0  0  0
   45.0713    4.3322   12.7360 H   0  0  0  0  0  0  0  0  0  0  0  0
   44.1192    9.5438   11.1347 H   0  0  0  0  0  0  0  0  0  0  0  0
   43.2891   11.8129   11.0443 H   0  0  0  0  0  0  0  0  0  0  0  0
   44.9065   12.4357   11.3402 H   0  0  0  0  0  0  0  0  0  0  0  0
   43.1814   10.6135    6.4313 H   0  0  0  0  0  0  0  0  0  0  0  0
   46.8807   12.7067    7.0528 H   0  0  0  0  0  0  0  0  0  0  0  0
  1  2  1  0
  2  3  1  0
  3  4  1  0
  4  5  1  0
  5  6  1  0
  1  6  1  0
  8  9  1  0
  9 10  1  0
  7 10  1  0
  5  8  1  0
  7  6  1  0
 12 13  2  0
 13 14  1  0
 11 14  1  0
  9 12  1  0
 11 10  2  0
  3 15  1  0
  1 16  1  0
 16 15  1  0
  7 17  2  0
 14 18  2  0
 11 19  1  0
 13 20  1  0
 20 21  1  0
 20 22  2  0
 21 23  1  0
 23 24  1  0
 25 26  2  0
 27 28  1  0
 28 29  2  0
 25 29  1  0
 26 24  1  0
 24 27  2  0
 26 30  1  0
 29 31  1  0
 27 32  1  0
  1 33  1  6
  2 34  1  0
  2 35  1  0
  3 36  1  6
  5 37  1  1
  8 38  1  0
  8 39  1  0
 12 40  1  0
 15 41  1  0
 15 42  1  0
 16 43  1  0
 16 44  1  0
 19 45  1  0
 21 46  1  0
 23 47  1  0
 23 48  1  0
 25 49  1  0
 28 50  1  0
M  END
> <Uni-Dock RESULT> 
ENERGY=   -5.508  LOWER_BOUND=    4.377  UPPER_BOUND=    5.991
INTER + INTRA:          -5.508
INTER:                  -5.508
INTRA:                   0.000
UNBOUND:                 0.000

$$$$

     RDKit          3D

 50 54  0  0  0  0  0  0  0  0999 V2000
   47.8882    3.7679   16.2821 C   0  0  1  0  0  0  0  0  0  0  0  0
   46.9494    4.2835   17.3732 C   0  0  0  0  0  0  0  0  0  0  0  0
   47.8770    5.3241   17.9892 C   0  0  2  0  0  0  0  0  0  0  0  0
   48.0416    6.4190   17.0649 O   0  0  0  0  0  0  0  0  0  0  0  0
   48.6581    6.0584   15.8190 C   0  0  1  0  0  0  0  0  0  0  0  0
   48.0215    4.8577   15.3036 N   0  0  0  0  0  0  0  0  0  0  0  0
   47.0167    4.9373   14.3432 C   0  0  0  0  0  0  0  0  0  0  0  0
   48.7108    7.2437   14.8442 C   0  0  0  0  0  0  0  0  0  0  0  0
   47.4534    7.4146   14.1039 N   0  0  0  0  0  0  0  0  0  0  0  0
   46.6870    6.2958   13.7537 C   0  0  0  0  0  0  0  0  0  0  0  0
   45.6126    6.3714   12.9310 C   0  0  0  0  0  0  0  0  0  0  0  0
   47.1211    8.6525   13.5705 C   0  0  0  0  0  0  0  0  0  0  0  0
   46.0863    8.8905   12.7497 C   0  0  0  0  0  0  0  0  0  0  0  0
   45.2488    7.7217   12.3729 C   0  0  0  0  0  0  0  0  0  0  0  0
   49.1792    4.5394   18.2034 C   0  0  0  0  0  0  0  0  0  0  0  0
   49.1858    3.5003   17.0645 C   0  0  0  0  0  0  0  0  0  0  0  0
   46.3661    3.9461   13.9997 O   0  0  0  0  0  0  0  0  0  0  0  0
   44.2857    7.8598   11.6173 O   0  0  0  0  0  0  0  0  0  0  0  0
   44.8070    5.3054   12.5566 O   0  0  0  0  0  0  0  0  0  0  0  0
   45.8675   10.2841   12.2694 C   0  0  0  0  0  0  0  0  0  0  0  0
   44.7846   10.4618   11.4503 N   0  0  0  0  0  0  0  0  0  0  0  0
   46.6201   11.1985   12.5977 O   0  0  0  0  0  0  0  0  0  0  0  0
   44.4484   11.7305   10.8470 C   0  0  0  0  0  0  0  0  0  0  0  0
   44.6922   11.7092    9.3680 C   0  0  0  0  0  0  0  0  0  0  0  0
   44.0004   11.0487    7.1290 C   0  0  0  0  0  0  0  0  0  0  0  0
   43.7810   11.0986    8.5016 C   0  0  0  0  0  0  0  0  0  0  0  0
   45.8445   12.2703    8.8140 C   0  0  0  0  0  0  0  0  0  0  0  0
   46.0835   12.2323    7.4435 C   0  0  0  0  0  0  0  0  0  0  0  0
   45.1557   11.6184    6.6129 C   0  0  0  0  0  0  0  0  0  0  0  0
   42.6615   10.5491    8.9938 F   0  0  0  0  0  0  0  0  0  0  0  0
   45.3785   11.5774    5.2928 F   0  0  0  0  0  0  0  0  0  0  0  0
   46.7451   12.8709    9.6033 F   0  0  0  0  0  0  0  0  0  0  0  0
   47.5119    2.8593   15.8024 H   0  0  0  0  0  0  0  0  0  0  0  0
   46.0324    4.7256   16.9715 H   0  0  0  0  0  0  0  0  0  0  0  0
   46.6916    3.4950   18.0889 H   0  0  0  0  0  0  0  0  0  0  0  0
   47.4838    5.7319   18.9245 H   0  0  0  0  0  0  0  0  0  0  0  0
   49.7077    5.8225   16.0271 H   0  0  0  0  0  0  0  0  0  0  0  0
   48.9589    8.1579   15.3984 H   0  0  0  0  0  0  0  0  0  0  0  0
   49.5058    7.0682   14.1076 H   0  0  0  0  0  0  0  0  0  0  0  0
   47.7857    9.4602   13.8761 H   0  0  0  0  0  0  0  0  0  0  0  0
   49.1577    4.0170   19.1670 H   0  0  0  0  0  0  0  0  0  0  0  0
   50.0684    5.1767   18.1785 H   0  0  0  0  0  0  0  0  0  0  0  0
   49.1630    2.4934   17.4989 H   0  0  0  0  0  0  0  0  0  0  0  0
   50.0822    3.5709   16.4397 H   0  0  0  0  0  0  0  0  0  0  0  0
   45.1579    4.4899   12.9772 H   0  0  0  0  0  0  0  0  0  0  0  0
   44.2135    9.6490   11.2097 H   0  0  0  0  0  0  0  0  0  0  0  0
   43.3861   11.9150   11.0463 H   0  0  0  0  0  0  0  0  0  0  0  0
   45.0041   12.5451   11.3238 H   0  0  0  0  0  0  0  0  0  0  0  0
   43.2814   10.5694    6.4737 H   0  0  0  0  0  0  0  0  0  0  0  0
   46.9826   12.6770    7.0318 H   0  0  0  0  0  0  0  0  0  0  0  0
  1  2  1  0
  2  3  1  0
  3  4  1  0
  4  5  1  0
  5  6  1  0
  1  6  1  0
  8  9  1  0
  9 10  1  0
  7 10  1  0
  5  8  1  0
  7  6  1  0
 12 13  2  0
 13 14  1  0
 11 14  1  0
  9 12  1  0
 11 10  2  0
  3 15  1  0
  1 16  1  0
 16 15  1  0
  7 17  2  0
 14 18  2  0
 11 19  1  0
 13 20  1  0
 20 21  1  0
 20 22  2  0
 21 23  1  0
 23 24  1  0
 25 26  2  0
 27 28  1  0
 28 29  2  0
 25 29  1  0
 26 24  1  0
 24 27  2  0
 26 30  1  0
 29 31  1  0
 27 32  1  0
  1 33  1  6
  2 34  1  0
  2 35  1  0
  3 36  1  6
  5 37  1  1
  8 38  1  0
  8 39  1  0
 12 40  1  0
 15 41  1  0
 15 42  1  0
 16 43  1  0
 16 44  1  0
 19 45  1  0
 21 46  1  0
 23 47  1  0
 23 48  1  0
 25 49  1  0
 28 50  1  0
M  END
> <Uni-Dock RESULT> 
ENERGY=   -5.251  LOWER_BOUND=    4.387  UPPER_BOUND=    5.928
INTER + INTRA:          -5.251
INTER:                  -5.251
INTRA:                   0.000
UNBOUND:                 0.000

$$$$

     RDKit          3D

 50 54  0  0  0  0  0  0  0  0999 V2000
   42.9439   11.4470    8.6753 C   0  0  1  0  0  0  0  0  0  0  0  0
   43.9515   10.9800    7.6243 C   0  0  0  0  0  0  0  0  0  0  0  0
   44.9596   12.1142    7.7655 C   0  0  2  0  0  0  0  0  0  0  0  0
   45.6340   11.9938    9.0348 O   0  0  0  0  0  0  0  0  0  0  0  0
   44.7741   12.1123   10.1790 C   0  0  1  0  0  0  0  0  0  0  0  0
   43.6007   11.2779    9.9803 N   0  0  0  0  0  0  0  0  0  0  0  0
   43.5272   10.0037   10.5362 C   0  0  0  0  0  0  0  0  0  0  0  0
   45.5346   11.8739   11.4915 C   0  0  0  0  0  0  0  0  0  0  0  0
   45.6635   10.4457   11.8110 N   0  0  0  0  0  0  0  0  0  0  0  0
   44.6441    9.5524   11.4584 C   0  0  0  0  0  0  0  0  0  0  0  0
   44.6251    8.2615   11.8710 C   0  0  0  0  0  0  0  0  0  0  0  0
   46.6882   10.0061   12.6382 C   0  0  0  0  0  0  0  0  0  0  0  0
   46.8133    8.7606   13.1224 C   0  0  0  0  0  0  0  0  0  0  0  0
   45.7510    7.7891   12.7522 C   0  0  0  0  0  0  0  0  0  0  0  0
   44.0781   13.3689    7.6888 C   0  0  0  0  0  0  0  0  0  0  0  0
   42.7326   12.9229    8.2952 C   0  0  0  0  0  0  0  0  0  0  0  0
   42.6077    9.2269   10.2616 O   0  0  0  0  0  0  0  0  0  0  0  0
   45.7931    6.6289   13.1643 O   0  0  0  0  0  0  0  0  0  0  0  0
   43.6533    7.3256   11.5471 O   0  0  0  0  0  0  0  0  0  0  0  0
   47.9800    8.4533   13.9970 C   0  0  0  0  0  0  0  0  0  0  0  0
   48.0584    7.1606   14.4421 N   0  0  0  0  0  0  0  0  0  0  0  0
   48.8054    9.3161   14.2877 O   0  0  0  0  0  0  0  0  0  0  0  0
   49.0887    6.6941   15.3407 C   0  0  0  0  0  0  0  0  0  0  0  0
   48.5296    6.3982   16.6998 C   0  0  0  0  0  0  0  0  0  0  0  0
   47.2870    4.9292   18.1916 C   0  0  0  0  0  0  0  0  0  0  0  0
   47.8324    5.2116   16.9437 C   0  0  0  0  0  0  0  0  0  0  0  0
   48.6618    7.3059   17.7525 C   0  0  0  0  0  0  0  0  0  0  0  0
   48.1246    7.0432   19.0092 C   0  0  0  0  0  0  0  0  0  0  0  0
   47.4393    5.8535   19.2154 C   0  0  0  0  0  0  0  0  0  0  0  0
   47.6845    4.3133   15.9595 F   0  0  0  0  0  0  0  0  0  0  0  0
   46.9191    5.5933   20.4219 F   0  0  0  0  0  0  0  0  0  0  0  0
   49.3258    8.4550   17.5689 F   0  0  0  0  0  0  0  0  0  0  0  0
   42.0074   10.8823    8.6359 H   0  0  0  0  0  0  0  0  0  0  0  0
   44.3857   10.0026    7.8557 H   0  0  0  0  0  0  0  0  0  0  0  0
   43.5070   10.9543    6.6231 H   0  0  0  0  0  0  0  0  0  0  0  0
   45.7199   12.0968    6.9797 H   0  0  0  0  0  0  0  0  0  0  0  0
   44.4425   13.1552   10.2351 H   0  0  0  0  0  0  0  0  0  0  0  0
   46.5237   12.3452   11.4280 H   0  0  0  0  0  0  0  0  0  0  0  0
   44.9861   12.3479   12.3160 H   0  0  0  0  0  0  0  0  0  0  0  0
   47.4224   10.7736   12.8813 H   0  0  0  0  0  0  0  0  0  0  0  0
   43.9220   13.6643    6.6447 H   0  0  0  0  0  0  0  0  0  0  0  0
   44.5045   14.2214    8.2263 H   0  0  0  0  0  0  0  0  0  0  0  0
   41.9505   13.0068    7.5308 H   0  0  0  0  0  0  0  0  0  0  0  0
   42.4317   13.5430    9.1459 H   0  0  0  0  0  0  0  0  0  0  0  0
   42.9785    7.7630   10.9829 H   0  0  0  0  0  0  0  0  0  0  0  0
   47.3248    6.5031   14.1695 H   0  0  0  0  0  0  0  0  0  0  0  0
   49.5117    5.7809   14.9056 H   0  0  0  0  0  0  0  0  0  0  0  0
   49.9058    7.4207   15.4030 H   0  0  0  0  0  0  0  0  0  0  0  0
   46.7486    4.0030   18.3602 H   0  0  0  0  0  0  0  0  0  0  0  0
   48.2412    7.7590   19.8152 H   0  0  0  0  0  0  0  0  0  0  0  0
  1  2  1  0
  2  3  1  0
  3  4  1  0
  4  5  1  0
  5  6  1  0
  1  6  1  0
  8  9  1  0
  9 10  1  0
  7 10  1  0
  5  8  1  0
  7  6  1  0
 12 13  2  0
 13 14  1  0
 11 14  1  0
  9 12  1  0
 11 10  2  0
  3 15  1  0
  1 16  1  0
 16 15  1  0
  7 17  2  0
 14 18  2  0
 11 19  1  0
 13 20  1  0
 20 21  1  0
 20 22  2  0
 21 23  1  0
 23 24  1  0
 25 26  2  0
 27 28  1  0
 28 29  2  0
 25 29  1  0
 26 24  1  0
 24 27  2  0
 26 30  1  0
 29 31  1  0
 27 32  1  0
  1 33  1  6
  2 34  1  0
  2 35  1  0
  3 36  1  6
  5 37  1  1
  8 38  1  0
  8 39  1  0
 12 40  1  0
 15 41  1  0
 15 42  1  0
 16 43  1  0
 16 44  1  0
 19 45  1  0
 21 46  1  0
 23 47  1  0
 23 48  1  0
 25 49  1  0
 28 50  1  0
M  END
> <Uni-Dock RESULT> 
ENERGY=   -4.971  LOWER_BOUND=    5.294  UPPER_BOUND=    9.147
INTER + INTRA:          -4.971
INTER:                  -4.971
INTRA:                   0.000
UNBOUND:                 0.000

$$$$

     RDKit          3D

 50 54  0  0  0  0  0  0  0  0999 V2000
   52.3587    7.7340   18.0544 C   0  0  1  0  0  0  0  0  0  0  0  0
   51.4610    8.8210   18.6463 C   0  0  0  0  0  0  0  0  0  0  0  0
   51.8030    9.9436   17.6740 C   0  0  2  0  0  0  0  0  0  0  0  0
   51.2447    9.6366   16.3800 O   0  0  0  0  0  0  0  0  0  0  0  0
   51.7675    8.4441   15.7742 C   0  0  1  0  0  0  0  0  0  0  0  0
   51.7686    7.3729   16.7566 N   0  0  0  0  0  0  0  0  0  0  0  0
   50.7364    6.4397   16.7978 C   0  0  0  0  0  0  0  0  0  0  0  0
   51.0609    8.1198   14.4500 C   0  0  0  0  0  0  0  0  0  0  0  0
   49.8006    7.3926   14.6528 N   0  0  0  0  0  0  0  0  0  0  0  0
   49.6742    6.4892   15.7156 C   0  0  0  0  0  0  0  0  0  0  0  0
   48.6055    5.6678   15.8567 C   0  0  0  0  0  0  0  0  0  0  0  0
   48.8063    7.4373   13.6849 C   0  0  0  0  0  0  0  0  0  0  0  0
   47.6880    6.6952   13.6874 C   0  0  0  0  0  0  0  0  0  0  0  0
   47.5233    5.7374   14.8121 C   0  0  0  0  0  0  0  0  0  0  0  0
   53.3383    9.9344   17.6651 C   0  0  0  0  0  0  0  0  0  0  0  0
   53.7088    8.4598   17.9201 C   0  0  0  0  0  0  0  0  0  0  0  0
   50.6435    5.6132   17.7101 O   0  0  0  0  0  0  0  0  0  0  0  0
   46.5265    5.0166   14.8790 O   0  0  0  0  0  0  0  0  0  0  0  0
   48.4153    4.7622   16.8906 O   0  0  0  0  0  0  0  0  0  0  0  0
   46.7178    6.8703   12.5699 C   0  0  0  0  0  0  0  0  0  0  0  0
   45.5900    6.0970   12.6423 N   0  0  0  0  0  0  0  0  0  0  0  0
   46.9340    7.6608   11.6542 O   0  0  0  0  0  0  0  0  0  0  0  0
   44.5664    6.0932   11.6230 C   0  0  0  0  0  0  0  0  0  0  0  0
   44.5656    4.8027   10.8601 C   0  0  0  0  0  0  0  0  0  0  0  0
   43.9891    2.4416   10.7166 C   0  0  0  0  0  0  0  0  0  0  0  0
   43.9802    3.6535   11.3990 C   0  0  0  0  0  0  0  0  0  0  0  0
   45.1710    4.7003    9.6062 C   0  0  0  0  0  0  0  0  0  0  0  0
   45.1907    3.4979    8.9057 C   0  0  0  0  0  0  0  0  0  0  0  0
   44.5983    2.3770    9.4715 C   0  0  0  0  0  0  0  0  0  0  0  0
   43.3874    3.7102   12.6002 F   0  0  0  0  0  0  0  0  0  0  0  0
   44.6132    1.2159    8.8038 F   0  0  0  0  0  0  0  0  0  0  0  0
   45.7412    5.7756    9.0460 F   0  0  0  0  0  0  0  0  0  0  0  0
   52.4355    6.8564   18.7036 H   0  0  0  0  0  0  0  0  0  0  0  0
   50.3996    8.5557   18.6229 H   0  0  0  0  0  0  0  0  0  0  0  0
   51.7526    9.0700   19.6727 H   0  0  0  0  0  0  0  0  0  0  0  0
   51.3992   10.9086   17.9923 H   0  0  0  0  0  0  0  0  0  0  0  0
   52.8070    8.6463   15.4925 H   0  0  0  0  0  0  0  0  0  0  0  0
   50.8837    9.0506   13.8963 H   0  0  0  0  0  0  0  0  0  0  0  0
   51.7147    7.4825   13.8403 H   0  0  0  0  0  0  0  0  0  0  0  0
   48.9994    8.1493   12.8830 H   0  0  0  0  0  0  0  0  0  0  0  0
   53.7299   10.5504   18.4831 H   0  0  0  0  0  0  0  0  0  0  0  0
   53.7601   10.3038   16.7254 H   0  0  0  0  0  0  0  0  0  0  0  0
   54.2696    8.3892   18.8600 H   0  0  0  0  0  0  0  0  0  0  0  0
   54.3388    8.0441   17.1268 H   0  0  0  0  0  0  0  0  0  0  0  0
   49.1921    4.8095   17.4901 H   0  0  0  0  0  0  0  0  0  0  0  0
   45.4882    5.4512   13.4279 H   0  0  0  0  0  0  0  0  0  0  0  0
   43.6026    6.2271   12.1285 H   0  0  0  0  0  0  0  0  0  0  0  0
   44.6891    6.9470   10.9481 H   0  0  0  0  0  0  0  0  0  0  0  0
   43.5301    1.5610   11.1525 H   0  0  0  0  0  0  0  0  0  0  0  0
   45.6626    3.4394    7.9313 H   0  0  0  0  0  0  0  0  0  0  0  0
  1  2  1  0
  2  3  1  0
  3  4  1  0
  4  5  1  0
  5  6  1  0
  1  6  1  0
  8  9  1  0
  9 10  1  0
  7 10  1  0
  5  8  1  0
  7  6  1  0
 12 13  2  0
 13 14  1  0
 11 14  1  0
  9 12  1  0
 11 10  2  0
  3 15  1  0
  1 16  1  0
 16 15  1  0
  7 17  2  0
 14 18  2  0
 11 19  1  0
 13 20  1  0
 20 21  1  0
 20 22  2  0
 21 23  1  0
 23 24  1  0
 25 26  2  0
 27 28  1  0
 28 29  2  0
 25 29  1  0
 26 24  1  0
 24 27  2  0
 26 30  1  0
 29 31  1  0
 27 32  1  0
  1 33  1  6
  2 34  1  0
  2 35  1  0
  3 36  1  6
  5 37  1  1
  8 38  1  0
  8 39  1  0
 12 40  1  0
 15 41  1  0
 15 42  1  0
 16 43  1  0
 16 44  1  0
 19 45  1  0
 21 46  1  0
 23 47  1  0
 23 48  1  0
 25 49  1  0
 28 50  1  0
M  END
> <Uni-Dock RESULT> 
ENERGY=   -4.662  LOWER_BOUND=    2.110  UPPER_BOUND=    2.756
INTER + INTRA:          -4.662
INTER:                  -4.662
INTRA:                   0.000
UNBOUND:                 0.000

$$$$

     RDKit          3D

 50 54  0  0  0  0  0  0  0  0999 V2000
   50.0550   11.8021   10.6983 C   0  0  1  0  0  0  0  0  0  0  0  0
   49.5716   12.7800   11.7697 C   0  0  0  0  0  0  0  0  0  0  0  0
   48.0858   12.4443   11.7209 C   0  0  2  0  0  0  0  0  0  0  0  0
   47.8790   11.1272   12.2713 O   0  0  0  0  0  0  0  0  0  0  0  0
   48.5258   10.0706   11.5449 C   0  0  1  0  0  0  0  0  0  0  0  0
   49.8998   10.4554   11.2687 N   0  0  0  0  0  0  0  0  0  0  0  0
   50.9421   10.0164   12.0805 C   0  0  0  0  0  0  0  0  0  0  0  0
   48.3512    8.7115   12.2381 C   0  0  0  0  0  0  0  0  0  0  0  0
   49.3365    8.4990   13.3069 N   0  0  0  0  0  0  0  0  0  0  0  0
   50.6286    9.0256   13.1858 C   0  0  0  0  0  0  0  0  0  0  0  0
   51.6273    8.7245   14.0512 C   0  0  0  0  0  0  0  0  0  0  0  0
   49.0650    7.6109   14.3389 C   0  0  0  0  0  0  0  0  0  0  0  0
   49.9422    7.2204   15.2765 C   0  0  0  0  0  0  0  0  0  0  0  0
   51.3177    7.7752   15.1783 C   0  0  0  0  0  0  0  0  0  0  0  0
   47.7685   12.5069   10.2200 C   0  0  0  0  0  0  0  0  0  0  0  0
   49.0833   12.0792    9.5379 C   0  0  0  0  0  0  0  0  0  0  0  0
   52.0922   10.4459   11.9506 O   0  0  0  0  0  0  0  0  0  0  0  0
   52.1804    7.4576   15.9984 O   0  0  0  0  0  0  0  0  0  0  0  0
   52.9216    9.2212   13.9935 O   0  0  0  0  0  0  0  0  0  0  0  0
   49.4848    6.2599   16.3201 C   0  0  0  0  0  0  0  0  0  0  0  0
   50.4228    5.9168   17.2569 N   0  0  0  0  0  0  0  0  0  0  0  0
   48.3385    5.8169   16.3221 O   0  0  0  0  0  0  0  0  0  0  0  0
   50.1762    4.9595   18.3101 C   0  0  0  0  0  0  0  0  0  0  0  0
   50.9457    3.6932   18.0831 C   0  0  0  0  0  0  0  0  0  0  0  0
   53.0442    2.4611   18.1626 C   0  0  0  0  0  0  0  0  0  0  0  0
   52.3080    3.6197   18.3870 C   0  0  0  0  0  0  0  0  0  0  0  0
   50.3366    2.5615   17.5373 C   0  0  0  0  0  0  0  0  0  0  0  0
   51.0541    1.3918   17.3052 C   0  0  0  0  0  0  0  0  0  0  0  0
   52.4057    1.3548   17.6205 C   0  0  0  0  0  0  0  0  0  0  0  0
   52.9299    4.6843   18.9138 F   0  0  0  0  0  0  0  0  0  0  0  0
   53.1033    0.2328   17.3999 F   0  0  0  0  0  0  0  0  0  0  0  0
   49.0318    2.5816   17.2339 F   0  0  0  0  0  0  0  0  0  0  0  0
   51.0939   11.9827   10.4062 H   0  0  0  0  0  0  0  0  0  0  0  0
   50.0125   12.5866   12.7524 H   0  0  0  0  0  0  0  0  0  0  0  0
   49.7625   13.8198   11.4820 H   0  0  0  0  0  0  0  0  0  0  0  0
   47.4801   13.1475   12.2992 H   0  0  0  0  0  0  0  0  0  0  0  0
   48.0051    9.9629   10.5867 H   0  0  0  0  0  0  0  0  0  0  0  0
   47.3306    8.6352   12.6343 H   0  0  0  0  0  0  0  0  0  0  0  0
   48.4883    7.9110   11.4994 H   0  0  0  0  0  0  0  0  0  0  0  0
   48.0433    7.2321   14.3411 H   0  0  0  0  0  0  0  0  0  0  0  0
   47.5260   13.5337    9.9221 H   0  0  0  0  0  0  0  0  0  0  0  0
   46.9327   11.8606    9.9350 H   0  0  0  0  0  0  0  0  0  0  0  0
   49.4550   12.9097    8.9254 H   0  0  0  0  0  0  0  0  0  0  0  0
   48.9500   11.2154    8.8783 H   0  0  0  0  0  0  0  0  0  0  0  0
   52.9911    9.8134   13.2127 H   0  0  0  0  0  0  0  0  0  0  0  0
   51.3608    6.3157   17.1801 H   0  0  0  0  0  0  0  0  0  0  0  0
   50.4920    5.4228   19.2523 H   0  0  0  0  0  0  0  0  0  0  0  0
   49.1043    4.7549   18.4038 H   0  0  0  0  0  0  0  0  0  0  0  0
   54.1007    2.4248   18.4045 H   0  0  0  0  0  0  0  0  0  0  0  0
   50.5623    0.5221   16.8841 H   0  0  0  0  0  0  0  0  0  0  0  0
  1  2  1  0
  2  3  1  0
  3  4  1  0
  4  5  1  0
  5  6  1  0
  1  6  1  0
  8  9  1  0
  9 10  1  0
  7 10  1  0
  5  8  1  0
  7  6  1  0
 12 13  2  0
 13 14  1  0
 11 14  1  0
  9 12  1  0
 11 10  2  0
  3 15  1  0
  1 16  1  0
 16 15  1  0
  7 17  2  0
 14 18  2  0
 11 19  1  0
 13 20  1  0
 20 21  1  0
 20 22  2  0
 21 23  1  0
 23 24  1  0
 25 26  2  0
 27 28  1  0
 28 29  2  0
 25 29  1  0
 26 24  1  0
 24 27  2  0
 26 30  1  0
 29 31  1  0
 27 32  1  0
  1 33  1  6
  2 34  1  0
  2 35  1  0
  3 36  1  6
  5 37  1  1
  8 38  1  0
  8 39  1  0
 12 40  1  0
 15 41  1  0
 15 42  1  0
 16 43  1  0
 16 44  1  0
 19 45  1  0
 21 46  1  0
 23 47  1  0
 23 48  1  0
 25 49  1  0
 28 50  1  0
M  END
> <Uni-Dock RESULT> 
ENERGY=   -4.160  LOWER_BOUND=    5.446  UPPER_BOUND=    8.587
INTER + INTRA:          -4.160
INTER:                  -4.160
INTRA:                   0.000
UNBOUND:                 0.000

$$$$

     RDKit          3D

 50 54  0  0  0  0  0  0  0  0999 V2000
   49.3418    5.7120   16.4660 C   0  0  1  0  0  0  0  0  0  0  0  0
   48.4706    6.3199   17.5657 C   0  0  0  0  0  0  0  0  0  0  0  0
   49.3434    7.5241   17.8986 C   0  0  2  0  0  0  0  0  0  0  0  0
   49.2987    8.4597   16.8018 O   0  0  0  0  0  0  0  0  0  0  0  0
   49.8192    7.9506   15.5639 C   0  0  1  0  0  0  0  0  0  0  0  0
   49.2612    6.6308   15.3205 N   0  0  0  0  0  0  0  0  0  0  0  0
   48.1610    6.4628   14.4841 C   0  0  0  0  0  0  0  0  0  0  0  0
   49.6494    8.9569   14.4165 C   0  0  0  0  0  0  0  0  0  0  0  0
   48.3122    8.8937   13.8113 N   0  0  0  0  0  0  0  0  0  0  0  0
   47.6342    7.6708   13.7324 C   0  0  0  0  0  0  0  0  0  0  0  0
   46.4795    7.5158   13.0398 C   0  0  0  0  0  0  0  0  0  0  0  0
   47.8010    9.9924   13.1338 C   0  0  0  0  0  0  0  0  0  0  0  0
   46.6689   10.0007   12.4130 C   0  0  0  0  0  0  0  0  0  0  0  0
   45.9229    8.7180   12.3242 C   0  0  0  0  0  0  0  0  0  0  0  0
   50.7348    6.9005   18.0785 C   0  0  0  0  0  0  0  0  0  0  0  0
   50.7330    5.6906   17.1230 C   0  0  0  0  0  0  0  0  0  0  0  0
   47.5849    5.3761   14.3783 O   0  0  0  0  0  0  0  0  0  0  0  0
   44.8788    8.6453   11.6745 O   0  0  0  0  0  0  0  0  0  0  0  0
   45.7547    6.3374   12.9336 O   0  0  0  0  0  0  0  0  0  0  0  0
   46.2593   11.2708   11.7499 C   0  0  0  0  0  0  0  0  0  0  0  0
   45.0860   11.2161   11.0458 N   0  0  0  0  0  0  0  0  0  0  0  0
   46.9426   12.2881   11.8408 O   0  0  0  0  0  0  0  0  0  0  0  0
   44.5606   12.3330   10.2954 C   0  0  0  0  0  0  0  0  0  0  0  0
   44.6534   12.0864    8.8196 C   0  0  0  0  0  0  0  0  0  0  0  0
   43.8093   11.0052    6.8080 C   0  0  0  0  0  0  0  0  0  0  0  0
   43.7269   11.2641    8.1721 C   0  0  0  0  0  0  0  0  0  0  0  0
   45.6790   12.6439    8.0535 C   0  0  0  0  0  0  0  0  0  0  0  0
   45.7799   12.3986    6.6873 C   0  0  0  0  0  0  0  0  0  0  0  0
   44.8409   11.5777    6.0774 C   0  0  0  0  0  0  0  0  0  0  0  0
   42.7263   10.7106    8.8719 F   0  0  0  0  0  0  0  0  0  0  0  0
   44.9312   11.3365    4.7629 F   0  0  0  0  0  0  0  0  0  0  0  0
   46.5883   13.4426    8.6282 F   0  0  0  0  0  0  0  0  0  0  0  0
   49.0147    4.7072   16.1816 H   0  0  0  0  0  0  0  0  0  0  0  0
   47.4767    6.6086   17.2103 H   0  0  0  0  0  0  0  0  0  0  0  0
   48.3700    5.6426   18.4211 H   0  0  0  0  0  0  0  0  0  0  0  0
   49.0073    8.0469   18.7983 H   0  0  0  0  0  0  0  0  0  0  0  0
   50.9033    7.8434   15.6817 H   0  0  0  0  0  0  0  0  0  0  0  0
   49.8566    9.9685   14.7881 H   0  0  0  0  0  0  0  0  0  0  0  0
   50.3791    8.7298   13.6283 H   0  0  0  0  0  0  0  0  0  0  0  0
   48.4060   10.8935   13.2293 H   0  0  0  0  0  0  0  0  0  0  0  0
   50.8658    6.5462   19.1077 H   0  0  0  0  0  0  0  0  0  0  0  0
   51.5461    7.5986   17.8503 H   0  0  0  0  0  0  0  0  0  0  0  0
   50.8589    4.7720   17.7090 H   0  0  0  0  0  0  0  0  0  0  0  0
   51.5490    5.7326   16.3941 H   0  0  0  0  0  0  0  0  0  0  0  0
   46.2291    5.6365   13.4323 H   0  0  0  0  0  0  0  0  0  0  0  0
   44.5807   10.3287   11.0037 H   0  0  0  0  0  0  0  0  0  0  0  0
   43.5108   12.4564   10.5866 H   0  0  0  0  0  0  0  0  0  0  0  0
   45.0746   13.2602   10.5706 H   0  0  0  0  0  0  0  0  0  0  0  0
   43.0809   10.3636    6.3246 H   0  0  0  0  0  0  0  0  0  0  0  0
   46.5815   12.8439    6.1087 H   0  0  0  0  0  0  0  0  0  0  0  0
  1  2  1  0
  2  3  1  0
  3  4  1  0
  4  5  1  0
  5  6  1  0
  1  6  1  0
  8  9  1  0
  9 10  1  0
  7 10  1  0
  5  8  1  0
  7  6  1  0
 12 13  2  0
 13 14  1  0
 11 14  1  0
  9 12  1  0
 11 10  2  0
  3 15  1  0
  1 16  1  0
 16 15  1  0
  7 17  2  0
 14 18  2  0
 11 19  1  0
 13 20  1  0
 20 21  1  0
 20 22  2  0
 21 23  1  0
 23 24  1  0
 25 26  2  0
 27 28  1  0
 28 29  2  0
 25 29  1  0
 26 24  1  0
 24 27  2  0
 26 30  1  0
 29 31  1  0
 27 32  1  0
  1 33  1  6
  2 34  1  0
  2 35  1  0
  3 36  1  6
  5 37  1  1
  8 38  1  0
  8 39  1  0
 12 40  1  0
 15 41  1  0
 15 42  1  0
 16 43  1  0
 16 44  1  0
 19 45  1  0
 21 46  1  0
 23 47  1  0
 23 48  1  0
 25 49  1  0
 28 50  1  0
M  END
> <Uni-Dock RESULT> 
ENERGY=   -4.127  LOWER_BOUND=    4.693  UPPER_BOUND=    5.981
INTER + INTRA:          -4.127
INTER:                  -4.127
INTRA:                   0.000
UNBOUND:                 0.000

$$$$

     RDKit          3D

 50 54  0  0  0  0  0  0  0  0999 V2000
   44.9697    5.7728   11.0520 C   0  0  1  0  0  0  0  0  0  0  0  0
   43.8356    6.3307   11.9123 C   0  0  0  0  0  0  0  0  0  0  0  0
   43.3497    5.0181   12.5155 C   0  0  2  0  0  0  0  0  0  0  0  0
   44.3394    4.5275   13.4429 O   0  0  0  0  0  0  0  0  0  0  0  0
   45.6101    4.2191   12.8490 C   0  0  1  0  0  0  0  0  0  0  0  0
   46.0107    5.3178   11.9860 N   0  0  0  0  0  0  0  0  0  0  0  0
   46.8909    6.2973   12.4376 C   0  0  0  0  0  0  0  0  0  0  0  0
   46.6459    3.8004   13.9025 C   0  0  0  0  0  0  0  0  0  0  0  0
   47.2918    4.9554   14.5407 N   0  0  0  0  0  0  0  0  0  0  0  0
   47.5217    6.1257   13.8067 C   0  0  0  0  0  0  0  0  0  0  0  0
   48.2593    7.1578   14.2841 C   0  0  0  0  0  0  0  0  0  0  0  0
   47.8602    4.8279   15.8009 C   0  0  0  0  0  0  0  0  0  0  0  0
   48.6074    5.7602   16.4122 C   0  0  0  0  0  0  0  0  0  0  0  0
   48.8557    7.0177   15.6596 C   0  0  0  0  0  0  0  0  0  0  0  0
   43.1994    4.1102   11.2866 C   0  0  0  0  0  0  0  0  0  0  0  0
   44.2801    4.6148   10.3097 C   0  0  0  0  0  0  0  0  0  0  0  0
   47.1301    7.3114   11.7755 O   0  0  0  0  0  0  0  0  0  0  0  0
   49.5385    7.9171   16.1520 O   0  0  0  0  0  0  0  0  0  0  0  0
   48.5129    8.3458   13.6136 O   0  0  0  0  0  0  0  0  0  0  0  0
   49.1401    5.4632   17.7719 C   0  0  0  0  0  0  0  0  0  0  0  0
   49.8786    6.4629   18.3467 N   0  0  0  0  0  0  0  0  0  0  0  0
   48.9203    4.3870   18.3230 O   0  0  0  0  0  0  0  0  0  0  0  0
   50.5180    6.3335   19.6355 C   0  0  0  0  0  0  0  0  0  0  0  0
   52.0087    6.2564   19.4960 C   0  0  0  0  0  0  0  0  0  0  0  0
   54.1485    7.3564   19.1233 C   0  0  0  0  0  0  0  0  0  0  0  0
   52.7673    7.4099   19.2777 C   0  0  0  0  0  0  0  0  0  0  0  0
   52.6807    5.0338   19.5510 C   0  0  0  0  0  0  0  0  0  0  0  0
   54.0620    4.9574   19.3999 C   0  0  0  0  0  0  0  0  0  0  0  0
   54.7835    6.1241   19.1856 C   0  0  0  0  0  0  0  0  0  0  0  0
   52.1599    8.6038   19.2195 F   0  0  0  0  0  0  0  0  0  0  0  0
   56.1133    6.0590   19.0389 F   0  0  0  0  0  0  0  0  0  0  0  0
   51.9975    3.9010   19.7631 F   0  0  0  0  0  0  0  0  0  0  0  0
   45.3705    6.5161   10.3560 H   0  0  0  0  0  0  0  0  0  0  0  0
   44.1853    7.0365   12.6720 H   0  0  0  0  0  0  0  0  0  0  0  0
   43.0619    6.8070   11.3000 H   0  0  0  0  0  0  0  0  0  0  0  0
   42.4084    5.1325   13.0602 H   0  0  0  0  0  0  0  0  0  0  0  0
   45.4742    3.3295   12.2237 H   0  0  0  0  0  0  0  0  0  0  0  0
   46.1611    3.1656   14.6551 H   0  0  0  0  0  0  0  0  0  0  0  0
   47.4333    3.2090   13.4172 H   0  0  0  0  0  0  0  0  0  0  0  0
   47.6506    3.8760   16.2880 H   0  0  0  0  0  0  0  0  0  0  0  0
   42.2115    4.2432   10.8304 H   0  0  0  0  0  0  0  0  0  0  0  0
   43.3277    3.0496   11.5236 H   0  0  0  0  0  0  0  0  0  0  0  0
   43.7939    4.9870    9.3997 H   0  0  0  0  0  0  0  0  0  0  0  0
   44.9770    3.8241   10.0128 H   0  0  0  0  0  0  0  0  0  0  0  0
   48.0800    8.3024   12.7328 H   0  0  0  0  0  0  0  0  0  0  0  0
   50.0309    7.3250   17.8192 H   0  0  0  0  0  0  0  0  0  0  0  0
   50.2447    7.2166   20.2251 H   0  0  0  0  0  0  0  0  0  0  0  0
   50.1296    5.4627   20.1745 H   0  0  0  0  0  0  0  0  0  0  0  0
   54.7190    8.2629   18.9537 H   0  0  0  0  0  0  0  0  0  0  0  0
   54.5662    3.9988   19.4495 H   0  0  0  0  0  0  0  0  0  0  0  0
  1  2  1  0
  2  3  1  0
  3  4  1  0
  4  5  1  0
  5  6  1  0
  1  6  1  0
  8  9  1  0
  9 10  1  0
  7 10  1  0
  5  8  1  0
  7  6  1  0
 12 13  2  0
 13 14  1  0
 11 14  1  0
  9 12  1  0
 11 10  2  0
  3 15  1  0
  1 16  1  0
 16 15  1  0
  7 17  2  0
 14 18  2  0
 11 19  1  0
 13 20  1  0
 20 21  1  0
 20 22  2  0
 21 23  1  0
 23 24  1  0
 25 26  2  0
 27 28  1  0
 28 29  2  0
 25 29  1  0
 26 24  1  0
 24 27  2  0
 26 30  1  0
 29 31  1  0
 27 32  1  0
  1 33  1  6
  2 34  1  0
  2 35  1  0
  3 36  1  6
  5 37  1  1
  8 38  1  0
  8 39  1  0
 12 40  1  0
 15 41  1  0
 15 42  1  0
 16 43  1  0
 16 44  1  0
 19 45  1  0
 21 46  1  0
 23 47  1  0
 23 48  1  0
 25 49  1  0
 28 50  1  0
M  END
> <Uni-Dock RESULT> 
ENERGY=   -4.017  LOWER_BOUND=    4.773  UPPER_BOUND=    9.604
INTER + INTRA:          -4.017
INTER:                  -4.017
INTRA:                   0.000
UNBOUND:                 0.000

$$$$

     RDKit          3D

 50 54  0  0  0  0  0  0  0  0999 V2000
   47.6062    6.1442   20.9529 C   0  0  1  0  0  0  0  0  0  0  0  0
   48.0873    7.4961   21.4808 C   0  0  0  0  0  0  0  0  0  0  0  0
   49.1406    6.9892   22.4587 C   0  0  2  0  0  0  0  0  0  0  0  0
   50.2502    6.4408   21.7182 O   0  0  0  0  0  0  0  0  0  0  0  0
   49.9188    5.3058   20.9031 C   0  0  1  0  0  0  0  0  0  0  0  0
   48.7107    5.5981   20.1498 N   0  0  0  0  0  0  0  0  0  0  0  0
   48.7796    6.0413   18.8319 C   0  0  0  0  0  0  0  0  0  0  0  0
   51.1169    4.8350   20.0659 C   0  0  0  0  0  0  0  0  0  0  0  0
   51.2688    5.6065   18.8249 N   0  0  0  0  0  0  0  0  0  0  0  0
   50.1376    6.0927   18.1573 C   0  0  0  0  0  0  0  0  0  0  0  0
   50.1993    6.6615   16.9287 C   0  0  0  0  0  0  0  0  0  0  0  0
   52.5054    5.6834   18.1987 C   0  0  0  0  0  0  0  0  0  0  0  0
   52.7304    6.2221   16.9903 C   0  0  0  0  0  0  0  0  0  0  0  0
   51.5479    6.7575   16.2659 C   0  0  0  0  0  0  0  0  0  0  0  0
   48.3826    5.9173   23.2548 C   0  0  0  0  0  0  0  0  0  0  0  0
   47.3579    5.3544   22.2498 C   0  0  0  0  0  0  0  0  0  0  0  0
   47.7784    6.4314   18.2242 O   0  0  0  0  0  0  0  0  0  0  0  0
   51.6739    7.2607   15.1486 O   0  0  0  0  0  0  0  0  0  0  0  0
   49.1204    7.1724   16.2214 O   0  0  0  0  0  0  0  0  0  0  0  0
   54.1245    6.2272   16.4641 C   0  0  0  0  0  0  0  0  0  0  0  0
   54.2882    6.8079   15.2347 N   0  0  0  0  0  0  0  0  0  0  0  0
   55.0514    5.7379   17.1057 O   0  0  0  0  0  0  0  0  0  0  0  0
   55.5564    6.8563   14.5448 C   0  0  0  0  0  0  0  0  0  0  0  0
   55.5586    5.9510   13.3500 C   0  0  0  0  0  0  0  0  0  0  0  0
   54.9105    5.5027   11.0463 C   0  0  0  0  0  0  0  0  0  0  0  0
   54.9386    6.3376   12.1584 C   0  0  0  0  0  0  0  0  0  0  0  0
   56.1520    4.6880   13.3972 C   0  0  0  0  0  0  0  0  0  0  0  0
   56.1362    3.8370   12.2962 C   0  0  0  0  0  0  0  0  0  0  0  0
   55.5120    4.2549   11.1286 C   0  0  0  0  0  0  0  0  0  0  0  0
   54.3583    7.5431   12.0717 F   0  0  0  0  0  0  0  0  0  0  0  0
   55.4923    3.4416   10.0644 F   0  0  0  0  0  0  0  0  0  0  0  0
   56.7629    4.2745   14.5157 F   0  0  0  0  0  0  0  0  0  0  0  0
   46.6954    6.2304   20.3526 H   0  0  0  0  0  0  0  0  0  0  0  0
   48.5138    8.1312   20.6982 H   0  0  0  0  0  0  0  0  0  0  0  0
   47.2846    8.0376   21.9934 H   0  0  0  0  0  0  0  0  0  0  0  0
   49.5280    7.7832   23.1031 H   0  0  0  0  0  0  0  0  0  0  0  0
   49.7038    4.4684   21.5764 H   0  0  0  0  0  0  0  0  0  0  0  0
   52.0295    4.8971   20.6723 H   0  0  0  0  0  0  0  0  0  0  0  0
   50.9682    3.7842   19.7847 H   0  0  0  0  0  0  0  0  0  0  0  0
   53.3239    5.2585   18.7792 H   0  0  0  0  0  0  0  0  0  0  0  0
   47.8480    6.3721   24.0971 H   0  0  0  0  0  0  0  0  0  0  0  0
   49.0398    5.1356   23.6476 H   0  0  0  0  0  0  0  0  0  0  0  0
   46.3455    5.5513   22.6230 H   0  0  0  0  0  0  0  0  0  0  0  0
   47.4562    4.2722   22.1150 H   0  0  0  0  0  0  0  0  0  0  0  0
   48.3078    7.0373   16.7567 H   0  0  0  0  0  0  0  0  0  0  0  0
   53.4659    7.1801   14.7552 H   0  0  0  0  0  0  0  0  0  0  0  0
   55.7147    7.8934   14.2261 H   0  0  0  0  0  0  0  0  0  0  0  0
   56.3772    6.6077   15.2261 H   0  0  0  0  0  0  0  0  0  0  0  0
   54.4234    5.8210   10.1312 H   0  0  0  0  0  0  0  0  0  0  0  0
   56.6059    2.8613   12.3513 H   0  0  0  0  0  0  0  0  0  0  0  0
  1  2  1  0
  2  3  1  0
  3  4  1  0
  4  5  1  0
  5  6  1  0
  1  6  1  0
  8  9  1  0
  9 10  1  0
  7 10  1  0
  5  8  1  0
  7  6  1  0
 12 13  2  0
 13 14  1  0
 11 14  1  0
  9 12  1  0
 11 10  2  0
  3 15  1  0
  1 16  1  0
 16 15  1  0
  7 17  2  0
 14 18  2  0
 11 19  1  0
 13 20  1  0
 20 21  1  0
 20 22  2  0
 21 23  1  0
 23 24  1  0
 25 26  2  0
 27 28  1  0
 28 29  2  0
 25 29  1  0
 26 24  1  0
 24 27  2  0
 26 30  1  0
 29 31  1  0
 27 32  1  0
  1 33  1  6
  2 34  1  0
  2 35  1  0
  3 36  1  6
  5 37  1  1
  8 38  1  0
  8 39  1  0
 12 40  1  0
 15 41  1  0
 15 42  1  0
 16 43  1  0
 16 44  1  0
 19 45  1  0
 21 46  1  0
 23 47  1  0
 23 48  1  0
 25 49  1  0
 28 50  1  0
M  END
> <Uni-Dock RESULT> 
ENERGY=   -3.829  LOWER_BOUND=    6.647  UPPER_BOUND=    8.030
INTER + INTRA:          -3.829
INTER:                  -3.829
INTRA:                   0.000
UNBOUND:                 0.000

$$$$
