
     RDKit          3D

 77 77  0  0  0  0  0  0  0  0999 V2000
   46.6745    7.1998   13.3975 C   0  0  0  0  0  0  0  0  0  0  0  0
   45.7476    6.1671   12.8596 C   0  0  0  0  0  0  0  0  0  0  0  0
   47.6718    6.9345   14.0498 O   0  0  0  0  0  0  0  0  0  0  0  0
   44.6146    6.4898   12.1036 C   0  0  0  0  0  0  0  0  0  0  0  0
   46.0363    4.8212   13.1121 C   0  0  0  0  0  0  0  0  0  0  0  0
   44.0290    4.1353   11.9277 C   0  0  0  0  0  0  0  0  0  0  0  0
   46.2482    8.4434   13.0631 O   0  0  0  0  0  0  0  0  0  0  0  0
   43.2546    3.1256   11.3477 N   0  0  0  0  0  0  0  0  0  0  0  0
   43.7766    5.4758   11.6257 C   0  0  0  0  0  0  0  0  0  0  0  0
   45.1926    3.8149   12.6304 C   0  0  0  0  0  0  0  0  0  0  0  0
   47.0494    9.5309   13.5513 C   0  0  0  0  0  0  0  0  0  0  0  0
   48.1831    9.8290   12.5754 C   0  0  0  0  0  0  0  0  0  0  0  0
   49.0143   11.0246   13.0330 C   0  0  0  0  0  0  0  0  0  0  0  0
   50.1408   11.3284   12.0585 C   0  0  0  0  0  0  0  0  0  0  0  0
   47.9215    7.3675   12.8472 C   0  0  0  0  0  0  0  0  0  0  0  0
   45.9653    8.6896   12.4032 C   0  0  0  0  0  0  0  0  0  0  0  0
   47.3485    8.6286   12.6421 C   0  0  0  0  0  0  0  0  0  0  0  0
   49.3419    7.2561   13.1041 N   0  0  0  0  0  0  0  0  0  0  0  0
   45.2935    9.9763   12.1816 N   0  0  0  0  0  0  0  0  0  0  0  0
   44.9925    5.0417   12.5379 N   0  0  0  0  0  0  0  0  0  0  0  0
   45.8019    6.2686   12.5741 C   0  0  0  0  0  0  0  0  0  0  0  0
   45.1877    7.5142   12.3690 C   0  0  0  0  0  0  0  0  0  0  0  0
   47.1760    6.1824   12.8146 C   0  0  0  0  0  0  0  0  0  0  0  0
   49.7289    7.5384   14.2447 O   0  0  0  0  0  0  0  0  0  0  0  0
   45.9921   10.9995   12.2406 O   0  0  0  0  0  0  0  0  0  0  0  0
   43.7980    5.1550   12.2378 O   0  0  0  0  0  0  0  0  0  0  0  0
   50.0387    6.8227   12.1778 O   0  0  0  0  0  0  0  0  0  0  0  0
   44.0788    9.9633   11.9518 O   0  0  0  0  0  0  0  0  0  0  0  0
   45.5588    3.9768   12.8117 O   0  0  0  0  0  0  0  0  0  0  0  0
   48.1712    9.7198   12.6729 O   0  0  0  0  0  0  0  0  0  0  0  0
   47.4872    6.5321   13.0902 C   0  0  0  0  0  0  0  0  0  0  0  0
   46.0934    6.1220   12.7699 C   0  0  0  0  0  0  0  0  0  0  0  0
   48.4048    5.7425   13.2479 O   0  0  0  0  0  0  0  0  0  0  0  0
   45.0769    7.0470   12.5060 C   0  0  0  0  0  0  0  0  0  0  0  0
   45.8025    4.7542   12.7081 C   0  0  0  0  0  0  0  0  0  0  0  0
   43.4766    5.2397   12.1998 C   0  0  0  0  0  0  0  0  0  0  0  0
   47.5768    7.8820   13.1846 O   0  0  0  0  0  0  0  0  0  0  0  0
   42.2175    4.8028   11.7781 N   0  0  0  0  0  0  0  0  0  0  0  0
   43.7846    6.6026   12.2020 C   0  0  0  0  0  0  0  0  0  0  0  0
   44.5074    4.3206   12.4060 C   0  0  0  0  0  0  0  0  0  0  0  0
   48.8935    8.3651   13.4773 C   0  0  0  0  0  0  0  0  0  0  0  0
   48.8544    9.8868   13.5996 C   0  0  0  0  0  0  0  0  0  0  0  0
   48.3183   10.6106   12.3604 C   0  0  0  0  0  0  0  0  0  0  0  0
   49.1670   10.3935   11.1171 C   0  0  0  0  0  0  0  0  0  0  0  0
   44.3748    7.5231   11.8660 H   0  0  0  0  0  0  0  0  0  0  0  0
   46.9274    4.5474   13.6739 H   0  0  0  0  0  0  0  0  0  0  0  0
   42.3036    3.4047   11.1313 H   0  0  0  0  0  0  0  0  0  0  0  0
   43.2934    2.2395   11.8421 H   0  0  0  0  0  0  0  0  0  0  0  0
   42.9192    5.7449   11.0140 H   0  0  0  0  0  0  0  0  0  0  0  0
   45.4553    2.7759   12.8121 H   0  0  0  0  0  0  0  0  0  0  0  0
   47.4245    9.3215   14.5603 H   0  0  0  0  0  0  0  0  0  0  0  0
   46.3859   10.3989   13.6317 H   0  0  0  0  0  0  0  0  0  0  0  0
   47.7627   10.0166   11.5794 H   0  0  0  0  0  0  0  0  0  0  0  0
   48.8229    8.9446   12.4686 H   0  0  0  0  0  0  0  0  0  0  0  0
   49.4396   10.8248   14.0233 H   0  0  0  0  0  0  0  0  0  0  0  0
   48.3732   11.9091   13.1273 H   0  0  0  0  0  0  0  0  0  0  0  0
   49.7477   11.5577   11.0630 H   0  0  0  0  0  0  0  0  0  0  0  0
   50.7170   12.1926   12.4031 H   0  0  0  0  0  0  0  0  0  0  0  0
   50.8241   10.4779   11.9713 H   0  0  0  0  0  0  0  0  0  0  0  0
   44.1141    7.5675   12.1830 H   0  0  0  0  0  0  0  0  0  0  0  0
   47.6672    5.2231   12.9745 H   0  0  0  0  0  0  0  0  0  0  0  0
   47.6727   10.5559   12.5354 H   0  0  0  0  0  0  0  0  0  0  0  0
   45.2746    8.1158   12.5169 H   0  0  0  0  0  0  0  0  0  0  0  0
   46.5847    4.0180   12.8813 H   0  0  0  0  0  0  0  0  0  0  0  0
   41.4693    5.4697   11.9408 H   0  0  0  0  0  0  0  0  0  0  0  0
   41.9772    3.8684   12.0951 H   0  0  0  0  0  0  0  0  0  0  0  0
   43.0172    7.3361   11.9673 H   0  0  0  0  0  0  0  0  0  0  0  0
   44.3132    3.2537   12.3328 H   0  0  0  0  0  0  0  0  0  0  0  0
   49.2341    7.9395   14.4290 H   0  0  0  0  0  0  0  0  0  0  0  0
   49.5860    8.0586   12.6853 H   0  0  0  0  0  0  0  0  0  0  0  0
   48.2046   10.1520   14.4428 H   0  0  0  0  0  0  0  0  0  0  0  0
   49.8590   10.2553   13.8380 H   0  0  0  0  0  0  0  0  0  0  0  0
   48.2840   11.6854   12.5767 H   0  0  0  0  0  0  0  0  0  0  0  0
   47.2876   10.2995   12.1554 H   0  0  0  0  0  0  0  0  0  0  0  0
   48.7965   11.0173   10.2970 H   0  0  0  0  0  0  0  0  0  0  0  0
   49.1296    9.3520   10.7834 H   0  0  0  0  0  0  0  0  0  0  0  0
   50.2119   10.6614   11.3023 H   0  0  0  0  0  0  0  0  0  0  0  0
  2  1  1  0
  3  1  2  0
  4  2  2  0
  5  2  1  0
  6 10  1  0
  7  1  1  0
  8  6  1  0
  9  4  1  0
 10  5  2  0
 11  7  1  0
 12 11  1  0
 13 12  1  0
 14 13  1  0
  9  6  2  0
 16 17  1  0
 17 15  2  0
 18 15  1  0
 19 16  1  0
 20 21  1  0
 21 23  2  0
 22 21  1  0
 23 15  1  0
 24 18  1  0
 25 19  1  0
 26 20  1  0
 27 18  2  0
 28 19  2  0
 29 20  2  0
 30 17  1  0
 22 16  2  0
 32 31  1  0
 33 31  2  0
 34 32  2  0
 35 32  1  0
 36 40  1  0
 37 31  1  0
 38 36  1  0
 39 34  1  0
 40 35  2  0
 41 37  1  0
 42 41  1  0
 43 42  1  0
 44 43  1  0
 39 36  2  0
  4 45  1  0
  5 46  1  0
  8 47  1  0
  8 48  1  0
  9 49  1  0
 10 50  1  0
 11 51  1  0
 11 52  1  0
 12 53  1  0
 12 54  1  0
 13 55  1  0
 13 56  1  0
 14 57  1  0
 14 58  1  0
 14 59  1  0
 22 60  1  0
 23 61  1  0
 30 62  1  0
 34 63  1  0
 35 64  1  0
 38 65  1  0
 38 66  1  0
 39 67  1  0
 40 68  1  0
 41 69  1  0
 41 70  1  0
 42 71  1  0
 42 72  1  0
 43 73  1  0
 43 74  1  0
 44 75  1  0
 44 76  1  0
 44 77  1  0
M  CHG  6  18   1  19   1  20   1  24  -1  25  -1  26  -1
M  END
> <Uni-Dock RESULT> 
ENERGY=   -7.389  LOWER_BOUND=    0.000  UPPER_BOUND=    0.000
INTER + INTRA:          -7.389
INTER:                  -7.389
INTRA:                   0.000
UNBOUND:                 0.000

$$$$

     RDKit          3D

 77 77  0  0  0  0  0  0  0  0999 V2000
   45.7817    9.2822   12.7101 C   0  0  0  0  0  0  0  0  0  0  0  0
   46.1263    7.8459   12.8932 C   0  0  0  0  0  0  0  0  0  0  0  0
   46.4661   10.1980   13.1382 O   0  0  0  0  0  0  0  0  0  0  0  0
   45.3349    6.8091   12.3851 C   0  0  0  0  0  0  0  0  0  0  0  0
   47.2980    7.5289   13.5896 C   0  0  0  0  0  0  0  0  0  0  0  0
   46.8438    5.1556   13.3375 C   0  0  0  0  0  0  0  0  0  0  0  0
   44.6219    9.4096   12.0183 O   0  0  0  0  0  0  0  0  0  0  0  0
   47.2700    3.8274   13.4357 N   0  0  0  0  0  0  0  0  0  0  0  0
   45.7073    5.4757   12.5906 C   0  0  0  0  0  0  0  0  0  0  0  0
   47.6616    6.1932   13.7902 C   0  0  0  0  0  0  0  0  0  0  0  0
   44.1684   10.7550   11.8012 C   0  0  0  0  0  0  0  0  0  0  0  0
   44.8013   11.3262   10.5364 C   0  0  0  0  0  0  0  0  0  0  0  0
   44.2877   12.7328   10.2408 C   0  0  0  0  0  0  0  0  0  0  0  0
   44.9116   13.3019    8.9767 C   0  0  0  0  0  0  0  0  0  0  0  0
   46.5047   10.0644   11.8433 C   0  0  0  0  0  0  0  0  0  0  0  0
   44.3837    9.0223   11.4106 C   0  0  0  0  0  0  0  0  0  0  0  0
   45.2188   10.1463   11.2949 C   0  0  0  0  0  0  0  0  0  0  0  0
   47.3980   11.2002   11.7545 N   0  0  0  0  0  0  0  0  0  0  0  0
   43.0215    9.0343   10.8623 N   0  0  0  0  0  0  0  0  0  0  0  0
   46.6058    6.5907   13.2601 N   0  0  0  0  0  0  0  0  0  0  0  0
   46.1334    7.8098   12.5876 C   0  0  0  0  0  0  0  0  0  0  0  0
   44.8349    7.8529   12.0559 C   0  0  0  0  0  0  0  0  0  0  0  0
   46.9824    8.9154   12.4859 C   0  0  0  0  0  0  0  0  0  0  0  0
   47.1987   12.1327   12.5426 O   0  0  0  0  0  0  0  0  0  0  0  0
   42.6364   10.0816   10.3206 O   0  0  0  0  0  0  0  0  0  0  0  0
   45.8550    5.6079   13.2530 O   0  0  0  0  0  0  0  0  0  0  0  0
   48.3268   11.1106   10.9417 O   0  0  0  0  0  0  0  0  0  0  0  0
   42.3436    8.0065   10.9734 O   0  0  0  0  0  0  0  0  0  0  0  0
   47.7225    6.6285   13.7906 O   0  0  0  0  0  0  0  0  0  0  0  0
   44.8608   11.3077   10.6694 O   0  0  0  0  0  0  0  0  0  0  0  0
   46.8466    9.4410   12.5066 C   0  0  0  0  0  0  0  0  0  0  0  0
   46.3861    8.0466   12.7452 C   0  0  0  0  0  0  0  0  0  0  0  0
   47.9826    9.8260   12.7341 O   0  0  0  0  0  0  0  0  0  0  0  0
   45.1054    7.6049   12.3944 C   0  0  0  0  0  0  0  0  0  0  0  0
   47.2847    7.1412   13.3215 C   0  0  0  0  0  0  0  0  0  0  0  0
   45.6029    5.3884   13.2665 C   0  0  0  0  0  0  0  0  0  0  0  0
   45.8347   10.1997   12.0171 O   0  0  0  0  0  0  0  0  0  0  0  0
   45.2632    4.0384   13.3930 N   0  0  0  0  0  0  0  0  0  0  0  0
   44.7295    6.2781   12.6357 C   0  0  0  0  0  0  0  0  0  0  0  0
   46.8985    5.8183   13.5608 C   0  0  0  0  0  0  0  0  0  0  0  0
   46.1972   11.5586   11.7441 C   0  0  0  0  0  0  0  0  0  0  0  0
   44.9693   12.3147   11.2417 C   0  0  0  0  0  0  0  0  0  0  0  0
   44.3159   11.7095    9.9953 C   0  0  0  0  0  0  0  0  0  0  0  0
   45.2273   11.6989    8.7777 C   0  0  0  0  0  0  0  0  0  0  0  0
   44.4327    7.0194   11.8166 H   0  0  0  0  0  0  0  0  0  0  0  0
   47.9420    8.3203   13.9686 H   0  0  0  0  0  0  0  0  0  0  0  0
   46.5214    3.1457   13.3728 H   0  0  0  0  0  0  0  0  0  0  0  0
   47.8892    3.6490   14.2205 H   0  0  0  0  0  0  0  0  0  0  0  0
   45.0965    4.6855   12.1614 H   0  0  0  0  0  0  0  0  0  0  0  0
   48.5926    5.9728   14.3061 H   0  0  0  0  0  0  0  0  0  0  0  0
   44.3684   11.3840   12.6770 H   0  0  0  0  0  0  0  0  0  0  0  0
   43.0801   10.7054   11.6863 H   0  0  0  0  0  0  0  0  0  0  0  0
   44.5886   10.6582    9.6924 H   0  0  0  0  0  0  0  0  0  0  0  0
   45.8931   11.3384   10.6408 H   0  0  0  0  0  0  0  0  0  0  0  0
   44.5140   13.3962   11.0836 H   0  0  0  0  0  0  0  0  0  0  0  0
   43.1975   12.7142   10.1258 H   0  0  0  0  0  0  0  0  0  0  0  0
   44.6828   12.6749    8.1092 H   0  0  0  0  0  0  0  0  0  0  0  0
   44.5229   14.3061    8.7815 H   0  0  0  0  0  0  0  0  0  0  0  0
   45.9995   13.3720    9.0735 H   0  0  0  0  0  0  0  0  0  0  0  0
   44.1821    6.9833   12.1427 H   0  0  0  0  0  0  0  0  0  0  0  0
   47.9931    8.8967   12.8924 H   0  0  0  0  0  0  0  0  0  0  0  0
   43.9372   11.2715   10.3345 H   0  0  0  0  0  0  0  0  0  0  0  0
   44.3923    8.2734   11.9188 H   0  0  0  0  0  0  0  0  0  0  0  0
   48.2948    7.4562   13.5753 H   0  0  0  0  0  0  0  0  0  0  0  0
   44.2647    3.8642   13.4538 H   0  0  0  0  0  0  0  0  0  0  0  0
   45.7851    3.5470   14.1125 H   0  0  0  0  0  0  0  0  0  0  0  0
   43.7420    5.9458   12.3253 H   0  0  0  0  0  0  0  0  0  0  0  0
   47.6238    5.1258   13.9801 H   0  0  0  0  0  0  0  0  0  0  0  0
   46.5551   12.0322   12.6664 H   0  0  0  0  0  0  0  0  0  0  0  0
   46.9999   11.5860   10.9985 H   0  0  0  0  0  0  0  0  0  0  0  0
   44.2149   12.3224   12.0383 H   0  0  0  0  0  0  0  0  0  0  0  0
   45.2432   13.3582   11.0466 H   0  0  0  0  0  0  0  0  0  0  0  0
   43.4202   12.2959    9.7562 H   0  0  0  0  0  0  0  0  0  0  0  0
   43.9755   10.6887   10.2029 H   0  0  0  0  0  0  0  0  0  0  0  0
   44.6731   11.3562    7.8978 H   0  0  0  0  0  0  0  0  0  0  0  0
   46.0759   11.0225    8.9184 H   0  0  0  0  0  0  0  0  0  0  0  0
   45.6136   12.7011    8.5667 H   0  0  0  0  0  0  0  0  0  0  0  0
  2  1  1  0
  3  1  2  0
  4  2  2  0
  5  2  1  0
  6 10  1  0
  7  1  1  0
  8  6  1  0
  9  4  1  0
 10  5  2  0
 11  7  1  0
 12 11  1  0
 13 12  1  0
 14 13  1  0
  9  6  2  0
 16 17  1  0
 17 15  2  0
 18 15  1  0
 19 16  1  0
 20 21  1  0
 21 23  2  0
 22 21  1  0
 23 15  1  0
 24 18  1  0
 25 19  1  0
 26 20  1  0
 27 18  2  0
 28 19  2  0
 29 20  2  0
 30 17  1  0
 22 16  2  0
 32 31  1  0
 33 31  2  0
 34 32  2  0
 35 32  1  0
 36 40  1  0
 37 31  1  0
 38 36  1  0
 39 34  1  0
 40 35  2  0
 41 37  1  0
 42 41  1  0
 43 42  1  0
 44 43  1  0
 39 36  2  0
  4 45  1  0
  5 46  1  0
  8 47  1  0
  8 48  1  0
  9 49  1  0
 10 50  1  0
 11 51  1  0
 11 52  1  0
 12 53  1  0
 12 54  1  0
 13 55  1  0
 13 56  1  0
 14 57  1  0
 14 58  1  0
 14 59  1  0
 22 60  1  0
 23 61  1  0
 30 62  1  0
 34 63  1  0
 35 64  1  0
 38 65  1  0
 38 66  1  0
 39 67  1  0
 40 68  1  0
 41 69  1  0
 41 70  1  0
 42 71  1  0
 42 72  1  0
 43 73  1  0
 43 74  1  0
 44 75  1  0
 44 76  1  0
 44 77  1  0
M  CHG  6  18   1  19   1  20   1  24  -1  25  -1  26  -1
M  END
> <Uni-Dock RESULT> 
ENERGY=   -6.843  LOWER_BOUND=    2.203  UPPER_BOUND=    3.502
INTER + INTRA:          -6.843
INTER:                  -6.843
INTRA:                   0.000
UNBOUND:                 0.000

$$$$

     RDKit          3D

 77 77  0  0  0  0  0  0  0  0999 V2000
   47.4885    6.6435   12.7084 C   0  0  0  0  0  0  0  0  0  0  0  0
   46.3017    5.8125   12.3674 C   0  0  0  0  0  0  0  0  0  0  0  0
   47.9124    7.5367   11.9923 O   0  0  0  0  0  0  0  0  0  0  0  0
   45.8231    4.7997   13.2066 C   0  0  0  0  0  0  0  0  0  0  0  0
   45.6350    6.0710   11.1644 C   0  0  0  0  0  0  0  0  0  0  0  0
   44.0729    4.2631   11.6045 C   0  0  0  0  0  0  0  0  0  0  0  0
   48.0111    6.2615   13.9005 O   0  0  0  0  0  0  0  0  0  0  0  0
   42.8877    3.5889   11.2945 N   0  0  0  0  0  0  0  0  0  0  0  0
   44.7035    4.0478   12.8325 C   0  0  0  0  0  0  0  0  0  0  0  0
   44.5171    5.3140   10.7990 C   0  0  0  0  0  0  0  0  0  0  0  0
   49.1826    6.9749   14.3264 C   0  0  0  0  0  0  0  0  0  0  0  0
   48.7837    8.2368   15.0849 C   0  0  0  0  0  0  0  0  0  0  0  0
   50.0071    8.9835   15.6095 C   0  0  0  0  0  0  0  0  0  0  0  0
   49.6122   10.2380   16.3720 C   0  0  0  0  0  0  0  0  0  0  0  0
   47.3328    7.9562   13.0805 C   0  0  0  0  0  0  0  0  0  0  0  0
   47.6506    6.0762   14.5421 C   0  0  0  0  0  0  0  0  0  0  0  0
   47.9463    7.4101   14.2147 C   0  0  0  0  0  0  0  0  0  0  0  0
   47.6128    9.3247   12.7000 N   0  0  0  0  0  0  0  0  0  0  0  0
   48.2574    5.4346   15.7153 N   0  0  0  0  0  0  0  0  0  0  0  0
   45.2342    5.1206   11.7999 N   0  0  0  0  0  0  0  0  0  0  0  0
   46.1627    5.9072   12.6252 C   0  0  0  0  0  0  0  0  0  0  0  0
   46.7612    5.3204   13.7514 C   0  0  0  0  0  0  0  0  0  0  0  0
   46.4419    7.2320   12.2785 C   0  0  0  0  0  0  0  0  0  0  0  0
   48.6908    9.5390   12.1322 O   0  0  0  0  0  0  0  0  0  0  0  0
   49.0557    6.1097   16.3826 O   0  0  0  0  0  0  0  0  0  0  0  0
   44.9493    3.9819   12.1896 O   0  0  0  0  0  0  0  0  0  0  0  0
   46.7185   10.1523   12.9157 O   0  0  0  0  0  0  0  0  0  0  0  0
   47.9390    4.2666   15.9659 O   0  0  0  0  0  0  0  0  0  0  0  0
   44.8004    5.6486   10.7691 O   0  0  0  0  0  0  0  0  0  0  0  0
   48.7827    8.2115   14.9403 O   0  0  0  0  0  0  0  0  0  0  0  0
   46.9129    7.4971   12.3332 C   0  0  0  0  0  0  0  0  0  0  0  0
   46.2449    6.1680   12.3607 C   0  0  0  0  0  0  0  0  0  0  0  0
   46.6145    8.3876   11.5532 O   0  0  0  0  0  0  0  0  0  0  0  0
   46.5424    5.1942   13.3208 C   0  0  0  0  0  0  0  0  0  0  0  0
   45.2640    5.8992   11.3991 C   0  0  0  0  0  0  0  0  0  0  0  0
   44.9401    3.6689   12.3073 C   0  0  0  0  0  0  0  0  0  0  0  0
   47.8833    7.5622   13.2783 O   0  0  0  0  0  0  0  0  0  0  0  0
   44.1945    2.4881   12.3686 N   0  0  0  0  0  0  0  0  0  0  0  0
   45.8755    3.9634   13.3025 C   0  0  0  0  0  0  0  0  0  0  0  0
   44.6053    4.6652   11.3879 C   0  0  0  0  0  0  0  0  0  0  0  0
   48.5701    8.8185   13.3308 C   0  0  0  0  0  0  0  0  0  0  0  0
   49.6596    8.7510   14.3985 C   0  0  0  0  0  0  0  0  0  0  0  0
   49.1546    8.3962   15.8007 C   0  0  0  0  0  0  0  0  0  0  0  0
   48.1847    9.4188   16.3723 C   0  0  0  0  0  0  0  0  0  0  0  0
   46.3003    4.5896   14.1604 H   0  0  0  0  0  0  0  0  0  0  0  0
   45.9741    6.8725   10.5107 H   0  0  0  0  0  0  0  0  0  0  0  0
   42.8020    2.6777   11.7320 H   0  0  0  0  0  0  0  0  0  0  0  0
   42.6752    3.5616   10.3019 H   0  0  0  0  0  0  0  0  0  0  0  0
   44.3282    3.2868   13.5121 H   0  0  0  0  0  0  0  0  0  0  0  0
   43.9972    5.5549    9.8753 H   0  0  0  0  0  0  0  0  0  0  0  0
   49.8372    7.2003   13.4760 H   0  0  0  0  0  0  0  0  0  0  0  0
   49.7386    6.3006   14.9868 H   0  0  0  0  0  0  0  0  0  0  0  0
   48.1191    7.9649   15.9145 H   0  0  0  0  0  0  0  0  0  0  0  0
   48.1944    8.8917   14.4316 H   0  0  0  0  0  0  0  0  0  0  0  0
   50.6600    9.2613   14.7739 H   0  0  0  0  0  0  0  0  0  0  0  0
   50.5869    8.3292   16.2711 H   0  0  0  0  0  0  0  0  0  0  0  0
   48.9786    9.9928   17.2302 H   0  0  0  0  0  0  0  0  0  0  0  0
   50.5040   10.7514   16.7443 H   0  0  0  0  0  0  0  0  0  0  0  0
   49.0649   10.9328   15.7274 H   0  0  0  0  0  0  0  0  0  0  0  0
   46.5353    4.2851   14.0105 H   0  0  0  0  0  0  0  0  0  0  0  0
   45.9844    7.7016   11.4083 H   0  0  0  0  0  0  0  0  0  0  0  0
   49.1747    7.7324   15.7039 H   0  0  0  0  0  0  0  0  0  0  0  0
   47.2777    5.3804   14.0993 H   0  0  0  0  0  0  0  0  0  0  0  0
   44.9968    6.6531   10.6614 H   0  0  0  0  0  0  0  0  0  0  0  0
   44.6695    1.7193   12.8316 H   0  0  0  0  0  0  0  0  0  0  0  0
   43.7865    2.2108   11.4808 H   0  0  0  0  0  0  0  0  0  0  0  0
   46.0968    3.2332   14.0770 H   0  0  0  0  0  0  0  0  0  0  0  0
   43.8253    4.4915   10.6512 H   0  0  0  0  0  0  0  0  0  0  0  0
   49.0356    9.0196   12.3583 H   0  0  0  0  0  0  0  0  0  0  0  0
   47.8586    9.6214   13.5547 H   0  0  0  0  0  0  0  0  0  0  0  0
   50.3867    7.9832   14.1063 H   0  0  0  0  0  0  0  0  0  0  0  0
   50.1948    9.7074   14.4287 H   0  0  0  0  0  0  0  0  0  0  0  0
   50.0201    8.3229   16.4707 H   0  0  0  0  0  0  0  0  0  0  0  0
   48.6792    7.4088   15.7943 H   0  0  0  0  0  0  0  0  0  0  0  0
   47.9441    9.1675   17.4105 H   0  0  0  0  0  0  0  0  0  0  0  0
   47.2458    9.4381   15.8106 H   0  0  0  0  0  0  0  0  0  0  0  0
   48.6186   10.4236   16.3579 H   0  0  0  0  0  0  0  0  0  0  0  0
  2  1  1  0
  3  1  2  0
  4  2  2  0
  5  2  1  0
  6 10  1  0
  7  1  1  0
  8  6  1  0
  9  4  1  0
 10  5  2  0
 11  7  1  0
 12 11  1  0
 13 12  1  0
 14 13  1  0
  9  6  2  0
 16 17  1  0
 17 15  2  0
 18 15  1  0
 19 16  1  0
 20 21  1  0
 21 23  2  0
 22 21  1  0
 23 15  1  0
 24 18  1  0
 25 19  1  0
 26 20  1  0
 27 18  2  0
 28 19  2  0
 29 20  2  0
 30 17  1  0
 22 16  2  0
 32 31  1  0
 33 31  2  0
 34 32  2  0
 35 32  1  0
 36 40  1  0
 37 31  1  0
 38 36  1  0
 39 34  1  0
 40 35  2  0
 41 37  1  0
 42 41  1  0
 43 42  1  0
 44 43  1  0
 39 36  2  0
  4 45  1  0
  5 46  1  0
  8 47  1  0
  8 48  1  0
  9 49  1  0
 10 50  1  0
 11 51  1  0
 11 52  1  0
 12 53  1  0
 12 54  1  0
 13 55  1  0
 13 56  1  0
 14 57  1  0
 14 58  1  0
 14 59  1  0
 22 60  1  0
 23 61  1  0
 30 62  1  0
 34 63  1  0
 35 64  1  0
 38 65  1  0
 38 66  1  0
 39 67  1  0
 40 68  1  0
 41 69  1  0
 41 70  1  0
 42 71  1  0
 42 72  1  0
 43 73  1  0
 43 74  1  0
 44 75  1  0
 44 76  1  0
 44 77  1  0
M  CHG  6  18   1  19   1  20   1  24  -1  25  -1  26  -1
M  END
> <Uni-Dock RESULT> 
ENERGY=   -6.574  LOWER_BOUND=    1.530  UPPER_BOUND=    3.153
INTER + INTRA:          -6.574
INTER:                  -6.574
INTRA:                   0.000
UNBOUND:                 0.000

$$$$

     RDKit          3D

 77 77  0  0  0  0  0  0  0  0999 V2000
   50.4140    4.4174   17.2860 C   0  0  0  0  0  0  0  0  0  0  0  0
   51.3047    3.2706   17.6124 C   0  0  0  0  0  0  0  0  0  0  0  0
   49.3504    4.2973   16.6990 O   0  0  0  0  0  0  0  0  0  0  0  0
   52.5158    3.4263   18.2966 C   0  0  0  0  0  0  0  0  0  0  0  0
   50.8998    1.9869   17.2292 C   0  0  0  0  0  0  0  0  0  0  0  0
   52.9422    1.0365   18.1392 C   0  0  0  0  0  0  0  0  0  0  0  0
   50.9549    5.5811   17.7257 O   0  0  0  0  0  0  0  0  0  0  0  0
   53.6863   -0.0833   18.5236 N   0  0  0  0  0  0  0  0  0  0  0  0
   53.3145    2.3109   18.5740 C   0  0  0  0  0  0  0  0  0  0  0  0
   51.7051    0.8784   17.5107 C   0  0  0  0  0  0  0  0  0  0  0  0
   50.1973    6.7682   17.4436 C   0  0  0  0  0  0  0  0  0  0  0  0
   49.1713    7.0123   18.5457 C   0  0  0  0  0  0  0  0  0  0  0  0
   48.3942    8.3045   18.3094 C   0  0  0  0  0  0  0  0  0  0  0  0
   47.3758    8.5540   19.4101 C   0  0  0  0  0  0  0  0  0  0  0  0
   49.2314    4.5921   17.9619 C   0  0  0  0  0  0  0  0  0  0  0  0
   51.3077    5.7254   18.3821 C   0  0  0  0  0  0  0  0  0  0  0  0
   49.9088    5.7802   18.2627 C   0  0  0  0  0  0  0  0  0  0  0  0
   47.7904    4.6015   17.8221 N   0  0  0  0  0  0  0  0  0  0  0  0
   52.0866    6.9307   18.6934 N   0  0  0  0  0  0  0  0  0  0  0  0
   52.0002    2.0694   17.7295 N   0  0  0  0  0  0  0  0  0  0  0  0
   51.2812    3.3390   17.9116 C   0  0  0  0  0  0  0  0  0  0  0  0
   51.9985    4.5091   18.2069 C   0  0  0  0  0  0  0  0  0  0  0  0
   49.8895    3.3684   17.7868 C   0  0  0  0  0  0  0  0  0  0  0  0
   47.3332    5.0467   16.7623 O   0  0  0  0  0  0  0  0  0  0  0  0
   51.4612    7.9944   18.8189 O   0  0  0  0  0  0  0  0  0  0  0  0
   53.2202    2.0706   17.9326 O   0  0  0  0  0  0  0  0  0  0  0  0
   47.1420    4.1003   18.7492 O   0  0  0  0  0  0  0  0  0  0  0  0
   53.3118    6.8142   18.8101 O   0  0  0  0  0  0  0  0  0  0  0  0
   51.3380    1.0838   17.3835 O   0  0  0  0  0  0  0  0  0  0  0  0
   49.1674    6.9155   18.4353 O   0  0  0  0  0  0  0  0  0  0  0  0
   49.5830    3.7682   17.5837 C   0  0  0  0  0  0  0  0  0  0  0  0
   50.9650    3.2362   17.7268 C   0  0  0  0  0  0  0  0  0  0  0  0
   48.6009    3.0625   17.4165 O   0  0  0  0  0  0  0  0  0  0  0  0
   52.0637    4.0566   18.0061 C   0  0  0  0  0  0  0  0  0  0  0  0
   51.1604    1.8560   17.5998 C   0  0  0  0  0  0  0  0  0  0  0  0
   53.5489    2.1299   17.9514 C   0  0  0  0  0  0  0  0  0  0  0  0
   49.5837    5.1223   17.6583 O   0  0  0  0  0  0  0  0  0  0  0  0
   54.8033    1.5670   18.2037 N   0  0  0  0  0  0  0  0  0  0  0  0
   53.3410    3.4989   18.1382 C   0  0  0  0  0  0  0  0  0  0  0  0
   52.4410    1.3089   17.7310 C   0  0  0  0  0  0  0  0  0  0  0  0
   48.2859    5.7185   17.5441 C   0  0  0  0  0  0  0  0  0  0  0  0
   48.4247    7.2382   17.6000 C   0  0  0  0  0  0  0  0  0  0  0  0
   49.1110    7.7679   18.8630 C   0  0  0  0  0  0  0  0  0  0  0  0
   48.3530    7.4509   20.1429 C   0  0  0  0  0  0  0  0  0  0  0  0
   52.8482    4.4052   18.6325 H   0  0  0  0  0  0  0  0  0  0  0  0
   49.9485    1.8406   16.7211 H   0  0  0  0  0  0  0  0  0  0  0  0
   54.6695    0.1074   18.6854 H   0  0  0  0  0  0  0  0  0  0  0  0
   53.5434   -0.8971   17.9332 H   0  0  0  0  0  0  0  0  0  0  0  0
   54.2362    2.4484   19.1337 H   0  0  0  0  0  0  0  0  0  0  0  0
   51.3540   -0.1118   17.2315 H   0  0  0  0  0  0  0  0  0  0  0  0
   49.7270    6.7093   16.4547 H   0  0  0  0  0  0  0  0  0  0  0  0
   50.9129    7.5968   17.4074 H   0  0  0  0  0  0  0  0  0  0  0  0
   49.6840    7.0483   19.5151 H   0  0  0  0  0  0  0  0  0  0  0  0
   48.4802    6.1626   18.6040 H   0  0  0  0  0  0  0  0  0  0  0  0
   47.8762    8.2560   17.3445 H   0  0  0  0  0  0  0  0  0  0  0  0
   49.0877    9.1525   18.2634 H   0  0  0  0  0  0  0  0  0  0  0  0
   47.8642    8.6331   20.3864 H   0  0  0  0  0  0  0  0  0  0  0  0
   46.8374    9.4882   19.2233 H   0  0  0  0  0  0  0  0  0  0  0  0
   46.6423    7.7430   19.4569 H   0  0  0  0  0  0  0  0  0  0  0  0
   53.0847    4.4725   18.3009 H   0  0  0  0  0  0  0  0  0  0  0  0
   49.3189    2.4686   17.5592 H   0  0  0  0  0  0  0  0  0  0  0  0
   49.7345    7.6956   18.6256 H   0  0  0  0  0  0  0  0  0  0  0  0
   51.9436    5.1286   18.1397 H   0  0  0  0  0  0  0  0  0  0  0  0
   50.3154    1.1967   17.4115 H   0  0  0  0  0  0  0  0  0  0  0  0
   55.5820    2.2014   18.0546 H   0  0  0  0  0  0  0  0  0  0  0  0
   54.9488    0.6661   17.7579 H   0  0  0  0  0  0  0  0  0  0  0  0
   54.1760    4.1487   18.3884 H   0  0  0  0  0  0  0  0  0  0  0  0
   52.5630    0.2313   17.6596 H   0  0  0  0  0  0  0  0  0  0  0  0
   47.8390    5.4362   16.5831 H   0  0  0  0  0  0  0  0  0  0  0  0
   47.6399    5.3593   18.3532 H   0  0  0  0  0  0  0  0  0  0  0  0
   49.0211    7.5654   16.7392 H   0  0  0  0  0  0  0  0  0  0  0  0
   47.4333    7.6949   17.4980 H   0  0  0  0  0  0  0  0  0  0  0  0
   49.2051    8.8571   18.7734 H   0  0  0  0  0  0  0  0  0  0  0  0
   50.1298    7.3707   18.9365 H   0  0  0  0  0  0  0  0  0  0  0  0
   48.8332    7.9439   20.9946 H   0  0  0  0  0  0  0  0  0  0  0  0
   48.3421    6.3757   20.3462 H   0  0  0  0  0  0  0  0  0  0  0  0
   47.3185    7.8038   20.0853 H   0  0  0  0  0  0  0  0  0  0  0  0
  2  1  1  0
  3  1  2  0
  4  2  2  0
  5  2  1  0
  6 10  1  0
  7  1  1  0
  8  6  1  0
  9  4  1  0
 10  5  2  0
 11  7  1  0
 12 11  1  0
 13 12  1  0
 14 13  1  0
  9  6  2  0
 16 17  1  0
 17 15  2  0
 18 15  1  0
 19 16  1  0
 20 21  1  0
 21 23  2  0
 22 21  1  0
 23 15  1  0
 24 18  1  0
 25 19  1  0
 26 20  1  0
 27 18  2  0
 28 19  2  0
 29 20  2  0
 30 17  1  0
 22 16  2  0
 32 31  1  0
 33 31  2  0
 34 32  2  0
 35 32  1  0
 36 40  1  0
 37 31  1  0
 38 36  1  0
 39 34  1  0
 40 35  2  0
 41 37  1  0
 42 41  1  0
 43 42  1  0
 44 43  1  0
 39 36  2  0
  4 45  1  0
  5 46  1  0
  8 47  1  0
  8 48  1  0
  9 49  1  0
 10 50  1  0
 11 51  1  0
 11 52  1  0
 12 53  1  0
 12 54  1  0
 13 55  1  0
 13 56  1  0
 14 57  1  0
 14 58  1  0
 14 59  1  0
 22 60  1  0
 23 61  1  0
 30 62  1  0
 34 63  1  0
 35 64  1  0
 38 65  1  0
 38 66  1  0
 39 67  1  0
 40 68  1  0
 41 69  1  0
 41 70  1  0
 42 71  1  0
 42 72  1  0
 43 73  1  0
 43 74  1  0
 44 75  1  0
 44 76  1  0
 44 77  1  0
M  CHG  6  18   1  19   1  20   1  24  -1  25  -1  26  -1
M  END
> <Uni-Dock RESULT> 
ENERGY=   -6.495  LOWER_BOUND=    6.542  UPPER_BOUND=    8.539
INTER + INTRA:          -6.495
INTER:                  -6.495
INTRA:                   0.000
UNBOUND:                 0.000

$$$$

     RDKit          3D

 77 77  0  0  0  0  0  0  0  0999 V2000
   44.3237   10.1461   10.7778 C   0  0  0  0  0  0  0  0  0  0  0  0
   44.9152    9.0222   11.5538 C   0  0  0  0  0  0  0  0  0  0  0  0
   43.4324   10.0006    9.9564 O   0  0  0  0  0  0  0  0  0  0  0  0
   45.9293    9.2098   12.5003 C   0  0  0  0  0  0  0  0  0  0  0  0
   44.4213    7.7317   11.3326 C   0  0  0  0  0  0  0  0  0  0  0  0
   46.0012    6.8176   12.9359 C   0  0  0  0  0  0  0  0  0  0  0  0
   44.9150   11.3200   11.1131 O   0  0  0  0  0  0  0  0  0  0  0  0
   46.4426    5.7478   13.7210 N   0  0  0  0  0  0  0  0  0  0  0  0
   46.4499    8.1143   13.1986 C   0  0  0  0  0  0  0  0  0  0  0  0
   44.9482    6.6431   12.0352 C   0  0  0  0  0  0  0  0  0  0  0  0
   44.4461   12.4797   10.4075 C   0  0  0  0  0  0  0  0  0  0  0  0
   43.2315   13.0714   11.1156 C   0  0  0  0  0  0  0  0  0  0  0  0
   42.7491   14.3454   10.4273 C   0  0  0  0  0  0  0  0  0  0  0  0
   41.5429   14.9412   11.1351 C   0  0  0  0  0  0  0  0  0  0  0  0
   43.0535   10.5882   11.0551 C   0  0  0  0  0  0  0  0  0  0  0  0
   45.1132   11.5755   11.7998 C   0  0  0  0  0  0  0  0  0  0  0  0
   43.8134   11.7402   11.2924 C   0  0  0  0  0  0  0  0  0  0  0  0
   41.7113   10.7084   10.5258 N   0  0  0  0  0  0  0  0  0  0  0  0
   45.9703   12.7364   12.0715 N   0  0  0  0  0  0  0  0  0  0  0  0
   45.3633    7.8171   12.0898 N   0  0  0  0  0  0  0  0  0  0  0  0
   44.8298    9.1596   11.8157 C   0  0  0  0  0  0  0  0  0  0  0  0
   45.6264   10.2889   12.0623 C   0  0  0  0  0  0  0  0  0  0  0  0
   43.5342    9.2977   11.3102 C   0  0  0  0  0  0  0  0  0  0  0  0
   41.6051   10.9413    9.3155 O   0  0  0  0  0  0  0  0  0  0  0  0
   45.5080   13.8573   11.8101 O   0  0  0  0  0  0  0  0  0  0  0  0
   46.4802    7.7436   12.6158 O   0  0  0  0  0  0  0  0  0  0  0  0
   40.7840   10.5008   11.3185 O   0  0  0  0  0  0  0  0  0  0  0  0
   47.0950   12.5286   12.5407 O   0  0  0  0  0  0  0  0  0  0  0  0
   44.6607    6.8493   11.7745 O   0  0  0  0  0  0  0  0  0  0  0  0
   43.2398   12.9527   11.0295 O   0  0  0  0  0  0  0  0  0  0  0  0
   43.3538    9.6686   10.9566 C   0  0  0  0  0  0  0  0  0  0  0  0
   44.5568    9.0490   11.5749 C   0  0  0  0  0  0  0  0  0  0  0  0
   42.3452    9.0447   10.6673 O   0  0  0  0  0  0  0  0  0  0  0  0
   45.6674    9.7983   11.9795 C   0  0  0  0  0  0  0  0  0  0  0  0
   44.5586    7.6642   11.7786 C   0  0  0  0  0  0  0  0  0  0  0  0
   46.7992    7.7727   12.7122 C   0  0  0  0  0  0  0  0  0  0  0  0
   43.5484   10.9966   10.7626 O   0  0  0  0  0  0  0  0  0  0  0  0
   47.8484    7.1610   13.4043 N   0  0  0  0  0  0  0  0  0  0  0  0
   46.7689    9.1617   12.5636 C   0  0  0  0  0  0  0  0  0  0  0  0
   45.6652    7.0374   12.3608 C   0  0  0  0  0  0  0  0  0  0  0  0
   42.4288   11.6766   10.1821 C   0  0  0  0  0  0  0  0  0  0  0  0
   42.7860   13.1469    9.9760 C   0  0  0  0  0  0  0  0  0  0  0  0
   43.2140   13.8819   11.2502 C   0  0  0  0  0  0  0  0  0  0  0  0
   42.1239   13.9445   12.3089 C   0  0  0  0  0  0  0  0  0  0  0  0
   46.3178   10.2017   12.7166 H   0  0  0  0  0  0  0  0  0  0  0  0
   43.6138    7.5678   10.6214 H   0  0  0  0  0  0  0  0  0  0  0  0
   47.3729    5.8719   14.1061 H   0  0  0  0  0  0  0  0  0  0  0  0
   46.3239    4.8385   13.2849 H   0  0  0  0  0  0  0  0  0  0  0  0
   47.2149    8.2845   13.9520 H   0  0  0  0  0  0  0  0  0  0  0  0
   44.5261    5.6552   11.8693 H   0  0  0  0  0  0  0  0  0  0  0  0
   44.2309   12.2422    9.3588 H   0  0  0  0  0  0  0  0  0  0  0  0
   45.2694   13.2025   10.4082 H   0  0  0  0  0  0  0  0  0  0  0  0
   43.4884   13.2781   12.1621 H   0  0  0  0  0  0  0  0  0  0  0  0
   42.4229   12.3309   11.1466 H   0  0  0  0  0  0  0  0  0  0  0  0
   42.4840   14.1281    9.3861 H   0  0  0  0  0  0  0  0  0  0  0  0
   43.5566   15.0868   10.4088 H   0  0  0  0  0  0  0  0  0  0  0  0
   41.7817   15.1936   12.1730 H   0  0  0  0  0  0  0  0  0  0  0  0
   41.2204   15.8562   10.6289 H   0  0  0  0  0  0  0  0  0  0  0  0
   40.7027   14.2398   11.1360 H   0  0  0  0  0  0  0  0  0  0  0  0
   46.6363   10.1671   12.4562 H   0  0  0  0  0  0  0  0  0  0  0  0
   42.9035    8.4310   11.1149 H   0  0  0  0  0  0  0  0  0  0  0  0
   43.8575   13.6953   11.2121 H   0  0  0  0  0  0  0  0  0  0  0  0
   45.6876   10.8788   11.8629 H   0  0  0  0  0  0  0  0  0  0  0  0
   43.6936    7.0667   11.4979 H   0  0  0  0  0  0  0  0  0  0  0  0
   48.7293    7.6635   13.3539 H   0  0  0  0  0  0  0  0  0  0  0  0
   47.9563    6.1719   13.2006 H   0  0  0  0  0  0  0  0  0  0  0  0
   47.6076    9.7652   12.9016 H   0  0  0  0  0  0  0  0  0  0  0  0
   45.6306    5.9655   12.5375 H   0  0  0  0  0  0  0  0  0  0  0  0
   42.1941   11.2269    9.2097 H   0  0  0  0  0  0  0  0  0  0  0  0
   41.5552   11.5791   10.8366 H   0  0  0  0  0  0  0  0  0  0  0  0
   43.6199   13.2066    9.2656 H   0  0  0  0  0  0  0  0  0  0  0  0
   41.9346   13.6642    9.5185 H   0  0  0  0  0  0  0  0  0  0  0  0
   43.4968   14.9064   10.9790 H   0  0  0  0  0  0  0  0  0  0  0  0
   44.1080   13.4129   11.6768 H   0  0  0  0  0  0  0  0  0  0  0  0
   42.4504   14.5698   13.1464 H   0  0  0  0  0  0  0  0  0  0  0  0
   41.8947   12.9514   12.7073 H   0  0  0  0  0  0  0  0  0  0  0  0
   41.2040   14.3758   11.9015 H   0  0  0  0  0  0  0  0  0  0  0  0
  2  1  1  0
  3  1  2  0
  4  2  2  0
  5  2  1  0
  6 10  1  0
  7  1  1  0
  8  6  1  0
  9  4  1  0
 10  5  2  0
 11  7  1  0
 12 11  1  0
 13 12  1  0
 14 13  1  0
  9  6  2  0
 16 17  1  0
 17 15  2  0
 18 15  1  0
 19 16  1  0
 20 21  1  0
 21 23  2  0
 22 21  1  0
 23 15  1  0
 24 18  1  0
 25 19  1  0
 26 20  1  0
 27 18  2  0
 28 19  2  0
 29 20  2  0
 30 17  1  0
 22 16  2  0
 32 31  1  0
 33 31  2  0
 34 32  2  0
 35 32  1  0
 36 40  1  0
 37 31  1  0
 38 36  1  0
 39 34  1  0
 40 35  2  0
 41 37  1  0
 42 41  1  0
 43 42  1  0
 44 43  1  0
 39 36  2  0
  4 45  1  0
  5 46  1  0
  8 47  1  0
  8 48  1  0
  9 49  1  0
 10 50  1  0
 11 51  1  0
 11 52  1  0
 12 53  1  0
 12 54  1  0
 13 55  1  0
 13 56  1  0
 14 57  1  0
 14 58  1  0
 14 59  1  0
 22 60  1  0
 23 61  1  0
 30 62  1  0
 34 63  1  0
 35 64  1  0
 38 65  1  0
 38 66  1  0
 39 67  1  0
 40 68  1  0
 41 69  1  0
 41 70  1  0
 42 71  1  0
 42 72  1  0
 43 73  1  0
 43 74  1  0
 44 75  1  0
 44 76  1  0
 44 77  1  0
M  CHG  6  18   1  19   1  20   1  24  -1  25  -1  26  -1
M  END
> <Uni-Dock RESULT> 
ENERGY=   -6.368  LOWER_BOUND=    3.300  UPPER_BOUND=    5.502
INTER + INTRA:          -6.368
INTER:                  -6.368
INTRA:                   0.000
UNBOUND:                 0.000

$$$$

     RDKit          3D

 77 77  0  0  0  0  0  0  0  0999 V2000
   47.1086   10.5870   20.2616 C   0  0  0  0  0  0  0  0  0  0  0  0
   47.3761    9.2762   20.9137 C   0  0  0  0  0  0  0  0  0  0  0  0
   46.6684   11.5574   20.8573 O   0  0  0  0  0  0  0  0  0  0  0  0
   47.8921    8.1775   20.2166 C   0  0  0  0  0  0  0  0  0  0  0  0
   47.1121    9.1506   22.2823 C   0  0  0  0  0  0  0  0  0  0  0  0
   47.8014    6.8214   22.2341 C   0  0  0  0  0  0  0  0  0  0  0  0
   47.4174   10.5344   18.9417 O   0  0  0  0  0  0  0  0  0  0  0  0
   48.1436    5.6490   22.9151 N   0  0  0  0  0  0  0  0  0  0  0  0
   48.1211    6.9677   20.8820 C   0  0  0  0  0  0  0  0  0  0  0  0
   47.3439    7.9373   22.9385 C   0  0  0  0  0  0  0  0  0  0  0  0
   47.1748   11.7371   18.1950 C   0  0  0  0  0  0  0  0  0  0  0  0
   48.3849   12.6620   18.2792 C   0  0  0  0  0  0  0  0  0  0  0  0
   48.1850   13.9213   17.4401 C   0  0  0  0  0  0  0  0  0  0  0  0
   49.3924   14.8417   17.5166 C   0  0  0  0  0  0  0  0  0  0  0  0
   47.9198   11.6660   20.5138 C   0  0  0  0  0  0  0  0  0  0  0  0
   48.0155   10.2116   18.6040 C   0  0  0  0  0  0  0  0  0  0  0  0
   48.0723   11.5131   19.1302 C   0  0  0  0  0  0  0  0  0  0  0  0
   47.9641   12.9889   21.1002 N   0  0  0  0  0  0  0  0  0  0  0  0
   48.1646    9.9727   17.1628 N   0  0  0  0  0  0  0  0  0  0  0  0
   47.4637    8.1398   21.7144 N   0  0  0  0  0  0  0  0  0  0  0  0
   47.6721    9.2970   20.8317 C   0  0  0  0  0  0  0  0  0  0  0  0
   47.8149    9.1010   19.4490 C   0  0  0  0  0  0  0  0  0  0  0  0
   47.7239   10.5821   21.3787 C   0  0  0  0  0  0  0  0  0  0  0  0
   46.9501   13.6879   20.9832 O   0  0  0  0  0  0  0  0  0  0  0  0
   48.3153   10.9658   16.4351 O   0  0  0  0  0  0  0  0  0  0  0  0
   47.5097    7.0153   21.2013 O   0  0  0  0  0  0  0  0  0  0  0  0
   48.9900   13.2814   21.7273 O   0  0  0  0  0  0  0  0  0  0  0  0
   48.1303    8.8034   16.7631 O   0  0  0  0  0  0  0  0  0  0  0  0
   47.2543    8.3667   22.9121 O   0  0  0  0  0  0  0  0  0  0  0  0
   48.2809   12.6363   18.3796 O   0  0  0  0  0  0  0  0  0  0  0  0
   47.5416   11.0440   21.1584 C   0  0  0  0  0  0  0  0  0  0  0  0
   47.5344    9.5588   21.0709 C   0  0  0  0  0  0  0  0  0  0  0  0
   47.5362   11.6590   22.2130 O   0  0  0  0  0  0  0  0  0  0  0  0
   47.6303    8.8747   19.8539 C   0  0  0  0  0  0  0  0  0  0  0  0
   47.4526    8.8252   22.2602 C   0  0  0  0  0  0  0  0  0  0  0  0
   47.4836    6.7402   21.0129 C   0  0  0  0  0  0  0  0  0  0  0  0
   47.5478   11.5943   19.9189 O   0  0  0  0  0  0  0  0  0  0  0  0
   47.6022    5.3475   20.9942 N   0  0  0  0  0  0  0  0  0  0  0  0
   47.6267    7.4749   19.8331 C   0  0  0  0  0  0  0  0  0  0  0  0
   47.4472    7.4268   22.2283 C   0  0  0  0  0  0  0  0  0  0  0  0
   47.5699   13.0268   19.9113 C   0  0  0  0  0  0  0  0  0  0  0  0
   47.5316   13.5220   18.4673 C   0  0  0  0  0  0  0  0  0  0  0  0
   48.6691   12.9978   17.5851 C   0  0  0  0  0  0  0  0  0  0  0  0
   50.0492   13.4317   18.0543 C   0  0  0  0  0  0  0  0  0  0  0  0
   48.1337    8.2477   19.1591 H   0  0  0  0  0  0  0  0  0  0  0  0
   46.7370   10.0009   22.8489 H   0  0  0  0  0  0  0  0  0  0  0  0
   48.1693    4.8213   22.3291 H   0  0  0  0  0  0  0  0  0  0  0  0
   47.6176    5.4995   23.7708 H   0  0  0  0  0  0  0  0  0  0  0  0
   48.5516    6.1357   20.3304 H   0  0  0  0  0  0  0  0  0  0  0  0
   47.1615    7.8740   24.0082 H   0  0  0  0  0  0  0  0  0  0  0  0
   46.2579   12.2334   18.5348 H   0  0  0  0  0  0  0  0  0  0  0  0
   47.0066   11.4335   17.1559 H   0  0  0  0  0  0  0  0  0  0  0  0
   49.2782   12.1198   17.9449 H   0  0  0  0  0  0  0  0  0  0  0  0
   48.5729   12.9326   19.3253 H   0  0  0  0  0  0  0  0  0  0  0  0
   47.2975   14.4628   17.7876 H   0  0  0  0  0  0  0  0  0  0  0  0
   48.0089   13.6468   16.3934 H   0  0  0  0  0  0  0  0  0  0  0  0
   50.2935   14.3386   17.1522 H   0  0  0  0  0  0  0  0  0  0  0  0
   49.2291   15.7325   16.9021 H   0  0  0  0  0  0  0  0  0  0  0  0
   49.5725   15.1678   18.5457 H   0  0  0  0  0  0  0  0  0  0  0  0
   47.7717    8.0928   19.0349 H   0  0  0  0  0  0  0  0  0  0  0  0
   47.6160   10.7501   22.4497 H   0  0  0  0  0  0  0  0  0  0  0  0
   48.3582   12.4257   17.4225 H   0  0  0  0  0  0  0  0  0  0  0  0
   47.7244    9.4126   18.9140 H   0  0  0  0  0  0  0  0  0  0  0  0
   47.4064    9.3371   23.2192 H   0  0  0  0  0  0  0  0  0  0  0  0
   47.3238    4.9176   20.1175 H   0  0  0  0  0  0  0  0  0  0  0  0
   47.1871    4.8869   21.7987 H   0  0  0  0  0  0  0  0  0  0  0  0
   47.7359    6.9622   18.8806 H   0  0  0  0  0  0  0  0  0  0  0  0
   47.4147    6.8790   23.1665 H   0  0  0  0  0  0  0  0  0  0  0  0
   46.6888   13.4072   20.4422 H   0  0  0  0  0  0  0  0  0  0  0  0
   48.4715   13.3869   20.4197 H   0  0  0  0  0  0  0  0  0  0  0  0
   46.5868   13.1986   18.0130 H   0  0  0  0  0  0  0  0  0  0  0  0
   47.5338   14.6183   18.4617 H   0  0  0  0  0  0  0  0  0  0  0  0
   48.5139   13.3699   16.5649 H   0  0  0  0  0  0  0  0  0  0  0  0
   48.6322   11.9040   17.5282 H   0  0  0  0  0  0  0  0  0  0  0  0
   50.8073   13.1185   17.3289 H   0  0  0  0  0  0  0  0  0  0  0  0
   50.3057   12.9792   19.0170 H   0  0  0  0  0  0  0  0  0  0  0  0
   50.1060   14.5200   18.1562 H   0  0  0  0  0  0  0  0  0  0  0  0
  2  1  1  0
  3  1  2  0
  4  2  2  0
  5  2  1  0
  6 10  1  0
  7  1  1  0
  8  6  1  0
  9  4  1  0
 10  5  2  0
 11  7  1  0
 12 11  1  0
 13 12  1  0
 14 13  1  0
  9  6  2  0
 16 17  1  0
 17 15  2  0
 18 15  1  0
 19 16  1  0
 20 21  1  0
 21 23  2  0
 22 21  1  0
 23 15  1  0
 24 18  1  0
 25 19  1  0
 26 20  1  0
 27 18  2  0
 28 19  2  0
 29 20  2  0
 30 17  1  0
 22 16  2  0
 32 31  1  0
 33 31  2  0
 34 32  2  0
 35 32  1  0
 36 40  1  0
 37 31  1  0
 38 36  1  0
 39 34  1  0
 40 35  2  0
 41 37  1  0
 42 41  1  0
 43 42  1  0
 44 43  1  0
 39 36  2  0
  4 45  1  0
  5 46  1  0
  8 47  1  0
  8 48  1  0
  9 49  1  0
 10 50  1  0
 11 51  1  0
 11 52  1  0
 12 53  1  0
 12 54  1  0
 13 55  1  0
 13 56  1  0
 14 57  1  0
 14 58  1  0
 14 59  1  0
 22 60  1  0
 23 61  1  0
 30 62  1  0
 34 63  1  0
 35 64  1  0
 38 65  1  0
 38 66  1  0
 39 67  1  0
 40 68  1  0
 41 69  1  0
 41 70  1  0
 42 71  1  0
 42 72  1  0
 43 73  1  0
 43 74  1  0
 44 75  1  0
 44 76  1  0
 44 77  1  0
M  CHG  6  18   1  19   1  20   1  24  -1  25  -1  26  -1
M  END
> <Uni-Dock RESULT> 
ENERGY=   -6.310  LOWER_BOUND=    7.353  UPPER_BOUND=    8.783
INTER + INTRA:          -6.310
INTER:                  -6.310
INTRA:                   0.000
UNBOUND:                 0.000

$$$$

     RDKit          3D

 77 77  0  0  0  0  0  0  0  0999 V2000
   47.9558    7.9965   17.6214 C   0  0  0  0  0  0  0  0  0  0  0  0
   47.8313    9.3680   18.1858 C   0  0  0  0  0  0  0  0  0  0  0  0
   48.1672    7.7718   16.4403 O   0  0  0  0  0  0  0  0  0  0  0  0
   47.6000    9.6067   19.5456 C   0  0  0  0  0  0  0  0  0  0  0  0
   47.9672   10.4570   17.3174 C   0  0  0  0  0  0  0  0  0  0  0  0
   47.5636   12.0059   19.1452 C   0  0  0  0  0  0  0  0  0  0  0  0
   47.7981    7.0646   18.5945 O   0  0  0  0  0  0  0  0  0  0  0  0
   47.5699   13.3118   19.6451 N   0  0  0  0  0  0  0  0  0  0  0  0
   47.4890   10.9188   20.0197 C   0  0  0  0  0  0  0  0  0  0  0  0
   47.8544   11.7648   17.8006 C   0  0  0  0  0  0  0  0  0  0  0  0
   47.8698    5.6956   18.1660 C   0  0  0  0  0  0  0  0  0  0  0  0
   49.3190    5.2197   18.1648 C   0  0  0  0  0  0  0  0  0  0  0  0
   49.4230    3.7469   17.7778 C   0  0  0  0  0  0  0  0  0  0  0  0
   50.8658    3.2680   17.7826 C   0  0  0  0  0  0  0  0  0  0  0  0
   49.1794    7.5196   17.2200 C   0  0  0  0  0  0  0  0  0  0  0  0
   48.0718    7.0628   19.3024 C   0  0  0  0  0  0  0  0  0  0  0  0
   48.8266    6.5971   18.2127 C   0  0  0  0  0  0  0  0  0  0  0  0
   49.9507    7.0839   16.0748 N   0  0  0  0  0  0  0  0  0  0  0  0
   47.6627    6.1540   20.3807 N   0  0  0  0  0  0  0  0  0  0  0  0
   47.6713   10.7240   18.4616 N   0  0  0  0  0  0  0  0  0  0  0  0
   48.0684    9.3111   18.3737 C   0  0  0  0  0  0  0  0  0  0  0  0
   47.6896    8.4171   19.3877 C   0  0  0  0  0  0  0  0  0  0  0  0
   48.8183    8.8714   17.2793 C   0  0  0  0  0  0  0  0  0  0  0  0
   49.3415    6.4717   15.1891 O   0  0  0  0  0  0  0  0  0  0  0  0
   47.9884    4.9620   20.2733 O   0  0  0  0  0  0  0  0  0  0  0  0
   47.0828   11.0884   19.4865 O   0  0  0  0  0  0  0  0  0  0  0  0
   51.1411    7.4210   16.0497 O   0  0  0  0  0  0  0  0  0  0  0  0
   47.0210    6.6280   21.3252 O   0  0  0  0  0  0  0  0  0  0  0  0
   47.9502   11.4552   17.5038 O   0  0  0  0  0  0  0  0  0  0  0  0
   49.2496    5.3054   18.0678 O   0  0  0  0  0  0  0  0  0  0  0  0
   48.7898    8.3899   17.0295 C   0  0  0  0  0  0  0  0  0  0  0  0
   48.1330    9.3078   17.9988 C   0  0  0  0  0  0  0  0  0  0  0  0
   49.3628    8.7696   16.0207 O   0  0  0  0  0  0  0  0  0  0  0  0
   47.5592    8.8581   19.1933 C   0  0  0  0  0  0  0  0  0  0  0  0
   48.1150   10.6768   17.7075 C   0  0  0  0  0  0  0  0  0  0  0  0
   46.8878   11.1284   19.7554 C   0  0  0  0  0  0  0  0  0  0  0  0
   48.6509    7.1003   17.4254 O   0  0  0  0  0  0  0  0  0  0  0  0
   46.3984   12.0442   20.6913 N   0  0  0  0  0  0  0  0  0  0  0  0
   46.9616    9.7695   20.0720 C   0  0  0  0  0  0  0  0  0  0  0  0
   47.5132   11.5789   18.5909 C   0  0  0  0  0  0  0  0  0  0  0  0
   49.2693    6.1470   16.5528 C   0  0  0  0  0  0  0  0  0  0  0  0
   49.0074    4.7385   17.0812 C   0  0  0  0  0  0  0  0  0  0  0  0
   49.4931    4.4964   18.5138 C   0  0  0  0  0  0  0  0  0  0  0  0
   50.9981    4.6435   18.6765 C   0  0  0  0  0  0  0  0  0  0  0  0
   47.5159    8.7853   20.2526 H   0  0  0  0  0  0  0  0  0  0  0  0
   48.1751   10.2940   16.2616 H   0  0  0  0  0  0  0  0  0  0  0  0
   47.0667   13.4241   20.5188 H   0  0  0  0  0  0  0  0  0  0  0  0
   47.3163   14.0176   18.9605 H   0  0  0  0  0  0  0  0  0  0  0  0
   47.3407   11.0843   21.0838 H   0  0  0  0  0  0  0  0  0  0  0  0
   47.9956   12.5943   17.1125 H   0  0  0  0  0  0  0  0  0  0  0  0
   47.3969    5.5648   17.1854 H   0  0  0  0  0  0  0  0  0  0  0  0
   47.2837    5.1106   18.8832 H   0  0  0  0  0  0  0  0  0  0  0  0
   49.7542    5.3838   19.1586 H   0  0  0  0  0  0  0  0  0  0  0  0
   49.9104    5.8331   17.4741 H   0  0  0  0  0  0  0  0  0  0  0  0
   48.9965    3.5935   16.7797 H   0  0  0  0  0  0  0  0  0  0  0  0
   48.8400    3.1364   18.4775 H   0  0  0  0  0  0  0  0  0  0  0  0
   51.3149    3.3841   18.7739 H   0  0  0  0  0  0  0  0  0  0  0  0
   50.9143    2.2092   17.5100 H   0  0  0  0  0  0  0  0  0  0  0  0
   51.4685    3.8314   17.0634 H   0  0  0  0  0  0  0  0  0  0  0  0
   47.1036    8.7731   20.2361 H   0  0  0  0  0  0  0  0  0  0  0  0
   49.1209    9.5533   16.4853 H   0  0  0  0  0  0  0  0  0  0  0  0
   48.9375    4.7349   18.8050 H   0  0  0  0  0  0  0  0  0  0  0  0
   47.5810    7.8058   19.4647 H   0  0  0  0  0  0  0  0  0  0  0  0
   48.5810   11.0510   16.7982 H   0  0  0  0  0  0  0  0  0  0  0  0
   45.7142   11.6573   21.3340 H   0  0  0  0  0  0  0  0  0  0  0  0
   46.0935   12.9246   20.2871 H   0  0  0  0  0  0  0  0  0  0  0  0
   46.5512    9.4046   21.0103 H   0  0  0  0  0  0  0  0  0  0  0  0
   47.5393   12.6403   18.3584 H   0  0  0  0  0  0  0  0  0  0  0  0
   48.8363    6.2378   15.5492 H   0  0  0  0  0  0  0  0  0  0  0  0
   50.3458    6.3432   16.4920 H   0  0  0  0  0  0  0  0  0  0  0  0
   47.9257    4.5558   17.0648 H   0  0  0  0  0  0  0  0  0  0  0  0
   49.4682    4.0083   16.4056 H   0  0  0  0  0  0  0  0  0  0  0  0
   49.2078    3.4787   18.8073 H   0  0  0  0  0  0  0  0  0  0  0  0
   48.9847    5.1762   19.2070 H   0  0  0  0  0  0  0  0  0  0  0  0
   51.2952    4.3555   19.6903 H   0  0  0  0  0  0  0  0  0  0  0  0
   51.3189    5.6777   18.5190 H   0  0  0  0  0  0  0  0  0  0  0  0
   51.5348    4.0022   17.9703 H   0  0  0  0  0  0  0  0  0  0  0  0
  2  1  1  0
  3  1  2  0
  4  2  2  0
  5  2  1  0
  6 10  1  0
  7  1  1  0
  8  6  1  0
  9  4  1  0
 10  5  2  0
 11  7  1  0
 12 11  1  0
 13 12  1  0
 14 13  1  0
  9  6  2  0
 16 17  1  0
 17 15  2  0
 18 15  1  0
 19 16  1  0
 20 21  1  0
 21 23  2  0
 22 21  1  0
 23 15  1  0
 24 18  1  0
 25 19  1  0
 26 20  1  0
 27 18  2  0
 28 19  2  0
 29 20  2  0
 30 17  1  0
 22 16  2  0
 32 31  1  0
 33 31  2  0
 34 32  2  0
 35 32  1  0
 36 40  1  0
 37 31  1  0
 38 36  1  0
 39 34  1  0
 40 35  2  0
 41 37  1  0
 42 41  1  0
 43 42  1  0
 44 43  1  0
 39 36  2  0
  4 45  1  0
  5 46  1  0
  8 47  1  0
  8 48  1  0
  9 49  1  0
 10 50  1  0
 11 51  1  0
 11 52  1  0
 12 53  1  0
 12 54  1  0
 13 55  1  0
 13 56  1  0
 14 57  1  0
 14 58  1  0
 14 59  1  0
 22 60  1  0
 23 61  1  0
 30 62  1  0
 34 63  1  0
 35 64  1  0
 38 65  1  0
 38 66  1  0
 39 67  1  0
 40 68  1  0
 41 69  1  0
 41 70  1  0
 42 71  1  0
 42 72  1  0
 43 73  1  0
 43 74  1  0
 44 75  1  0
 44 76  1  0
 44 77  1  0
M  CHG  6  18   1  19   1  20   1  24  -1  25  -1  26  -1
M  END
> <Uni-Dock RESULT> 
ENERGY=   -6.309  LOWER_BOUND=    5.427  UPPER_BOUND=    7.954
INTER + INTRA:          -6.309
INTER:                  -6.309
INTRA:                   0.000
UNBOUND:                 0.000

$$$$

     RDKit          3D

 77 77  0  0  0  0  0  0  0  0999 V2000
   45.2554   10.4944   12.1148 C   0  0  0  0  0  0  0  0  0  0  0  0
   46.1787    9.3852   12.4786 C   0  0  0  0  0  0  0  0  0  0  0  0
   45.5323   11.6747   12.2586 O   0  0  0  0  0  0  0  0  0  0  0  0
   45.8483    8.0373   12.2958 C   0  0  0  0  0  0  0  0  0  0  0  0
   47.4312    9.7126   13.0102 C   0  0  0  0  0  0  0  0  0  0  0  0
   47.9821    7.3582   13.2464 C   0  0  0  0  0  0  0  0  0  0  0  0
   44.0928   10.0031   11.6179 O   0  0  0  0  0  0  0  0  0  0  0  0
   48.9273    6.3583   13.4955 N   0  0  0  0  0  0  0  0  0  0  0  0
   46.7560    7.0359   12.6592 C   0  0  0  0  0  0  0  0  0  0  0  0
   48.3315    8.7047   13.3707 C   0  0  0  0  0  0  0  0  0  0  0  0
   43.1056   10.9812   11.2550 C   0  0  0  0  0  0  0  0  0  0  0  0
   43.3343   11.4536    9.8227 C   0  0  0  0  0  0  0  0  0  0  0  0
   42.2606   12.4454    9.3834 C   0  0  0  0  0  0  0  0  0  0  0  0
   42.4820   12.9125    7.9538 C   0  0  0  0  0  0  0  0  0  0  0  0
   45.5122   11.2796   11.0178 C   0  0  0  0  0  0  0  0  0  0  0  0
   43.9857    9.4281   11.1341 C   0  0  0  0  0  0  0  0  0  0  0  0
   44.2665   10.7309   10.6892 C   0  0  0  0  0  0  0  0  0  0  0  0
   45.8431   12.6216   10.5871 N   0  0  0  0  0  0  0  0  0  0  0  0
   42.6999    8.7873   10.8305 N   0  0  0  0  0  0  0  0  0  0  0  0
   47.1649    8.5315   12.9673 N   0  0  0  0  0  0  0  0  0  0  0  0
   46.1741    9.2871   12.1869 C   0  0  0  0  0  0  0  0  0  0  0  0
   44.9344    8.7026   11.8832 C   0  0  0  0  0  0  0  0  0  0  0  0
   46.4762   10.5820   11.7563 C   0  0  0  0  0  0  0  0  0  0  0  0
   45.3432   13.5548   11.2272 O   0  0  0  0  0  0  0  0  0  0  0  0
   41.8706    9.4526   10.1916 O   0  0  0  0  0  0  0  0  0  0  0  0
   46.8915    7.3600   13.2547 O   0  0  0  0  0  0  0  0  0  0  0  0
   46.6523   12.7195    9.6560 O   0  0  0  0  0  0  0  0  0  0  0  0
   42.5213    7.6305   11.2280 O   0  0  0  0  0  0  0  0  0  0  0  0
   48.2062    9.1175   13.2867 O   0  0  0  0  0  0  0  0  0  0  0  0
   43.4072   11.4899    9.9449 O   0  0  0  0  0  0  0  0  0  0  0  0
   46.1370   11.0038   11.7099 C   0  0  0  0  0  0  0  0  0  0  0  0
   46.3183    9.6321   12.2569 C   0  0  0  0  0  0  0  0  0  0  0  0
   47.0260   11.8397   11.6730 O   0  0  0  0  0  0  0  0  0  0  0  0
   45.3111    8.6618   12.2083 C   0  0  0  0  0  0  0  0  0  0  0  0
   47.5570    9.3008   12.8182 C   0  0  0  0  0  0  0  0  0  0  0  0
   46.7553    7.0690   13.3479 C   0  0  0  0  0  0  0  0  0  0  0  0
   44.8640   11.1796   11.2770 O   0  0  0  0  0  0  0  0  0  0  0  0
   47.0180    5.7588   13.7579 N   0  0  0  0  0  0  0  0  0  0  0  0
   45.5413    7.3840   12.7319 C   0  0  0  0  0  0  0  0  0  0  0  0
   47.7760    8.0220   13.3410 C   0  0  0  0  0  0  0  0  0  0  0  0
   44.6057   12.4739   10.7192 C   0  0  0  0  0  0  0  0  0  0  0  0
   43.1369   12.5607   10.3108 C   0  0  0  0  0  0  0  0  0  0  0  0
   42.6895   11.4865    9.3144 C   0  0  0  0  0  0  0  0  0  0  0  0
   43.4157   11.5574    7.9800 C   0  0  0  0  0  0  0  0  0  0  0  0
   44.8951    7.7477   11.8609 H   0  0  0  0  0  0  0  0  0  0  0  0
   47.7188   10.7550   13.1344 H   0  0  0  0  0  0  0  0  0  0  0  0
   48.5263    5.4443   13.6773 H   0  0  0  0  0  0  0  0  0  0  0  0
   49.6292    6.6151   14.1829 H   0  0  0  0  0  0  0  0  0  0  0  0
   46.4936    5.9962   12.4804 H   0  0  0  0  0  0  0  0  0  0  0  0
   49.3103    8.9846   13.7514 H   0  0  0  0  0  0  0  0  0  0  0  0
   43.1008   11.8175   11.9642 H   0  0  0  0  0  0  0  0  0  0  0  0
   42.1304   10.4888   11.3361 H   0  0  0  0  0  0  0  0  0  0  0  0
   43.3466   10.5845    9.1531 H   0  0  0  0  0  0  0  0  0  0  0  0
   44.3273   11.9114    9.7371 H   0  0  0  0  0  0  0  0  0  0  0  0
   42.2624   13.3153   10.0503 H   0  0  0  0  0  0  0  0  0  0  0  0
   41.2708   11.9799    9.4594 H   0  0  0  0  0  0  0  0  0  0  0  0
   42.4607   12.0686    7.2571 H   0  0  0  0  0  0  0  0  0  0  0  0
   41.6969   13.6156    7.6592 H   0  0  0  0  0  0  0  0  0  0  0  0
   43.4469   13.4190    7.8516 H   0  0  0  0  0  0  0  0  0  0  0  0
   44.7109    7.6914   12.2261 H   0  0  0  0  0  0  0  0  0  0  0  0
   47.4343   11.0486   11.9829 H   0  0  0  0  0  0  0  0  0  0  0  0
   42.5569   11.0241    9.7824 H   0  0  0  0  0  0  0  0  0  0  0  0
   44.3474    8.8760   11.7535 H   0  0  0  0  0  0  0  0  0  0  0  0
   48.3632   10.0312   12.8399 H   0  0  0  0  0  0  0  0  0  0  0  0
   46.1908    5.2293   14.0156 H   0  0  0  0  0  0  0  0  0  0  0  0
   47.7560    5.6834   14.4517 H   0  0  0  0  0  0  0  0  0  0  0  0
   44.7579    6.6342   12.6544 H   0  0  0  0  0  0  0  0  0  0  0  0
   48.7559    7.7784   13.7432 H   0  0  0  0  0  0  0  0  0  0  0  0
   44.8123   13.2430   11.4734 H   0  0  0  0  0  0  0  0  0  0  0  0
   45.2579   12.6425    9.8549 H   0  0  0  0  0  0  0  0  0  0  0  0
   42.5182   12.4536   11.2104 H   0  0  0  0  0  0  0  0  0  0  0  0
   42.9357   13.5560    9.8974 H   0  0  0  0  0  0  0  0  0  0  0  0
   41.6145   11.6095    9.1341 H   0  0  0  0  0  0  0  0  0  0  0  0
   42.8220   10.4884    9.7473 H   0  0  0  0  0  0  0  0  0  0  0  0
   42.9806   10.8385    7.2779 H   0  0  0  0  0  0  0  0  0  0  0  0
   44.4769   11.3135    8.0879 H   0  0  0  0  0  0  0  0  0  0  0  0
   43.3321   12.5558    7.5391 H   0  0  0  0  0  0  0  0  0  0  0  0
  2  1  1  0
  3  1  2  0
  4  2  2  0
  5  2  1  0
  6 10  1  0
  7  1  1  0
  8  6  1  0
  9  4  1  0
 10  5  2  0
 11  7  1  0
 12 11  1  0
 13 12  1  0
 14 13  1  0
  9  6  2  0
 16 17  1  0
 17 15  2  0
 18 15  1  0
 19 16  1  0
 20 21  1  0
 21 23  2  0
 22 21  1  0
 23 15  1  0
 24 18  1  0
 25 19  1  0
 26 20  1  0
 27 18  2  0
 28 19  2  0
 29 20  2  0
 30 17  1  0
 22 16  2  0
 32 31  1  0
 33 31  2  0
 34 32  2  0
 35 32  1  0
 36 40  1  0
 37 31  1  0
 38 36  1  0
 39 34  1  0
 40 35  2  0
 41 37  1  0
 42 41  1  0
 43 42  1  0
 44 43  1  0
 39 36  2  0
  4 45  1  0
  5 46  1  0
  8 47  1  0
  8 48  1  0
  9 49  1  0
 10 50  1  0
 11 51  1  0
 11 52  1  0
 12 53  1  0
 12 54  1  0
 13 55  1  0
 13 56  1  0
 14 57  1  0
 14 58  1  0
 14 59  1  0
 22 60  1  0
 23 61  1  0
 30 62  1  0
 34 63  1  0
 35 64  1  0
 38 65  1  0
 38 66  1  0
 39 67  1  0
 40 68  1  0
 41 69  1  0
 41 70  1  0
 42 71  1  0
 42 72  1  0
 43 73  1  0
 43 74  1  0
 44 75  1  0
 44 76  1  0
 44 77  1  0
M  CHG  6  18   1  19   1  20   1  24  -1  25  -1  26  -1
M  END
> <Uni-Dock RESULT> 
ENERGY=   -6.302  LOWER_BOUND=    2.853  UPPER_BOUND=    5.171
INTER + INTRA:          -6.302
INTER:                  -6.302
INTRA:                   0.000
UNBOUND:                 0.000

$$$$
