
     RDKit          3D

 77 77  0  0  0  0  0  0  0  0999 V2000
   47.4613    6.5843   13.2992 C   0  0  0  0  0  0  0  0  0  0  0  0
   48.3423    7.6421   13.8649 C   0  0  0  0  0  0  0  0  0  0  0  0
   47.6702    5.3895   13.4377 O   0  0  0  0  0  0  0  0  0  0  0  0
   48.0847    9.0077   13.6976 C   0  0  0  0  0  0  0  0  0  0  0  0
   49.4819    7.2461   14.5744 C   0  0  0  0  0  0  0  0  0  0  0  0
   50.0575    9.5670   15.0067 C   0  0  0  0  0  0  0  0  0  0  0  0
   46.4192    7.1388   12.6307 O   0  0  0  0  0  0  0  0  0  0  0  0
   50.9815   10.5191   15.4481 N   0  0  0  0  0  0  0  0  0  0  0  0
   48.9509    9.9589   14.2493 C   0  0  0  0  0  0  0  0  0  0  0  0
   50.3419    8.2044   15.1211 C   0  0  0  0  0  0  0  0  0  0  0  0
   45.4991    6.2136   12.0279 C   0  0  0  0  0  0  0  0  0  0  0  0
   44.4193    5.8266   13.0349 C   0  0  0  0  0  0  0  0  0  0  0  0
   43.4212    4.8030   12.4962 C   0  0  0  0  0  0  0  0  0  0  0  0
   42.5769    5.3277   11.3451 C   0  0  0  0  0  0  0  0  0  0  0  0
   46.5641    5.9350   13.0974 C   0  0  0  0  0  0  0  0  0  0  0  0
   46.2520    8.3051   12.8616 C   0  0  0  0  0  0  0  0  0  0  0  0
   45.8645    7.0047   12.5150 C   0  0  0  0  0  0  0  0  0  0  0  0
   46.2136    4.5437   12.7836 N   0  0  0  0  0  0  0  0  0  0  0  0
   45.5534    9.4385   12.2941 N   0  0  0  0  0  0  0  0  0  0  0  0
   49.0900    7.7400   15.2502 N   0  0  0  0  0  0  0  0  0  0  0  0
   47.9844    7.4911   14.3134 C   0  0  0  0  0  0  0  0  0  0  0  0
   47.3025    8.5720   13.7478 C   0  0  0  0  0  0  0  0  0  0  0  0
   47.6233    6.1718   13.9971 C   0  0  0  0  0  0  0  0  0  0  0  0
   46.8852    3.6455   13.3045 O   0  0  0  0  0  0  0  0  0  0  0  0
   44.4582    9.7269   12.7913 O   0  0  0  0  0  0  0  0  0  0  0  0
   49.3595    8.9182   15.5144 O   0  0  0  0  0  0  0  0  0  0  0  0
   45.2606    4.3584   12.0125 O   0  0  0  0  0  0  0  0  0  0  0  0
   46.1445   10.0631   11.4045 O   0  0  0  0  0  0  0  0  0  0  0  0
   49.6776    6.7553   15.7141 O   0  0  0  0  0  0  0  0  0  0  0  0
   44.8399    6.8572   11.6219 O   0  0  0  0  0  0  0  0  0  0  0  0
   47.2015    7.1522   12.7040 C   0  0  0  0  0  0  0  0  0  0  0  0
   48.2760    7.8783   13.4343 C   0  0  0  0  0  0  0  0  0  0  0  0
   47.4185    6.2517   11.9088 O   0  0  0  0  0  0  0  0  0  0  0  0
   49.6049    7.5084   13.1976 C   0  0  0  0  0  0  0  0  0  0  0  0
   48.0064    8.8963   14.3562 C   0  0  0  0  0  0  0  0  0  0  0  0
   50.3873    9.2175   14.7377 C   0  0  0  0  0  0  0  0  0  0  0  0
   45.9812    7.6336   13.0493 O   0  0  0  0  0  0  0  0  0  0  0  0
   51.4230    9.7836   15.4875 N   0  0  0  0  0  0  0  0  0  0  0  0
   50.6486    8.1611   13.8623 C   0  0  0  0  0  0  0  0  0  0  0  0
   49.0576    9.5437   15.0159 C   0  0  0  0  0  0  0  0  0  0  0  0
   44.8584    7.0100   12.4039 C   0  0  0  0  0  0  0  0  0  0  0  0
   44.4281    5.7753   13.1917 C   0  0  0  0  0  0  0  0  0  0  0  0
   43.1519    5.1264   12.6586 C   0  0  0  0  0  0  0  0  0  0  0  0
   43.3145    4.5258   11.2710 C   0  0  0  0  0  0  0  0  0  0  0  0
   47.2235    9.3502   13.1301 H   0  0  0  0  0  0  0  0  0  0  0  0
   49.7153    6.1896   14.6938 H   0  0  0  0  0  0  0  0  0  0  0  0
   51.5616   10.2062   16.2205 H   0  0  0  0  0  0  0  0  0  0  0  0
   50.5840   11.4385   15.6124 H   0  0  0  0  0  0  0  0  0  0  0  0
   48.7511   11.0141   14.0796 H   0  0  0  0  0  0  0  0  0  0  0  0
   51.2387    7.8731   15.6384 H   0  0  0  0  0  0  0  0  0  0  0  0
   45.0573    6.7331   11.1720 H   0  0  0  0  0  0  0  0  0  0  0  0
   46.0238    5.3349   11.6345 H   0  0  0  0  0  0  0  0  0  0  0  0
   43.8931    6.7294   13.3693 H   0  0  0  0  0  0  0  0  0  0  0  0
   44.8938    5.4156   13.9346 H   0  0  0  0  0  0  0  0  0  0  0  0
   42.7518    4.5067   13.3125 H   0  0  0  0  0  0  0  0  0  0  0  0
   43.9511    3.8981   12.1771 H   0  0  0  0  0  0  0  0  0  0  0  0
   43.1868    5.5296   10.4598 H   0  0  0  0  0  0  0  0  0  0  0  0
   42.0580    6.2492   11.6265 H   0  0  0  0  0  0  0  0  0  0  0  0
   41.8221    4.5859   11.0647 H   0  0  0  0  0  0  0  0  0  0  0  0
   47.5712    9.6016   13.9829 H   0  0  0  0  0  0  0  0  0  0  0  0
   48.1628    5.3365   14.4460 H   0  0  0  0  0  0  0  0  0  0  0  0
   44.6269    5.9102   11.4660 H   0  0  0  0  0  0  0  0  0  0  0  0
   49.8358    6.7010   12.5053 H   0  0  0  0  0  0  0  0  0  0  0  0
   46.9850    9.1895   14.5847 H   0  0  0  0  0  0  0  0  0  0  0  0
   51.2171   10.7115   15.8442 H   0  0  0  0  0  0  0  0  0  0  0  0
   52.3320    9.7373   15.0377 H   0  0  0  0  0  0  0  0  0  0  0  0
   51.6704    7.8342   13.6871 H   0  0  0  0  0  0  0  0  0  0  0  0
   48.8256   10.3088   15.7527 H   0  0  0  0  0  0  0  0  0  0  0  0
   45.0928    6.7786   11.3590 H   0  0  0  0  0  0  0  0  0  0  0  0
   44.0501    7.7492   12.3949 H   0  0  0  0  0  0  0  0  0  0  0  0
   45.2422    5.0405   13.2095 H   0  0  0  0  0  0  0  0  0  0  0  0
   44.2713    6.0634   14.2389 H   0  0  0  0  0  0  0  0  0  0  0  0
   42.3368    5.8592   12.6467 H   0  0  0  0  0  0  0  0  0  0  0  0
   42.8516    4.3298   13.3498 H   0  0  0  0  0  0  0  0  0  0  0  0
   42.3989    4.0011   10.9794 H   0  0  0  0  0  0  0  0  0  0  0  0
   44.1388    3.8059   11.2483 H   0  0  0  0  0  0  0  0  0  0  0  0
   43.5075    5.2969   10.5196 H   0  0  0  0  0  0  0  0  0  0  0  0
  2  1  1  0
  3  1  2  0
  4  2  2  0
  5  2  1  0
  6 10  1  0
  7  1  1  0
  8  6  1  0
  9  4  1  0
 10  5  2  0
 11  7  1  0
 12 11  1  0
 13 12  1  0
 14 13  1  0
  9  6  2  0
 16 17  1  0
 17 15  2  0
 18 15  1  0
 19 16  1  0
 20 21  1  0
 21 23  2  0
 22 21  1  0
 23 15  1  0
 24 18  1  0
 25 19  1  0
 26 20  1  0
 27 18  2  0
 28 19  2  0
 29 20  2  0
 30 17  1  0
 22 16  2  0
 32 31  1  0
 33 31  2  0
 34 32  2  0
 35 32  1  0
 36 40  1  0
 37 31  1  0
 38 36  1  0
 39 34  1  0
 40 35  2  0
 41 37  1  0
 42 41  1  0
 43 42  1  0
 44 43  1  0
 39 36  2  0
  4 45  1  0
  5 46  1  0
  8 47  1  0
  8 48  1  0
  9 49  1  0
 10 50  1  0
 11 51  1  0
 11 52  1  0
 12 53  1  0
 12 54  1  0
 13 55  1  0
 13 56  1  0
 14 57  1  0
 14 58  1  0
 14 59  1  0
 22 60  1  0
 23 61  1  0
 30 62  1  0
 34 63  1  0
 35 64  1  0
 38 65  1  0
 38 66  1  0
 39 67  1  0
 40 68  1  0
 41 69  1  0
 41 70  1  0
 42 71  1  0
 42 72  1  0
 43 73  1  0
 43 74  1  0
 44 75  1  0
 44 76  1  0
 44 77  1  0
M  CHG  6  18   1  19   1  20   1  24  -1  25  -1  26  -1
M  END
> <Uni-Dock RESULT> 
ENERGY=   -7.158  LOWER_BOUND=    0.000  UPPER_BOUND=    0.000
INTER + INTRA:          -7.158
INTER:                  -7.158
INTRA:                   0.000
UNBOUND:                 0.000

$$$$

     RDKit          3D

 77 77  0  0  0  0  0  0  0  0999 V2000
   46.7657    8.0617   12.5655 C   0  0  0  0  0  0  0  0  0  0  0  0
   48.1776    8.3006   12.9713 C   0  0  0  0  0  0  0  0  0  0  0  0
   46.1173    8.8464   11.8915 O   0  0  0  0  0  0  0  0  0  0  0  0
   48.9059    7.3874   13.7425 C   0  0  0  0  0  0  0  0  0  0  0  0
   48.7868    9.4977   12.5778 C   0  0  0  0  0  0  0  0  0  0  0  0
   50.8598    8.8343   13.6583 C   0  0  0  0  0  0  0  0  0  0  0  0
   46.3276    6.8699   13.0428 O   0  0  0  0  0  0  0  0  0  0  0  0
   52.1387    9.1613   14.1194 N   0  0  0  0  0  0  0  0  0  0  0  0
   50.2306    7.6669   14.0979 C   0  0  0  0  0  0  0  0  0  0  0  0
   50.1109    9.7683   12.9388 C   0  0  0  0  0  0  0  0  0  0  0  0
   44.9680    6.5297   12.7236 C   0  0  0  0  0  0  0  0  0  0  0  0
   44.9162    5.8108   11.3782 C   0  0  0  0  0  0  0  0  0  0  0  0
   43.4994    5.4540   10.9312 C   0  0  0  0  0  0  0  0  0  0  0  0
   42.8166    4.4390   11.8347 C   0  0  0  0  0  0  0  0  0  0  0  0
   45.8527    7.6099   12.0863 C   0  0  0  0  0  0  0  0  0  0  0  0
   47.2024    6.1425   13.4262 C   0  0  0  0  0  0  0  0  0  0  0  0
   45.9510    6.4561   12.8812 C   0  0  0  0  0  0  0  0  0  0  0  0
   44.5740    8.0019   11.4795 N   0  0  0  0  0  0  0  0  0  0  0  0
   47.3538    4.9577   14.2436 N   0  0  0  0  0  0  0  0  0  0  0  0
   49.3937    8.9231   12.1831 N   0  0  0  0  0  0  0  0  0  0  0  0
   48.2163    8.0760   12.4236 C   0  0  0  0  0  0  0  0  0  0  0  0
   48.3395    6.9321   13.2170 C   0  0  0  0  0  0  0  0  0  0  0  0
   46.9810    8.4224   11.8535 C   0  0  0  0  0  0  0  0  0  0  0  0
   44.5435    9.0440   10.8146 O   0  0  0  0  0  0  0  0  0  0  0  0
   47.4394    3.8758   13.6503 O   0  0  0  0  0  0  0  0  0  0  0  0
   50.4652    8.5676   12.6893 O   0  0  0  0  0  0  0  0  0  0  0  0
   43.6017    7.2576   11.6738 O   0  0  0  0  0  0  0  0  0  0  0  0
   47.4532    5.1372   15.4638 O   0  0  0  0  0  0  0  0  0  0  0  0
   49.2366    9.9352   11.4895 O   0  0  0  0  0  0  0  0  0  0  0  0
   44.9010    5.6286   13.1676 O   0  0  0  0  0  0  0  0  0  0  0  0
   46.6828    7.5402   13.2477 C   0  0  0  0  0  0  0  0  0  0  0  0
   48.0452    8.1164   13.4119 C   0  0  0  0  0  0  0  0  0  0  0  0
   45.6570    8.1662   13.4630 O   0  0  0  0  0  0  0  0  0  0  0  0
   48.1560    9.4461   13.8344 C   0  0  0  0  0  0  0  0  0  0  0  0
   49.2098    7.3881   13.1426 C   0  0  0  0  0  0  0  0  0  0  0  0
   50.5806    9.2902   13.7910 C   0  0  0  0  0  0  0  0  0  0  0  0
   46.7573    6.2502   12.8349 O   0  0  0  0  0  0  0  0  0  0  0  0
   51.8312    9.9137   13.8424 N   0  0  0  0  0  0  0  0  0  0  0  0
   49.4157   10.0314   14.0009 C   0  0  0  0  0  0  0  0  0  0  0  0
   50.4655    7.9825   13.3127 C   0  0  0  0  0  0  0  0  0  0  0  0
   45.4991    5.5823   12.6428 C   0  0  0  0  0  0  0  0  0  0  0  0
   44.9821    5.8471   11.2312 C   0  0  0  0  0  0  0  0  0  0  0  0
   43.7176    5.0616   10.8877 C   0  0  0  0  0  0  0  0  0  0  0  0
   42.5068    5.4784   11.7080 C   0  0  0  0  0  0  0  0  0  0  0  0
   48.4554    6.4604   14.0874 H   0  0  0  0  0  0  0  0  0  0  0  0
   48.2303   10.2335   12.0001 H   0  0  0  0  0  0  0  0  0  0  0  0
   52.6288    9.8344   13.5383 H   0  0  0  0  0  0  0  0  0  0  0  0
   52.7153    8.3580   14.3489 H   0  0  0  0  0  0  0  0  0  0  0  0
   50.7679    6.9598   14.7253 H   0  0  0  0  0  0  0  0  0  0  0  0
   50.5515   10.7193   12.6509 H   0  0  0  0  0  0  0  0  0  0  0  0
   44.6198    5.8705   13.5247 H   0  0  0  0  0  0  0  0  0  0  0  0
   44.3254    7.4180   12.7364 H   0  0  0  0  0  0  0  0  0  0  0  0
   45.5379    4.9079   11.4237 H   0  0  0  0  0  0  0  0  0  0  0  0
   45.3780    6.4444   10.6109 H   0  0  0  0  0  0  0  0  0  0  0  0
   43.5484    5.0402    9.9169 H   0  0  0  0  0  0  0  0  0  0  0  0
   42.8872    6.3614   10.8737 H   0  0  0  0  0  0  0  0  0  0  0  0
   42.6374    4.8475   12.8335 H   0  0  0  0  0  0  0  0  0  0  0  0
   43.4208    3.5320   11.9342 H   0  0  0  0  0  0  0  0  0  0  0  0
   41.8462    4.1553   11.4145 H   0  0  0  0  0  0  0  0  0  0  0  0
   49.2912    6.6501   13.6668 H   0  0  0  0  0  0  0  0  0  0  0  0
   46.8979    9.3174   11.2351 H   0  0  0  0  0  0  0  0  0  0  0  0
   44.0764    5.9186   12.7178 H   0  0  0  0  0  0  0  0  0  0  0  0
   47.2631   10.0392   14.0231 H   0  0  0  0  0  0  0  0  0  0  0  0
   49.1596    6.3626   12.7862 H   0  0  0  0  0  0  0  0  0  0  0  0
   52.6069    9.2753   13.9884 H   0  0  0  0  0  0  0  0  0  0  0  0
   51.8687   10.7138   14.4663 H   0  0  0  0  0  0  0  0  0  0  0  0
   49.4762   11.0753   14.2978 H   0  0  0  0  0  0  0  0  0  0  0  0
   51.3568    7.4107   13.0663 H   0  0  0  0  0  0  0  0  0  0  0  0
   44.7809    5.8818   13.4141 H   0  0  0  0  0  0  0  0  0  0  0  0
   45.6872    4.5117   12.7783 H   0  0  0  0  0  0  0  0  0  0  0  0
   44.8048    6.9206   11.0930 H   0  0  0  0  0  0  0  0  0  0  0  0
   45.7701    5.5862   10.5134 H   0  0  0  0  0  0  0  0  0  0  0  0
   43.8969    3.9883   11.0200 H   0  0  0  0  0  0  0  0  0  0  0  0
   43.4893    5.2163    9.8265 H   0  0  0  0  0  0  0  0  0  0  0  0
   41.6159    4.9463   11.3591 H   0  0  0  0  0  0  0  0  0  0  0  0
   42.3183    6.5525   11.6127 H   0  0  0  0  0  0  0  0  0  0  0  0
   42.6391    5.2428   12.7679 H   0  0  0  0  0  0  0  0  0  0  0  0
  2  1  1  0
  3  1  2  0
  4  2  2  0
  5  2  1  0
  6 10  1  0
  7  1  1  0
  8  6  1  0
  9  4  1  0
 10  5  2  0
 11  7  1  0
 12 11  1  0
 13 12  1  0
 14 13  1  0
  9  6  2  0
 16 17  1  0
 17 15  2  0
 18 15  1  0
 19 16  1  0
 20 21  1  0
 21 23  2  0
 22 21  1  0
 23 15  1  0
 24 18  1  0
 25 19  1  0
 26 20  1  0
 27 18  2  0
 28 19  2  0
 29 20  2  0
 30 17  1  0
 22 16  2  0
 32 31  1  0
 33 31  2  0
 34 32  2  0
 35 32  1  0
 36 40  1  0
 37 31  1  0
 38 36  1  0
 39 34  1  0
 40 35  2  0
 41 37  1  0
 42 41  1  0
 43 42  1  0
 44 43  1  0
 39 36  2  0
  4 45  1  0
  5 46  1  0
  8 47  1  0
  8 48  1  0
  9 49  1  0
 10 50  1  0
 11 51  1  0
 11 52  1  0
 12 53  1  0
 12 54  1  0
 13 55  1  0
 13 56  1  0
 14 57  1  0
 14 58  1  0
 14 59  1  0
 22 60  1  0
 23 61  1  0
 30 62  1  0
 34 63  1  0
 35 64  1  0
 38 65  1  0
 38 66  1  0
 39 67  1  0
 40 68  1  0
 41 69  1  0
 41 70  1  0
 42 71  1  0
 42 72  1  0
 43 73  1  0
 43 74  1  0
 44 75  1  0
 44 76  1  0
 44 77  1  0
M  CHG  6  18   1  19   1  20   1  24  -1  25  -1  26  -1
M  END
> <Uni-Dock RESULT> 
ENERGY=   -6.834  LOWER_BOUND=    1.348  UPPER_BOUND=    2.936
INTER + INTRA:          -6.834
INTER:                  -6.834
INTRA:                   0.000
UNBOUND:                 0.000

$$$$

     RDKit          3D

 77 77  0  0  0  0  0  0  0  0999 V2000
   48.0980    7.4157   19.7933 C   0  0  0  0  0  0  0  0  0  0  0  0
   47.8740    8.8862   19.8437 C   0  0  0  0  0  0  0  0  0  0  0  0
   47.9379    6.6775   20.7524 O   0  0  0  0  0  0  0  0  0  0  0  0
   48.0604    9.7164   18.7322 C   0  0  0  0  0  0  0  0  0  0  0  0
   47.4802    9.4554   21.0602 C   0  0  0  0  0  0  0  0  0  0  0  0
   47.3896   11.6574   20.0365 C   0  0  0  0  0  0  0  0  0  0  0  0
   48.4907    7.0355   18.5518 O   0  0  0  0  0  0  0  0  0  0  0  0
   47.2892   13.0458   20.1674 N   0  0  0  0  0  0  0  0  0  0  0  0
   47.8382   11.0943   18.8391 C   0  0  0  0  0  0  0  0  0  0  0  0
   47.2616   10.8337   21.1572 C   0  0  0  0  0  0  0  0  0  0  0  0
   48.7488    5.6320   18.3796 C   0  0  0  0  0  0  0  0  0  0  0  0
   47.4581    4.9105   18.0011 C   0  0  0  0  0  0  0  0  0  0  0  0
   47.6263    3.3999   17.8463 C   0  0  0  0  0  0  0  0  0  0  0  0
   48.5340    3.0065   16.6912 C   0  0  0  0  0  0  0  0  0  0  0  0
   47.9977    6.3275   19.5232 C   0  0  0  0  0  0  0  0  0  0  0  0
   48.3061    7.8640   17.7027 C   0  0  0  0  0  0  0  0  0  0  0  0
   48.4389    6.5659   18.2112 C   0  0  0  0  0  0  0  0  0  0  0  0
   48.1028    4.9914   20.1239 N   0  0  0  0  0  0  0  0  0  0  0  0
   48.7379    8.1545   16.3522 N   0  0  0  0  0  0  0  0  0  0  0  0
   46.7594    9.7432   20.5584 N   0  0  0  0  0  0  0  0  0  0  0  0
   47.3346    8.6568   19.7519 C   0  0  0  0  0  0  0  0  0  0  0  0
   47.7655    8.9184   18.4484 C   0  0  0  0  0  0  0  0  0  0  0  0
   47.4444    7.3677   20.2972 C   0  0  0  0  0  0  0  0  0  0  0  0
   47.7250    4.8504   21.2929 O   0  0  0  0  0  0  0  0  0  0  0  0
   47.9796    7.8130   15.4366 O   0  0  0  0  0  0  0  0  0  0  0  0
   46.6643   10.8576   20.0293 O   0  0  0  0  0  0  0  0  0  0  0  0
   48.5658    4.0853   19.4155 O   0  0  0  0  0  0  0  0  0  0  0  0
   49.7982    8.7813   16.2338 O   0  0  0  0  0  0  0  0  0  0  0  0
   46.4068    9.4722   21.7127 O   0  0  0  0  0  0  0  0  0  0  0  0
   49.0018    5.6157   17.4053 O   0  0  0  0  0  0  0  0  0  0  0  0
   48.6372    7.5444   19.1323 C   0  0  0  0  0  0  0  0  0  0  0  0
   48.2852    8.9228   19.5696 C   0  0  0  0  0  0  0  0  0  0  0  0
   49.3952    6.8149   19.7516 O   0  0  0  0  0  0  0  0  0  0  0  0
   48.8526    9.4077   20.7537 C   0  0  0  0  0  0  0  0  0  0  0  0
   47.3995    9.7378   18.8553 C   0  0  0  0  0  0  0  0  0  0  0  0
   47.7136   11.5347   20.4647 C   0  0  0  0  0  0  0  0  0  0  0  0
   48.0037    7.2357   17.9731 O   0  0  0  0  0  0  0  0  0  0  0  0
   47.3209   12.7734   20.9812 N   0  0  0  0  0  0  0  0  0  0  0  0
   48.5498   10.6965   21.2055 C   0  0  0  0  0  0  0  0  0  0  0  0
   47.1033   11.0262   19.3153 C   0  0  0  0  0  0  0  0  0  0  0  0
   48.2682    5.9244   17.4470 C   0  0  0  0  0  0  0  0  0  0  0  0
   47.3066    4.9139   18.0669 C   0  0  0  0  0  0  0  0  0  0  0  0
   47.4192    3.5153   17.4625 C   0  0  0  0  0  0  0  0  0  0  0  0
   48.7515    2.8399   17.7483 C   0  0  0  0  0  0  0  0  0  0  0  0
   48.3911    9.3115   17.7794 H   0  0  0  0  0  0  0  0  0  0  0  0
   47.3550    8.8319   21.9436 H   0  0  0  0  0  0  0  0  0  0  0  0
   46.6867   13.3476   20.9270 H   0  0  0  0  0  0  0  0  0  0  0  0
   47.0874   13.5313   19.2992 H   0  0  0  0  0  0  0  0  0  0  0  0
   48.0208   11.7259   17.9732 H   0  0  0  0  0  0  0  0  0  0  0  0
   46.9896   11.2572   22.1206 H   0  0  0  0  0  0  0  0  0  0  0  0
   49.4843    5.5513   17.5733 H   0  0  0  0  0  0  0  0  0  0  0  0
   49.2081    5.2021   19.2776 H   0  0  0  0  0  0  0  0  0  0  0  0
   47.0565    5.3439   17.0766 H   0  0  0  0  0  0  0  0  0  0  0  0
   46.6974    5.1030   18.7677 H   0  0  0  0  0  0  0  0  0  0  0  0
   46.6380    2.9550   17.6800 H   0  0  0  0  0  0  0  0  0  0  0  0
   48.0140    2.9708   18.7775 H   0  0  0  0  0  0  0  0  0  0  0  0
   49.5652    3.3277   16.8640 H   0  0  0  0  0  0  0  0  0  0  0  0
   48.1866    3.4461   15.7511 H   0  0  0  0  0  0  0  0  0  0  0  0
   48.5418    1.9180   16.5738 H   0  0  0  0  0  0  0  0  0  0  0  0
   47.6874    9.9136   18.0112 H   0  0  0  0  0  0  0  0  0  0  0  0
   47.1035    7.1759   21.3158 H   0  0  0  0  0  0  0  0  0  0  0  0
   49.0251    4.7355   17.8425 H   0  0  0  0  0  0  0  0  0  0  0  0
   49.5224    8.7808   21.3392 H   0  0  0  0  0  0  0  0  0  0  0  0
   46.9196    9.3828   17.9470 H   0  0  0  0  0  0  0  0  0  0  0  0
   46.9882   13.4281   20.2802 H   0  0  0  0  0  0  0  0  0  0  0  0
   47.9996   13.1935   21.6086 H   0  0  0  0  0  0  0  0  0  0  0  0
   48.9763   11.0389   22.1449 H   0  0  0  0  0  0  0  0  0  0  0  0
   46.3875   11.6308   18.7640 H   0  0  0  0  0  0  0  0  0  0  0  0
   49.3180    5.6510   17.6003 H   0  0  0  0  0  0  0  0  0  0  0  0
   48.1063    5.9809   16.3652 H   0  0  0  0  0  0  0  0  0  0  0  0
   47.4618    4.8664   19.1516 H   0  0  0  0  0  0  0  0  0  0  0  0
   46.2800    5.2782   17.9342 H   0  0  0  0  0  0  0  0  0  0  0  0
   47.2579    3.5621   16.3793 H   0  0  0  0  0  0  0  0  0  0  0  0
   46.6172    2.8920   17.8757 H   0  0  0  0  0  0  0  0  0  0  0  0
   48.7410    1.8132   17.3683 H   0  0  0  0  0  0  0  0  0  0  0  0
   48.9495    2.8005   18.8242 H   0  0  0  0  0  0  0  0  0  0  0  0
   49.5799    3.3640   17.2628 H   0  0  0  0  0  0  0  0  0  0  0  0
  2  1  1  0
  3  1  2  0
  4  2  2  0
  5  2  1  0
  6 10  1  0
  7  1  1  0
  8  6  1  0
  9  4  1  0
 10  5  2  0
 11  7  1  0
 12 11  1  0
 13 12  1  0
 14 13  1  0
  9  6  2  0
 16 17  1  0
 17 15  2  0
 18 15  1  0
 19 16  1  0
 20 21  1  0
 21 23  2  0
 22 21  1  0
 23 15  1  0
 24 18  1  0
 25 19  1  0
 26 20  1  0
 27 18  2  0
 28 19  2  0
 29 20  2  0
 30 17  1  0
 22 16  2  0
 32 31  1  0
 33 31  2  0
 34 32  2  0
 35 32  1  0
 36 40  1  0
 37 31  1  0
 38 36  1  0
 39 34  1  0
 40 35  2  0
 41 37  1  0
 42 41  1  0
 43 42  1  0
 44 43  1  0
 39 36  2  0
  4 45  1  0
  5 46  1  0
  8 47  1  0
  8 48  1  0
  9 49  1  0
 10 50  1  0
 11 51  1  0
 11 52  1  0
 12 53  1  0
 12 54  1  0
 13 55  1  0
 13 56  1  0
 14 57  1  0
 14 58  1  0
 14 59  1  0
 22 60  1  0
 23 61  1  0
 30 62  1  0
 34 63  1  0
 35 64  1  0
 38 65  1  0
 38 66  1  0
 39 67  1  0
 40 68  1  0
 41 69  1  0
 41 70  1  0
 42 71  1  0
 42 72  1  0
 43 73  1  0
 43 74  1  0
 44 75  1  0
 44 76  1  0
 44 77  1  0
M  CHG  6  18   1  19   1  20   1  24  -1  25  -1  26  -1
M  END
> <Uni-Dock RESULT> 
ENERGY=   -6.704  LOWER_BOUND=    4.871  UPPER_BOUND=    6.589
INTER + INTRA:          -6.704
INTER:                  -6.704
INTRA:                   0.000
UNBOUND:                 0.000

$$$$

     RDKit          3D

 77 77  0  0  0  0  0  0  0  0999 V2000
   47.1840    7.1820   12.5638 C   0  0  0  0  0  0  0  0  0  0  0  0
   45.8941    6.4618   12.3834 C   0  0  0  0  0  0  0  0  0  0  0  0
   47.4821    8.1929   11.9476 O   0  0  0  0  0  0  0  0  0  0  0  0
   45.5690    5.3050   13.1013 C   0  0  0  0  0  0  0  0  0  0  0  0
   44.9844    6.9572   11.4421 C   0  0  0  0  0  0  0  0  0  0  0  0
   43.4076    5.1914   11.9903 C   0  0  0  0  0  0  0  0  0  0  0  0
   47.9505    6.5613   13.4952 O   0  0  0  0  0  0  0  0  0  0  0  0
   42.2402    4.4813   11.6941 N   0  0  0  0  0  0  0  0  0  0  0  0
   44.3416    4.6669   12.8873 C   0  0  0  0  0  0  0  0  0  0  0  0
   43.7608    6.3117   11.2347 C   0  0  0  0  0  0  0  0  0  0  0  0
   49.2315    7.1606   13.7516 C   0  0  0  0  0  0  0  0  0  0  0  0
   49.0960    8.2309   14.8312 C   0  0  0  0  0  0  0  0  0  0  0  0
   50.4038    8.9601   15.1351 C   0  0  0  0  0  0  0  0  0  0  0  0
   51.4713    8.0626   15.7415 C   0  0  0  0  0  0  0  0  0  0  0  0
   48.0240    7.7710   13.0271 C   0  0  0  0  0  0  0  0  0  0  0  0
   47.3554    5.7678   14.1717 C   0  0  0  0  0  0  0  0  0  0  0  0
   48.3504    6.7124   13.8906 C   0  0  0  0  0  0  0  0  0  0  0  0
   49.0146    8.8008   12.6872 N   0  0  0  0  0  0  0  0  0  0  0  0
   47.6429    4.6651   15.0640 N   0  0  0  0  0  0  0  0  0  0  0  0
   44.4252    6.9978   12.1768 N   0  0  0  0  0  0  0  0  0  0  0  0
   45.7687    6.8977   12.7657 C   0  0  0  0  0  0  0  0  0  0  0  0
   46.0691    5.8358   13.6231 C   0  0  0  0  0  0  0  0  0  0  0  0
   46.7358    7.8693   12.4629 C   0  0  0  0  0  0  0  0  0  0  0  0
   48.6772    9.6912   11.8983 O   0  0  0  0  0  0  0  0  0  0  0  0
   47.6307    4.9087   16.2766 O   0  0  0  0  0  0  0  0  0  0  0  0
   43.6000    6.1301   12.4879 O   0  0  0  0  0  0  0  0  0  0  0  0
   50.1318    8.7106   13.2171 O   0  0  0  0  0  0  0  0  0  0  0  0
   47.8091    3.5575   14.5381 O   0  0  0  0  0  0  0  0  0  0  0  0
   44.2071    7.9435   11.4099 O   0  0  0  0  0  0  0  0  0  0  0  0
   49.5802    6.5382   14.4621 O   0  0  0  0  0  0  0  0  0  0  0  0
   47.5308    6.4425   12.8415 C   0  0  0  0  0  0  0  0  0  0  0  0
   46.1629    6.0463   12.4090 C   0  0  0  0  0  0  0  0  0  0  0  0
   48.4343    6.7015   12.0624 O   0  0  0  0  0  0  0  0  0  0  0  0
   45.8985    5.9673   11.0369 C   0  0  0  0  0  0  0  0  0  0  0  0
   45.1346    5.7707   13.3177 C   0  0  0  0  0  0  0  0  0  0  0  0
   43.6153    5.2671   11.4859 C   0  0  0  0  0  0  0  0  0  0  0  0
   47.6137    6.4693   14.1953 O   0  0  0  0  0  0  0  0  0  0  0  0
   42.3171    5.0193   11.0293 N   0  0  0  0  0  0  0  0  0  0  0  0
   44.6271    5.6009   10.5828 C   0  0  0  0  0  0  0  0  0  0  0  0
   43.8659    5.4044   12.8535 C   0  0  0  0  0  0  0  0  0  0  0  0
   48.8939    6.8376   14.7353 C   0  0  0  0  0  0  0  0  0  0  0  0
   48.9906    8.3567   14.8490 C   0  0  0  0  0  0  0  0  0  0  0  0
   50.2631    8.8361   15.5453 C   0  0  0  0  0  0  0  0  0  0  0  0
   51.5303    8.5367   14.7596 C   0  0  0  0  0  0  0  0  0  0  0  0
   46.2629    4.8782   13.8206 H   0  0  0  0  0  0  0  0  0  0  0  0
   45.2283    7.8401   10.8540 H   0  0  0  0  0  0  0  0  0  0  0  0
   41.5012    5.0490   11.2909 H   0  0  0  0  0  0  0  0  0  0  0  0
   41.9060    3.8962   12.4533 H   0  0  0  0  0  0  0  0  0  0  0  0
   44.1224    3.7511   13.4308 H   0  0  0  0  0  0  0  0  0  0  0  0
   43.0854    6.6951   10.4743 H   0  0  0  0  0  0  0  0  0  0  0  0
   49.8863    6.3525   14.0921 H   0  0  0  0  0  0  0  0  0  0  0  0
   49.6703    7.5631   12.8309 H   0  0  0  0  0  0  0  0  0  0  0  0
   48.6941    7.7767   15.7456 H   0  0  0  0  0  0  0  0  0  0  0  0
   48.3466    8.9682   14.5182 H   0  0  0  0  0  0  0  0  0  0  0  0
   50.1927    9.7746   15.8382 H   0  0  0  0  0  0  0  0  0  0  0  0
   50.7929    9.4237   14.2212 H   0  0  0  0  0  0  0  0  0  0  0  0
   51.8032    7.2986   15.0325 H   0  0  0  0  0  0  0  0  0  0  0  0
   51.0998    7.5628   16.6414 H   0  0  0  0  0  0  0  0  0  0  0  0
   52.3470    8.6571   16.0213 H   0  0  0  0  0  0  0  0  0  0  0  0
   45.3295    5.0736   13.8674 H   0  0  0  0  0  0  0  0  0  0  0  0
   46.4887    8.6942   11.7929 H   0  0  0  0  0  0  0  0  0  0  0  0
   50.1974    7.2658   14.2254 H   0  0  0  0  0  0  0  0  0  0  0  0
   46.6758    6.2039   10.3127 H   0  0  0  0  0  0  0  0  0  0  0  0
   45.2976    5.8496   14.3894 H   0  0  0  0  0  0  0  0  0  0  0  0
   41.7411    4.4962   11.6814 H   0  0  0  0  0  0  0  0  0  0  0  0
   42.2752    4.6393   10.0887 H   0  0  0  0  0  0  0  0  0  0  0  0
   44.4362    5.5786    9.5129 H   0  0  0  0  0  0  0  0  0  0  0  0
   43.0720    5.2270   13.5747 H   0  0  0  0  0  0  0  0  0  0  0  0
   49.7042    6.4109   14.1340 H   0  0  0  0  0  0  0  0  0  0  0  0
   48.9586    6.3825   15.7296 H   0  0  0  0  0  0  0  0  0  0  0  0
   48.9143    8.8119   13.8541 H   0  0  0  0  0  0  0  0  0  0  0  0
   48.1192    8.7239   15.4061 H   0  0  0  0  0  0  0  0  0  0  0  0
   50.3360    8.3858   16.5421 H   0  0  0  0  0  0  0  0  0  0  0  0
   50.1923    9.9205   15.6919 H   0  0  0  0  0  0  0  0  0  0  0  0
   52.3968    8.9785   15.2622 H   0  0  0  0  0  0  0  0  0  0  0  0
   51.4749    8.9557   13.7498 H   0  0  0  0  0  0  0  0  0  0  0  0
   51.7079    7.4605   14.6786 H   0  0  0  0  0  0  0  0  0  0  0  0
  2  1  1  0
  3  1  2  0
  4  2  2  0
  5  2  1  0
  6 10  1  0
  7  1  1  0
  8  6  1  0
  9  4  1  0
 10  5  2  0
 11  7  1  0
 12 11  1  0
 13 12  1  0
 14 13  1  0
  9  6  2  0
 16 17  1  0
 17 15  2  0
 18 15  1  0
 19 16  1  0
 20 21  1  0
 21 23  2  0
 22 21  1  0
 23 15  1  0
 24 18  1  0
 25 19  1  0
 26 20  1  0
 27 18  2  0
 28 19  2  0
 29 20  2  0
 30 17  1  0
 22 16  2  0
 32 31  1  0
 33 31  2  0
 34 32  2  0
 35 32  1  0
 36 40  1  0
 37 31  1  0
 38 36  1  0
 39 34  1  0
 40 35  2  0
 41 37  1  0
 42 41  1  0
 43 42  1  0
 44 43  1  0
 39 36  2  0
  4 45  1  0
  5 46  1  0
  8 47  1  0
  8 48  1  0
  9 49  1  0
 10 50  1  0
 11 51  1  0
 11 52  1  0
 12 53  1  0
 12 54  1  0
 13 55  1  0
 13 56  1  0
 14 57  1  0
 14 58  1  0
 14 59  1  0
 22 60  1  0
 23 61  1  0
 30 62  1  0
 34 63  1  0
 35 64  1  0
 38 65  1  0
 38 66  1  0
 39 67  1  0
 40 68  1  0
 41 69  1  0
 41 70  1  0
 42 71  1  0
 42 72  1  0
 43 73  1  0
 43 74  1  0
 44 75  1  0
 44 76  1  0
 44 77  1  0
M  CHG  6  18   1  19   1  20   1  24  -1  25  -1  26  -1
M  END
> <Uni-Dock RESULT> 
ENERGY=   -6.298  LOWER_BOUND=    1.636  UPPER_BOUND=    6.116
INTER + INTRA:          -6.298
INTER:                  -6.298
INTRA:                   0.000
UNBOUND:                 0.000

$$$$

     RDKit          3D

 77 77  0  0  0  0  0  0  0  0999 V2000
   44.7838    9.3686   11.8704 C   0  0  0  0  0  0  0  0  0  0  0  0
   44.1527   10.4830   11.1122 C   0  0  0  0  0  0  0  0  0  0  0  0
   44.2634    8.2738   12.0153 O   0  0  0  0  0  0  0  0  0  0  0  0
   44.7664   11.7311   10.9547 C   0  0  0  0  0  0  0  0  0  0  0  0
   42.8864   10.2717   10.5547 C   0  0  0  0  0  0  0  0  0  0  0  0
   42.8855   12.5179    9.6275 C   0  0  0  0  0  0  0  0  0  0  0  0
   45.9928    9.7467   12.3557 O   0  0  0  0  0  0  0  0  0  0  0  0
   42.1979   13.5707    9.0160 N   0  0  0  0  0  0  0  0  0  0  0  0
   44.1236   12.7443   10.2339 C   0  0  0  0  0  0  0  0  0  0  0  0
   42.2518   11.2910    9.8369 C   0  0  0  0  0  0  0  0  0  0  0  0
   46.6992    8.7539   13.1183 C   0  0  0  0  0  0  0  0  0  0  0  0
   47.5409    7.8867   12.1860 C   0  0  0  0  0  0  0  0  0  0  0  0
   48.2909    6.7670   12.9058 C   0  0  0  0  0  0  0  0  0  0  0  0
   49.3488    7.2716   13.8748 C   0  0  0  0  0  0  0  0  0  0  0  0
   45.4999    8.5574   12.1809 C   0  0  0  0  0  0  0  0  0  0  0  0
   46.4301   10.7487   11.8594 C   0  0  0  0  0  0  0  0  0  0  0  0
   46.5032    9.4943   12.4780 C   0  0  0  0  0  0  0  0  0  0  0  0
   45.5110    7.2208   12.7896 N   0  0  0  0  0  0  0  0  0  0  0  0
   47.4473   11.7427   12.1276 N   0  0  0  0  0  0  0  0  0  0  0  0
   43.3244   10.4880    9.7700 N   0  0  0  0  0  0  0  0  0  0  0  0
   44.4147   10.1503   10.6968 C   0  0  0  0  0  0  0  0  0  0  0  0
   45.4022   11.0991   10.9757 C   0  0  0  0  0  0  0  0  0  0  0  0
   44.4547    8.8790   11.2912 C   0  0  0  0  0  0  0  0  0  0  0  0
   44.5846    6.4502   12.5123 O   0  0  0  0  0  0  0  0  0  0  0  0
   48.5264   11.6125   11.5372 O   0  0  0  0  0  0  0  0  0  0  0  0
   43.3414   11.6128    9.2550 O   0  0  0  0  0  0  0  0  0  0  0  0
   46.4548    6.9495   13.5464 O   0  0  0  0  0  0  0  0  0  0  0  0
   47.1250   12.6760   12.8733 O   0  0  0  0  0  0  0  0  0  0  0  0
   42.4620    9.6253    9.5646 O   0  0  0  0  0  0  0  0  0  0  0  0
   47.5374    9.2647   13.3423 O   0  0  0  0  0  0  0  0  0  0  0  0
   45.2368    9.9562   12.3106 C   0  0  0  0  0  0  0  0  0  0  0  0
   44.3186   10.7770   11.4750 C   0  0  0  0  0  0  0  0  0  0  0  0
   44.8745    9.3353   13.2974 O   0  0  0  0  0  0  0  0  0  0  0  0
   42.9687   10.8396   11.8393 C   0  0  0  0  0  0  0  0  0  0  0  0
   44.7494   11.4674   10.3362 C   0  0  0  0  0  0  0  0  0  0  0  0
   42.5048   12.3353    9.9811 C   0  0  0  0  0  0  0  0  0  0  0  0
   46.5003   10.0051   11.8194 O   0  0  0  0  0  0  0  0  0  0  0  0
   41.5811   12.9913    9.1615 N   0  0  0  0  0  0  0  0  0  0  0  0
   42.0677   11.5969   11.0831 C   0  0  0  0  0  0  0  0  0  0  0  0
   43.8403   12.2228    9.5865 C   0  0  0  0  0  0  0  0  0  0  0  0
   47.4830    9.2496   12.5473 C   0  0  0  0  0  0  0  0  0  0  0  0
   47.5042    7.8081   12.0455 C   0  0  0  0  0  0  0  0  0  0  0  0
   48.6170    6.9637   12.6640 C   0  0  0  0  0  0  0  0  0  0  0  0
   48.4413    6.7339   14.1570 C   0  0  0  0  0  0  0  0  0  0  0  0
   45.7375   11.9380   11.3968 H   0  0  0  0  0  0  0  0  0  0  0  0
   42.3797    9.3176   10.6876 H   0  0  0  0  0  0  0  0  0  0  0  0
   41.4850   13.2726    8.3574 H   0  0  0  0  0  0  0  0  0  0  0  0
   42.7998   14.2923    8.6321 H   0  0  0  0  0  0  0  0  0  0  0  0
   44.6024   13.7170   10.1515 H   0  0  0  0  0  0  0  0  0  0  0  0
   41.2543   11.1149    9.4424 H   0  0  0  0  0  0  0  0  0  0  0  0
   47.3401    9.3011   13.8164 H   0  0  0  0  0  0  0  0  0  0  0  0
   46.0076    8.1530   13.7206 H   0  0  0  0  0  0  0  0  0  0  0  0
   48.2459    8.5222   11.6355 H   0  0  0  0  0  0  0  0  0  0  0  0
   46.8922    7.4411   11.4219 H   0  0  0  0  0  0  0  0  0  0  0  0
   48.7797    6.1362   12.1537 H   0  0  0  0  0  0  0  0  0  0  0  0
   47.5804    6.1273   13.4419 H   0  0  0  0  0  0  0  0  0  0  0  0
   48.8998    7.8120   14.7132 H   0  0  0  0  0  0  0  0  0  0  0  0
   50.0567    7.9378   13.3720 H   0  0  0  0  0  0  0  0  0  0  0  0
   49.9119    6.4287   14.2882 H   0  0  0  0  0  0  0  0  0  0  0  0
   45.3848   12.0901   10.5227 H   0  0  0  0  0  0  0  0  0  0  0  0
   43.6784    8.1467   11.0646 H   0  0  0  0  0  0  0  0  0  0  0  0
   47.5148    8.3498   13.7014 H   0  0  0  0  0  0  0  0  0  0  0  0
   42.6069   10.2885   12.7053 H   0  0  0  0  0  0  0  0  0  0  0  0
   45.7847   11.4180   10.0090 H   0  0  0  0  0  0  0  0  0  0  0  0
   41.9823   13.7326    8.5956 H   0  0  0  0  0  0  0  0  0  0  0  0
   40.7386   13.2885    9.6438 H   0  0  0  0  0  0  0  0  0  0  0  0
   41.0182   11.6036   11.3661 H   0  0  0  0  0  0  0  0  0  0  0  0
   44.1880   12.7245    8.6868 H   0  0  0  0  0  0  0  0  0  0  0  0
   47.2995    9.3144   13.6254 H   0  0  0  0  0  0  0  0  0  0  0  0
   48.4506    9.7267   12.3575 H   0  0  0  0  0  0  0  0  0  0  0  0
   46.5313    7.3350   12.2257 H   0  0  0  0  0  0  0  0  0  0  0  0
   47.6273    7.8171   10.9551 H   0  0  0  0  0  0  0  0  0  0  0  0
   49.5898    7.4336   12.4784 H   0  0  0  0  0  0  0  0  0  0  0  0
   48.6348    5.9893   12.1614 H   0  0  0  0  0  0  0  0  0  0  0  0
   49.2157    6.0535   14.5258 H   0  0  0  0  0  0  0  0  0  0  0  0
   47.4663    6.2859   14.3737 H   0  0  0  0  0  0  0  0  0  0  0  0
   48.5260    7.6679   14.7199 H   0  0  0  0  0  0  0  0  0  0  0  0
  2  1  1  0
  3  1  2  0
  4  2  2  0
  5  2  1  0
  6 10  1  0
  7  1  1  0
  8  6  1  0
  9  4  1  0
 10  5  2  0
 11  7  1  0
 12 11  1  0
 13 12  1  0
 14 13  1  0
  9  6  2  0
 16 17  1  0
 17 15  2  0
 18 15  1  0
 19 16  1  0
 20 21  1  0
 21 23  2  0
 22 21  1  0
 23 15  1  0
 24 18  1  0
 25 19  1  0
 26 20  1  0
 27 18  2  0
 28 19  2  0
 29 20  2  0
 30 17  1  0
 22 16  2  0
 32 31  1  0
 33 31  2  0
 34 32  2  0
 35 32  1  0
 36 40  1  0
 37 31  1  0
 38 36  1  0
 39 34  1  0
 40 35  2  0
 41 37  1  0
 42 41  1  0
 43 42  1  0
 44 43  1  0
 39 36  2  0
  4 45  1  0
  5 46  1  0
  8 47  1  0
  8 48  1  0
  9 49  1  0
 10 50  1  0
 11 51  1  0
 11 52  1  0
 12 53  1  0
 12 54  1  0
 13 55  1  0
 13 56  1  0
 14 57  1  0
 14 58  1  0
 14 59  1  0
 22 60  1  0
 23 61  1  0
 30 62  1  0
 34 63  1  0
 35 64  1  0
 38 65  1  0
 38 66  1  0
 39 67  1  0
 40 68  1  0
 41 69  1  0
 41 70  1  0
 42 71  1  0
 42 72  1  0
 43 73  1  0
 43 74  1  0
 44 75  1  0
 44 76  1  0
 44 77  1  0
M  CHG  6  18   1  19   1  20   1  24  -1  25  -1  26  -1
M  END
> <Uni-Dock RESULT> 
ENERGY=   -5.998  LOWER_BOUND=    3.427  UPPER_BOUND=    6.289
INTER + INTRA:          -5.998
INTER:                  -5.998
INTRA:                   0.000
UNBOUND:                 0.000

$$$$

     RDKit          3D

 77 77  0  0  0  0  0  0  0  0999 V2000
   47.7502    7.5247   19.5172 C   0  0  0  0  0  0  0  0  0  0  0  0
   48.3117    6.3479   18.7996 C   0  0  0  0  0  0  0  0  0  0  0  0
   47.3339    7.4778   20.6639 O   0  0  0  0  0  0  0  0  0  0  0  0
   48.7868    6.4219   17.4851 C   0  0  0  0  0  0  0  0  0  0  0  0
   48.3440    5.1180   19.4671 C   0  0  0  0  0  0  0  0  0  0  0  0
   49.3876    4.0651   17.5417 C   0  0  0  0  0  0  0  0  0  0  0  0
   47.7775    8.6246   18.7237 O   0  0  0  0  0  0  0  0  0  0  0  0
   49.7874    2.9063   16.8691 N   0  0  0  0  0  0  0  0  0  0  0  0
   49.3010    5.2807   16.8584 C   0  0  0  0  0  0  0  0  0  0  0  0
   48.8590    3.9830   18.8319 C   0  0  0  0  0  0  0  0  0  0  0  0
   47.2497    9.8286   19.3049 C   0  0  0  0  0  0  0  0  0  0  0  0
   48.3515   10.5640   20.0631 C   0  0  0  0  0  0  0  0  0  0  0  0
   47.8689   11.8354   20.7595 C   0  0  0  0  0  0  0  0  0  0  0  0
   47.4031   12.9151   19.7950 C   0  0  0  0  0  0  0  0  0  0  0  0
   47.6596    8.5307   20.0142 C   0  0  0  0  0  0  0  0  0  0  0  0
   48.4809    8.5157   17.7568 C   0  0  0  0  0  0  0  0  0  0  0  0
   47.8315    9.2005   18.7916 C   0  0  0  0  0  0  0  0  0  0  0  0
   46.9897    9.1849   21.1457 N   0  0  0  0  0  0  0  0  0  0  0  0
   48.6894    9.1693   16.4825 N   0  0  0  0  0  0  0  0  0  0  0  0
   49.2498    5.1803   19.2941 N   0  0  0  0  0  0  0  0  0  0  0  0
   48.7654    6.5575   19.1192 C   0  0  0  0  0  0  0  0  0  0  0  0
   48.9494    7.2034   17.8936 C   0  0  0  0  0  0  0  0  0  0  0  0
   48.1248    7.2108   20.1840 C   0  0  0  0  0  0  0  0  0  0  0  0
   46.8415    8.5339   22.1864 O   0  0  0  0  0  0  0  0  0  0  0  0
   49.6230    9.9778   16.4144 O   0  0  0  0  0  0  0  0  0  0  0  0
   49.8258    4.6521   18.3349 O   0  0  0  0  0  0  0  0  0  0  0  0
   46.6143   10.3554   20.9835 O   0  0  0  0  0  0  0  0  0  0  0  0
   47.9572    8.8113   15.5514 O   0  0  0  0  0  0  0  0  0  0  0  0
   49.0510    4.6400   20.3889 O   0  0  0  0  0  0  0  0  0  0  0  0
   47.3933   10.4716   18.5436 O   0  0  0  0  0  0  0  0  0  0  0  0
   47.5580    7.8705   18.7506 C   0  0  0  0  0  0  0  0  0  0  0  0
   48.0612    6.5131   18.4052 C   0  0  0  0  0  0  0  0  0  0  0  0
   46.4595    8.0761   19.2421 O   0  0  0  0  0  0  0  0  0  0  0  0
   47.2317    5.4145   18.6581 C   0  0  0  0  0  0  0  0  0  0  0  0
   49.3314    6.2958   17.8590 C   0  0  0  0  0  0  0  0  0  0  0  0
   48.9048    3.9033   17.7516 C   0  0  0  0  0  0  0  0  0  0  0  0
   48.4824    8.8143   18.4425 O   0  0  0  0  0  0  0  0  0  0  0  0
   49.3776    2.6015   17.5594 N   0  0  0  0  0  0  0  0  0  0  0  0
   47.6624    4.1193   18.3520 C   0  0  0  0  0  0  0  0  0  0  0  0
   49.7531    4.9961   17.5556 C   0  0  0  0  0  0  0  0  0  0  0  0
   48.1082   10.1722   18.7295 C   0  0  0  0  0  0  0  0  0  0  0  0
   48.4616   10.5125   20.1749 C   0  0  0  0  0  0  0  0  0  0  0  0
   48.2292   11.9802   20.5298 C   0  0  0  0  0  0  0  0  0  0  0  0
   46.7630   12.3830   20.5018 C   0  0  0  0  0  0  0  0  0  0  0  0
   48.7522    7.3546   16.9283 H   0  0  0  0  0  0  0  0  0  0  0  0
   47.9555    5.0323   20.4802 H   0  0  0  0  0  0  0  0  0  0  0  0
   50.1100    2.1629   17.4808 H   0  0  0  0  0  0  0  0  0  0  0  0
   50.4243    3.0734   16.0965 H   0  0  0  0  0  0  0  0  0  0  0  0
   49.6340    5.3518   15.8259 H   0  0  0  0  0  0  0  0  0  0  0  0
   48.8421    3.0320   19.3579 H   0  0  0  0  0  0  0  0  0  0  0  0
   46.8846   10.4375   18.4721 H   0  0  0  0  0  0  0  0  0  0  0  0
   46.3875    9.6120   19.9467 H   0  0  0  0  0  0  0  0  0  0  0  0
   49.1735   10.7976   19.3748 H   0  0  0  0  0  0  0  0  0  0  0  0
   48.7833    9.8929   20.8158 H   0  0  0  0  0  0  0  0  0  0  0  0
   48.6933   12.2373   21.3605 H   0  0  0  0  0  0  0  0  0  0  0  0
   47.0579   11.5938   21.4561 H   0  0  0  0  0  0  0  0  0  0  0  0
   46.5060   12.6066   19.2505 H   0  0  0  0  0  0  0  0  0  0  0  0
   48.1845   13.1562   19.0678 H   0  0  0  0  0  0  0  0  0  0  0  0
   47.1582   13.8295   20.3449 H   0  0  0  0  0  0  0  0  0  0  0  0
   49.4442    6.7096   17.0576 H   0  0  0  0  0  0  0  0  0  0  0  0
   47.9882    6.6961   21.1363 H   0  0  0  0  0  0  0  0  0  0  0  0
   46.9769   10.8741   19.3379 H   0  0  0  0  0  0  0  0  0  0  0  0
   46.2510    5.5582   19.1078 H   0  0  0  0  0  0  0  0  0  0  0  0
   50.0118    7.1234   17.6758 H   0  0  0  0  0  0  0  0  0  0  0  0
   50.1105    2.5256   16.8611 H   0  0  0  0  0  0  0  0  0  0  0  0
   48.6451    1.9114   17.4248 H   0  0  0  0  0  0  0  0  0  0  0  0
   47.0142    3.2792   18.5879 H   0  0  0  0  0  0  0  0  0  0  0  0
   50.7557    4.8456   17.1630 H   0  0  0  0  0  0  0  0  0  0  0  0
   47.0476   10.3355   18.5088 H   0  0  0  0  0  0  0  0  0  0  0  0
   48.6798   10.8075   18.0443 H   0  0  0  0  0  0  0  0  0  0  0  0
   47.8971    9.8681   20.8597 H   0  0  0  0  0  0  0  0  0  0  0  0
   49.5174   10.2670   20.3460 H   0  0  0  0  0  0  0  0  0  0  0  0
   48.7983   12.6240   19.8491 H   0  0  0  0  0  0  0  0  0  0  0  0
   48.6207   12.1607   21.5381 H   0  0  0  0  0  0  0  0  0  0  0  0
   46.6507   13.4155   20.8479 H   0  0  0  0  0  0  0  0  0  0  0  0
   46.1661   11.7399   21.1564 H   0  0  0  0  0  0  0  0  0  0  0  0
   46.3501   12.3262   19.4905 H   0  0  0  0  0  0  0  0  0  0  0  0
  2  1  1  0
  3  1  2  0
  4  2  2  0
  5  2  1  0
  6 10  1  0
  7  1  1  0
  8  6  1  0
  9  4  1  0
 10  5  2  0
 11  7  1  0
 12 11  1  0
 13 12  1  0
 14 13  1  0
  9  6  2  0
 16 17  1  0
 17 15  2  0
 18 15  1  0
 19 16  1  0
 20 21  1  0
 21 23  2  0
 22 21  1  0
 23 15  1  0
 24 18  1  0
 25 19  1  0
 26 20  1  0
 27 18  2  0
 28 19  2  0
 29 20  2  0
 30 17  1  0
 22 16  2  0
 32 31  1  0
 33 31  2  0
 34 32  2  0
 35 32  1  0
 36 40  1  0
 37 31  1  0
 38 36  1  0
 39 34  1  0
 40 35  2  0
 41 37  1  0
 42 41  1  0
 43 42  1  0
 44 43  1  0
 39 36  2  0
  4 45  1  0
  5 46  1  0
  8 47  1  0
  8 48  1  0
  9 49  1  0
 10 50  1  0
 11 51  1  0
 11 52  1  0
 12 53  1  0
 12 54  1  0
 13 55  1  0
 13 56  1  0
 14 57  1  0
 14 58  1  0
 14 59  1  0
 22 60  1  0
 23 61  1  0
 30 62  1  0
 34 63  1  0
 35 64  1  0
 38 65  1  0
 38 66  1  0
 39 67  1  0
 40 68  1  0
 41 69  1  0
 41 70  1  0
 42 71  1  0
 42 72  1  0
 43 73  1  0
 43 74  1  0
 44 75  1  0
 44 76  1  0
 44 77  1  0
M  CHG  6  18   1  19   1  20   1  24  -1  25  -1  26  -1
M  END
> <Uni-Dock RESULT> 
ENERGY=   -5.653  LOWER_BOUND=    4.853  UPPER_BOUND=    7.417
INTER + INTRA:          -5.653
INTER:                  -5.653
INTRA:                   0.000
UNBOUND:                 0.000

$$$$

     RDKit          3D

 77 77  0  0  0  0  0  0  0  0999 V2000
   48.0001    7.7993   19.0634 C   0  0  0  0  0  0  0  0  0  0  0  0
   48.0549    8.7546   20.2034 C   0  0  0  0  0  0  0  0  0  0  0  0
   48.1423    8.1337   17.8979 O   0  0  0  0  0  0  0  0  0  0  0  0
   47.8920    8.3517   21.5339 C   0  0  0  0  0  0  0  0  0  0  0  0
   48.2586   10.1106   19.9226 C   0  0  0  0  0  0  0  0  0  0  0  0
   48.2099   10.6409   22.2936 C   0  0  0  0  0  0  0  0  0  0  0  0
   47.7793    6.5372   19.5091 O   0  0  0  0  0  0  0  0  0  0  0  0
   48.1434   11.5920   23.3163 N   0  0  0  0  0  0  0  0  0  0  0  0
   47.9495    9.2956   22.5660 C   0  0  0  0  0  0  0  0  0  0  0  0
   48.3135   11.0463   20.9610 C   0  0  0  0  0  0  0  0  0  0  0  0
   47.6957    5.5215   18.4956 C   0  0  0  0  0  0  0  0  0  0  0  0
   49.0894    4.9808   18.1878 C   0  0  0  0  0  0  0  0  0  0  0  0
   49.1047    3.9276   17.0811 C   0  0  0  0  0  0  0  0  0  0  0  0
   48.3674    2.6498   17.4505 C   0  0  0  0  0  0  0  0  0  0  0  0
   48.2461    6.9485   18.3685 C   0  0  0  0  0  0  0  0  0  0  0  0
   47.9567    6.3943   20.6879 C   0  0  0  0  0  0  0  0  0  0  0  0
   47.9165    5.9953   19.3460 C   0  0  0  0  0  0  0  0  0  0  0  0
   48.2282    6.6033   16.9411 N   0  0  0  0  0  0  0  0  0  0  0  0
   47.6346    5.4434   21.7304 N   0  0  0  0  0  0  0  0  0  0  0  0
   48.9905    9.9950   20.4751 N   0  0  0  0  0  0  0  0  0  0  0  0
   48.6227    8.6241   20.0913 C   0  0  0  0  0  0  0  0  0  0  0  0
   48.2999    7.6930   21.0824 C   0  0  0  0  0  0  0  0  0  0  0  0
   48.6006    8.2629   18.7349 C   0  0  0  0  0  0  0  0  0  0  0  0
   48.4989    7.4932   16.1264 O   0  0  0  0  0  0  0  0  0  0  0  0
   48.5146    4.6302   22.0375 O   0  0  0  0  0  0  0  0  0  0  0  0
   49.0156   10.2619   21.6829 O   0  0  0  0  0  0  0  0  0  0  0  0
   47.9416    5.4343   16.6434 O   0  0  0  0  0  0  0  0  0  0  0  0
   46.5294    5.5705   22.2720 O   0  0  0  0  0  0  0  0  0  0  0  0
   49.2520   10.7916   19.5656 O   0  0  0  0  0  0  0  0  0  0  0  0
   47.5459    4.7085   19.0703 O   0  0  0  0  0  0  0  0  0  0  0  0
   47.5197    7.2775   19.5546 C   0  0  0  0  0  0  0  0  0  0  0  0
   47.6720    8.5005   20.3890 C   0  0  0  0  0  0  0  0  0  0  0  0
   46.7876    7.2150   18.5796 O   0  0  0  0  0  0  0  0  0  0  0  0
   46.9379    9.6389   20.0366 C   0  0  0  0  0  0  0  0  0  0  0  0
   48.5306    8.5586   21.4928 C   0  0  0  0  0  0  0  0  0  0  0  0
   47.8596   10.8562   21.9271 C   0  0  0  0  0  0  0  0  0  0  0  0
   48.2973    6.2742   20.0329 O   0  0  0  0  0  0  0  0  0  0  0  0
   48.0596   12.0635   22.6035 N   0  0  0  0  0  0  0  0  0  0  0  0
   47.0499   10.8124   20.7899 C   0  0  0  0  0  0  0  0  0  0  0  0
   48.6353    9.7372   22.2406 C   0  0  0  0  0  0  0  0  0  0  0  0
   48.2331    5.0346   19.3081 C   0  0  0  0  0  0  0  0  0  0  0  0
   49.2322    5.0568   18.1542 C   0  0  0  0  0  0  0  0  0  0  0  0
   49.3357    3.7256   17.4118 C   0  0  0  0  0  0  0  0  0  0  0  0
   48.0636    3.3487   16.6685 C   0  0  0  0  0  0  0  0  0  0  0  0
   47.7058    7.3109   21.7856 H   0  0  0  0  0  0  0  0  0  0  0  0
   48.3614   10.4492   18.8933 H   0  0  0  0  0  0  0  0  0  0  0  0
   48.6291   12.4590   23.1077 H   0  0  0  0  0  0  0  0  0  0  0  0
   48.3775   11.2306   24.2354 H   0  0  0  0  0  0  0  0  0  0  0  0
   47.7872    8.9670   23.5897 H   0  0  0  0  0  0  0  0  0  0  0  0
   48.4384   12.0979   20.7162 H   0  0  0  0  0  0  0  0  0  0  0  0
   47.0589    4.7309   18.9045 H   0  0  0  0  0  0  0  0  0  0  0  0
   47.1978    5.9017   17.5958 H   0  0  0  0  0  0  0  0  0  0  0  0
   49.5325    4.5732   19.1051 H   0  0  0  0  0  0  0  0  0  0  0  0
   49.7428    5.8110   17.8924 H   0  0  0  0  0  0  0  0  0  0  0  0
   50.1476    3.6753   16.8553 H   0  0  0  0  0  0  0  0  0  0  0  0
   48.6743    4.3449   16.1635 H   0  0  0  0  0  0  0  0  0  0  0  0
   47.2950    2.8266   17.5732 H   0  0  0  0  0  0  0  0  0  0  0  0
   48.7578    2.2257   18.3808 H   0  0  0  0  0  0  0  0  0  0  0  0
   48.4912    1.9030   16.6596 H   0  0  0  0  0  0  0  0  0  0  0  0
   48.3121    7.9582   22.1393 H   0  0  0  0  0  0  0  0  0  0  0  0
   48.8556    8.9986   17.9706 H   0  0  0  0  0  0  0  0  0  0  0  0
   47.5753    4.5204   18.1058 H   0  0  0  0  0  0  0  0  0  0  0  0
   46.2851    9.6244   19.1659 H   0  0  0  0  0  0  0  0  0  0  0  0
   49.1361    7.7021   21.7776 H   0  0  0  0  0  0  0  0  0  0  0  0
   48.3876   11.9545   23.5580 H   0  0  0  0  0  0  0  0  0  0  0  0
   47.2788   12.7091   22.5364 H   0  0  0  0  0  0  0  0  0  0  0  0
   46.4954   11.6936   20.4776 H   0  0  0  0  0  0  0  0  0  0  0  0
   49.3326    9.7721   23.0740 H   0  0  0  0  0  0  0  0  0  0  0  0
   47.2096    4.8365   18.9712 H   0  0  0  0  0  0  0  0  0  0  0  0
   48.4965    4.2418   20.0166 H   0  0  0  0  0  0  0  0  0  0  0  0
   48.9741    5.8582   17.4513 H   0  0  0  0  0  0  0  0  0  0  0  0
   50.2207    5.3223   18.5500 H   0  0  0  0  0  0  0  0  0  0  0  0
   49.5997    2.9259   18.1135 H   0  0  0  0  0  0  0  0  0  0  0  0
   50.1553    3.7943   16.6867 H   0  0  0  0  0  0  0  0  0  0  0  0
   48.2252    2.4353   16.0870 H   0  0  0  0  0  0  0  0  0  0  0  0
   47.7632    4.1417   15.9762 H   0  0  0  0  0  0  0  0  0  0  0  0
   47.2361    3.1598   17.3585 H   0  0  0  0  0  0  0  0  0  0  0  0
  2  1  1  0
  3  1  2  0
  4  2  2  0
  5  2  1  0
  6 10  1  0
  7  1  1  0
  8  6  1  0
  9  4  1  0
 10  5  2  0
 11  7  1  0
 12 11  1  0
 13 12  1  0
 14 13  1  0
  9  6  2  0
 16 17  1  0
 17 15  2  0
 18 15  1  0
 19 16  1  0
 20 21  1  0
 21 23  2  0
 22 21  1  0
 23 15  1  0
 24 18  1  0
 25 19  1  0
 26 20  1  0
 27 18  2  0
 28 19  2  0
 29 20  2  0
 30 17  1  0
 22 16  2  0
 32 31  1  0
 33 31  2  0
 34 32  2  0
 35 32  1  0
 36 40  1  0
 37 31  1  0
 38 36  1  0
 39 34  1  0
 40 35  2  0
 41 37  1  0
 42 41  1  0
 43 42  1  0
 44 43  1  0
 39 36  2  0
  4 45  1  0
  5 46  1  0
  8 47  1  0
  8 48  1  0
  9 49  1  0
 10 50  1  0
 11 51  1  0
 11 52  1  0
 12 53  1  0
 12 54  1  0
 13 55  1  0
 13 56  1  0
 14 57  1  0
 14 58  1  0
 14 59  1  0
 22 60  1  0
 23 61  1  0
 30 62  1  0
 34 63  1  0
 35 64  1  0
 38 65  1  0
 38 66  1  0
 39 67  1  0
 40 68  1  0
 41 69  1  0
 41 70  1  0
 42 71  1  0
 42 72  1  0
 43 73  1  0
 43 74  1  0
 44 75  1  0
 44 76  1  0
 44 77  1  0
M  CHG  6  18   1  19   1  20   1  24  -1  25  -1  26  -1
M  END
> <Uni-Dock RESULT> 
ENERGY=   -5.611  LOWER_BOUND=    5.522  UPPER_BOUND=    7.398
INTER + INTRA:          -5.611
INTER:                  -5.611
INTRA:                   0.000
UNBOUND:                 0.000

$$$$

     RDKit          3D

 77 77  0  0  0  0  0  0  0  0999 V2000
   48.3353    9.1317   18.9462 C   0  0  0  0  0  0  0  0  0  0  0  0
   48.1657    8.0914   19.9970 C   0  0  0  0  0  0  0  0  0  0  0  0
   48.2090    8.9092   17.7525 O   0  0  0  0  0  0  0  0  0  0  0  0
   48.3120    8.3663   21.3616 C   0  0  0  0  0  0  0  0  0  0  0  0
   47.8671    6.7847   19.5939 C   0  0  0  0  0  0  0  0  0  0  0  0
   47.7899    6.0544   21.9103 C   0  0  0  0  0  0  0  0  0  0  0  0
   48.6377   10.3298   19.5059 O   0  0  0  0  0  0  0  0  0  0  0  0
   47.7457    5.0182   22.8480 N   0  0  0  0  0  0  0  0  0  0  0  0
   48.1445    7.3466   22.3058 C   0  0  0  0  0  0  0  0  0  0  0  0
   47.7026    5.7723   20.5451 C   0  0  0  0  0  0  0  0  0  0  0  0
   48.8362   11.4173   18.5872 C   0  0  0  0  0  0  0  0  0  0  0  0
   47.5006   12.0926   18.2875 C   0  0  0  0  0  0  0  0  0  0  0  0
   47.6068   13.2330   17.2764 C   0  0  0  0  0  0  0  0  0  0  0  0
   48.4277   14.4116   17.7764 C   0  0  0  0  0  0  0  0  0  0  0  0
   48.1811   10.0551   18.3210 C   0  0  0  0  0  0  0  0  0  0  0  0
   48.4301   10.3868   20.6871 C   0  0  0  0  0  0  0  0  0  0  0  0
   48.5490   10.8929   19.3867 C   0  0  0  0  0  0  0  0  0  0  0  0
   48.2767   10.5167   16.9300 N   0  0  0  0  0  0  0  0  0  0  0  0
   48.7880   11.2174   21.8170 N   0  0  0  0  0  0  0  0  0  0  0  0
   47.1272    6.9120   20.1329 N   0  0  0  0  0  0  0  0  0  0  0  0
   47.6141    8.2762   19.8804 C   0  0  0  0  0  0  0  0  0  0  0  0
   47.9729    9.0914   20.9573 C   0  0  0  0  0  0  0  0  0  0  0  0
   47.7126    8.7474   18.5616 C   0  0  0  0  0  0  0  0  0  0  0  0
   47.9667    9.7233   16.0337 O   0  0  0  0  0  0  0  0  0  0  0  0
   47.9637   12.0702   22.1680 O   0  0  0  0  0  0  0  0  0  0  0  0
   47.0384    6.5472   21.3118 O   0  0  0  0  0  0  0  0  0  0  0  0
   48.6638   11.6796   16.7432 O   0  0  0  0  0  0  0  0  0  0  0  0
   49.8600   10.9565   22.3771 O   0  0  0  0  0  0  0  0  0  0  0  0
   46.8370    6.2185   19.1506 O   0  0  0  0  0  0  0  0  0  0  0  0
   49.0283   12.1642   19.2344 O   0  0  0  0  0  0  0  0  0  0  0  0
   48.8371    9.5698   19.4944 C   0  0  0  0  0  0  0  0  0  0  0  0
   48.5603    8.2972   20.2148 C   0  0  0  0  0  0  0  0  0  0  0  0
   49.6060    9.6550   18.5501 O   0  0  0  0  0  0  0  0  0  0  0  0
   49.2156    7.1370   19.7863 C   0  0  0  0  0  0  0  0  0  0  0  0
   47.6611    8.2158   21.2843 C   0  0  0  0  0  0  0  0  0  0  0  0
   48.1352    5.8432   21.5367 C   0  0  0  0  0  0  0  0  0  0  0  0
   48.1234   10.5887   20.0355 O   0  0  0  0  0  0  0  0  0  0  0  0
   47.8179    4.6032   22.0997 N   0  0  0  0  0  0  0  0  0  0  0  0
   48.9858    5.9171   20.4314 C   0  0  0  0  0  0  0  0  0  0  0  0
   47.4383    6.9907   21.9236 C   0  0  0  0  0  0  0  0  0  0  0  0
   48.3097   11.8758   19.4231 C   0  0  0  0  0  0  0  0  0  0  0  0
   47.3536   12.0314   18.2434 C   0  0  0  0  0  0  0  0  0  0  0  0
   47.3807   13.4244   17.6166 C   0  0  0  0  0  0  0  0  0  0  0  0
   48.7039   13.7587   16.9457 C   0  0  0  0  0  0  0  0  0  0  0  0
   48.5696    9.3637   21.7079 H   0  0  0  0  0  0  0  0  0  0  0  0
   47.7750    6.5434   18.5365 H   0  0  0  0  0  0  0  0  0  0  0  0
   47.2017    4.2139   22.5511 H   0  0  0  0  0  0  0  0  0  0  0  0
   47.5079    5.3187   23.7880 H   0  0  0  0  0  0  0  0  0  0  0  0
   48.2953    7.5736   23.3584 H   0  0  0  0  0  0  0  0  0  0  0  0
   47.5050    4.7585   20.2064 H   0  0  0  0  0  0  0  0  0  0  0  0
   49.5176   12.1167   19.0813 H   0  0  0  0  0  0  0  0  0  0  0  0
   49.3347   11.0752   17.6725 H   0  0  0  0  0  0  0  0  0  0  0  0
   47.0583   12.4559   19.2236 H   0  0  0  0  0  0  0  0  0  0  0  0
   46.7954   11.3456   17.9025 H   0  0  0  0  0  0  0  0  0  0  0  0
   46.5954   13.5868   17.0435 H   0  0  0  0  0  0  0  0  0  0  0  0
   48.0358   12.8611   16.3389 H   0  0  0  0  0  0  0  0  0  0  0  0
   49.4781   14.1391   17.9141 H   0  0  0  0  0  0  0  0  0  0  0  0
   48.0388   14.7859   18.7284 H   0  0  0  0  0  0  0  0  0  0  0  0
   48.3908   15.2299   17.0501 H   0  0  0  0  0  0  0  0  0  0  0  0
   47.9026    8.7400   21.9865 H   0  0  0  0  0  0  0  0  0  0  0  0
   47.4284    8.1016   17.7293 H   0  0  0  0  0  0  0  0  0  0  0  0
   49.0480   12.4346   18.2894 H   0  0  0  0  0  0  0  0  0  0  0  0
   49.8981    7.1722   18.9393 H   0  0  0  0  0  0  0  0  0  0  0  0
   47.1144    9.0913   21.6248 H   0  0  0  0  0  0  0  0  0  0  0  0
   47.4656    4.6576   23.0503 H   0  0  0  0  0  0  0  0  0  0  0  0
   48.5479    3.9048   21.9993 H   0  0  0  0  0  0  0  0  0  0  0  0
   49.4807    5.0235   20.0598 H   0  0  0  0  0  0  0  0  0  0  0  0
   46.7113    6.9420   22.7305 H   0  0  0  0  0  0  0  0  0  0  0  0
   49.3569   12.0183   19.1343 H   0  0  0  0  0  0  0  0  0  0  0  0
   48.0838   12.6247   20.1899 H   0  0  0  0  0  0  0  0  0  0  0  0
   47.5734   11.2739   17.4813 H   0  0  0  0  0  0  0  0  0  0  0  0
   46.3340   11.8141   18.5860 H   0  0  0  0  0  0  0  0  0  0  0  0
   47.1549   14.1809   18.3772 H   0  0  0  0  0  0  0  0  0  0  0  0
   46.5845   13.4834   16.8650 H   0  0  0  0  0  0  0  0  0  0  0  0
   48.6347   14.7279   16.4414 H   0  0  0  0  0  0  0  0  0  0  0  0
   48.9660   13.0052   16.1962 H   0  0  0  0  0  0  0  0  0  0  0  0
   49.5184   13.8216   17.6730 H   0  0  0  0  0  0  0  0  0  0  0  0
  2  1  1  0
  3  1  2  0
  4  2  2  0
  5  2  1  0
  6 10  1  0
  7  1  1  0
  8  6  1  0
  9  4  1  0
 10  5  2  0
 11  7  1  0
 12 11  1  0
 13 12  1  0
 14 13  1  0
  9  6  2  0
 16 17  1  0
 17 15  2  0
 18 15  1  0
 19 16  1  0
 20 21  1  0
 21 23  2  0
 22 21  1  0
 23 15  1  0
 24 18  1  0
 25 19  1  0
 26 20  1  0
 27 18  2  0
 28 19  2  0
 29 20  2  0
 30 17  1  0
 22 16  2  0
 32 31  1  0
 33 31  2  0
 34 32  2  0
 35 32  1  0
 36 40  1  0
 37 31  1  0
 38 36  1  0
 39 34  1  0
 40 35  2  0
 41 37  1  0
 42 41  1  0
 43 42  1  0
 44 43  1  0
 39 36  2  0
  4 45  1  0
  5 46  1  0
  8 47  1  0
  8 48  1  0
  9 49  1  0
 10 50  1  0
 11 51  1  0
 11 52  1  0
 12 53  1  0
 12 54  1  0
 13 55  1  0
 13 56  1  0
 14 57  1  0
 14 58  1  0
 14 59  1  0
 22 60  1  0
 23 61  1  0
 30 62  1  0
 34 63  1  0
 35 64  1  0
 38 65  1  0
 38 66  1  0
 39 67  1  0
 40 68  1  0
 41 69  1  0
 41 70  1  0
 42 71  1  0
 42 72  1  0
 43 73  1  0
 43 74  1  0
 44 75  1  0
 44 76  1  0
 44 77  1  0
M  CHG  6  18   1  19   1  20   1  24  -1  25  -1  26  -1
M  END
> <Uni-Dock RESULT> 
ENERGY=   -5.461  LOWER_BOUND=    5.720  UPPER_BOUND=    8.225
INTER + INTRA:          -5.461
INTER:                  -5.461
INTRA:                   0.000
UNBOUND:                 0.000

$$$$

     RDKit          3D

 77 77  0  0  0  0  0  0  0  0999 V2000
   48.3399    8.4381   18.7985 C   0  0  0  0  0  0  0  0  0  0  0  0
   48.3571    6.9548   18.9196 C   0  0  0  0  0  0  0  0  0  0  0  0
   48.4152    9.0270   17.7317 O   0  0  0  0  0  0  0  0  0  0  0  0
   48.2671    6.2973   20.1520 C   0  0  0  0  0  0  0  0  0  0  0  0
   48.4885    6.1959   17.7509 C   0  0  0  0  0  0  0  0  0  0  0  0
   48.3653    4.1375   19.0366 C   0  0  0  0  0  0  0  0  0  0  0  0
   48.2256    9.0150   20.0209 O   0  0  0  0  0  0  0  0  0  0  0  0
   48.5133    2.7490   19.1085 N   0  0  0  0  0  0  0  0  0  0  0  0
   48.2923    4.8988   20.2057 C   0  0  0  0  0  0  0  0  0  0  0  0
   48.5137    4.7987   17.8152 C   0  0  0  0  0  0  0  0  0  0  0  0
   48.2079   10.4522   20.0352 C   0  0  0  0  0  0  0  0  0  0  0  0
   46.7774   10.9543   19.8588 C   0  0  0  0  0  0  0  0  0  0  0  0
   46.6669   12.4774   19.8108 C   0  0  0  0  0  0  0  0  0  0  0  0
   47.0587   13.1547   21.1149 C   0  0  0  0  0  0  0  0  0  0  0  0
   48.0002    9.5105   18.8412 C   0  0  0  0  0  0  0  0  0  0  0  0
   47.8807    8.2615   20.8896 C   0  0  0  0  0  0  0  0  0  0  0  0
   47.9945    9.4999   20.2457 C   0  0  0  0  0  0  0  0  0  0  0  0
   48.1145   10.7711   18.0962 N   0  0  0  0  0  0  0  0  0  0  0  0
   47.8604    8.2024   22.3356 N   0  0  0  0  0  0  0  0  0  0  0  0
   47.6879    5.8327   18.0361 N   0  0  0  0  0  0  0  0  0  0  0  0
   47.7923    7.0873   18.7956 C   0  0  0  0  0  0  0  0  0  0  0  0
   47.7831    7.0511   20.1926 C   0  0  0  0  0  0  0  0  0  0  0  0
   47.8986    8.3086   18.1115 C   0  0  0  0  0  0  0  0  0  0  0  0
   48.1439   10.7136   16.8614 O   0  0  0  0  0  0  0  0  0  0  0  0
   46.7943    8.4906   22.8925 O   0  0  0  0  0  0  0  0  0  0  0  0
   47.5761    4.7829   18.6813 O   0  0  0  0  0  0  0  0  0  0  0  0
   48.1738   11.8180   18.7577 O   0  0  0  0  0  0  0  0  0  0  0  0
   48.8933    7.8022   22.8868 O   0  0  0  0  0  0  0  0  0  0  0  0
   47.7173    5.9085   16.8018 O   0  0  0  0  0  0  0  0  0  0  0  0
   48.1070   10.6191   21.0230 O   0  0  0  0  0  0  0  0  0  0  0  0
   48.6326    8.4840   19.6087 C   0  0  0  0  0  0  0  0  0  0  0  0
   48.6504    7.0255   19.3127 C   0  0  0  0  0  0  0  0  0  0  0  0
   49.4455    9.2729   19.1537 O   0  0  0  0  0  0  0  0  0  0  0  0
   49.6514    6.5329   18.4676 C   0  0  0  0  0  0  0  0  0  0  0  0
   47.6985    6.1391   19.8295 C   0  0  0  0  0  0  0  0  0  0  0  0
   48.7956    4.2727   18.7203 C   0  0  0  0  0  0  0  0  0  0  0  0
   47.6036    8.7895   20.4382 O   0  0  0  0  0  0  0  0  0  0  0  0
   48.7829    2.9345   18.3146 N   0  0  0  0  0  0  0  0  0  0  0  0
   49.7073    5.1695   18.1591 C   0  0  0  0  0  0  0  0  0  0  0  0
   47.7632    4.7766   19.5155 C   0  0  0  0  0  0  0  0  0  0  0  0
   47.4835   10.1754   20.8000 C   0  0  0  0  0  0  0  0  0  0  0  0
   46.6596   10.9156   19.7496 C   0  0  0  0  0  0  0  0  0  0  0  0
   46.3594   12.3666   20.1218 C   0  0  0  0  0  0  0  0  0  0  0  0
   47.5992   13.2460   20.1704 C   0  0  0  0  0  0  0  0  0  0  0  0
   48.1908    6.8560   21.0810 H   0  0  0  0  0  0  0  0  0  0  0  0
   48.5865    6.6873   16.7847 H   0  0  0  0  0  0  0  0  0  0  0  0
   48.2565    2.2604   18.2563 H   0  0  0  0  0  0  0  0  0  0  0  0
   48.0973    2.3293   19.9338 H   0  0  0  0  0  0  0  0  0  0  0  0
   48.2547    4.4083   21.1754 H   0  0  0  0  0  0  0  0  0  0  0  0
   48.6508    4.2317   16.8981 H   0  0  0  0  0  0  0  0  0  0  0  0
   48.6035   10.7548   21.0097 H   0  0  0  0  0  0  0  0  0  0  0  0
   48.8812   10.8629   19.2736 H   0  0  0  0  0  0  0  0  0  0  0  0
   46.1491   10.5539   20.6643 H   0  0  0  0  0  0  0  0  0  0  0  0
   46.3605   10.5420   18.9316 H   0  0  0  0  0  0  0  0  0  0  0  0
   45.6290   12.7438   19.5780 H   0  0  0  0  0  0  0  0  0  0  0  0
   47.2851   12.8704   18.9955 H   0  0  0  0  0  0  0  0  0  0  0  0
   48.1212   13.0166   21.3353 H   0  0  0  0  0  0  0  0  0  0  0  0
   46.4764   12.7601   21.9532 H   0  0  0  0  0  0  0  0  0  0  0  0
   46.8717   14.2315   21.0496 H   0  0  0  0  0  0  0  0  0  0  0  0
   47.7017    6.1112   20.7381 H   0  0  0  0  0  0  0  0  0  0  0  0
   47.9036    8.3237   17.0205 H   0  0  0  0  0  0  0  0  0  0  0  0
   48.1538   11.4365   20.4788 H   0  0  0  0  0  0  0  0  0  0  0  0
   50.3855    7.2086   18.0327 H   0  0  0  0  0  0  0  0  0  0  0  0
   46.8914    6.4921   20.4663 H   0  0  0  0  0  0  0  0  0  0  0  0
   48.3265    2.3072   18.9694 H   0  0  0  0  0  0  0  0  0  0  0  0
   49.6876    2.5853   18.0141 H   0  0  0  0  0  0  0  0  0  0  0  0
   50.4736    4.8156   17.4742 H   0  0  0  0  0  0  0  0  0  0  0  0
   46.9950    4.1103   19.9000 H   0  0  0  0  0  0  0  0  0  0  0  0
   48.4724   10.6233   20.9476 H   0  0  0  0  0  0  0  0  0  0  0  0
   46.9707   10.2047   21.7675 H   0  0  0  0  0  0  0  0  0  0  0  0
   47.1686   10.8760   18.7789 H   0  0  0  0  0  0  0  0  0  0  0  0
   45.7122   10.3811   19.6050 H   0  0  0  0  0  0  0  0  0  0  0  0
   45.8453   12.4056   21.0891 H   0  0  0  0  0  0  0  0  0  0  0  0
   45.6678   12.7806   19.3784 H   0  0  0  0  0  0  0  0  0  0  0  0
   47.3141   14.2869   20.3545 H   0  0  0  0  0  0  0  0  0  0  0  0
   48.1459   13.2075   19.2229 H   0  0  0  0  0  0  0  0  0  0  0  0
   48.2765   12.9415   20.9736 H   0  0  0  0  0  0  0  0  0  0  0  0
  2  1  1  0
  3  1  2  0
  4  2  2  0
  5  2  1  0
  6 10  1  0
  7  1  1  0
  8  6  1  0
  9  4  1  0
 10  5  2  0
 11  7  1  0
 12 11  1  0
 13 12  1  0
 14 13  1  0
  9  6  2  0
 16 17  1  0
 17 15  2  0
 18 15  1  0
 19 16  1  0
 20 21  1  0
 21 23  2  0
 22 21  1  0
 23 15  1  0
 24 18  1  0
 25 19  1  0
 26 20  1  0
 27 18  2  0
 28 19  2  0
 29 20  2  0
 30 17  1  0
 22 16  2  0
 32 31  1  0
 33 31  2  0
 34 32  2  0
 35 32  1  0
 36 40  1  0
 37 31  1  0
 38 36  1  0
 39 34  1  0
 40 35  2  0
 41 37  1  0
 42 41  1  0
 43 42  1  0
 44 43  1  0
 39 36  2  0
  4 45  1  0
  5 46  1  0
  8 47  1  0
  8 48  1  0
  9 49  1  0
 10 50  1  0
 11 51  1  0
 11 52  1  0
 12 53  1  0
 12 54  1  0
 13 55  1  0
 13 56  1  0
 14 57  1  0
 14 58  1  0
 14 59  1  0
 22 60  1  0
 23 61  1  0
 30 62  1  0
 34 63  1  0
 35 64  1  0
 38 65  1  0
 38 66  1  0
 39 67  1  0
 40 68  1  0
 41 69  1  0
 41 70  1  0
 42 71  1  0
 42 72  1  0
 43 73  1  0
 43 74  1  0
 44 75  1  0
 44 76  1  0
 44 77  1  0
M  CHG  6  18   1  19   1  20   1  24  -1  25  -1  26  -1
M  END
> <Uni-Dock RESULT> 
ENERGY=   -5.420  LOWER_BOUND=    5.226  UPPER_BOUND=    8.039
INTER + INTRA:          -5.420
INTER:                  -5.420
INTRA:                   0.000
UNBOUND:                 0.000

$$$$
