
     RDKit          3D

 77 77  0  0  0  0  0  0  0  0999 V2000
   47.5384    6.9825   12.2319 C   0  0  0  0  0  0  0  0  0  0  0  0
   46.3305    6.1164   12.1549 C   0  0  0  0  0  0  0  0  0  0  0  0
   47.7787    7.8756   11.4351 O   0  0  0  0  0  0  0  0  0  0  0  0
   46.0571    5.1182   13.0973 C   0  0  0  0  0  0  0  0  0  0  0  0
   45.4267    6.3306   11.1080 C   0  0  0  0  0  0  0  0  0  0  0  0
   44.0292    4.5074   11.9005 C   0  0  0  0  0  0  0  0  0  0  0  0
   48.3053    6.6347   13.2949 O   0  0  0  0  0  0  0  0  0  0  0  0
   42.8204    3.8059   11.8557 N   0  0  0  0  0  0  0  0  0  0  0  0
   44.9027    4.3358   12.9773 C   0  0  0  0  0  0  0  0  0  0  0  0
   44.2752    5.5441   10.9974 C   0  0  0  0  0  0  0  0  0  0  0  0
   49.4977    7.4107   13.4865 C   0  0  0  0  0  0  0  0  0  0  0  0
   49.2063    8.6817   14.2820 C   0  0  0  0  0  0  0  0  0  0  0  0
   48.6181    8.3789   15.6618 C   0  0  0  0  0  0  0  0  0  0  0  0
   48.3795    9.6536   16.4560 C   0  0  0  0  0  0  0  0  0  0  0  0
   46.3030    5.5901   13.5183 C   0  0  0  0  0  0  0  0  0  0  0  0
   47.7133    7.3985   14.2318 C   0  0  0  0  0  0  0  0  0  0  0  0
   47.3729    6.0377   14.3029 C   0  0  0  0  0  0  0  0  0  0  0  0
   45.9218    4.1946   13.5535 N   0  0  0  0  0  0  0  0  0  0  0  0
   48.8239    7.9413   15.0248 N   0  0  0  0  0  0  0  0  0  0  0  0
   45.1714    8.7061   11.7614 N   0  0  0  0  0  0  0  0  0  0  0  0
   45.9239    7.7898   12.6308 C   0  0  0  0  0  0  0  0  0  0  0  0
   46.9938    8.2783   13.3977 C   0  0  0  0  0  0  0  0  0  0  0  0
   45.5668    6.4397   12.6838 C   0  0  0  0  0  0  0  0  0  0  0  0
   44.9162    3.9127   14.2166 O   0  0  0  0  0  0  0  0  0  0  0  0
   49.0587    9.1523   14.9400 O   0  0  0  0  0  0  0  0  0  0  0  0
   45.5018    9.8982   11.7666 O   0  0  0  0  0  0  0  0  0  0  0  0
   46.5914    3.4152   12.8650 O   0  0  0  0  0  0  0  0  0  0  0  0
   49.4581    7.1451   15.7329 O   0  0  0  0  0  0  0  0  0  0  0  0
   44.2576    8.2246   11.0804 O   0  0  0  0  0  0  0  0  0  0  0  0
   48.0108    5.1263   15.0976 O   0  0  0  0  0  0  0  0  0  0  0  0
   46.2785    7.5093   12.7956 C   0  0  0  0  0  0  0  0  0  0  0  0
   45.6278    6.2769   12.2737 C   0  0  0  0  0  0  0  0  0  0  0  0
   46.0454    8.6290   12.3682 O   0  0  0  0  0  0  0  0  0  0  0  0
   45.9236    5.0011   12.7675 C   0  0  0  0  0  0  0  0  0  0  0  0
   44.6991    6.4068   11.2347 C   0  0  0  0  0  0  0  0  0  0  0  0
   44.3115    4.0080   11.2404 C   0  0  0  0  0  0  0  0  0  0  0  0
   47.1441    7.2066   13.7952 O   0  0  0  0  0  0  0  0  0  0  0  0
   43.7661    2.8724   10.6337 N   0  0  0  0  0  0  0  0  0  0  0  0
   45.2822    3.8761   12.2364 C   0  0  0  0  0  0  0  0  0  0  0  0
   44.0637    5.2763   10.7104 C   0  0  0  0  0  0  0  0  0  0  0  0
   47.8160    8.3435   14.3569 C   0  0  0  0  0  0  0  0  0  0  0  0
   48.7275    7.8435   15.4732 C   0  0  0  0  0  0  0  0  0  0  0  0
   49.4387    8.9631   16.2310 C   0  0  0  0  0  0  0  0  0  0  0  0
   50.4259    9.7412   15.3748 C   0  0  0  0  0  0  0  0  0  0  0  0
   46.7222    4.9448   13.9390 H   0  0  0  0  0  0  0  0  0  0  0  0
   45.6055    7.1199   10.3804 H   0  0  0  0  0  0  0  0  0  0  0  0
   42.4058    3.7548   10.9304 H   0  0  0  0  0  0  0  0  0  0  0  0
   42.8498    2.9008   12.3144 H   0  0  0  0  0  0  0  0  0  0  0  0
   44.6917    3.5882   13.7379 H   0  0  0  0  0  0  0  0  0  0  0  0
   43.5711    5.7508   10.1954 H   0  0  0  0  0  0  0  0  0  0  0  0
   49.9677    7.6490   12.5249 H   0  0  0  0  0  0  0  0  0  0  0  0
   50.2055    6.7793   14.0348 H   0  0  0  0  0  0  0  0  0  0  0  0
   48.4996    9.3100   13.7273 H   0  0  0  0  0  0  0  0  0  0  0  0
   50.1355    9.2527   14.3923 H   0  0  0  0  0  0  0  0  0  0  0  0
   47.6683    7.8417   15.5587 H   0  0  0  0  0  0  0  0  0  0  0  0
   49.2999    7.7287   16.2221 H   0  0  0  0  0  0  0  0  0  0  0  0
   49.3153   10.1999   16.6116 H   0  0  0  0  0  0  0  0  0  0  0  0
   47.6780   10.3139   15.9361 H   0  0  0  0  0  0  0  0  0  0  0  0
   47.9581    9.4152   17.4376 H   0  0  0  0  0  0  0  0  0  0  0  0
   47.2633    9.3344   13.3469 H   0  0  0  0  0  0  0  0  0  0  0  0
   44.7391    6.0451   12.0951 H   0  0  0  0  0  0  0  0  0  0  0  0
   48.7606    5.5324   15.5866 H   0  0  0  0  0  0  0  0  0  0  0  0
   46.6599    4.8616   13.5547 H   0  0  0  0  0  0  0  0  0  0  0  0
   44.4747    7.3866   10.8174 H   0  0  0  0  0  0  0  0  0  0  0  0
   43.7342    2.0553   11.2354 H   0  0  0  0  0  0  0  0  0  0  0  0
   42.8818    3.0389   10.1632 H   0  0  0  0  0  0  0  0  0  0  0  0
   45.5502    2.8913   12.6107 H   0  0  0  0  0  0  0  0  0  0  0  0
   43.3710    5.3982    9.8816 H   0  0  0  0  0  0  0  0  0  0  0  0
   47.0751    9.0433   14.7605 H   0  0  0  0  0  0  0  0  0  0  0  0
   48.4012    8.8354   13.5724 H   0  0  0  0  0  0  0  0  0  0  0  0
   48.1293    7.2573   16.1827 H   0  0  0  0  0  0  0  0  0  0  0  0
   49.4615    7.1408   15.0590 H   0  0  0  0  0  0  0  0  0  0  0  0
   48.7007    9.6537   16.6554 H   0  0  0  0  0  0  0  0  0  0  0  0
   49.9819    8.5216   17.0751 H   0  0  0  0  0  0  0  0  0  0  0  0
   50.9687   10.4648   15.9915 H   0  0  0  0  0  0  0  0  0  0  0  0
   51.1590    9.0720   14.9136 H   0  0  0  0  0  0  0  0  0  0  0  0
   49.9175   10.2977   14.5819 H   0  0  0  0  0  0  0  0  0  0  0  0
  2  1  1  0
  3  1  2  0
  4  2  2  0
  5  2  1  0
  6 10  1  0
  7  1  1  0
  8  6  1  0
  9  4  1  0
 10  5  2  0
 11  7  1  0
 12 11  1  0
 13 12  1  0
 14 13  1  0
  9  6  2  0
 16 17  1  0
 17 15  2  0
 18 15  1  0
 19 16  1  0
 20 21  1  0
 21 23  2  0
 22 21  1  0
 23 15  1  0
 24 18  1  0
 25 19  1  0
 26 20  1  0
 27 18  2  0
 28 19  2  0
 29 20  2  0
 30 17  1  0
 22 16  2  0
 32 31  1  0
 33 31  2  0
 34 32  2  0
 35 32  1  0
 36 40  1  0
 37 31  1  0
 38 36  1  0
 39 34  1  0
 40 35  2  0
 41 37  1  0
 42 41  1  0
 43 42  1  0
 44 43  1  0
 39 36  2  0
  4 45  1  0
  5 46  1  0
  8 47  1  0
  8 48  1  0
  9 49  1  0
 10 50  1  0
 11 51  1  0
 11 52  1  0
 12 53  1  0
 12 54  1  0
 13 55  1  0
 13 56  1  0
 14 57  1  0
 14 58  1  0
 14 59  1  0
 22 60  1  0
 23 61  1  0
 30 62  1  0
 34 63  1  0
 35 64  1  0
 38 65  1  0
 38 66  1  0
 39 67  1  0
 40 68  1  0
 41 69  1  0
 41 70  1  0
 42 71  1  0
 42 72  1  0
 43 73  1  0
 43 74  1  0
 44 75  1  0
 44 76  1  0
 44 77  1  0
M  CHG  6  18   1  19   1  20   1  24  -1  25  -1  26  -1
M  END
> <Uni-Dock RESULT> 
ENERGY=   -6.713  LOWER_BOUND=    0.000  UPPER_BOUND=    0.000
INTER + INTRA:          -6.713
INTER:                  -6.713
INTRA:                   0.000
UNBOUND:                 0.000

$$$$

     RDKit          3D

 77 77  0  0  0  0  0  0  0  0999 V2000
   46.3006    7.6927   11.3638 C   0  0  0  0  0  0  0  0  0  0  0  0
   46.1785    9.1493   11.6445 C   0  0  0  0  0  0  0  0  0  0  0  0
   47.3312    7.0593   11.5276 O   0  0  0  0  0  0  0  0  0  0  0  0
   44.9785    9.8509   11.4803 C   0  0  0  0  0  0  0  0  0  0  0  0
   47.3078    9.8314   12.1118 C   0  0  0  0  0  0  0  0  0  0  0  0
   46.0609   11.9162   12.1734 C   0  0  0  0  0  0  0  0  0  0  0  0
   45.1222    7.1955   10.9130 O   0  0  0  0  0  0  0  0  0  0  0  0
   45.9651   13.2538   12.5695 N   0  0  0  0  0  0  0  0  0  0  0  0
   44.9208   11.2204   11.7637 C   0  0  0  0  0  0  0  0  0  0  0  0
   47.2397   11.1999   12.3934 C   0  0  0  0  0  0  0  0  0  0  0  0
   45.1074    5.7904   10.6198 C   0  0  0  0  0  0  0  0  0  0  0  0
   44.8212    4.9684   11.8750 C   0  0  0  0  0  0  0  0  0  0  0  0
   43.4756    5.3285   12.5086 C   0  0  0  0  0  0  0  0  0  0  0  0
   43.1875    4.4672   13.7283 C   0  0  0  0  0  0  0  0  0  0  0  0
   44.7248    9.2743   11.7324 C   0  0  0  0  0  0  0  0  0  0  0  0
   44.5557    6.9067   12.0994 C   0  0  0  0  0  0  0  0  0  0  0  0
   44.0531    8.0693   11.4923 C   0  0  0  0  0  0  0  0  0  0  0  0
   44.2475   10.4960   11.1215 N   0  0  0  0  0  0  0  0  0  0  0  0
   43.9053    5.6062   11.8937 N   0  0  0  0  0  0  0  0  0  0  0  0
   47.5287    8.2496   14.0051 N   0  0  0  0  0  0  0  0  0  0  0  0
   46.3386    8.1908   13.1438 C   0  0  0  0  0  0  0  0  0  0  0  0
   45.6975    6.9610   12.9245 C   0  0  0  0  0  0  0  0  0  0  0  0
   45.8581    9.3610   12.5500 C   0  0  0  0  0  0  0  0  0  0  0  0
   43.6151   11.2690   11.8517 O   0  0  0  0  0  0  0  0  0  0  0  0
   44.3784    4.6233   12.4758 O   0  0  0  0  0  0  0  0  0  0  0  0
   47.9030    7.1959   14.5341 O   0  0  0  0  0  0  0  0  0  0  0  0
   44.5695   10.6945    9.9439 O   0  0  0  0  0  0  0  0  0  0  0  0
   42.9171    5.5777   11.1451 O   0  0  0  0  0  0  0  0  0  0  0  0
   48.0787    9.3491   14.1436 O   0  0  0  0  0  0  0  0  0  0  0  0
   42.9443    8.1013   10.6932 O   0  0  0  0  0  0  0  0  0  0  0  0
   46.0587    8.1049   12.7618 C   0  0  0  0  0  0  0  0  0  0  0  0
   46.1812    9.5078   12.2809 C   0  0  0  0  0  0  0  0  0  0  0  0
   46.8607    7.5769   13.5158 O   0  0  0  0  0  0  0  0  0  0  0  0
   45.2585   10.0871   11.4023 C   0  0  0  0  0  0  0  0  0  0  0  0
   47.2764   10.2640   12.7144 C   0  0  0  0  0  0  0  0  0  0  0  0
   46.4846   12.1873   11.4580 C   0  0  0  0  0  0  0  0  0  0  0  0
   44.9468    7.5195   12.2509 O   0  0  0  0  0  0  0  0  0  0  0  0
   46.7107   13.4659   10.9391 N   0  0  0  0  0  0  0  0  0  0  0  0
   45.4255   11.4113   10.9808 C   0  0  0  0  0  0  0  0  0  0  0  0
   47.4347   11.5865   12.2871 C   0  0  0  0  0  0  0  0  0  0  0  0
   44.7526    6.1600   12.6675 C   0  0  0  0  0  0  0  0  0  0  0  0
   43.4602    5.6564   12.0327 C   0  0  0  0  0  0  0  0  0  0  0  0
   43.0732    4.2445   12.4686 C   0  0  0  0  0  0  0  0  0  0  0  0
   44.0574    3.1789   12.0113 C   0  0  0  0  0  0  0  0  0  0  0  0
   44.0754    9.3464   11.1475 H   0  0  0  0  0  0  0  0  0  0  0  0
   48.2433    9.2994   12.2734 H   0  0  0  0  0  0  0  0  0  0  0  0
   46.8488   13.7535   12.5563 H   0  0  0  0  0  0  0  0  0  0  0  0
   45.2242   13.7706   12.1064 H   0  0  0  0  0  0  0  0  0  0  0  0
   43.9713   11.7399   11.6615 H   0  0  0  0  0  0  0  0  0  0  0  0
   48.1203   11.7012   12.7870 H   0  0  0  0  0  0  0  0  0  0  0  0
   46.0494    5.4786   10.1532 H   0  0  0  0  0  0  0  0  0  0  0  0
   44.3190    5.6269    9.8769 H   0  0  0  0  0  0  0  0  0  0  0  0
   45.6145    5.1344   12.6133 H   0  0  0  0  0  0  0  0  0  0  0  0
   44.8347    3.9039   11.6134 H   0  0  0  0  0  0  0  0  0  0  0  0
   43.4687    6.3826   12.8085 H   0  0  0  0  0  0  0  0  0  0  0  0
   42.6717    5.1940   11.7756 H   0  0  0  0  0  0  0  0  0  0  0  0
   43.1496    3.4067   13.4596 H   0  0  0  0  0  0  0  0  0  0  0  0
   43.9587    4.6010   14.4937 H   0  0  0  0  0  0  0  0  0  0  0  0
   42.2227    4.7413   14.1663 H   0  0  0  0  0  0  0  0  0  0  0  0
   46.0829    6.0542   13.3931 H   0  0  0  0  0  0  0  0  0  0  0  0
   46.3441   10.3231   12.7103 H   0  0  0  0  0  0  0  0  0  0  0  0
   42.5621    7.2047   10.5659 H   0  0  0  0  0  0  0  0  0  0  0  0
   44.4119    9.5197   11.0244 H   0  0  0  0  0  0  0  0  0  0  0  0
   48.0205    9.8243   13.3759 H   0  0  0  0  0  0  0  0  0  0  0  0
   45.8712   13.9379   10.6182 H   0  0  0  0  0  0  0  0  0  0  0  0
   47.2824   14.0585   11.5333 H   0  0  0  0  0  0  0  0  0  0  0  0
   44.7163   11.8320   10.2723 H   0  0  0  0  0  0  0  0  0  0  0  0
   48.3105   12.1433   12.6104 H   0  0  0  0  0  0  0  0  0  0  0  0
   44.6762    6.1200   13.7603 H   0  0  0  0  0  0  0  0  0  0  0  0
   45.6057    5.5594   12.3338 H   0  0  0  0  0  0  0  0  0  0  0  0
   42.6462    6.3452   12.2931 H   0  0  0  0  0  0  0  0  0  0  0  0
   43.5463    5.7053   10.9399 H   0  0  0  0  0  0  0  0  0  0  0  0
   42.9739    4.2049   13.5596 H   0  0  0  0  0  0  0  0  0  0  0  0
   42.0866    4.0095   12.0517 H   0  0  0  0  0  0  0  0  0  0  0  0
   43.6815    2.1842   12.2717 H   0  0  0  0  0  0  0  0  0  0  0  0
   44.1989    3.2142   10.9265 H   0  0  0  0  0  0  0  0  0  0  0  0
   45.0324    3.3005   12.4922 H   0  0  0  0  0  0  0  0  0  0  0  0
  2  1  1  0
  3  1  2  0
  4  2  2  0
  5  2  1  0
  6 10  1  0
  7  1  1  0
  8  6  1  0
  9  4  1  0
 10  5  2  0
 11  7  1  0
 12 11  1  0
 13 12  1  0
 14 13  1  0
  9  6  2  0
 16 17  1  0
 17 15  2  0
 18 15  1  0
 19 16  1  0
 20 21  1  0
 21 23  2  0
 22 21  1  0
 23 15  1  0
 24 18  1  0
 25 19  1  0
 26 20  1  0
 27 18  2  0
 28 19  2  0
 29 20  2  0
 30 17  1  0
 22 16  2  0
 32 31  1  0
 33 31  2  0
 34 32  2  0
 35 32  1  0
 36 40  1  0
 37 31  1  0
 38 36  1  0
 39 34  1  0
 40 35  2  0
 41 37  1  0
 42 41  1  0
 43 42  1  0
 44 43  1  0
 39 36  2  0
  4 45  1  0
  5 46  1  0
  8 47  1  0
  8 48  1  0
  9 49  1  0
 10 50  1  0
 11 51  1  0
 11 52  1  0
 12 53  1  0
 12 54  1  0
 13 55  1  0
 13 56  1  0
 14 57  1  0
 14 58  1  0
 14 59  1  0
 22 60  1  0
 23 61  1  0
 30 62  1  0
 34 63  1  0
 35 64  1  0
 38 65  1  0
 38 66  1  0
 39 67  1  0
 40 68  1  0
 41 69  1  0
 41 70  1  0
 42 71  1  0
 42 72  1  0
 43 73  1  0
 43 74  1  0
 44 75  1  0
 44 76  1  0
 44 77  1  0
M  CHG  6  18   1  19   1  20   1  24  -1  25  -1  26  -1
M  END
> <Uni-Dock RESULT> 
ENERGY=   -5.924  LOWER_BOUND=    2.299  UPPER_BOUND=    6.068
INTER + INTRA:          -5.924
INTER:                  -5.924
INTRA:                   0.000
UNBOUND:                 0.000

$$$$

     RDKit          3D

 77 77  0  0  0  0  0  0  0  0999 V2000
   50.4589    6.3034   20.4414 C   0  0  0  0  0  0  0  0  0  0  0  0
   49.5831    5.5048   19.5411 C   0  0  0  0  0  0  0  0  0  0  0  0
   50.0507    7.2150   21.1434 O   0  0  0  0  0  0  0  0  0  0  0  0
   50.0653    4.4424   18.7679 C   0  0  0  0  0  0  0  0  0  0  0  0
   48.2209    5.8217   19.4890 C   0  0  0  0  0  0  0  0  0  0  0  0
   47.8461    4.0746   17.8422 C   0  0  0  0  0  0  0  0  0  0  0  0
   51.7417    5.8710   20.3624 O   0  0  0  0  0  0  0  0  0  0  0  0
   46.9622    3.2763   17.1095 N   0  0  0  0  0  0  0  0  0  0  0  0
   49.1945    3.7228   17.9414 C   0  0  0  0  0  0  0  0  0  0  0  0
   47.3584    5.0959   18.6608 C   0  0  0  0  0  0  0  0  0  0  0  0
   52.6854    6.5559   21.1997 C   0  0  0  0  0  0  0  0  0  0  0  0
   52.7108    5.9581   22.6051 C   0  0  0  0  0  0  0  0  0  0  0  0
   53.0837    4.4740   22.5963 C   0  0  0  0  0  0  0  0  0  0  0  0
   53.1500    3.9094   24.0067 C   0  0  0  0  0  0  0  0  0  0  0  0
   50.4311    4.3332   19.3289 C   0  0  0  0  0  0  0  0  0  0  0  0
   51.6878    4.9019   21.2951 C   0  0  0  0  0  0  0  0  0  0  0  0
   51.6706    4.4268   19.9734 C   0  0  0  0  0  0  0  0  0  0  0  0
   50.3659    3.8565   17.9643 N   0  0  0  0  0  0  0  0  0  0  0  0
   52.9498    5.0283   22.0355 N   0  0  0  0  0  0  0  0  0  0  0  0
   48.0191    5.5325   21.9407 N   0  0  0  0  0  0  0  0  0  0  0  0
   49.2683    5.1533   21.2643 C   0  0  0  0  0  0  0  0  0  0  0  0
   50.4912    5.2672   21.9447 C   0  0  0  0  0  0  0  0  0  0  0  0
   49.2256    4.6842   19.9486 C   0  0  0  0  0  0  0  0  0  0  0  0
   49.9874    2.6897   17.8037 O   0  0  0  0  0  0  0  0  0  0  0  0
   52.8981    5.4274   23.2046 O   0  0  0  0  0  0  0  0  0  0  0  0
   48.0989    5.9148   23.1144 O   0  0  0  0  0  0  0  0  0  0  0  0
   50.6278    4.6740   17.0739 O   0  0  0  0  0  0  0  0  0  0  0  0
   53.9922    4.7243   21.4366 O   0  0  0  0  0  0  0  0  0  0  0  0
   46.9697    5.4454   21.2912 O   0  0  0  0  0  0  0  0  0  0  0  0
   52.7841    4.0387   19.2816 O   0  0  0  0  0  0  0  0  0  0  0  0
   49.6918    5.1911   21.0389 C   0  0  0  0  0  0  0  0  0  0  0  0
   49.0634    5.0171   19.7012 C   0  0  0  0  0  0  0  0  0  0  0  0
   49.0818    5.5654   22.0280 O   0  0  0  0  0  0  0  0  0  0  0  0
   49.7865    4.6033   18.5765 C   0  0  0  0  0  0  0  0  0  0  0  0
   47.6991    5.2995   19.5678 C   0  0  0  0  0  0  0  0  0  0  0  0
   47.7699    4.6829   17.2185 C   0  0  0  0  0  0  0  0  0  0  0  0
   51.0100    4.8746   20.9930 O   0  0  0  0  0  0  0  0  0  0  0  0
   47.1617    4.6538   15.9597 N   0  0  0  0  0  0  0  0  0  0  0  0
   49.1433    4.4591   17.3418 C   0  0  0  0  0  0  0  0  0  0  0  0
   47.0655    5.1526   18.3294 C   0  0  0  0  0  0  0  0  0  0  0  0
   51.6934    5.0149   22.2471 C   0  0  0  0  0  0  0  0  0  0  0  0
   53.1469    4.6027   22.0363 C   0  0  0  0  0  0  0  0  0  0  0  0
   53.9776    4.6096   23.3181 C   0  0  0  0  0  0  0  0  0  0  0  0
   54.1517    5.9959   23.9190 C   0  0  0  0  0  0  0  0  0  0  0  0
   51.1115    4.1507   18.8067 H   0  0  0  0  0  0  0  0  0  0  0  0
   47.8197    6.6256   20.1032 H   0  0  0  0  0  0  0  0  0  0  0  0
   46.1040    3.7478   16.8415 H   0  0  0  0  0  0  0  0  0  0  0  0
   47.3932    2.7897   16.3298 H   0  0  0  0  0  0  0  0  0  0  0  0
   49.5823    2.8803   17.3743 H   0  0  0  0  0  0  0  0  0  0  0  0
   46.2987    5.3384   18.6620 H   0  0  0  0  0  0  0  0  0  0  0  0
   52.4693    7.6303   21.2344 H   0  0  0  0  0  0  0  0  0  0  0  0
   53.6685    6.4476   20.7285 H   0  0  0  0  0  0  0  0  0  0  0  0
   51.7253    6.0715   23.0719 H   0  0  0  0  0  0  0  0  0  0  0  0
   53.4290    6.5172   23.2161 H   0  0  0  0  0  0  0  0  0  0  0  0
   52.3478    3.9024   22.0192 H   0  0  0  0  0  0  0  0  0  0  0  0
   54.0559    4.3378   22.1086 H   0  0  0  0  0  0  0  0  0  0  0  0
   53.9035    4.4329   24.6039 H   0  0  0  0  0  0  0  0  0  0  0  0
   52.1838    4.0037   24.5126 H   0  0  0  0  0  0  0  0  0  0  0  0
   53.4166    2.8483   23.9780 H   0  0  0  0  0  0  0  0  0  0  0  0
   50.5113    5.6357   22.9715 H   0  0  0  0  0  0  0  0  0  0  0  0
   48.2848    4.5897   19.4070 H   0  0  0  0  0  0  0  0  0  0  0  0
   53.6031    4.1667   19.8099 H   0  0  0  0  0  0  0  0  0  0  0  0
   50.8529    4.4023   18.6385 H   0  0  0  0  0  0  0  0  0  0  0  0
   47.1239    5.6488   20.4232 H   0  0  0  0  0  0  0  0  0  0  0  0
   47.6122    4.0321   15.2955 H   0  0  0  0  0  0  0  0  0  0  0  0
   46.1553    4.5216   15.9894 H   0  0  0  0  0  0  0  0  0  0  0  0
   49.7294    4.1688   16.4733 H   0  0  0  0  0  0  0  0  0  0  0  0
   46.0128    5.4095   18.2424 H   0  0  0  0  0  0  0  0  0  0  0  0
   51.2224    4.3660   22.9946 H   0  0  0  0  0  0  0  0  0  0  0  0
   51.6319    6.0592   22.5719 H   0  0  0  0  0  0  0  0  0  0  0  0
   53.1695    3.5947   21.6026 H   0  0  0  0  0  0  0  0  0  0  0  0
   53.6066    5.2554   21.2834 H   0  0  0  0  0  0  0  0  0  0  0  0
   53.5224    3.9446   24.0613 H   0  0  0  0  0  0  0  0  0  0  0  0
   54.9697    4.2006   23.0922 H   0  0  0  0  0  0  0  0  0  0  0  0
   54.8285    5.9503   24.7783 H   0  0  0  0  0  0  0  0  0  0  0  0
   54.5784    6.6903   23.1884 H   0  0  0  0  0  0  0  0  0  0  0  0
   53.1990    6.4037   24.2695 H   0  0  0  0  0  0  0  0  0  0  0  0
  2  1  1  0
  3  1  2  0
  4  2  2  0
  5  2  1  0
  6 10  1  0
  7  1  1  0
  8  6  1  0
  9  4  1  0
 10  5  2  0
 11  7  1  0
 12 11  1  0
 13 12  1  0
 14 13  1  0
  9  6  2  0
 16 17  1  0
 17 15  2  0
 18 15  1  0
 19 16  1  0
 20 21  1  0
 21 23  2  0
 22 21  1  0
 23 15  1  0
 24 18  1  0
 25 19  1  0
 26 20  1  0
 27 18  2  0
 28 19  2  0
 29 20  2  0
 30 17  1  0
 22 16  2  0
 32 31  1  0
 33 31  2  0
 34 32  2  0
 35 32  1  0
 36 40  1  0
 37 31  1  0
 38 36  1  0
 39 34  1  0
 40 35  2  0
 41 37  1  0
 42 41  1  0
 43 42  1  0
 44 43  1  0
 39 36  2  0
  4 45  1  0
  5 46  1  0
  8 47  1  0
  8 48  1  0
  9 49  1  0
 10 50  1  0
 11 51  1  0
 11 52  1  0
 12 53  1  0
 12 54  1  0
 13 55  1  0
 13 56  1  0
 14 57  1  0
 14 58  1  0
 14 59  1  0
 22 60  1  0
 23 61  1  0
 30 62  1  0
 34 63  1  0
 35 64  1  0
 38 65  1  0
 38 66  1  0
 39 67  1  0
 40 68  1  0
 41 69  1  0
 41 70  1  0
 42 71  1  0
 42 72  1  0
 43 73  1  0
 43 74  1  0
 44 75  1  0
 44 76  1  0
 44 77  1  0
M  CHG  6  18   1  19   1  20   1  24  -1  25  -1  26  -1
M  END
> <Uni-Dock RESULT> 
ENERGY=   -5.885  LOWER_BOUND=    6.246  UPPER_BOUND=    8.561
INTER + INTRA:          -5.885
INTER:                  -5.885
INTRA:                   0.000
UNBOUND:                 0.000

$$$$

     RDKit          3D

 77 77  0  0  0  0  0  0  0  0999 V2000
   49.3237    6.9808   19.9203 C   0  0  0  0  0  0  0  0  0  0  0  0
   48.6306    8.2824   20.1225 C   0  0  0  0  0  0  0  0  0  0  0  0
   49.7000    6.2685   20.8374 O   0  0  0  0  0  0  0  0  0  0  0  0
   48.1785    9.0694   19.0569 C   0  0  0  0  0  0  0  0  0  0  0  0
   48.4068    8.7177   21.4337 C   0  0  0  0  0  0  0  0  0  0  0  0
   47.3566   10.7494   20.6125 C   0  0  0  0  0  0  0  0  0  0  0  0
   49.4653    6.7186   18.5973 O   0  0  0  0  0  0  0  0  0  0  0  0
   46.6012   11.9007   20.8557 N   0  0  0  0  0  0  0  0  0  0  0  0
   47.5287   10.2837   19.3065 C   0  0  0  0  0  0  0  0  0  0  0  0
   47.7554    9.9322   21.6728 C   0  0  0  0  0  0  0  0  0  0  0  0
   50.1092    5.4778   18.2710 C   0  0  0  0  0  0  0  0  0  0  0  0
   49.1078    4.3244   18.2563 C   0  0  0  0  0  0  0  0  0  0  0  0
   47.9820    4.5480   17.2442 C   0  0  0  0  0  0  0  0  0  0  0  0
   47.0227    3.3686   17.2106 C   0  0  0  0  0  0  0  0  0  0  0  0
   48.0236    8.4589   18.8045 C   0  0  0  0  0  0  0  0  0  0  0  0
   48.2846    6.1089   18.3829 C   0  0  0  0  0  0  0  0  0  0  0  0
   48.3416    7.4301   17.9096 C   0  0  0  0  0  0  0  0  0  0  0  0
   48.0763    9.8359   18.3631 N   0  0  0  0  0  0  0  0  0  0  0  0
   48.6051    4.9774   17.5033 N   0  0  0  0  0  0  0  0  0  0  0  0
   47.2118    6.6154   21.9699 N   0  0  0  0  0  0  0  0  0  0  0  0
   47.5987    6.8974   20.5798 C   0  0  0  0  0  0  0  0  0  0  0  0
   47.9151    5.8367   19.7159 C   0  0  0  0  0  0  0  0  0  0  0  0
   47.6491    8.2204   20.1324 C   0  0  0  0  0  0  0  0  0  0  0  0
   46.9928   10.3791   18.1155 O   0  0  0  0  0  0  0  0  0  0  0  0
   48.5113    3.8362   17.9698 O   0  0  0  0  0  0  0  0  0  0  0  0
   47.1516    5.4294   22.3162 O   0  0  0  0  0  0  0  0  0  0  0  0
   49.1909   10.3716   18.3364 O   0  0  0  0  0  0  0  0  0  0  0  0
   48.9509    5.2412   16.3420 O   0  0  0  0  0  0  0  0  0  0  0  0
   46.9727    7.5831   22.7028 O   0  0  0  0  0  0  0  0  0  0  0  0
   48.6753    7.7741   16.6292 O   0  0  0  0  0  0  0  0  0  0  0  0
   47.8708    6.9512   20.1865 C   0  0  0  0  0  0  0  0  0  0  0  0
   47.9607    8.4244   20.3766 C   0  0  0  0  0  0  0  0  0  0  0  0
   47.6094    6.1687   21.0865 O   0  0  0  0  0  0  0  0  0  0  0  0
   48.2791    9.3013   19.3333 C   0  0  0  0  0  0  0  0  0  0  0  0
   47.7355    8.9425   21.6572 C   0  0  0  0  0  0  0  0  0  0  0  0
   48.0700   11.2042   20.8342 C   0  0  0  0  0  0  0  0  0  0  0  0
   48.1132    6.6201   18.8936 O   0  0  0  0  0  0  0  0  0  0  0  0
   48.2633   12.5652   21.0902 N   0  0  0  0  0  0  0  0  0  0  0  0
   48.3523   10.6787   19.5709 C   0  0  0  0  0  0  0  0  0  0  0  0
   47.8113   10.3206   21.8846 C   0  0  0  0  0  0  0  0  0  0  0  0
   48.0449    5.2124   18.6233 C   0  0  0  0  0  0  0  0  0  0  0  0
   48.3151    5.0080   17.1360 C   0  0  0  0  0  0  0  0  0  0  0  0
   48.1784    3.5558   16.6824 C   0  0  0  0  0  0  0  0  0  0  0  0
   49.2161    2.6294   17.2974 C   0  0  0  0  0  0  0  0  0  0  0  0
   48.3095    8.7474   18.0273 H   0  0  0  0  0  0  0  0  0  0  0  0
   48.7249    8.1078   22.2770 H   0  0  0  0  0  0  0  0  0  0  0  0
   46.7763   12.3269   21.7604 H   0  0  0  0  0  0  0  0  0  0  0  0
   46.6246   12.5784   20.1003 H   0  0  0  0  0  0  0  0  0  0  0  0
   47.1558   10.8641   18.4663 H   0  0  0  0  0  0  0  0  0  0  0  0
   47.5630   10.2337   22.6994 H   0  0  0  0  0  0  0  0  0  0  0  0
   50.9344    5.2718   18.9631 H   0  0  0  0  0  0  0  0  0  0  0  0
   50.5546    5.6001   17.2776 H   0  0  0  0  0  0  0  0  0  0  0  0
   48.6675    4.2057   19.2533 H   0  0  0  0  0  0  0  0  0  0  0  0
   49.6394    3.3953   18.0201 H   0  0  0  0  0  0  0  0  0  0  0  0
   47.4210    5.4551   17.4965 H   0  0  0  0  0  0  0  0  0  0  0  0
   48.4054    4.6956   16.2438 H   0  0  0  0  0  0  0  0  0  0  0  0
   47.5422    2.4483   16.9247 H   0  0  0  0  0  0  0  0  0  0  0  0
   46.5593    3.2121   18.1899 H   0  0  0  0  0  0  0  0  0  0  0  0
   46.2258    3.5490   16.4824 H   0  0  0  0  0  0  0  0  0  0  0  0
   47.8729    4.8081   20.0775 H   0  0  0  0  0  0  0  0  0  0  0  0
   47.4063    9.0545   20.7901 H   0  0  0  0  0  0  0  0  0  0  0  0
   48.9056    6.9856   16.0893 H   0  0  0  0  0  0  0  0  0  0  0  0
   48.4871    8.9304   18.3330 H   0  0  0  0  0  0  0  0  0  0  0  0
   47.5134    8.2760   22.4885 H   0  0  0  0  0  0  0  0  0  0  0  0
   48.1376   13.1620   20.2787 H   0  0  0  0  0  0  0  0  0  0  0  0
   47.7606   12.9089   21.9027 H   0  0  0  0  0  0  0  0  0  0  0  0
   48.6337   11.3398   18.7550 H   0  0  0  0  0  0  0  0  0  0  0  0
   47.6653   10.6968   22.8939 H   0  0  0  0  0  0  0  0  0  0  0  0
   47.0466    4.8390   18.8797 H   0  0  0  0  0  0  0  0  0  0  0  0
   48.7994    4.6963   19.2268 H   0  0  0  0  0  0  0  0  0  0  0  0
   47.6156    5.6282   16.5608 H   0  0  0  0  0  0  0  0  0  0  0  0
   49.3142    5.3892   16.8900 H   0  0  0  0  0  0  0  0  0  0  0  0
   47.1738    3.1847   16.9168 H   0  0  0  0  0  0  0  0  0  0  0  0
   48.2827    3.5205   15.5913 H   0  0  0  0  0  0  0  0  0  0  0  0
   49.1266    1.6269   16.8666 H   0  0  0  0  0  0  0  0  0  0  0  0
   50.2305    2.9920   17.1038 H   0  0  0  0  0  0  0  0  0  0  0  0
   49.0812    2.5380   18.3792 H   0  0  0  0  0  0  0  0  0  0  0  0
  2  1  1  0
  3  1  2  0
  4  2  2  0
  5  2  1  0
  6 10  1  0
  7  1  1  0
  8  6  1  0
  9  4  1  0
 10  5  2  0
 11  7  1  0
 12 11  1  0
 13 12  1  0
 14 13  1  0
  9  6  2  0
 16 17  1  0
 17 15  2  0
 18 15  1  0
 19 16  1  0
 20 21  1  0
 21 23  2  0
 22 21  1  0
 23 15  1  0
 24 18  1  0
 25 19  1  0
 26 20  1  0
 27 18  2  0
 28 19  2  0
 29 20  2  0
 30 17  1  0
 22 16  2  0
 32 31  1  0
 33 31  2  0
 34 32  2  0
 35 32  1  0
 36 40  1  0
 37 31  1  0
 38 36  1  0
 39 34  1  0
 40 35  2  0
 41 37  1  0
 42 41  1  0
 43 42  1  0
 44 43  1  0
 39 36  2  0
  4 45  1  0
  5 46  1  0
  8 47  1  0
  8 48  1  0
  9 49  1  0
 10 50  1  0
 11 51  1  0
 11 52  1  0
 12 53  1  0
 12 54  1  0
 13 55  1  0
 13 56  1  0
 14 57  1  0
 14 58  1  0
 14 59  1  0
 22 60  1  0
 23 61  1  0
 30 62  1  0
 34 63  1  0
 35 64  1  0
 38 65  1  0
 38 66  1  0
 39 67  1  0
 40 68  1  0
 41 69  1  0
 41 70  1  0
 42 71  1  0
 42 72  1  0
 43 73  1  0
 43 74  1  0
 44 75  1  0
 44 76  1  0
 44 77  1  0
M  CHG  6  18   1  19   1  20   1  24  -1  25  -1  26  -1
M  END
> <Uni-Dock RESULT> 
ENERGY=   -5.736  LOWER_BOUND=    5.151  UPPER_BOUND=    8.532
INTER + INTRA:          -5.736
INTER:                  -5.736
INTRA:                   0.000
UNBOUND:                 0.000

$$$$

     RDKit          3D

 77 77  0  0  0  0  0  0  0  0999 V2000
   49.8705    5.9866   17.3181 C   0  0  0  0  0  0  0  0  0  0  0  0
   49.1683    5.8886   18.6267 C   0  0  0  0  0  0  0  0  0  0  0  0
   50.4304    5.0436   16.7818 O   0  0  0  0  0  0  0  0  0  0  0  0
   48.5049    6.9745   19.2096 C   0  0  0  0  0  0  0  0  0  0  0  0
   49.1573    4.6520   19.2823 C   0  0  0  0  0  0  0  0  0  0  0  0
   47.8948    5.6064   21.1263 C   0  0  0  0  0  0  0  0  0  0  0  0
   49.7913    7.2493   16.8299 O   0  0  0  0  0  0  0  0  0  0  0  0
   47.1448    5.4319   22.2935 N   0  0  0  0  0  0  0  0  0  0  0  0
   47.8572    6.8234   20.4412 C   0  0  0  0  0  0  0  0  0  0  0  0
   48.5061    4.5109   20.5122 C   0  0  0  0  0  0  0  0  0  0  0  0
   50.4210    7.4691   15.5588 C   0  0  0  0  0  0  0  0  0  0  0  0
   49.4823    7.1084   14.4090 C   0  0  0  0  0  0  0  0  0  0  0  0
   48.1894    7.9264   14.4386 C   0  0  0  0  0  0  0  0  0  0  0  0
   47.2900    7.5870   13.2604 C   0  0  0  0  0  0  0  0  0  0  0  0
   48.3346    7.0875   18.5626 C   0  0  0  0  0  0  0  0  0  0  0  0
   48.6184    7.1426   16.1783 C   0  0  0  0  0  0  0  0  0  0  0  0
   48.5359    7.8364   17.3967 C   0  0  0  0  0  0  0  0  0  0  0  0
   48.2512    7.7591   19.8416 N   0  0  0  0  0  0  0  0  0  0  0  0
   48.8292    7.8596   14.9141 N   0  0  0  0  0  0  0  0  0  0  0  0
   48.1642    3.5612   17.2925 N   0  0  0  0  0  0  0  0  0  0  0  0
   48.2914    5.0254   17.3312 C   0  0  0  0  0  0  0  0  0  0  0  0
   48.4979    5.7385   16.1394 C   0  0  0  0  0  0  0  0  0  0  0  0
   48.2069    5.6933   18.5559 C   0  0  0  0  0  0  0  0  0  0  0  0
   47.1190    7.8983   20.3203 O   0  0  0  0  0  0  0  0  0  0  0  0
   48.8666    7.1964   13.8712 O   0  0  0  0  0  0  0  0  0  0  0  0
   48.2157    3.0129   16.1848 O   0  0  0  0  0  0  0  0  0  0  0  0
   49.3203    8.0751   20.3773 O   0  0  0  0  0  0  0  0  0  0  0  0
   48.9564    9.0916   14.9745 O   0  0  0  0  0  0  0  0  0  0  0  0
   48.0150    2.9730   18.3707 O   0  0  0  0  0  0  0  0  0  0  0  0
   48.6272    9.1954   17.5151 O   0  0  0  0  0  0  0  0  0  0  0  0
   48.4886    5.4643   17.3185 C   0  0  0  0  0  0  0  0  0  0  0  0
   48.5472    5.5469   18.8032 C   0  0  0  0  0  0  0  0  0  0  0  0
   48.4210    4.4122   16.7027 O   0  0  0  0  0  0  0  0  0  0  0  0
   48.6420    6.7641   19.4875 C   0  0  0  0  0  0  0  0  0  0  0  0
   48.5260    4.3539   19.5348 C   0  0  0  0  0  0  0  0  0  0  0  0
   48.6158    5.5962   21.6213 C   0  0  0  0  0  0  0  0  0  0  0  0
   48.5166    6.7042   16.7690 O   0  0  0  0  0  0  0  0  0  0  0  0
   48.7925    5.6143   23.0082 N   0  0  0  0  0  0  0  0  0  0  0  0
   48.6966    6.7814   20.8860 C   0  0  0  0  0  0  0  0  0  0  0  0
   48.5813    4.3817   20.9323 C   0  0  0  0  0  0  0  0  0  0  0  0
   48.4625    6.7142   15.3350 C   0  0  0  0  0  0  0  0  0  0  0  0
   48.4787    8.1690   14.8765 C   0  0  0  0  0  0  0  0  0  0  0  0
   48.3273    8.3369   13.3658 C   0  0  0  0  0  0  0  0  0  0  0  0
   49.4946    7.7684   12.5737 C   0  0  0  0  0  0  0  0  0  0  0  0
   48.4687    7.9409   18.7138 H   0  0  0  0  0  0  0  0  0  0  0  0
   49.6427    3.7876   18.8333 H   0  0  0  0  0  0  0  0  0  0  0  0
   47.4560    4.6590   22.8735 H   0  0  0  0  0  0  0  0  0  0  0  0
   47.0077    6.2835   22.8287 H   0  0  0  0  0  0  0  0  0  0  0  0
   47.3196    7.6700   20.8610 H   0  0  0  0  0  0  0  0  0  0  0  0
   48.4822    3.5330   20.9865 H   0  0  0  0  0  0  0  0  0  0  0  0
   51.3619    6.9106   15.4869 H   0  0  0  0  0  0  0  0  0  0  0  0
   50.6815    8.5322   15.5104 H   0  0  0  0  0  0  0  0  0  0  0  0
   49.2273    6.0434   14.4615 H   0  0  0  0  0  0  0  0  0  0  0  0
   50.0040    7.2739   13.4592 H   0  0  0  0  0  0  0  0  0  0  0  0
   47.6426    7.7362   15.3693 H   0  0  0  0  0  0  0  0  0  0  0  0
   48.4259    8.9965   14.4137 H   0  0  0  0  0  0  0  0  0  0  0  0
   47.7906    7.8001   12.3105 H   0  0  0  0  0  0  0  0  0  0  0  0
   47.0109    6.5286   13.2724 H   0  0  0  0  0  0  0  0  0  0  0  0
   46.3718    8.1812   13.3012 H   0  0  0  0  0  0  0  0  0  0  0  0
   48.5630    5.2055   15.1896 H   0  0  0  0  0  0  0  0  0  0  0  0
   48.0467    5.1545   19.4895 H   0  0  0  0  0  0  0  0  0  0  0  0
   48.7937    9.6254   16.6471 H   0  0  0  0  0  0  0  0  0  0  0  0
   48.6887    7.7074   18.9496 H   0  0  0  0  0  0  0  0  0  0  0  0
   48.4802    3.3952   19.0217 H   0  0  0  0  0  0  0  0  0  0  0  0
   48.5024    6.4799   23.4522 H   0  0  0  0  0  0  0  0  0  0  0  0
   48.4242    4.7958   23.4830 H   0  0  0  0  0  0  0  0  0  0  0  0
   48.8035    7.7349   21.3973 H   0  0  0  0  0  0  0  0  0  0  0  0
   48.5969    3.4415   21.4777 H   0  0  0  0  0  0  0  0  0  0  0  0
   47.5407    6.2240   15.0006 H   0  0  0  0  0  0  0  0  0  0  0  0
   49.3317    6.1761   14.9415 H   0  0  0  0  0  0  0  0  0  0  0  0
   47.6642    8.7072   15.3781 H   0  0  0  0  0  0  0  0  0  0  0  0
   49.4028    8.6505   15.2204 H   0  0  0  0  0  0  0  0  0  0  0  0
   47.3955    7.8674   13.0297 H   0  0  0  0  0  0  0  0  0  0  0  0
   48.2420    9.4069   13.1412 H   0  0  0  0  0  0  0  0  0  0  0  0
   49.3745    7.9992   11.5103 H   0  0  0  0  0  0  0  0  0  0  0  0
   50.4436    8.1987   12.9086 H   0  0  0  0  0  0  0  0  0  0  0  0
   49.5536    6.6804   12.6715 H   0  0  0  0  0  0  0  0  0  0  0  0
  2  1  1  0
  3  1  2  0
  4  2  2  0
  5  2  1  0
  6 10  1  0
  7  1  1  0
  8  6  1  0
  9  4  1  0
 10  5  2  0
 11  7  1  0
 12 11  1  0
 13 12  1  0
 14 13  1  0
  9  6  2  0
 16 17  1  0
 17 15  2  0
 18 15  1  0
 19 16  1  0
 20 21  1  0
 21 23  2  0
 22 21  1  0
 23 15  1  0
 24 18  1  0
 25 19  1  0
 26 20  1  0
 27 18  2  0
 28 19  2  0
 29 20  2  0
 30 17  1  0
 22 16  2  0
 32 31  1  0
 33 31  2  0
 34 32  2  0
 35 32  1  0
 36 40  1  0
 37 31  1  0
 38 36  1  0
 39 34  1  0
 40 35  2  0
 41 37  1  0
 42 41  1  0
 43 42  1  0
 44 43  1  0
 39 36  2  0
  4 45  1  0
  5 46  1  0
  8 47  1  0
  8 48  1  0
  9 49  1  0
 10 50  1  0
 11 51  1  0
 11 52  1  0
 12 53  1  0
 12 54  1  0
 13 55  1  0
 13 56  1  0
 14 57  1  0
 14 58  1  0
 14 59  1  0
 22 60  1  0
 23 61  1  0
 30 62  1  0
 34 63  1  0
 35 64  1  0
 38 65  1  0
 38 66  1  0
 39 67  1  0
 40 68  1  0
 41 69  1  0
 41 70  1  0
 42 71  1  0
 42 72  1  0
 43 73  1  0
 43 74  1  0
 44 75  1  0
 44 76  1  0
 44 77  1  0
M  CHG  6  18   1  19   1  20   1  24  -1  25  -1  26  -1
M  END
> <Uni-Dock RESULT> 
ENERGY=   -5.561  LOWER_BOUND=    3.868  UPPER_BOUND=    7.009
INTER + INTRA:          -5.561
INTER:                  -5.561
INTRA:                   0.000
UNBOUND:                 0.000

$$$$

     RDKit          3D

 77 77  0  0  0  0  0  0  0  0999 V2000
   49.4509    9.7730   17.6054 C   0  0  0  0  0  0  0  0  0  0  0  0
   48.7403   10.7872   18.4310 C   0  0  0  0  0  0  0  0  0  0  0  0
   49.8295    8.6966   18.0393 O   0  0  0  0  0  0  0  0  0  0  0  0
   48.2861   12.0027   17.9063 C   0  0  0  0  0  0  0  0  0  0  0  0
   48.5017   10.4957   19.7790 C   0  0  0  0  0  0  0  0  0  0  0  0
   47.4323   12.6557   20.0885 C   0  0  0  0  0  0  0  0  0  0  0  0
   49.6053   10.2190   16.3341 O   0  0  0  0  0  0  0  0  0  0  0  0
   46.6609   13.5191   20.8725 N   0  0  0  0  0  0  0  0  0  0  0  0
   47.6194   12.9180   18.7290 C   0  0  0  0  0  0  0  0  0  0  0  0
   47.8335   11.4165   20.5928 C   0  0  0  0  0  0  0  0  0  0  0  0
   50.2668    9.3198   15.4317 C   0  0  0  0  0  0  0  0  0  0  0  0
   49.2799    8.3262   14.8216 C   0  0  0  0  0  0  0  0  0  0  0  0
   48.1588    9.0242   14.0487 C   0  0  0  0  0  0  0  0  0  0  0  0
   47.2145    8.0181   13.4097 C   0  0  0  0  0  0  0  0  0  0  0  0
   48.1405   11.6035   17.3772 C   0  0  0  0  0  0  0  0  0  0  0  0
   48.4338    9.7940   15.8254 C   0  0  0  0  0  0  0  0  0  0  0  0
   48.4777   11.1730   16.0882 C   0  0  0  0  0  0  0  0  0  0  0  0
   48.1793   13.0145   17.6958 N   0  0  0  0  0  0  0  0  0  0  0  0
   48.7746    9.2673   14.4976 N   0  0  0  0  0  0  0  0  0  0  0  0
   47.3291    8.4035   19.1602 N   0  0  0  0  0  0  0  0  0  0  0  0
   47.7224    9.3544   18.1100 C   0  0  0  0  0  0  0  0  0  0  0  0
   48.0582    8.8807   16.8315 C   0  0  0  0  0  0  0  0  0  0  0  0
   47.7596   10.7218   18.3959 C   0  0  0  0  0  0  0  0  0  0  0  0
   47.0909   13.6005   17.7443 O   0  0  0  0  0  0  0  0  0  0  0  0
   48.6917    8.0465   14.3197 O   0  0  0  0  0  0  0  0  0  0  0  0
   47.2812    7.2054   18.8564 O   0  0  0  0  0  0  0  0  0  0  0  0
   49.2873   13.4976   17.9582 O   0  0  0  0  0  0  0  0  0  0  0  0
   49.1253   10.0861   13.6349 O   0  0  0  0  0  0  0  0  0  0  0  0
   47.0728    8.8640   20.2795 O   0  0  0  0  0  0  0  0  0  0  0  0
   48.8162   12.1213   15.1634 O   0  0  0  0  0  0  0  0  0  0  0  0
   47.9966    9.6021   17.8017 C   0  0  0  0  0  0  0  0  0  0  0  0
   48.0668   10.7759   18.7137 C   0  0  0  0  0  0  0  0  0  0  0  0
   47.7386    8.4694   18.1772 O   0  0  0  0  0  0  0  0  0  0  0  0
   48.3818   12.0631   18.2633 C   0  0  0  0  0  0  0  0  0  0  0  0
   47.8261   10.5713   20.0772 C   0  0  0  0  0  0  0  0  0  0  0  0
   48.1383   12.9403   20.5191 C   0  0  0  0  0  0  0  0  0  0  0  0
   48.2524    9.9743   16.5226 O   0  0  0  0  0  0  0  0  0  0  0  0
   48.3129   13.9846   21.4323 N   0  0  0  0  0  0  0  0  0  0  0  0
   48.4362   13.1301   19.1675 C   0  0  0  0  0  0  0  0  0  0  0  0
   47.8831   11.6442   20.9730 C   0  0  0  0  0  0  0  0  0  0  0  0
   48.2035    8.8977   15.5750 C   0  0  0  0  0  0  0  0  0  0  0  0
   48.4868    9.4779   14.1929 C   0  0  0  0  0  0  0  0  0  0  0  0
   48.3714    8.4555   13.0639 C   0  0  0  0  0  0  0  0  0  0  0  0
   49.4161    7.3526   13.1371 C   0  0  0  0  0  0  0  0  0  0  0  0
   48.4284   12.2483   16.8572 H   0  0  0  0  0  0  0  0  0  0  0  0
   48.8214    9.5447   20.2005 H   0  0  0  0  0  0  0  0  0  0  0  0
   46.8242   13.4288   21.8705 H   0  0  0  0  0  0  0  0  0  0  0  0
   46.6813   14.4865   20.5655 H   0  0  0  0  0  0  0  0  0  0  0  0
   47.2454   13.8417   18.2946 H   0  0  0  0  0  0  0  0  0  0  0  0
   47.6301   11.1542   21.6280 H   0  0  0  0  0  0  0  0  0  0  0  0
   51.0895    8.7971   15.9339 H   0  0  0  0  0  0  0  0  0  0  0  0
   50.7177    9.9322   14.6431 H   0  0  0  0  0  0  0  0  0  0  0  0
   48.8340    7.7150   15.6151 H   0  0  0  0  0  0  0  0  0  0  0  0
   49.8248    7.6490   14.1536 H   0  0  0  0  0  0  0  0  0  0  0  0
   47.5847    9.6740   14.7192 H   0  0  0  0  0  0  0  0  0  0  0  0
   48.5874    9.6618   13.2668 H   0  0  0  0  0  0  0  0  0  0  0  0
   47.7473    7.3737   12.7032 H   0  0  0  0  0  0  0  0  0  0  0  0
   46.7461    7.3831   14.1686 H   0  0  0  0  0  0  0  0  0  0  0  0
   46.4206    8.5372   12.8638 H   0  0  0  0  0  0  0  0  0  0  0  0
   48.0261    7.8106   16.6210 H   0  0  0  0  0  0  0  0  0  0  0  0
   47.5017   11.1053   19.3828 H   0  0  0  0  0  0  0  0  0  0  0  0
   49.0602   11.7173   14.3012 H   0  0  0  0  0  0  0  0  0  0  0  0
   48.6015   12.2522   17.2157 H   0  0  0  0  0  0  0  0  0  0  0  0
   47.6064    9.5737   20.4529 H   0  0  0  0  0  0  0  0  0  0  0  0
   48.1855   14.9097   21.0340 H   0  0  0  0  0  0  0  0  0  0  0  0
   47.8001   13.8652   22.3005 H   0  0  0  0  0  0  0  0  0  0  0  0
   48.7151   14.1157   18.8030 H   0  0  0  0  0  0  0  0  0  0  0  0
   47.7253   11.4554   22.0318 H   0  0  0  0  0  0  0  0  0  0  0  0
   47.2081    8.4388   15.5942 H   0  0  0  0  0  0  0  0  0  0  0  0
   48.9601    8.1522   15.8428 H   0  0  0  0  0  0  0  0  0  0  0  0
   47.7838   10.2991   14.0030 H   0  0  0  0  0  0  0  0  0  0  0  0
   49.4829    9.9383   14.1867 H   0  0  0  0  0  0  0  0  0  0  0  0
   47.3699    8.0097   13.0652 H   0  0  0  0  0  0  0  0  0  0  0  0
   48.4840    8.9792   12.1071 H   0  0  0  0  0  0  0  0  0  0  0  0
   49.3423    6.7065   12.2563 H   0  0  0  0  0  0  0  0  0  0  0  0
   50.4274    7.7704   13.1667 H   0  0  0  0  0  0  0  0  0  0  0  0
   49.2747    6.7241   14.0213 H   0  0  0  0  0  0  0  0  0  0  0  0
  2  1  1  0
  3  1  2  0
  4  2  2  0
  5  2  1  0
  6 10  1  0
  7  1  1  0
  8  6  1  0
  9  4  1  0
 10  5  2  0
 11  7  1  0
 12 11  1  0
 13 12  1  0
 14 13  1  0
  9  6  2  0
 16 17  1  0
 17 15  2  0
 18 15  1  0
 19 16  1  0
 20 21  1  0
 21 23  2  0
 22 21  1  0
 23 15  1  0
 24 18  1  0
 25 19  1  0
 26 20  1  0
 27 18  2  0
 28 19  2  0
 29 20  2  0
 30 17  1  0
 22 16  2  0
 32 31  1  0
 33 31  2  0
 34 32  2  0
 35 32  1  0
 36 40  1  0
 37 31  1  0
 38 36  1  0
 39 34  1  0
 40 35  2  0
 41 37  1  0
 42 41  1  0
 43 42  1  0
 44 43  1  0
 39 36  2  0
  4 45  1  0
  5 46  1  0
  8 47  1  0
  8 48  1  0
  9 49  1  0
 10 50  1  0
 11 51  1  0
 11 52  1  0
 12 53  1  0
 12 54  1  0
 13 55  1  0
 13 56  1  0
 14 57  1  0
 14 58  1  0
 14 59  1  0
 22 60  1  0
 23 61  1  0
 30 62  1  0
 34 63  1  0
 35 64  1  0
 38 65  1  0
 38 66  1  0
 39 67  1  0
 40 68  1  0
 41 69  1  0
 41 70  1  0
 42 71  1  0
 42 72  1  0
 43 73  1  0
 43 74  1  0
 44 75  1  0
 44 76  1  0
 44 77  1  0
M  CHG  6  18   1  19   1  20   1  24  -1  25  -1  26  -1
M  END
> <Uni-Dock RESULT> 
ENERGY=   -5.447  LOWER_BOUND=    3.655  UPPER_BOUND=    8.139
INTER + INTRA:          -5.447
INTER:                  -5.447
INTRA:                   0.000
UNBOUND:                 0.000

$$$$

     RDKit          3D

 77 77  0  0  0  0  0  0  0  0999 V2000
   49.3089    8.7468   18.8293 C   0  0  0  0  0  0  0  0  0  0  0  0
   48.7110    7.4387   18.4464 C   0  0  0  0  0  0  0  0  0  0  0  0
   50.1033    9.3549   18.1297 O   0  0  0  0  0  0  0  0  0  0  0  0
   47.7772    6.7727   19.2487 C   0  0  0  0  0  0  0  0  0  0  0  0
   49.0865    6.8706   17.2236 C   0  0  0  0  0  0  0  0  0  0  0  0
   47.6617    4.9477   17.6445 C   0  0  0  0  0  0  0  0  0  0  0  0
   48.8451    9.1449   20.0399 O   0  0  0  0  0  0  0  0  0  0  0  0
   47.0359    3.7854   17.1833 N   0  0  0  0  0  0  0  0  0  0  0  0
   47.2444    5.5459   18.8361 C   0  0  0  0  0  0  0  0  0  0  0  0
   48.5474    5.6448   16.8196 C   0  0  0  0  0  0  0  0  0  0  0  0
   49.3391   10.4061   20.5151 C   0  0  0  0  0  0  0  0  0  0  0  0
   48.5102   11.5653   19.9652 C   0  0  0  0  0  0  0  0  0  0  0  0
   47.0355   11.4612   20.3603 C   0  0  0  0  0  0  0  0  0  0  0  0
   46.2369   12.6479   19.8441 C   0  0  0  0  0  0  0  0  0  0  0  0
   47.5596    7.4079   19.3464 C   0  0  0  0  0  0  0  0  0  0  0  0
   47.7344    9.7863   19.6316 C   0  0  0  0  0  0  0  0  0  0  0  0
   47.4922    8.5216   20.1925 C   0  0  0  0  0  0  0  0  0  0  0  0
   47.3251    6.0844   19.8820 N   0  0  0  0  0  0  0  0  0  0  0  0
   47.6822   11.0004   20.4563 N   0  0  0  0  0  0  0  0  0  0  0  0
   48.3924    8.9177   16.0141 N   0  0  0  0  0  0  0  0  0  0  0  0
   48.0841    8.7790   17.4450 C   0  0  0  0  0  0  0  0  0  0  0  0
   48.0314    9.9210   18.2601 C   0  0  0  0  0  0  0  0  0  0  0  0
   47.8479    7.5098   17.9801 C   0  0  0  0  0  0  0  0  0  0  0  0
   46.2188    5.5818   19.6496 O   0  0  0  0  0  0  0  0  0  0  0  0
   47.8781   12.0873   19.9004 O   0  0  0  0  0  0  0  0  0  0  0  0
   48.5658   10.0614   15.5759 O   0  0  0  0  0  0  0  0  0  0  0  0
   48.2711    5.5426   20.4663 O   0  0  0  0  0  0  0  0  0  0  0  0
   47.4430   10.8561   21.6645 O   0  0  0  0  0  0  0  0  0  0  0  0
   48.4593    7.8811   15.3420 O   0  0  0  0  0  0  0  0  0  0  0  0
   47.1833    8.3102   21.5074 O   0  0  0  0  0  0  0  0  0  0  0  0
   48.1428    8.7639   17.9224 C   0  0  0  0  0  0  0  0  0  0  0  0
   48.2243    7.2780   17.9259 C   0  0  0  0  0  0  0  0  0  0  0  0
   48.3674    9.4504   16.9381 O   0  0  0  0  0  0  0  0  0  0  0  0
   47.9794    6.5120   19.0714 C   0  0  0  0  0  0  0  0  0  0  0  0
   48.5798    6.6309   16.7369 C   0  0  0  0  0  0  0  0  0  0  0  0
   48.3698    4.4645   17.8173 C   0  0  0  0  0  0  0  0  0  0  0  0
   47.7861    9.2262   19.1468 O   0  0  0  0  0  0  0  0  0  0  0  0
   48.5798    3.0822   17.8003 N   0  0  0  0  0  0  0  0  0  0  0  0
   48.0734    5.1166   19.0168 C   0  0  0  0  0  0  0  0  0  0  0  0
   48.6714    5.2357   16.6925 C   0  0  0  0  0  0  0  0  0  0  0  0
   47.6833   10.6552   19.2298 C   0  0  0  0  0  0  0  0  0  0  0  0
   47.2551   11.0116   20.6498 C   0  0  0  0  0  0  0  0  0  0  0  0
   47.0104   12.5048   20.8593 C   0  0  0  0  0  0  0  0  0  0  0  0
   48.2660   13.3503   20.7124 C   0  0  0  0  0  0  0  0  0  0  0  0
   47.4414    7.1996   20.1900 H   0  0  0  0  0  0  0  0  0  0  0  0
   49.7895    7.3852   16.5714 H   0  0  0  0  0  0  0  0  0  0  0  0
   47.5801    3.2648   16.5025 H   0  0  0  0  0  0  0  0  0  0  0  0
   46.6722    3.1904   17.9210 H   0  0  0  0  0  0  0  0  0  0  0  0
   46.4958    5.0610   19.4577 H   0  0  0  0  0  0  0  0  0  0  0  0
   48.8285    5.2393   15.8509 H   0  0  0  0  0  0  0  0  0  0  0  0
   50.3997   10.5295   20.2658 H   0  0  0  0  0  0  0  0  0  0  0  0
   49.2732   10.3840   21.6085 H   0  0  0  0  0  0  0  0  0  0  0  0
   48.5820   11.5835   18.8713 H   0  0  0  0  0  0  0  0  0  0  0  0
   48.9278   12.5083   20.3366 H   0  0  0  0  0  0  0  0  0  0  0  0
   46.6005   10.5387   19.9591 H   0  0  0  0  0  0  0  0  0  0  0  0
   46.9455   11.4149   21.4518 H   0  0  0  0  0  0  0  0  0  0  0  0
   46.6204   13.5874   20.2546 H   0  0  0  0  0  0  0  0  0  0  0  0
   46.2823   12.7057   18.7518 H   0  0  0  0  0  0  0  0  0  0  0  0
   45.1863   12.5534   20.1361 H   0  0  0  0  0  0  0  0  0  0  0  0
   48.2186   10.9064   17.8306 H   0  0  0  0  0  0  0  0  0  0  0  0
   47.8849    6.6139   17.3609 H   0  0  0  0  0  0  0  0  0  0  0  0
   47.1865    9.1485   22.0207 H   0  0  0  0  0  0  0  0  0  0  0  0
   47.7282    6.9836   20.0179 H   0  0  0  0  0  0  0  0  0  0  0  0
   48.8012    7.2087   15.8415 H   0  0  0  0  0  0  0  0  0  0  0  0
   48.0628    2.5752   18.5118 H   0  0  0  0  0  0  0  0  0  0  0  0
   48.4851    2.6605   16.8815 H   0  0  0  0  0  0  0  0  0  0  0  0
   47.9119    4.5418   19.9253 H   0  0  0  0  0  0  0  0  0  0  0  0
   48.9814    4.7573   15.7670 H   0  0  0  0  0  0  0  0  0  0  0  0
   46.9360   11.0103   18.5106 H   0  0  0  0  0  0  0  0  0  0  0  0
   48.6587   11.0969   18.9988 H   0  0  0  0  0  0  0  0  0  0  0  0
   46.3355   10.4627   20.8904 H   0  0  0  0  0  0  0  0  0  0  0  0
   48.0074   10.6476   21.3609 H   0  0  0  0  0  0  0  0  0  0  0  0
   46.2473   12.8599   20.1569 H   0  0  0  0  0  0  0  0  0  0  0  0
   46.6063   12.6532   21.8679 H   0  0  0  0  0  0  0  0  0  0  0  0
   48.0476   14.3933   20.9632 H   0  0  0  0  0  0  0  0  0  0  0  0
   49.0569   12.9992   21.3826 H   0  0  0  0  0  0  0  0  0  0  0  0
   48.6460   13.3292   19.6868 H   0  0  0  0  0  0  0  0  0  0  0  0
  2  1  1  0
  3  1  2  0
  4  2  2  0
  5  2  1  0
  6 10  1  0
  7  1  1  0
  8  6  1  0
  9  4  1  0
 10  5  2  0
 11  7  1  0
 12 11  1  0
 13 12  1  0
 14 13  1  0
  9  6  2  0
 16 17  1  0
 17 15  2  0
 18 15  1  0
 19 16  1  0
 20 21  1  0
 21 23  2  0
 22 21  1  0
 23 15  1  0
 24 18  1  0
 25 19  1  0
 26 20  1  0
 27 18  2  0
 28 19  2  0
 29 20  2  0
 30 17  1  0
 22 16  2  0
 32 31  1  0
 33 31  2  0
 34 32  2  0
 35 32  1  0
 36 40  1  0
 37 31  1  0
 38 36  1  0
 39 34  1  0
 40 35  2  0
 41 37  1  0
 42 41  1  0
 43 42  1  0
 44 43  1  0
 39 36  2  0
  4 45  1  0
  5 46  1  0
  8 47  1  0
  8 48  1  0
  9 49  1  0
 10 50  1  0
 11 51  1  0
 11 52  1  0
 12 53  1  0
 12 54  1  0
 13 55  1  0
 13 56  1  0
 14 57  1  0
 14 58  1  0
 14 59  1  0
 22 60  1  0
 23 61  1  0
 30 62  1  0
 34 63  1  0
 35 64  1  0
 38 65  1  0
 38 66  1  0
 39 67  1  0
 40 68  1  0
 41 69  1  0
 41 70  1  0
 42 71  1  0
 42 72  1  0
 43 73  1  0
 43 74  1  0
 44 75  1  0
 44 76  1  0
 44 77  1  0
M  CHG  6  18   1  19   1  20   1  24  -1  25  -1  26  -1
M  END
> <Uni-Dock RESULT> 
ENERGY=   -5.434  LOWER_BOUND=    4.681  UPPER_BOUND=    6.540
INTER + INTRA:          -5.434
INTER:                  -5.434
INTRA:                   0.000
UNBOUND:                 0.000

$$$$

     RDKit          3D

 77 77  0  0  0  0  0  0  0  0999 V2000
   48.8415   10.0006   19.6025 C   0  0  0  0  0  0  0  0  0  0  0  0
   48.5576   11.1093   18.6509 C   0  0  0  0  0  0  0  0  0  0  0  0
   48.5603   10.0433   20.7897 O   0  0  0  0  0  0  0  0  0  0  0  0
   48.8593   11.0277   17.2866 C   0  0  0  0  0  0  0  0  0  0  0  0
   47.9444   12.2663   19.1449 C   0  0  0  0  0  0  0  0  0  0  0  0
   48.0083   13.2797   16.9372 C   0  0  0  0  0  0  0  0  0  0  0  0
   49.4419    8.9669   18.9621 O   0  0  0  0  0  0  0  0  0  0  0  0
   47.6083   14.2956   16.0636 N   0  0  0  0  0  0  0  0  0  0  0  0
   48.5660   12.1005   16.4367 C   0  0  0  0  0  0  0  0  0  0  0  0
   47.6541   13.3326   18.2873 C   0  0  0  0  0  0  0  0  0  0  0  0
   49.7545    7.8250   19.7738 C   0  0  0  0  0  0  0  0  0  0  0  0
   48.5561    6.8846   19.8869 C   0  0  0  0  0  0  0  0  0  0  0  0
   48.0892    6.3748   18.5217 C   0  0  0  0  0  0  0  0  0  0  0  0
   46.9269    5.4040   18.6589 C   0  0  0  0  0  0  0  0  0  0  0  0
   48.6488   10.3897   17.3818 C   0  0  0  0  0  0  0  0  0  0  0  0
   48.3391    8.3143   18.5502 C   0  0  0  0  0  0  0  0  0  0  0  0
   48.9873    9.0400   17.5373 C   0  0  0  0  0  0  0  0  0  0  0  0
   49.2968   11.1787   16.3564 N   0  0  0  0  0  0  0  0  0  0  0  0
   48.6421    6.8949   18.7740 N   0  0  0  0  0  0  0  0  0  0  0  0
   46.0608   10.9322   20.0436 N   0  0  0  0  0  0  0  0  0  0  0  0
   47.0637   10.2867   19.1839 C   0  0  0  0  0  0  0  0  0  0  0  0
   47.3781    8.9319   19.3764 C   0  0  0  0  0  0  0  0  0  0  0  0
   47.6959   11.0300   18.1834 C   0  0  0  0  0  0  0  0  0  0  0  0
   48.6399   11.4011   15.3321 O   0  0  0  0  0  0  0  0  0  0  0  0
   48.0198    6.3028   19.6634 O   0  0  0  0  0  0  0  0  0  0  0  0
   45.5044   10.2308   20.8972 O   0  0  0  0  0  0  0  0  0  0  0  0
   50.4225   11.6191   16.6185 O   0  0  0  0  0  0  0  0  0  0  0  0
   49.5077    6.3784   18.0518 O   0  0  0  0  0  0  0  0  0  0  0  0
   45.8397   12.1352   19.8578 O   0  0  0  0  0  0  0  0  0  0  0  0
   49.9172    8.5098   16.6867 O   0  0  0  0  0  0  0  0  0  0  0  0
   47.4786   10.0902   19.0394 C   0  0  0  0  0  0  0  0  0  0  0  0
   47.9208   11.3541   18.3901 C   0  0  0  0  0  0  0  0  0  0  0  0
   46.6385   10.0433   19.9241 O   0  0  0  0  0  0  0  0  0  0  0  0
   48.8987   11.3857   17.3892 C   0  0  0  0  0  0  0  0  0  0  0  0
   47.3443   12.5558   18.8174 C   0  0  0  0  0  0  0  0  0  0  0  0
   48.6618   13.7992   17.1978 C   0  0  0  0  0  0  0  0  0  0  0  0
   48.1316    9.0262   18.5089 O   0  0  0  0  0  0  0  0  0  0  0  0
   49.1306   15.0218   16.7074 N   0  0  0  0  0  0  0  0  0  0  0  0
   49.2776   12.6049   16.8155 C   0  0  0  0  0  0  0  0  0  0  0  0
   47.7300   13.7692   18.2379 C   0  0  0  0  0  0  0  0  0  0  0  0
   47.7615    7.7631   19.0810 C   0  0  0  0  0  0  0  0  0  0  0  0
   48.5586    6.6753   18.3681 C   0  0  0  0  0  0  0  0  0  0  0  0
   48.1941    5.2593   18.8103 C   0  0  0  0  0  0  0  0  0  0  0  0
   48.5409    4.9708   20.2627 C   0  0  0  0  0  0  0  0  0  0  0  0
   49.3086   10.1328   16.8645 H   0  0  0  0  0  0  0  0  0  0  0  0
   47.6756   12.3395   20.1969 H   0  0  0  0  0  0  0  0  0  0  0  0
   47.5049   15.2039   16.5051 H   0  0  0  0  0  0  0  0  0  0  0  0
   48.1523   14.3437   15.2079 H   0  0  0  0  0  0  0  0  0  0  0  0
   48.7777   12.0044   15.3747 H   0  0  0  0  0  0  0  0  0  0  0  0
   47.1474   14.2073   18.6871 H   0  0  0  0  0  0  0  0  0  0  0  0
   50.1051    8.1346   20.7655 H   0  0  0  0  0  0  0  0  0  0  0  0
   50.5916    7.3089   19.2909 H   0  0  0  0  0  0  0  0  0  0  0  0
   47.7230    7.4059   20.3728 H   0  0  0  0  0  0  0  0  0  0  0  0
   48.8291    6.0365   20.5257 H   0  0  0  0  0  0  0  0  0  0  0  0
   47.7776    7.2149   17.8905 H   0  0  0  0  0  0  0  0  0  0  0  0
   48.9180    5.8731   18.0089 H   0  0  0  0  0  0  0  0  0  0  0  0
   47.2131    4.5309   19.2541 H   0  0  0  0  0  0  0  0  0  0  0  0
   46.0700    5.8840   19.1424 H   0  0  0  0  0  0  0  0  0  0  0  0
   46.6080    5.0529   17.6726 H   0  0  0  0  0  0  0  0  0  0  0  0
   46.8782    8.3626   20.1616 H   0  0  0  0  0  0  0  0  0  0  0  0
   47.4630   12.0820   18.0211 H   0  0  0  0  0  0  0  0  0  0  0  0
   50.1034    7.5672   16.8939 H   0  0  0  0  0  0  0  0  0  0  0  0
   49.3866   10.4744   17.0533 H   0  0  0  0  0  0  0  0  0  0  0  0
   46.6019   12.5569   19.6132 H   0  0  0  0  0  0  0  0  0  0  0  0
   49.5464   14.9661   15.7829 H   0  0  0  0  0  0  0  0  0  0  0  0
   48.4619   15.7821   16.7837 H   0  0  0  0  0  0  0  0  0  0  0  0
   50.0625   12.6117   16.0633 H   0  0  0  0  0  0  0  0  0  0  0  0
   47.2928   14.6927   18.6089 H   0  0  0  0  0  0  0  0  0  0  0  0
   46.6873    7.5979   18.9381 H   0  0  0  0  0  0  0  0  0  0  0  0
   47.9953    7.7740   20.1510 H   0  0  0  0  0  0  0  0  0  0  0  0
   48.3914    6.7650   17.2870 H   0  0  0  0  0  0  0  0  0  0  0  0
   49.6316    6.8532   18.5138 H   0  0  0  0  0  0  0  0  0  0  0  0
   47.1244    5.0818   18.6486 H   0  0  0  0  0  0  0  0  0  0  0  0
   48.7333    4.5465   18.1749 H   0  0  0  0  0  0  0  0  0  0  0  0
   48.3431    3.9191   20.4940 H   0  0  0  0  0  0  0  0  0  0  0  0
   49.5992    5.1679   20.4607 H   0  0  0  0  0  0  0  0  0  0  0  0
   47.9412    5.5785   20.9467 H   0  0  0  0  0  0  0  0  0  0  0  0
  2  1  1  0
  3  1  2  0
  4  2  2  0
  5  2  1  0
  6 10  1  0
  7  1  1  0
  8  6  1  0
  9  4  1  0
 10  5  2  0
 11  7  1  0
 12 11  1  0
 13 12  1  0
 14 13  1  0
  9  6  2  0
 16 17  1  0
 17 15  2  0
 18 15  1  0
 19 16  1  0
 20 21  1  0
 21 23  2  0
 22 21  1  0
 23 15  1  0
 24 18  1  0
 25 19  1  0
 26 20  1  0
 27 18  2  0
 28 19  2  0
 29 20  2  0
 30 17  1  0
 22 16  2  0
 32 31  1  0
 33 31  2  0
 34 32  2  0
 35 32  1  0
 36 40  1  0
 37 31  1  0
 38 36  1  0
 39 34  1  0
 40 35  2  0
 41 37  1  0
 42 41  1  0
 43 42  1  0
 44 43  1  0
 39 36  2  0
  4 45  1  0
  5 46  1  0
  8 47  1  0
  8 48  1  0
  9 49  1  0
 10 50  1  0
 11 51  1  0
 11 52  1  0
 12 53  1  0
 12 54  1  0
 13 55  1  0
 13 56  1  0
 14 57  1  0
 14 58  1  0
 14 59  1  0
 22 60  1  0
 23 61  1  0
 30 62  1  0
 34 63  1  0
 35 64  1  0
 38 65  1  0
 38 66  1  0
 39 67  1  0
 40 68  1  0
 41 69  1  0
 41 70  1  0
 42 71  1  0
 42 72  1  0
 43 73  1  0
 43 74  1  0
 44 75  1  0
 44 76  1  0
 44 77  1  0
M  CHG  6  18   1  19   1  20   1  24  -1  25  -1  26  -1
M  END
> <Uni-Dock RESULT> 
ENERGY=   -5.318  LOWER_BOUND=    5.762  UPPER_BOUND=    8.135
INTER + INTRA:          -5.318
INTER:                  -5.318
INTRA:                   0.000
UNBOUND:                 0.000

$$$$

     RDKit          3D

 77 77  0  0  0  0  0  0  0  0999 V2000
   48.5764   10.2275   13.2005 C   0  0  0  0  0  0  0  0  0  0  0  0
   47.8406    8.9740   12.8801 C   0  0  0  0  0  0  0  0  0  0  0  0
   49.7186   10.2468   13.6307 O   0  0  0  0  0  0  0  0  0  0  0  0
   46.5422    8.9745   12.3573 C   0  0  0  0  0  0  0  0  0  0  0  0
   48.4889    7.7520   13.0923 C   0  0  0  0  0  0  0  0  0  0  0  0
   46.5214    6.5421   12.3370 C   0  0  0  0  0  0  0  0  0  0  0  0
   47.8021   11.3113   12.9454 O   0  0  0  0  0  0  0  0  0  0  0  0
   45.9214    5.3446   11.9355 N   0  0  0  0  0  0  0  0  0  0  0  0
   45.8996    7.7645   12.0707 C   0  0  0  0  0  0  0  0  0  0  0  0
   47.8387    6.5480   12.8016 C   0  0  0  0  0  0  0  0  0  0  0  0
   48.4080   12.5871   13.2014 C   0  0  0  0  0  0  0  0  0  0  0  0
   49.2292   13.0578   12.0025 C   0  0  0  0  0  0  0  0  0  0  0  0
   48.3814   13.1881   10.7353 C   0  0  0  0  0  0  0  0  0  0  0  0
   49.2057   13.7028    9.5657 C   0  0  0  0  0  0  0  0  0  0  0  0
   46.7890    9.5060   12.0152 C   0  0  0  0  0  0  0  0  0  0  0  0
   48.1080   11.4787   11.6453 C   0  0  0  0  0  0  0  0  0  0  0  0
   46.8490   10.8971   11.8673 C   0  0  0  0  0  0  0  0  0  0  0  0
   45.5144    8.8639   12.2535 N   0  0  0  0  0  0  0  0  0  0  0  0
   48.2502   12.9312   11.4813 N   0  0  0  0  0  0  0  0  0  0  0  0
   50.3710    8.4533   11.6428 N   0  0  0  0  0  0  0  0  0  0  0  0
   49.1630    9.2879   11.7204 C   0  0  0  0  0  0  0  0  0  0  0  0
   49.2675   10.6802   11.5719 C   0  0  0  0  0  0  0  0  0  0  0  0
   47.9216    8.6860   11.9432 C   0  0  0  0  0  0  0  0  0  0  0  0
   44.9934    8.2935   11.2872 O   0  0  0  0  0  0  0  0  0  0  0  0
   49.3807   13.3816   11.2620 O   0  0  0  0  0  0  0  0  0  0  0  0
   51.4449    9.0234   11.4153 O   0  0  0  0  0  0  0  0  0  0  0  0
   45.0884    8.8815   13.4145 O   0  0  0  0  0  0  0  0  0  0  0  0
   47.2208   13.6164   11.5736 O   0  0  0  0  0  0  0  0  0  0  0  0
   50.2344    7.2353   11.8112 O   0  0  0  0  0  0  0  0  0  0  0  0
   45.6786   11.6004   11.9358 O   0  0  0  0  0  0  0  0  0  0  0  0
   48.8342    9.5956   11.8902 C   0  0  0  0  0  0  0  0  0  0  0  0
   47.9460    8.4907   12.3427 C   0  0  0  0  0  0  0  0  0  0  0  0
   50.0328    9.4636   11.6994 O   0  0  0  0  0  0  0  0  0  0  0  0
   46.5768    8.6695   12.5719 C   0  0  0  0  0  0  0  0  0  0  0  0
   48.5148    7.2311   12.5639 C   0  0  0  0  0  0  0  0  0  0  0  0
   46.3429    6.3218   13.1643 C   0  0  0  0  0  0  0  0  0  0  0  0
   48.1261   10.7404   11.7227 O   0  0  0  0  0  0  0  0  0  0  0  0
   45.5768    5.2854   13.7066 N   0  0  0  0  0  0  0  0  0  0  0  0
   45.7898    7.5941   12.9998 C   0  0  0  0  0  0  0  0  0  0  0  0
   47.7198    6.1627   12.9918 C   0  0  0  0  0  0  0  0  0  0  0  0
   48.9106   11.8594   11.2847 C   0  0  0  0  0  0  0  0  0  0  0  0
   47.9739   13.0523   11.1222 C   0  0  0  0  0  0  0  0  0  0  0  0
   48.6595   14.2980   10.5641 C   0  0  0  0  0  0  0  0  0  0  0  0
   49.7120   14.8784   11.4960 C   0  0  0  0  0  0  0  0  0  0  0  0
   46.0207    9.9058   12.1527 H   0  0  0  0  0  0  0  0  0  0  0  0
   49.5088    7.7295   13.4714 H   0  0  0  0  0  0  0  0  0  0  0  0
   46.2710    4.5239   12.4201 H   0  0  0  0  0  0  0  0  0  0  0  0
   44.9070    5.3763   11.9153 H   0  0  0  0  0  0  0  0  0  0  0  0
   44.9042    7.7871   11.6343 H   0  0  0  0  0  0  0  0  0  0  0  0
   48.3742    5.6126   12.9430 H   0  0  0  0  0  0  0  0  0  0  0  0
   49.0228   12.5528   14.1087 H   0  0  0  0  0  0  0  0  0  0  0  0
   47.5944   13.2937   13.3990 H   0  0  0  0  0  0  0  0  0  0  0  0
   50.0427   12.3481   11.8113 H   0  0  0  0  0  0  0  0  0  0  0  0
   49.6873   14.0243   12.2430 H   0  0  0  0  0  0  0  0  0  0  0  0
   47.9512   12.2166   10.4663 H   0  0  0  0  0  0  0  0  0  0  0  0
   47.5460   13.8745   10.9158 H   0  0  0  0  0  0  0  0  0  0  0  0
   49.6222   14.6913    9.7841 H   0  0  0  0  0  0  0  0  0  0  0  0
   50.0335   13.0228    9.3402 H   0  0  0  0  0  0  0  0  0  0  0  0
   48.5818   13.7874    8.6705 H   0  0  0  0  0  0  0  0  0  0  0  0
   50.2427   11.1382   11.3993 H   0  0  0  0  0  0  0  0  0  0  0  0
   47.8237    7.6070   12.0603 H   0  0  0  0  0  0  0  0  0  0  0  0
   45.8301   12.5675   11.8464 H   0  0  0  0  0  0  0  0  0  0  0  0
   46.1081    9.6408   12.4367 H   0  0  0  0  0  0  0  0  0  0  0  0
   49.5824    7.0769   12.4181 H   0  0  0  0  0  0  0  0  0  0  0  0
   44.5828    5.3598   13.5141 H   0  0  0  0  0  0  0  0  0  0  0  0
   45.9386    4.3571   13.5107 H   0  0  0  0  0  0  0  0  0  0  0  0
   44.7353    7.7616   13.2041 H   0  0  0  0  0  0  0  0  0  0  0  0
   48.1896    5.2024   13.1889 H   0  0  0  0  0  0  0  0  0  0  0  0
   49.3856   11.6200   10.3262 H   0  0  0  0  0  0  0  0  0  0  0  0
   49.6791   12.0720   12.0358 H   0  0  0  0  0  0  0  0  0  0  0  0
   47.1518   12.7681   10.4528 H   0  0  0  0  0  0  0  0  0  0  0  0
   47.5010   13.2799   12.0859 H   0  0  0  0  0  0  0  0  0  0  0  0
   49.1172   14.0692    9.5946 H   0  0  0  0  0  0  0  0  0  0  0  0
   47.8957   15.0634   10.3813 H   0  0  0  0  0  0  0  0  0  0  0  0
   50.1005   15.8162   11.0859 H   0  0  0  0  0  0  0  0  0  0  0  0
   49.2892   15.0899   12.4832 H   0  0  0  0  0  0  0  0  0  0  0  0
   50.5580   14.1960   11.6202 H   0  0  0  0  0  0  0  0  0  0  0  0
  2  1  1  0
  3  1  2  0
  4  2  2  0
  5  2  1  0
  6 10  1  0
  7  1  1  0
  8  6  1  0
  9  4  1  0
 10  5  2  0
 11  7  1  0
 12 11  1  0
 13 12  1  0
 14 13  1  0
  9  6  2  0
 16 17  1  0
 17 15  2  0
 18 15  1  0
 19 16  1  0
 20 21  1  0
 21 23  2  0
 22 21  1  0
 23 15  1  0
 24 18  1  0
 25 19  1  0
 26 20  1  0
 27 18  2  0
 28 19  2  0
 29 20  2  0
 30 17  1  0
 22 16  2  0
 32 31  1  0
 33 31  2  0
 34 32  2  0
 35 32  1  0
 36 40  1  0
 37 31  1  0
 38 36  1  0
 39 34  1  0
 40 35  2  0
 41 37  1  0
 42 41  1  0
 43 42  1  0
 44 43  1  0
 39 36  2  0
  4 45  1  0
  5 46  1  0
  8 47  1  0
  8 48  1  0
  9 49  1  0
 10 50  1  0
 11 51  1  0
 11 52  1  0
 12 53  1  0
 12 54  1  0
 13 55  1  0
 13 56  1  0
 14 57  1  0
 14 58  1  0
 14 59  1  0
 22 60  1  0
 23 61  1  0
 30 62  1  0
 34 63  1  0
 35 64  1  0
 38 65  1  0
 38 66  1  0
 39 67  1  0
 40 68  1  0
 41 69  1  0
 41 70  1  0
 42 71  1  0
 42 72  1  0
 43 73  1  0
 43 74  1  0
 44 75  1  0
 44 76  1  0
 44 77  1  0
M  CHG  6  18   1  19   1  20   1  24  -1  25  -1  26  -1
M  END
> <Uni-Dock RESULT> 
ENERGY=   -5.153  LOWER_BOUND=    3.280  UPPER_BOUND=    5.045
INTER + INTRA:          -5.153
INTER:                  -5.153
INTRA:                   0.000
UNBOUND:                 0.000

$$$$
