
     RDKit          3D

 77 77  0  0  0  0  0  0  0  0999 V2000
   48.9199    9.0342   20.3551 C   0  0  0  0  0  0  0  0  0  0  0  0
   48.6274    7.9873   21.3717 C   0  0  0  0  0  0  0  0  0  0  0  0
   49.7057    8.8793   19.4341 O   0  0  0  0  0  0  0  0  0  0  0  0
   47.7170    8.1836   22.4164 C   0  0  0  0  0  0  0  0  0  0  0  0
   49.3085    6.7676   21.2812 C   0  0  0  0  0  0  0  0  0  0  0  0
   48.1189    5.9247   23.2253 C   0  0  0  0  0  0  0  0  0  0  0  0
   48.1983   10.1558   20.6015 O   0  0  0  0  0  0  0  0  0  0  0  0
   47.9729    4.9584   24.2250 N   0  0  0  0  0  0  0  0  0  0  0  0
   47.4839    7.1633   23.3458 C   0  0  0  0  0  0  0  0  0  0  0  0
   49.0689    5.7546   22.2154 C   0  0  0  0  0  0  0  0  0  0  0  0
   48.4176   11.2154   19.6590 C   0  0  0  0  0  0  0  0  0  0  0  0
   47.6005   12.4216   20.1113 C   0  0  0  0  0  0  0  0  0  0  0  0
   47.7992   13.6577   19.2355 C   0  0  0  0  0  0  0  0  0  0  0  0
   47.2766   13.4841   17.8177 C   0  0  0  0  0  0  0  0  0  0  0  0
   47.7453    8.9363   19.8261 C   0  0  0  0  0  0  0  0  0  0  0  0
   47.9115    9.3386   22.1882 C   0  0  0  0  0  0  0  0  0  0  0  0
   47.6839    8.4400   21.1386 C   0  0  0  0  0  0  0  0  0  0  0  0
   47.5155    8.0543   18.6744 N   0  0  0  0  0  0  0  0  0  0  0  0
   47.8673    8.8714   23.5580 N   0  0  0  0  0  0  0  0  0  0  0  0
   48.5310   12.5846   20.4105 N   0  0  0  0  0  0  0  0  0  0  0  0
   48.2411   11.1656   20.6627 C   0  0  0  0  0  0  0  0  0  0  0  0
   48.1854   10.6958   21.9777 C   0  0  0  0  0  0  0  0  0  0  0  0
   48.0246   10.2962   19.5820 C   0  0  0  0  0  0  0  0  0  0  0  0
   47.3513    6.8478   18.9077 O   0  0  0  0  0  0  0  0  0  0  0  0
   46.8807    9.2074   24.2249 O   0  0  0  0  0  0  0  0  0  0  0  0
   48.5284   12.9671   19.2342 O   0  0  0  0  0  0  0  0  0  0  0  0
   47.4986    8.5647   17.5487 O   0  0  0  0  0  0  0  0  0  0  0  0
   48.8466    8.2342   23.9645 O   0  0  0  0  0  0  0  0  0  0  0  0
   48.7606   13.3032   21.3912 O   0  0  0  0  0  0  0  0  0  0  0  0
   47.3991    7.1408   21.4553 O   0  0  0  0  0  0  0  0  0  0  0  0
   47.3199    9.1279   20.3079 C   0  0  0  0  0  0  0  0  0  0  0  0
   47.4215    8.0644   21.3442 C   0  0  0  0  0  0  0  0  0  0  0  0
   47.6291    8.9598   19.1389 O   0  0  0  0  0  0  0  0  0  0  0  0
   47.0466    8.2707   22.6766 C   0  0  0  0  0  0  0  0  0  0  0  0
   47.8944    6.8052   20.9569 C   0  0  0  0  0  0  0  0  0  0  0  0
   47.6876    5.9923   23.2378 C   0  0  0  0  0  0  0  0  0  0  0  0
   46.8506   10.2793   20.8508 O   0  0  0  0  0  0  0  0  0  0  0  0
   47.6854    4.9269   24.1438 N   0  0  0  0  0  0  0  0  0  0  0  0
   47.1610    7.2321   23.6081 C   0  0  0  0  0  0  0  0  0  0  0  0
   48.0049    5.7736   21.8951 C   0  0  0  0  0  0  0  0  0  0  0  0
   46.7066   11.3829   19.9428 C   0  0  0  0  0  0  0  0  0  0  0  0
   48.0203   12.1524   19.8439 C   0  0  0  0  0  0  0  0  0  0  0  0
   47.8963   13.3582   18.9166 C   0  0  0  0  0  0  0  0  0  0  0  0
   49.2038   14.1284   18.8267 C   0  0  0  0  0  0  0  0  0  0  0  0
   47.1908    9.1278   22.5317 H   0  0  0  0  0  0  0  0  0  0  0  0
   50.0407    6.6037   20.4925 H   0  0  0  0  0  0  0  0  0  0  0  0
   48.2031    4.0155   23.9275 H   0  0  0  0  0  0  0  0  0  0  0  0
   47.0874    5.0017   24.7191 H   0  0  0  0  0  0  0  0  0  0  0  0
   46.7981    7.3473   24.1690 H   0  0  0  0  0  0  0  0  0  0  0  0
   49.6346    4.8292   22.1450 H   0  0  0  0  0  0  0  0  0  0  0  0
   48.0943   10.8793   18.6679 H   0  0  0  0  0  0  0  0  0  0  0  0
   49.4835   11.4718   19.6335 H   0  0  0  0  0  0  0  0  0  0  0  0
   46.5376   12.1515   20.1504 H   0  0  0  0  0  0  0  0  0  0  0  0
   47.8780   12.6684   21.1442 H   0  0  0  0  0  0  0  0  0  0  0  0
   48.8621   13.9252   19.2023 H   0  0  0  0  0  0  0  0  0  0  0  0
   47.2745   14.5014   19.6999 H   0  0  0  0  0  0  0  0  0  0  0  0
   46.2209   13.1934   17.8211 H   0  0  0  0  0  0  0  0  0  0  0  0
   47.8433   12.7247   17.2707 H   0  0  0  0  0  0  0  0  0  0  0  0
   47.3670   14.4257   17.2662 H   0  0  0  0  0  0  0  0  0  0  0  0
   48.3496   11.3586   22.8270 H   0  0  0  0  0  0  0  0  0  0  0  0
   48.0713   10.6745   18.5598 H   0  0  0  0  0  0  0  0  0  0  0  0
   47.3147    6.5800   20.6522 H   0  0  0  0  0  0  0  0  0  0  0  0
   46.6498    9.2275   23.0055 H   0  0  0  0  0  0  0  0  0  0  0  0
   48.1667    6.6151   19.9204 H   0  0  0  0  0  0  0  0  0  0  0  0
   48.3433    4.1888   23.9134 H   0  0  0  0  0  0  0  0  0  0  0  0
   47.7551    5.2113   25.1163 H   0  0  0  0  0  0  0  0  0  0  0  0
   46.8323    7.4026   24.6305 H   0  0  0  0  0  0  0  0  0  0  0  0
   48.3431    4.7949   21.5641 H   0  0  0  0  0  0  0  0  0  0  0  0
   46.3572   11.0426   18.9610 H   0  0  0  0  0  0  0  0  0  0  0  0
   45.9238   12.0294   20.3537 H   0  0  0  0  0  0  0  0  0  0  0  0
   48.3271   12.4732   20.8472 H   0  0  0  0  0  0  0  0  0  0  0  0
   48.8145   11.4854   19.4877 H   0  0  0  0  0  0  0  0  0  0  0  0
   47.1081   14.0284   19.2787 H   0  0  0  0  0  0  0  0  0  0  0  0
   47.6054   13.0264   17.9131 H   0  0  0  0  0  0  0  0  0  0  0  0
   49.0960   14.9806   18.1480 H   0  0  0  0  0  0  0  0  0  0  0  0
   50.0099   13.4918   18.4474 H   0  0  0  0  0  0  0  0  0  0  0  0
   49.5018   14.5110   19.8083 H   0  0  0  0  0  0  0  0  0  0  0  0
  2  1  1  0
  3  1  2  0
  4  2  2  0
  5  2  1  0
  6 10  1  0
  7  1  1  0
  8  6  1  0
  9  4  1  0
 10  5  2  0
 11  7  1  0
 12 11  1  0
 13 12  1  0
 14 13  1  0
  9  6  2  0
 16 17  1  0
 17 15  2  0
 18 15  1  0
 19 16  1  0
 20 21  1  0
 21 23  2  0
 22 21  1  0
 23 15  1  0
 24 18  1  0
 25 19  1  0
 26 20  1  0
 27 18  2  0
 28 19  2  0
 29 20  2  0
 30 17  1  0
 22 16  2  0
 32 31  1  0
 33 31  2  0
 34 32  2  0
 35 32  1  0
 36 40  1  0
 37 31  1  0
 38 36  1  0
 39 34  1  0
 40 35  2  0
 41 37  1  0
 42 41  1  0
 43 42  1  0
 44 43  1  0
 39 36  2  0
  4 45  1  0
  5 46  1  0
  8 47  1  0
  8 48  1  0
  9 49  1  0
 10 50  1  0
 11 51  1  0
 11 52  1  0
 12 53  1  0
 12 54  1  0
 13 55  1  0
 13 56  1  0
 14 57  1  0
 14 58  1  0
 14 59  1  0
 22 60  1  0
 23 61  1  0
 30 62  1  0
 34 63  1  0
 35 64  1  0
 38 65  1  0
 38 66  1  0
 39 67  1  0
 40 68  1  0
 41 69  1  0
 41 70  1  0
 42 71  1  0
 42 72  1  0
 43 73  1  0
 43 74  1  0
 44 75  1  0
 44 76  1  0
 44 77  1  0
M  CHG  6  18   1  19   1  20   1  24  -1  25  -1  26  -1
M  END
> <Uni-Dock RESULT> 
ENERGY=   -6.132  LOWER_BOUND=    0.000  UPPER_BOUND=    0.000
INTER + INTRA:          -6.132
INTER:                  -6.132
INTRA:                   0.000
UNBOUND:                 0.000

$$$$

     RDKit          3D

 77 77  0  0  0  0  0  0  0  0999 V2000
   48.0515    9.0488   17.6735 C   0  0  0  0  0  0  0  0  0  0  0  0
   47.8278   10.2783   18.4819 C   0  0  0  0  0  0  0  0  0  0  0  0
   48.1899    9.0547   16.4609 O   0  0  0  0  0  0  0  0  0  0  0  0
   47.6784   10.2495   19.8732 C   0  0  0  0  0  0  0  0  0  0  0  0
   47.7472   11.5052   17.8128 C   0  0  0  0  0  0  0  0  0  0  0  0
   47.4434   12.6704   19.9236 C   0  0  0  0  0  0  0  0  0  0  0  0
   48.0786    7.9508   18.4692 O   0  0  0  0  0  0  0  0  0  0  0  0
   47.1106   13.8349   20.6218 N   0  0  0  0  0  0  0  0  0  0  0  0
   47.4672   11.4381   20.5816 C   0  0  0  0  0  0  0  0  0  0  0  0
   47.5351   12.6873   18.5299 C   0  0  0  0  0  0  0  0  0  0  0  0
   48.2979    6.7195   17.7657 C   0  0  0  0  0  0  0  0  0  0  0  0
   48.2264    5.5815   18.7790 C   0  0  0  0  0  0  0  0  0  0  0  0
   48.3677    4.1952   18.1523 C   0  0  0  0  0  0  0  0  0  0  0  0
   49.7401    3.9427   17.5473 C   0  0  0  0  0  0  0  0  0  0  0  0
   49.2377    8.8735   18.1549 C   0  0  0  0  0  0  0  0  0  0  0  0
   47.3999    9.1047   19.6840 C   0  0  0  0  0  0  0  0  0  0  0  0
   48.5096    9.6757   19.0490 C   0  0  0  0  0  0  0  0  0  0  0  0
   50.4145    9.4025   17.4533 N   0  0  0  0  0  0  0  0  0  0  0  0
   46.6134    9.8954   20.6075 N   0  0  0  0  0  0  0  0  0  0  0  0
   47.3466    5.6079   18.3239 N   0  0  0  0  0  0  0  0  0  0  0  0
   47.7427    7.0014   18.5740 C   0  0  0  0  0  0  0  0  0  0  0  0
   47.0023    7.7794   19.4681 C   0  0  0  0  0  0  0  0  0  0  0  0
   48.8587    7.5377   17.9124 C   0  0  0  0  0  0  0  0  0  0  0  0
   50.6826   10.6015   17.6192 O   0  0  0  0  0  0  0  0  0  0  0  0
   46.7381    9.6280   21.8091 O   0  0  0  0  0  0  0  0  0  0  0  0
   48.0545    4.9422   17.5585 O   0  0  0  0  0  0  0  0  0  0  0  0
   51.0639    8.6251   16.7447 O   0  0  0  0  0  0  0  0  0  0  0  0
   45.8367   10.7232   20.1156 O   0  0  0  0  0  0  0  0  0  0  0  0
   46.3299    5.1926   18.8937 O   0  0  0  0  0  0  0  0  0  0  0  0
   48.8267   10.9710   19.3506 O   0  0  0  0  0  0  0  0  0  0  0  0
   49.1460    8.7626   18.8099 C   0  0  0  0  0  0  0  0  0  0  0  0
   48.6454   10.0584   19.3445 C   0  0  0  0  0  0  0  0  0  0  0  0
   49.7815    8.6635   17.7723 O   0  0  0  0  0  0  0  0  0  0  0  0
   47.9325   10.1545   20.5449 C   0  0  0  0  0  0  0  0  0  0  0  0
   48.9201   11.2241   18.6201 C   0  0  0  0  0  0  0  0  0  0  0  0
   47.7100   12.5590   20.2511 C   0  0  0  0  0  0  0  0  0  0  0  0
   48.7906    7.7402   19.6279 O   0  0  0  0  0  0  0  0  0  0  0  0
   47.3698   13.8116   20.7719 N   0  0  0  0  0  0  0  0  0  0  0  0
   47.4886   11.4013   21.0010 C   0  0  0  0  0  0  0  0  0  0  0  0
   48.4724   12.4653   19.0843 C   0  0  0  0  0  0  0  0  0  0  0  0
   49.2214    6.4335   19.2153 C   0  0  0  0  0  0  0  0  0  0  0  0
   48.1952    5.8207   18.2671 C   0  0  0  0  0  0  0  0  0  0  0  0
   48.5990    4.4133   17.8364 C   0  0  0  0  0  0  0  0  0  0  0  0
   47.5705    3.8013   16.8989 C   0  0  0  0  0  0  0  0  0  0  0  0
   47.7091    9.3112   20.4213 H   0  0  0  0  0  0  0  0  0  0  0  0
   47.8336   11.5471   16.7286 H   0  0  0  0  0  0  0  0  0  0  0  0
   47.4055   14.6918   20.1641 H   0  0  0  0  0  0  0  0  0  0  0  0
   47.3619   13.8166   21.6050 H   0  0  0  0  0  0  0  0  0  0  0  0
   47.3203   11.3909   21.6577 H   0  0  0  0  0  0  0  0  0  0  0  0
   47.4419   13.6235   17.9856 H   0  0  0  0  0  0  0  0  0  0  0  0
   49.2850    6.7541   17.2923 H   0  0  0  0  0  0  0  0  0  0  0  0
   47.5242    6.5896   16.9995 H   0  0  0  0  0  0  0  0  0  0  0  0
   48.9923    5.7285   19.5511 H   0  0  0  0  0  0  0  0  0  0  0  0
   47.2651    5.6381   19.3057 H   0  0  0  0  0  0  0  0  0  0  0  0
   47.5985    4.0523   17.3840 H   0  0  0  0  0  0  0  0  0  0  0  0
   48.1844    3.4421   18.9282 H   0  0  0  0  0  0  0  0  0  0  0  0
   50.5310    4.1011   18.2878 H   0  0  0  0  0  0  0  0  0  0  0  0
   49.9294    4.5987   16.6924 H   0  0  0  0  0  0  0  0  0  0  0  0
   49.8099    2.9089   17.1930 H   0  0  0  0  0  0  0  0  0  0  0  0
   46.1347    7.3768   19.9905 H   0  0  0  0  0  0  0  0  0  0  0  0
   49.4285    6.9207   17.2161 H   0  0  0  0  0  0  0  0  0  0  0  0
   49.5816   11.2964   18.8114 H   0  0  0  0  0  0  0  0  0  0  0  0
   47.7256    9.2732   21.1461 H   0  0  0  0  0  0  0  0  0  0  0  0
   49.4955   11.1755   17.6976 H   0  0  0  0  0  0  0  0  0  0  0  0
   47.2745   14.5379   20.0690 H   0  0  0  0  0  0  0  0  0  0  0  0
   46.5812   13.7928   21.4115 H   0  0  0  0  0  0  0  0  0  0  0  0
   46.9663   11.4587   21.9530 H   0  0  0  0  0  0  0  0  0  0  0  0
   48.7262   13.3605   18.5222 H   0  0  0  0  0  0  0  0  0  0  0  0
   50.2211    6.4714   18.7668 H   0  0  0  0  0  0  0  0  0  0  0  0
   49.3018    5.8265   20.1235 H   0  0  0  0  0  0  0  0  0  0  0  0
   47.2149    5.8020   18.7593 H   0  0  0  0  0  0  0  0  0  0  0  0
   48.0750    6.4625   17.3861 H   0  0  0  0  0  0  0  0  0  0  0  0
   48.7102    3.7705   18.7173 H   0  0  0  0  0  0  0  0  0  0  0  0
   49.5715    4.4442   17.3314 H   0  0  0  0  0  0  0  0  0  0  0  0
   47.8856    2.7984   16.5932 H   0  0  0  0  0  0  0  0  0  0  0  0
   47.4501    4.4095   15.9964 H   0  0  0  0  0  0  0  0  0  0  0  0
   46.5949    3.7168   17.3884 H   0  0  0  0  0  0  0  0  0  0  0  0
  2  1  1  0
  3  1  2  0
  4  2  2  0
  5  2  1  0
  6 10  1  0
  7  1  1  0
  8  6  1  0
  9  4  1  0
 10  5  2  0
 11  7  1  0
 12 11  1  0
 13 12  1  0
 14 13  1  0
  9  6  2  0
 16 17  1  0
 17 15  2  0
 18 15  1  0
 19 16  1  0
 20 21  1  0
 21 23  2  0
 22 21  1  0
 23 15  1  0
 24 18  1  0
 25 19  1  0
 26 20  1  0
 27 18  2  0
 28 19  2  0
 29 20  2  0
 30 17  1  0
 22 16  2  0
 32 31  1  0
 33 31  2  0
 34 32  2  0
 35 32  1  0
 36 40  1  0
 37 31  1  0
 38 36  1  0
 39 34  1  0
 40 35  2  0
 41 37  1  0
 42 41  1  0
 43 42  1  0
 44 43  1  0
 39 36  2  0
  4 45  1  0
  5 46  1  0
  8 47  1  0
  8 48  1  0
  9 49  1  0
 10 50  1  0
 11 51  1  0
 11 52  1  0
 12 53  1  0
 12 54  1  0
 13 55  1  0
 13 56  1  0
 14 57  1  0
 14 58  1  0
 14 59  1  0
 22 60  1  0
 23 61  1  0
 30 62  1  0
 34 63  1  0
 35 64  1  0
 38 65  1  0
 38 66  1  0
 39 67  1  0
 40 68  1  0
 41 69  1  0
 41 70  1  0
 42 71  1  0
 42 72  1  0
 43 73  1  0
 43 74  1  0
 44 75  1  0
 44 76  1  0
 44 77  1  0
M  CHG  6  18   1  19   1  20   1  24  -1  25  -1  26  -1
M  END
> <Uni-Dock RESULT> 
ENERGY=   -6.083  LOWER_BOUND=    2.525  UPPER_BOUND=    5.907
INTER + INTRA:          -6.083
INTER:                  -6.083
INTRA:                   0.000
UNBOUND:                 0.000

$$$$

     RDKit          3D

 77 77  0  0  0  0  0  0  0  0999 V2000
   48.9569    6.9108   20.7459 C   0  0  0  0  0  0  0  0  0  0  0  0
   48.7236    8.3171   21.1737 C   0  0  0  0  0  0  0  0  0  0  0  0
   49.6618    6.1267   21.3609 O   0  0  0  0  0  0  0  0  0  0  0  0
   47.9056    9.1978   20.4568 C   0  0  0  0  0  0  0  0  0  0  0  0
   49.3667    8.7727   22.3306 C   0  0  0  0  0  0  0  0  0  0  0  0
   48.3193   10.9523   22.0905 C   0  0  0  0  0  0  0  0  0  0  0  0
   48.2838    6.6409   19.5999 O   0  0  0  0  0  0  0  0  0  0  0  0
   48.2324   12.2968   22.4638 N   0  0  0  0  0  0  0  0  0  0  0  0
   47.7249   10.5113   20.9055 C   0  0  0  0  0  0  0  0  0  0  0  0
   49.1802   10.0874   22.7702 C   0  0  0  0  0  0  0  0  0  0  0  0
   48.4504    5.2982   19.1218 C   0  0  0  0  0  0  0  0  0  0  0  0
   47.7008    5.1752   17.7989 C   0  0  0  0  0  0  0  0  0  0  0  0
   47.8565    3.8090   17.1329 C   0  0  0  0  0  0  0  0  0  0  0  0
   47.2169    2.6762   17.9209 C   0  0  0  0  0  0  0  0  0  0  0  0
   47.7413    6.5630   21.0117 C   0  0  0  0  0  0  0  0  0  0  0  0
   48.1075    8.4395   19.5579 C   0  0  0  0  0  0  0  0  0  0  0  0
   47.7751    7.9553   20.8290 C   0  0  0  0  0  0  0  0  0  0  0  0
   47.3987    5.9813   22.3160 N   0  0  0  0  0  0  0  0  0  0  0  0
   48.1636    9.8673   19.3237 N   0  0  0  0  0  0  0  0  0  0  0  0
   48.6560    5.3049   17.5694 N   0  0  0  0  0  0  0  0  0  0  0  0
   48.3548    6.2149   18.6841 C   0  0  0  0  0  0  0  0  0  0  0  0
   48.3949    7.5964   18.4772 C   0  0  0  0  0  0  0  0  0  0  0  0
   48.0314    5.6887   19.9447 C   0  0  0  0  0  0  0  0  0  0  0  0
   47.2261    6.7665   23.2597 O   0  0  0  0  0  0  0  0  0  0  0  0
   47.2423   10.3545   18.6566 O   0  0  0  0  0  0  0  0  0  0  0  0
   48.5670    4.0901   17.7846 O   0  0  0  0  0  0  0  0  0  0  0  0
   47.3025    4.7513   22.3940 O   0  0  0  0  0  0  0  0  0  0  0  0
   49.1577   10.4666   19.7515 O   0  0  0  0  0  0  0  0  0  0  0  0
   48.9808    5.8136   16.4892 O   0  0  0  0  0  0  0  0  0  0  0  0
   47.4868    8.8650   21.8081 O   0  0  0  0  0  0  0  0  0  0  0  0
   47.3609    6.9218   20.5918 C   0  0  0  0  0  0  0  0  0  0  0  0
   47.5215    8.3294   21.0480 C   0  0  0  0  0  0  0  0  0  0  0  0
   47.5705    5.9548   21.3068 O   0  0  0  0  0  0  0  0  0  0  0  0
   47.2606    9.4259   20.2186 C   0  0  0  0  0  0  0  0  0  0  0  0
   47.9322    8.5554   22.3669 C   0  0  0  0  0  0  0  0  0  0  0  0
   47.8921   10.9575   21.9998 C   0  0  0  0  0  0  0  0  0  0  0  0
   46.9639    6.8832   19.2950 O   0  0  0  0  0  0  0  0  0  0  0  0
   47.9386   12.2577   22.5128 N   0  0  0  0  0  0  0  0  0  0  0  0
   47.4260   10.7289   20.7029 C   0  0  0  0  0  0  0  0  0  0  0  0
   48.0944    9.8611   22.8415 C   0  0  0  0  0  0  0  0  0  0  0  0
   46.7724    5.5720   18.7407 C   0  0  0  0  0  0  0  0  0  0  0  0
   48.0912    5.0420   18.1863 C   0  0  0  0  0  0  0  0  0  0  0  0
   47.9204    3.6643   17.5522 C   0  0  0  0  0  0  0  0  0  0  0  0
   49.2339    3.1422   16.9925 C   0  0  0  0  0  0  0  0  0  0  0  0
   47.4124    8.8848   19.5400 H   0  0  0  0  0  0  0  0  0  0  0  0
   50.0286    8.1126   22.8882 H   0  0  0  0  0  0  0  0  0  0  0  0
   48.4158   12.4670   23.4476 H   0  0  0  0  0  0  0  0  0  0  0  0
   47.3911   12.7643   22.1417 H   0  0  0  0  0  0  0  0  0  0  0  0
   47.1125   11.1895   20.3167 H   0  0  0  0  0  0  0  0  0  0  0  0
   49.7168   10.4287   23.6517 H   0  0  0  0  0  0  0  0  0  0  0  0
   48.0403    4.6053   19.8643 H   0  0  0  0  0  0  0  0  0  0  0  0
   49.5164    5.0902   18.9704 H   0  0  0  0  0  0  0  0  0  0  0  0
   46.6386    5.4016   17.9562 H   0  0  0  0  0  0  0  0  0  0  0  0
   48.0667    5.9498   17.1128 H   0  0  0  0  0  0  0  0  0  0  0  0
   48.9191    3.5890   16.9751 H   0  0  0  0  0  0  0  0  0  0  0  0
   47.3907    3.8502   16.1408 H   0  0  0  0  0  0  0  0  0  0  0  0
   46.1585    2.8804   18.1136 H   0  0  0  0  0  0  0  0  0  0  0  0
   47.7197    2.5199   18.8800 H   0  0  0  0  0  0  0  0  0  0  0  0
   47.2841    1.7407   17.3557 H   0  0  0  0  0  0  0  0  0  0  0  0
   48.6426    8.0199   17.5041 H   0  0  0  0  0  0  0  0  0  0  0  0
   48.0039    4.6084   20.0942 H   0  0  0  0  0  0  0  0  0  0  0  0
   47.3247    8.4291   22.6743 H   0  0  0  0  0  0  0  0  0  0  0  0
   46.9140    9.2869   19.1980 H   0  0  0  0  0  0  0  0  0  0  0  0
   48.1152    7.7176   23.0370 H   0  0  0  0  0  0  0  0  0  0  0  0
   48.5584   12.3642   23.3098 H   0  0  0  0  0  0  0  0  0  0  0  0
   48.0934   12.9740   21.8097 H   0  0  0  0  0  0  0  0  0  0  0  0
   47.1852   11.5670   20.0533 H   0  0  0  0  0  0  0  0  0  0  0  0
   48.3820   10.0123   23.8789 H   0  0  0  0  0  0  0  0  0  0  0  0
   46.3368    4.8908   19.4811 H   0  0  0  0  0  0  0  0  0  0  0  0
   46.0406    5.6751   17.9323 H   0  0  0  0  0  0  0  0  0  0  0  0
   48.4856    5.7538   17.4505 H   0  0  0  0  0  0  0  0  0  0  0  0
   48.8384    4.9960   18.9876 H   0  0  0  0  0  0  0  0  0  0  0  0
   47.1799    3.7135   16.7455 H   0  0  0  0  0  0  0  0  0  0  0  0
   47.5417    2.9564   18.2986 H   0  0  0  0  0  0  0  0  0  0  0  0
   49.0912    2.1492   16.5541 H   0  0  0  0  0  0  0  0  0  0  0  0
   49.9916    3.0608   17.7787 H   0  0  0  0  0  0  0  0  0  0  0  0
   49.6192    3.8063   16.2120 H   0  0  0  0  0  0  0  0  0  0  0  0
  2  1  1  0
  3  1  2  0
  4  2  2  0
  5  2  1  0
  6 10  1  0
  7  1  1  0
  8  6  1  0
  9  4  1  0
 10  5  2  0
 11  7  1  0
 12 11  1  0
 13 12  1  0
 14 13  1  0
  9  6  2  0
 16 17  1  0
 17 15  2  0
 18 15  1  0
 19 16  1  0
 20 21  1  0
 21 23  2  0
 22 21  1  0
 23 15  1  0
 24 18  1  0
 25 19  1  0
 26 20  1  0
 27 18  2  0
 28 19  2  0
 29 20  2  0
 30 17  1  0
 22 16  2  0
 32 31  1  0
 33 31  2  0
 34 32  2  0
 35 32  1  0
 36 40  1  0
 37 31  1  0
 38 36  1  0
 39 34  1  0
 40 35  2  0
 41 37  1  0
 42 41  1  0
 43 42  1  0
 44 43  1  0
 39 36  2  0
  4 45  1  0
  5 46  1  0
  8 47  1  0
  8 48  1  0
  9 49  1  0
 10 50  1  0
 11 51  1  0
 11 52  1  0
 12 53  1  0
 12 54  1  0
 13 55  1  0
 13 56  1  0
 14 57  1  0
 14 58  1  0
 14 59  1  0
 22 60  1  0
 23 61  1  0
 30 62  1  0
 34 63  1  0
 35 64  1  0
 38 65  1  0
 38 66  1  0
 39 67  1  0
 40 68  1  0
 41 69  1  0
 41 70  1  0
 42 71  1  0
 42 72  1  0
 43 73  1  0
 43 74  1  0
 44 75  1  0
 44 76  1  0
 44 77  1  0
M  CHG  6  18   1  19   1  20   1  24  -1  25  -1  26  -1
M  END
> <Uni-Dock RESULT> 
ENERGY=   -5.944  LOWER_BOUND=    2.310  UPPER_BOUND=    5.654
INTER + INTRA:          -5.944
INTER:                  -5.944
INTRA:                   0.000
UNBOUND:                 0.000

$$$$

     RDKit          3D

 77 77  0  0  0  0  0  0  0  0999 V2000
   46.4408    6.8119   11.3426 C   0  0  0  0  0  0  0  0  0  0  0  0
   45.5835    5.6028   11.4784 C   0  0  0  0  0  0  0  0  0  0  0  0
   46.5864    7.4214   10.2953 O   0  0  0  0  0  0  0  0  0  0  0  0
   45.4251    4.9227   12.6913 C   0  0  0  0  0  0  0  0  0  0  0  0
   44.9281    5.1243   10.3378 C   0  0  0  0  0  0  0  0  0  0  0  0
   43.9068    3.3417   11.6358 C   0  0  0  0  0  0  0  0  0  0  0  0
   47.0187    7.1248   12.5290 O   0  0  0  0  0  0  0  0  0  0  0  0
   43.1925    2.1410   11.6835 N   0  0  0  0  0  0  0  0  0  0  0  0
   44.6077    3.7885   12.7589 C   0  0  0  0  0  0  0  0  0  0  0  0
   44.1140    3.9896   10.4157 C   0  0  0  0  0  0  0  0  0  0  0  0
   47.8590    8.2872   12.4857 C   0  0  0  0  0  0  0  0  0  0  0  0
   48.4889    8.4618   13.8641 C   0  0  0  0  0  0  0  0  0  0  0  0
   49.4749    9.6264   13.9425 C   0  0  0  0  0  0  0  0  0  0  0  0
   48.8187   10.9867   13.7626 C   0  0  0  0  0  0  0  0  0  0  0  0
   45.6404    7.5351   12.0538 C   0  0  0  0  0  0  0  0  0  0  0  0
   46.4472    5.4690   12.9756 C   0  0  0  0  0  0  0  0  0  0  0  0
   45.4110    6.1841   12.3626 C   0  0  0  0  0  0  0  0  0  0  0  0
   44.6002    8.3496   11.4125 N   0  0  0  0  0  0  0  0  0  0  0  0
   46.2603    4.0714   13.3048 N   0  0  0  0  0  0  0  0  0  0  0  0
   49.1740    8.0269   13.2953 N   0  0  0  0  0  0  0  0  0  0  0  0
   47.8862    7.3933   12.9769 C   0  0  0  0  0  0  0  0  0  0  0  0
   47.6821    6.0476   13.2941 C   0  0  0  0  0  0  0  0  0  0  0  0
   46.8750    8.1441   12.3568 C   0  0  0  0  0  0  0  0  0  0  0  0
   43.5527    7.7747   11.0821 O   0  0  0  0  0  0  0  0  0  0  0  0
   46.1148    3.8008   14.5034 O   0  0  0  0  0  0  0  0  0  0  0  0
   49.2971    9.2303   13.0368 O   0  0  0  0  0  0  0  0  0  0  0  0
   44.8295    9.5524   11.2425 O   0  0  0  0  0  0  0  0  0  0  0  0
   46.3280    3.2621   12.3717 O   0  0  0  0  0  0  0  0  0  0  0  0
   50.0513    7.3146   13.7992 O   0  0  0  0  0  0  0  0  0  0  0  0
   44.2355    5.5301   12.1185 O   0  0  0  0  0  0  0  0  0  0  0  0
   45.6479    7.2561   12.6637 C   0  0  0  0  0  0  0  0  0  0  0  0
   44.9927    5.9324   12.4800 C   0  0  0  0  0  0  0  0  0  0  0  0
   45.4853    8.1983   11.9046 O   0  0  0  0  0  0  0  0  0  0  0  0
   45.1780    4.8686   13.3701 C   0  0  0  0  0  0  0  0  0  0  0  0
   44.1440    5.7604   11.3803 C   0  0  0  0  0  0  0  0  0  0  0  0
   43.7322    3.4524   12.0205 C   0  0  0  0  0  0  0  0  0  0  0  0
   46.4348    7.2493   13.7689 O   0  0  0  0  0  0  0  0  0  0  0  0
   42.9982    2.2713   11.8719 N   0  0  0  0  0  0  0  0  0  0  0  0
   44.5331    3.6460   13.1486 C   0  0  0  0  0  0  0  0  0  0  0  0
   43.5039    4.5350   11.1677 C   0  0  0  0  0  0  0  0  0  0  0  0
   47.1213    8.4787   14.0526 C   0  0  0  0  0  0  0  0  0  0  0  0
   48.4492    8.5202   13.3026 C   0  0  0  0  0  0  0  0  0  0  0  0
   49.2277    9.7965   13.6095 C   0  0  0  0  0  0  0  0  0  0  0  0
   50.5545    9.8314   12.8682 C   0  0  0  0  0  0  0  0  0  0  0  0
   45.9405    5.2516   13.5902 H   0  0  0  0  0  0  0  0  0  0  0  0
   45.0589    5.6221    9.3787 H   0  0  0  0  0  0  0  0  0  0  0  0
   42.4889    2.0476   10.9576 H   0  0  0  0  0  0  0  0  0  0  0  0
   42.8314    1.9081   12.6029 H   0  0  0  0  0  0  0  0  0  0  0  0
   44.5241    3.2550   13.7024 H   0  0  0  0  0  0  0  0  0  0  0  0
   43.6428    3.6167    9.5100 H   0  0  0  0  0  0  0  0  0  0  0  0
   47.2456    9.1573   12.2281 H   0  0  0  0  0  0  0  0  0  0  0  0
   48.6414    8.1489   11.7298 H   0  0  0  0  0  0  0  0  0  0  0  0
   47.6990    8.5824   14.6163 H   0  0  0  0  0  0  0  0  0  0  0  0
   49.0107    7.5345   14.1335 H   0  0  0  0  0  0  0  0  0  0  0  0
   50.2635    9.4996   13.1912 H   0  0  0  0  0  0  0  0  0  0  0  0
   49.9648    9.6023   14.9234 H   0  0  0  0  0  0  0  0  0  0  0  0
   48.0100   11.1315   14.4864 H   0  0  0  0  0  0  0  0  0  0  0  0
   48.4076   11.1046   12.7555 H   0  0  0  0  0  0  0  0  0  0  0  0
   49.5557   11.7822   13.9144 H   0  0  0  0  0  0  0  0  0  0  0  0
   48.4566    5.4522   13.7769 H   0  0  0  0  0  0  0  0  0  0  0  0
   47.0463    9.1937   12.1135 H   0  0  0  0  0  0  0  0  0  0  0  0
   43.5958    6.0985   11.6346 H   0  0  0  0  0  0  0  0  0  0  0  0
   45.8083    4.9763   14.2488 H   0  0  0  0  0  0  0  0  0  0  0  0
   43.9648    6.5826   10.6901 H   0  0  0  0  0  0  0  0  0  0  0  0
   42.7055    2.0855   10.9177 H   0  0  0  0  0  0  0  0  0  0  0  0
   43.4292    1.4598   12.3044 H   0  0  0  0  0  0  0  0  0  0  0  0
   44.6633    2.8432   13.8704 H   0  0  0  0  0  0  0  0  0  0  0  0
   42.8236    4.4354   10.3257 H   0  0  0  0  0  0  0  0  0  0  0  0
   46.4917    9.3450   13.8177 H   0  0  0  0  0  0  0  0  0  0  0  0
   47.3004    8.4979   15.1330 H   0  0  0  0  0  0  0  0  0  0  0  0
   49.0431    7.6377   13.5711 H   0  0  0  0  0  0  0  0  0  0  0  0
   48.2682    8.4416   12.2239 H   0  0  0  0  0  0  0  0  0  0  0  0
   49.4156    9.8695   14.6870 H   0  0  0  0  0  0  0  0  0  0  0  0
   48.6333   10.6719   13.3231 H   0  0  0  0  0  0  0  0  0  0  0  0
   51.0900   10.7594   13.0929 H   0  0  0  0  0  0  0  0  0  0  0  0
   50.4012    9.7812   11.7853 H   0  0  0  0  0  0  0  0  0  0  0  0
   51.1911    8.9913   13.1640 H   0  0  0  0  0  0  0  0  0  0  0  0
  2  1  1  0
  3  1  2  0
  4  2  2  0
  5  2  1  0
  6 10  1  0
  7  1  1  0
  8  6  1  0
  9  4  1  0
 10  5  2  0
 11  7  1  0
 12 11  1  0
 13 12  1  0
 14 13  1  0
  9  6  2  0
 16 17  1  0
 17 15  2  0
 18 15  1  0
 19 16  1  0
 20 21  1  0
 21 23  2  0
 22 21  1  0
 23 15  1  0
 24 18  1  0
 25 19  1  0
 26 20  1  0
 27 18  2  0
 28 19  2  0
 29 20  2  0
 30 17  1  0
 22 16  2  0
 32 31  1  0
 33 31  2  0
 34 32  2  0
 35 32  1  0
 36 40  1  0
 37 31  1  0
 38 36  1  0
 39 34  1  0
 40 35  2  0
 41 37  1  0
 42 41  1  0
 43 42  1  0
 44 43  1  0
 39 36  2  0
  4 45  1  0
  5 46  1  0
  8 47  1  0
  8 48  1  0
  9 49  1  0
 10 50  1  0
 11 51  1  0
 11 52  1  0
 12 53  1  0
 12 54  1  0
 13 55  1  0
 13 56  1  0
 14 57  1  0
 14 58  1  0
 14 59  1  0
 22 60  1  0
 23 61  1  0
 30 62  1  0
 34 63  1  0
 35 64  1  0
 38 65  1  0
 38 66  1  0
 39 67  1  0
 40 68  1  0
 41 69  1  0
 41 70  1  0
 42 71  1  0
 42 72  1  0
 43 73  1  0
 43 74  1  0
 44 75  1  0
 44 76  1  0
 44 77  1  0
M  CHG  6  18   1  19   1  20   1  24  -1  25  -1  26  -1
M  END
> <Uni-Dock RESULT> 
ENERGY=   -5.777  LOWER_BOUND=    7.824  UPPER_BOUND=    9.704
INTER + INTRA:          -5.777
INTER:                  -5.777
INTRA:                   0.000
UNBOUND:                 0.000

$$$$

     RDKit          3D

 77 77  0  0  0  0  0  0  0  0999 V2000
   47.2961    6.2437   19.1214 C   0  0  0  0  0  0  0  0  0  0  0  0
   48.0433    5.1419   18.4559 C   0  0  0  0  0  0  0  0  0  0  0  0
   46.1759    6.1133   19.5883 O   0  0  0  0  0  0  0  0  0  0  0  0
   49.3304    5.3116   17.9331 C   0  0  0  0  0  0  0  0  0  0  0  0
   47.4181    3.8950   18.3372 C   0  0  0  0  0  0  0  0  0  0  0  0
   49.3863    2.9786   17.2456 C   0  0  0  0  0  0  0  0  0  0  0  0
   48.0309    7.3836   19.1303 O   0  0  0  0  0  0  0  0  0  0  0  0
   49.9945    1.9499   16.5202 N   0  0  0  0  0  0  0  0  0  0  0  0
   49.9843    4.2394   17.3149 C   0  0  0  0  0  0  0  0  0  0  0  0
   48.0798    2.8302   17.7170 C   0  0  0  0  0  0  0  0  0  0  0  0
   47.3827    8.4967   19.7628 C   0  0  0  0  0  0  0  0  0  0  0  0
   48.2962    9.7107   19.6257 C   0  0  0  0  0  0  0  0  0  0  0  0
   47.6940   10.9957   20.1921 C   0  0  0  0  0  0  0  0  0  0  0  0
   47.5039   10.9600   21.7008 C   0  0  0  0  0  0  0  0  0  0  0  0
   48.0939    6.2543   20.1376 C   0  0  0  0  0  0  0  0  0  0  0  0
   49.0332    6.4672   17.9372 C   0  0  0  0  0  0  0  0  0  0  0  0
   48.7641    5.6649   19.0529 C   0  0  0  0  0  0  0  0  0  0  0  0
   47.7793    5.4764   21.3429 N   0  0  0  0  0  0  0  0  0  0  0  0
   49.7141    5.9014   16.7914 N   0  0  0  0  0  0  0  0  0  0  0  0
   47.6072    9.7964   18.9187 N   0  0  0  0  0  0  0  0  0  0  0  0
   48.0045    8.3816   18.9620 C   0  0  0  0  0  0  0  0  0  0  0  0
   48.6703    7.8181   17.8701 C   0  0  0  0  0  0  0  0  0  0  0  0
   47.7107    7.6102   20.0974 C   0  0  0  0  0  0  0  0  0  0  0  0
   48.0529    4.2674   21.3253 O   0  0  0  0  0  0  0  0  0  0  0  0
   50.8916    6.2430   16.6242 O   0  0  0  0  0  0  0  0  0  0  0  0
   47.0586   10.2660   19.9230 O   0  0  0  0  0  0  0  0  0  0  0  0
   47.2647    6.0703   22.2971 O   0  0  0  0  0  0  0  0  0  0  0  0
   49.0449    5.1797   16.0421 O   0  0  0  0  0  0  0  0  0  0  0  0
   47.8456   10.4246   17.8796 O   0  0  0  0  0  0  0  0  0  0  0  0
   49.1848    4.3644   19.0257 O   0  0  0  0  0  0  0  0  0  0  0  0
   48.6908    6.4334   19.8895 C   0  0  0  0  0  0  0  0  0  0  0  0
   49.0981    5.2908   19.0270 C   0  0  0  0  0  0  0  0  0  0  0  0
   47.8785    6.3363   20.7956 O   0  0  0  0  0  0  0  0  0  0  0  0
   50.0436    5.4176   18.0032 C   0  0  0  0  0  0  0  0  0  0  0  0
   48.5207    4.0390   19.2698 C   0  0  0  0  0  0  0  0  0  0  0  0
   49.7732    3.0699   17.4264 C   0  0  0  0  0  0  0  0  0  0  0  0
   49.3388    7.5660   19.5178 O   0  0  0  0  0  0  0  0  0  0  0  0
   50.2123    1.9413   16.7270 N   0  0  0  0  0  0  0  0  0  0  0  0
   50.3906    4.3068   17.2252 C   0  0  0  0  0  0  0  0  0  0  0  0
   48.8742    2.9351   18.4870 C   0  0  0  0  0  0  0  0  0  0  0  0
   49.0277    8.7414   20.2826 C   0  0  0  0  0  0  0  0  0  0  0  0
   47.8048    9.4385   19.6942 C   0  0  0  0  0  0  0  0  0  0  0  0
   47.4654   10.7159   20.4573 C   0  0  0  0  0  0  0  0  0  0  0  0
   46.2521   11.4134   19.8637 C   0  0  0  0  0  0  0  0  0  0  0  0
   49.8344    6.2733   17.9846 H   0  0  0  0  0  0  0  0  0  0  0  0
   46.4069    3.7488   18.7127 H   0  0  0  0  0  0  0  0  0  0  0  0
   49.6686    1.0202   16.7655 H   0  0  0  0  0  0  0  0  0  0  0  0
   51.0073    2.0071   16.4866 H   0  0  0  0  0  0  0  0  0  0  0  0
   50.9700    4.4004   16.8857 H   0  0  0  0  0  0  0  0  0  0  0  0
   47.5612    1.8814   17.6059 H   0  0  0  0  0  0  0  0  0  0  0  0
   47.2162    8.2555   20.8181 H   0  0  0  0  0  0  0  0  0  0  0  0
   46.4220    8.6919   19.2715 H   0  0  0  0  0  0  0  0  0  0  0  0
   49.2608    9.5006   20.1048 H   0  0  0  0  0  0  0  0  0  0  0  0
   48.5241    9.8625   18.5628 H   0  0  0  0  0  0  0  0  0  0  0  0
   46.7322   11.2027   19.7081 H   0  0  0  0  0  0  0  0  0  0  0  0
   48.3599   11.8310   19.9441 H   0  0  0  0  0  0  0  0  0  0  0  0
   48.4460   10.7317   22.2101 H   0  0  0  0  0  0  0  0  0  0  0  0
   46.7611   10.2123   21.9947 H   0  0  0  0  0  0  0  0  0  0  0  0
   47.1528   11.9337   22.0582 H   0  0  0  0  0  0  0  0  0  0  0  0
   48.9068    8.4044   16.9825 H   0  0  0  0  0  0  0  0  0  0  0  0
   47.1899    8.0611   20.9434 H   0  0  0  0  0  0  0  0  0  0  0  0
   48.8972    3.8715   19.8263 H   0  0  0  0  0  0  0  0  0  0  0  0
   50.5315    6.3683   17.8054 H   0  0  0  0  0  0  0  0  0  0  0  0
   47.8028    3.9120   20.0780 H   0  0  0  0  0  0  0  0  0  0  0  0
   49.5349    1.1857   16.6973 H   0  0  0  0  0  0  0  0  0  0  0  0
   50.5958    2.1471   15.8094 H   0  0  0  0  0  0  0  0  0  0  0  0
   51.1523    4.4186   16.4572 H   0  0  0  0  0  0  0  0  0  0  0  0
   48.4377    1.9661   18.7156 H   0  0  0  0  0  0  0  0  0  0  0  0
   48.8887    8.4968   21.3422 H   0  0  0  0  0  0  0  0  0  0  0  0
   49.9010    9.3994   20.2187 H   0  0  0  0  0  0  0  0  0  0  0  0
   47.9919    9.6645   18.6371 H   0  0  0  0  0  0  0  0  0  0  0  0
   46.9471    8.7553   19.7064 H   0  0  0  0  0  0  0  0  0  0  0  0
   48.3203   11.4016   20.4369 H   0  0  0  0  0  0  0  0  0  0  0  0
   47.2643   10.4781   21.5084 H   0  0  0  0  0  0  0  0  0  0  0  0
   46.0193   12.3192   20.4329 H   0  0  0  0  0  0  0  0  0  0  0  0
   45.3728   10.7615   19.8880 H   0  0  0  0  0  0  0  0  0  0  0  0
   46.4359   11.7030   18.8240 H   0  0  0  0  0  0  0  0  0  0  0  0
  2  1  1  0
  3  1  2  0
  4  2  2  0
  5  2  1  0
  6 10  1  0
  7  1  1  0
  8  6  1  0
  9  4  1  0
 10  5  2  0
 11  7  1  0
 12 11  1  0
 13 12  1  0
 14 13  1  0
  9  6  2  0
 16 17  1  0
 17 15  2  0
 18 15  1  0
 19 16  1  0
 20 21  1  0
 21 23  2  0
 22 21  1  0
 23 15  1  0
 24 18  1  0
 25 19  1  0
 26 20  1  0
 27 18  2  0
 28 19  2  0
 29 20  2  0
 30 17  1  0
 22 16  2  0
 32 31  1  0
 33 31  2  0
 34 32  2  0
 35 32  1  0
 36 40  1  0
 37 31  1  0
 38 36  1  0
 39 34  1  0
 40 35  2  0
 41 37  1  0
 42 41  1  0
 43 42  1  0
 44 43  1  0
 39 36  2  0
  4 45  1  0
  5 46  1  0
  8 47  1  0
  8 48  1  0
  9 49  1  0
 10 50  1  0
 11 51  1  0
 11 52  1  0
 12 53  1  0
 12 54  1  0
 13 55  1  0
 13 56  1  0
 14 57  1  0
 14 58  1  0
 14 59  1  0
 22 60  1  0
 23 61  1  0
 30 62  1  0
 34 63  1  0
 35 64  1  0
 38 65  1  0
 38 66  1  0
 39 67  1  0
 40 68  1  0
 41 69  1  0
 41 70  1  0
 42 71  1  0
 42 72  1  0
 43 73  1  0
 43 74  1  0
 44 75  1  0
 44 76  1  0
 44 77  1  0
M  CHG  6  18   1  19   1  20   1  24  -1  25  -1  26  -1
M  END
> <Uni-Dock RESULT> 
ENERGY=   -5.623  LOWER_BOUND=    3.154  UPPER_BOUND=    5.043
INTER + INTRA:          -5.623
INTER:                  -5.623
INTRA:                   0.000
UNBOUND:                 0.000

$$$$

     RDKit          3D

 77 77  0  0  0  0  0  0  0  0999 V2000
   49.2503    8.6322   18.8024 C   0  0  0  0  0  0  0  0  0  0  0  0
   48.9763    7.2023   18.4936 C   0  0  0  0  0  0  0  0  0  0  0  0
   50.1674    9.2659   18.3053 O   0  0  0  0  0  0  0  0  0  0  0  0
   47.9144    6.4962   19.0702 C   0  0  0  0  0  0  0  0  0  0  0  0
   49.8312    6.5413   17.6037 C   0  0  0  0  0  0  0  0  0  0  0  0
   48.5230    4.5041   17.8132 C   0  0  0  0  0  0  0  0  0  0  0  0
   48.3487    9.1106   19.6955 O   0  0  0  0  0  0  0  0  0  0  0  0
   48.3833    3.1315   17.5877 N   0  0  0  0  0  0  0  0  0  0  0  0
   47.7065    5.1508   18.7444 C   0  0  0  0  0  0  0  0  0  0  0  0
   49.6152    5.1966   17.2852 C   0  0  0  0  0  0  0  0  0  0  0  0
   48.5391   10.4900   20.0424 C   0  0  0  0  0  0  0  0  0  0  0  0
   47.5039   10.8539   21.1021 C   0  0  0  0  0  0  0  0  0  0  0  0
   47.6399   12.2835   21.6238 C   0  0  0  0  0  0  0  0  0  0  0  0
   47.3440   13.3413   20.5717 C   0  0  0  0  0  0  0  0  0  0  0  0
   48.1842    9.0325   18.1920 C   0  0  0  0  0  0  0  0  0  0  0  0
   47.9702    7.3545   19.8972 C   0  0  0  0  0  0  0  0  0  0  0  0
   48.0179    7.6809   18.5363 C   0  0  0  0  0  0  0  0  0  0  0  0
   48.2411    9.4512   16.7854 N   0  0  0  0  0  0  0  0  0  0  0  0
   47.8088    5.9734   20.3008 N   0  0  0  0  0  0  0  0  0  0  0  0
   48.3524   10.6841   21.5851 N   0  0  0  0  0  0  0  0  0  0  0  0
   48.2376    9.6535   20.5429 C   0  0  0  0  0  0  0  0  0  0  0  0
   48.0726    8.3154   20.9109 C   0  0  0  0  0  0  0  0  0  0  0  0
   48.2961   10.0220   19.1896 C   0  0  0  0  0  0  0  0  0  0  0  0
   48.2215    8.5577   15.9262 O   0  0  0  0  0  0  0  0  0  0  0  0
   46.7032    5.6567   20.7575 O   0  0  0  0  0  0  0  0  0  0  0  0
   48.4540   11.8601   21.2156 O   0  0  0  0  0  0  0  0  0  0  0  0
   48.3035   10.6620   16.5440 O   0  0  0  0  0  0  0  0  0  0  0  0
   48.8053    5.2452   20.2176 O   0  0  0  0  0  0  0  0  0  0  0  0
   48.3419   10.3075   22.7636 O   0  0  0  0  0  0  0  0  0  0  0  0
   47.8821    6.6685   17.6275 O   0  0  0  0  0  0  0  0  0  0  0  0
   47.6746    8.7663   18.5373 C   0  0  0  0  0  0  0  0  0  0  0  0
   47.7867    7.3006   18.3037 C   0  0  0  0  0  0  0  0  0  0  0  0
   48.1598    9.6049   17.7946 O   0  0  0  0  0  0  0  0  0  0  0  0
   47.2094    6.3540   19.1576 C   0  0  0  0  0  0  0  0  0  0  0  0
   48.4832    6.8617   17.1717 C   0  0  0  0  0  0  0  0  0  0  0  0
   48.0888    4.5447   17.7899 C   0  0  0  0  0  0  0  0  0  0  0  0
   46.9760    9.0160   19.6732 O   0  0  0  0  0  0  0  0  0  0  0  0
   48.1169    3.1860   17.4599 N   0  0  0  0  0  0  0  0  0  0  0  0
   47.3446    4.9874   18.8862 C   0  0  0  0  0  0  0  0  0  0  0  0
   48.6126    5.4939   16.9091 C   0  0  0  0  0  0  0  0  0  0  0  0
   46.7993   10.4025   20.0040 C   0  0  0  0  0  0  0  0  0  0  0  0
   47.9903   10.9012   20.8167 C   0  0  0  0  0  0  0  0  0  0  0  0
   47.8211   12.3629   21.2216 C   0  0  0  0  0  0  0  0  0  0  0  0
   49.0047   12.8549   22.0390 C   0  0  0  0  0  0  0  0  0  0  0  0
   47.2475    6.9712   19.7853 H   0  0  0  0  0  0  0  0  0  0  0  0
   50.6790    7.0641   17.1647 H   0  0  0  0  0  0  0  0  0  0  0  0
   48.7844    2.8120   16.7115 H   0  0  0  0  0  0  0  0  0  0  0  0
   47.4422    2.7800   17.7320 H   0  0  0  0  0  0  0  0  0  0  0  0
   46.8965    4.6108   19.2283 H   0  0  0  0  0  0  0  0  0  0  0  0
   50.3121    4.6952   16.6186 H   0  0  0  0  0  0  0  0  0  0  0  0
   48.4043   11.1021   19.1442 H   0  0  0  0  0  0  0  0  0  0  0  0
   49.5508   10.6340   20.4402 H   0  0  0  0  0  0  0  0  0  0  0  0
   46.4953   10.6906   20.7018 H   0  0  0  0  0  0  0  0  0  0  0  0
   47.6011   10.1566   21.9442 H   0  0  0  0  0  0  0  0  0  0  0  0
   48.6481   12.4405   22.0254 H   0  0  0  0  0  0  0  0  0  0  0  0
   46.9417   12.4173   22.4589 H   0  0  0  0  0  0  0  0  0  0  0  0
   46.3503   13.1947   20.1359 H   0  0  0  0  0  0  0  0  0  0  0  0
   48.0825   13.3229   19.7645 H   0  0  0  0  0  0  0  0  0  0  0  0
   47.3722   14.3385   21.0233 H   0  0  0  0  0  0  0  0  0  0  0  0
   48.0238    8.0140   21.9570 H   0  0  0  0  0  0  0  0  0  0  0  0
   48.4258   11.0698   18.9147 H   0  0  0  0  0  0  0  0  0  0  0  0
   47.9883    6.9905   16.7047 H   0  0  0  0  0  0  0  0  0  0  0  0
   46.6388    6.6605   20.0302 H   0  0  0  0  0  0  0  0  0  0  0  0
   48.9175    7.5811   16.4800 H   0  0  0  0  0  0  0  0  0  0  0  0
   48.8989    2.9217   16.8688 H   0  0  0  0  0  0  0  0  0  0  0  0
   48.0131    2.5650   18.2568 H   0  0  0  0  0  0  0  0  0  0  0  0
   46.8597    4.2692   19.5431 H   0  0  0  0  0  0  0  0  0  0  0  0
   49.1292    5.1777   16.0064 H   0  0  0  0  0  0  0  0  0  0  0  0
   46.6382   11.0054   19.1025 H   0  0  0  0  0  0  0  0  0  0  0  0
   45.8836   10.4701   20.6010 H   0  0  0  0  0  0  0  0  0  0  0  0
   48.1094   10.2707   21.7066 H   0  0  0  0  0  0  0  0  0  0  0  0
   48.9127   10.7770   20.2369 H   0  0  0  0  0  0  0  0  0  0  0  0
   46.9034   12.4842   21.8087 H   0  0  0  0  0  0  0  0  0  0  0  0
   47.7191   12.9869   20.3261 H   0  0  0  0  0  0  0  0  0  0  0  0
   48.8685   13.9074   22.3079 H   0  0  0  0  0  0  0  0  0  0  0  0
   49.9375   12.7670   21.4724 H   0  0  0  0  0  0  0  0  0  0  0  0
   49.1094   12.2784   22.9638 H   0  0  0  0  0  0  0  0  0  0  0  0
  2  1  1  0
  3  1  2  0
  4  2  2  0
  5  2  1  0
  6 10  1  0
  7  1  1  0
  8  6  1  0
  9  4  1  0
 10  5  2  0
 11  7  1  0
 12 11  1  0
 13 12  1  0
 14 13  1  0
  9  6  2  0
 16 17  1  0
 17 15  2  0
 18 15  1  0
 19 16  1  0
 20 21  1  0
 21 23  2  0
 22 21  1  0
 23 15  1  0
 24 18  1  0
 25 19  1  0
 26 20  1  0
 27 18  2  0
 28 19  2  0
 29 20  2  0
 30 17  1  0
 22 16  2  0
 32 31  1  0
 33 31  2  0
 34 32  2  0
 35 32  1  0
 36 40  1  0
 37 31  1  0
 38 36  1  0
 39 34  1  0
 40 35  2  0
 41 37  1  0
 42 41  1  0
 43 42  1  0
 44 43  1  0
 39 36  2  0
  4 45  1  0
  5 46  1  0
  8 47  1  0
  8 48  1  0
  9 49  1  0
 10 50  1  0
 11 51  1  0
 11 52  1  0
 12 53  1  0
 12 54  1  0
 13 55  1  0
 13 56  1  0
 14 57  1  0
 14 58  1  0
 14 59  1  0
 22 60  1  0
 23 61  1  0
 30 62  1  0
 34 63  1  0
 35 64  1  0
 38 65  1  0
 38 66  1  0
 39 67  1  0
 40 68  1  0
 41 69  1  0
 41 70  1  0
 42 71  1  0
 42 72  1  0
 43 73  1  0
 43 74  1  0
 44 75  1  0
 44 76  1  0
 44 77  1  0
M  CHG  6  18   1  19   1  20   1  24  -1  25  -1  26  -1
M  END
> <Uni-Dock RESULT> 
ENERGY=   -5.587  LOWER_BOUND=    2.413  UPPER_BOUND=    3.543
INTER + INTRA:          -5.587
INTER:                  -5.587
INTRA:                   0.000
UNBOUND:                 0.000

$$$$

     RDKit          3D

 77 77  0  0  0  0  0  0  0  0999 V2000
   46.9545    8.4849   13.5259 C   0  0  0  0  0  0  0  0  0  0  0  0
   48.3181    9.0277   13.2791 C   0  0  0  0  0  0  0  0  0  0  0  0
   46.1785    8.9556   14.3420 O   0  0  0  0  0  0  0  0  0  0  0  0
   49.1896    8.4763   12.3329 C   0  0  0  0  0  0  0  0  0  0  0  0
   48.7432   10.1221   14.0414 C   0  0  0  0  0  0  0  0  0  0  0  0
   50.8688   10.1547   12.8641 C   0  0  0  0  0  0  0  0  0  0  0  0
   46.7121    7.4169   12.7259 O   0  0  0  0  0  0  0  0  0  0  0  0
   52.1824   10.6212   12.7585 N   0  0  0  0  0  0  0  0  0  0  0  0
   50.4627    9.0273   12.1457 C   0  0  0  0  0  0  0  0  0  0  0  0
   50.0176   10.6649   13.8471 C   0  0  0  0  0  0  0  0  0  0  0  0
   45.4108    6.8367   12.8970 C   0  0  0  0  0  0  0  0  0  0  0  0
   45.3206    5.6125   11.9913 C   0  0  0  0  0  0  0  0  0  0  0  0
   44.0060    4.8461   12.1286 C   0  0  0  0  0  0  0  0  0  0  0  0
   42.7950    5.6336   11.6527 C   0  0  0  0  0  0  0  0  0  0  0  0
   46.5223    8.8774   12.3732 C   0  0  0  0  0  0  0  0  0  0  0  0
   48.4970    7.5125   12.4559 C   0  0  0  0  0  0  0  0  0  0  0  0
   47.9224    8.7815   12.3135 C   0  0  0  0  0  0  0  0  0  0  0  0
   45.8482   10.1743   12.2300 N   0  0  0  0  0  0  0  0  0  0  0  0
   49.9367    7.3651   12.4100 N   0  0  0  0  0  0  0  0  0  0  0  0
   45.5182    5.2744   12.9015 N   0  0  0  0  0  0  0  0  0  0  0  0
   46.3440    6.4740   12.7003 C   0  0  0  0  0  0  0  0  0  0  0  0
   47.7351    6.3526   12.6444 C   0  0  0  0  0  0  0  0  0  0  0  0
   45.7288    7.7288   12.5677 C   0  0  0  0  0  0  0  0  0  0  0  0
   46.5668   11.1805   12.1405 O   0  0  0  0  0  0  0  0  0  0  0  0
   50.4072    6.8508   11.3876 O   0  0  0  0  0  0  0  0  0  0  0  0
   44.2900    5.4208   12.9018 O   0  0  0  0  0  0  0  0  0  0  0  0
   44.6123   10.1847   12.2063 O   0  0  0  0  0  0  0  0  0  0  0  0
   50.5670    7.7031   13.4193 O   0  0  0  0  0  0  0  0  0  0  0  0
   46.1058    4.1970   13.0595 O   0  0  0  0  0  0  0  0  0  0  0  0
   48.7564    9.8452   12.1079 O   0  0  0  0  0  0  0  0  0  0  0  0
   46.8820    8.5321   11.9247 C   0  0  0  0  0  0  0  0  0  0  0  0
   48.2682    9.0539   12.0717 C   0  0  0  0  0  0  0  0  0  0  0  0
   45.8894    9.1520   12.2722 O   0  0  0  0  0  0  0  0  0  0  0  0
   49.3934    8.3355   11.6521 C   0  0  0  0  0  0  0  0  0  0  0  0
   48.4417   10.3230   12.6361 C   0  0  0  0  0  0  0  0  0  0  0  0
   50.8545   10.1185   12.4290 C   0  0  0  0  0  0  0  0  0  0  0  0
   46.8949    7.2952   11.3673 O   0  0  0  0  0  0  0  0  0  0  0  0
   52.1237   10.7039   12.4757 N   0  0  0  0  0  0  0  0  0  0  0  0
   50.6739    8.8779   11.8128 C   0  0  0  0  0  0  0  0  0  0  0  0
   49.7253   10.8564   12.7921 C   0  0  0  0  0  0  0  0  0  0  0  0
   45.6086    6.6862   11.1724 C   0  0  0  0  0  0  0  0  0  0  0  0
   45.1883    5.9388   12.4342 C   0  0  0  0  0  0  0  0  0  0  0  0
   43.8415    5.2440   12.2529 C   0  0  0  0  0  0  0  0  0  0  0  0
   43.4291    4.4926   13.5084 C   0  0  0  0  0  0  0  0  0  0  0  0
   48.9016    7.6100   11.7428 H   0  0  0  0  0  0  0  0  0  0  0  0
   48.0916   10.5493   14.8014 H   0  0  0  0  0  0  0  0  0  0  0  0
   52.3064   11.5834   13.0576 H   0  0  0  0  0  0  0  0  0  0  0  0
   52.6182   10.4373   11.8605 H   0  0  0  0  0  0  0  0  0  0  0  0
   51.1370    8.5641   11.4297 H   0  0  0  0  0  0  0  0  0  0  0  0
   50.3384   11.4926   14.4744 H   0  0  0  0  0  0  0  0  0  0  0  0
   44.6541    7.5787   12.6205 H   0  0  0  0  0  0  0  0  0  0  0  0
   45.2738    6.5405   13.9439 H   0  0  0  0  0  0  0  0  0  0  0  0
   45.4759    5.9152   10.9479 H   0  0  0  0  0  0  0  0  0  0  0  0
   46.1531    4.9372   12.2271 H   0  0  0  0  0  0  0  0  0  0  0  0
   43.8573    4.5433   13.1720 H   0  0  0  0  0  0  0  0  0  0  0  0
   44.0770    3.9246   11.5382 H   0  0  0  0  0  0  0  0  0  0  0  0
   42.9263    5.9694   10.6188 H   0  0  0  0  0  0  0  0  0  0  0  0
   42.6133    6.5105   12.2814 H   0  0  0  0  0  0  0  0  0  0  0  0
   41.8988    5.0056   11.6937 H   0  0  0  0  0  0  0  0  0  0  0  0
   48.2272    5.3854   12.7440 H   0  0  0  0  0  0  0  0  0  0  0  0
   44.6419    7.8110   12.6137 H   0  0  0  0  0  0  0  0  0  0  0  0
   48.2630   10.6951   12.0800 H   0  0  0  0  0  0  0  0  0  0  0  0
   49.2932    7.3594   11.1852 H   0  0  0  0  0  0  0  0  0  0  0  0
   47.5789   10.9101   12.9450 H   0  0  0  0  0  0  0  0  0  0  0  0
   52.2200   11.4225   13.1863 H   0  0  0  0  0  0  0  0  0  0  0  0
   52.8868   10.0344   12.5032 H   0  0  0  0  0  0  0  0  0  0  0  0
   51.5325    8.3185   11.4491 H   0  0  0  0  0  0  0  0  0  0  0  0
   49.8332   11.8574   13.2022 H   0  0  0  0  0  0  0  0  0  0  0  0
   44.8622    7.4300   10.8698 H   0  0  0  0  0  0  0  0  0  0  0  0
   45.7153    5.9837   10.3389 H   0  0  0  0  0  0  0  0  0  0  0  0
   45.9626    5.2067   12.6951 H   0  0  0  0  0  0  0  0  0  0  0  0
   45.1397    6.6361   13.2792 H   0  0  0  0  0  0  0  0  0  0  0  0
   43.8939    4.5409   11.4137 H   0  0  0  0  0  0  0  0  0  0  0  0
   43.0714    5.9850   12.0087 H   0  0  0  0  0  0  0  0  0  0  0  0
   42.4562    4.0127   13.3606 H   0  0  0  0  0  0  0  0  0  0  0  0
   43.3468    5.1713   14.3636 H   0  0  0  0  0  0  0  0  0  0  0  0
   44.1579    3.7143   13.7568 H   0  0  0  0  0  0  0  0  0  0  0  0
  2  1  1  0
  3  1  2  0
  4  2  2  0
  5  2  1  0
  6 10  1  0
  7  1  1  0
  8  6  1  0
  9  4  1  0
 10  5  2  0
 11  7  1  0
 12 11  1  0
 13 12  1  0
 14 13  1  0
  9  6  2  0
 16 17  1  0
 17 15  2  0
 18 15  1  0
 19 16  1  0
 20 21  1  0
 21 23  2  0
 22 21  1  0
 23 15  1  0
 24 18  1  0
 25 19  1  0
 26 20  1  0
 27 18  2  0
 28 19  2  0
 29 20  2  0
 30 17  1  0
 22 16  2  0
 32 31  1  0
 33 31  2  0
 34 32  2  0
 35 32  1  0
 36 40  1  0
 37 31  1  0
 38 36  1  0
 39 34  1  0
 40 35  2  0
 41 37  1  0
 42 41  1  0
 43 42  1  0
 44 43  1  0
 39 36  2  0
  4 45  1  0
  5 46  1  0
  8 47  1  0
  8 48  1  0
  9 49  1  0
 10 50  1  0
 11 51  1  0
 11 52  1  0
 12 53  1  0
 12 54  1  0
 13 55  1  0
 13 56  1  0
 14 57  1  0
 14 58  1  0
 14 59  1  0
 22 60  1  0
 23 61  1  0
 30 62  1  0
 34 63  1  0
 35 64  1  0
 38 65  1  0
 38 66  1  0
 39 67  1  0
 40 68  1  0
 41 69  1  0
 41 70  1  0
 42 71  1  0
 42 72  1  0
 43 73  1  0
 43 74  1  0
 44 75  1  0
 44 76  1  0
 44 77  1  0
M  CHG  6  18   1  19   1  20   1  24  -1  25  -1  26  -1
M  END
> <Uni-Dock RESULT> 
ENERGY=   -5.504  LOWER_BOUND=    7.867  UPPER_BOUND=   10.175
INTER + INTRA:          -5.504
INTER:                  -5.504
INTRA:                   0.000
UNBOUND:                 0.000

$$$$

     RDKit          3D

 77 77  0  0  0  0  0  0  0  0999 V2000
   49.4157   11.7711   17.8998 C   0  0  0  0  0  0  0  0  0  0  0  0
   48.7055   11.0452   18.9878 C   0  0  0  0  0  0  0  0  0  0  0  0
   50.3898   11.3250   17.3151 O   0  0  0  0  0  0  0  0  0  0  0  0
   47.5856   11.5728   19.6407 C   0  0  0  0  0  0  0  0  0  0  0  0
   49.1959    9.7937   19.3788 C   0  0  0  0  0  0  0  0  0  0  0  0
   47.4115    9.5717   21.0133 C   0  0  0  0  0  0  0  0  0  0  0  0
   48.8298   12.9712   17.6630 O   0  0  0  0  0  0  0  0  0  0  0  0
   46.8572    8.9078   22.1117 N   0  0  0  0  0  0  0  0  0  0  0  0
   46.9595   10.8456   20.6597 C   0  0  0  0  0  0  0  0  0  0  0  0
   48.5635    9.0753   20.3988 C   0  0  0  0  0  0  0  0  0  0  0  0
   49.4521   13.7340   16.6189 C   0  0  0  0  0  0  0  0  0  0  0  0
   48.7321   15.0756   16.5258 C   0  0  0  0  0  0  0  0  0  0  0  0
   49.3431   16.0272   15.4983 C   0  0  0  0  0  0  0  0  0  0  0  0
   49.2051   15.5379   14.0648 C   0  0  0  0  0  0  0  0  0  0  0  0
   48.4277   11.6331   17.0786 C   0  0  0  0  0  0  0  0  0  0  0  0
   48.0045   12.6121   19.2307 C   0  0  0  0  0  0  0  0  0  0  0  0
   47.9392   11.4954   18.3883 C   0  0  0  0  0  0  0  0  0  0  0  0
   48.3904   10.5065   16.1371 N   0  0  0  0  0  0  0  0  0  0  0  0
   47.5211   12.5157   20.5921 N   0  0  0  0  0  0  0  0  0  0  0  0
   49.5600   15.2367   17.0460 N   0  0  0  0  0  0  0  0  0  0  0  0
   49.0044   13.9565   17.5083 C   0  0  0  0  0  0  0  0  0  0  0  0
   48.5245   13.8446   18.8161 C   0  0  0  0  0  0  0  0  0  0  0  0
   48.9623   12.8592   16.6338 C   0  0  0  0  0  0  0  0  0  0  0  0
   47.9911    9.4165   16.5723 O   0  0  0  0  0  0  0  0  0  0  0  0
   46.4520   13.0872   20.8406 O   0  0  0  0  0  0  0  0  0  0  0  0
   49.9339   15.3045   15.8689 O   0  0  0  0  0  0  0  0  0  0  0  0
   48.7560   10.7116   14.9742 O   0  0  0  0  0  0  0  0  0  0  0  0
   48.2470   11.9294   21.4043 O   0  0  0  0  0  0  0  0  0  0  0  0
   49.6192   16.1621   17.8652 O   0  0  0  0  0  0  0  0  0  0  0  0
   47.3887   10.3469   18.8853 O   0  0  0  0  0  0  0  0  0  0  0  0
   47.9211   11.9741   17.3556 C   0  0  0  0  0  0  0  0  0  0  0  0
   47.5779   11.2066   18.5838 C   0  0  0  0  0  0  0  0  0  0  0  0
   48.5073   11.4890   16.4010 O   0  0  0  0  0  0  0  0  0  0  0  0
   46.8904   11.7755   19.6618 C   0  0  0  0  0  0  0  0  0  0  0  0
   47.9450    9.8573   18.6458 C   0  0  0  0  0  0  0  0  0  0  0  0
   47.0080    9.6737   20.8807 C   0  0  0  0  0  0  0  0  0  0  0  0
   47.4990   13.2591   17.4630 O   0  0  0  0  0  0  0  0  0  0  0  0
   46.6012    8.8791   21.9572 N   0  0  0  0  0  0  0  0  0  0  0  0
   46.5916   11.0041   20.7910 C   0  0  0  0  0  0  0  0  0  0  0  0
   47.6416    9.0947   19.7785 C   0  0  0  0  0  0  0  0  0  0  0  0
   47.7731   14.1014   16.3322 C   0  0  0  0  0  0  0  0  0  0  0  0
   49.1638   14.7151   16.4633 C   0  0  0  0  0  0  0  0  0  0  0  0
   49.4773   15.6494   15.2979 C   0  0  0  0  0  0  0  0  0  0  0  0
   50.8598   16.2665   15.4354 C   0  0  0  0  0  0  0  0  0  0  0  0
   47.1947   12.5531   19.3803 H   0  0  0  0  0  0  0  0  0  0  0  0
   50.0817    9.3769   18.9029 H   0  0  0  0  0  0  0  0  0  0  0  0
   47.0163    7.9051   22.1141 H   0  0  0  0  0  0  0  0  0  0  0  0
   45.8876    9.1450   22.2952 H   0  0  0  0  0  0  0  0  0  0  0  0
   46.1114   11.2870   21.1772 H   0  0  0  0  0  0  0  0  0  0  0  0
   48.9826    8.1215   20.7086 H   0  0  0  0  0  0  0  0  0  0  0  0
   49.3636   13.1818   15.6771 H   0  0  0  0  0  0  0  0  0  0  0  0
   50.5107   13.8913   16.8577 H   0  0  0  0  0  0  0  0  0  0  0  0
   47.6706   14.9083   16.3036 H   0  0  0  0  0  0  0  0  0  0  0  0
   48.7525   15.5560   17.5125 H   0  0  0  0  0  0  0  0  0  0  0  0
   50.4026   16.1935   15.7266 H   0  0  0  0  0  0  0  0  0  0  0  0
   48.8439   16.9998   15.5845 H   0  0  0  0  0  0  0  0  0  0  0  0
   48.1571   15.3410   13.8161 H   0  0  0  0  0  0  0  0  0  0  0  0
   49.7793   14.6220   13.8957 H   0  0  0  0  0  0  0  0  0  0  0  0
   49.5812   16.2971   13.3709 H   0  0  0  0  0  0  0  0  0  0  0  0
   48.5489   14.6877   19.5061 H   0  0  0  0  0  0  0  0  0  0  0  0
   49.3406   12.9586   15.6154 H   0  0  0  0  0  0  0  0  0  0  0  0
   47.4429    9.6076   18.2394 H   0  0  0  0  0  0  0  0  0  0  0  0
   46.5665   12.8126   19.6356 H   0  0  0  0  0  0  0  0  0  0  0  0
   48.4569    9.3877   17.8080 H   0  0  0  0  0  0  0  0  0  0  0  0
   47.1793    8.0576   22.1045 H   0  0  0  0  0  0  0  0  0  0  0  0
   46.4459    9.3965   22.8172 H   0  0  0  0  0  0  0  0  0  0  0  0
   46.0269   11.4556   21.6033 H   0  0  0  0  0  0  0  0  0  0  0  0
   47.9071    8.0406   19.7901 H   0  0  0  0  0  0  0  0  0  0  0  0
   47.6566   13.5495   15.3921 H   0  0  0  0  0  0  0  0  0  0  0  0
   47.0136   14.8906   16.3353 H   0  0  0  0  0  0  0  0  0  0  0  0
   49.2310   15.2570   17.4149 H   0  0  0  0  0  0  0  0  0  0  0  0
   49.9163   13.9193   16.5189 H   0  0  0  0  0  0  0  0  0  0  0  0
   48.7295   16.4493   15.2488 H   0  0  0  0  0  0  0  0  0  0  0  0
   49.4237   15.0957   14.3534 H   0  0  0  0  0  0  0  0  0  0  0  0
   51.0685   16.9225   14.5841 H   0  0  0  0  0  0  0  0  0  0  0  0
   51.6343   15.4932   15.4664 H   0  0  0  0  0  0  0  0  0  0  0  0
   50.9337   16.8631   16.3504 H   0  0  0  0  0  0  0  0  0  0  0  0
  2  1  1  0
  3  1  2  0
  4  2  2  0
  5  2  1  0
  6 10  1  0
  7  1  1  0
  8  6  1  0
  9  4  1  0
 10  5  2  0
 11  7  1  0
 12 11  1  0
 13 12  1  0
 14 13  1  0
  9  6  2  0
 16 17  1  0
 17 15  2  0
 18 15  1  0
 19 16  1  0
 20 21  1  0
 21 23  2  0
 22 21  1  0
 23 15  1  0
 24 18  1  0
 25 19  1  0
 26 20  1  0
 27 18  2  0
 28 19  2  0
 29 20  2  0
 30 17  1  0
 22 16  2  0
 32 31  1  0
 33 31  2  0
 34 32  2  0
 35 32  1  0
 36 40  1  0
 37 31  1  0
 38 36  1  0
 39 34  1  0
 40 35  2  0
 41 37  1  0
 42 41  1  0
 43 42  1  0
 44 43  1  0
 39 36  2  0
  4 45  1  0
  5 46  1  0
  8 47  1  0
  8 48  1  0
  9 49  1  0
 10 50  1  0
 11 51  1  0
 11 52  1  0
 12 53  1  0
 12 54  1  0
 13 55  1  0
 13 56  1  0
 14 57  1  0
 14 58  1  0
 14 59  1  0
 22 60  1  0
 23 61  1  0
 30 62  1  0
 34 63  1  0
 35 64  1  0
 38 65  1  0
 38 66  1  0
 39 67  1  0
 40 68  1  0
 41 69  1  0
 41 70  1  0
 42 71  1  0
 42 72  1  0
 43 73  1  0
 43 74  1  0
 44 75  1  0
 44 76  1  0
 44 77  1  0
M  CHG  6  18   1  19   1  20   1  24  -1  25  -1  26  -1
M  END
> <Uni-Dock RESULT> 
ENERGY=   -5.326  LOWER_BOUND=    2.518  UPPER_BOUND=    4.271
INTER + INTRA:          -5.326
INTER:                  -5.326
INTRA:                   0.000
UNBOUND:                 0.000

$$$$

     RDKit          3D

 77 77  0  0  0  0  0  0  0  0999 V2000
   50.0151    7.5274   19.1436 C   0  0  0  0  0  0  0  0  0  0  0  0
   50.0384    6.1086   18.6945 C   0  0  0  0  0  0  0  0  0  0  0  0
   50.9875    8.1062   19.6010 O   0  0  0  0  0  0  0  0  0  0  0  0
   48.9129    5.4660   18.1664 C   0  0  0  0  0  0  0  0  0  0  0  0
   51.2335    5.3917   18.8265 C   0  0  0  0  0  0  0  0  0  0  0  0
   50.1988    3.4267   17.8398 C   0  0  0  0  0  0  0  0  0  0  0  0
   48.7818    8.0643   18.9703 O   0  0  0  0  0  0  0  0  0  0  0  0
   50.2380    2.0597   17.5499 N   0  0  0  0  0  0  0  0  0  0  0  0
   48.9929    4.1281   17.7628 C   0  0  0  0  0  0  0  0  0  0  0  0
   51.3029    4.0549   18.4208 C   0  0  0  0  0  0  0  0  0  0  0  0
   48.6759    9.4374   19.3736 C   0  0  0  0  0  0  0  0  0  0  0  0
   47.2245    9.8694   19.1894 C   0  0  0  0  0  0  0  0  0  0  0  0
   46.9482   11.2981   19.6551 C   0  0  0  0  0  0  0  0  0  0  0  0
   47.6599   12.3533   18.8224 C   0  0  0  0  0  0  0  0  0  0  0  0
   49.8854    7.9717   17.9373 C   0  0  0  0  0  0  0  0  0  0  0  0
   48.3198    6.3329   18.7325 C   0  0  0  0  0  0  0  0  0  0  0  0
   49.4528    6.6357   17.9674 C   0  0  0  0  0  0  0  0  0  0  0  0
   51.0645    8.3655   17.1552 N   0  0  0  0  0  0  0  0  0  0  0  0
   47.8414    4.9680   18.8010 N   0  0  0  0  0  0  0  0  0  0  0  0
   47.3363    9.6642   20.1523 N   0  0  0  0  0  0  0  0  0  0  0  0
   48.0594    8.6250   19.4050 C   0  0  0  0  0  0  0  0  0  0  0  0
   47.6092    7.3027   19.4507 C   0  0  0  0  0  0  0  0  0  0  0  0
   49.1946    8.9694   18.6544 C   0  0  0  0  0  0  0  0  0  0  0  0
   51.7036    7.4611   16.5978 O   0  0  0  0  0  0  0  0  0  0  0  0
   46.8025    4.7147   18.1784 O   0  0  0  0  0  0  0  0  0  0  0  0
   47.7430   10.8279   20.0499 O   0  0  0  0  0  0  0  0  0  0  0  0
   51.3466    9.5677   17.0989 O   0  0  0  0  0  0  0  0  0  0  0  0
   48.4716    4.1892   19.5266 O   0  0  0  0  0  0  0  0  0  0  0  0
   46.3694    9.3066   20.8366 O   0  0  0  0  0  0  0  0  0  0  0  0
   50.0573    5.6177   17.2835 O   0  0  0  0  0  0  0  0  0  0  0  0
   49.2934    7.7369   17.7271 C   0  0  0  0  0  0  0  0  0  0  0  0
   49.4852    6.2640   17.6312 C   0  0  0  0  0  0  0  0  0  0  0  0
   50.2137    8.5385   17.6982 O   0  0  0  0  0  0  0  0  0  0  0  0
   48.4163    5.3610   17.6494 C   0  0  0  0  0  0  0  0  0  0  0  0
   50.7894    5.7733   17.4986 C   0  0  0  0  0  0  0  0  0  0  0  0
   49.9602    3.4889   17.4793 C   0  0  0  0  0  0  0  0  0  0  0  0
   47.9768    8.0389   17.8544 O   0  0  0  0  0  0  0  0  0  0  0  0
   50.1838    2.1256   17.2618 N   0  0  0  0  0  0  0  0  0  0  0  0
   48.6564    3.9853   17.5525 C   0  0  0  0  0  0  0  0  0  0  0  0
   51.0190    4.3968   17.4022 C   0  0  0  0  0  0  0  0  0  0  0  0
   47.6652    9.4375   17.9542 C   0  0  0  0  0  0  0  0  0  0  0  0
   47.7454    9.8876   19.4098 C   0  0  0  0  0  0  0  0  0  0  0  0
   47.3820   11.3621   19.5623 C   0  0  0  0  0  0  0  0  0  0  0  0
   47.4538   11.8059   21.0145 C   0  0  0  0  0  0  0  0  0  0  0  0
   47.9621    5.9850   18.0746 H   0  0  0  0  0  0  0  0  0  0  0  0
   52.1133    5.8641   19.2597 H   0  0  0  0  0  0  0  0  0  0  0  0
   51.1659    1.7070   17.3373 H   0  0  0  0  0  0  0  0  0  0  0  0
   49.5460    1.7585   16.8713 H   0  0  0  0  0  0  0  0  0  0  0  0
   48.0990    3.6371   17.3862 H   0  0  0  0  0  0  0  0  0  0  0  0
   52.2316    3.5088   18.5648 H   0  0  0  0  0  0  0  0  0  0  0  0
   49.3414   10.0418   18.7479 H   0  0  0  0  0  0  0  0  0  0  0  0
   48.9666    9.5361   20.4264 H   0  0  0  0  0  0  0  0  0  0  0  0
   46.9368    9.7513   18.1369 H   0  0  0  0  0  0  0  0  0  0  0  0
   46.5779    9.1810   19.7486 H   0  0  0  0  0  0  0  0  0  0  0  0
   47.2343   11.4099   20.7077 H   0  0  0  0  0  0  0  0  0  0  0  0
   45.8681   11.4797   19.5993 H   0  0  0  0  0  0  0  0  0  0  0  0
   47.4102   12.2505   17.7613 H   0  0  0  0  0  0  0  0  0  0  0  0
   48.7465   12.2853   18.9308 H   0  0  0  0  0  0  0  0  0  0  0  0
   47.3571   13.3545   19.1463 H   0  0  0  0  0  0  0  0  0  0  0  0
   46.7289    7.0201   20.0275 H   0  0  0  0  0  0  0  0  0  0  0  0
   49.5367   10.0049   18.6269 H   0  0  0  0  0  0  0  0  0  0  0  0
   50.8740    5.9198   16.8271 H   0  0  0  0  0  0  0  0  0  0  0  0
   47.3896    5.7092   17.7236 H   0  0  0  0  0  0  0  0  0  0  0  0
   51.6333    6.4592   17.4556 H   0  0  0  0  0  0  0  0  0  0  0  0
   51.1128    1.8131   17.5266 H   0  0  0  0  0  0  0  0  0  0  0  0
   49.4568    1.5229   17.6355 H   0  0  0  0  0  0  0  0  0  0  0  0
   47.8102    3.3027   17.5342 H   0  0  0  0  0  0  0  0  0  0  0  0
   52.0372    4.0412   17.2665 H   0  0  0  0  0  0  0  0  0  0  0  0
   48.3172   10.0339   17.3053 H   0  0  0  0  0  0  0  0  0  0  0  0
   46.6433    9.5605   17.5798 H   0  0  0  0  0  0  0  0  0  0  0  0
   47.0765    9.2655   20.0174 H   0  0  0  0  0  0  0  0  0  0  0  0
   48.7551    9.7081   19.7982 H   0  0  0  0  0  0  0  0  0  0  0  0
   46.3692   11.5385   19.1819 H   0  0  0  0  0  0  0  0  0  0  0  0
   48.0654   11.9766   18.9649 H   0  0  0  0  0  0  0  0  0  0  0  0
   47.2017   12.8679   21.0993 H   0  0  0  0  0  0  0  0  0  0  0  0
   48.4605   11.6623   21.4202 H   0  0  0  0  0  0  0  0  0  0  0  0
   46.7504   11.2391   21.6331 H   0  0  0  0  0  0  0  0  0  0  0  0
  2  1  1  0
  3  1  2  0
  4  2  2  0
  5  2  1  0
  6 10  1  0
  7  1  1  0
  8  6  1  0
  9  4  1  0
 10  5  2  0
 11  7  1  0
 12 11  1  0
 13 12  1  0
 14 13  1  0
  9  6  2  0
 16 17  1  0
 17 15  2  0
 18 15  1  0
 19 16  1  0
 20 21  1  0
 21 23  2  0
 22 21  1  0
 23 15  1  0
 24 18  1  0
 25 19  1  0
 26 20  1  0
 27 18  2  0
 28 19  2  0
 29 20  2  0
 30 17  1  0
 22 16  2  0
 32 31  1  0
 33 31  2  0
 34 32  2  0
 35 32  1  0
 36 40  1  0
 37 31  1  0
 38 36  1  0
 39 34  1  0
 40 35  2  0
 41 37  1  0
 42 41  1  0
 43 42  1  0
 44 43  1  0
 39 36  2  0
  4 45  1  0
  5 46  1  0
  8 47  1  0
  8 48  1  0
  9 49  1  0
 10 50  1  0
 11 51  1  0
 11 52  1  0
 12 53  1  0
 12 54  1  0
 13 55  1  0
 13 56  1  0
 14 57  1  0
 14 58  1  0
 14 59  1  0
 22 60  1  0
 23 61  1  0
 30 62  1  0
 34 63  1  0
 35 64  1  0
 38 65  1  0
 38 66  1  0
 39 67  1  0
 40 68  1  0
 41 69  1  0
 41 70  1  0
 42 71  1  0
 42 72  1  0
 43 73  1  0
 43 74  1  0
 44 75  1  0
 44 76  1  0
 44 77  1  0
M  CHG  6  18   1  19   1  20   1  24  -1  25  -1  26  -1
M  END
> <Uni-Dock RESULT> 
ENERGY=   -5.071  LOWER_BOUND=    3.143  UPPER_BOUND=    4.547
INTER + INTRA:          -5.071
INTER:                  -5.071
INTRA:                   0.000
UNBOUND:                 0.000

$$$$
