
     RDKit          3D

 77 77  0  0  0  0  0  0  0  0999 V2000
   47.2669    8.9398   20.5372 C   0  0  0  0  0  0  0  0  0  0  0  0
   47.2487   10.1885   19.7275 C   0  0  0  0  0  0  0  0  0  0  0  0
   46.6454    8.8039   21.5793 O   0  0  0  0  0  0  0  0  0  0  0  0
   47.9354   10.3102   18.5139 C   0  0  0  0  0  0  0  0  0  0  0  0
   46.4942   11.2709   20.1953 C   0  0  0  0  0  0  0  0  0  0  0  0
   47.1712   12.6084   18.2825 C   0  0  0  0  0  0  0  0  0  0  0  0
   48.0623    8.0074   19.9562 O   0  0  0  0  0  0  0  0  0  0  0  0
   47.0168   13.7536   17.4959 N   0  0  0  0  0  0  0  0  0  0  0  0
   47.8763   11.5068   17.7902 C   0  0  0  0  0  0  0  0  0  0  0  0
   46.4420   12.4629   19.4650 C   0  0  0  0  0  0  0  0  0  0  0  0
   48.1547    6.7493   20.6432 C   0  0  0  0  0  0  0  0  0  0  0  0
   49.2488    6.8122   21.7048 C   0  0  0  0  0  0  0  0  0  0  0  0
   49.4308    5.4669   22.4026 C   0  0  0  0  0  0  0  0  0  0  0  0
   50.5064    5.5367   23.4750 C   0  0  0  0  0  0  0  0  0  0  0  0
   48.2427    9.8625   19.5365 C   0  0  0  0  0  0  0  0  0  0  0  0
   47.9660    7.6383   20.4001 C   0  0  0  0  0  0  0  0  0  0  0  0
   48.0215    8.4965   19.2948 C   0  0  0  0  0  0  0  0  0  0  0  0
   48.3108   10.8236   18.4281 N   0  0  0  0  0  0  0  0  0  0  0  0
   47.7327    6.2240   20.1999 N   0  0  0  0  0  0  0  0  0  0  0  0
   48.5300    9.9486   23.3025 N   0  0  0  0  0  0  0  0  0  0  0  0
   48.3532    9.4486   21.9312 C   0  0  0  0  0  0  0  0  0  0  0  0
   48.1316    8.0856   21.7164 C   0  0  0  0  0  0  0  0  0  0  0  0
   48.4079   10.3439   20.8510 C   0  0  0  0  0  0  0  0  0  0  0  0
   48.4896   12.0154   18.7049 O   0  0  0  0  0  0  0  0  0  0  0  0
   48.7115    5.4789   20.3296 O   0  0  0  0  0  0  0  0  0  0  0  0
   48.4427    9.1281   24.2244 O   0  0  0  0  0  0  0  0  0  0  0  0
   48.1837   10.3751   17.2791 O   0  0  0  0  0  0  0  0  0  0  0  0
   46.5665    5.8744   19.9796 O   0  0  0  0  0  0  0  0  0  0  0  0
   48.7544   11.1567   23.4450 O   0  0  0  0  0  0  0  0  0  0  0  0
   47.8710    7.9505   18.0505 O   0  0  0  0  0  0  0  0  0  0  0  0
   47.2327    8.7199   20.8226 C   0  0  0  0  0  0  0  0  0  0  0  0
   47.2915    9.9532   19.9911 C   0  0  0  0  0  0  0  0  0  0  0  0
   46.7928    8.6987   21.9614 O   0  0  0  0  0  0  0  0  0  0  0  0
   46.8120   11.1474   20.5415 C   0  0  0  0  0  0  0  0  0  0  0  0
   47.7905    9.9582   18.6834 C   0  0  0  0  0  0  0  0  0  0  0  0
   47.4009   12.3533   18.5156 C   0  0  0  0  0  0  0  0  0  0  0  0
   47.7440    7.6652   20.1419 O   0  0  0  0  0  0  0  0  0  0  0  0
   47.3258   13.5113   17.7361 N   0  0  0  0  0  0  0  0  0  0  0  0
   46.8487   12.3319   19.7982 C   0  0  0  0  0  0  0  0  0  0  0  0
   47.8231   11.1487   17.9478 C   0  0  0  0  0  0  0  0  0  0  0  0
   47.7637    6.4036   20.8277 C   0  0  0  0  0  0  0  0  0  0  0  0
   49.1974    6.0289   21.1951 C   0  0  0  0  0  0  0  0  0  0  0  0
   49.8022    6.9681   22.2403 C   0  0  0  0  0  0  0  0  0  0  0  0
   51.2026    6.5283   22.6389 C   0  0  0  0  0  0  0  0  0  0  0  0
   48.5079    9.4800   18.1080 H   0  0  0  0  0  0  0  0  0  0  0  0
   45.9312   11.1884   21.1232 H   0  0  0  0  0  0  0  0  0  0  0  0
   47.7795   13.9177   16.8463 H   0  0  0  0  0  0  0  0  0  0  0  0
   46.7719   14.5872   18.0211 H   0  0  0  0  0  0  0  0  0  0  0  0
   48.3883   11.5696   16.8333 H   0  0  0  0  0  0  0  0  0  0  0  0
   45.8228   13.2784   19.8308 H   0  0  0  0  0  0  0  0  0  0  0  0
   47.1869    6.4626   21.0717 H   0  0  0  0  0  0  0  0  0  0  0  0
   48.4063    5.9959   19.8887 H   0  0  0  0  0  0  0  0  0  0  0  0
   49.0065    7.5886   22.4406 H   0  0  0  0  0  0  0  0  0  0  0  0
   50.1896    7.1275   21.2366 H   0  0  0  0  0  0  0  0  0  0  0  0
   49.7063    4.7009   21.6675 H   0  0  0  0  0  0  0  0  0  0  0  0
   48.4858    5.1532   22.8609 H   0  0  0  0  0  0  0  0  0  0  0  0
   51.4715    5.8231   23.0452 H   0  0  0  0  0  0  0  0  0  0  0  0
   50.2427    6.2668   24.2471 H   0  0  0  0  0  0  0  0  0  0  0  0
   50.6251    4.5610   23.9568 H   0  0  0  0  0  0  0  0  0  0  0  0
   48.0872    7.3779   22.5438 H   0  0  0  0  0  0  0  0  0  0  0  0
   48.5802   11.4060   21.0317 H   0  0  0  0  0  0  0  0  0  0  0  0
   47.9220    8.6330   17.3450 H   0  0  0  0  0  0  0  0  0  0  0  0
   46.3952   11.1608   21.5469 H   0  0  0  0  0  0  0  0  0  0  0  0
   48.1457    9.0440   18.2151 H   0  0  0  0  0  0  0  0  0  0  0  0
   47.9970   13.5449   16.9751 H   0  0  0  0  0  0  0  0  0  0  0  0
   47.3047   14.3728   18.2727 H   0  0  0  0  0  0  0  0  0  0  0  0
   46.4413   13.2404   20.2345 H   0  0  0  0  0  0  0  0  0  0  0  0
   48.1847   11.1252   16.9229 H   0  0  0  0  0  0  0  0  0  0  0  0
   47.3671    5.6605   20.1278 H   0  0  0  0  0  0  0  0  0  0  0  0
   47.1132    6.3898   21.7093 H   0  0  0  0  0  0  0  0  0  0  0  0
   49.8214    6.0555   20.2932 H   0  0  0  0  0  0  0  0  0  0  0  0
   49.2081    5.0007   21.5755 H   0  0  0  0  0  0  0  0  0  0  0  0
   49.8520    7.9899   21.8482 H   0  0  0  0  0  0  0  0  0  0  0  0
   49.1659    6.9914   23.1327 H   0  0  0  0  0  0  0  0  0  0  0  0
   51.1906    5.5210   23.0674 H   0  0  0  0  0  0  0  0  0  0  0  0
   51.6146    7.2114   23.3884 H   0  0  0  0  0  0  0  0  0  0  0  0
   51.8743    6.5273   21.7745 H   0  0  0  0  0  0  0  0  0  0  0  0
  2  1  1  0
  3  1  2  0
  4  2  2  0
  5  2  1  0
  6 10  1  0
  7  1  1  0
  8  6  1  0
  9  4  1  0
 10  5  2  0
 11  7  1  0
 12 11  1  0
 13 12  1  0
 14 13  1  0
  9  6  2  0
 16 17  1  0
 17 15  2  0
 18 15  1  0
 19 16  1  0
 20 21  1  0
 21 23  2  0
 22 21  1  0
 23 15  1  0
 24 18  1  0
 25 19  1  0
 26 20  1  0
 27 18  2  0
 28 19  2  0
 29 20  2  0
 30 17  1  0
 22 16  2  0
 32 31  1  0
 33 31  2  0
 34 32  2  0
 35 32  1  0
 36 40  1  0
 37 31  1  0
 38 36  1  0
 39 34  1  0
 40 35  2  0
 41 37  1  0
 42 41  1  0
 43 42  1  0
 44 43  1  0
 39 36  2  0
  4 45  1  0
  5 46  1  0
  8 47  1  0
  8 48  1  0
  9 49  1  0
 10 50  1  0
 11 51  1  0
 11 52  1  0
 12 53  1  0
 12 54  1  0
 13 55  1  0
 13 56  1  0
 14 57  1  0
 14 58  1  0
 14 59  1  0
 22 60  1  0
 23 61  1  0
 30 62  1  0
 34 63  1  0
 35 64  1  0
 38 65  1  0
 38 66  1  0
 39 67  1  0
 40 68  1  0
 41 69  1  0
 41 70  1  0
 42 71  1  0
 42 72  1  0
 43 73  1  0
 43 74  1  0
 44 75  1  0
 44 76  1  0
 44 77  1  0
M  CHG  6  18   1  19   1  20   1  24  -1  25  -1  26  -1
M  END
> <Uni-Dock RESULT> 
ENERGY=   -6.529  LOWER_BOUND=    0.000  UPPER_BOUND=    0.000
INTER + INTRA:          -6.529
INTER:                  -6.529
INTRA:                   0.000
UNBOUND:                 0.000

$$$$

     RDKit          3D

 77 77  0  0  0  0  0  0  0  0999 V2000
   47.6279    8.0020   13.9940 C   0  0  0  0  0  0  0  0  0  0  0  0
   46.5711    7.3932   13.1410 C   0  0  0  0  0  0  0  0  0  0  0  0
   47.6216    9.1726   14.3412 O   0  0  0  0  0  0  0  0  0  0  0  0
   46.5745    6.0388   12.7880 C   0  0  0  0  0  0  0  0  0  0  0  0
   45.5245    8.2105   12.6978 C   0  0  0  0  0  0  0  0  0  0  0  0
   44.5347    6.3436   11.4973 C   0  0  0  0  0  0  0  0  0  0  0  0
   48.5728    7.0819   14.3105 O   0  0  0  0  0  0  0  0  0  0  0  0
   43.4528    5.7918   10.8054 N   0  0  0  0  0  0  0  0  0  0  0  0
   45.5498    5.5184   11.9891 C   0  0  0  0  0  0  0  0  0  0  0  0
   44.5052    7.6810   11.8992 C   0  0  0  0  0  0  0  0  0  0  0  0
   49.6468    7.5498   15.1417 C   0  0  0  0  0  0  0  0  0  0  0  0
   50.7438    8.1680   14.2801 C   0  0  0  0  0  0  0  0  0  0  0  0
   51.9389    8.6053   15.1229 C   0  0  0  0  0  0  0  0  0  0  0  0
   53.0221    9.2408   14.2659 C   0  0  0  0  0  0  0  0  0  0  0  0
   47.4143    6.8355   12.8114 C   0  0  0  0  0  0  0  0  0  0  0  0
   48.8819    7.4875   14.5976 C   0  0  0  0  0  0  0  0  0  0  0  0
   48.0188    6.5343   14.0431 C   0  0  0  0  0  0  0  0  0  0  0  0
   46.4955    5.8865   12.1695 N   0  0  0  0  0  0  0  0  0  0  0  0
   49.5215    7.2238   15.8688 N   0  0  0  0  0  0  0  0  0  0  0  0
   48.8359   10.2551   12.0642 N   0  0  0  0  0  0  0  0  0  0  0  0
   48.5562    8.9826   12.7454 C   0  0  0  0  0  0  0  0  0  0  0  0
   49.1676    8.7069   13.9715 C   0  0  0  0  0  0  0  0  0  0  0  0
   47.6781    8.0571   12.1592 C   0  0  0  0  0  0  0  0  0  0  0  0
   45.9803    6.2157   11.0946 O   0  0  0  0  0  0  0  0  0  0  0  0
   50.7209    6.9234   15.8319 O   0  0  0  0  0  0  0  0  0  0  0  0
   49.5913   11.0528   12.6333 O   0  0  0  0  0  0  0  0  0  0  0  0
   46.2944    4.8097   12.7504 O   0  0  0  0  0  0  0  0  0  0  0  0
   48.8341    7.3823   16.8852 O   0  0  0  0  0  0  0  0  0  0  0  0
   48.2978   10.4453   10.9667 O   0  0  0  0  0  0  0  0  0  0  0  0
   47.8290    5.3659   14.7271 O   0  0  0  0  0  0  0  0  0  0  0  0
   47.8356    8.2553   14.1481 C   0  0  0  0  0  0  0  0  0  0  0  0
   46.8356    7.5978   13.2628 C   0  0  0  0  0  0  0  0  0  0  0  0
   47.9202    9.4659   14.2817 O   0  0  0  0  0  0  0  0  0  0  0  0
   45.9434    8.4095   12.5529 C   0  0  0  0  0  0  0  0  0  0  0  0
   46.7460    6.2075   13.1281 C   0  0  0  0  0  0  0  0  0  0  0  0
   44.9341    6.4530   11.5240 C   0  0  0  0  0  0  0  0  0  0  0  0
   48.6204    7.3266   14.7472 O   0  0  0  0  0  0  0  0  0  0  0  0
   43.9030    5.8818   10.7726 N   0  0  0  0  0  0  0  0  0  0  0  0
   44.9875    7.8364   11.7074 C   0  0  0  0  0  0  0  0  0  0  0  0
   45.7862    5.6437   12.2795 C   0  0  0  0  0  0  0  0  0  0  0  0
   49.6445    7.8181   15.6259 C   0  0  0  0  0  0  0  0  0  0  0  0
   51.0188    7.6235   14.9899 C   0  0  0  0  0  0  0  0  0  0  0  0
   51.2215    8.4934   13.7479 C   0  0  0  0  0  0  0  0  0  0  0  0
   52.6228    8.3320   13.1789 C   0  0  0  0  0  0  0  0  0  0  0  0
   47.3570    5.3702   13.1379 H   0  0  0  0  0  0  0  0  0  0  0  0
   45.4883    9.2603   12.9829 H   0  0  0  0  0  0  0  0  0  0  0  0
   43.6744    4.9414   10.2971 H   0  0  0  0  0  0  0  0  0  0  0  0
   42.9413    6.4588   10.2359 H   0  0  0  0  0  0  0  0  0  0  0  0
   45.5521    4.4570   11.7545 H   0  0  0  0  0  0  0  0  0  0  0  0
   43.6852    8.3267   11.5946 H   0  0  0  0  0  0  0  0  0  0  0  0
   49.2804    8.2512   15.9008 H   0  0  0  0  0  0  0  0  0  0  0  0
   50.0361    6.6757   15.6753 H   0  0  0  0  0  0  0  0  0  0  0  0
   50.3405    9.0241   13.7255 H   0  0  0  0  0  0  0  0  0  0  0  0
   51.0598    7.4421   13.5207 H   0  0  0  0  0  0  0  0  0  0  0  0
   52.3595    7.7397   15.6491 H   0  0  0  0  0  0  0  0  0  0  0  0
   51.6155    9.3237   15.8850 H   0  0  0  0  0  0  0  0  0  0  0  0
   53.3863    8.5390   13.5090 H   0  0  0  0  0  0  0  0  0  0  0  0
   52.6445   10.1328   13.7556 H   0  0  0  0  0  0  0  0  0  0  0  0
   53.8713    9.5399   14.8886 H   0  0  0  0  0  0  0  0  0  0  0  0
   49.8520    9.4142   14.4392 H   0  0  0  0  0  0  0  0  0  0  0  0
   47.2059    8.2845   11.2023 H   0  0  0  0  0  0  0  0  0  0  0  0
   47.2059    4.7670   14.2587 H   0  0  0  0  0  0  0  0  0  0  0  0
   45.9780    9.4918   12.6633 H   0  0  0  0  0  0  0  0  0  0  0  0
   47.4048    5.5464   13.6851 H   0  0  0  0  0  0  0  0  0  0  0  0
   44.1025    4.9446   10.4369 H   0  0  0  0  0  0  0  0  0  0  0  0
   43.5373    6.4853   10.0427 H   0  0  0  0  0  0  0  0  0  0  0  0
   44.2844    8.4852   11.1911 H   0  0  0  0  0  0  0  0  0  0  0  0
   45.7119    4.5612   12.2134 H   0  0  0  0  0  0  0  0  0  0  0  0
   49.5852    7.2200   16.5414 H   0  0  0  0  0  0  0  0  0  0  0  0
   49.4881    8.8627   15.9173 H   0  0  0  0  0  0  0  0  0  0  0  0
   51.1416    6.5705   14.7076 H   0  0  0  0  0  0  0  0  0  0  0  0
   51.7894    7.8594   15.7332 H   0  0  0  0  0  0  0  0  0  0  0  0
   50.4939    8.2248   12.9741 H   0  0  0  0  0  0  0  0  0  0  0  0
   51.0560    9.5472   14.0003 H   0  0  0  0  0  0  0  0  0  0  0  0
   53.3806    8.6230   13.9134 H   0  0  0  0  0  0  0  0  0  0  0  0
   52.7469    8.9644   12.2941 H   0  0  0  0  0  0  0  0  0  0  0  0
   52.8093    7.2945   12.8838 H   0  0  0  0  0  0  0  0  0  0  0  0
  2  1  1  0
  3  1  2  0
  4  2  2  0
  5  2  1  0
  6 10  1  0
  7  1  1  0
  8  6  1  0
  9  4  1  0
 10  5  2  0
 11  7  1  0
 12 11  1  0
 13 12  1  0
 14 13  1  0
  9  6  2  0
 16 17  1  0
 17 15  2  0
 18 15  1  0
 19 16  1  0
 20 21  1  0
 21 23  2  0
 22 21  1  0
 23 15  1  0
 24 18  1  0
 25 19  1  0
 26 20  1  0
 27 18  2  0
 28 19  2  0
 29 20  2  0
 30 17  1  0
 22 16  2  0
 32 31  1  0
 33 31  2  0
 34 32  2  0
 35 32  1  0
 36 40  1  0
 37 31  1  0
 38 36  1  0
 39 34  1  0
 40 35  2  0
 41 37  1  0
 42 41  1  0
 43 42  1  0
 44 43  1  0
 39 36  2  0
  4 45  1  0
  5 46  1  0
  8 47  1  0
  8 48  1  0
  9 49  1  0
 10 50  1  0
 11 51  1  0
 11 52  1  0
 12 53  1  0
 12 54  1  0
 13 55  1  0
 13 56  1  0
 14 57  1  0
 14 58  1  0
 14 59  1  0
 22 60  1  0
 23 61  1  0
 30 62  1  0
 34 63  1  0
 35 64  1  0
 38 65  1  0
 38 66  1  0
 39 67  1  0
 40 68  1  0
 41 69  1  0
 41 70  1  0
 42 71  1  0
 42 72  1  0
 43 73  1  0
 43 74  1  0
 44 75  1  0
 44 76  1  0
 44 77  1  0
M  CHG  6  18   1  19   1  20   1  24  -1  25  -1  26  -1
M  END
> <Uni-Dock RESULT> 
ENERGY=   -6.484  LOWER_BOUND=    6.275  UPPER_BOUND=    8.162
INTER + INTRA:          -6.484
INTER:                  -6.484
INTRA:                   0.000
UNBOUND:                 0.000

$$$$

     RDKit          3D

 77 77  0  0  0  0  0  0  0  0999 V2000
   52.0574    3.6401   18.7029 C   0  0  0  0  0  0  0  0  0  0  0  0
   50.6225    3.5258   18.3244 C   0  0  0  0  0  0  0  0  0  0  0  0
   52.4599    4.3523   19.6094 O   0  0  0  0  0  0  0  0  0  0  0  0
   50.1765    2.6719   17.3089 C   0  0  0  0  0  0  0  0  0  0  0  0
   49.6872    4.2894   19.0327 C   0  0  0  0  0  0  0  0  0  0  0  0
   47.8835    3.4026   17.6666 C   0  0  0  0  0  0  0  0  0  0  0  0
   52.8243    2.8574   17.9038 O   0  0  0  0  0  0  0  0  0  0  0  0
   46.5151    3.2329   17.4375 N   0  0  0  0  0  0  0  0  0  0  0  0
   48.8131    2.5991   17.0007 C   0  0  0  0  0  0  0  0  0  0  0  0
   48.3267    4.2101   18.7167 C   0  0  0  0  0  0  0  0  0  0  0  0
   54.2342    2.8763   18.1779 C   0  0  0  0  0  0  0  0  0  0  0  0
   54.8959    4.0335   17.4357 C   0  0  0  0  0  0  0  0  0  0  0  0
   56.4086    4.0382   17.6394 C   0  0  0  0  0  0  0  0  0  0  0  0
   57.0643    5.2043   16.9169 C   0  0  0  0  0  0  0  0  0  0  0  0
   51.0729    3.4023   17.3691 C   0  0  0  0  0  0  0  0  0  0  0  0
   53.3092    3.0474   18.1708 C   0  0  0  0  0  0  0  0  0  0  0  0
   52.1094    2.5096   17.6888 C   0  0  0  0  0  0  0  0  0  0  0  0
   49.7850    2.9125   16.8608 N   0  0  0  0  0  0  0  0  0  0  0  0
   54.4022    2.1655   18.5202 N   0  0  0  0  0  0  0  0  0  0  0  0
   52.6506    6.7415   18.1648 N   0  0  0  0  0  0  0  0  0  0  0  0
   52.4674    5.2915   18.0050 C   0  0  0  0  0  0  0  0  0  0  0  0
   53.5124    4.4233   18.3323 C   0  0  0  0  0  0  0  0  0  0  0  0
   51.2456    4.7924   17.5260 C   0  0  0  0  0  0  0  0  0  0  0  0
   48.9049    3.7454   16.6142 O   0  0  0  0  0  0  0  0  0  0  0  0
   55.3495    2.1184   17.7262 O   0  0  0  0  0  0  0  0  0  0  0  0
   53.7326    7.1330   18.6195 O   0  0  0  0  0  0  0  0  0  0  0  0
   49.6626    1.6878   16.7107 O   0  0  0  0  0  0  0  0  0  0  0  0
   54.3263    1.5840   19.6096 O   0  0  0  0  0  0  0  0  0  0  0  0
   51.7112    7.4753   17.8344 O   0  0  0  0  0  0  0  0  0  0  0  0
   52.0262    1.1525   17.5465 O   0  0  0  0  0  0  0  0  0  0  0  0
   52.3608    3.7760   18.8461 C   0  0  0  0  0  0  0  0  0  0  0  0
   50.9493    3.6505   18.3903 C   0  0  0  0  0  0  0  0  0  0  0  0
   52.7487    4.6606   19.5928 O   0  0  0  0  0  0  0  0  0  0  0  0
   50.0191    4.5916   18.8465 C   0  0  0  0  0  0  0  0  0  0  0  0
   50.5191    2.6244   17.5411 C   0  0  0  0  0  0  0  0  0  0  0  0
   48.2610    3.5284   17.5488 C   0  0  0  0  0  0  0  0  0  0  0  0
   53.1223    2.7944   18.3039 O   0  0  0  0  0  0  0  0  0  0  0  0
   46.9039    3.3863   17.2449 N   0  0  0  0  0  0  0  0  0  0  0  0
   48.6817    4.5149   18.4434 C   0  0  0  0  0  0  0  0  0  0  0  0
   49.1788    2.5564   17.1433 C   0  0  0  0  0  0  0  0  0  0  0  0
   54.5167    2.7965   18.6472 C   0  0  0  0  0  0  0  0  0  0  0  0
   55.3530    3.2168   17.4411 C   0  0  0  0  0  0  0  0  0  0  0  0
   55.1216    4.6759   17.0436 C   0  0  0  0  0  0  0  0  0  0  0  0
   56.0196    5.0860   15.8865 C   0  0  0  0  0  0  0  0  0  0  0  0
   50.8725    2.0445   16.7580 H   0  0  0  0  0  0  0  0  0  0  0  0
   50.0096    4.9397   19.8438 H   0  0  0  0  0  0  0  0  0  0  0  0
   46.2877    2.8996   16.5060 H   0  0  0  0  0  0  0  0  0  0  0  0
   45.9472    4.0287   17.7112 H   0  0  0  0  0  0  0  0  0  0  0  0
   48.4831    1.9047   16.2323 H   0  0  0  0  0  0  0  0  0  0  0  0
   47.6151    4.7871   19.3022 H   0  0  0  0  0  0  0  0  0  0  0  0
   54.4250    2.9216   19.2569 H   0  0  0  0  0  0  0  0  0  0  0  0
   54.6373    1.9220   17.8216 H   0  0  0  0  0  0  0  0  0  0  0  0
   54.4671    4.9843   17.7749 H   0  0  0  0  0  0  0  0  0  0  0  0
   54.6567    3.9621   16.3673 H   0  0  0  0  0  0  0  0  0  0  0  0
   56.8368    3.0994   17.2676 H   0  0  0  0  0  0  0  0  0  0  0  0
   56.6411    4.1010   18.7087 H   0  0  0  0  0  0  0  0  0  0  0  0
   56.8726    5.1572   15.8402 H   0  0  0  0  0  0  0  0  0  0  0  0
   56.6859    6.1605   17.2928 H   0  0  0  0  0  0  0  0  0  0  0  0
   58.1479    5.1842   17.0703 H   0  0  0  0  0  0  0  0  0  0  0  0
   54.4669    4.7947   18.7045 H   0  0  0  0  0  0  0  0  0  0  0  0
   50.4368    5.4804   17.2751 H   0  0  0  0  0  0  0  0  0  0  0  0
   51.1466    0.8754   17.2063 H   0  0  0  0  0  0  0  0  0  0  0  0
   50.3265    5.3822   19.5286 H   0  0  0  0  0  0  0  0  0  0  0  0
   51.2085    1.8613   17.1896 H   0  0  0  0  0  0  0  0  0  0  0  0
   46.7210    2.8779   16.3853 H   0  0  0  0  0  0  0  0  0  0  0  0
   46.3719    4.2487   17.3058 H   0  0  0  0  0  0  0  0  0  0  0  0
   47.9709    5.2377   18.8361 H   0  0  0  0  0  0  0  0  0  0  0  0
   48.8583    1.7334   16.5094 H   0  0  0  0  0  0  0  0  0  0  0  0
   54.7735    1.7674   18.9204 H   0  0  0  0  0  0  0  0  0  0  0  0
   54.7381    3.4221   19.5192 H   0  0  0  0  0  0  0  0  0  0  0  0
   55.1054    2.5745   16.5868 H   0  0  0  0  0  0  0  0  0  0  0  0
   56.4132    3.0636   17.6747 H   0  0  0  0  0  0  0  0  0  0  0  0
   54.0771    4.8278   16.7500 H   0  0  0  0  0  0  0  0  0  0  0  0
   55.3187    5.3309   17.9002 H   0  0  0  0  0  0  0  0  0  0  0  0
   57.0761    4.9796   16.1528 H   0  0  0  0  0  0  0  0  0  0  0  0
   55.8400    6.1325   15.6209 H   0  0  0  0  0  0  0  0  0  0  0  0
   55.8237    4.4724   15.0014 H   0  0  0  0  0  0  0  0  0  0  0  0
  2  1  1  0
  3  1  2  0
  4  2  2  0
  5  2  1  0
  6 10  1  0
  7  1  1  0
  8  6  1  0
  9  4  1  0
 10  5  2  0
 11  7  1  0
 12 11  1  0
 13 12  1  0
 14 13  1  0
  9  6  2  0
 16 17  1  0
 17 15  2  0
 18 15  1  0
 19 16  1  0
 20 21  1  0
 21 23  2  0
 22 21  1  0
 23 15  1  0
 24 18  1  0
 25 19  1  0
 26 20  1  0
 27 18  2  0
 28 19  2  0
 29 20  2  0
 30 17  1  0
 22 16  2  0
 32 31  1  0
 33 31  2  0
 34 32  2  0
 35 32  1  0
 36 40  1  0
 37 31  1  0
 38 36  1  0
 39 34  1  0
 40 35  2  0
 41 37  1  0
 42 41  1  0
 43 42  1  0
 44 43  1  0
 39 36  2  0
  4 45  1  0
  5 46  1  0
  8 47  1  0
  8 48  1  0
  9 49  1  0
 10 50  1  0
 11 51  1  0
 11 52  1  0
 12 53  1  0
 12 54  1  0
 13 55  1  0
 13 56  1  0
 14 57  1  0
 14 58  1  0
 14 59  1  0
 22 60  1  0
 23 61  1  0
 30 62  1  0
 34 63  1  0
 35 64  1  0
 38 65  1  0
 38 66  1  0
 39 67  1  0
 40 68  1  0
 41 69  1  0
 41 70  1  0
 42 71  1  0
 42 72  1  0
 43 73  1  0
 43 74  1  0
 44 75  1  0
 44 76  1  0
 44 77  1  0
M  CHG  6  18   1  19   1  20   1  24  -1  25  -1  26  -1
M  END
> <Uni-Dock RESULT> 
ENERGY=   -6.473  LOWER_BOUND=    5.887  UPPER_BOUND=    8.077
INTER + INTRA:          -6.473
INTER:                  -6.473
INTRA:                   0.000
UNBOUND:                 0.000

$$$$

     RDKit          3D

 77 77  0  0  0  0  0  0  0  0999 V2000
   47.3755    9.3960   19.4490 C   0  0  0  0  0  0  0  0  0  0  0  0
   47.6589    7.9899   19.8461 C   0  0  0  0  0  0  0  0  0  0  0  0
   47.2853    9.7626   18.2878 O   0  0  0  0  0  0  0  0  0  0  0  0
   47.7174    7.5814   21.1836 C   0  0  0  0  0  0  0  0  0  0  0  0
   47.8510    7.0413   18.8347 C   0  0  0  0  0  0  0  0  0  0  0  0
   48.2293    5.3054   20.4929 C   0  0  0  0  0  0  0  0  0  0  0  0
   47.2428   10.1828   20.5456 O   0  0  0  0  0  0  0  0  0  0  0  0
   48.3679    3.9516   20.8120 N   0  0  0  0  0  0  0  0  0  0  0  0
   47.9801    6.2432   21.4987 C   0  0  0  0  0  0  0  0  0  0  0  0
   48.1136    5.7062   19.1598 C   0  0  0  0  0  0  0  0  0  0  0  0
   46.9578   11.5674   20.2906 C   0  0  0  0  0  0  0  0  0  0  0  0
   48.2569   12.3373   20.0731 C   0  0  0  0  0  0  0  0  0  0  0  0
   47.9984   13.8289   19.8777 C   0  0  0  0  0  0  0  0  0  0  0  0
   49.2919   14.5918   19.6396 C   0  0  0  0  0  0  0  0  0  0  0  0
   48.1513    8.5045   20.6357 C   0  0  0  0  0  0  0  0  0  0  0  0
   47.1701   10.6547   20.2072 C   0  0  0  0  0  0  0  0  0  0  0  0
   47.1824    9.4704   20.9545 C   0  0  0  0  0  0  0  0  0  0  0  0
   48.2244    7.2367   21.3735 N   0  0  0  0  0  0  0  0  0  0  0  0
   46.1850   11.6752   20.4951 N   0  0  0  0  0  0  0  0  0  0  0  0
   50.0103   10.1748   17.8025 N   0  0  0  0  0  0  0  0  0  0  0  0
   49.0391    9.9355   18.8800 C   0  0  0  0  0  0  0  0  0  0  0  0
   48.0828   10.9104   19.1767 C   0  0  0  0  0  0  0  0  0  0  0  0
   49.0804    8.7308   19.6000 C   0  0  0  0  0  0  0  0  0  0  0  0
   49.0873    6.4183   21.0348 O   0  0  0  0  0  0  0  0  0  0  0  0
   46.5873   12.6762   21.1002 O   0  0  0  0  0  0  0  0  0  0  0  0
   49.9158   11.2369   17.1750 O   0  0  0  0  0  0  0  0  0  0  0  0
   47.4111    7.0679   22.2940 O   0  0  0  0  0  0  0  0  0  0  0  0
   45.0425   11.4899   20.0579 O   0  0  0  0  0  0  0  0  0  0  0  0
   50.8585    9.2989   17.5937 O   0  0  0  0  0  0  0  0  0  0  0  0
   46.2610    9.3337   21.9552 O   0  0  0  0  0  0  0  0  0  0  0  0
   47.3583    9.6939   19.2441 C   0  0  0  0  0  0  0  0  0  0  0  0
   47.6820    8.3163   19.7062 C   0  0  0  0  0  0  0  0  0  0  0  0
   47.5035   10.0661   18.0904 O   0  0  0  0  0  0  0  0  0  0  0  0
   48.1716    7.4002   18.7681 C   0  0  0  0  0  0  0  0  0  0  0  0
   47.5007    7.9030   21.0311 C   0  0  0  0  0  0  0  0  0  0  0  0
   48.3687    5.6963   20.4894 C   0  0  0  0  0  0  0  0  0  0  0  0
   46.9087   10.4465   20.2778 O   0  0  0  0  0  0  0  0  0  0  0  0
   48.5759    4.3607   20.8466 N   0  0  0  0  0  0  0  0  0  0  0  0
   48.4911    6.0949   19.1565 C   0  0  0  0  0  0  0  0  0  0  0  0
   47.8236    6.5947   21.4099 C   0  0  0  0  0  0  0  0  0  0  0  0
   46.5672   11.8097   19.9821 C   0  0  0  0  0  0  0  0  0  0  0  0
   47.5997   12.7534   20.5937 C   0  0  0  0  0  0  0  0  0  0  0  0
   48.9771   12.6222   19.9409 C   0  0  0  0  0  0  0  0  0  0  0  0
   49.9647   13.6232   20.5206 C   0  0  0  0  0  0  0  0  0  0  0  0
   47.5455    8.2864   21.9931 H   0  0  0  0  0  0  0  0  0  0  0  0
   47.7833    7.3323   17.7881 H   0  0  0  0  0  0  0  0  0  0  0  0
   48.7446    3.7794   21.7389 H   0  0  0  0  0  0  0  0  0  0  0  0
   48.8365    3.4032   20.0976 H   0  0  0  0  0  0  0  0  0  0  0  0
   47.9873    5.9393   22.5423 H   0  0  0  0  0  0  0  0  0  0  0  0
   48.2262    4.9808   18.3578 H   0  0  0  0  0  0  0  0  0  0  0  0
   46.2711   11.6783   19.4428 H   0  0  0  0  0  0  0  0  0  0  0  0
   46.4378   11.9503   21.1755 H   0  0  0  0  0  0  0  0  0  0  0  0
   48.7876   11.9299   19.2039 H   0  0  0  0  0  0  0  0  0  0  0  0
   48.9211   12.1761   20.9312 H   0  0  0  0  0  0  0  0  0  0  0  0
   47.4981   14.2388   20.7635 H   0  0  0  0  0  0  0  0  0  0  0  0
   47.3277   13.9830   19.0246 H   0  0  0  0  0  0  0  0  0  0  0  0
   49.9757   14.4797   20.4869 H   0  0  0  0  0  0  0  0  0  0  0  0
   49.7983   14.2321   18.7380 H   0  0  0  0  0  0  0  0  0  0  0  0
   49.0842   15.6587   19.5094 H   0  0  0  0  0  0  0  0  0  0  0  0
   48.0379   11.8507   18.6279 H   0  0  0  0  0  0  0  0  0  0  0  0
   49.8309    7.9768   19.3580 H   0  0  0  0  0  0  0  0  0  0  0  0
   46.3496    8.4700   22.4160 H   0  0  0  0  0  0  0  0  0  0  0  0
   48.2951    7.6926   17.7269 H   0  0  0  0  0  0  0  0  0  0  0  0
   47.0971    8.5799   21.7795 H   0  0  0  0  0  0  0  0  0  0  0  0
   48.7701    4.2191   21.8330 H   0  0  0  0  0  0  0  0  0  0  0  0
   49.2305    3.8672   20.2478 H   0  0  0  0  0  0  0  0  0  0  0  0
   48.8393    5.3917   18.4041 H   0  0  0  0  0  0  0  0  0  0  0  0
   47.6454    6.2841   22.4363 H   0  0  0  0  0  0  0  0  0  0  0  0
   45.5924   11.9959   20.4454 H   0  0  0  0  0  0  0  0  0  0  0  0
   46.4498   11.9943   18.9084 H   0  0  0  0  0  0  0  0  0  0  0  0
   47.6952   12.5406   21.6656 H   0  0  0  0  0  0  0  0  0  0  0  0
   47.2415   13.7845   20.4910 H   0  0  0  0  0  0  0  0  0  0  0  0
   49.3722   11.6112   20.0892 H   0  0  0  0  0  0  0  0  0  0  0  0
   48.8940   12.7851   18.8600 H   0  0  0  0  0  0  0  0  0  0  0  0
   49.6207   14.6504   20.3628 H   0  0  0  0  0  0  0  0  0  0  0  0
   50.9411   13.5141   20.0381 H   0  0  0  0  0  0  0  0  0  0  0  0
   50.0975   13.4656   21.5957 H   0  0  0  0  0  0  0  0  0  0  0  0
  2  1  1  0
  3  1  2  0
  4  2  2  0
  5  2  1  0
  6 10  1  0
  7  1  1  0
  8  6  1  0
  9  4  1  0
 10  5  2  0
 11  7  1  0
 12 11  1  0
 13 12  1  0
 14 13  1  0
  9  6  2  0
 16 17  1  0
 17 15  2  0
 18 15  1  0
 19 16  1  0
 20 21  1  0
 21 23  2  0
 22 21  1  0
 23 15  1  0
 24 18  1  0
 25 19  1  0
 26 20  1  0
 27 18  2  0
 28 19  2  0
 29 20  2  0
 30 17  1  0
 22 16  2  0
 32 31  1  0
 33 31  2  0
 34 32  2  0
 35 32  1  0
 36 40  1  0
 37 31  1  0
 38 36  1  0
 39 34  1  0
 40 35  2  0
 41 37  1  0
 42 41  1  0
 43 42  1  0
 44 43  1  0
 39 36  2  0
  4 45  1  0
  5 46  1  0
  8 47  1  0
  8 48  1  0
  9 49  1  0
 10 50  1  0
 11 51  1  0
 11 52  1  0
 12 53  1  0
 12 54  1  0
 13 55  1  0
 13 56  1  0
 14 57  1  0
 14 58  1  0
 14 59  1  0
 22 60  1  0
 23 61  1  0
 30 62  1  0
 34 63  1  0
 35 64  1  0
 38 65  1  0
 38 66  1  0
 39 67  1  0
 40 68  1  0
 41 69  1  0
 41 70  1  0
 42 71  1  0
 42 72  1  0
 43 73  1  0
 43 74  1  0
 44 75  1  0
 44 76  1  0
 44 77  1  0
M  CHG  6  18   1  19   1  20   1  24  -1  25  -1  26  -1
M  END
> <Uni-Dock RESULT> 
ENERGY=   -6.431  LOWER_BOUND=    1.853  UPPER_BOUND=    5.687
INTER + INTRA:          -6.431
INTER:                  -6.431
INTRA:                   0.000
UNBOUND:                 0.000

$$$$

     RDKit          3D

 77 77  0  0  0  0  0  0  0  0999 V2000
   47.2033    6.3840   12.8749 C   0  0  0  0  0  0  0  0  0  0  0  0
   46.0509    5.4841   12.5970 C   0  0  0  0  0  0  0  0  0  0  0  0
   48.3567    5.9931   12.9638 O   0  0  0  0  0  0  0  0  0  0  0  0
   44.7411    5.9576   12.4578 C   0  0  0  0  0  0  0  0  0  0  0  0
   46.3000    4.1146   12.4485 C   0  0  0  0  0  0  0  0  0  0  0  0
   43.9329    3.6913   12.0970 C   0  0  0  0  0  0  0  0  0  0  0  0
   46.7833    7.6659   13.0151 O   0  0  0  0  0  0  0  0  0  0  0  0
   42.9071    2.8255   11.7069 N   0  0  0  0  0  0  0  0  0  0  0  0
   43.6965    5.0656   12.1887 C   0  0  0  0  0  0  0  0  0  0  0  0
   45.2491    3.2310   12.1802 C   0  0  0  0  0  0  0  0  0  0  0  0
   47.8103    8.6347   13.2792 C   0  0  0  0  0  0  0  0  0  0  0  0
   48.0832    8.7122   14.7783 C   0  0  0  0  0  0  0  0  0  0  0  0
   49.1140    9.7894   15.1055 C   0  0  0  0  0  0  0  0  0  0  0  0
   49.4010    9.8509   16.5973 C   0  0  0  0  0  0  0  0  0  0  0  0
   45.5755    6.2002   13.2230 C   0  0  0  0  0  0  0  0  0  0  0  0
   47.3291    7.8393   13.1353 C   0  0  0  0  0  0  0  0  0  0  0  0
   46.0830    7.3918   12.6792 C   0  0  0  0  0  0  0  0  0  0  0  0
   44.2765    5.6671   12.7922 N   0  0  0  0  0  0  0  0  0  0  0  0
   47.8951    9.0581   12.5979 N   0  0  0  0  0  0  0  0  0  0  0  0
   48.2989    5.2355   15.6571 N   0  0  0  0  0  0  0  0  0  0  0  0
   47.5434    5.9750   14.6355 C   0  0  0  0  0  0  0  0  0  0  0  0
   48.0704    7.1567   14.1074 C   0  0  0  0  0  0  0  0  0  0  0  0
   46.3008    5.4878   14.1994 C   0  0  0  0  0  0  0  0  0  0  0  0
   43.8912    4.6046   13.2938 O   0  0  0  0  0  0  0  0  0  0  0  0
   47.8542   10.0552   13.3287 O   0  0  0  0  0  0  0  0  0  0  0  0
   49.4029    5.6860   15.9876 O   0  0  0  0  0  0  0  0  0  0  0  0
   43.6463    6.3210   11.9480 O   0  0  0  0  0  0  0  0  0  0  0  0
   48.4268    8.9848   11.4832 O   0  0  0  0  0  0  0  0  0  0  0  0
   47.7818    4.2114   16.1196 O   0  0  0  0  0  0  0  0  0  0  0  0
   45.4325    8.1485   11.7446 O   0  0  0  0  0  0  0  0  0  0  0  0
   47.5338    6.4905   12.9772 C   0  0  0  0  0  0  0  0  0  0  0  0
   46.3349    5.6392   12.7453 C   0  0  0  0  0  0  0  0  0  0  0  0
   48.6263    6.0411   13.2860 O   0  0  0  0  0  0  0  0  0  0  0  0
   46.4695    4.2528   12.8824 C   0  0  0  0  0  0  0  0  0  0  0  0
   45.0915    6.1699   12.3826 C   0  0  0  0  0  0  0  0  0  0  0  0
   44.1137    3.9428   12.3731 C   0  0  0  0  0  0  0  0  0  0  0  0
   47.2237    7.7997   12.8128 O   0  0  0  0  0  0  0  0  0  0  0  0
   43.0504    3.0938   12.0523 N   0  0  0  0  0  0  0  0  0  0  0  0
   45.3699    3.4130   12.6761 C   0  0  0  0  0  0  0  0  0  0  0  0
   43.9972    5.3213   12.1786 C   0  0  0  0  0  0  0  0  0  0  0  0
   48.2858    8.7443   13.0177 C   0  0  0  0  0  0  0  0  0  0  0  0
   48.0533    9.5223   14.3106 C   0  0  0  0  0  0  0  0  0  0  0  0
   48.1667    8.6417   15.5564 C   0  0  0  0  0  0  0  0  0  0  0  0
   48.0020    9.4566   16.8301 C   0  0  0  0  0  0  0  0  0  0  0  0
   44.5167    7.0181   12.5395 H   0  0  0  0  0  0  0  0  0  0  0  0
   47.3148    3.7288   12.5264 H   0  0  0  0  0  0  0  0  0  0  0  0
   41.9769    3.1408   11.9634 H   0  0  0  0  0  0  0  0  0  0  0  0
   43.0672    1.8544   11.9561 H   0  0  0  0  0  0  0  0  0  0  0  0
   42.6920    5.4572   12.0501 H   0  0  0  0  0  0  0  0  0  0  0  0
   45.4710    2.1765   12.0357 H   0  0  0  0  0  0  0  0  0  0  0  0
   48.7202    8.4090   12.7102 H   0  0  0  0  0  0  0  0  0  0  0  0
   47.4362    9.5979   12.9152 H   0  0  0  0  0  0  0  0  0  0  0  0
   48.4288    7.7371   15.1426 H   0  0  0  0  0  0  0  0  0  0  0  0
   47.1433    8.9128   15.3074 H   0  0  0  0  0  0  0  0  0  0  0  0
   48.7490   10.7677   14.7697 H   0  0  0  0  0  0  0  0  0  0  0  0
   50.0477    9.5883   14.5676 H   0  0  0  0  0  0  0  0  0  0  0  0
   48.4916   10.0763   17.1632 H   0  0  0  0  0  0  0  0  0  0  0  0
   49.8045    8.8992   16.9580 H   0  0  0  0  0  0  0  0  0  0  0  0
   50.1362   10.6336   16.8099 H   0  0  0  0  0  0  0  0  0  0  0  0
   49.0328    7.5485   14.4357 H   0  0  0  0  0  0  0  0  0  0  0  0
   45.9006    4.5633   14.6184 H   0  0  0  0  0  0  0  0  0  0  0  0
   44.5716    7.7493   11.4883 H   0  0  0  0  0  0  0  0  0  0  0  0
   47.4336    3.8168   13.1377 H   0  0  0  0  0  0  0  0  0  0  0  0
   44.9580    7.2392   12.2409 H   0  0  0  0  0  0  0  0  0  0  0  0
   42.1340    3.5197   12.1495 H   0  0  0  0  0  0  0  0  0  0  0  0
   43.1017    2.1798   12.4910 H   0  0  0  0  0  0  0  0  0  0  0  0
   45.5060    2.3375   12.7567 H   0  0  0  0  0  0  0  0  0  0  0  0
   43.0485    5.7505   11.8662 H   0  0  0  0  0  0  0  0  0  0  0  0
   48.2551    9.4385   12.1711 H   0  0  0  0  0  0  0  0  0  0  0  0
   49.2768    8.2768   13.0104 H   0  0  0  0  0  0  0  0  0  0  0  0
   47.0538    9.9739   14.2871 H   0  0  0  0  0  0  0  0  0  0  0  0
   48.7840   10.3375   14.3694 H   0  0  0  0  0  0  0  0  0  0  0  0
   47.4011    7.8582   15.5379 H   0  0  0  0  0  0  0  0  0  0  0  0
   49.1432    8.1438   15.5729 H   0  0  0  0  0  0  0  0  0  0  0  0
   48.7714   10.2319   16.9023 H   0  0  0  0  0  0  0  0  0  0  0  0
   48.0894    8.8084   17.7078 H   0  0  0  0  0  0  0  0  0  0  0  0
   47.0207    9.9408   16.8618 H   0  0  0  0  0  0  0  0  0  0  0  0
  2  1  1  0
  3  1  2  0
  4  2  2  0
  5  2  1  0
  6 10  1  0
  7  1  1  0
  8  6  1  0
  9  4  1  0
 10  5  2  0
 11  7  1  0
 12 11  1  0
 13 12  1  0
 14 13  1  0
  9  6  2  0
 16 17  1  0
 17 15  2  0
 18 15  1  0
 19 16  1  0
 20 21  1  0
 21 23  2  0
 22 21  1  0
 23 15  1  0
 24 18  1  0
 25 19  1  0
 26 20  1  0
 27 18  2  0
 28 19  2  0
 29 20  2  0
 30 17  1  0
 22 16  2  0
 32 31  1  0
 33 31  2  0
 34 32  2  0
 35 32  1  0
 36 40  1  0
 37 31  1  0
 38 36  1  0
 39 34  1  0
 40 35  2  0
 41 37  1  0
 42 41  1  0
 43 42  1  0
 44 43  1  0
 39 36  2  0
  4 45  1  0
  5 46  1  0
  8 47  1  0
  8 48  1  0
  9 49  1  0
 10 50  1  0
 11 51  1  0
 11 52  1  0
 12 53  1  0
 12 54  1  0
 13 55  1  0
 13 56  1  0
 14 57  1  0
 14 58  1  0
 14 59  1  0
 22 60  1  0
 23 61  1  0
 30 62  1  0
 34 63  1  0
 35 64  1  0
 38 65  1  0
 38 66  1  0
 39 67  1  0
 40 68  1  0
 41 69  1  0
 41 70  1  0
 42 71  1  0
 42 72  1  0
 43 73  1  0
 43 74  1  0
 44 75  1  0
 44 76  1  0
 44 77  1  0
M  CHG  6  18   1  19   1  20   1  24  -1  25  -1  26  -1
M  END
> <Uni-Dock RESULT> 
ENERGY=   -6.372  LOWER_BOUND=    6.697  UPPER_BOUND=    8.964
INTER + INTRA:          -6.372
INTER:                  -6.372
INTRA:                   0.000
UNBOUND:                 0.000

$$$$

     RDKit          3D

 77 77  0  0  0  0  0  0  0  0999 V2000
   49.0331    7.7310   19.4606 C   0  0  0  0  0  0  0  0  0  0  0  0
   48.3620    9.0202   19.7810 C   0  0  0  0  0  0  0  0  0  0  0  0
   50.0147    7.6438   18.7396 O   0  0  0  0  0  0  0  0  0  0  0  0
   47.2624    9.1039   20.6430 C   0  0  0  0  0  0  0  0  0  0  0  0
   48.8717   10.1925   19.2105 C   0  0  0  0  0  0  0  0  0  0  0  0
   47.1457   11.5100   20.3019 C   0  0  0  0  0  0  0  0  0  0  0  0
   48.3992    6.6995   20.0719 O   0  0  0  0  0  0  0  0  0  0  0  0
   46.6337   12.7564   20.6738 N   0  0  0  0  0  0  0  0  0  0  0  0
   46.6756   10.3453   20.9146 C   0  0  0  0  0  0  0  0  0  0  0  0
   48.2777   11.4284   19.4877 C   0  0  0  0  0  0  0  0  0  0  0  0
   48.9614    5.3975   19.8444 C   0  0  0  0  0  0  0  0  0  0  0  0
   48.3918    4.7985   18.5620 C   0  0  0  0  0  0  0  0  0  0  0  0
   48.9065    3.3806   18.3288 C   0  0  0  0  0  0  0  0  0  0  0  0
   48.3552    2.7929   17.0394 C   0  0  0  0  0  0  0  0  0  0  0  0
   47.5197    8.3711   19.7843 C   0  0  0  0  0  0  0  0  0  0  0  0
   48.7643    6.3170   19.8212 C   0  0  0  0  0  0  0  0  0  0  0  0
   48.0343    7.2886   20.5170 C   0  0  0  0  0  0  0  0  0  0  0  0
   46.7464    9.4303   20.4454 N   0  0  0  0  0  0  0  0  0  0  0  0
   49.3200    5.1878   20.5359 N   0  0  0  0  0  0  0  0  0  0  0  0
   48.6797    7.5596   16.2816 N   0  0  0  0  0  0  0  0  0  0  0  0
   48.4622    7.4652   17.7326 C   0  0  0  0  0  0  0  0  0  0  0  0
   48.9865    6.3801   18.4402 C   0  0  0  0  0  0  0  0  0  0  0  0
   47.7312    8.4651   18.3938 C   0  0  0  0  0  0  0  0  0  0  0  0
   46.3350   10.3668   19.7505 O   0  0  0  0  0  0  0  0  0  0  0  0
   48.7402    4.1045   20.3935 O   0  0  0  0  0  0  0  0  0  0  0  0
   49.3561    6.6720   15.7474 O   0  0  0  0  0  0  0  0  0  0  0  0
   46.5548    9.3163   21.6650 O   0  0  0  0  0  0  0  0  0  0  0  0
   50.3602    5.3866   21.1754 O   0  0  0  0  0  0  0  0  0  0  0  0
   48.1723    8.5200   15.6897 O   0  0  0  0  0  0  0  0  0  0  0  0
   47.8563    7.1166   21.8615 O   0  0  0  0  0  0  0  0  0  0  0  0
   49.2385    7.4895   19.2858 C   0  0  0  0  0  0  0  0  0  0  0  0
   48.4965    8.7387   19.6096 C   0  0  0  0  0  0  0  0  0  0  0  0
   50.0636    7.4124   18.3892 O   0  0  0  0  0  0  0  0  0  0  0  0
   48.7636    9.8841   18.8509 C   0  0  0  0  0  0  0  0  0  0  0  0
   47.5602    8.8125   20.6474 C   0  0  0  0  0  0  0  0  0  0  0  0
   47.1112   11.1424   20.1124 C   0  0  0  0  0  0  0  0  0  0  0  0
   48.8516    6.4828   20.1068 O   0  0  0  0  0  0  0  0  0  0  0  0
   46.5288   12.3672   20.4517 N   0  0  0  0  0  0  0  0  0  0  0  0
   48.0894   11.0804   19.1175 C   0  0  0  0  0  0  0  0  0  0  0  0
   46.8906   10.0142   20.9062 C   0  0  0  0  0  0  0  0  0  0  0  0
   49.4780    5.2069   19.9018 C   0  0  0  0  0  0  0  0  0  0  0  0
   48.4795    4.2239   19.2955 C   0  0  0  0  0  0  0  0  0  0  0  0
   48.0657    4.6067   17.8733 C   0  0  0  0  0  0  0  0  0  0  0  0
   47.1279    3.5725   17.2698 C   0  0  0  0  0  0  0  0  0  0  0  0
   46.8589    8.2168   21.1247 H   0  0  0  0  0  0  0  0  0  0  0  0
   49.7424   10.1531   18.5585 H   0  0  0  0  0  0  0  0  0  0  0  0
   45.6701   12.7318   20.9922 H   0  0  0  0  0  0  0  0  0  0  0  0
   46.7956   13.4911   19.9921 H   0  0  0  0  0  0  0  0  0  0  0  0
   45.8444   10.3934   21.6135 H   0  0  0  0  0  0  0  0  0  0  0  0
   48.7111   12.3292   19.0600 H   0  0  0  0  0  0  0  0  0  0  0  0
   50.0570    5.4399   19.8232 H   0  0  0  0  0  0  0  0  0  0  0  0
   48.6820    4.7789   20.7043 H   0  0  0  0  0  0  0  0  0  0  0  0
   48.6492    5.4378   17.7087 H   0  0  0  0  0  0  0  0  0  0  0  0
   47.2962    4.8006   18.6171 H   0  0  0  0  0  0  0  0  0  0  0  0
   48.6174    2.7372   19.1687 H   0  0  0  0  0  0  0  0  0  0  0  0
   50.0017    3.3837   18.2832 H   0  0  0  0  0  0  0  0  0  0  0  0
   47.2616    2.7515   17.0628 H   0  0  0  0  0  0  0  0  0  0  0  0
   48.6590    3.3919   16.1748 H   0  0  0  0  0  0  0  0  0  0  0  0
   48.7308    1.7748   16.8959 H   0  0  0  0  0  0  0  0  0  0  0  0
   49.5552    5.5956   17.9418 H   0  0  0  0  0  0  0  0  0  0  0  0
   47.3281    9.3081   17.8305 H   0  0  0  0  0  0  0  0  0  0  0  0
   47.3359    7.8510   22.2567 H   0  0  0  0  0  0  0  0  0  0  0  0
   49.5072    9.8561   18.0565 H   0  0  0  0  0  0  0  0  0  0  0  0
   47.3481    7.9500   21.2738 H   0  0  0  0  0  0  0  0  0  0  0  0
   45.6421   12.2854   20.9393 H   0  0  0  0  0  0  0  0  0  0  0  0
   46.4912   13.0350   19.6880 H   0  0  0  0  0  0  0  0  0  0  0  0
   48.3366   11.9653   18.5363 H   0  0  0  0  0  0  0  0  0  0  0  0
   46.1909   10.0593   21.7369 H   0  0  0  0  0  0  0  0  0  0  0  0
   49.7824    4.8452   20.8898 H   0  0  0  0  0  0  0  0  0  0  0  0
   50.3867    5.2733   19.2932 H   0  0  0  0  0  0  0  0  0  0  0  0
   47.5824    4.1837   19.9256 H   0  0  0  0  0  0  0  0  0  0  0  0
   48.9266    3.2229   19.2909 H   0  0  0  0  0  0  0  0  0  0  0  0
   47.5632    5.5803   17.8738 H   0  0  0  0  0  0  0  0  0  0  0  0
   48.9548    4.6984   17.2387 H   0  0  0  0  0  0  0  0  0  0  0  0
   47.6068    2.5893   17.2213 H   0  0  0  0  0  0  0  0  0  0  0  0
   46.8472    3.8642   16.2528 H   0  0  0  0  0  0  0  0  0  0  0  0
   46.2118    3.4808   17.8620 H   0  0  0  0  0  0  0  0  0  0  0  0
  2  1  1  0
  3  1  2  0
  4  2  2  0
  5  2  1  0
  6 10  1  0
  7  1  1  0
  8  6  1  0
  9  4  1  0
 10  5  2  0
 11  7  1  0
 12 11  1  0
 13 12  1  0
 14 13  1  0
  9  6  2  0
 16 17  1  0
 17 15  2  0
 18 15  1  0
 19 16  1  0
 20 21  1  0
 21 23  2  0
 22 21  1  0
 23 15  1  0
 24 18  1  0
 25 19  1  0
 26 20  1  0
 27 18  2  0
 28 19  2  0
 29 20  2  0
 30 17  1  0
 22 16  2  0
 32 31  1  0
 33 31  2  0
 34 32  2  0
 35 32  1  0
 36 40  1  0
 37 31  1  0
 38 36  1  0
 39 34  1  0
 40 35  2  0
 41 37  1  0
 42 41  1  0
 43 42  1  0
 44 43  1  0
 39 36  2  0
  4 45  1  0
  5 46  1  0
  8 47  1  0
  8 48  1  0
  9 49  1  0
 10 50  1  0
 11 51  1  0
 11 52  1  0
 12 53  1  0
 12 54  1  0
 13 55  1  0
 13 56  1  0
 14 57  1  0
 14 58  1  0
 14 59  1  0
 22 60  1  0
 23 61  1  0
 30 62  1  0
 34 63  1  0
 35 64  1  0
 38 65  1  0
 38 66  1  0
 39 67  1  0
 40 68  1  0
 41 69  1  0
 41 70  1  0
 42 71  1  0
 42 72  1  0
 43 73  1  0
 43 74  1  0
 44 75  1  0
 44 76  1  0
 44 77  1  0
M  CHG  6  18   1  19   1  20   1  24  -1  25  -1  26  -1
M  END
> <Uni-Dock RESULT> 
ENERGY=   -6.332  LOWER_BOUND=    2.185  UPPER_BOUND=    3.926
INTER + INTRA:          -6.332
INTER:                  -6.332
INTRA:                   0.000
UNBOUND:                 0.000

$$$$

     RDKit          3D

 77 77  0  0  0  0  0  0  0  0999 V2000
   51.4294    4.2293   17.8611 C   0  0  0  0  0  0  0  0  0  0  0  0
   52.5134    3.2135   17.7695 C   0  0  0  0  0  0  0  0  0  0  0  0
   51.6272    5.4325   17.7981 O   0  0  0  0  0  0  0  0  0  0  0  0
   52.2614    1.8370   17.8023 C   0  0  0  0  0  0  0  0  0  0  0  0
   53.8313    3.6619   17.6222 C   0  0  0  0  0  0  0  0  0  0  0  0
   54.6420    1.3708   17.6150 C   0  0  0  0  0  0  0  0  0  0  0  0
   50.2255    3.6271   18.0261 O   0  0  0  0  0  0  0  0  0  0  0  0
   55.6775    0.4583   17.3938 N   0  0  0  0  0  0  0  0  0  0  0  0
   53.3200    0.9265   17.7041 C   0  0  0  0  0  0  0  0  0  0  0  0
   54.8825    2.7439   17.5255 C   0  0  0  0  0  0  0  0  0  0  0  0
   49.0942    4.5072   18.1199 C   0  0  0  0  0  0  0  0  0  0  0  0
   48.9030    4.9613   19.5638 C   0  0  0  0  0  0  0  0  0  0  0  0
   47.6613    5.8356   19.7168 C   0  0  0  0  0  0  0  0  0  0  0  0
   47.4840    6.3052   21.1520 C   0  0  0  0  0  0  0  0  0  0  0  0
   51.8530    2.7148   18.4373 C   0  0  0  0  0  0  0  0  0  0  0  0
   49.9620    4.1482   18.0646 C   0  0  0  0  0  0  0  0  0  0  0  0
   50.6231    2.9427   17.7981 C   0  0  0  0  0  0  0  0  0  0  0  0
   52.6059    1.4753   18.2054 N   0  0  0  0  0  0  0  0  0  0  0  0
   48.6955    4.4296   17.4229 N   0  0  0  0  0  0  0  0  0  0  0  0
   52.2554    5.8599   20.4915 N   0  0  0  0  0  0  0  0  0  0  0  0
   51.6949    4.8637   19.5668 C   0  0  0  0  0  0  0  0  0  0  0  0
   50.4709    5.1144   18.9408 C   0  0  0  0  0  0  0  0  0  0  0  0
   52.3937    3.6710   19.3207 C   0  0  0  0  0  0  0  0  0  0  0  0
   53.6911    1.3400   18.7826 O   0  0  0  0  0  0  0  0  0  0  0  0
   47.6840    4.3235   18.1269 O   0  0  0  0  0  0  0  0  0  0  0  0
   51.6199    6.9091   20.6532 O   0  0  0  0  0  0  0  0  0  0  0  0
   52.1014    0.6394   17.4411 O   0  0  0  0  0  0  0  0  0  0  0  0
   48.7363    4.8124   16.2471 O   0  0  0  0  0  0  0  0  0  0  0  0
   53.3256    5.5843   21.0473 O   0  0  0  0  0  0  0  0  0  0  0  0
   50.0249    2.0581   16.9446 O   0  0  0  0  0  0  0  0  0  0  0  0
   51.2670    4.5485   17.9135 C   0  0  0  0  0  0  0  0  0  0  0  0
   52.3082    3.4854   17.8727 C   0  0  0  0  0  0  0  0  0  0  0  0
   51.5216    5.7311   18.0782 O   0  0  0  0  0  0  0  0  0  0  0  0
   53.6474    3.8627   18.0246 C   0  0  0  0  0  0  0  0  0  0  0  0
   51.9998    2.1347   17.6736 C   0  0  0  0  0  0  0  0  0  0  0  0
   54.3521    1.5432   17.8568 C   0  0  0  0  0  0  0  0  0  0  0  0
   50.0331    4.0086   17.7610 O   0  0  0  0  0  0  0  0  0  0  0  0
   55.3737    0.6004   17.7089 N   0  0  0  0  0  0  0  0  0  0  0  0
   54.6602    2.8983   17.9949 C   0  0  0  0  0  0  0  0  0  0  0  0
   53.0205    1.1771   17.6457 C   0  0  0  0  0  0  0  0  0  0  0  0
   48.9229    4.9190   17.7920 C   0  0  0  0  0  0  0  0  0  0  0  0
   48.1311    4.7366   19.0845 C   0  0  0  0  0  0  0  0  0  0  0  0
   48.9223    5.1583   20.3242 C   0  0  0  0  0  0  0  0  0  0  0  0
   48.0844    5.0336   21.5874 C   0  0  0  0  0  0  0  0  0  0  0  0
   51.2474    1.4545   17.8877 H   0  0  0  0  0  0  0  0  0  0  0  0
   54.0466    4.7274   17.5676 H   0  0  0  0  0  0  0  0  0  0  0  0
   55.5023   -0.4684   17.7695 H   0  0  0  0  0  0  0  0  0  0  0  0
   56.5977    0.8073   17.6426 H   0  0  0  0  0  0  0  0  0  0  0  0
   53.1002   -0.1380   17.6971 H   0  0  0  0  0  0  0  0  0  0  0  0
   55.8940    3.1145   17.3782 H   0  0  0  0  0  0  0  0  0  0  0  0
   49.1991    5.3575   17.4354 H   0  0  0  0  0  0  0  0  0  0  0  0
   48.2212    3.9349   17.7874 H   0  0  0  0  0  0  0  0  0  0  0  0
   49.7924    5.5076   19.9009 H   0  0  0  0  0  0  0  0  0  0  0  0
   48.8296    4.0803   20.2135 H   0  0  0  0  0  0  0  0  0  0  0  0
   46.7706    5.2735   19.4106 H   0  0  0  0  0  0  0  0  0  0  0  0
   47.7366    6.7094   19.0592 H   0  0  0  0  0  0  0  0  0  0  0  0
   47.3795    5.4549   21.8333 H   0  0  0  0  0  0  0  0  0  0  0  0
   48.3412    6.9039   21.4767 H   0  0  0  0  0  0  0  0  0  0  0  0
   46.5851    6.9237   21.2401 H   0  0  0  0  0  0  0  0  0  0  0  0
   49.9159    6.0346   19.1216 H   0  0  0  0  0  0  0  0  0  0  0  0
   53.3492    3.4875   19.8146 H   0  0  0  0  0  0  0  0  0  0  0  0
   50.5676    1.2479   16.8209 H   0  0  0  0  0  0  0  0  0  0  0  0
   53.9119    4.9107   18.1540 H   0  0  0  0  0  0  0  0  0  0  0  0
   50.9734    1.8098   17.5250 H   0  0  0  0  0  0  0  0  0  0  0  0
   55.0949   -0.3522   17.9222 H   0  0  0  0  0  0  0  0  0  0  0  0
   56.2460    0.8591   18.1591 H   0  0  0  0  0  0  0  0  0  0  0  0
   55.6954    3.2186   18.0829 H   0  0  0  0  0  0  0  0  0  0  0  0
   52.7630    0.1378   17.4579 H   0  0  0  0  0  0  0  0  0  0  0  0
   48.2835    4.6621   16.9406 H   0  0  0  0  0  0  0  0  0  0  0  0
   49.2266    5.9633   17.6583 H   0  0  0  0  0  0  0  0  0  0  0  0
   47.8460    3.6825   19.1892 H   0  0  0  0  0  0  0  0  0  0  0  0
   47.2082    5.3250   19.0203 H   0  0  0  0  0  0  0  0  0  0  0  0
   49.8175    4.5361   20.4324 H   0  0  0  0  0  0  0  0  0  0  0  0
   49.2571    6.1966   20.2169 H   0  0  0  0  0  0  0  0  0  0  0  0
   47.1939    5.6681   21.5321 H   0  0  0  0  0  0  0  0  0  0  0  0
   48.6678    5.3426   22.4604 H   0  0  0  0  0  0  0  0  0  0  0  0
   47.7614    3.9993   21.7434 H   0  0  0  0  0  0  0  0  0  0  0  0
  2  1  1  0
  3  1  2  0
  4  2  2  0
  5  2  1  0
  6 10  1  0
  7  1  1  0
  8  6  1  0
  9  4  1  0
 10  5  2  0
 11  7  1  0
 12 11  1  0
 13 12  1  0
 14 13  1  0
  9  6  2  0
 16 17  1  0
 17 15  2  0
 18 15  1  0
 19 16  1  0
 20 21  1  0
 21 23  2  0
 22 21  1  0
 23 15  1  0
 24 18  1  0
 25 19  1  0
 26 20  1  0
 27 18  2  0
 28 19  2  0
 29 20  2  0
 30 17  1  0
 22 16  2  0
 32 31  1  0
 33 31  2  0
 34 32  2  0
 35 32  1  0
 36 40  1  0
 37 31  1  0
 38 36  1  0
 39 34  1  0
 40 35  2  0
 41 37  1  0
 42 41  1  0
 43 42  1  0
 44 43  1  0
 39 36  2  0
  4 45  1  0
  5 46  1  0
  8 47  1  0
  8 48  1  0
  9 49  1  0
 10 50  1  0
 11 51  1  0
 11 52  1  0
 12 53  1  0
 12 54  1  0
 13 55  1  0
 13 56  1  0
 14 57  1  0
 14 58  1  0
 14 59  1  0
 22 60  1  0
 23 61  1  0
 30 62  1  0
 34 63  1  0
 35 64  1  0
 38 65  1  0
 38 66  1  0
 39 67  1  0
 40 68  1  0
 41 69  1  0
 41 70  1  0
 42 71  1  0
 42 72  1  0
 43 73  1  0
 43 74  1  0
 44 75  1  0
 44 76  1  0
 44 77  1  0
M  CHG  6  18   1  19   1  20   1  24  -1  25  -1  26  -1
M  END
> <Uni-Dock RESULT> 
ENERGY=   -6.089  LOWER_BOUND=    5.240  UPPER_BOUND=    8.398
INTER + INTRA:          -6.089
INTER:                  -6.089
INTRA:                   0.000
UNBOUND:                 0.000

$$$$

     RDKit          3D

 77 77  0  0  0  0  0  0  0  0999 V2000
   45.1201   11.9112   11.6054 C   0  0  0  0  0  0  0  0  0  0  0  0
   43.7408   11.3941   11.3925 C   0  0  0  0  0  0  0  0  0  0  0  0
   45.3615   13.0211   12.0534 O   0  0  0  0  0  0  0  0  0  0  0  0
   43.4849   10.1029   10.9166 C   0  0  0  0  0  0  0  0  0  0  0  0
   42.6634   12.2316   11.7045 C   0  0  0  0  0  0  0  0  0  0  0  0
   41.0893   10.5199   10.9986 C   0  0  0  0  0  0  0  0  0  0  0  0
   46.0384   10.9863   11.2300 O   0  0  0  0  0  0  0  0  0  0  0  0
   39.7792   10.0360   10.9403 N   0  0  0  0  0  0  0  0  0  0  0  0
   42.1662    9.6668   10.7428 C   0  0  0  0  0  0  0  0  0  0  0  0
   41.3491   11.7867   11.5268 C   0  0  0  0  0  0  0  0  0  0  0  0
   47.4133   11.3675   11.3967 C   0  0  0  0  0  0  0  0  0  0  0  0
   47.8959   12.1342   10.1691 C   0  0  0  0  0  0  0  0  0  0  0  0
   49.3771   12.4873   10.2754 C   0  0  0  0  0  0  0  0  0  0  0  0
   49.8516   13.2702    9.0614 C   0  0  0  0  0  0  0  0  0  0  0  0
   44.2412   10.9148   10.5858 C   0  0  0  0  0  0  0  0  0  0  0  0
   46.4736   11.3575   11.3539 C   0  0  0  0  0  0  0  0  0  0  0  0
   45.4016   10.4640   11.2366 C   0  0  0  0  0  0  0  0  0  0  0  0
   43.0753   10.0359   10.4270 N   0  0  0  0  0  0  0  0  0  0  0  0
   47.6868   10.9395   12.0234 N   0  0  0  0  0  0  0  0  0  0  0  0
   45.1972   14.4485    9.6519 N   0  0  0  0  0  0  0  0  0  0  0  0
   45.2693   13.0852   10.1977 C   0  0  0  0  0  0  0  0  0  0  0  0
   46.4337   12.6607   10.8434 C   0  0  0  0  0  0  0  0  0  0  0  0
   44.1690   12.2231   10.0660 C   0  0  0  0  0  0  0  0  0  0  0  0
   42.0763   10.4953    9.8613 O   0  0  0  0  0  0  0  0  0  0  0  0
   48.6573   10.6854   11.2998 O   0  0  0  0  0  0  0  0  0  0  0  0
   46.1790   15.1824    9.8191 O   0  0  0  0  0  0  0  0  0  0  0  0
   43.1687    8.8828   10.8731 O   0  0  0  0  0  0  0  0  0  0  0  0
   47.6700   10.9329   13.2604 O   0  0  0  0  0  0  0  0  0  0  0  0
   44.1597   14.7726    9.0613 O   0  0  0  0  0  0  0  0  0  0  0  0
   45.5558    9.2063   11.7497 O   0  0  0  0  0  0  0  0  0  0  0  0
   45.3905   12.1469   11.6540 C   0  0  0  0  0  0  0  0  0  0  0  0
   44.0389   11.5879   11.3768 C   0  0  0  0  0  0  0  0  0  0  0  0
   45.5941   13.3292   11.8809 O   0  0  0  0  0  0  0  0  0  0  0  0
   42.9458   12.4621   11.3832 C   0  0  0  0  0  0  0  0  0  0  0  0
   43.8217   10.2279   11.1276 C   0  0  0  0  0  0  0  0  0  0  0  0
   41.4440   10.6371   10.8180 C   0  0  0  0  0  0  0  0  0  0  0  0
   46.3275   11.1691   11.5986 O   0  0  0  0  0  0  0  0  0  0  0  0
   40.1433   10.1440   10.6802 N   0  0  0  0  0  0  0  0  0  0  0  0
   41.6571   11.9825   11.1263 C   0  0  0  0  0  0  0  0  0  0  0  0
   42.5283    9.7578   10.8715 C   0  0  0  0  0  0  0  0  0  0  0  0
   47.6875   11.5655   11.8349 C   0  0  0  0  0  0  0  0  0  0  0  0
   48.4848   11.5050   10.5343 C   0  0  0  0  0  0  0  0  0  0  0  0
   48.0237   12.5456    9.5120 C   0  0  0  0  0  0  0  0  0  0  0  0
   48.8816   12.5096    8.2565 C   0  0  0  0  0  0  0  0  0  0  0  0
   44.2976    9.4171   10.6910 H   0  0  0  0  0  0  0  0  0  0  0  0
   42.8399   13.2298   12.1010 H   0  0  0  0  0  0  0  0  0  0  0  0
   39.6469    9.2723   10.2847 H   0  0  0  0  0  0  0  0  0  0  0  0
   39.0744   10.7594   10.8364 H   0  0  0  0  0  0  0  0  0  0  0  0
   41.9882    8.6490   10.4050 H   0  0  0  0  0  0  0  0  0  0  0  0
   40.5283   12.4423   11.8073 H   0  0  0  0  0  0  0  0  0  0  0  0
   47.5530   11.9443   12.3188 H   0  0  0  0  0  0  0  0  0  0  0  0
   47.9859   10.4404   11.5095 H   0  0  0  0  0  0  0  0  0  0  0  0
   47.2993   13.0461   10.0439 H   0  0  0  0  0  0  0  0  0  0  0  0
   47.7127   11.5317    9.2708 H   0  0  0  0  0  0  0  0  0  0  0  0
   49.9724   11.5706   10.3662 H   0  0  0  0  0  0  0  0  0  0  0  0
   49.5553   13.0819   11.1789 H   0  0  0  0  0  0  0  0  0  0  0  0
   49.7112   12.6926    8.1422 H   0  0  0  0  0  0  0  0  0  0  0  0
   49.3023   14.2122    8.9638 H   0  0  0  0  0  0  0  0  0  0  0  0
   50.9164   13.5062    9.1550 H   0  0  0  0  0  0  0  0  0  0  0  0
   47.2965   13.3172   10.9532 H   0  0  0  0  0  0  0  0  0  0  0  0
   43.2649   12.5666    9.5609 H   0  0  0  0  0  0  0  0  0  0  0  0
   44.7494    8.6592   11.6206 H   0  0  0  0  0  0  0  0  0  0  0  0
   43.0885   13.5190   11.6009 H   0  0  0  0  0  0  0  0  0  0  0  0
   44.6435    9.5168   11.1418 H   0  0  0  0  0  0  0  0  0  0  0  0
   40.0818    9.2695   10.1680 H   0  0  0  0  0  0  0  0  0  0  0  0
   39.4705   10.8314   10.3557 H   0  0  0  0  0  0  0  0  0  0  0  0
   40.8195   12.6743   11.1683 H   0  0  0  0  0  0  0  0  0  0  0  0
   42.3764    8.6933   10.7120 H   0  0  0  0  0  0  0  0  0  0  0  0
   48.1050   10.8440   12.5452 H   0  0  0  0  0  0  0  0  0  0  0  0
   47.7664   12.5538   12.3014 H   0  0  0  0  0  0  0  0  0  0  0  0
   48.3822   10.5062   10.0924 H   0  0  0  0  0  0  0  0  0  0  0  0
   49.5460   11.6593   10.7622 H   0  0  0  0  0  0  0  0  0  0  0  0
   46.9803   12.3646    9.2310 H   0  0  0  0  0  0  0  0  0  0  0  0
   48.0742   13.5481    9.9524 H   0  0  0  0  0  0  0  0  0  0  0  0
   49.9301   12.7191    8.4915 H   0  0  0  0  0  0  0  0  0  0  0  0
   48.5368   13.2627    7.5410 H   0  0  0  0  0  0  0  0  0  0  0  0
   48.8263   11.5298    7.7715 H   0  0  0  0  0  0  0  0  0  0  0  0
  2  1  1  0
  3  1  2  0
  4  2  2  0
  5  2  1  0
  6 10  1  0
  7  1  1  0
  8  6  1  0
  9  4  1  0
 10  5  2  0
 11  7  1  0
 12 11  1  0
 13 12  1  0
 14 13  1  0
  9  6  2  0
 16 17  1  0
 17 15  2  0
 18 15  1  0
 19 16  1  0
 20 21  1  0
 21 23  2  0
 22 21  1  0
 23 15  1  0
 24 18  1  0
 25 19  1  0
 26 20  1  0
 27 18  2  0
 28 19  2  0
 29 20  2  0
 30 17  1  0
 22 16  2  0
 32 31  1  0
 33 31  2  0
 34 32  2  0
 35 32  1  0
 36 40  1  0
 37 31  1  0
 38 36  1  0
 39 34  1  0
 40 35  2  0
 41 37  1  0
 42 41  1  0
 43 42  1  0
 44 43  1  0
 39 36  2  0
  4 45  1  0
  5 46  1  0
  8 47  1  0
  8 48  1  0
  9 49  1  0
 10 50  1  0
 11 51  1  0
 11 52  1  0
 12 53  1  0
 12 54  1  0
 13 55  1  0
 13 56  1  0
 14 57  1  0
 14 58  1  0
 14 59  1  0
 22 60  1  0
 23 61  1  0
 30 62  1  0
 34 63  1  0
 35 64  1  0
 38 65  1  0
 38 66  1  0
 39 67  1  0
 40 68  1  0
 41 69  1  0
 41 70  1  0
 42 71  1  0
 42 72  1  0
 43 73  1  0
 43 74  1  0
 44 75  1  0
 44 76  1  0
 44 77  1  0
M  CHG  6  18   1  19   1  20   1  24  -1  25  -1  26  -1
M  END
> <Uni-Dock RESULT> 
ENERGY=   -6.087  LOWER_BOUND=    8.907  UPPER_BOUND=   11.009
INTER + INTRA:          -6.087
INTER:                  -6.087
INTRA:                   0.000
UNBOUND:                 0.000

$$$$

     RDKit          3D

 77 77  0  0  0  0  0  0  0  0999 V2000
   47.4229   10.5545   11.7151 C   0  0  0  0  0  0  0  0  0  0  0  0
   47.4464    9.1402   12.1783 C   0  0  0  0  0  0  0  0  0  0  0  0
   48.3676   11.0988   11.1652 O   0  0  0  0  0  0  0  0  0  0  0  0
   46.3385    8.5220   12.7694 C   0  0  0  0  0  0  0  0  0  0  0  0
   48.6201    8.4007   11.9906 C   0  0  0  0  0  0  0  0  0  0  0  0
   47.6032    6.4621   13.0459 C   0  0  0  0  0  0  0  0  0  0  0  0
   46.2262   11.1275   11.9960 O   0  0  0  0  0  0  0  0  0  0  0  0
   47.6323    5.0966   13.3436 N   0  0  0  0  0  0  0  0  0  0  0  0
   46.4152    7.1858   13.1791 C   0  0  0  0  0  0  0  0  0  0  0  0
   48.6870    7.0660   12.4042 C   0  0  0  0  0  0  0  0  0  0  0  0
   46.0778   12.4967   11.5877 C   0  0  0  0  0  0  0  0  0  0  0  0
   46.6148   13.4268   12.6714 C   0  0  0  0  0  0  0  0  0  0  0  0
   46.4013   14.8936   12.3073 C   0  0  0  0  0  0  0  0  0  0  0  0
   46.9563   15.8197   13.3779 C   0  0  0  0  0  0  0  0  0  0  0  0
   46.8173    9.5650   12.9229 C   0  0  0  0  0  0  0  0  0  0  0  0
   46.4124   11.6389   11.7809 C   0  0  0  0  0  0  0  0  0  0  0  0
   45.9732   10.3543   12.1244 C   0  0  0  0  0  0  0  0  0  0  0  0
   46.4260    8.2066   13.3215 N   0  0  0  0  0  0  0  0  0  0  0  0
   45.5794   12.4853   10.9536 N   0  0  0  0  0  0  0  0  0  0  0  0
   49.7561   11.8759   13.4673 N   0  0  0  0  0  0  0  0  0  0  0  0
   48.4609   11.3567   13.0040 C   0  0  0  0  0  0  0  0  0  0  0  0
   47.6397   12.1600   12.2081 C   0  0  0  0  0  0  0  0  0  0  0  0
   48.0613   10.0598   13.3642 C   0  0  0  0  0  0  0  0  0  0  0  0
   47.2191    7.5537   14.0098 O   0  0  0  0  0  0  0  0  0  0  0  0
   44.9877   13.4079   11.5269 O   0  0  0  0  0  0  0  0  0  0  0  0
   50.0798   13.0118   13.0991 O   0  0  0  0  0  0  0  0  0  0  0  0
   45.3187    7.7998   12.9396 O   0  0  0  0  0  0  0  0  0  0  0  0
   45.5793   12.2547    9.7381 O   0  0  0  0  0  0  0  0  0  0  0  0
   50.4374   11.1433   14.1947 O   0  0  0  0  0  0  0  0  0  0  0  0
   44.7462    9.9540   11.6735 O   0  0  0  0  0  0  0  0  0  0  0  0
   47.5434   10.8790   11.6091 C   0  0  0  0  0  0  0  0  0  0  0  0
   47.5178    9.4861   12.1337 C   0  0  0  0  0  0  0  0  0  0  0  0
   48.5691   11.4527   11.2785 O   0  0  0  0  0  0  0  0  0  0  0  0
   48.7313    8.7980   12.2474 C   0  0  0  0  0  0  0  0  0  0  0  0
   46.3315    8.8395   12.4997 C   0  0  0  0  0  0  0  0  0  0  0  0
   47.5825    6.8606   13.1596 C   0  0  0  0  0  0  0  0  0  0  0  0
   46.2905   11.3951   11.5752 O   0  0  0  0  0  0  0  0  0  0  0  0
   47.5995    5.5140   13.5347 N   0  0  0  0  0  0  0  0  0  0  0  0
   48.7566    7.4878   12.7370 C   0  0  0  0  0  0  0  0  0  0  0  0
   46.3674    7.5285   12.9887 C   0  0  0  0  0  0  0  0  0  0  0  0
   46.1617   12.7440   11.0997 C   0  0  0  0  0  0  0  0  0  0  0  0
   45.8137   13.6769   12.2570 C   0  0  0  0  0  0  0  0  0  0  0  0
   46.9508   13.8053   13.2724 C   0  0  0  0  0  0  0  0  0  0  0  0
   46.6034   14.7948   14.3740 C   0  0  0  0  0  0  0  0  0  0  0  0
   45.4029    9.0587   12.9046 H   0  0  0  0  0  0  0  0  0  0  0  0
   49.4845    8.8541   11.5089 H   0  0  0  0  0  0  0  0  0  0  0  0
   46.9699    4.8128   14.0586 H   0  0  0  0  0  0  0  0  0  0  0  0
   48.5634    4.7291   13.5132 H   0  0  0  0  0  0  0  0  0  0  0  0
   45.5332    6.7138   13.6045 H   0  0  0  0  0  0  0  0  0  0  0  0
   49.5975    6.5015   12.2180 H   0  0  0  0  0  0  0  0  0  0  0  0
   46.5635   12.6740   10.6207 H   0  0  0  0  0  0  0  0  0  0  0  0
   45.0054   12.6680   11.4433 H   0  0  0  0  0  0  0  0  0  0  0  0
   47.6817   13.2301   12.8328 H   0  0  0  0  0  0  0  0  0  0  0  0
   46.1211   13.1961   13.6236 H   0  0  0  0  0  0  0  0  0  0  0  0
   45.3304   15.0933   12.1803 H   0  0  0  0  0  0  0  0  0  0  0  0
   46.8894   15.1159   11.3513 H   0  0  0  0  0  0  0  0  0  0  0  0
   46.4702   15.6410   14.3423 H   0  0  0  0  0  0  0  0  0  0  0  0
   48.0340   15.6725   13.5027 H   0  0  0  0  0  0  0  0  0  0  0  0
   46.7863   16.8648   13.1003 H   0  0  0  0  0  0  0  0  0  0  0  0
   47.9350   13.1687   11.9205 H   0  0  0  0  0  0  0  0  0  0  0  0
   48.7118    9.4418   13.9849 H   0  0  0  0  0  0  0  0  0  0  0  0
   44.5321    9.0398   11.9643 H   0  0  0  0  0  0  0  0  0  0  0  0
   49.6626    9.2723   11.9435 H   0  0  0  0  0  0  0  0  0  0  0  0
   45.3691    9.3342   12.3989 H   0  0  0  0  0  0  0  0  0  0  0  0
   46.8082    5.2307   14.1042 H   0  0  0  0  0  0  0  0  0  0  0  0
   48.4855    5.2009   13.9188 H   0  0  0  0  0  0  0  0  0  0  0  0
   49.7069    6.9621   12.7862 H   0  0  0  0  0  0  0  0  0  0  0  0
   45.4322    7.0329   13.2371 H   0  0  0  0  0  0  0  0  0  0  0  0
   45.3374   12.7445   10.3785 H   0  0  0  0  0  0  0  0  0  0  0  0
   47.0526   13.0924   10.5652 H   0  0  0  0  0  0  0  0  0  0  0  0
   44.9217   13.2989   12.7717 H   0  0  0  0  0  0  0  0  0  0  0  0
   45.5690   14.6663   11.8529 H   0  0  0  0  0  0  0  0  0  0  0  0
   47.1643   12.8319   13.7276 H   0  0  0  0  0  0  0  0  0  0  0  0
   47.8654   14.1372   12.7673 H   0  0  0  0  0  0  0  0  0  0  0  0
   46.4147   15.7911   13.9615 H   0  0  0  0  0  0  0  0  0  0  0  0
   47.4305   14.8733   15.0866 H   0  0  0  0  0  0  0  0  0  0  0  0
   45.7118   14.4743   14.9223 H   0  0  0  0  0  0  0  0  0  0  0  0
  2  1  1  0
  3  1  2  0
  4  2  2  0
  5  2  1  0
  6 10  1  0
  7  1  1  0
  8  6  1  0
  9  4  1  0
 10  5  2  0
 11  7  1  0
 12 11  1  0
 13 12  1  0
 14 13  1  0
  9  6  2  0
 16 17  1  0
 17 15  2  0
 18 15  1  0
 19 16  1  0
 20 21  1  0
 21 23  2  0
 22 21  1  0
 23 15  1  0
 24 18  1  0
 25 19  1  0
 26 20  1  0
 27 18  2  0
 28 19  2  0
 29 20  2  0
 30 17  1  0
 22 16  2  0
 32 31  1  0
 33 31  2  0
 34 32  2  0
 35 32  1  0
 36 40  1  0
 37 31  1  0
 38 36  1  0
 39 34  1  0
 40 35  2  0
 41 37  1  0
 42 41  1  0
 43 42  1  0
 44 43  1  0
 39 36  2  0
  4 45  1  0
  5 46  1  0
  8 47  1  0
  8 48  1  0
  9 49  1  0
 10 50  1  0
 11 51  1  0
 11 52  1  0
 12 53  1  0
 12 54  1  0
 13 55  1  0
 13 56  1  0
 14 57  1  0
 14 58  1  0
 14 59  1  0
 22 60  1  0
 23 61  1  0
 30 62  1  0
 34 63  1  0
 35 64  1  0
 38 65  1  0
 38 66  1  0
 39 67  1  0
 40 68  1  0
 41 69  1  0
 41 70  1  0
 42 71  1  0
 42 72  1  0
 43 73  1  0
 43 74  1  0
 44 75  1  0
 44 76  1  0
 44 77  1  0
M  CHG  6  18   1  19   1  20   1  24  -1  25  -1  26  -1
M  END
> <Uni-Dock RESULT> 
ENERGY=   -6.054  LOWER_BOUND=    7.168  UPPER_BOUND=    9.658
INTER + INTRA:          -6.054
INTER:                  -6.054
INTRA:                   0.000
UNBOUND:                 0.000

$$$$
