
     RDKit          3D

 77 77  0  0  0  0  0  0  0  0999 V2000
   45.9344    7.2606   11.7242 C   0  0  0  0  0  0  0  0  0  0  0  0
   45.2007    6.0018   12.0279 C   0  0  0  0  0  0  0  0  0  0  0  0
   45.4411    8.1967   11.1156 O   0  0  0  0  0  0  0  0  0  0  0  0
   45.7807    4.9434   12.7374 C   0  0  0  0  0  0  0  0  0  0  0  0
   43.8725    5.8883   11.6004 C   0  0  0  0  0  0  0  0  0  0  0  0
   43.7357    3.6441   12.5217 C   0  0  0  0  0  0  0  0  0  0  0  0
   47.1970    7.2071   12.2167 O   0  0  0  0  0  0  0  0  0  0  0  0
   42.9675    2.5348   12.8901 N   0  0  0  0  0  0  0  0  0  0  0  0
   45.0421    3.7837   12.9972 C   0  0  0  0  0  0  0  0  0  0  0  0
   43.1420    4.7255   11.8665 C   0  0  0  0  0  0  0  0  0  0  0  0
   48.0057    8.3729   11.9930 C   0  0  0  0  0  0  0  0  0  0  0  0
   47.7912    9.3768   13.1214 C   0  0  0  0  0  0  0  0  0  0  0  0
   48.6811   10.6058   12.9586 C   0  0  0  0  0  0  0  0  0  0  0  0
   48.4594   11.6063   14.0818 C   0  0  0  0  0  0  0  0  0  0  0  0
   45.7591    8.4879   12.4099 C   0  0  0  0  0  0  0  0  0  0  0  0
   47.0535    6.7775   13.4942 C   0  0  0  0  0  0  0  0  0  0  0  0
   46.7180    8.1360   13.3684 C   0  0  0  0  0  0  0  0  0  0  0  0
   45.3903    9.8777   12.2344 N   0  0  0  0  0  0  0  0  0  0  0  0
   48.0477    6.3336   14.4796 N   0  0  0  0  0  0  0  0  0  0  0  0
   44.8253    5.1856   10.8913 N   0  0  0  0  0  0  0  0  0  0  0  0
   45.4737    6.1986   11.7381 C   0  0  0  0  0  0  0  0  0  0  0  0
   46.4366    5.8053   12.6814 C   0  0  0  0  0  0  0  0  0  0  0  0
   45.1252    7.5439   11.5928 C   0  0  0  0  0  0  0  0  0  0  0  0
   46.2102   10.6087   11.6654 O   0  0  0  0  0  0  0  0  0  0  0  0
   48.6454    7.2123   15.1179 O   0  0  0  0  0  0  0  0  0  0  0  0
   45.1502    4.0046   11.0642 O   0  0  0  0  0  0  0  0  0  0  0  0
   44.2556   10.1993   12.6091 O   0  0  0  0  0  0  0  0  0  0  0  0
   48.2263    5.1177   14.6149 O   0  0  0  0  0  0  0  0  0  0  0  0
   43.9993    5.5810   10.0596 O   0  0  0  0  0  0  0  0  0  0  0  0
   47.2525    9.1316   14.1376 O   0  0  0  0  0  0  0  0  0  0  0  0
   45.2162    7.6060   12.3262 C   0  0  0  0  0  0  0  0  0  0  0  0
   44.8321    6.1700   12.2469 C   0  0  0  0  0  0  0  0  0  0  0  0
   44.5163    8.5159   11.9092 O   0  0  0  0  0  0  0  0  0  0  0  0
   43.6258    5.8417   11.6164 C   0  0  0  0  0  0  0  0  0  0  0  0
   45.6346    5.1442   12.7596 C   0  0  0  0  0  0  0  0  0  0  0  0
   43.9912    3.4838   12.0786 C   0  0  0  0  0  0  0  0  0  0  0  0
   46.4301    7.7459   12.9155 O   0  0  0  0  0  0  0  0  0  0  0  0
   43.6432    2.1455   11.8714 N   0  0  0  0  0  0  0  0  0  0  0  0
   43.2229    4.5056   11.5158 C   0  0  0  0  0  0  0  0  0  0  0  0
   45.2217    3.8103   12.6549 C   0  0  0  0  0  0  0  0  0  0  0  0
   46.8732    9.1061   13.0285 C   0  0  0  0  0  0  0  0  0  0  0  0
   48.2575    9.0998   13.6698 C   0  0  0  0  0  0  0  0  0  0  0  0
   48.8069   10.4963   13.9553 C   0  0  0  0  0  0  0  0  0  0  0  0
   49.0440   11.3228   12.7001 C   0  0  0  0  0  0  0  0  0  0  0  0
   46.8011    5.0077   13.1062 H   0  0  0  0  0  0  0  0  0  0  0  0
   43.3944    6.7085   11.0698 H   0  0  0  0  0  0  0  0  0  0  0  0
   43.5121    1.6970   13.0692 H   0  0  0  0  0  0  0  0  0  0  0  0
   42.1830    2.3555   12.2700 H   0  0  0  0  0  0  0  0  0  0  0  0
   45.5002    2.9857   13.5770 H   0  0  0  0  0  0  0  0  0  0  0  0
   42.1026    4.6732   11.5541 H   0  0  0  0  0  0  0  0  0  0  0  0
   49.0483    8.0368   11.9817 H   0  0  0  0  0  0  0  0  0  0  0  0
   47.8027    8.8137   11.0094 H   0  0  0  0  0  0  0  0  0  0  0  0
   47.9925    8.8885   14.0828 H   0  0  0  0  0  0  0  0  0  0  0  0
   46.7371    9.6773   13.1543 H   0  0  0  0  0  0  0  0  0  0  0  0
   48.4750   11.0914   11.9975 H   0  0  0  0  0  0  0  0  0  0  0  0
   49.7349   10.3034   12.9497 H   0  0  0  0  0  0  0  0  0  0  0  0
   49.1115   12.4750   13.9488 H   0  0  0  0  0  0  0  0  0  0  0  0
   48.6837   11.1587   15.0553 H   0  0  0  0  0  0  0  0  0  0  0  0
   47.4229   11.9572   14.0958 H   0  0  0  0  0  0  0  0  0  0  0  0
   46.7008    4.7521   12.7846 H   0  0  0  0  0  0  0  0  0  0  0  0
   44.3795    7.8635   10.8652 H   0  0  0  0  0  0  0  0  0  0  0  0
   47.9683    8.7953   14.7217 H   0  0  0  0  0  0  0  0  0  0  0  0
   42.9999    6.6208   11.1864 H   0  0  0  0  0  0  0  0  0  0  0  0
   46.5895    5.3612   13.2314 H   0  0  0  0  0  0  0  0  0  0  0  0
   44.0538    1.5006   12.5387 H   0  0  0  0  0  0  0  0  0  0  0  0
   42.6471    1.9918   11.7466 H   0  0  0  0  0  0  0  0  0  0  0  0
   42.2999    4.2719   10.9907 H   0  0  0  0  0  0  0  0  0  0  0  0
   45.8743    3.0249   13.0292 H   0  0  0  0  0  0  0  0  0  0  0  0
   46.9156    9.5541   12.0295 H   0  0  0  0  0  0  0  0  0  0  0  0
   46.1689    9.6655   13.6552 H   0  0  0  0  0  0  0  0  0  0  0  0
   48.9539    8.5429   13.0302 H   0  0  0  0  0  0  0  0  0  0  0  0
   48.2105    8.5364   14.6107 H   0  0  0  0  0  0  0  0  0  0  0  0
   48.1241   11.0366   14.6211 H   0  0  0  0  0  0  0  0  0  0  0  0
   49.7587   10.3931   14.4906 H   0  0  0  0  0  0  0  0  0  0  0  0
   49.5231   12.2721   12.9607 H   0  0  0  0  0  0  0  0  0  0  0  0
   49.6975   10.7938   11.9985 H   0  0  0  0  0  0  0  0  0  0  0  0
   48.1036   11.5567   12.1910 H   0  0  0  0  0  0  0  0  0  0  0  0
  2  1  1  0
  3  1  2  0
  4  2  2  0
  5  2  1  0
  6 10  1  0
  7  1  1  0
  8  6  1  0
  9  4  1  0
 10  5  2  0
 11  7  1  0
 12 11  1  0
 13 12  1  0
 14 13  1  0
  9  6  2  0
 16 17  1  0
 17 15  2  0
 18 15  1  0
 19 16  1  0
 20 21  1  0
 21 23  2  0
 22 21  1  0
 23 15  1  0
 24 18  1  0
 25 19  1  0
 26 20  1  0
 27 18  2  0
 28 19  2  0
 29 20  2  0
 30 17  1  0
 22 16  2  0
 32 31  1  0
 33 31  2  0
 34 32  2  0
 35 32  1  0
 36 40  1  0
 37 31  1  0
 38 36  1  0
 39 34  1  0
 40 35  2  0
 41 37  1  0
 42 41  1  0
 43 42  1  0
 44 43  1  0
 39 36  2  0
  4 45  1  0
  5 46  1  0
  8 47  1  0
  8 48  1  0
  9 49  1  0
 10 50  1  0
 11 51  1  0
 11 52  1  0
 12 53  1  0
 12 54  1  0
 13 55  1  0
 13 56  1  0
 14 57  1  0
 14 58  1  0
 14 59  1  0
 22 60  1  0
 23 61  1  0
 30 62  1  0
 34 63  1  0
 35 64  1  0
 38 65  1  0
 38 66  1  0
 39 67  1  0
 40 68  1  0
 41 69  1  0
 41 70  1  0
 42 71  1  0
 42 72  1  0
 43 73  1  0
 43 74  1  0
 44 75  1  0
 44 76  1  0
 44 77  1  0
M  CHG  6  18   1  19   1  20   1  24  -1  25  -1  26  -1
M  END
> <Uni-Dock RESULT> 
ENERGY=   -6.732  LOWER_BOUND=    0.000  UPPER_BOUND=    0.000
INTER + INTRA:          -6.732
INTER:                  -6.732
INTRA:                   0.000
UNBOUND:                 0.000

$$$$

     RDKit          3D

 77 77  0  0  0  0  0  0  0  0999 V2000
   47.7691    6.9739   12.8711 C   0  0  0  0  0  0  0  0  0  0  0  0
   48.4213    8.0552   13.6589 C   0  0  0  0  0  0  0  0  0  0  0  0
   47.9881    5.7862   13.0487 O   0  0  0  0  0  0  0  0  0  0  0  0
   48.1483    9.4118   13.4474 C   0  0  0  0  0  0  0  0  0  0  0  0
   49.3274    7.6911   14.6620 C   0  0  0  0  0  0  0  0  0  0  0  0
   49.7370   10.0287   15.1829 C   0  0  0  0  0  0  0  0  0  0  0  0
   46.9178    7.4988   11.9549 O   0  0  0  0  0  0  0  0  0  0  0  0
   50.2798   10.9998   16.0308 N   0  0  0  0  0  0  0  0  0  0  0  0
   48.7891   10.3862   14.2206 C   0  0  0  0  0  0  0  0  0  0  0  0
   49.9617    8.6725   15.4307 C   0  0  0  0  0  0  0  0  0  0  0  0
   46.2183    6.5494   11.1347 C   0  0  0  0  0  0  0  0  0  0  0  0
   44.9315    6.1138   11.8286 C   0  0  0  0  0  0  0  0  0  0  0  0
   44.1223    5.1525   10.9626 C   0  0  0  0  0  0  0  0  0  0  0  0
   42.8441    4.7161   11.6606 C   0  0  0  0  0  0  0  0  0  0  0  0
   46.7073    6.1588   13.3353 C   0  0  0  0  0  0  0  0  0  0  0  0
   46.1764    8.3991   12.6456 C   0  0  0  0  0  0  0  0  0  0  0  0
   45.7514    7.0836   12.8962 C   0  0  0  0  0  0  0  0  0  0  0  0
   46.3193    4.7874   13.5939 N   0  0  0  0  0  0  0  0  0  0  0  0
   45.2299    9.4237   12.1863 N   0  0  0  0  0  0  0  0  0  0  0  0
   49.8531    8.1991   13.4916 N   0  0  0  0  0  0  0  0  0  0  0  0
   48.4484    7.8142   13.2868 C   0  0  0  0  0  0  0  0  0  0  0  0
   47.5227    8.7695   12.8372 C   0  0  0  0  0  0  0  0  0  0  0  0
   48.0500    6.4991   13.5404 C   0  0  0  0  0  0  0  0  0  0  0  0
   46.0962    4.0717   12.6098 O   0  0  0  0  0  0  0  0  0  0  0  0
   44.0732    9.0555   11.9347 O   0  0  0  0  0  0  0  0  0  0  0  0
   50.1598    9.3772   13.2719 O   0  0  0  0  0  0  0  0  0  0  0  0
   46.3104    4.4302   14.7787 O   0  0  0  0  0  0  0  0  0  0  0  0
   45.6397   10.5854   12.0813 O   0  0  0  0  0  0  0  0  0  0  0  0
   50.6369    7.3189   13.8675 O   0  0  0  0  0  0  0  0  0  0  0  0
   44.4601    6.6565   12.7593 O   0  0  0  0  0  0  0  0  0  0  0  0
   47.4085    6.7817   13.7824 C   0  0  0  0  0  0  0  0  0  0  0  0
   48.3113    7.9254   14.0869 C   0  0  0  0  0  0  0  0  0  0  0  0
   47.5697    5.6569   14.2300 O   0  0  0  0  0  0  0  0  0  0  0  0
   49.4330    7.6872   14.8903 C   0  0  0  0  0  0  0  0  0  0  0  0
   48.0908    9.2149   13.5891 C   0  0  0  0  0  0  0  0  0  0  0  0
   50.0633   10.0306   14.7576 C   0  0  0  0  0  0  0  0  0  0  0  0
   46.4068    7.1689   12.9534 O   0  0  0  0  0  0  0  0  0  0  0  0
   51.0056   11.0409   14.9736 N   0  0  0  0  0  0  0  0  0  0  0  0
   50.3118    8.7301   15.2027 C   0  0  0  0  0  0  0  0  0  0  0  0
   48.9756   10.2520   13.9086 C   0  0  0  0  0  0  0  0  0  0  0  0
   45.4912    6.1185   12.6105 C   0  0  0  0  0  0  0  0  0  0  0  0
   44.4529    6.6921   11.6509 C   0  0  0  0  0  0  0  0  0  0  0  0
   43.3430    5.7070   11.2889 C   0  0  0  0  0  0  0  0  0  0  0  0
   43.8394    4.4881   10.5255 C   0  0  0  0  0  0  0  0  0  0  0  0
   47.4314    9.7292   12.6945 H   0  0  0  0  0  0  0  0  0  0  0  0
   49.5350    6.6420   14.8601 H   0  0  0  0  0  0  0  0  0  0  0  0
   50.3311   11.9258   15.6179 H   0  0  0  0  0  0  0  0  0  0  0  0
   51.1579   10.7237   16.4607 H   0  0  0  0  0  0  0  0  0  0  0  0
   48.5399   11.4329   14.0624 H   0  0  0  0  0  0  0  0  0  0  0  0
   50.6358    8.3651   16.2255 H   0  0  0  0  0  0  0  0  0  0  0  0
   45.9844    7.0575   10.1928 H   0  0  0  0  0  0  0  0  0  0  0  0
   46.8579    5.6942   10.8847 H   0  0  0  0  0  0  0  0  0  0  0  0
   44.3330    7.0008   12.0702 H   0  0  0  0  0  0  0  0  0  0  0  0
   45.1701    5.6440   12.7902 H   0  0  0  0  0  0  0  0  0  0  0  0
   44.7238    4.2671   10.7255 H   0  0  0  0  0  0  0  0  0  0  0  0
   43.8659    5.6345   10.0118 H   0  0  0  0  0  0  0  0  0  0  0  0
   42.2772    4.0337   11.0199 H   0  0  0  0  0  0  0  0  0  0  0  0
   42.2075    5.5775   11.8871 H   0  0  0  0  0  0  0  0  0  0  0  0
   43.0664    4.1975   12.5983 H   0  0  0  0  0  0  0  0  0  0  0  0
   47.8461    9.7928   12.6417 H   0  0  0  0  0  0  0  0  0  0  0  0
   48.7574    5.7473   13.8898 H   0  0  0  0  0  0  0  0  0  0  0  0
   43.8852    7.3544   12.3733 H   0  0  0  0  0  0  0  0  0  0  0  0
   49.6387    6.6868   15.2652 H   0  0  0  0  0  0  0  0  0  0  0  0
   47.2449    9.4293   12.9410 H   0  0  0  0  0  0  0  0  0  0  0  0
   50.6322   11.9814   14.8971 H   0  0  0  0  0  0  0  0  0  0  0  0
   51.5643   10.9127   15.8120 H   0  0  0  0  0  0  0  0  0  0  0  0
   51.1951    8.5139   15.7985 H   0  0  0  0  0  0  0  0  0  0  0  0
   48.8063   11.2394   13.4852 H   0  0  0  0  0  0  0  0  0  0  0  0
   46.0441    5.3017   12.1335 H   0  0  0  0  0  0  0  0  0  0  0  0
   45.0027    5.7524   13.5211 H   0  0  0  0  0  0  0  0  0  0  0  0
   44.9534    7.0488   10.7418 H   0  0  0  0  0  0  0  0  0  0  0  0
   44.0031    7.5839   12.1061 H   0  0  0  0  0  0  0  0  0  0  0  0
   42.8246    5.3790   12.1973 H   0  0  0  0  0  0  0  0  0  0  0  0
   42.6025    6.2289   10.6704 H   0  0  0  0  0  0  0  0  0  0  0  0
   42.9916    3.8694   10.2139 H   0  0  0  0  0  0  0  0  0  0  0  0
   44.3918    4.7844    9.6276 H   0  0  0  0  0  0  0  0  0  0  0  0
   44.4918    3.8654   11.1459 H   0  0  0  0  0  0  0  0  0  0  0  0
  2  1  1  0
  3  1  2  0
  4  2  2  0
  5  2  1  0
  6 10  1  0
  7  1  1  0
  8  6  1  0
  9  4  1  0
 10  5  2  0
 11  7  1  0
 12 11  1  0
 13 12  1  0
 14 13  1  0
  9  6  2  0
 16 17  1  0
 17 15  2  0
 18 15  1  0
 19 16  1  0
 20 21  1  0
 21 23  2  0
 22 21  1  0
 23 15  1  0
 24 18  1  0
 25 19  1  0
 26 20  1  0
 27 18  2  0
 28 19  2  0
 29 20  2  0
 30 17  1  0
 22 16  2  0
 32 31  1  0
 33 31  2  0
 34 32  2  0
 35 32  1  0
 36 40  1  0
 37 31  1  0
 38 36  1  0
 39 34  1  0
 40 35  2  0
 41 37  1  0
 42 41  1  0
 43 42  1  0
 44 43  1  0
 39 36  2  0
  4 45  1  0
  5 46  1  0
  8 47  1  0
  8 48  1  0
  9 49  1  0
 10 50  1  0
 11 51  1  0
 11 52  1  0
 12 53  1  0
 12 54  1  0
 13 55  1  0
 13 56  1  0
 14 57  1  0
 14 58  1  0
 14 59  1  0
 22 60  1  0
 23 61  1  0
 30 62  1  0
 34 63  1  0
 35 64  1  0
 38 65  1  0
 38 66  1  0
 39 67  1  0
 40 68  1  0
 41 69  1  0
 41 70  1  0
 42 71  1  0
 42 72  1  0
 43 73  1  0
 43 74  1  0
 44 75  1  0
 44 76  1  0
 44 77  1  0
M  CHG  6  18   1  19   1  20   1  24  -1  25  -1  26  -1
M  END
> <Uni-Dock RESULT> 
ENERGY=   -6.595  LOWER_BOUND=    1.830  UPPER_BOUND=    6.275
INTER + INTRA:          -6.595
INTER:                  -6.595
INTRA:                   0.000
UNBOUND:                 0.000

$$$$

     RDKit          3D

 77 77  0  0  0  0  0  0  0  0999 V2000
   47.2018    7.5353   13.3344 C   0  0  0  0  0  0  0  0  0  0  0  0
   46.0811    6.8811   12.6053 C   0  0  0  0  0  0  0  0  0  0  0  0
   48.2266    6.9544   13.6539 O   0  0  0  0  0  0  0  0  0  0  0  0
   44.9179    7.5678   12.2377 C   0  0  0  0  0  0  0  0  0  0  0  0
   46.2126    5.5307   12.2606 C   0  0  0  0  0  0  0  0  0  0  0  0
   44.0004    5.5404   11.2557 C   0  0  0  0  0  0  0  0  0  0  0  0
   46.9154    8.8385   13.5782 O   0  0  0  0  0  0  0  0  0  0  0  0
   43.0311    4.9160   10.4637 N   0  0  0  0  0  0  0  0  0  0  0  0
   43.8970    6.9023   11.5501 C   0  0  0  0  0  0  0  0  0  0  0  0
   45.1871    4.8747   11.5716 C   0  0  0  0  0  0  0  0  0  0  0  0
   47.9291    9.5824   14.2726 C   0  0  0  0  0  0  0  0  0  0  0  0
   48.9216   10.1652   13.2714 C   0  0  0  0  0  0  0  0  0  0  0  0
   49.9816   11.0193   13.9612 C   0  0  0  0  0  0  0  0  0  0  0  0
   50.9722   11.5927   12.9605 C   0  0  0  0  0  0  0  0  0  0  0  0
   48.4203    7.9524   12.7441 C   0  0  0  0  0  0  0  0  0  0  0  0
   46.4802    9.3264   12.3909 C   0  0  0  0  0  0  0  0  0  0  0  0
   47.8794    9.2013   12.4129 C   0  0  0  0  0  0  0  0  0  0  0  0
   49.8575    7.7784   12.7930 N   0  0  0  0  0  0  0  0  0  0  0  0
   45.8418   10.6039   12.0491 N   0  0  0  0  0  0  0  0  0  0  0  0
   45.3761    5.8335   13.3155 N   0  0  0  0  0  0  0  0  0  0  0  0
   46.2359    6.9866   13.0080 C   0  0  0  0  0  0  0  0  0  0  0  0
   45.6541    8.2241   12.6890 C   0  0  0  0  0  0  0  0  0  0  0  0
   47.6250    6.8383   13.0389 C   0  0  0  0  0  0  0  0  0  0  0  0
   50.4513    8.2779   13.7564 O   0  0  0  0  0  0  0  0  0  0  0  0
   46.5843   11.5825   11.8824 O   0  0  0  0  0  0  0  0  0  0  0  0
   44.1521    6.0036   13.2601 O   0  0  0  0  0  0  0  0  0  0  0  0
   50.3602    7.0849   11.8998 O   0  0  0  0  0  0  0  0  0  0  0  0
   44.6099   10.6266   11.9461 O   0  0  0  0  0  0  0  0  0  0  0  0
   45.9330    4.7695   13.6123 O   0  0  0  0  0  0  0  0  0  0  0  0
   48.7442   10.2157   12.1100 O   0  0  0  0  0  0  0  0  0  0  0  0
   47.6489    7.3128   12.4695 C   0  0  0  0  0  0  0  0  0  0  0  0
   46.3044    6.7177   12.2371 C   0  0  0  0  0  0  0  0  0  0  0  0
   48.6783    6.6572   12.5160 O   0  0  0  0  0  0  0  0  0  0  0  0
   46.2091    5.3263   12.1140 C   0  0  0  0  0  0  0  0  0  0  0  0
   45.1402    7.4906   12.1555 C   0  0  0  0  0  0  0  0  0  0  0  0
   43.8111    5.4920   11.7549 C   0  0  0  0  0  0  0  0  0  0  0  0
   47.5586    8.6583   12.6187 O   0  0  0  0  0  0  0  0  0  0  0  0
   42.5602    4.8751   11.6565 N   0  0  0  0  0  0  0  0  0  0  0  0
   44.9669    4.7204   11.8965 C   0  0  0  0  0  0  0  0  0  0  0  0
   43.9020    6.8747   11.9365 C   0  0  0  0  0  0  0  0  0  0  0  0
   48.8173    9.3079   12.8484 C   0  0  0  0  0  0  0  0  0  0  0  0
   48.5519   10.7990   13.0334 C   0  0  0  0  0  0  0  0  0  0  0  0
   49.8228   11.6345   13.1754 C   0  0  0  0  0  0  0  0  0  0  0  0
   50.6319   11.3008   14.4200 C   0  0  0  0  0  0  0  0  0  0  0  0
   44.7932    8.6230   12.4668 H   0  0  0  0  0  0  0  0  0  0  0  0
   47.1185    4.9848   12.5141 H   0  0  0  0  0  0  0  0  0  0  0  0
   42.1065    5.3280   10.5420 H   0  0  0  0  0  0  0  0  0  0  0  0
   43.0090    3.9053   10.5641 H   0  0  0  0  0  0  0  0  0  0  0  0
   43.0150    7.4612   11.2457 H   0  0  0  0  0  0  0  0  0  0  0  0
   45.3253    3.8356   11.2856 H   0  0  0  0  0  0  0  0  0  0  0  0
   47.4175   10.3894   14.8083 H   0  0  0  0  0  0  0  0  0  0  0  0
   48.4268    8.9638   15.0291 H   0  0  0  0  0  0  0  0  0  0  0  0
   48.3779   10.7629   12.5296 H   0  0  0  0  0  0  0  0  0  0  0  0
   49.3995    9.3543   12.7089 H   0  0  0  0  0  0  0  0  0  0  0  0
   50.5234   10.4172   14.7001 H   0  0  0  0  0  0  0  0  0  0  0  0
   49.5011   11.8424   14.5032 H   0  0  0  0  0  0  0  0  0  0  0  0
   51.7179   12.2062   13.4754 H   0  0  0  0  0  0  0  0  0  0  0  0
   50.4642   12.2227   12.2232 H   0  0  0  0  0  0  0  0  0  0  0  0
   51.4972   10.7946   12.4267 H   0  0  0  0  0  0  0  0  0  0  0  0
   44.5684    8.3275   12.6692 H   0  0  0  0  0  0  0  0  0  0  0  0
   48.0903    5.8840   13.2846 H   0  0  0  0  0  0  0  0  0  0  0  0
   48.2717   11.0663   11.9690 H   0  0  0  0  0  0  0  0  0  0  0  0
   47.0973    4.7041   12.2017 H   0  0  0  0  0  0  0  0  0  0  0  0
   45.1743    8.5707   12.2732 H   0  0  0  0  0  0  0  0  0  0  0  0
   41.8347    5.4657   11.2634 H   0  0  0  0  0  0  0  0  0  0  0  0
   42.5856    3.9549   11.2274 H   0  0  0  0  0  0  0  0  0  0  0  0
   44.9124    3.6360   11.8397 H   0  0  0  0  0  0  0  0  0  0  0  0
   43.0047    7.4885   11.9096 H   0  0  0  0  0  0  0  0  0  0  0  0
   49.2800    8.8865   13.7477 H   0  0  0  0  0  0  0  0  0  0  0  0
   49.4720    9.1450   11.9844 H   0  0  0  0  0  0  0  0  0  0  0  0
   47.9014   10.9489   13.9044 H   0  0  0  0  0  0  0  0  0  0  0  0
   47.9781   11.1669   12.1731 H   0  0  0  0  0  0  0  0  0  0  0  0
   50.4539   11.5070   12.2883 H   0  0  0  0  0  0  0  0  0  0  0  0
   49.5403   12.6936   13.2159 H   0  0  0  0  0  0  0  0  0  0  0  0
   51.4755   11.9919   14.5158 H   0  0  0  0  0  0  0  0  0  0  0  0
   50.0181   11.3868   15.3228 H   0  0  0  0  0  0  0  0  0  0  0  0
   51.0403   10.2863   14.3721 H   0  0  0  0  0  0  0  0  0  0  0  0
  2  1  1  0
  3  1  2  0
  4  2  2  0
  5  2  1  0
  6 10  1  0
  7  1  1  0
  8  6  1  0
  9  4  1  0
 10  5  2  0
 11  7  1  0
 12 11  1  0
 13 12  1  0
 14 13  1  0
  9  6  2  0
 16 17  1  0
 17 15  2  0
 18 15  1  0
 19 16  1  0
 20 21  1  0
 21 23  2  0
 22 21  1  0
 23 15  1  0
 24 18  1  0
 25 19  1  0
 26 20  1  0
 27 18  2  0
 28 19  2  0
 29 20  2  0
 30 17  1  0
 22 16  2  0
 32 31  1  0
 33 31  2  0
 34 32  2  0
 35 32  1  0
 36 40  1  0
 37 31  1  0
 38 36  1  0
 39 34  1  0
 40 35  2  0
 41 37  1  0
 42 41  1  0
 43 42  1  0
 44 43  1  0
 39 36  2  0
  4 45  1  0
  5 46  1  0
  8 47  1  0
  8 48  1  0
  9 49  1  0
 10 50  1  0
 11 51  1  0
 11 52  1  0
 12 53  1  0
 12 54  1  0
 13 55  1  0
 13 56  1  0
 14 57  1  0
 14 58  1  0
 14 59  1  0
 22 60  1  0
 23 61  1  0
 30 62  1  0
 34 63  1  0
 35 64  1  0
 38 65  1  0
 38 66  1  0
 39 67  1  0
 40 68  1  0
 41 69  1  0
 41 70  1  0
 42 71  1  0
 42 72  1  0
 43 73  1  0
 43 74  1  0
 44 75  1  0
 44 76  1  0
 44 77  1  0
M  CHG  6  18   1  19   1  20   1  24  -1  25  -1  26  -1
M  END
> <Uni-Dock RESULT> 
ENERGY=   -6.476  LOWER_BOUND=    1.499  UPPER_BOUND=    3.280
INTER + INTRA:          -6.476
INTER:                  -6.476
INTRA:                   0.000
UNBOUND:                 0.000

$$$$

     RDKit          3D

 77 77  0  0  0  0  0  0  0  0999 V2000
   47.5650    7.8363   18.9628 C   0  0  0  0  0  0  0  0  0  0  0  0
   47.8707    8.8507   20.0082 C   0  0  0  0  0  0  0  0  0  0  0  0
   47.6831    8.0466   17.7663 O   0  0  0  0  0  0  0  0  0  0  0  0
   47.7394    8.5864   21.3766 C   0  0  0  0  0  0  0  0  0  0  0  0
   48.3254   10.1097   19.5982 C   0  0  0  0  0  0  0  0  0  0  0  0
   48.4426   10.8534   21.9084 C   0  0  0  0  0  0  0  0  0  0  0  0
   47.1499    6.6767   19.5309 O   0  0  0  0  0  0  0  0  0  0  0  0
   48.8604   11.7958   22.8538 N   0  0  0  0  0  0  0  0  0  0  0  0
   48.0442    9.5777   22.3160 C   0  0  0  0  0  0  0  0  0  0  0  0
   48.6291   11.0935   20.5450 C   0  0  0  0  0  0  0  0  0  0  0  0
   46.8312    5.6128   18.6199 C   0  0  0  0  0  0  0  0  0  0  0  0
   48.0878    4.8082   18.3027 C   0  0  0  0  0  0  0  0  0  0  0  0
   47.7834    3.6257   17.3874 C   0  0  0  0  0  0  0  0  0  0  0  0
   49.0395    2.8306   17.0688 C   0  0  0  0  0  0  0  0  0  0  0  0
   48.5343    7.0936   18.2444 C   0  0  0  0  0  0  0  0  0  0  0  0
   48.0597    6.4208   20.5024 C   0  0  0  0  0  0  0  0  0  0  0  0
   48.5624    6.0992   19.2305 C   0  0  0  0  0  0  0  0  0  0  0  0
   49.0292    6.8050   16.9140 N   0  0  0  0  0  0  0  0  0  0  0  0
   48.0598    5.4304   21.5867 N   0  0  0  0  0  0  0  0  0  0  0  0
   47.0195   10.0228   20.0358 N   0  0  0  0  0  0  0  0  0  0  0  0
   47.5473    8.6785   19.7571 C   0  0  0  0  0  0  0  0  0  0  0  0
   47.5498    7.7070   20.7709 C   0  0  0  0  0  0  0  0  0  0  0  0
   48.0396    8.3816   18.4835 C   0  0  0  0  0  0  0  0  0  0  0  0
   48.3221    6.0886   16.1949 O   0  0  0  0  0  0  0  0  0  0  0  0
   48.4250    4.2799   21.3041 O   0  0  0  0  0  0  0  0  0  0  0  0
   46.6095   10.2487   21.1808 O   0  0  0  0  0  0  0  0  0  0  0  0
   50.0871    7.3572   16.5867 O   0  0  0  0  0  0  0  0  0  0  0  0
   47.7005    5.8012   22.7100 O   0  0  0  0  0  0  0  0  0  0  0  0
   47.0175   10.8390   19.1062 O   0  0  0  0  0  0  0  0  0  0  0  0
   49.0966    4.8845   18.9024 O   0  0  0  0  0  0  0  0  0  0  0  0
   48.5461    7.9579   18.8210 C   0  0  0  0  0  0  0  0  0  0  0  0
   48.3049    8.9572   19.8976 C   0  0  0  0  0  0  0  0  0  0  0  0
   48.9239    8.2537   17.6979 O   0  0  0  0  0  0  0  0  0  0  0  0
   48.4732   10.3131   19.5914 C   0  0  0  0  0  0  0  0  0  0  0  0
   47.9025    8.5947   21.1882 C   0  0  0  0  0  0  0  0  0  0  0  0
   47.9130   10.9292   21.8747 C   0  0  0  0  0  0  0  0  0  0  0  0
   48.2882    6.7023   19.2656 O   0  0  0  0  0  0  0  0  0  0  0  0
   47.5833   11.9120   22.8131 N   0  0  0  0  0  0  0  0  0  0  0  0
   48.2565   11.2897   20.5696 C   0  0  0  0  0  0  0  0  0  0  0  0
   47.6893    9.5796   22.1603 C   0  0  0  0  0  0  0  0  0  0  0  0
   48.4967    5.6783   18.2821 C   0  0  0  0  0  0  0  0  0  0  0  0
   48.1319    4.3376   18.9123 C   0  0  0  0  0  0  0  0  0  0  0  0
   48.4144    3.1388   18.0086 C   0  0  0  0  0  0  0  0  0  0  0  0
   47.5792    3.1280   16.7369 C   0  0  0  0  0  0  0  0  0  0  0  0
   47.4134    7.6120   21.7312 H   0  0  0  0  0  0  0  0  0  0  0  0
   48.4587   10.3279   18.5411 H   0  0  0  0  0  0  0  0  0  0  0  0
   48.4211   11.6907   23.7630 H   0  0  0  0  0  0  0  0  0  0  0  0
   48.8240   12.7547   22.5202 H   0  0  0  0  0  0  0  0  0  0  0  0
   47.9660    9.3427   23.3749 H   0  0  0  0  0  0  0  0  0  0  0  0
   49.0118   12.0518   20.2047 H   0  0  0  0  0  0  0  0  0  0  0  0
   46.0942    4.9768   19.1224 H   0  0  0  0  0  0  0  0  0  0  0  0
   46.3524    5.9984   17.7117 H   0  0  0  0  0  0  0  0  0  0  0  0
   48.5375    4.4560   19.2392 H   0  0  0  0  0  0  0  0  0  0  0  0
   48.8376    5.4601   17.8385 H   0  0  0  0  0  0  0  0  0  0  0  0
   47.3361    3.9828   16.4523 H   0  0  0  0  0  0  0  0  0  0  0  0
   47.0511    2.9644   17.8653 H   0  0  0  0  0  0  0  0  0  0  0  0
   48.7971    1.9850   16.4178 H   0  0  0  0  0  0  0  0  0  0  0  0
   49.4961    2.4364   17.9824 H   0  0  0  0  0  0  0  0  0  0  0  0
   49.7791    3.4538   16.5567 H   0  0  0  0  0  0  0  0  0  0  0  0
   47.1618    7.9506   21.7609 H   0  0  0  0  0  0  0  0  0  0  0  0
   48.0441    9.1256   17.6872 H   0  0  0  0  0  0  0  0  0  0  0  0
   48.9989    4.2348   19.6338 H   0  0  0  0  0  0  0  0  0  0  0  0
   48.7587   10.6190   18.5872 H   0  0  0  0  0  0  0  0  0  0  0  0
   47.7366    7.5534   21.4527 H   0  0  0  0  0  0  0  0  0  0  0  0
   47.6430   11.6029   23.7778 H   0  0  0  0  0  0  0  0  0  0  0  0
   48.0497   12.8014   22.6615 H   0  0  0  0  0  0  0  0  0  0  0  0
   48.3587   12.3378   20.2993 H   0  0  0  0  0  0  0  0  0  0  0  0
   47.3446    9.2809   23.1476 H   0  0  0  0  0  0  0  0  0  0  0  0
   47.8600    5.8796   17.4136 H   0  0  0  0  0  0  0  0  0  0  0  0
   49.5496    5.6784   17.9769 H   0  0  0  0  0  0  0  0  0  0  0  0
   47.0750    4.3481   19.2071 H   0  0  0  0  0  0  0  0  0  0  0  0
   48.6951    4.2195   19.8470 H   0  0  0  0  0  0  0  0  0  0  0  0
   49.4778    3.1140   17.7437 H   0  0  0  0  0  0  0  0  0  0  0  0
   48.2050    2.2213   18.5720 H   0  0  0  0  0  0  0  0  0  0  0  0
   47.7565    2.2027   16.1792 H   0  0  0  0  0  0  0  0  0  0  0  0
   46.5103    3.1857   16.9679 H   0  0  0  0  0  0  0  0  0  0  0  0
   47.8390    3.9641   16.0800 H   0  0  0  0  0  0  0  0  0  0  0  0
  2  1  1  0
  3  1  2  0
  4  2  2  0
  5  2  1  0
  6 10  1  0
  7  1  1  0
  8  6  1  0
  9  4  1  0
 10  5  2  0
 11  7  1  0
 12 11  1  0
 13 12  1  0
 14 13  1  0
  9  6  2  0
 16 17  1  0
 17 15  2  0
 18 15  1  0
 19 16  1  0
 20 21  1  0
 21 23  2  0
 22 21  1  0
 23 15  1  0
 24 18  1  0
 25 19  1  0
 26 20  1  0
 27 18  2  0
 28 19  2  0
 29 20  2  0
 30 17  1  0
 22 16  2  0
 32 31  1  0
 33 31  2  0
 34 32  2  0
 35 32  1  0
 36 40  1  0
 37 31  1  0
 38 36  1  0
 39 34  1  0
 40 35  2  0
 41 37  1  0
 42 41  1  0
 43 42  1  0
 44 43  1  0
 39 36  2  0
  4 45  1  0
  5 46  1  0
  8 47  1  0
  8 48  1  0
  9 49  1  0
 10 50  1  0
 11 51  1  0
 11 52  1  0
 12 53  1  0
 12 54  1  0
 13 55  1  0
 13 56  1  0
 14 57  1  0
 14 58  1  0
 14 59  1  0
 22 60  1  0
 23 61  1  0
 30 62  1  0
 34 63  1  0
 35 64  1  0
 38 65  1  0
 38 66  1  0
 39 67  1  0
 40 68  1  0
 41 69  1  0
 41 70  1  0
 42 71  1  0
 42 72  1  0
 43 73  1  0
 43 74  1  0
 44 75  1  0
 44 76  1  0
 44 77  1  0
M  CHG  6  18   1  19   1  20   1  24  -1  25  -1  26  -1
M  END
> <Uni-Dock RESULT> 
ENERGY=   -6.473  LOWER_BOUND=    6.205  UPPER_BOUND=    9.252
INTER + INTRA:          -6.473
INTER:                  -6.473
INTRA:                   0.000
UNBOUND:                 0.000

$$$$

     RDKit          3D

 77 77  0  0  0  0  0  0  0  0999 V2000
   47.4398    8.3190   20.5558 C   0  0  0  0  0  0  0  0  0  0  0  0
   47.8933    7.0309   19.9640 C   0  0  0  0  0  0  0  0  0  0  0  0
   47.4897    8.5652   21.7503 O   0  0  0  0  0  0  0  0  0  0  0  0
   47.8382    6.7717   18.5894 C   0  0  0  0  0  0  0  0  0  0  0  0
   48.4119    6.0530   20.8211 C   0  0  0  0  0  0  0  0  0  0  0  0
   48.7457    4.5434   18.9467 C   0  0  0  0  0  0  0  0  0  0  0  0
   46.9791    9.1516   19.5892 O   0  0  0  0  0  0  0  0  0  0  0  0
   49.2983    3.3687   18.4259 N   0  0  0  0  0  0  0  0  0  0  0  0
   48.2816    5.5430   18.0878 C   0  0  0  0  0  0  0  0  0  0  0  0
   48.8542    4.8285   20.3099 C   0  0  0  0  0  0  0  0  0  0  0  0
   46.5184   10.4361   20.0374 C   0  0  0  0  0  0  0  0  0  0  0  0
   47.6856   11.4171   20.0868 C   0  0  0  0  0  0  0  0  0  0  0  0
   47.2298   12.8147   20.4964 C   0  0  0  0  0  0  0  0  0  0  0  0
   48.3971   13.7873   20.5505 C   0  0  0  0  0  0  0  0  0  0  0  0
   48.2979    9.3593   20.9903 C   0  0  0  0  0  0  0  0  0  0  0  0
   47.9326    9.1269   18.6262 C   0  0  0  0  0  0  0  0  0  0  0  0
   48.3196    9.9306   19.7116 C   0  0  0  0  0  0  0  0  0  0  0  0
   48.6757   10.1527   22.1418 N   0  0  0  0  0  0  0  0  0  0  0  0
   47.9336    9.6565   17.2565 N   0  0  0  0  0  0  0  0  0  0  0  0
   47.1369    5.8516   20.3332 N   0  0  0  0  0  0  0  0  0  0  0  0
   47.5412    7.2501   20.1227 C   0  0  0  0  0  0  0  0  0  0  0  0
   47.5410    7.7877   18.8256 C   0  0  0  0  0  0  0  0  0  0  0  0
   47.9196    8.0306   21.2183 C   0  0  0  0  0  0  0  0  0  0  0  0
   47.8682   11.0087   22.5234 O   0  0  0  0  0  0  0  0  0  0  0  0
   48.1904   10.8609   17.1141 O   0  0  0  0  0  0  0  0  0  0  0  0
   46.8260    5.1911   19.3346 O   0  0  0  0  0  0  0  0  0  0  0  0
   49.7469    9.8589   22.6873 O   0  0  0  0  0  0  0  0  0  0  0  0
   47.6824    8.8741   16.3327 O   0  0  0  0  0  0  0  0  0  0  0  0
   47.1316    5.4279   21.4954 O   0  0  0  0  0  0  0  0  0  0  0  0
   48.7366   11.2272   19.5945 O   0  0  0  0  0  0  0  0  0  0  0  0
   48.4150    8.3509   20.7689 C   0  0  0  0  0  0  0  0  0  0  0  0
   48.3255    7.0132   20.1221 C   0  0  0  0  0  0  0  0  0  0  0  0
   48.7349    8.5162   21.9360 O   0  0  0  0  0  0  0  0  0  0  0  0
   48.5739    5.8808   20.9071 C   0  0  0  0  0  0  0  0  0  0  0  0
   47.9879    6.8474   18.7738 C   0  0  0  0  0  0  0  0  0  0  0  0
   48.2222    4.4346   18.9857 C   0  0  0  0  0  0  0  0  0  0  0  0
   48.0948    9.3319   19.8882 O   0  0  0  0  0  0  0  0  0  0  0  0
   48.0338    3.1535   18.4581 N   0  0  0  0  0  0  0  0  0  0  0  0
   48.5001    4.6019   20.3444 C   0  0  0  0  0  0  0  0  0  0  0  0
   47.9179    5.5633   18.2200 C   0  0  0  0  0  0  0  0  0  0  0  0
   48.1565   10.6559   20.4383 C   0  0  0  0  0  0  0  0  0  0  0  0
   47.7364   11.6391   19.3498 C   0  0  0  0  0  0  0  0  0  0  0  0
   47.8641   13.1037   19.7647 C   0  0  0  0  0  0  0  0  0  0  0  0
   46.9438   13.4910   20.9128 C   0  0  0  0  0  0  0  0  0  0  0  0
   47.4651    7.5177   17.8923 H   0  0  0  0  0  0  0  0  0  0  0  0
   48.4873    6.2432   21.8894 H   0  0  0  0  0  0  0  0  0  0  0  0
   48.9167    3.0975   17.5250 H   0  0  0  0  0  0  0  0  0  0  0  0
   49.3110    2.5951   19.0842 H   0  0  0  0  0  0  0  0  0  0  0  0
   48.2599    5.3731   17.0138 H   0  0  0  0  0  0  0  0  0  0  0  0
   49.2835    4.0978   20.9899 H   0  0  0  0  0  0  0  0  0  0  0  0
   45.7724   10.7754   19.3105 H   0  0  0  0  0  0  0  0  0  0  0  0
   46.0078   10.3589   21.0050 H   0  0  0  0  0  0  0  0  0  0  0  0
   48.1716   11.4504   19.1040 H   0  0  0  0  0  0  0  0  0  0  0  0
   48.4481   11.0505   20.7844 H   0  0  0  0  0  0  0  0  0  0  0  0
   46.7466   12.7766   21.4798 H   0  0  0  0  0  0  0  0  0  0  0  0
   46.4848   13.1868   19.7833 H   0  0  0  0  0  0  0  0  0  0  0  0
   48.0468   14.7831   20.8392 H   0  0  0  0  0  0  0  0  0  0  0  0
   48.8852   13.8685   19.5740 H   0  0  0  0  0  0  0  0  0  0  0  0
   49.1441   13.4636   21.2819 H   0  0  0  0  0  0  0  0  0  0  0  0
   47.2425    7.1686   17.9785 H   0  0  0  0  0  0  0  0  0  0  0  0
   47.9247    7.6266   22.2304 H   0  0  0  0  0  0  0  0  0  0  0  0
   48.6414   11.5580   18.6736 H   0  0  0  0  0  0  0  0  0  0  0  0
   48.8109    5.9850   21.9638 H   0  0  0  0  0  0  0  0  0  0  0  0
   47.7628    7.7030   18.1423 H   0  0  0  0  0  0  0  0  0  0  0  0
   48.1372    3.0993   17.4500 H   0  0  0  0  0  0  0  0  0  0  0  0
   48.5542    2.4270   18.9406 H   0  0  0  0  0  0  0  0  0  0  0  0
   48.6619    3.7359   20.9816 H   0  0  0  0  0  0  0  0  0  0  0  0
   47.6213    5.4528   17.1795 H   0  0  0  0  0  0  0  0  0  0  0  0
   47.4777   10.7204   21.2959 H   0  0  0  0  0  0  0  0  0  0  0  0
   49.1826   10.8661   20.7619 H   0  0  0  0  0  0  0  0  0  0  0  0
   46.7064   11.4223   19.0395 H   0  0  0  0  0  0  0  0  0  0  0  0
   48.3529   11.4665   18.4582 H   0  0  0  0  0  0  0  0  0  0  0  0
   48.9014   13.3235   20.0422 H   0  0  0  0  0  0  0  0  0  0  0  0
   47.6259   13.7329   18.8984 H   0  0  0  0  0  0  0  0  0  0  0  0
   47.0115   14.5673   21.1014 H   0  0  0  0  0  0  0  0  0  0  0  0
   45.9010   13.2522   20.6786 H   0  0  0  0  0  0  0  0  0  0  0  0
   47.2195   12.9759   21.8384 H   0  0  0  0  0  0  0  0  0  0  0  0
  2  1  1  0
  3  1  2  0
  4  2  2  0
  5  2  1  0
  6 10  1  0
  7  1  1  0
  8  6  1  0
  9  4  1  0
 10  5  2  0
 11  7  1  0
 12 11  1  0
 13 12  1  0
 14 13  1  0
  9  6  2  0
 16 17  1  0
 17 15  2  0
 18 15  1  0
 19 16  1  0
 20 21  1  0
 21 23  2  0
 22 21  1  0
 23 15  1  0
 24 18  1  0
 25 19  1  0
 26 20  1  0
 27 18  2  0
 28 19  2  0
 29 20  2  0
 30 17  1  0
 22 16  2  0
 32 31  1  0
 33 31  2  0
 34 32  2  0
 35 32  1  0
 36 40  1  0
 37 31  1  0
 38 36  1  0
 39 34  1  0
 40 35  2  0
 41 37  1  0
 42 41  1  0
 43 42  1  0
 44 43  1  0
 39 36  2  0
  4 45  1  0
  5 46  1  0
  8 47  1  0
  8 48  1  0
  9 49  1  0
 10 50  1  0
 11 51  1  0
 11 52  1  0
 12 53  1  0
 12 54  1  0
 13 55  1  0
 13 56  1  0
 14 57  1  0
 14 58  1  0
 14 59  1  0
 22 60  1  0
 23 61  1  0
 30 62  1  0
 34 63  1  0
 35 64  1  0
 38 65  1  0
 38 66  1  0
 39 67  1  0
 40 68  1  0
 41 69  1  0
 41 70  1  0
 42 71  1  0
 42 72  1  0
 43 73  1  0
 43 74  1  0
 44 75  1  0
 44 76  1  0
 44 77  1  0
M  CHG  6  18   1  19   1  20   1  24  -1  25  -1  26  -1
M  END
> <Uni-Dock RESULT> 
ENERGY=   -6.415  LOWER_BOUND=    6.293  UPPER_BOUND=    8.405
INTER + INTRA:          -6.415
INTER:                  -6.415
INTRA:                   0.000
UNBOUND:                 0.000

$$$$

     RDKit          3D

 77 77  0  0  0  0  0  0  0  0999 V2000
   47.5011    7.1356   12.3861 C   0  0  0  0  0  0  0  0  0  0  0  0
   46.1856    6.4404   12.4213 C   0  0  0  0  0  0  0  0  0  0  0  0
   47.7151    8.1376   11.7226 O   0  0  0  0  0  0  0  0  0  0  0  0
   45.9568    5.2983   13.1978 C   0  0  0  0  0  0  0  0  0  0  0  0
   45.1358    6.9678   11.6599 C   0  0  0  0  0  0  0  0  0  0  0  0
   43.6652    5.1773   12.3913 C   0  0  0  0  0  0  0  0  0  0  0  0
   48.3964    6.5022   13.1842 O   0  0  0  0  0  0  0  0  0  0  0  0
   42.3799    4.6339   12.4880 N   0  0  0  0  0  0  0  0  0  0  0  0
   44.6979    4.6873   13.1947 C   0  0  0  0  0  0  0  0  0  0  0  0
   43.8805    6.3508   11.6648 C   0  0  0  0  0  0  0  0  0  0  0  0
   49.7073    7.0866   13.2406 C   0  0  0  0  0  0  0  0  0  0  0  0
   49.7521    8.1553   14.3282 C   0  0  0  0  0  0  0  0  0  0  0  0
   51.1468    8.7589   14.4677 C   0  0  0  0  0  0  0  0  0  0  0  0
   51.1851    9.8278   15.5482 C   0  0  0  0  0  0  0  0  0  0  0  0
   47.8012    8.3401   13.0690 C   0  0  0  0  0  0  0  0  0  0  0  0
   47.7426    6.3112   14.3561 C   0  0  0  0  0  0  0  0  0  0  0  0
   48.1787    7.6400   14.2220 C   0  0  0  0  0  0  0  0  0  0  0  0
   48.2378    9.7082   12.8800 N   0  0  0  0  0  0  0  0  0  0  0  0
   48.0964    5.5163   15.5391 N   0  0  0  0  0  0  0  0  0  0  0  0
   45.7488    5.8268   11.1837 N   0  0  0  0  0  0  0  0  0  0  0  0
   46.5828    6.4497   12.2229 C   0  0  0  0  0  0  0  0  0  0  0  0
   46.9467    5.7106   13.3600 C   0  0  0  0  0  0  0  0  0  0  0  0
   47.0064    7.7720   12.0659 C   0  0  0  0  0  0  0  0  0  0  0  0
   49.4259    9.8826   12.5826 O   0  0  0  0  0  0  0  0  0  0  0  0
   48.8730    6.0310   16.3569 O   0  0  0  0  0  0  0  0  0  0  0  0
   45.3813    4.6604   11.3701 O   0  0  0  0  0  0  0  0  0  0  0  0
   47.3664   10.5827   12.9660 O   0  0  0  0  0  0  0  0  0  0  0  0
   47.5997    4.3895   15.6497 O   0  0  0  0  0  0  0  0  0  0  0  0
   45.4715    6.5090   10.1897 O   0  0  0  0  0  0  0  0  0  0  0  0
   48.9291    8.2981   15.1560 O   0  0  0  0  0  0  0  0  0  0  0  0
   46.9297    7.8423   12.8001 C   0  0  0  0  0  0  0  0  0  0  0  0
   45.9102    6.7878   12.5465 C   0  0  0  0  0  0  0  0  0  0  0  0
   46.9115    8.9409   12.2667 O   0  0  0  0  0  0  0  0  0  0  0  0
   44.9042    7.0519   11.6091 C   0  0  0  0  0  0  0  0  0  0  0  0
   45.9311    5.5462   13.1925 C   0  0  0  0  0  0  0  0  0  0  0  0
   43.9068    4.8742   12.0211 C   0  0  0  0  0  0  0  0  0  0  0  0
   47.8576    7.4083   13.6896 O   0  0  0  0  0  0  0  0  0  0  0  0
   42.9983    3.8750   11.6586 N   0  0  0  0  0  0  0  0  0  0  0  0
   43.9247    6.0911   11.3354 C   0  0  0  0  0  0  0  0  0  0  0  0
   44.9455    4.5919   12.9123 C   0  0  0  0  0  0  0  0  0  0  0  0
   48.8794    8.3711   13.9869 C   0  0  0  0  0  0  0  0  0  0  0  0
   49.8619    7.7304   14.9625 C   0  0  0  0  0  0  0  0  0  0  0  0
   50.9468    8.6861   15.4556 C   0  0  0  0  0  0  0  0  0  0  0  0
   51.8719    9.1750   14.3510 C   0  0  0  0  0  0  0  0  0  0  0  0
   46.7416    4.8767   13.8205 H   0  0  0  0  0  0  0  0  0  0  0  0
   45.2846    7.8689   11.0692 H   0  0  0  0  0  0  0  0  0  0  0  0
   42.3652    3.6547   12.7559 H   0  0  0  0  0  0  0  0  0  0  0  0
   41.7955    4.8173   11.6776 H   0  0  0  0  0  0  0  0  0  0  0  0
   44.5314    3.8196   13.8289 H   0  0  0  0  0  0  0  0  0  0  0  0
   43.0720    6.7969   11.0922 H   0  0  0  0  0  0  0  0  0  0  0  0
   50.4043    6.2763   13.4806 H   0  0  0  0  0  0  0  0  0  0  0  0
   50.0064    7.4847   12.2634 H   0  0  0  0  0  0  0  0  0  0  0  0
   49.4332    7.7151   15.2809 H   0  0  0  0  0  0  0  0  0  0  0  0
   49.0222    8.9424   14.1042 H   0  0  0  0  0  0  0  0  0  0  0  0
   51.4601    9.1992   13.5138 H   0  0  0  0  0  0  0  0  0  0  0  0
   51.8694    7.9722   14.7147 H   0  0  0  0  0  0  0  0  0  0  0  0
   52.1945   10.2414   15.6355 H   0  0  0  0  0  0  0  0  0  0  0  0
   50.9027    9.4123   16.5208 H   0  0  0  0  0  0  0  0  0  0  0  0
   50.4999   10.6481   15.3132 H   0  0  0  0  0  0  0  0  0  0  0  0
   46.6106    4.6788   13.4705 H   0  0  0  0  0  0  0  0  0  0  0  0
   46.7315    8.3576   11.1889 H   0  0  0  0  0  0  0  0  0  0  0  0
   49.2067    7.7008   15.8859 H   0  0  0  0  0  0  0  0  0  0  0  0
   44.8849    7.9995   11.0751 H   0  0  0  0  0  0  0  0  0  0  0  0
   46.7127    5.2978   13.9059 H   0  0  0  0  0  0  0  0  0  0  0  0
   42.8475    3.1705   12.3733 H   0  0  0  0  0  0  0  0  0  0  0  0
   42.1277    4.2280   11.2727 H   0  0  0  0  0  0  0  0  0  0  0  0
   43.1745    6.3046   10.5780 H   0  0  0  0  0  0  0  0  0  0  0  0
   44.9976    3.6208   13.3993 H   0  0  0  0  0  0  0  0  0  0  0  0
   49.3890    8.6519   13.0586 H   0  0  0  0  0  0  0  0  0  0  0  0
   48.4207    9.2577   14.4400 H   0  0  0  0  0  0  0  0  0  0  0  0
   50.3185    6.8488   14.4950 H   0  0  0  0  0  0  0  0  0  0  0  0
   49.3049    7.3473   15.8273 H   0  0  0  0  0  0  0  0  0  0  0  0
   50.4867    9.5489   15.9509 H   0  0  0  0  0  0  0  0  0  0  0  0
   51.5492    8.1683   16.2121 H   0  0  0  0  0  0  0  0  0  0  0  0
   52.6802    9.7776   14.7776 H   0  0  0  0  0  0  0  0  0  0  0  0
   52.3224    8.3335   13.8142 H   0  0  0  0  0  0  0  0  0  0  0  0
   51.3381    9.8022   13.6299 H   0  0  0  0  0  0  0  0  0  0  0  0
  2  1  1  0
  3  1  2  0
  4  2  2  0
  5  2  1  0
  6 10  1  0
  7  1  1  0
  8  6  1  0
  9  4  1  0
 10  5  2  0
 11  7  1  0
 12 11  1  0
 13 12  1  0
 14 13  1  0
  9  6  2  0
 16 17  1  0
 17 15  2  0
 18 15  1  0
 19 16  1  0
 20 21  1  0
 21 23  2  0
 22 21  1  0
 23 15  1  0
 24 18  1  0
 25 19  1  0
 26 20  1  0
 27 18  2  0
 28 19  2  0
 29 20  2  0
 30 17  1  0
 22 16  2  0
 32 31  1  0
 33 31  2  0
 34 32  2  0
 35 32  1  0
 36 40  1  0
 37 31  1  0
 38 36  1  0
 39 34  1  0
 40 35  2  0
 41 37  1  0
 42 41  1  0
 43 42  1  0
 44 43  1  0
 39 36  2  0
  4 45  1  0
  5 46  1  0
  8 47  1  0
  8 48  1  0
  9 49  1  0
 10 50  1  0
 11 51  1  0
 11 52  1  0
 12 53  1  0
 12 54  1  0
 13 55  1  0
 13 56  1  0
 14 57  1  0
 14 58  1  0
 14 59  1  0
 22 60  1  0
 23 61  1  0
 30 62  1  0
 34 63  1  0
 35 64  1  0
 38 65  1  0
 38 66  1  0
 39 67  1  0
 40 68  1  0
 41 69  1  0
 41 70  1  0
 42 71  1  0
 42 72  1  0
 43 73  1  0
 43 74  1  0
 44 75  1  0
 44 76  1  0
 44 77  1  0
M  CHG  6  18   1  19   1  20   1  24  -1  25  -1  26  -1
M  END
> <Uni-Dock RESULT> 
ENERGY=   -6.307  LOWER_BOUND=    1.658  UPPER_BOUND=    2.077
INTER + INTRA:          -6.307
INTER:                  -6.307
INTRA:                   0.000
UNBOUND:                 0.000

$$$$

     RDKit          3D

 77 77  0  0  0  0  0  0  0  0999 V2000
   49.1889    8.5229   17.4347 C   0  0  0  0  0  0  0  0  0  0  0  0
   48.6164    7.1577   17.5884 C   0  0  0  0  0  0  0  0  0  0  0  0
   49.7514    8.9066   16.4216 O   0  0  0  0  0  0  0  0  0  0  0  0
   47.9648    6.7402   18.7549 C   0  0  0  0  0  0  0  0  0  0  0  0
   48.7213    6.2693   16.5116 C   0  0  0  0  0  0  0  0  0  0  0  0
   47.5966    4.5371   17.7917 C   0  0  0  0  0  0  0  0  0  0  0  0
   48.9913    9.2522   18.5612 O   0  0  0  0  0  0  0  0  0  0  0  0
   46.9669    3.2892   17.8418 N   0  0  0  0  0  0  0  0  0  0  0  0
   47.4427    5.4449   18.8426 C   0  0  0  0  0  0  0  0  0  0  0  0
   48.1946    4.9771   16.6084 C   0  0  0  0  0  0  0  0  0  0  0  0
   49.4947   10.5971   18.5321 C   0  0  0  0  0  0  0  0  0  0  0  0
   48.4411   11.5324   17.9471 C   0  0  0  0  0  0  0  0  0  0  0  0
   48.9094   12.9848   17.9569 C   0  0  0  0  0  0  0  0  0  0  0  0
   47.8590   13.9123   17.3672 C   0  0  0  0  0  0  0  0  0  0  0  0
   48.5935    9.5743   16.6948 C   0  0  0  0  0  0  0  0  0  0  0  0
   47.6813    9.0779   18.8623 C   0  0  0  0  0  0  0  0  0  0  0  0
   47.8487    9.9891   17.8062 C   0  0  0  0  0  0  0  0  0  0  0  0
   48.8044   10.4834   15.5871 N   0  0  0  0  0  0  0  0  0  0  0  0
   46.9101    9.4414   20.0580 N   0  0  0  0  0  0  0  0  0  0  0  0
   49.5616    6.0597   17.5860 N   0  0  0  0  0  0  0  0  0  0  0  0
   48.9768    7.4073   17.6599 C   0  0  0  0  0  0  0  0  0  0  0  0
   48.2440    7.7874   18.7957 C   0  0  0  0  0  0  0  0  0  0  0  0
   49.1590    8.2970   16.5979 C   0  0  0  0  0  0  0  0  0  0  0  0
   49.6066   11.4083   15.7645 O   0  0  0  0  0  0  0  0  0  0  0  0
   46.5041   10.6100   20.1376 O   0  0  0  0  0  0  0  0  0  0  0  0
   49.3620    5.2980   18.5399 O   0  0  0  0  0  0  0  0  0  0  0  0
   48.2135   10.2160   14.5332 O   0  0  0  0  0  0  0  0  0  0  0  0
   46.7109    8.5654   20.9073 O   0  0  0  0  0  0  0  0  0  0  0  0
   50.2173    5.7769   16.5758 O   0  0  0  0  0  0  0  0  0  0  0  0
   47.3119   11.2462   17.7865 O   0  0  0  0  0  0  0  0  0  0  0  0
   48.4736    8.5430   16.7381 C   0  0  0  0  0  0  0  0  0  0  0  0
   48.3358    7.1426   17.2234 C   0  0  0  0  0  0  0  0  0  0  0  0
   48.8012    8.8330   15.5977 O   0  0  0  0  0  0  0  0  0  0  0  0
   48.6459    6.1024   16.3391 C   0  0  0  0  0  0  0  0  0  0  0  0
   47.9281    6.8314   18.5258 C   0  0  0  0  0  0  0  0  0  0  0  0
   48.0699    4.4535   18.0291 C   0  0  0  0  0  0  0  0  0  0  0  0
   48.1883    9.4244   17.7292 O   0  0  0  0  0  0  0  0  0  0  0  0
   48.0731    3.1270   18.4713 N   0  0  0  0  0  0  0  0  0  0  0  0
   48.5335    4.7697   16.7499 C   0  0  0  0  0  0  0  0  0  0  0  0
   47.8177    5.4944   18.9267 C   0  0  0  0  0  0  0  0  0  0  0  0
   48.2999   10.8009   17.3391 C   0  0  0  0  0  0  0  0  0  0  0  0
   47.9896   11.6636   18.5586 C   0  0  0  0  0  0  0  0  0  0  0  0
   47.9612   13.1612   18.2584 C   0  0  0  0  0  0  0  0  0  0  0  0
   49.3061   13.7159   17.8128 C   0  0  0  0  0  0  0  0  0  0  0  0
   47.8430    7.4120   19.6007 H   0  0  0  0  0  0  0  0  0  0  0  0
   49.2012    6.5814   15.5868 H   0  0  0  0  0  0  0  0  0  0  0  0
   46.8415    2.9279   18.7823 H   0  0  0  0  0  0  0  0  0  0  0  0
   47.3755    2.5988   17.2184 H   0  0  0  0  0  0  0  0  0  0  0  0
   46.9124    5.1502   19.7453 H   0  0  0  0  0  0  0  0  0  0  0  0
   48.2585    4.3163   15.7483 H   0  0  0  0  0  0  0  0  0  0  0  0
   49.7111   10.8760   19.5691 H   0  0  0  0  0  0  0  0  0  0  0  0
   50.4424   10.6541   17.9829 H   0  0  0  0  0  0  0  0  0  0  0  0
   47.5104   11.4310   18.5186 H   0  0  0  0  0  0  0  0  0  0  0  0
   48.1981   11.2224   16.9237 H   0  0  0  0  0  0  0  0  0  0  0  0
   49.8386   13.0814   17.3830 H   0  0  0  0  0  0  0  0  0  0  0  0
   49.1290   13.2977   18.9845 H   0  0  0  0  0  0  0  0  0  0  0  0
   48.2126   14.9477   17.3905 H   0  0  0  0  0  0  0  0  0  0  0  0
   46.9253   13.8591   17.9363 H   0  0  0  0  0  0  0  0  0  0  0  0
   47.6427   13.6494   16.3271 H   0  0  0  0  0  0  0  0  0  0  0  0
   48.1096    7.0842   19.6187 H   0  0  0  0  0  0  0  0  0  0  0  0
   49.7250    8.0155   15.7102 H   0  0  0  0  0  0  0  0  0  0  0  0
   46.8768   11.4691   18.6394 H   0  0  0  0  0  0  0  0  0  0  0  0
   48.9912    6.3218   15.3310 H   0  0  0  0  0  0  0  0  0  0  0  0
   47.7053    7.6142   19.2463 H   0  0  0  0  0  0  0  0  0  0  0  0
   47.4608    2.9502   19.2610 H   0  0  0  0  0  0  0  0  0  0  0  0
   47.9556    2.4435   17.7293 H   0  0  0  0  0  0  0  0  0  0  0  0
   48.8138    3.9796   16.0575 H   0  0  0  0  0  0  0  0  0  0  0  0
   47.5317    5.2729   19.9524 H   0  0  0  0  0  0  0  0  0  0  0  0
   49.3186   10.9918   16.9836 H   0  0  0  0  0  0  0  0  0  0  0  0
   47.5828   11.0091   16.5365 H   0  0  0  0  0  0  0  0  0  0  0  0
   48.7177   11.4506   19.3515 H   0  0  0  0  0  0  0  0  0  0  0  0
   47.0161   11.3638   18.9673 H   0  0  0  0  0  0  0  0  0  0  0  0
   47.2093   13.3731   17.4895 H   0  0  0  0  0  0  0  0  0  0  0  0
   47.6475   13.6920   19.1656 H   0  0  0  0  0  0  0  0  0  0  0  0
   49.2460   14.8036   17.7041 H   0  0  0  0  0  0  0  0  0  0  0  0
   50.0871   13.4905   18.5466 H   0  0  0  0  0  0  0  0  0  0  0  0
   49.6085   13.3037   16.8449 H   0  0  0  0  0  0  0  0  0  0  0  0
  2  1  1  0
  3  1  2  0
  4  2  2  0
  5  2  1  0
  6 10  1  0
  7  1  1  0
  8  6  1  0
  9  4  1  0
 10  5  2  0
 11  7  1  0
 12 11  1  0
 13 12  1  0
 14 13  1  0
  9  6  2  0
 16 17  1  0
 17 15  2  0
 18 15  1  0
 19 16  1  0
 20 21  1  0
 21 23  2  0
 22 21  1  0
 23 15  1  0
 24 18  1  0
 25 19  1  0
 26 20  1  0
 27 18  2  0
 28 19  2  0
 29 20  2  0
 30 17  1  0
 22 16  2  0
 32 31  1  0
 33 31  2  0
 34 32  2  0
 35 32  1  0
 36 40  1  0
 37 31  1  0
 38 36  1  0
 39 34  1  0
 40 35  2  0
 41 37  1  0
 42 41  1  0
 43 42  1  0
 44 43  1  0
 39 36  2  0
  4 45  1  0
  5 46  1  0
  8 47  1  0
  8 48  1  0
  9 49  1  0
 10 50  1  0
 11 51  1  0
 11 52  1  0
 12 53  1  0
 12 54  1  0
 13 55  1  0
 13 56  1  0
 14 57  1  0
 14 58  1  0
 14 59  1  0
 22 60  1  0
 23 61  1  0
 30 62  1  0
 34 63  1  0
 35 64  1  0
 38 65  1  0
 38 66  1  0
 39 67  1  0
 40 68  1  0
 41 69  1  0
 41 70  1  0
 42 71  1  0
 42 72  1  0
 43 73  1  0
 43 74  1  0
 44 75  1  0
 44 76  1  0
 44 77  1  0
M  CHG  6  18   1  19   1  20   1  24  -1  25  -1  26  -1
M  END
> <Uni-Dock RESULT> 
ENERGY=   -5.787  LOWER_BOUND=    5.121  UPPER_BOUND=    6.400
INTER + INTRA:          -5.787
INTER:                  -5.787
INTRA:                   0.000
UNBOUND:                 0.000

$$$$

     RDKit          3D

 77 77  0  0  0  0  0  0  0  0999 V2000
   48.7214    8.9418   19.0551 C   0  0  0  0  0  0  0  0  0  0  0  0
   48.6359    8.4018   17.6708 C   0  0  0  0  0  0  0  0  0  0  0  0
   48.4419   10.0938   19.3464 O   0  0  0  0  0  0  0  0  0  0  0  0
   48.9502    7.0738   17.3587 C   0  0  0  0  0  0  0  0  0  0  0  0
   48.2044    9.2575   16.6503 C   0  0  0  0  0  0  0  0  0  0  0  0
   48.4742    7.4860   15.0093 C   0  0  0  0  0  0  0  0  0  0  0  0
   49.1431    7.9822   19.9159 O   0  0  0  0  0  0  0  0  0  0  0  0
   48.2588    6.9931   13.7181 N   0  0  0  0  0  0  0  0  0  0  0  0
   48.8487    6.6193   16.0393 C   0  0  0  0  0  0  0  0  0  0  0  0
   48.1045    8.7932   15.3346 C   0  0  0  0  0  0  0  0  0  0  0  0
   49.2581    8.3818   21.2908 C   0  0  0  0  0  0  0  0  0  0  0  0
   47.9213    8.1896   22.0000 C   0  0  0  0  0  0  0  0  0  0  0  0
   48.0143    8.5410   23.4821 C   0  0  0  0  0  0  0  0  0  0  0  0
   46.6784    8.3542   24.1834 C   0  0  0  0  0  0  0  0  0  0  0  0
   47.6131    9.1673   19.9084 C   0  0  0  0  0  0  0  0  0  0  0  0
   48.3719    6.9029   19.6376 C   0  0  0  0  0  0  0  0  0  0  0  0
   47.6689    7.8549   20.3948 C   0  0  0  0  0  0  0  0  0  0  0  0
   46.9112   10.1866   20.6609 N   0  0  0  0  0  0  0  0  0  0  0  0
   48.4700    5.5070   20.0830 N   0  0  0  0  0  0  0  0  0  0  0  0
   49.5525    8.9672   16.7018 N   0  0  0  0  0  0  0  0  0  0  0  0
   48.9075    8.5887   17.9684 C   0  0  0  0  0  0  0  0  0  0  0  0
   48.9942    7.2639   18.4256 C   0  0  0  0  0  0  0  0  0  0  0  0
   48.2161    9.5538   18.7052 C   0  0  0  0  0  0  0  0  0  0  0  0
   47.4593   10.6034   21.6887 O   0  0  0  0  0  0  0  0  0  0  0  0
   47.9969    5.2319   21.1954 O   0  0  0  0  0  0  0  0  0  0  0  0
   50.1395    8.0786   16.0726 O   0  0  0  0  0  0  0  0  0  0  0  0
   45.8527   10.6025   20.1730 O   0  0  0  0  0  0  0  0  0  0  0  0
   49.0128    4.6941   19.3259 O   0  0  0  0  0  0  0  0  0  0  0  0
   49.4683   10.1501   16.3499 O   0  0  0  0  0  0  0  0  0  0  0  0
   47.0183    7.5752   21.5640 O   0  0  0  0  0  0  0  0  0  0  0  0
   47.7396    9.0159   18.8882 C   0  0  0  0  0  0  0  0  0  0  0  0
   48.1975    8.5000   17.5692 C   0  0  0  0  0  0  0  0  0  0  0  0
   47.2197   10.1104   19.0413 O   0  0  0  0  0  0  0  0  0  0  0  0
   48.0700    9.3343   16.4520 C   0  0  0  0  0  0  0  0  0  0  0  0
   48.7621    7.2291   17.4100 C   0  0  0  0  0  0  0  0  0  0  0  0
   48.9967    7.6052   15.0173 C   0  0  0  0  0  0  0  0  0  0  0  0
   47.9820    8.1095   19.8682 O   0  0  0  0  0  0  0  0  0  0  0  0
   49.5208    7.2160   13.7809 N   0  0  0  0  0  0  0  0  0  0  0  0
   48.4880    8.8945   15.1913 C   0  0  0  0  0  0  0  0  0  0  0  0
   49.1762    6.7980   16.1438 C   0  0  0  0  0  0  0  0  0  0  0  0
   47.5683    8.5347   21.1748 C   0  0  0  0  0  0  0  0  0  0  0  0
   47.9383    7.4368   22.1675 C   0  0  0  0  0  0  0  0  0  0  0  0
   47.4526    7.7080   23.5902 C   0  0  0  0  0  0  0  0  0  0  0  0
   48.0896    8.9354   24.2247 C   0  0  0  0  0  0  0  0  0  0  0  0
   49.2641    6.3753   18.1302 H   0  0  0  0  0  0  0  0  0  0  0  0
   47.9309   10.2859   16.8749 H   0  0  0  0  0  0  0  0  0  0  0  0
   48.8196    6.1785   13.4887 H   0  0  0  0  0  0  0  0  0  0  0  0
   48.3049    7.7050   12.9948 H   0  0  0  0  0  0  0  0  0  0  0  0
   49.0670    5.5762   15.8226 H   0  0  0  0  0  0  0  0  0  0  0  0
   47.7358    9.4659   14.5652 H   0  0  0  0  0  0  0  0  0  0  0  0
   50.0203    7.7385   21.7440 H   0  0  0  0  0  0  0  0  0  0  0  0
   49.6212    9.4133   21.3750 H   0  0  0  0  0  0  0  0  0  0  0  0
   47.5933    7.1500   21.8774 H   0  0  0  0  0  0  0  0  0  0  0  0
   47.1532    8.8039   21.5152 H   0  0  0  0  0  0  0  0  0  0  0  0
   48.3405    9.5812   23.5994 H   0  0  0  0  0  0  0  0  0  0  0  0
   48.7667    7.9086   23.9678 H   0  0  0  0  0  0  0  0  0  0  0  0
   46.7698    8.6050   25.2447 H   0  0  0  0  0  0  0  0  0  0  0  0
   46.3376    7.3166   24.1074 H   0  0  0  0  0  0  0  0  0  0  0  0
   45.9114    9.0004   23.7454 H   0  0  0  0  0  0  0  0  0  0  0  0
   49.5377    6.5197   17.8419 H   0  0  0  0  0  0  0  0  0  0  0  0
   48.1405   10.5855   18.3625 H   0  0  0  0  0  0  0  0  0  0  0  0
   47.1821    6.6519   21.8594 H   0  0  0  0  0  0  0  0  0  0  0  0
   47.6595   10.3363   16.5576 H   0  0  0  0  0  0  0  0  0  0  0  0
   48.9005    6.5660   18.2601 H   0  0  0  0  0  0  0  0  0  0  0  0
   49.5845    6.2112   13.6536 H   0  0  0  0  0  0  0  0  0  0  0  0
   49.0929    7.6808   12.9856 H   0  0  0  0  0  0  0  0  0  0  0  0
   48.4121    9.5728   14.3450 H   0  0  0  0  0  0  0  0  0  0  0  0
   49.6431    5.8207   16.0457 H   0  0  0  0  0  0  0  0  0  0  0  0
   48.0817    9.4690   21.4276 H   0  0  0  0  0  0  0  0  0  0  0  0
   46.4840    8.6962   21.1767 H   0  0  0  0  0  0  0  0  0  0  0  0
   49.0258    7.2896   22.1607 H   0  0  0  0  0  0  0  0  0  0  0  0
   47.5124    6.4864   21.8208 H   0  0  0  0  0  0  0  0  0  0  0  0
   46.3624    7.8215   23.5966 H   0  0  0  0  0  0  0  0  0  0  0  0
   47.6855    6.8335   24.2101 H   0  0  0  0  0  0  0  0  0  0  0  0
   47.7755    9.0235   25.2697 H   0  0  0  0  0  0  0  0  0  0  0  0
   49.1823    8.8670   24.2031 H   0  0  0  0  0  0  0  0  0  0  0  0
   47.7882    9.8538   23.7110 H   0  0  0  0  0  0  0  0  0  0  0  0
  2  1  1  0
  3  1  2  0
  4  2  2  0
  5  2  1  0
  6 10  1  0
  7  1  1  0
  8  6  1  0
  9  4  1  0
 10  5  2  0
 11  7  1  0
 12 11  1  0
 13 12  1  0
 14 13  1  0
  9  6  2  0
 16 17  1  0
 17 15  2  0
 18 15  1  0
 19 16  1  0
 20 21  1  0
 21 23  2  0
 22 21  1  0
 23 15  1  0
 24 18  1  0
 25 19  1  0
 26 20  1  0
 27 18  2  0
 28 19  2  0
 29 20  2  0
 30 17  1  0
 22 16  2  0
 32 31  1  0
 33 31  2  0
 34 32  2  0
 35 32  1  0
 36 40  1  0
 37 31  1  0
 38 36  1  0
 39 34  1  0
 40 35  2  0
 41 37  1  0
 42 41  1  0
 43 42  1  0
 44 43  1  0
 39 36  2  0
  4 45  1  0
  5 46  1  0
  8 47  1  0
  8 48  1  0
  9 49  1  0
 10 50  1  0
 11 51  1  0
 11 52  1  0
 12 53  1  0
 12 54  1  0
 13 55  1  0
 13 56  1  0
 14 57  1  0
 14 58  1  0
 14 59  1  0
 22 60  1  0
 23 61  1  0
 30 62  1  0
 34 63  1  0
 35 64  1  0
 38 65  1  0
 38 66  1  0
 39 67  1  0
 40 68  1  0
 41 69  1  0
 41 70  1  0
 42 71  1  0
 42 72  1  0
 43 73  1  0
 43 74  1  0
 44 75  1  0
 44 76  1  0
 44 77  1  0
M  CHG  6  18   1  19   1  20   1  24  -1  25  -1  26  -1
M  END
> <Uni-Dock RESULT> 
ENERGY=   -5.653  LOWER_BOUND=    5.789  UPPER_BOUND=    7.906
INTER + INTRA:          -5.653
INTER:                  -5.653
INTRA:                   0.000
UNBOUND:                 0.000

$$$$

     RDKit          3D

 77 77  0  0  0  0  0  0  0  0999 V2000
   48.6599    7.9631   19.0851 C   0  0  0  0  0  0  0  0  0  0  0  0
   48.1604    9.3478   18.8655 C   0  0  0  0  0  0  0  0  0  0  0  0
   48.4591    7.3299   20.1092 O   0  0  0  0  0  0  0  0  0  0  0  0
   48.3918   10.0536   17.6788 C   0  0  0  0  0  0  0  0  0  0  0  0
   47.4139    9.9532   19.8834 C   0  0  0  0  0  0  0  0  0  0  0  0
   47.1997   11.9810   18.5622 C   0  0  0  0  0  0  0  0  0  0  0  0
   49.3497    7.5277   18.0015 O   0  0  0  0  0  0  0  0  0  0  0  0
   46.6047   13.2298   18.3547 N   0  0  0  0  0  0  0  0  0  0  0  0
   47.8952   11.3528   17.5259 C   0  0  0  0  0  0  0  0  0  0  0  0
   46.9204   11.2518   19.7204 C   0  0  0  0  0  0  0  0  0  0  0  0
   49.8775    6.1948   18.0899 C   0  0  0  0  0  0  0  0  0  0  0  0
   48.8321    5.1907   17.6145 C   0  0  0  0  0  0  0  0  0  0  0  0
   49.3734    3.7640   17.6300 C   0  0  0  0  0  0  0  0  0  0  0  0
   48.3262    2.7662   17.1616 C   0  0  0  0  0  0  0  0  0  0  0  0
   47.8670    6.7917   19.0042 C   0  0  0  0  0  0  0  0  0  0  0  0
   48.5546    7.8198   16.9434 C   0  0  0  0  0  0  0  0  0  0  0  0
   48.1007    6.6798   17.6276 C   0  0  0  0  0  0  0  0  0  0  0  0
   47.4112    5.6399   19.7549 N   0  0  0  0  0  0  0  0  0  0  0  0
   48.8176    7.7787   15.4992 N   0  0  0  0  0  0  0  0  0  0  0  0
   48.7174   10.3760   19.7207 N   0  0  0  0  0  0  0  0  0  0  0  0
   48.5068    9.1079   19.0058 C   0  0  0  0  0  0  0  0  0  0  0  0
   48.7609    9.0351   17.6267 C   0  0  0  0  0  0  0  0  0  0  0  0
   48.0572    7.9869   19.7085 C   0  0  0  0  0  0  0  0  0  0  0  0
   48.2422    4.7516   19.9802 O   0  0  0  0  0  0  0  0  0  0  0  0
   48.7201    6.6786   14.9359 O   0  0  0  0  0  0  0  0  0  0  0  0
   49.0994   11.3481   19.0579 O   0  0  0  0  0  0  0  0  0  0  0  0
   46.2444    5.6752   20.1657 O   0  0  0  0  0  0  0  0  0  0  0  0
   49.1161    8.8371   14.9343 O   0  0  0  0  0  0  0  0  0  0  0  0
   48.5015   10.3870   20.9387 O   0  0  0  0  0  0  0  0  0  0  0  0
   47.8522    5.4758   17.0299 O   0  0  0  0  0  0  0  0  0  0  0  0
   47.6734    7.8081   19.0997 C   0  0  0  0  0  0  0  0  0  0  0  0
   47.7100    9.2878   18.9412 C   0  0  0  0  0  0  0  0  0  0  0  0
   47.2025    7.2453   20.0760 O   0  0  0  0  0  0  0  0  0  0  0  0
   47.2229   10.0777   19.9897 C   0  0  0  0  0  0  0  0  0  0  0  0
   48.2255    9.9125   17.7997 C   0  0  0  0  0  0  0  0  0  0  0  0
   47.6961   12.0993   18.7265 C   0  0  0  0  0  0  0  0  0  0  0  0
   48.2287    7.1966   18.0234 O   0  0  0  0  0  0  0  0  0  0  0  0
   47.8184   13.4914   18.6785 N   0  0  0  0  0  0  0  0  0  0  0  0
   47.2380   11.4730   19.8879 C   0  0  0  0  0  0  0  0  0  0  0  0
   48.2350   11.3096   17.7072 C   0  0  0  0  0  0  0  0  0  0  0  0
   48.2324    5.7637   18.1011 C   0  0  0  0  0  0  0  0  0  0  0  0
   48.9172    5.2251   16.8486 C   0  0  0  0  0  0  0  0  0  0  0  0
   48.8919    3.7013   16.7438 C   0  0  0  0  0  0  0  0  0  0  0  0
   49.6669    3.0044   17.8522 C   0  0  0  0  0  0  0  0  0  0  0  0
   48.9455    9.6049   16.8581 H   0  0  0  0  0  0  0  0  0  0  0  0
   47.2008    9.4135   20.8033 H   0  0  0  0  0  0  0  0  0  0  0  0
   47.0846   13.8068   17.6709 H   0  0  0  0  0  0  0  0  0  0  0  0
   46.4078   13.7374   19.2124 H   0  0  0  0  0  0  0  0  0  0  0  0
   48.0587   11.8724   16.5846 H   0  0  0  0  0  0  0  0  0  0  0  0
   46.3157   11.6886   20.5104 H   0  0  0  0  0  0  0  0  0  0  0  0
   50.7570    6.1593   17.4378 H   0  0  0  0  0  0  0  0  0  0  0  0
   50.2255    5.9726   19.1060 H   0  0  0  0  0  0  0  0  0  0  0  0
   48.5055    5.4606   16.6027 H   0  0  0  0  0  0  0  0  0  0  0  0
   47.9377    5.2607   18.2451 H   0  0  0  0  0  0  0  0  0  0  0  0
   49.6965    3.4983   18.6435 H   0  0  0  0  0  0  0  0  0  0  0  0
   50.2534    3.6930   16.9801 H   0  0  0  0  0  0  0  0  0  0  0  0
   48.7374    1.7522   17.1743 H   0  0  0  0  0  0  0  0  0  0  0  0
   48.0020    2.9889   16.1399 H   0  0  0  0  0  0  0  0  0  0  0  0
   47.4468    2.7855   17.8128 H   0  0  0  0  0  0  0  0  0  0  0  0
   49.1126    9.9169   17.0895 H   0  0  0  0  0  0  0  0  0  0  0  0
   47.8557    8.0289   20.7786 H   0  0  0  0  0  0  0  0  0  0  0  0
   48.1204    5.4772   16.0841 H   0  0  0  0  0  0  0  0  0  0  0  0
   46.8432    9.6137   20.8975 H   0  0  0  0  0  0  0  0  0  0  0  0
   48.6361    9.3306   16.9785 H   0  0  0  0  0  0  0  0  0  0  0  0
   47.8619   13.8732   17.7393 H   0  0  0  0  0  0  0  0  0  0  0  0
   47.1542   13.9853   19.2672 H   0  0  0  0  0  0  0  0  0  0  0  0
   46.8875   12.0663   20.7290 H   0  0  0  0  0  0  0  0  0  0  0  0
   48.6700   11.7773   16.8270 H   0  0  0  0  0  0  0  0  0  0  0  0
   48.7779    5.4542   18.9994 H   0  0  0  0  0  0  0  0  0  0  0  0
   47.1991    5.4012   18.1524 H   0  0  0  0  0  0  0  0  0  0  0  0
   49.9516    5.5895   16.8125 H   0  0  0  0  0  0  0  0  0  0  0  0
   48.4260    5.6511   15.9643 H   0  0  0  0  0  0  0  0  0  0  0  0
   47.8555    3.3445   16.7470 H   0  0  0  0  0  0  0  0  0  0  0  0
   49.3255    3.4116   15.7788 H   0  0  0  0  0  0  0  0  0  0  0  0
   49.6913    1.9248   17.6716 H   0  0  0  0  0  0  0  0  0  0  0  0
   50.7000    3.3648   17.8963 H   0  0  0  0  0  0  0  0  0  0  0  0
   49.2002    3.1649   18.8293 H   0  0  0  0  0  0  0  0  0  0  0  0
  2  1  1  0
  3  1  2  0
  4  2  2  0
  5  2  1  0
  6 10  1  0
  7  1  1  0
  8  6  1  0
  9  4  1  0
 10  5  2  0
 11  7  1  0
 12 11  1  0
 13 12  1  0
 14 13  1  0
  9  6  2  0
 16 17  1  0
 17 15  2  0
 18 15  1  0
 19 16  1  0
 20 21  1  0
 21 23  2  0
 22 21  1  0
 23 15  1  0
 24 18  1  0
 25 19  1  0
 26 20  1  0
 27 18  2  0
 28 19  2  0
 29 20  2  0
 30 17  1  0
 22 16  2  0
 32 31  1  0
 33 31  2  0
 34 32  2  0
 35 32  1  0
 36 40  1  0
 37 31  1  0
 38 36  1  0
 39 34  1  0
 40 35  2  0
 41 37  1  0
 42 41  1  0
 43 42  1  0
 44 43  1  0
 39 36  2  0
  4 45  1  0
  5 46  1  0
  8 47  1  0
  8 48  1  0
  9 49  1  0
 10 50  1  0
 11 51  1  0
 11 52  1  0
 12 53  1  0
 12 54  1  0
 13 55  1  0
 13 56  1  0
 14 57  1  0
 14 58  1  0
 14 59  1  0
 22 60  1  0
 23 61  1  0
 30 62  1  0
 34 63  1  0
 35 64  1  0
 38 65  1  0
 38 66  1  0
 39 67  1  0
 40 68  1  0
 41 69  1  0
 41 70  1  0
 42 71  1  0
 42 72  1  0
 43 73  1  0
 43 74  1  0
 44 75  1  0
 44 76  1  0
 44 77  1  0
M  CHG  6  18   1  19   1  20   1  24  -1  25  -1  26  -1
M  END
> <Uni-Dock RESULT> 
ENERGY=   -5.554  LOWER_BOUND=    5.476  UPPER_BOUND=    8.623
INTER + INTRA:          -5.554
INTER:                  -5.554
INTRA:                   0.000
UNBOUND:                 0.000

$$$$
