
     RDKit          3D

 77 77  0  0  0  0  0  0  0  0999 V2000
   46.9435    7.2640   12.2317 C   0  0  0  0  0  0  0  0  0  0  0  0
   45.7364    6.4190   12.0220 C   0  0  0  0  0  0  0  0  0  0  0  0
   47.7729    7.4801   11.3622 O   0  0  0  0  0  0  0  0  0  0  0  0
   44.7957    6.1832   13.0312 C   0  0  0  0  0  0  0  0  0  0  0  0
   45.5527    5.8254   10.7677 C   0  0  0  0  0  0  0  0  0  0  0  0
   43.4632    4.8315   11.5098 C   0  0  0  0  0  0  0  0  0  0  0  0
   46.9731    7.7467   13.4990 O   0  0  0  0  0  0  0  0  0  0  0  0
   42.4132    3.9319   11.3004 N   0  0  0  0  0  0  0  0  0  0  0  0
   43.6797    5.3774   12.7774 C   0  0  0  0  0  0  0  0  0  0  0  0
   44.4345    5.0210   10.5243 C   0  0  0  0  0  0  0  0  0  0  0  0
   48.1004    8.5764   13.8263 C   0  0  0  0  0  0  0  0  0  0  0  0
   47.7948   10.0288   13.4698 C   0  0  0  0  0  0  0  0  0  0  0  0
   48.9599   10.9806   13.7358 C   0  0  0  0  0  0  0  0  0  0  0  0
   49.3164   11.1054   15.2089 C   0  0  0  0  0  0  0  0  0  0  0  0
   47.4851    8.2215   13.4095 C   0  0  0  0  0  0  0  0  0  0  0  0
   46.1510    6.4707   12.4479 C   0  0  0  0  0  0  0  0  0  0  0  0
   47.2998    6.8532   13.1512 C   0  0  0  0  0  0  0  0  0  0  0  0
   48.6640    8.6982   14.1441 N   0  0  0  0  0  0  0  0  0  0  0  0
   45.9132    5.0709   12.1676 N   0  0  0  0  0  0  0  0  0  0  0  0
   44.4243    9.7374   11.7946 N   0  0  0  0  0  0  0  0  0  0  0  0
   45.4071    8.7472   12.2590 C   0  0  0  0  0  0  0  0  0  0  0  0
   45.1996    7.3912   11.9917 C   0  0  0  0  0  0  0  0  0  0  0  0
   46.5429    9.1720   12.9669 C   0  0  0  0  0  0  0  0  0  0  0  0
   49.4791    7.8448   14.5250 O   0  0  0  0  0  0  0  0  0  0  0  0
   45.4521    4.3867   13.0888 O   0  0  0  0  0  0  0  0  0  0  0  0
   44.6661   10.9297   12.0185 O   0  0  0  0  0  0  0  0  0  0  0  0
   48.7729    9.9145   14.3382 O   0  0  0  0  0  0  0  0  0  0  0  0
   46.1278    4.6952   11.0084 O   0  0  0  0  0  0  0  0  0  0  0  0
   43.4192    9.3130   11.2113 O   0  0  0  0  0  0  0  0  0  0  0  0
   48.1750    5.8741   13.5312 O   0  0  0  0  0  0  0  0  0  0  0  0
   46.1509    8.5235   12.4953 C   0  0  0  0  0  0  0  0  0  0  0  0
   47.2617    9.1590   13.2554 C   0  0  0  0  0  0  0  0  0  0  0  0
   45.7621    8.9252   11.4101 O   0  0  0  0  0  0  0  0  0  0  0  0
   47.6927    8.6846   14.4997 C   0  0  0  0  0  0  0  0  0  0  0  0
   47.8818   10.2863   12.7044 C   0  0  0  0  0  0  0  0  0  0  0  0
   49.4015   10.4134   14.5963 C   0  0  0  0  0  0  0  0  0  0  0  0
   45.6583    7.4570   13.1736 O   0  0  0  0  0  0  0  0  0  0  0  0
   50.3646   11.1175   15.3256 N   0  0  0  0  0  0  0  0  0  0  0  0
   48.7419    9.3238   15.1705 C   0  0  0  0  0  0  0  0  0  0  0  0
   48.9289   10.9187   13.3830 C   0  0  0  0  0  0  0  0  0  0  0  0
   44.5727    6.7597   12.5400 C   0  0  0  0  0  0  0  0  0  0  0  0
   45.1228    5.6860   11.6050 C   0  0  0  0  0  0  0  0  0  0  0  0
   44.0384    4.9236   10.8453 C   0  0  0  0  0  0  0  0  0  0  0  0
   43.1315    4.1007   11.7468 C   0  0  0  0  0  0  0  0  0  0  0  0
   44.9213    6.6064   14.0244 H   0  0  0  0  0  0  0  0  0  0  0  0
   46.2856    5.9736    9.9769 H   0  0  0  0  0  0  0  0  0  0  0  0
   42.1458    3.8282   10.3265 H   0  0  0  0  0  0  0  0  0  0  0  0
   41.6121    4.0824   11.9053 H   0  0  0  0  0  0  0  0  0  0  0  0
   42.9782    5.1799   13.5841 H   0  0  0  0  0  0  0  0  0  0  0  0
   44.3306    4.5436    9.5532 H   0  0  0  0  0  0  0  0  0  0  0  0
   48.2574    8.4707   14.9043 H   0  0  0  0  0  0  0  0  0  0  0  0
   49.0112    8.2181   13.3321 H   0  0  0  0  0  0  0  0  0  0  0  0
   46.9035   10.3583   14.0185 H   0  0  0  0  0  0  0  0  0  0  0  0
   47.5241   10.0920   12.4088 H   0  0  0  0  0  0  0  0  0  0  0  0
   48.6909   11.9740   13.3571 H   0  0  0  0  0  0  0  0  0  0  0  0
   49.8427   10.6555   13.1732 H   0  0  0  0  0  0  0  0  0  0  0  0
   50.0913   11.8668   15.3445 H   0  0  0  0  0  0  0  0  0  0  0  0
   49.7043   10.1640   15.6090 H   0  0  0  0  0  0  0  0  0  0  0  0
   48.4443   11.4008   15.8007 H   0  0  0  0  0  0  0  0  0  0  0  0
   44.3236    7.0457   11.4434 H   0  0  0  0  0  0  0  0  0  0  0  0
   46.6928   10.2334   13.1704 H   0  0  0  0  0  0  0  0  0  0  0  0
   48.9377    6.2418   14.0307 H   0  0  0  0  0  0  0  0  0  0  0  0
   47.2156    7.8282   14.9691 H   0  0  0  0  0  0  0  0  0  0  0  0
   47.5448   10.6878   11.7505 H   0  0  0  0  0  0  0  0  0  0  0  0
   50.9905   11.6751   14.7529 H   0  0  0  0  0  0  0  0  0  0  0  0
   50.8652   10.5525   16.0043 H   0  0  0  0  0  0  0  0  0  0  0  0
   49.0396    8.9601   16.1508 H   0  0  0  0  0  0  0  0  0  0  0  0
   49.3727   11.8122   12.9513 H   0  0  0  0  0  0  0  0  0  0  0  0
   43.9879    6.3045   13.3453 H   0  0  0  0  0  0  0  0  0  0  0  0
   43.9086    7.4565   12.0147 H   0  0  0  0  0  0  0  0  0  0  0  0
   45.8004    6.1509   10.8784 H   0  0  0  0  0  0  0  0  0  0  0  0
   45.7450    4.9879   12.1791 H   0  0  0  0  0  0  0  0  0  0  0  0
   44.5240    4.2491   10.1300 H   0  0  0  0  0  0  0  0  0  0  0  0
   43.4321    5.6237   10.2589 H   0  0  0  0  0  0  0  0  0  0  0  0
   42.4397    3.5061   11.1414 H   0  0  0  0  0  0  0  0  0  0  0  0
   43.7138    3.4136   12.3687 H   0  0  0  0  0  0  0  0  0  0  0  0
   42.5321    4.7388   12.4026 H   0  0  0  0  0  0  0  0  0  0  0  0
  2  1  1  0
  3  1  2  0
  4  2  2  0
  5  2  1  0
  6 10  1  0
  7  1  1  0
  8  6  1  0
  9  4  1  0
 10  5  2  0
 11  7  1  0
 12 11  1  0
 13 12  1  0
 14 13  1  0
  9  6  2  0
 16 17  1  0
 17 15  2  0
 18 15  1  0
 19 16  1  0
 20 21  1  0
 21 23  2  0
 22 21  1  0
 23 15  1  0
 24 18  1  0
 25 19  1  0
 26 20  1  0
 27 18  2  0
 28 19  2  0
 29 20  2  0
 30 17  1  0
 22 16  2  0
 32 31  1  0
 33 31  2  0
 34 32  2  0
 35 32  1  0
 36 40  1  0
 37 31  1  0
 38 36  1  0
 39 34  1  0
 40 35  2  0
 41 37  1  0
 42 41  1  0
 43 42  1  0
 44 43  1  0
 39 36  2  0
  4 45  1  0
  5 46  1  0
  8 47  1  0
  8 48  1  0
  9 49  1  0
 10 50  1  0
 11 51  1  0
 11 52  1  0
 12 53  1  0
 12 54  1  0
 13 55  1  0
 13 56  1  0
 14 57  1  0
 14 58  1  0
 14 59  1  0
 22 60  1  0
 23 61  1  0
 30 62  1  0
 34 63  1  0
 35 64  1  0
 38 65  1  0
 38 66  1  0
 39 67  1  0
 40 68  1  0
 41 69  1  0
 41 70  1  0
 42 71  1  0
 42 72  1  0
 43 73  1  0
 43 74  1  0
 44 75  1  0
 44 76  1  0
 44 77  1  0
M  CHG  6  18   1  19   1  20   1  24  -1  25  -1  26  -1
M  END
> <Uni-Dock RESULT> 
ENERGY=   -6.194  LOWER_BOUND=    0.000  UPPER_BOUND=    0.000
INTER + INTRA:          -6.194
INTER:                  -6.194
INTRA:                   0.000
UNBOUND:                 0.000

$$$$

     RDKit          3D

 77 77  0  0  0  0  0  0  0  0999 V2000
   46.4890    6.6507   12.9776 C   0  0  0  0  0  0  0  0  0  0  0  0
   45.6183    5.4700   12.7259 C   0  0  0  0  0  0  0  0  0  0  0  0
   46.0991    7.6693   13.5261 O   0  0  0  0  0  0  0  0  0  0  0  0
   46.0836    4.3099   12.0960 C   0  0  0  0  0  0  0  0  0  0  0  0
   44.2775    5.5390   13.1217 C   0  0  0  0  0  0  0  0  0  0  0  0
   43.8952    3.2737   12.3296 C   0  0  0  0  0  0  0  0  0  0  0  0
   47.7459    6.4217   12.5221 O   0  0  0  0  0  0  0  0  0  0  0  0
   43.0085    2.2421   12.0056 N   0  0  0  0  0  0  0  0  0  0  0  0
   45.2183    3.2305   11.8833 C   0  0  0  0  0  0  0  0  0  0  0  0
   43.4205    4.4551   12.9038 C   0  0  0  0  0  0  0  0  0  0  0  0
   48.6826    7.4968   12.7035 C   0  0  0  0  0  0  0  0  0  0  0  0
   49.3481    7.3782   14.0720 C   0  0  0  0  0  0  0  0  0  0  0  0
   50.3258    8.5123   14.3756 C   0  0  0  0  0  0  0  0  0  0  0  0
   51.5376    8.5299   13.4571 C   0  0  0  0  0  0  0  0  0  0  0  0
   48.0614    6.9710   12.8292 C   0  0  0  0  0  0  0  0  0  0  0  0
   46.0188    5.7787   12.4093 C   0  0  0  0  0  0  0  0  0  0  0  0
   46.9372    6.7591   12.0140 C   0  0  0  0  0  0  0  0  0  0  0  0
   49.0693    7.9797   12.4779 N   0  0  0  0  0  0  0  0  0  0  0  0
   44.8508    5.5188   11.5954 N   0  0  0  0  0  0  0  0  0  0  0  0
   47.4922    4.4684   15.6017 N   0  0  0  0  0  0  0  0  0  0  0  0
   47.3001    5.2508   14.3718 C   0  0  0  0  0  0  0  0  0  0  0  0
   46.1746    5.0202   13.5760 C   0  0  0  0  0  0  0  0  0  0  0  0
   48.2483    6.2203   14.0076 C   0  0  0  0  0  0  0  0  0  0  0  0
   48.8854    8.6275   11.4367 O   0  0  0  0  0  0  0  0  0  0  0  0
   45.0141    4.8148   10.5917 O   0  0  0  0  0  0  0  0  0  0  0  0
   48.4812    4.7313   16.2967 O   0  0  0  0  0  0  0  0  0  0  0  0
   50.0354    8.1220   13.2365 O   0  0  0  0  0  0  0  0  0  0  0  0
   43.7756    5.9673   12.0123 O   0  0  0  0  0  0  0  0  0  0  0  0
   46.6526    3.5974   15.8605 O   0  0  0  0  0  0  0  0  0  0  0  0
   46.6767    7.4571   10.8677 O   0  0  0  0  0  0  0  0  0  0  0  0
   47.4199    5.9043   13.9052 C   0  0  0  0  0  0  0  0  0  0  0  0
   48.5435    6.8516   13.6693 C   0  0  0  0  0  0  0  0  0  0  0  0
   46.8396    5.8016   14.9742 O   0  0  0  0  0  0  0  0  0  0  0  0
   49.1979    6.9541   12.4363 C   0  0  0  0  0  0  0  0  0  0  0  0
   48.9676    7.6548   14.7342 C   0  0  0  0  0  0  0  0  0  0  0  0
   50.6374    8.7066   13.3163 C   0  0  0  0  0  0  0  0  0  0  0  0
   47.1461    5.1999   12.7787 O   0  0  0  0  0  0  0  0  0  0  0  0
   51.7653    9.5221   13.1808 N   0  0  0  0  0  0  0  0  0  0  0  0
   50.2504    7.8623   12.2726 C   0  0  0  0  0  0  0  0  0  0  0  0
   50.0212    8.5587   14.5609 C   0  0  0  0  0  0  0  0  0  0  0  0
   46.0776    4.2440   12.8828 C   0  0  0  0  0  0  0  0  0  0  0  0
   44.7456    4.9207   12.5704 C   0  0  0  0  0  0  0  0  0  0  0  0
   43.5412    3.9905   12.7063 C   0  0  0  0  0  0  0  0  0  0  0  0
   43.5407    2.8488   11.7019 C   0  0  0  0  0  0  0  0  0  0  0  0
   47.1116    4.2329   11.7518 H   0  0  0  0  0  0  0  0  0  0  0  0
   43.8880    6.4415   13.5890 H   0  0  0  0  0  0  0  0  0  0  0  0
   42.1892    2.1982   12.6035 H   0  0  0  0  0  0  0  0  0  0  0  0
   43.4513    1.3356   11.8927 H   0  0  0  0  0  0  0  0  0  0  0  0
   45.5906    2.3516   11.3629 H   0  0  0  0  0  0  0  0  0  0  0  0
   42.3753    4.5445   13.1892 H   0  0  0  0  0  0  0  0  0  0  0  0
   49.4250    7.3958   11.9057 H   0  0  0  0  0  0  0  0  0  0  0  0
   48.1969    8.4707   12.5692 H   0  0  0  0  0  0  0  0  0  0  0  0
   49.8571    6.4090   14.1462 H   0  0  0  0  0  0  0  0  0  0  0  0
   48.5753    7.3621   14.8503 H   0  0  0  0  0  0  0  0  0  0  0  0
   50.6741    8.4037   15.4098 H   0  0  0  0  0  0  0  0  0  0  0  0
   49.8083    9.4767   14.3153 H   0  0  0  0  0  0  0  0  0  0  0  0
   52.2429    9.3022   13.7808 H   0  0  0  0  0  0  0  0  0  0  0  0
   51.2548    8.7526   12.4240 H   0  0  0  0  0  0  0  0  0  0  0  0
   52.0581    7.5672   13.4745 H   0  0  0  0  0  0  0  0  0  0  0  0
   45.4297    4.2718   13.8450 H   0  0  0  0  0  0  0  0  0  0  0  0
   49.1235    6.3900   14.6367 H   0  0  0  0  0  0  0  0  0  0  0  0
   47.3860    8.1081   10.6692 H   0  0  0  0  0  0  0  0  0  0  0  0
   48.9122    6.3265   11.5962 H   0  0  0  0  0  0  0  0  0  0  0  0
   48.4904    7.5724   15.7089 H   0  0  0  0  0  0  0  0  0  0  0  0
   51.7950   10.2981   13.8348 H   0  0  0  0  0  0  0  0  0  0  0  0
   51.9522    9.8155   12.2272 H   0  0  0  0  0  0  0  0  0  0  0  0
   50.7673    7.9030   11.3171 H   0  0  0  0  0  0  0  0  0  0  0  0
   50.3550    9.1479   15.4113 H   0  0  0  0  0  0  0  0  0  0  0  0
   46.2923    3.4616   12.1483 H   0  0  0  0  0  0  0  0  0  0  0  0
   46.0703    3.7655   13.8694 H   0  0  0  0  0  0  0  0  0  0  0  0
   44.6071    5.7759   13.2433 H   0  0  0  0  0  0  0  0  0  0  0  0
   44.7825    5.3473   11.5602 H   0  0  0  0  0  0  0  0  0  0  0  0
   42.6282    4.5808   12.5635 H   0  0  0  0  0  0  0  0  0  0  0  0
   43.4986    3.5823   13.7227 H   0  0  0  0  0  0  0  0  0  0  0  0
   42.6115    2.2758   11.7851 H   0  0  0  0  0  0  0  0  0  0  0  0
   43.6151    3.2265   10.6773 H   0  0  0  0  0  0  0  0  0  0  0  0
   44.3713    2.1591   11.8784 H   0  0  0  0  0  0  0  0  0  0  0  0
  2  1  1  0
  3  1  2  0
  4  2  2  0
  5  2  1  0
  6 10  1  0
  7  1  1  0
  8  6  1  0
  9  4  1  0
 10  5  2  0
 11  7  1  0
 12 11  1  0
 13 12  1  0
 14 13  1  0
  9  6  2  0
 16 17  1  0
 17 15  2  0
 18 15  1  0
 19 16  1  0
 20 21  1  0
 21 23  2  0
 22 21  1  0
 23 15  1  0
 24 18  1  0
 25 19  1  0
 26 20  1  0
 27 18  2  0
 28 19  2  0
 29 20  2  0
 30 17  1  0
 22 16  2  0
 32 31  1  0
 33 31  2  0
 34 32  2  0
 35 32  1  0
 36 40  1  0
 37 31  1  0
 38 36  1  0
 39 34  1  0
 40 35  2  0
 41 37  1  0
 42 41  1  0
 43 42  1  0
 44 43  1  0
 39 36  2  0
  4 45  1  0
  5 46  1  0
  8 47  1  0
  8 48  1  0
  9 49  1  0
 10 50  1  0
 11 51  1  0
 11 52  1  0
 12 53  1  0
 12 54  1  0
 13 55  1  0
 13 56  1  0
 14 57  1  0
 14 58  1  0
 14 59  1  0
 22 60  1  0
 23 61  1  0
 30 62  1  0
 34 63  1  0
 35 64  1  0
 38 65  1  0
 38 66  1  0
 39 67  1  0
 40 68  1  0
 41 69  1  0
 41 70  1  0
 42 71  1  0
 42 72  1  0
 43 73  1  0
 43 74  1  0
 44 75  1  0
 44 76  1  0
 44 77  1  0
M  CHG  6  18   1  19   1  20   1  24  -1  25  -1  26  -1
M  END
> <Uni-Dock RESULT> 
ENERGY=   -6.071  LOWER_BOUND=    2.030  UPPER_BOUND=    3.335
INTER + INTRA:          -6.071
INTER:                  -6.071
INTRA:                   0.000
UNBOUND:                 0.000

$$$$

     RDKit          3D

 77 77  0  0  0  0  0  0  0  0999 V2000
   46.8611    6.6276   13.4819 C   0  0  0  0  0  0  0  0  0  0  0  0
   47.8566    7.6929   13.1832 C   0  0  0  0  0  0  0  0  0  0  0  0
   46.3229    6.4956   14.5697 O   0  0  0  0  0  0  0  0  0  0  0  0
   48.4628    7.8289   11.9289 C   0  0  0  0  0  0  0  0  0  0  0  0
   48.2083    8.5779   14.2090 C   0  0  0  0  0  0  0  0  0  0  0  0
   49.7040    9.7698   12.7100 C   0  0  0  0  0  0  0  0  0  0  0  0
   46.6476    5.8545   12.3880 O   0  0  0  0  0  0  0  0  0  0  0  0
   50.7225   10.7081   12.5160 N   0  0  0  0  0  0  0  0  0  0  0  0
   49.3947    8.8492   11.7057 C   0  0  0  0  0  0  0  0  0  0  0  0
   49.1413    9.5938   13.9761 C   0  0  0  0  0  0  0  0  0  0  0  0
   45.7054    4.7817   12.5543 C   0  0  0  0  0  0  0  0  0  0  0  0
   44.2942    5.2814   12.2571 C   0  0  0  0  0  0  0  0  0  0  0  0
   43.2152    4.2188   12.4591 C   0  0  0  0  0  0  0  0  0  0  0  0
   43.3262    3.0508   11.4915 C   0  0  0  0  0  0  0  0  0  0  0  0
   46.0774    5.5135   12.6206 C   0  0  0  0  0  0  0  0  0  0  0  0
   47.8155    7.1071   13.0777 C   0  0  0  0  0  0  0  0  0  0  0  0
   47.3753    5.7779   13.0883 C   0  0  0  0  0  0  0  0  0  0  0  0
   45.5472    4.1440   12.5986 N   0  0  0  0  0  0  0  0  0  0  0  0
   49.1491    7.4258   13.5409 N   0  0  0  0  0  0  0  0  0  0  0  0
   44.8654    8.9710   11.6987 N   0  0  0  0  0  0  0  0  0  0  0  0
   45.7276    7.8792   12.1743 C   0  0  0  0  0  0  0  0  0  0  0  0
   47.0160    8.1671   12.6328 C   0  0  0  0  0  0  0  0  0  0  0  0
   45.2501    6.5588   12.1623 C   0  0  0  0  0  0  0  0  0  0  0  0
   46.2924    3.2401   13.0052 O   0  0  0  0  0  0  0  0  0  0  0  0
   50.0791    7.2194   12.7522 O   0  0  0  0  0  0  0  0  0  0  0  0
   43.7191    8.6773   11.3381 O   0  0  0  0  0  0  0  0  0  0  0  0
   44.3967    3.9749   12.1784 O   0  0  0  0  0  0  0  0  0  0  0  0
   49.2361    7.9420   14.6620 O   0  0  0  0  0  0  0  0  0  0  0  0
   45.3432   10.1121   11.6891 O   0  0  0  0  0  0  0  0  0  0  0  0
   48.2299    4.8229   13.5644 O   0  0  0  0  0  0  0  0  0  0  0  0
   45.8515    7.1370   12.4793 C   0  0  0  0  0  0  0  0  0  0  0  0
   45.1867    5.8111   12.3552 C   0  0  0  0  0  0  0  0  0  0  0  0
   45.3187    8.1122   12.9847 O   0  0  0  0  0  0  0  0  0  0  0  0
   45.8136    4.7044   11.7709 C   0  0  0  0  0  0  0  0  0  0  0  0
   43.8757    5.6803   12.8277 C   0  0  0  0  0  0  0  0  0  0  0  0
   43.8519    3.3321   12.2028 C   0  0  0  0  0  0  0  0  0  0  0  0
   47.1059    7.0912   11.9649 O   0  0  0  0  0  0  0  0  0  0  0  0
   43.1424    2.1445   11.9990 N   0  0  0  0  0  0  0  0  0  0  0  0
   45.1386    3.4816   11.6794 C   0  0  0  0  0  0  0  0  0  0  0  0
   43.2092    4.4542   12.7307 C   0  0  0  0  0  0  0  0  0  0  0  0
   47.8510    8.3191   12.0227 C   0  0  0  0  0  0  0  0  0  0  0  0
   48.5917    8.4127   13.3540 C   0  0  0  0  0  0  0  0  0  0  0  0
   49.3737    9.7137   13.5278 C   0  0  0  0  0  0  0  0  0  0  0  0
   50.5164    9.8710   12.5368 C   0  0  0  0  0  0  0  0  0  0  0  0
   48.2332    7.1427   11.1180 H   0  0  0  0  0  0  0  0  0  0  0  0
   47.7692    8.4736   15.1994 H   0  0  0  0  0  0  0  0  0  0  0  0
   50.6755   11.5049   13.1433 H   0  0  0  0  0  0  0  0  0  0  0  0
   50.8497   10.9872   11.5484 H   0  0  0  0  0  0  0  0  0  0  0  0
   49.8786    8.9175   10.7345 H   0  0  0  0  0  0  0  0  0  0  0  0
   49.4235   10.2479   14.7972 H   0  0  0  0  0  0  0  0  0  0  0  0
   45.9955    4.0042   11.8407 H   0  0  0  0  0  0  0  0  0  0  0  0
   45.7800    4.3424   13.5562 H   0  0  0  0  0  0  0  0  0  0  0  0
   44.2547    5.6715   11.2323 H   0  0  0  0  0  0  0  0  0  0  0  0
   44.0696    6.1382   12.9041 H   0  0  0  0  0  0  0  0  0  0  0  0
   42.2339    4.6897   12.3256 H   0  0  0  0  0  0  0  0  0  0  0  0
   43.2492    3.8440   13.4887 H   0  0  0  0  0  0  0  0  0  0  0  0
   42.4768    2.3726   11.6227 H   0  0  0  0  0  0  0  0  0  0  0  0
   44.2396    2.4736   11.6625 H   0  0  0  0  0  0  0  0  0  0  0  0
   43.3246    3.3986   10.4537 H   0  0  0  0  0  0  0  0  0  0  0  0
   47.4011    9.1863   12.6486 H   0  0  0  0  0  0  0  0  0  0  0  0
   44.2427    6.3468   11.8007 H   0  0  0  0  0  0  0  0  0  0  0  0
   47.8349    3.9242   13.5152 H   0  0  0  0  0  0  0  0  0  0  0  0
   46.8208    4.7780   11.3693 H   0  0  0  0  0  0  0  0  0  0  0  0
   43.3600    6.5350   13.2614 H   0  0  0  0  0  0  0  0  0  0  0  0
   42.3737    2.0059   12.6475 H   0  0  0  0  0  0  0  0  0  0  0  0
   43.7292    1.3204   11.9163 H   0  0  0  0  0  0  0  0  0  0  0  0
   45.6306    2.6434   11.1923 H   0  0  0  0  0  0  0  0  0  0  0  0
   42.1801    4.3855   13.0742 H   0  0  0  0  0  0  0  0  0  0  0  0
   48.5605    8.2877   11.1901 H   0  0  0  0  0  0  0  0  0  0  0  0
   47.1990    9.1851   11.8571 H   0  0  0  0  0  0  0  0  0  0  0  0
   47.8714    8.3229   14.1764 H   0  0  0  0  0  0  0  0  0  0  0  0
   49.2626    7.5507   13.4583 H   0  0  0  0  0  0  0  0  0  0  0  0
   49.7871    9.7378   14.5431 H   0  0  0  0  0  0  0  0  0  0  0  0
   48.6954   10.5704   13.4415 H   0  0  0  0  0  0  0  0  0  0  0  0
   51.0949   10.7705   12.7705 H   0  0  0  0  0  0  0  0  0  0  0  0
   51.1938    9.0123   12.5782 H   0  0  0  0  0  0  0  0  0  0  0  0
   50.1473    9.9724   11.5121 H   0  0  0  0  0  0  0  0  0  0  0  0
  2  1  1  0
  3  1  2  0
  4  2  2  0
  5  2  1  0
  6 10  1  0
  7  1  1  0
  8  6  1  0
  9  4  1  0
 10  5  2  0
 11  7  1  0
 12 11  1  0
 13 12  1  0
 14 13  1  0
  9  6  2  0
 16 17  1  0
 17 15  2  0
 18 15  1  0
 19 16  1  0
 20 21  1  0
 21 23  2  0
 22 21  1  0
 23 15  1  0
 24 18  1  0
 25 19  1  0
 26 20  1  0
 27 18  2  0
 28 19  2  0
 29 20  2  0
 30 17  1  0
 22 16  2  0
 32 31  1  0
 33 31  2  0
 34 32  2  0
 35 32  1  0
 36 40  1  0
 37 31  1  0
 38 36  1  0
 39 34  1  0
 40 35  2  0
 41 37  1  0
 42 41  1  0
 43 42  1  0
 44 43  1  0
 39 36  2  0
  4 45  1  0
  5 46  1  0
  8 47  1  0
  8 48  1  0
  9 49  1  0
 10 50  1  0
 11 51  1  0
 11 52  1  0
 12 53  1  0
 12 54  1  0
 13 55  1  0
 13 56  1  0
 14 57  1  0
 14 58  1  0
 14 59  1  0
 22 60  1  0
 23 61  1  0
 30 62  1  0
 34 63  1  0
 35 64  1  0
 38 65  1  0
 38 66  1  0
 39 67  1  0
 40 68  1  0
 41 69  1  0
 41 70  1  0
 42 71  1  0
 42 72  1  0
 43 73  1  0
 43 74  1  0
 44 75  1  0
 44 76  1  0
 44 77  1  0
M  CHG  6  18   1  19   1  20   1  24  -1  25  -1  26  -1
M  END
> <Uni-Dock RESULT> 
ENERGY=   -5.907  LOWER_BOUND=    1.300  UPPER_BOUND=    5.824
INTER + INTRA:          -5.907
INTER:                  -5.907
INTRA:                   0.000
UNBOUND:                 0.000

$$$$

     RDKit          3D

 77 77  0  0  0  0  0  0  0  0999 V2000
   49.0722    7.4832   19.0320 C   0  0  0  0  0  0  0  0  0  0  0  0
   49.0461    6.1179   18.4398 C   0  0  0  0  0  0  0  0  0  0  0  0
   50.1026    8.0853   19.2892 O   0  0  0  0  0  0  0  0  0  0  0  0
   47.8541    5.4434   18.1510 C   0  0  0  0  0  0  0  0  0  0  0  0
   50.2670    5.4838   18.1821 C   0  0  0  0  0  0  0  0  0  0  0  0
   49.1067    3.5470   17.2836 C   0  0  0  0  0  0  0  0  0  0  0  0
   47.8108    7.9415   19.2289 O   0  0  0  0  0  0  0  0  0  0  0  0
   49.1351    2.2199   16.8438 N   0  0  0  0  0  0  0  0  0  0  0  0
   47.8902    4.1589   17.5961 C   0  0  0  0  0  0  0  0  0  0  0  0
   50.2925    4.1996   17.6282 C   0  0  0  0  0  0  0  0  0  0  0  0
   47.7050    9.2543   19.8047 C   0  0  0  0  0  0  0  0  0  0  0  0
   47.7248   10.3073   18.6999 C   0  0  0  0  0  0  0  0  0  0  0  0
   47.6689   11.7417   19.2228 C   0  0  0  0  0  0  0  0  0  0  0  0
   46.3655   12.0785   19.9303 C   0  0  0  0  0  0  0  0  0  0  0  0
   47.9720    8.6139   19.3611 C   0  0  0  0  0  0  0  0  0  0  0  0
   48.7586    6.3952   18.8829 C   0  0  0  0  0  0  0  0  0  0  0  0
   48.3742    7.3523   19.8301 C   0  0  0  0  0  0  0  0  0  0  0  0
   47.5524    9.6676   20.2942 N   0  0  0  0  0  0  0  0  0  0  0  0
   49.1709    5.0783   19.3191 N   0  0  0  0  0  0  0  0  0  0  0  0
   48.3569    8.2115   15.6243 N   0  0  0  0  0  0  0  0  0  0  0  0
   48.3628    7.9141   17.0642 C   0  0  0  0  0  0  0  0  0  0  0  0
   48.7650    6.6508   17.5063 C   0  0  0  0  0  0  0  0  0  0  0  0
   47.9637    8.9001   17.9808 C   0  0  0  0  0  0  0  0  0  0  0  0
   47.5664    9.3937   21.5035 O   0  0  0  0  0  0  0  0  0  0  0  0
   48.2731    4.2793   19.6108 O   0  0  0  0  0  0  0  0  0  0  0  0
   48.0313    9.3538   15.2788 O   0  0  0  0  0  0  0  0  0  0  0  0
   47.2120   10.7582   19.8213 O   0  0  0  0  0  0  0  0  0  0  0  0
   50.3856    4.8439   19.2968 O   0  0  0  0  0  0  0  0  0  0  0  0
   48.6769    7.2993   14.8523 O   0  0  0  0  0  0  0  0  0  0  0  0
   48.4262    7.0044   21.1512 O   0  0  0  0  0  0  0  0  0  0  0  0
   48.3939    8.1298   17.8463 C   0  0  0  0  0  0  0  0  0  0  0  0
   47.9055    9.2817   18.6525 C   0  0  0  0  0  0  0  0  0  0  0  0
   49.2400    8.2310   16.9722 O   0  0  0  0  0  0  0  0  0  0  0  0
   46.9331    9.1462   19.6501 C   0  0  0  0  0  0  0  0  0  0  0  0
   48.4320   10.5501   18.3826 C   0  0  0  0  0  0  0  0  0  0  0  0
   47.0760   11.5229   20.1490 C   0  0  0  0  0  0  0  0  0  0  0  0
   47.7755    6.9844   18.2282 O   0  0  0  0  0  0  0  0  0  0  0  0
   46.5624   12.6529   20.7928 N   0  0  0  0  0  0  0  0  0  0  0  0
   46.5101   10.2658   20.3760 C   0  0  0  0  0  0  0  0  0  0  0  0
   48.0020   11.6632   19.1128 C   0  0  0  0  0  0  0  0  0  0  0  0
   48.1617    5.7973   17.5157 C   0  0  0  0  0  0  0  0  0  0  0  0
   49.3727    5.1592   18.1912 C   0  0  0  0  0  0  0  0  0  0  0  0
   49.8883    3.9143   17.4712 C   0  0  0  0  0  0  0  0  0  0  0  0
   48.8995    2.7590   17.4743 C   0  0  0  0  0  0  0  0  0  0  0  0
   46.8888    5.8953   18.3633 H   0  0  0  0  0  0  0  0  0  0  0  0
   51.2054    5.9793   18.4238 H   0  0  0  0  0  0  0  0  0  0  0  0
   49.9907    1.9624   16.3618 H   0  0  0  0  0  0  0  0  0  0  0  0
   48.3053    1.9350   16.3332 H   0  0  0  0  0  0  0  0  0  0  0  0
   46.9538    3.6390   17.4098 H   0  0  0  0  0  0  0  0  0  0  0  0
   51.2518    3.7140   17.4682 H   0  0  0  0  0  0  0  0  0  0  0  0
   46.7514    9.2789   20.3412 H   0  0  0  0  0  0  0  0  0  0  0  0
   48.4951    9.4255   20.5455 H   0  0  0  0  0  0  0  0  0  0  0  0
   46.8936   10.1238   18.0075 H   0  0  0  0  0  0  0  0  0  0  0  0
   48.6356   10.1865   18.1008 H   0  0  0  0  0  0  0  0  0  0  0  0
   47.7919   12.4261   18.3749 H   0  0  0  0  0  0  0  0  0  0  0  0
   48.5101   11.9241   19.9016 H   0  0  0  0  0  0  0  0  0  0  0  0
   46.3474   13.1398   20.1985 H   0  0  0  0  0  0  0  0  0  0  0  0
   46.2492   11.5023   20.8528 H   0  0  0  0  0  0  0  0  0  0  0  0
   45.5047   11.8777   19.2849 H   0  0  0  0  0  0  0  0  0  0  0  0
   49.0777    5.8752   16.8077 H   0  0  0  0  0  0  0  0  0  0  0  0
   47.6506    9.8821   17.6230 H   0  0  0  0  0  0  0  0  0  0  0  0
   48.1227    7.7368   21.7324 H   0  0  0  0  0  0  0  0  0  0  0  0
   46.4835    8.1808   19.8673 H   0  0  0  0  0  0  0  0  0  0  0  0
   49.1695   10.6825   17.5932 H   0  0  0  0  0  0  0  0  0  0  0  0
   47.1998   13.4428   20.8123 H   0  0  0  0  0  0  0  0  0  0  0  0
   46.1580   12.4624   21.7042 H   0  0  0  0  0  0  0  0  0  0  0  0
   45.7302   10.1451   21.1236 H   0  0  0  0  0  0  0  0  0  0  0  0
   48.4006   12.6431   18.8628 H   0  0  0  0  0  0  0  0  0  0  0  0
   47.3011    5.1223   17.5535 H   0  0  0  0  0  0  0  0  0  0  0  0
   48.3528    6.0158   16.4583 H   0  0  0  0  0  0  0  0  0  0  0  0
   50.1849    5.8943   18.2481 H   0  0  0  0  0  0  0  0  0  0  0  0
   49.1235    4.9186   19.2324 H   0  0  0  0  0  0  0  0  0  0  0  0
   50.8109    3.5848   17.9639 H   0  0  0  0  0  0  0  0  0  0  0  0
   50.1535    4.1648   16.4375 H   0  0  0  0  0  0  0  0  0  0  0  0
   49.3592    1.8701   17.0303 H   0  0  0  0  0  0  0  0  0  0  0  0
   48.5917    2.5077   18.4941 H   0  0  0  0  0  0  0  0  0  0  0  0
   48.0051    2.9952   16.8904 H   0  0  0  0  0  0  0  0  0  0  0  0
  2  1  1  0
  3  1  2  0
  4  2  2  0
  5  2  1  0
  6 10  1  0
  7  1  1  0
  8  6  1  0
  9  4  1  0
 10  5  2  0
 11  7  1  0
 12 11  1  0
 13 12  1  0
 14 13  1  0
  9  6  2  0
 16 17  1  0
 17 15  2  0
 18 15  1  0
 19 16  1  0
 20 21  1  0
 21 23  2  0
 22 21  1  0
 23 15  1  0
 24 18  1  0
 25 19  1  0
 26 20  1  0
 27 18  2  0
 28 19  2  0
 29 20  2  0
 30 17  1  0
 22 16  2  0
 32 31  1  0
 33 31  2  0
 34 32  2  0
 35 32  1  0
 36 40  1  0
 37 31  1  0
 38 36  1  0
 39 34  1  0
 40 35  2  0
 41 37  1  0
 42 41  1  0
 43 42  1  0
 44 43  1  0
 39 36  2  0
  4 45  1  0
  5 46  1  0
  8 47  1  0
  8 48  1  0
  9 49  1  0
 10 50  1  0
 11 51  1  0
 11 52  1  0
 12 53  1  0
 12 54  1  0
 13 55  1  0
 13 56  1  0
 14 57  1  0
 14 58  1  0
 14 59  1  0
 22 60  1  0
 23 61  1  0
 30 62  1  0
 34 63  1  0
 35 64  1  0
 38 65  1  0
 38 66  1  0
 39 67  1  0
 40 68  1  0
 41 69  1  0
 41 70  1  0
 42 71  1  0
 42 72  1  0
 43 73  1  0
 43 74  1  0
 44 75  1  0
 44 76  1  0
 44 77  1  0
M  CHG  6  18   1  19   1  20   1  24  -1  25  -1  26  -1
M  END
> <Uni-Dock RESULT> 
ENERGY=   -5.605  LOWER_BOUND=    5.113  UPPER_BOUND=    6.806
INTER + INTRA:          -5.605
INTER:                  -5.605
INTRA:                   0.000
UNBOUND:                 0.000

$$$$

     RDKit          3D

 77 77  0  0  0  0  0  0  0  0999 V2000
   40.7618   13.0967   11.6976 C   0  0  0  0  0  0  0  0  0  0  0  0
   41.5920   12.3822   10.6898 C   0  0  0  0  0  0  0  0  0  0  0  0
   40.0955   14.0868   11.4403 O   0  0  0  0  0  0  0  0  0  0  0  0
   42.3490   11.2475   11.0036 C   0  0  0  0  0  0  0  0  0  0  0  0
   41.6254   12.8831    9.3833 C   0  0  0  0  0  0  0  0  0  0  0  0
   43.1028   11.0802    8.6968 C   0  0  0  0  0  0  0  0  0  0  0  0
   40.8538   12.4901   12.9074 O   0  0  0  0  0  0  0  0  0  0  0  0
   43.9615   10.5192    7.7463 N   0  0  0  0  0  0  0  0  0  0  0  0
   43.1135   10.6173   10.0149 C   0  0  0  0  0  0  0  0  0  0  0  0
   42.3932   12.2466    8.4025 C   0  0  0  0  0  0  0  0  0  0  0  0
   40.0970   13.0947   13.9695 C   0  0  0  0  0  0  0  0  0  0  0  0
   38.6824   12.5216   13.9882 C   0  0  0  0  0  0  0  0  0  0  0  0
   37.7853   13.1454   15.0560 C   0  0  0  0  0  0  0  0  0  0  0  0
   38.2422   12.8543   16.4770 C   0  0  0  0  0  0  0  0  0  0  0  0
   40.3224   12.8260   13.2243 C   0  0  0  0  0  0  0  0  0  0  0  0
   41.6692   12.5648   11.2525 C   0  0  0  0  0  0  0  0  0  0  0  0
   41.4688   13.1807   12.4940 C   0  0  0  0  0  0  0  0  0  0  0  0
   40.0465   13.4274   14.5354 N   0  0  0  0  0  0  0  0  0  0  0  0
   42.8415   12.8918   10.4694 N   0  0  0  0  0  0  0  0  0  0  0  0
   38.6858   10.3126   10.9269 N   0  0  0  0  0  0  0  0  0  0  0  0
   39.6412   11.2939   11.4617 C   0  0  0  0  0  0  0  0  0  0  0  0
   40.7757   11.6290   10.7174 C   0  0  0  0  0  0  0  0  0  0  0  0
   39.4065   11.8838   12.7141 C   0  0  0  0  0  0  0  0  0  0  0  0
   40.8661   14.2528   14.9653 O   0  0  0  0  0  0  0  0  0  0  0  0
   43.9021   12.3459   10.7959 O   0  0  0  0  0  0  0  0  0  0  0  0
   37.6759   10.0740   11.6002 O   0  0  0  0  0  0  0  0  0  0  0  0
   39.0199   13.0770   15.1290 O   0  0  0  0  0  0  0  0  0  0  0  0
   42.6666   13.6373    9.4975 O   0  0  0  0  0  0  0  0  0  0  0  0
   38.9551    9.7889    9.8389 O   0  0  0  0  0  0  0  0  0  0  0  0
   42.3931   14.0972   12.9121 O   0  0  0  0  0  0  0  0  0  0  0  0
   39.8437   11.9203   11.9369 C   0  0  0  0  0  0  0  0  0  0  0  0
   39.4446   12.4042   13.2867 C   0  0  0  0  0  0  0  0  0  0  0  0
   39.0798   11.8741   10.9857 O   0  0  0  0  0  0  0  0  0  0  0  0
   40.3347   12.4484   14.3660 C   0  0  0  0  0  0  0  0  0  0  0  0
   38.1196   12.8118   13.4796 C   0  0  0  0  0  0  0  0  0  0  0  0
   38.5970   13.3741   15.7949 C   0  0  0  0  0  0  0  0  0  0  0  0
   41.1504   11.5565   11.9281 O   0  0  0  0  0  0  0  0  0  0  0  0
   38.1427   13.7200   17.0714 N   0  0  0  0  0  0  0  0  0  0  0  0
   39.9030   12.9116   15.6144 C   0  0  0  0  0  0  0  0  0  0  0  0
   37.6976   13.2723   14.7313 C   0  0  0  0  0  0  0  0  0  0  0  0
   41.6547   11.0651   10.6749 C   0  0  0  0  0  0  0  0  0  0  0  0
   42.1570   12.2303    9.8265 C   0  0  0  0  0  0  0  0  0  0  0  0
   42.6669   11.8081    8.4496 C   0  0  0  0  0  0  0  0  0  0  0  0
   43.9023   10.9232    8.5058 C   0  0  0  0  0  0  0  0  0  0  0  0
   42.3674   10.8477   12.0141 H   0  0  0  0  0  0  0  0  0  0  0  0
   41.0655   13.7797    9.1240 H   0  0  0  0  0  0  0  0  0  0  0  0
   43.6826   10.6905    6.7852 H   0  0  0  0  0  0  0  0  0  0  0  0
   44.1841    9.5432    7.9141 H   0  0  0  0  0  0  0  0  0  0  0  0
   43.7203    9.7570   10.2866 H   0  0  0  0  0  0  0  0  0  0  0  0
   42.4301   12.6733    7.4034 H   0  0  0  0  0  0  0  0  0  0  0  0
   40.6221   12.8513   14.8984 H   0  0  0  0  0  0  0  0  0  0  0  0
   40.0931   14.1875   13.8792 H   0  0  0  0  0  0  0  0  0  0  0  0
   38.7324   11.4339   14.1235 H   0  0  0  0  0  0  0  0  0  0  0  0
   38.2175   12.6724   13.0062 H   0  0  0  0  0  0  0  0  0  0  0  0
   36.7693   12.7527   14.9295 H   0  0  0  0  0  0  0  0  0  0  0  0
   37.7267   14.2298   14.9067 H   0  0  0  0  0  0  0  0  0  0  0  0
   37.5128   13.2459   17.1935 H   0  0  0  0  0  0  0  0  0  0  0  0
   39.2049   13.3266   16.6937 H   0  0  0  0  0  0  0  0  0  0  0  0
   38.3383   11.7772   16.6462 H   0  0  0  0  0  0  0  0  0  0  0  0
   40.9719   11.1804    9.7439 H   0  0  0  0  0  0  0  0  0  0  0  0
   38.5177   11.6128   13.2862 H   0  0  0  0  0  0  0  0  0  0  0  0
   42.1714   14.4589   13.7988 H   0  0  0  0  0  0  0  0  0  0  0  0
   41.3632   12.1141   14.2585 H   0  0  0  0  0  0  0  0  0  0  0  0
   37.4041   12.7606   12.6610 H   0  0  0  0  0  0  0  0  0  0  0  0
   37.3201   14.3149   17.0700 H   0  0  0  0  0  0  0  0  0  0  0  0
   38.8687   14.0692   17.6890 H   0  0  0  0  0  0  0  0  0  0  0  0
   40.6007   12.9069   16.4482 H   0  0  0  0  0  0  0  0  0  0  0  0
   36.6557   13.5519   14.8658 H   0  0  0  0  0  0  0  0  0  0  0  0
   42.4772   10.3858   10.9195 H   0  0  0  0  0  0  0  0  0  0  0  0
   40.8958   10.4745   10.1480 H   0  0  0  0  0  0  0  0  0  0  0  0
   41.3465   12.9575    9.6936 H   0  0  0  0  0  0  0  0  0  0  0  0
   42.9429   12.7661   10.3735 H   0  0  0  0  0  0  0  0  0  0  0  0
   42.9106   12.7111    7.8772 H   0  0  0  0  0  0  0  0  0  0  0  0
   41.8718   11.2902    7.9006 H   0  0  0  0  0  0  0  0  0  0  0  0
   44.2744   10.7331    7.4939 H   0  0  0  0  0  0  0  0  0  0  0  0
   44.7035   11.4026    9.0769 H   0  0  0  0  0  0  0  0  0  0  0  0
   43.6813    9.9548    8.9641 H   0  0  0  0  0  0  0  0  0  0  0  0
  2  1  1  0
  3  1  2  0
  4  2  2  0
  5  2  1  0
  6 10  1  0
  7  1  1  0
  8  6  1  0
  9  4  1  0
 10  5  2  0
 11  7  1  0
 12 11  1  0
 13 12  1  0
 14 13  1  0
  9  6  2  0
 16 17  1  0
 17 15  2  0
 18 15  1  0
 19 16  1  0
 20 21  1  0
 21 23  2  0
 22 21  1  0
 23 15  1  0
 24 18  1  0
 25 19  1  0
 26 20  1  0
 27 18  2  0
 28 19  2  0
 29 20  2  0
 30 17  1  0
 22 16  2  0
 32 31  1  0
 33 31  2  0
 34 32  2  0
 35 32  1  0
 36 40  1  0
 37 31  1  0
 38 36  1  0
 39 34  1  0
 40 35  2  0
 41 37  1  0
 42 41  1  0
 43 42  1  0
 44 43  1  0
 39 36  2  0
  4 45  1  0
  5 46  1  0
  8 47  1  0
  8 48  1  0
  9 49  1  0
 10 50  1  0
 11 51  1  0
 11 52  1  0
 12 53  1  0
 12 54  1  0
 13 55  1  0
 13 56  1  0
 14 57  1  0
 14 58  1  0
 14 59  1  0
 22 60  1  0
 23 61  1  0
 30 62  1  0
 34 63  1  0
 35 64  1  0
 38 65  1  0
 38 66  1  0
 39 67  1  0
 40 68  1  0
 41 69  1  0
 41 70  1  0
 42 71  1  0
 42 72  1  0
 43 73  1  0
 43 74  1  0
 44 75  1  0
 44 76  1  0
 44 77  1  0
M  CHG  6  18   1  19   1  20   1  24  -1  25  -1  26  -1
M  END
> <Uni-Dock RESULT> 
ENERGY=   -5.551  LOWER_BOUND=    6.260  UPPER_BOUND=    8.567
INTER + INTRA:          -5.551
INTER:                  -5.551
INTRA:                   0.000
UNBOUND:                 0.000

$$$$

     RDKit          3D

 77 77  0  0  0  0  0  0  0  0999 V2000
   48.1707    6.6017   13.2277 C   0  0  0  0  0  0  0  0  0  0  0  0
   48.8383    7.6086   14.0969 C   0  0  0  0  0  0  0  0  0  0  0  0
   48.7792    5.8117   12.5234 O   0  0  0  0  0  0  0  0  0  0  0  0
   48.1234    8.5061   14.8985 C   0  0  0  0  0  0  0  0  0  0  0  0
   50.2369    7.6653   14.0918 C   0  0  0  0  0  0  0  0  0  0  0  0
   50.2012    9.4538   15.7364 C   0  0  0  0  0  0  0  0  0  0  0  0
   46.8221    6.6924   13.3423 O   0  0  0  0  0  0  0  0  0  0  0  0
   50.8705   10.4605   16.4393 N   0  0  0  0  0  0  0  0  0  0  0  0
   48.8048    9.4337   15.6948 C   0  0  0  0  0  0  0  0  0  0  0  0
   50.9086    8.5967   14.8906 C   0  0  0  0  0  0  0  0  0  0  0  0
   46.0628    5.7706   12.5423 C   0  0  0  0  0  0  0  0  0  0  0  0
   45.8619    4.4651   13.3073 C   0  0  0  0  0  0  0  0  0  0  0  0
   45.1066    3.4017   12.5118 C   0  0  0  0  0  0  0  0  0  0  0  0
   43.6690    3.7863   12.1988 C   0  0  0  0  0  0  0  0  0  0  0  0
   46.6567    6.0923   13.0135 C   0  0  0  0  0  0  0  0  0  0  0  0
   48.3784    7.6125   13.7169 C   0  0  0  0  0  0  0  0  0  0  0  0
   47.4467    7.2229   12.7469 C   0  0  0  0  0  0  0  0  0  0  0  0
   45.6561    5.6251   12.0453 N   0  0  0  0  0  0  0  0  0  0  0  0
   49.2071    8.7771   13.4900 N   0  0  0  0  0  0  0  0  0  0  0  0
   47.9183    5.0498   16.4187 N   0  0  0  0  0  0  0  0  0  0  0  0
   47.7582    5.7966   15.1623 C   0  0  0  0  0  0  0  0  0  0  0  0
   48.5543    6.9196   14.9209 C   0  0  0  0  0  0  0  0  0  0  0  0
   46.8074    5.3763   14.2184 C   0  0  0  0  0  0  0  0  0  0  0  0
   45.5398    6.2706   10.9929 O   0  0  0  0  0  0  0  0  0  0  0  0
   48.6879    9.8810   13.6933 O   0  0  0  0  0  0  0  0  0  0  0  0
   47.2213    4.0399   16.5750 O   0  0  0  0  0  0  0  0  0  0  0  0
   44.9933    4.6225   12.3355 O   0  0  0  0  0  0  0  0  0  0  0  0
   50.3855    8.5647   13.1780 O   0  0  0  0  0  0  0  0  0  0  0  0
   48.7391    5.4810   17.2378 O   0  0  0  0  0  0  0  0  0  0  0  0
   47.3725    7.9583   11.5968 O   0  0  0  0  0  0  0  0  0  0  0  0
   47.5380    5.8617   14.3836 C   0  0  0  0  0  0  0  0  0  0  0  0
   46.4609    5.2885   13.5311 C   0  0  0  0  0  0  0  0  0  0  0  0
   48.4208    5.1906   14.8940 O   0  0  0  0  0  0  0  0  0  0  0  0
   45.4557    6.0742   12.9554 C   0  0  0  0  0  0  0  0  0  0  0  0
   46.4504    3.9053   13.3173 C   0  0  0  0  0  0  0  0  0  0  0  0
   44.4868    4.1080   11.9003 C   0  0  0  0  0  0  0  0  0  0  0  0
   47.3930    7.2058   14.4952 O   0  0  0  0  0  0  0  0  0  0  0  0
   43.4292    3.5076   11.2101 N   0  0  0  0  0  0  0  0  0  0  0  0
   44.4663    5.4800   12.1634 C   0  0  0  0  0  0  0  0  0  0  0  0
   45.4566    3.3208   12.5250 C   0  0  0  0  0  0  0  0  0  0  0  0
   48.3755    7.8762   15.3023 C   0  0  0  0  0  0  0  0  0  0  0  0
   49.5790    8.2558   14.4437 C   0  0  0  0  0  0  0  0  0  0  0  0
   50.7018    8.9306   15.2298 C   0  0  0  0  0  0  0  0  0  0  0  0
   50.3092   10.2804   15.8099 C   0  0  0  0  0  0  0  0  0  0  0  0
   47.0366    8.5076   14.9062 H   0  0  0  0  0  0  0  0  0  0  0  0
   50.8118    6.9948   13.4558 H   0  0  0  0  0  0  0  0  0  0  0  0
   51.8330   10.2341   16.6695 H   0  0  0  0  0  0  0  0  0  0  0  0
   50.3578   10.8183   17.2390 H   0  0  0  0  0  0  0  0  0  0  0  0
   48.2308   10.1438   16.2849 H   0  0  0  0  0  0  0  0  0  0  0  0
   51.9937    8.6444   14.8446 H   0  0  0  0  0  0  0  0  0  0  0  0
   45.1001    6.2532   12.3474 H   0  0  0  0  0  0  0  0  0  0  0  0
   46.5417    5.6040   11.5701 H   0  0  0  0  0  0  0  0  0  0  0  0
   45.3421    4.6728   14.2510 H   0  0  0  0  0  0  0  0  0  0  0  0
   46.8397    4.0602   13.5958 H   0  0  0  0  0  0  0  0  0  0  0  0
   45.0997    2.4719   13.0933 H   0  0  0  0  0  0  0  0  0  0  0  0
   45.6385    3.1871   11.5777 H   0  0  0  0  0  0  0  0  0  0  0  0
   43.1545    2.9515   11.7119 H   0  0  0  0  0  0  0  0  0  0  0  0
   43.6215    4.6441   11.5215 H   0  0  0  0  0  0  0  0  0  0  0  0
   43.1207    4.0351   13.1128 H   0  0  0  0  0  0  0  0  0  0  0  0
   49.2966    7.2583   15.6431 H   0  0  0  0  0  0  0  0  0  0  0  0
   46.1910    4.4987   14.4193 H   0  0  0  0  0  0  0  0  0  0  0  0
   46.6800    7.6148   10.9895 H   0  0  0  0  0  0  0  0  0  0  0  0
   45.4181    7.1474   13.1229 H   0  0  0  0  0  0  0  0  0  0  0  0
   47.2070    3.2723   13.7772 H   0  0  0  0  0  0  0  0  0  0  0  0
   43.6590    2.6051   10.8059 H   0  0  0  0  0  0  0  0  0  0  0  0
   42.9673    4.1203   10.5455 H   0  0  0  0  0  0  0  0  0  0  0  0
   43.6756    6.1029   11.7527 H   0  0  0  0  0  0  0  0  0  0  0  0
   45.4496    2.2409   12.4006 H   0  0  0  0  0  0  0  0  0  0  0  0
   47.8884    8.7726   15.6983 H   0  0  0  0  0  0  0  0  0  0  0  0
   48.6661    7.2615   16.1627 H   0  0  0  0  0  0  0  0  0  0  0  0
   49.9790    7.3550   13.9621 H   0  0  0  0  0  0  0  0  0  0  0  0
   49.2495    8.9040   13.6219 H   0  0  0  0  0  0  0  0  0  0  0  0
   51.5575    9.0749   14.5595 H   0  0  0  0  0  0  0  0  0  0  0  0
   51.0398    8.2709   16.0373 H   0  0  0  0  0  0  0  0  0  0  0  0
   51.1778   10.7550   16.2777 H   0  0  0  0  0  0  0  0  0  0  0  0
   49.9366   10.9505   15.0290 H   0  0  0  0  0  0  0  0  0  0  0  0
   49.5359   10.1776   16.5767 H   0  0  0  0  0  0  0  0  0  0  0  0
  2  1  1  0
  3  1  2  0
  4  2  2  0
  5  2  1  0
  6 10  1  0
  7  1  1  0
  8  6  1  0
  9  4  1  0
 10  5  2  0
 11  7  1  0
 12 11  1  0
 13 12  1  0
 14 13  1  0
  9  6  2  0
 16 17  1  0
 17 15  2  0
 18 15  1  0
 19 16  1  0
 20 21  1  0
 21 23  2  0
 22 21  1  0
 23 15  1  0
 24 18  1  0
 25 19  1  0
 26 20  1  0
 27 18  2  0
 28 19  2  0
 29 20  2  0
 30 17  1  0
 22 16  2  0
 32 31  1  0
 33 31  2  0
 34 32  2  0
 35 32  1  0
 36 40  1  0
 37 31  1  0
 38 36  1  0
 39 34  1  0
 40 35  2  0
 41 37  1  0
 42 41  1  0
 43 42  1  0
 44 43  1  0
 39 36  2  0
  4 45  1  0
  5 46  1  0
  8 47  1  0
  8 48  1  0
  9 49  1  0
 10 50  1  0
 11 51  1  0
 11 52  1  0
 12 53  1  0
 12 54  1  0
 13 55  1  0
 13 56  1  0
 14 57  1  0
 14 58  1  0
 14 59  1  0
 22 60  1  0
 23 61  1  0
 30 62  1  0
 34 63  1  0
 35 64  1  0
 38 65  1  0
 38 66  1  0
 39 67  1  0
 40 68  1  0
 41 69  1  0
 41 70  1  0
 42 71  1  0
 42 72  1  0
 43 73  1  0
 43 74  1  0
 44 75  1  0
 44 76  1  0
 44 77  1  0
M  CHG  6  18   1  19   1  20   1  24  -1  25  -1  26  -1
M  END
> <Uni-Dock RESULT> 
ENERGY=   -5.411  LOWER_BOUND=    1.781  UPPER_BOUND=    6.427
INTER + INTRA:          -5.411
INTER:                  -5.411
INTRA:                   0.000
UNBOUND:                 0.000

$$$$

     RDKit          3D

 77 77  0  0  0  0  0  0  0  0999 V2000
   47.2291    9.9072   20.9554 C   0  0  0  0  0  0  0  0  0  0  0  0
   47.6045   11.0374   20.0627 C   0  0  0  0  0  0  0  0  0  0  0  0
   46.0738    9.6109   21.2161 O   0  0  0  0  0  0  0  0  0  0  0  0
   48.9354   11.3616   19.7747 C   0  0  0  0  0  0  0  0  0  0  0  0
   46.5795   11.8128   19.5084 C   0  0  0  0  0  0  0  0  0  0  0  0
   48.2077   13.1768   18.3280 C   0  0  0  0  0  0  0  0  0  0  0  0
   48.3374    9.2739   21.4144 O   0  0  0  0  0  0  0  0  0  0  0  0
   48.5106   14.3216   17.5842 N   0  0  0  0  0  0  0  0  0  0  0  0
   49.2294   12.4376   18.9293 C   0  0  0  0  0  0  0  0  0  0  0  0
   46.8838   12.8867   18.6652 C   0  0  0  0  0  0  0  0  0  0  0  0
   48.1032    8.1627   22.2956 C   0  0  0  0  0  0  0  0  0  0  0  0
   47.9267    6.8842   21.4808 C   0  0  0  0  0  0  0  0  0  0  0  0
   47.6205    5.6542   22.3338 C   0  0  0  0  0  0  0  0  0  0  0  0
   48.7600    5.2604   23.2606 C   0  0  0  0  0  0  0  0  0  0  0  0
   48.0199    8.7053   21.6817 C   0  0  0  0  0  0  0  0  0  0  0  0
   47.7895   10.8335   20.5920 C   0  0  0  0  0  0  0  0  0  0  0  0
   47.8792   10.0995   21.7811 C   0  0  0  0  0  0  0  0  0  0  0  0
   48.1231    7.8694   22.8848 N   0  0  0  0  0  0  0  0  0  0  0  0
   47.6537   12.2734   20.6452 N   0  0  0  0  0  0  0  0  0  0  0  0
   48.0063    8.1888   17.9392 N   0  0  0  0  0  0  0  0  0  0  0  0
   47.9634    8.8460   19.2538 C   0  0  0  0  0  0  0  0  0  0  0  0
   47.8251   10.2348   19.3267 C   0  0  0  0  0  0  0  0  0  0  0  0
   48.0632    8.0738   20.4222 C   0  0  0  0  0  0  0  0  0  0  0  0
   48.0839    8.4460   23.9820 O   0  0  0  0  0  0  0  0  0  0  0  0
   48.6849   12.9251   20.8491 O   0  0  0  0  0  0  0  0  0  0  0  0
   48.0905    6.9548   17.9206 O   0  0  0  0  0  0  0  0  0  0  0  0
   48.2426    6.6481   22.7331 O   0  0  0  0  0  0  0  0  0  0  0  0
   46.5278   12.7313   20.4137 O   0  0  0  0  0  0  0  0  0  0  0  0
   47.9563    8.9132   16.9376 O   0  0  0  0  0  0  0  0  0  0  0  0
   47.8116   10.7827   22.9633 O   0  0  0  0  0  0  0  0  0  0  0  0
   47.8283    8.8522   20.0543 C   0  0  0  0  0  0  0  0  0  0  0  0
   47.9854    7.8767   21.1674 C   0  0  0  0  0  0  0  0  0  0  0  0
   47.0465    8.6976   19.1295 O   0  0  0  0  0  0  0  0  0  0  0  0
   48.8887    8.0706   22.2188 C   0  0  0  0  0  0  0  0  0  0  0  0
   47.2078    6.7131   21.1436 C   0  0  0  0  0  0  0  0  0  0  0  0
   48.1789    5.9840   23.2484 C   0  0  0  0  0  0  0  0  0  0  0  0
   48.6593    9.9103   20.2270 O   0  0  0  0  0  0  0  0  0  0  0  0
   48.3772    4.9818   24.2032 N   0  0  0  0  0  0  0  0  0  0  0  0
   48.9953    7.1177   23.2386 C   0  0  0  0  0  0  0  0  0  0  0  0
   47.3224    5.7662   22.1669 C   0  0  0  0  0  0  0  0  0  0  0  0
   48.6027   10.9232   19.2086 C   0  0  0  0  0  0  0  0  0  0  0  0
   47.5209   11.9434   19.5530 C   0  0  0  0  0  0  0  0  0  0  0  0
   47.3520   13.0347   18.4972 C   0  0  0  0  0  0  0  0  0  0  0  0
   48.5726   13.9296   18.3498 C   0  0  0  0  0  0  0  0  0  0  0  0
   49.7563   10.7975   20.2094 H   0  0  0  0  0  0  0  0  0  0  0  0
   45.5387   11.5949   19.7403 H   0  0  0  0  0  0  0  0  0  0  0  0
   47.7719   14.6100   16.9502 H   0  0  0  0  0  0  0  0  0  0  0  0
   49.4178   14.2922   17.1298 H   0  0  0  0  0  0  0  0  0  0  0  0
   50.2698   12.6935   18.7446 H   0  0  0  0  0  0  0  0  0  0  0  0
   46.0724   13.4950   18.2736 H   0  0  0  0  0  0  0  0  0  0  0  0
   48.9856    8.0891   22.9390 H   0  0  0  0  0  0  0  0  0  0  0  0
   47.2434    8.3515   22.9495 H   0  0  0  0  0  0  0  0  0  0  0  0
   48.8256    6.7114   20.8758 H   0  0  0  0  0  0  0  0  0  0  0  0
   47.1121    7.0238   20.7596 H   0  0  0  0  0  0  0  0  0  0  0  0
   47.4081    4.8113   21.6652 H   0  0  0  0  0  0  0  0  0  0  0  0
   46.7131    5.8266   22.9242 H   0  0  0  0  0  0  0  0  0  0  0  0
   48.5195    4.3241   23.7746 H   0  0  0  0  0  0  0  0  0  0  0  0
   48.9361    6.0219   24.0260 H   0  0  0  0  0  0  0  0  0  0  0  0
   49.6883    5.1103   22.7005 H   0  0  0  0  0  0  0  0  0  0  0  0
   47.7462   10.8478   18.4294 H   0  0  0  0  0  0  0  0  0  0  0  0
   48.1722    6.9904   20.3519 H   0  0  0  0  0  0  0  0  0  0  0  0
   47.8997   10.1818   23.7362 H   0  0  0  0  0  0  0  0  0  0  0  0
   49.5272    8.9495   22.2545 H   0  0  0  0  0  0  0  0  0  0  0  0
   46.5184    6.5296   20.3216 H   0  0  0  0  0  0  0  0  0  0  0  0
   47.5786    4.3678   24.3297 H   0  0  0  0  0  0  0  0  0  0  0  0
   48.7472    5.3185   25.0864 H   0  0  0  0  0  0  0  0  0  0  0  0
   49.7264    7.2710   24.0286 H   0  0  0  0  0  0  0  0  0  0  0  0
   46.7326    4.8549   22.1096 H   0  0  0  0  0  0  0  0  0  0  0  0
   49.5881   11.3990   19.1929 H   0  0  0  0  0  0  0  0  0  0  0  0
   48.4442   10.4794   18.2184 H   0  0  0  0  0  0  0  0  0  0  0  0
   46.5621   11.4258   19.6803 H   0  0  0  0  0  0  0  0  0  0  0  0
   47.7420   12.3922   20.5296 H   0  0  0  0  0  0  0  0  0  0  0  0
   46.4942   13.6583   18.7759 H   0  0  0  0  0  0  0  0  0  0  0  0
   47.1126   12.5816   17.5282 H   0  0  0  0  0  0  0  0  0  0  0  0
   48.3581   14.7453   17.6518 H   0  0  0  0  0  0  0  0  0  0  0  0
   48.8546   14.3712   19.3106 H   0  0  0  0  0  0  0  0  0  0  0  0
   49.4306   13.3759   17.9574 H   0  0  0  0  0  0  0  0  0  0  0  0
  2  1  1  0
  3  1  2  0
  4  2  2  0
  5  2  1  0
  6 10  1  0
  7  1  1  0
  8  6  1  0
  9  4  1  0
 10  5  2  0
 11  7  1  0
 12 11  1  0
 13 12  1  0
 14 13  1  0
  9  6  2  0
 16 17  1  0
 17 15  2  0
 18 15  1  0
 19 16  1  0
 20 21  1  0
 21 23  2  0
 22 21  1  0
 23 15  1  0
 24 18  1  0
 25 19  1  0
 26 20  1  0
 27 18  2  0
 28 19  2  0
 29 20  2  0
 30 17  1  0
 22 16  2  0
 32 31  1  0
 33 31  2  0
 34 32  2  0
 35 32  1  0
 36 40  1  0
 37 31  1  0
 38 36  1  0
 39 34  1  0
 40 35  2  0
 41 37  1  0
 42 41  1  0
 43 42  1  0
 44 43  1  0
 39 36  2  0
  4 45  1  0
  5 46  1  0
  8 47  1  0
  8 48  1  0
  9 49  1  0
 10 50  1  0
 11 51  1  0
 11 52  1  0
 12 53  1  0
 12 54  1  0
 13 55  1  0
 13 56  1  0
 14 57  1  0
 14 58  1  0
 14 59  1  0
 22 60  1  0
 23 61  1  0
 30 62  1  0
 34 63  1  0
 35 64  1  0
 38 65  1  0
 38 66  1  0
 39 67  1  0
 40 68  1  0
 41 69  1  0
 41 70  1  0
 42 71  1  0
 42 72  1  0
 43 73  1  0
 43 74  1  0
 44 75  1  0
 44 76  1  0
 44 77  1  0
M  CHG  6  18   1  19   1  20   1  24  -1  25  -1  26  -1
M  END
> <Uni-Dock RESULT> 
ENERGY=   -5.373  LOWER_BOUND=    6.813  UPPER_BOUND=    9.694
INTER + INTRA:          -5.373
INTER:                  -5.373
INTRA:                   0.000
UNBOUND:                 0.000

$$$$

     RDKit          3D

 77 77  0  0  0  0  0  0  0  0999 V2000
   49.5680    6.5678   16.8950 C   0  0  0  0  0  0  0  0  0  0  0  0
   49.0940    6.0983   18.2255 C   0  0  0  0  0  0  0  0  0  0  0  0
   50.6104    6.1933   16.3816 O   0  0  0  0  0  0  0  0  0  0  0  0
   47.8949    6.5386   18.7978 C   0  0  0  0  0  0  0  0  0  0  0  0
   49.8950    5.1949   18.9334 C   0  0  0  0  0  0  0  0  0  0  0  0
   48.2684    5.1182   20.7370 C   0  0  0  0  0  0  0  0  0  0  0  0
   48.6842    7.4446   16.3564 O   0  0  0  0  0  0  0  0  0  0  0  0
   47.9286    4.7433   22.0406 N   0  0  0  0  0  0  0  0  0  0  0  0
   47.5001    6.0644   20.0541 C   0  0  0  0  0  0  0  0  0  0  0  0
   49.4920    4.7275   20.1888 C   0  0  0  0  0  0  0  0  0  0  0  0
   49.0362    7.9756   15.0678 C   0  0  0  0  0  0  0  0  0  0  0  0
   48.5183    7.0521   13.9684 C   0  0  0  0  0  0  0  0  0  0  0  0
   48.8917    7.5109   12.5598 C   0  0  0  0  0  0  0  0  0  0  0  0
   48.2519    8.8322   12.1631 C   0  0  0  0  0  0  0  0  0  0  0  0
   48.9491    7.4603   15.7043 C   0  0  0  0  0  0  0  0  0  0  0  0
   49.1327    6.6257   17.9493 C   0  0  0  0  0  0  0  0  0  0  0  0
   49.4356    7.6213   17.0123 C   0  0  0  0  0  0  0  0  0  0  0  0
   49.2234    8.4642   14.6680 N   0  0  0  0  0  0  0  0  0  0  0  0
   49.6042    6.7541   19.3115 N   0  0  0  0  0  0  0  0  0  0  0  0
   47.1167    4.1661   15.9579 N   0  0  0  0  0  0  0  0  0  0  0  0
   47.9104    5.3491   16.3221 C   0  0  0  0  0  0  0  0  0  0  0  0
   48.3814    5.4879   17.6306 C   0  0  0  0  0  0  0  0  0  0  0  0
   48.1863    6.3279   15.3539 C   0  0  0  0  0  0  0  0  0  0  0  0
   49.8953    9.4526   14.9986 O   0  0  0  0  0  0  0  0  0  0  0  0
   48.9639    7.5057   20.0563 O   0  0  0  0  0  0  0  0  0  0  0  0
   46.7526    4.0637   14.7802 O   0  0  0  0  0  0  0  0  0  0  0  0
   48.7708    8.2653   13.5347 O   0  0  0  0  0  0  0  0  0  0  0  0
   50.5676    6.0469   19.6319 O   0  0  0  0  0  0  0  0  0  0  0  0
   46.8640    3.3511   16.8537 O   0  0  0  0  0  0  0  0  0  0  0  0
   50.1955    8.6804   17.4246 O   0  0  0  0  0  0  0  0  0  0  0  0
   48.3968    5.9749   16.1462 C   0  0  0  0  0  0  0  0  0  0  0  0
   48.5513    6.9130   15.0010 C   0  0  0  0  0  0  0  0  0  0  0  0
   48.6050    4.7747   16.0656 O   0  0  0  0  0  0  0  0  0  0  0  0
   48.3064    8.2866   15.1125 C   0  0  0  0  0  0  0  0  0  0  0  0
   48.9397    6.3889   13.7627 C   0  0  0  0  0  0  0  0  0  0  0  0
   48.9104    8.6104   12.7784 C   0  0  0  0  0  0  0  0  0  0  0  0
   48.0069    6.6431   17.2604 O   0  0  0  0  0  0  0  0  0  0  0  0
   48.9506    9.4293   11.6456 N   0  0  0  0  0  0  0  0  0  0  0  0
   48.4664    9.1215   14.0005 C   0  0  0  0  0  0  0  0  0  0  0  0
   49.0960    7.2315   12.6570 C   0  0  0  0  0  0  0  0  0  0  0  0
   47.8184    5.8401   18.4377 C   0  0  0  0  0  0  0  0  0  0  0  0
   49.1387    5.7106   19.1926 C   0  0  0  0  0  0  0  0  0  0  0  0
   49.0472    4.8282   20.4365 C   0  0  0  0  0  0  0  0  0  0  0  0
   48.1384    5.3948   21.5160 C   0  0  0  0  0  0  0  0  0  0  0  0
   47.2621    7.2602   18.2877 H   0  0  0  0  0  0  0  0  0  0  0  0
   50.8441    4.8601   18.5190 H   0  0  0  0  0  0  0  0  0  0  0  0
   48.3356    3.8615   22.3365 H   0  0  0  0  0  0  0  0  0  0  0  0
   46.9347    4.7945   22.2406 H   0  0  0  0  0  0  0  0  0  0  0  0
   46.5819    6.4438   20.4956 H   0  0  0  0  0  0  0  0  0  0  0  0
   50.1466    4.0525   20.7344 H   0  0  0  0  0  0  0  0  0  0  0  0
   48.5596    8.9585   14.9996 H   0  0  0  0  0  0  0  0  0  0  0  0
   50.1180    8.1367   14.9891 H   0  0  0  0  0  0  0  0  0  0  0  0
   47.4292    6.9541   14.0587 H   0  0  0  0  0  0  0  0  0  0  0  0
   48.9161    6.0422   14.1265 H   0  0  0  0  0  0  0  0  0  0  0  0
   48.5720    6.7412   11.8471 H   0  0  0  0  0  0  0  0  0  0  0  0
   49.9813    7.5920   12.4707 H   0  0  0  0  0  0  0  0  0  0  0  0
   48.4801    9.0608   11.1170 H   0  0  0  0  0  0  0  0  0  0  0  0
   48.6286    9.6592   12.7721 H   0  0  0  0  0  0  0  0  0  0  0  0
   47.1635    8.7899   12.2708 H   0  0  0  0  0  0  0  0  0  0  0  0
   48.1760    4.7372   18.3932 H   0  0  0  0  0  0  0  0  0  0  0  0
   47.8118    6.2086   14.3361 H   0  0  0  0  0  0  0  0  0  0  0  0
   50.3383    9.3294   16.7003 H   0  0  0  0  0  0  0  0  0  0  0  0
   47.9773    8.7229   16.0520 H   0  0  0  0  0  0  0  0  0  0  0  0
   49.1096    5.3201   13.6472 H   0  0  0  0  0  0  0  0  0  0  0  0
   49.5525    9.0817   10.9056 H   0  0  0  0  0  0  0  0  0  0  0  0
   49.1180   10.4096   11.8488 H   0  0  0  0  0  0  0  0  0  0  0  0
   48.2392   10.1801   14.0994 H   0  0  0  0  0  0  0  0  0  0  0  0
   49.3659    6.7970   11.6977 H   0  0  0  0  0  0  0  0  0  0  0  0
   47.0758    6.3613   19.0498 H   0  0  0  0  0  0  0  0  0  0  0  0
   47.3959    4.8605   18.1843 H   0  0  0  0  0  0  0  0  0  0  0  0
   49.9004    5.2948   18.5217 H   0  0  0  0  0  0  0  0  0  0  0  0
   49.5024    6.7099   19.4631 H   0  0  0  0  0  0  0  0  0  0  0  0
   50.0541    4.7112   20.8545 H   0  0  0  0  0  0  0  0  0  0  0  0
   48.7016    3.8260   20.1576 H   0  0  0  0  0  0  0  0  0  0  0  0
   48.1877    4.7705   22.4141 H   0  0  0  0  0  0  0  0  0  0  0  0
   48.4410    6.4097   21.7920 H   0  0  0  0  0  0  0  0  0  0  0  0
   47.0949    5.4210   21.1887 H   0  0  0  0  0  0  0  0  0  0  0  0
  2  1  1  0
  3  1  2  0
  4  2  2  0
  5  2  1  0
  6 10  1  0
  7  1  1  0
  8  6  1  0
  9  4  1  0
 10  5  2  0
 11  7  1  0
 12 11  1  0
 13 12  1  0
 14 13  1  0
  9  6  2  0
 16 17  1  0
 17 15  2  0
 18 15  1  0
 19 16  1  0
 20 21  1  0
 21 23  2  0
 22 21  1  0
 23 15  1  0
 24 18  1  0
 25 19  1  0
 26 20  1  0
 27 18  2  0
 28 19  2  0
 29 20  2  0
 30 17  1  0
 22 16  2  0
 32 31  1  0
 33 31  2  0
 34 32  2  0
 35 32  1  0
 36 40  1  0
 37 31  1  0
 38 36  1  0
 39 34  1  0
 40 35  2  0
 41 37  1  0
 42 41  1  0
 43 42  1  0
 44 43  1  0
 39 36  2  0
  4 45  1  0
  5 46  1  0
  8 47  1  0
  8 48  1  0
  9 49  1  0
 10 50  1  0
 11 51  1  0
 11 52  1  0
 12 53  1  0
 12 54  1  0
 13 55  1  0
 13 56  1  0
 14 57  1  0
 14 58  1  0
 14 59  1  0
 22 60  1  0
 23 61  1  0
 30 62  1  0
 34 63  1  0
 35 64  1  0
 38 65  1  0
 38 66  1  0
 39 67  1  0
 40 68  1  0
 41 69  1  0
 41 70  1  0
 42 71  1  0
 42 72  1  0
 43 73  1  0
 43 74  1  0
 44 75  1  0
 44 76  1  0
 44 77  1  0
M  CHG  6  18   1  19   1  20   1  24  -1  25  -1  26  -1
M  END
> <Uni-Dock RESULT> 
ENERGY=   -5.242  LOWER_BOUND=    4.085  UPPER_BOUND=    6.546
INTER + INTRA:          -5.242
INTER:                  -5.242
INTRA:                   0.000
UNBOUND:                 0.000

$$$$

     RDKit          3D

 77 77  0  0  0  0  0  0  0  0999 V2000
   47.7533    6.8113   18.5195 C   0  0  0  0  0  0  0  0  0  0  0  0
   48.5428    5.5661   18.3158 C   0  0  0  0  0  0  0  0  0  0  0  0
   46.5341    6.8506   18.4694 O   0  0  0  0  0  0  0  0  0  0  0  0
   49.9409    5.5404   18.3778 C   0  0  0  0  0  0  0  0  0  0  0  0
   47.8519    4.3821   18.0329 C   0  0  0  0  0  0  0  0  0  0  0  0
   49.9421    3.1455   17.9512 C   0  0  0  0  0  0  0  0  0  0  0  0
   48.5751    7.8613   18.7683 O   0  0  0  0  0  0  0  0  0  0  0  0
   50.6418    1.9779   17.6308 N   0  0  0  0  0  0  0  0  0  0  0  0
   50.6314    4.3398   18.1756 C   0  0  0  0  0  0  0  0  0  0  0  0
   48.5512    3.1875   17.8315 C   0  0  0  0  0  0  0  0  0  0  0  0
   47.9270    9.1272   18.9773 C   0  0  0  0  0  0  0  0  0  0  0  0
   47.5678    9.2876   20.4521 C   0  0  0  0  0  0  0  0  0  0  0  0
   46.8255   10.5865   20.7618 C   0  0  0  0  0  0  0  0  0  0  0  0
   47.6615   11.8341   20.5227 C   0  0  0  0  0  0  0  0  0  0  0  0
   48.0849    8.3189   18.9824 C   0  0  0  0  0  0  0  0  0  0  0  0
   48.5814    6.1303   18.1259 C   0  0  0  0  0  0  0  0  0  0  0  0
   48.2874    7.4766   17.8766 C   0  0  0  0  0  0  0  0  0  0  0  0
   47.7758    9.7431   18.7999 N   0  0  0  0  0  0  0  0  0  0  0  0
   48.8077    5.2275   17.0178 N   0  0  0  0  0  0  0  0  0  0  0  0
   48.5508    5.9309   21.8727 N   0  0  0  0  0  0  0  0  0  0  0  0
   48.4622    6.4578   20.5029 C   0  0  0  0  0  0  0  0  0  0  0  0
   48.6699    5.6004   19.4190 C   0  0  0  0  0  0  0  0  0  0  0  0
   48.1715    7.8160   20.2964 C   0  0  0  0  0  0  0  0  0  0  0  0
   47.7056   10.1642   17.6357 O   0  0  0  0  0  0  0  0  0  0  0  0
   49.9227    5.2656   16.4842 O   0  0  0  0  0  0  0  0  0  0  0  0
   48.3218    6.7150   22.8016 O   0  0  0  0  0  0  0  0  0  0  0  0
   47.6052   10.4331   19.8117 O   0  0  0  0  0  0  0  0  0  0  0  0
   47.8876    4.4466   16.7443 O   0  0  0  0  0  0  0  0  0  0  0  0
   48.8497    4.7379   22.0066 O   0  0  0  0  0  0  0  0  0  0  0  0
   48.2033    7.8843   16.5744 O   0  0  0  0  0  0  0  0  0  0  0  0
   48.2044    6.9939   19.9503 C   0  0  0  0  0  0  0  0  0  0  0  0
   47.9260    8.4560   19.9355 C   0  0  0  0  0  0  0  0  0  0  0  0
   47.5704    6.1951   20.6213 O   0  0  0  0  0  0  0  0  0  0  0  0
   48.6653    9.3570   19.1604 C   0  0  0  0  0  0  0  0  0  0  0  0
   46.8939    8.9423   20.7462 C   0  0  0  0  0  0  0  0  0  0  0  0
   47.2925   11.2035   19.9504 C   0  0  0  0  0  0  0  0  0  0  0  0
   49.2366    6.6968   19.1219 O   0  0  0  0  0  0  0  0  0  0  0  0
   47.0724   12.5797   20.0648 N   0  0  0  0  0  0  0  0  0  0  0  0
   48.3596   10.7227   19.1874 C   0  0  0  0  0  0  0  0  0  0  0  0
   46.5968   10.3092   20.7670 C   0  0  0  0  0  0  0  0  0  0  0  0
   49.6049    5.3090   19.0538 C   0  0  0  0  0  0  0  0  0  0  0  0
   48.7754    4.6055   17.9830 C   0  0  0  0  0  0  0  0  0  0  0  0
   49.0626    3.1089   17.8731 C   0  0  0  0  0  0  0  0  0  0  0  0
   50.4771    2.7955   17.4113 C   0  0  0  0  0  0  0  0  0  0  0  0
   50.5102    6.4463   18.5686 H   0  0  0  0  0  0  0  0  0  0  0  0
   46.7664    4.3848   17.9535 H   0  0  0  0  0  0  0  0  0  0  0  0
   50.1137    1.1244   17.7837 H   0  0  0  0  0  0  0  0  0  0  0  0
   51.5736    1.9306   18.0308 H   0  0  0  0  0  0  0  0  0  0  0  0
   51.7183    4.3475   18.1952 H   0  0  0  0  0  0  0  0  0  0  0  0
   47.9952    2.2878   17.5800 H   0  0  0  0  0  0  0  0  0  0  0  0
   48.6450    9.8945   18.6716 H   0  0  0  0  0  0  0  0  0  0  0  0
   47.0484    9.2327   18.3298 H   0  0  0  0  0  0  0  0  0  0  0  0
   48.4799    9.2186   21.0582 H   0  0  0  0  0  0  0  0  0  0  0  0
   46.9438    8.4422   20.7669 H   0  0  0  0  0  0  0  0  0  0  0  0
   46.5185   10.5693   21.8144 H   0  0  0  0  0  0  0  0  0  0  0  0
   45.9076   10.6426   20.1651 H   0  0  0  0  0  0  0  0  0  0  0  0
   47.1114   12.7228   20.8486 H   0  0  0  0  0  0  0  0  0  0  0  0
   47.8975   11.9618   19.4622 H   0  0  0  0  0  0  0  0  0  0  0  0
   48.6000   11.7920   21.0844 H   0  0  0  0  0  0  0  0  0  0  0  0
   48.8960    4.5442   19.5626 H   0  0  0  0  0  0  0  0  0  0  0  0
   48.0127    8.4754   21.1510 H   0  0  0  0  0  0  0  0  0  0  0  0
   48.0093    8.8455   16.5061 H   0  0  0  0  0  0  0  0  0  0  0  0
   49.4908    9.0172   18.5404 H   0  0  0  0  0  0  0  0  0  0  0  0
   46.3239    8.2628   21.3769 H   0  0  0  0  0  0  0  0  0  0  0  0
   46.1349   12.8244   20.3677 H   0  0  0  0  0  0  0  0  0  0  0  0
   47.3666   13.1150   19.2541 H   0  0  0  0  0  0  0  0  0  0  0  0
   48.9669   11.4102   18.6038 H   0  0  0  0  0  0  0  0  0  0  0  0
   45.8130   10.6677   21.4294 H   0  0  0  0  0  0  0  0  0  0  0  0
   50.6676    5.2853   18.7934 H   0  0  0  0  0  0  0  0  0  0  0  0
   49.5027    4.8248   20.0323 H   0  0  0  0  0  0  0  0  0  0  0  0
   47.7094    4.7439   18.2014 H   0  0  0  0  0  0  0  0  0  0  0  0
   48.9408    5.0949   17.0149 H   0  0  0  0  0  0  0  0  0  0  0  0
   48.3570    2.6712   17.1569 H   0  0  0  0  0  0  0  0  0  0  0  0
   48.8774    2.6223   18.8377 H   0  0  0  0  0  0  0  0  0  0  0  0
   50.5926    1.7172   17.2608 H   0  0  0  0  0  0  0  0  0  0  0  0
   50.7013    3.2957   16.4640 H   0  0  0  0  0  0  0  0  0  0  0  0
   51.2191    3.1072   18.1521 H   0  0  0  0  0  0  0  0  0  0  0  0
  2  1  1  0
  3  1  2  0
  4  2  2  0
  5  2  1  0
  6 10  1  0
  7  1  1  0
  8  6  1  0
  9  4  1  0
 10  5  2  0
 11  7  1  0
 12 11  1  0
 13 12  1  0
 14 13  1  0
  9  6  2  0
 16 17  1  0
 17 15  2  0
 18 15  1  0
 19 16  1  0
 20 21  1  0
 21 23  2  0
 22 21  1  0
 23 15  1  0
 24 18  1  0
 25 19  1  0
 26 20  1  0
 27 18  2  0
 28 19  2  0
 29 20  2  0
 30 17  1  0
 22 16  2  0
 32 31  1  0
 33 31  2  0
 34 32  2  0
 35 32  1  0
 36 40  1  0
 37 31  1  0
 38 36  1  0
 39 34  1  0
 40 35  2  0
 41 37  1  0
 42 41  1  0
 43 42  1  0
 44 43  1  0
 39 36  2  0
  4 45  1  0
  5 46  1  0
  8 47  1  0
  8 48  1  0
  9 49  1  0
 10 50  1  0
 11 51  1  0
 11 52  1  0
 12 53  1  0
 12 54  1  0
 13 55  1  0
 13 56  1  0
 14 57  1  0
 14 58  1  0
 14 59  1  0
 22 60  1  0
 23 61  1  0
 30 62  1  0
 34 63  1  0
 35 64  1  0
 38 65  1  0
 38 66  1  0
 39 67  1  0
 40 68  1  0
 41 69  1  0
 41 70  1  0
 42 71  1  0
 42 72  1  0
 43 73  1  0
 43 74  1  0
 44 75  1  0
 44 76  1  0
 44 77  1  0
M  CHG  6  18   1  19   1  20   1  24  -1  25  -1  26  -1
M  END
> <Uni-Dock RESULT> 
ENERGY=   -5.226  LOWER_BOUND=    5.851  UPPER_BOUND=    7.566
INTER + INTRA:          -5.226
INTER:                  -5.226
INTRA:                   0.000
UNBOUND:                 0.000

$$$$
