
     RDKit          3D

 77 77  0  0  0  0  0  0  0  0999 V2000
   45.8521    8.1980   12.2685 C   0  0  0  0  0  0  0  0  0  0  0  0
   45.2452    6.8467   12.4114 C   0  0  0  0  0  0  0  0  0  0  0  0
   45.2976    9.1320   11.7109 O   0  0  0  0  0  0  0  0  0  0  0  0
   45.8843    5.8009   13.0873 C   0  0  0  0  0  0  0  0  0  0  0  0
   43.9752    6.6292   11.8648 C   0  0  0  0  0  0  0  0  0  0  0  0
   44.0211    4.3142   12.6022 C   0  0  0  0  0  0  0  0  0  0  0  0
   47.0838    8.2313   12.8355 O   0  0  0  0  0  0  0  0  0  0  0  0
   43.3552    3.1045   12.8210 N   0  0  0  0  0  0  0  0  0  0  0  0
   45.2628    4.5517   13.1971 C   0  0  0  0  0  0  0  0  0  0  0  0
   43.3624    5.3771   11.9798 C   0  0  0  0  0  0  0  0  0  0  0  0
   47.7381    9.5057   12.7490 C   0  0  0  0  0  0  0  0  0  0  0  0
   49.1034    9.3762   13.4169 C   0  0  0  0  0  0  0  0  0  0  0  0
   49.8727   10.6932   13.5012 C   0  0  0  0  0  0  0  0  0  0  0  0
   50.2487   11.2639   12.1426 C   0  0  0  0  0  0  0  0  0  0  0  0
   45.7014    8.4094   12.2353 C   0  0  0  0  0  0  0  0  0  0  0  0
   48.0315    8.0361   12.6823 C   0  0  0  0  0  0  0  0  0  0  0  0
   47.0096    8.9073   12.2702 C   0  0  0  0  0  0  0  0  0  0  0  0
   44.6162    9.2729   11.8232 N   0  0  0  0  0  0  0  0  0  0  0  0
   49.4278    8.4865   12.7449 N   0  0  0  0  0  0  0  0  0  0  0  0
   46.1105    4.8554   13.3653 N   0  0  0  0  0  0  0  0  0  0  0  0
   46.4153    6.2440   12.9906 C   0  0  0  0  0  0  0  0  0  0  0  0
   47.7406    6.7049   13.0442 C   0  0  0  0  0  0  0  0  0  0  0  0
   45.3812    7.0921   12.5849 C   0  0  0  0  0  0  0  0  0  0  0  0
   44.1476   10.0291   12.6826 O   0  0  0  0  0  0  0  0  0  0  0  0
   50.2834    7.6722   13.1114 O   0  0  0  0  0  0  0  0  0  0  0  0
   47.0599    4.1276   13.6804 O   0  0  0  0  0  0  0  0  0  0  0  0
   44.2064    9.1316   10.6646 O   0  0  0  0  0  0  0  0  0  0  0  0
   49.6601    9.6613   12.4236 O   0  0  0  0  0  0  0  0  0  0  0  0
   44.9240    4.5057   13.3417 O   0  0  0  0  0  0  0  0  0  0  0  0
   47.2121   10.2053   11.8918 O   0  0  0  0  0  0  0  0  0  0  0  0
   47.7420    7.4484   11.8679 C   0  0  0  0  0  0  0  0  0  0  0  0
   48.1922    8.8082   12.2714 C   0  0  0  0  0  0  0  0  0  0  0  0
   48.3518    6.7401   11.0823 O   0  0  0  0  0  0  0  0  0  0  0  0
   49.3851    9.2996   11.7289 C   0  0  0  0  0  0  0  0  0  0  0  0
   47.4611    9.6141   13.1515 C   0  0  0  0  0  0  0  0  0  0  0  0
   49.1519   11.3566   13.0016 C   0  0  0  0  0  0  0  0  0  0  0  0
   46.5838    7.1229   12.4948 O   0  0  0  0  0  0  0  0  0  0  0  0
   49.5538   12.6721   13.2531 N   0  0  0  0  0  0  0  0  0  0  0  0
   49.8471   10.5731   12.0777 C   0  0  0  0  0  0  0  0  0  0  0  0
   47.9320   10.8869   13.4945 C   0  0  0  0  0  0  0  0  0  0  0  0
   46.0798    5.8209   12.1631 C   0  0  0  0  0  0  0  0  0  0  0  0
   44.8044    5.5946   12.9682 C   0  0  0  0  0  0  0  0  0  0  0  0
   44.2068    4.2001   12.7904 C   0  0  0  0  0  0  0  0  0  0  0  0
   43.7128    3.9289   11.3780 C   0  0  0  0  0  0  0  0  0  0  0  0
   46.8583    5.9442   13.5481 H   0  0  0  0  0  0  0  0  0  0  0  0
   43.4489    7.4365   11.3589 H   0  0  0  0  0  0  0  0  0  0  0  0
   43.9718    2.3149   12.9855 H   0  0  0  0  0  0  0  0  0  0  0  0
   42.6378    2.8965   12.1333 H   0  0  0  0  0  0  0  0  0  0  0  0
   45.7605    3.7627   13.7557 H   0  0  0  0  0  0  0  0  0  0  0  0
   42.3619    5.2413   11.5768 H   0  0  0  0  0  0  0  0  0  0  0  0
   47.1346   10.2601   13.2668 H   0  0  0  0  0  0  0  0  0  0  0  0
   47.8500    9.7809   11.6945 H   0  0  0  0  0  0  0  0  0  0  0  0
   48.9660    8.9786   14.4306 H   0  0  0  0  0  0  0  0  0  0  0  0
   49.6992    8.6232   12.8861 H   0  0  0  0  0  0  0  0  0  0  0  0
   50.7916   10.5232   14.0748 H   0  0  0  0  0  0  0  0  0  0  0  0
   49.2850   11.4331   14.0571 H   0  0  0  0  0  0  0  0  0  0  0  0
   50.8080   10.5328   11.5501 H   0  0  0  0  0  0  0  0  0  0  0  0
   50.8783   12.1503   12.2693 H   0  0  0  0  0  0  0  0  0  0  0  0
   49.3629   11.5654   11.5756 H   0  0  0  0  0  0  0  0  0  0  0  0
   48.5391    6.0332   13.3631 H   0  0  0  0  0  0  0  0  0  0  0  0
   44.3479    6.7496   12.5373 H   0  0  0  0  0  0  0  0  0  0  0  0
   48.1585   10.4612   11.9624 H   0  0  0  0  0  0  0  0  0  0  0  0
   49.9553    8.7004   11.0215 H   0  0  0  0  0  0  0  0  0  0  0  0
   46.5169    9.2745   13.5691 H   0  0  0  0  0  0  0  0  0  0  0  0
   49.2079   13.0508   14.1291 H   0  0  0  0  0  0  0  0  0  0  0  0
   50.5495   12.8305   13.1322 H   0  0  0  0  0  0  0  0  0  0  0  0
   50.7592   10.9465   11.6190 H   0  0  0  0  0  0  0  0  0  0  0  0
   47.3333   11.5103   14.1538 H   0  0  0  0  0  0  0  0  0  0  0  0
   45.8699    5.7829   11.0890 H   0  0  0  0  0  0  0  0  0  0  0  0
   46.8278    5.0624   12.4211 H   0  0  0  0  0  0  0  0  0  0  0  0
   44.0644    6.3603   12.7036 H   0  0  0  0  0  0  0  0  0  0  0  0
   45.0241    5.7551   14.0313 H   0  0  0  0  0  0  0  0  0  0  0  0
   44.9447    3.4395   13.0710 H   0  0  0  0  0  0  0  0  0  0  0  0
   43.3624    4.0924   13.4817 H   0  0  0  0  0  0  0  0  0  0  0  0
   43.2158    2.9545   11.3350 H   0  0  0  0  0  0  0  0  0  0  0  0
   42.9932    4.6900   11.0604 H   0  0  0  0  0  0  0  0  0  0  0  0
   44.5386    3.9107   10.6609 H   0  0  0  0  0  0  0  0  0  0  0  0
  2  1  1  0
  3  1  2  0
  4  2  2  0
  5  2  1  0
  6 10  1  0
  7  1  1  0
  8  6  1  0
  9  4  1  0
 10  5  2  0
 11  7  1  0
 12 11  1  0
 13 12  1  0
 14 13  1  0
  9  6  2  0
 16 17  1  0
 17 15  2  0
 18 15  1  0
 19 16  1  0
 20 21  1  0
 21 23  2  0
 22 21  1  0
 23 15  1  0
 24 18  1  0
 25 19  1  0
 26 20  1  0
 27 18  2  0
 28 19  2  0
 29 20  2  0
 30 17  1  0
 22 16  2  0
 32 31  1  0
 33 31  2  0
 34 32  2  0
 35 32  1  0
 36 40  1  0
 37 31  1  0
 38 36  1  0
 39 34  1  0
 40 35  2  0
 41 37  1  0
 42 41  1  0
 43 42  1  0
 44 43  1  0
 39 36  2  0
  4 45  1  0
  5 46  1  0
  8 47  1  0
  8 48  1  0
  9 49  1  0
 10 50  1  0
 11 51  1  0
 11 52  1  0
 12 53  1  0
 12 54  1  0
 13 55  1  0
 13 56  1  0
 14 57  1  0
 14 58  1  0
 14 59  1  0
 22 60  1  0
 23 61  1  0
 30 62  1  0
 34 63  1  0
 35 64  1  0
 38 65  1  0
 38 66  1  0
 39 67  1  0
 40 68  1  0
 41 69  1  0
 41 70  1  0
 42 71  1  0
 42 72  1  0
 43 73  1  0
 43 74  1  0
 44 75  1  0
 44 76  1  0
 44 77  1  0
M  CHG  6  18   1  19   1  20   1  24  -1  25  -1  26  -1
M  END
> <Uni-Dock RESULT> 
ENERGY=   -6.203  LOWER_BOUND=    0.000  UPPER_BOUND=    0.000
INTER + INTRA:          -6.203
INTER:                  -6.203
INTRA:                   0.000
UNBOUND:                 0.000

$$$$

     RDKit          3D

 77 77  0  0  0  0  0  0  0  0999 V2000
   48.2615    6.4523   18.6756 C   0  0  0  0  0  0  0  0  0  0  0  0
   49.0542    5.2501   18.3001 C   0  0  0  0  0  0  0  0  0  0  0  0
   47.1057    6.4044   19.0665 O   0  0  0  0  0  0  0  0  0  0  0  0
   50.3902    5.3260   17.8899 C   0  0  0  0  0  0  0  0  0  0  0  0
   48.4378    3.9963   18.3857 C   0  0  0  0  0  0  0  0  0  0  0  0
   50.4599    2.9139   17.5832 C   0  0  0  0  0  0  0  0  0  0  0  0
   48.9993    7.5795   18.5191 O   0  0  0  0  0  0  0  0  0  0  0  0
   51.1987    1.7468   17.3663 N   0  0  0  0  0  0  0  0  0  0  0  0
   51.0896    4.1607   17.5552 C   0  0  0  0  0  0  0  0  0  0  0  0
   49.1454    2.8377   18.0490 C   0  0  0  0  0  0  0  0  0  0  0  0
   48.3098    8.7886   18.8688 C   0  0  0  0  0  0  0  0  0  0  0  0
   49.2624    9.9557   18.6297 C   0  0  0  0  0  0  0  0  0  0  0  0
   48.7001   11.3066   19.0683 C   0  0  0  0  0  0  0  0  0  0  0  0
   47.4776   11.7410   18.2748 C   0  0  0  0  0  0  0  0  0  0  0  0
   48.0586    6.4327   18.8399 C   0  0  0  0  0  0  0  0  0  0  0  0
   49.2900    8.2516   17.8682 C   0  0  0  0  0  0  0  0  0  0  0  0
   48.1426    7.7978   18.5396 C   0  0  0  0  0  0  0  0  0  0  0  0
   46.8980    5.9217   19.5361 N   0  0  0  0  0  0  0  0  0  0  0  0
   49.4495    9.6693   17.5201 N   0  0  0  0  0  0  0  0  0  0  0  0
   51.2596    5.0548   17.4506 N   0  0  0  0  0  0  0  0  0  0  0  0
   50.1909    5.9921   17.8258 C   0  0  0  0  0  0  0  0  0  0  0  0
   50.3168    7.3546   17.5099 C   0  0  0  0  0  0  0  0  0  0  0  0
   49.0594    5.5167   18.4942 C   0  0  0  0  0  0  0  0  0  0  0  0
   46.8879    6.0419   20.7671 O   0  0  0  0  0  0  0  0  0  0  0  0
   50.4799   10.0074   16.9254 O   0  0  0  0  0  0  0  0  0  0  0  0
   52.2251    5.5104   16.8256 O   0  0  0  0  0  0  0  0  0  0  0  0
   46.0468    5.3482   18.8456 O   0  0  0  0  0  0  0  0  0  0  0  0
   48.5350   10.4402   17.8462 O   0  0  0  0  0  0  0  0  0  0  0  0
   51.1238    3.8716   17.7854 O   0  0  0  0  0  0  0  0  0  0  0  0
   47.0998    8.6010   18.9088 O   0  0  0  0  0  0  0  0  0  0  0  0
   49.0046    7.5899   17.1112 C   0  0  0  0  0  0  0  0  0  0  0  0
   48.5492    8.7383   17.9409 C   0  0  0  0  0  0  0  0  0  0  0  0
   49.0772    7.6235   15.8928 O   0  0  0  0  0  0  0  0  0  0  0  0
   48.1938    9.9259   17.2912 C   0  0  0  0  0  0  0  0  0  0  0  0
   48.4461    8.6671   19.3348 C   0  0  0  0  0  0  0  0  0  0  0  0
   47.7110   10.9843   19.4248 C   0  0  0  0  0  0  0  0  0  0  0  0
   49.3236    6.5303   17.8958 O   0  0  0  0  0  0  0  0  0  0  0  0
   47.1622   12.0484   20.1471 N   0  0  0  0  0  0  0  0  0  0  0  0
   47.7584   11.0313   18.0297 C   0  0  0  0  0  0  0  0  0  0  0  0
   48.0096    9.7789   20.0648 C   0  0  0  0  0  0  0  0  0  0  0  0
   49.7773    5.3769   17.1725 C   0  0  0  0  0  0  0  0  0  0  0  0
   50.1253    4.2949   18.1896 C   0  0  0  0  0  0  0  0  0  0  0  0
   50.7206    3.0347   17.5641 C   0  0  0  0  0  0  0  0  0  0  0  0
   49.7482    2.2882   16.6645 C   0  0  0  0  0  0  0  0  0  0  0  0
   50.9075    6.2806   17.8399 H   0  0  0  0  0  0  0  0  0  0  0  0
   47.4082    3.9122   18.7286 H   0  0  0  0  0  0  0  0  0  0  0  0
   52.0005    1.8703   16.7559 H   0  0  0  0  0  0  0  0  0  0  0  0
   50.6360    0.9431   17.1054 H   0  0  0  0  0  0  0  0  0  0  0  0
   52.1367    4.2376   17.2721 H   0  0  0  0  0  0  0  0  0  0  0  0
   48.6566    1.8725   18.1553 H   0  0  0  0  0  0  0  0  0  0  0  0
   48.0191    8.7488   19.9250 H   0  0  0  0  0  0  0  0  0  0  0  0
   47.4164    8.8864   18.2423 H   0  0  0  0  0  0  0  0  0  0  0  0
   50.1979    9.7666   19.1716 H   0  0  0  0  0  0  0  0  0  0  0  0
   49.5408    9.9880   17.5689 H   0  0  0  0  0  0  0  0  0  0  0  0
   49.4827   12.0651   18.9469 H   0  0  0  0  0  0  0  0  0  0  0  0
   48.4505   11.2776   20.1353 H   0  0  0  0  0  0  0  0  0  0  0  0
   47.6874   11.7460   17.2005 H   0  0  0  0  0  0  0  0  0  0  0  0
   47.1812   12.7535   18.5669 H   0  0  0  0  0  0  0  0  0  0  0  0
   46.6250   11.0806   18.4589 H   0  0  0  0  0  0  0  0  0  0  0  0
   51.2053    7.7135   16.9882 H   0  0  0  0  0  0  0  0  0  0  0  0
   48.9463    4.4626   18.7460 H   0  0  0  0  0  0  0  0  0  0  0  0
   47.2596    9.5396   18.6647 H   0  0  0  0  0  0  0  0  0  0  0  0
   48.2406    9.9940   16.2060 H   0  0  0  0  0  0  0  0  0  0  0  0
   48.6874    7.7516   19.8685 H   0  0  0  0  0  0  0  0  0  0  0  0
   47.4416   12.0748   21.1227 H   0  0  0  0  0  0  0  0  0  0  0  0
   47.2629   12.9514   19.6937 H   0  0  0  0  0  0  0  0  0  0  0  0
   47.4569   11.9321   17.5012 H   0  0  0  0  0  0  0  0  0  0  0  0
   47.9048    9.6931   21.1434 H   0  0  0  0  0  0  0  0  0  0  0  0
   48.9778    5.0368   16.5060 H   0  0  0  0  0  0  0  0  0  0  0  0
   50.6636    5.6395   16.5836 H   0  0  0  0  0  0  0  0  0  0  0  0
   49.2320    4.0419   18.7742 H   0  0  0  0  0  0  0  0  0  0  0  0
   50.8413    4.7061   18.9124 H   0  0  0  0  0  0  0  0  0  0  0  0
   51.6214    3.2909   16.9943 H   0  0  0  0  0  0  0  0  0  0  0  0
   51.0365    2.3619   18.3703 H   0  0  0  0  0  0  0  0  0  0  0  0
   50.1988    1.3519   16.3201 H   0  0  0  0  0  0  0  0  0  0  0  0
   48.8260    2.0427   17.2007 H   0  0  0  0  0  0  0  0  0  0  0  0
   49.4893    2.8757   15.7789 H   0  0  0  0  0  0  0  0  0  0  0  0
  2  1  1  0
  3  1  2  0
  4  2  2  0
  5  2  1  0
  6 10  1  0
  7  1  1  0
  8  6  1  0
  9  4  1  0
 10  5  2  0
 11  7  1  0
 12 11  1  0
 13 12  1  0
 14 13  1  0
  9  6  2  0
 16 17  1  0
 17 15  2  0
 18 15  1  0
 19 16  1  0
 20 21  1  0
 21 23  2  0
 22 21  1  0
 23 15  1  0
 24 18  1  0
 25 19  1  0
 26 20  1  0
 27 18  2  0
 28 19  2  0
 29 20  2  0
 30 17  1  0
 22 16  2  0
 32 31  1  0
 33 31  2  0
 34 32  2  0
 35 32  1  0
 36 40  1  0
 37 31  1  0
 38 36  1  0
 39 34  1  0
 40 35  2  0
 41 37  1  0
 42 41  1  0
 43 42  1  0
 44 43  1  0
 39 36  2  0
  4 45  1  0
  5 46  1  0
  8 47  1  0
  8 48  1  0
  9 49  1  0
 10 50  1  0
 11 51  1  0
 11 52  1  0
 12 53  1  0
 12 54  1  0
 13 55  1  0
 13 56  1  0
 14 57  1  0
 14 58  1  0
 14 59  1  0
 22 60  1  0
 23 61  1  0
 30 62  1  0
 34 63  1  0
 35 64  1  0
 38 65  1  0
 38 66  1  0
 39 67  1  0
 40 68  1  0
 41 69  1  0
 41 70  1  0
 42 71  1  0
 42 72  1  0
 43 73  1  0
 43 74  1  0
 44 75  1  0
 44 76  1  0
 44 77  1  0
M  CHG  6  18   1  19   1  20   1  24  -1  25  -1  26  -1
M  END
> <Uni-Dock RESULT> 
ENERGY=   -5.709  LOWER_BOUND=    5.680  UPPER_BOUND=    6.917
INTER + INTRA:          -5.709
INTER:                  -5.709
INTRA:                   0.000
UNBOUND:                 0.000

$$$$

     RDKit          3D

 77 77  0  0  0  0  0  0  0  0999 V2000
   51.6037    4.4197   19.1450 C   0  0  0  0  0  0  0  0  0  0  0  0
   52.1868    4.7020   20.4847 C   0  0  0  0  0  0  0  0  0  0  0  0
   52.2714    4.2933   18.1305 O   0  0  0  0  0  0  0  0  0  0  0  0
   51.4045    4.8062   21.6406 C   0  0  0  0  0  0  0  0  0  0  0  0
   53.5755    4.8448   20.5865 C   0  0  0  0  0  0  0  0  0  0  0  0
   53.3874    5.2675   22.9721 C   0  0  0  0  0  0  0  0  0  0  0  0
   50.2525    4.3290   19.2211 O   0  0  0  0  0  0  0  0  0  0  0  0
   53.9939    5.4045   24.2244 N   0  0  0  0  0  0  0  0  0  0  0  0
   52.0081    5.0663   22.8764 C   0  0  0  0  0  0  0  0  0  0  0  0
   54.1691    5.1046   21.8261 C   0  0  0  0  0  0  0  0  0  0  0  0
   49.6091    4.0490   17.9692 C   0  0  0  0  0  0  0  0  0  0  0  0
   48.1056    3.9891   18.2197 C   0  0  0  0  0  0  0  0  0  0  0  0
   47.2943    3.5845   16.9902 C   0  0  0  0  0  0  0  0  0  0  0  0
   47.3760    4.5898   15.8520 C   0  0  0  0  0  0  0  0  0  0  0  0
   51.7470    4.3052   18.9582 C   0  0  0  0  0  0  0  0  0  0  0  0
   49.4229    4.8500   19.2238 C   0  0  0  0  0  0  0  0  0  0  0  0
   50.4833    4.4787   18.3807 C   0  0  0  0  0  0  0  0  0  0  0  0
   52.8671    3.9167   18.1292 N   0  0  0  0  0  0  0  0  0  0  0  0
   48.0692    5.0498   18.6907 N   0  0  0  0  0  0  0  0  0  0  0  0
   51.1407    5.0653   22.5817 N   0  0  0  0  0  0  0  0  0  0  0  0
   50.9184    4.8626   21.1427 C   0  0  0  0  0  0  0  0  0  0  0  0
   49.6339    5.0424   20.6043 C   0  0  0  0  0  0  0  0  0  0  0  0
   51.9890    4.4923   20.3244 C   0  0  0  0  0  0  0  0  0  0  0  0
   52.9815    2.7118   17.8745 O   0  0  0  0  0  0  0  0  0  0  0  0
   47.1780    5.3804   19.4819 O   0  0  0  0  0  0  0  0  0  0  0  0
   50.1748    5.4309   23.2627 O   0  0  0  0  0  0  0  0  0  0  0  0
   53.6517    4.8157   17.8028 O   0  0  0  0  0  0  0  0  0  0  0  0
   47.9065    4.8737   17.4743 O   0  0  0  0  0  0  0  0  0  0  0  0
   52.2795    4.8561   23.0177 O   0  0  0  0  0  0  0  0  0  0  0  0
   50.3623    4.2861   17.0326 O   0  0  0  0  0  0  0  0  0  0  0  0
   49.9979    5.6976   19.4319 C   0  0  0  0  0  0  0  0  0  0  0  0
   49.3762    4.9039   18.3373 C   0  0  0  0  0  0  0  0  0  0  0  0
   49.7236    6.8654   19.6596 O   0  0  0  0  0  0  0  0  0  0  0  0
   48.4170    5.5259   17.5299 C   0  0  0  0  0  0  0  0  0  0  0  0
   49.7279    3.5747   18.0765 C   0  0  0  0  0  0  0  0  0  0  0  0
   48.1109    3.4756   16.2618 C   0  0  0  0  0  0  0  0  0  0  0  0
   50.8882    4.9429   20.1232 O   0  0  0  0  0  0  0  0  0  0  0  0
   47.5881    2.8129   15.1469 N   0  0  0  0  0  0  0  0  0  0  0  0
   47.8067    4.8199   16.4878 C   0  0  0  0  0  0  0  0  0  0  0  0
   49.1112    2.8767   17.0315 C   0  0  0  0  0  0  0  0  0  0  0  0
   51.5335    5.6336   21.2029 C   0  0  0  0  0  0  0  0  0  0  0  0
   52.4691    4.6479   21.8952 C   0  0  0  0  0  0  0  0  0  0  0  0
   53.1543    5.2206   23.1346 C   0  0  0  0  0  0  0  0  0  0  0  0
   54.1099    6.3622   22.8247 C   0  0  0  0  0  0  0  0  0  0  0  0
   50.3266    4.6723   21.6015 H   0  0  0  0  0  0  0  0  0  0  0  0
   54.2049    4.7404   19.7048 H   0  0  0  0  0  0  0  0  0  0  0  0
   53.3946    5.8158   24.9332 H   0  0  0  0  0  0  0  0  0  0  0  0
   54.9106    5.8397   24.1950 H   0  0  0  0  0  0  0  0  0  0  0  0
   51.3868    5.1092   23.7677 H   0  0  0  0  0  0  0  0  0  0  0  0
   55.2521    5.1782   21.8863 H   0  0  0  0  0  0  0  0  0  0  0  0
   49.9662    3.0867   17.5843 H   0  0  0  0  0  0  0  0  0  0  0  0
   49.8492    4.8452   17.2562 H   0  0  0  0  0  0  0  0  0  0  0  0
   47.9089    3.2728   19.0276 H   0  0  0  0  0  0  0  0  0  0  0  0
   47.7601    4.9590   18.5987 H   0  0  0  0  0  0  0  0  0  0  0  0
   46.2440    3.4771   17.2864 H   0  0  0  0  0  0  0  0  0  0  0  0
   47.6243    2.6020   16.6329 H   0  0  0  0  0  0  0  0  0  0  0  0
   47.0847    5.5898   16.1889 H   0  0  0  0  0  0  0  0  0  0  0  0
   46.7011    4.2951   15.0421 H   0  0  0  0  0  0  0  0  0  0  0  0
   48.3869    4.6441   15.4372 H   0  0  0  0  0  0  0  0  0  0  0  0
   48.8060    5.3312   21.2537 H   0  0  0  0  0  0  0  0  0  0  0  0
   52.9917    4.3495   20.7265 H   0  0  0  0  0  0  0  0  0  0  0  0
   49.4376    4.4198   16.7277 H   0  0  0  0  0  0  0  0  0  0  0  0
   48.1485    6.5671   17.6980 H   0  0  0  0  0  0  0  0  0  0  0  0
   50.4888    3.0704   18.6663 H   0  0  0  0  0  0  0  0  0  0  0  0
   47.5988    1.8008   15.2238 H   0  0  0  0  0  0  0  0  0  0  0  0
   46.6864    3.1660   14.8415 H   0  0  0  0  0  0  0  0  0  0  0  0
   47.0884    5.3333   15.8536 H   0  0  0  0  0  0  0  0  0  0  0  0
   49.4219    1.8558   16.8242 H   0  0  0  0  0  0  0  0  0  0  0  0
   52.0969    6.4808   20.7980 H   0  0  0  0  0  0  0  0  0  0  0  0
   50.7777    5.9953   21.9094 H   0  0  0  0  0  0  0  0  0  0  0  0
   53.2193    4.2910   21.1785 H   0  0  0  0  0  0  0  0  0  0  0  0
   51.8947    3.7587   22.1846 H   0  0  0  0  0  0  0  0  0  0  0  0
   52.4003    5.5611   23.8537 H   0  0  0  0  0  0  0  0  0  0  0  0
   53.7180    4.4170   23.6233 H   0  0  0  0  0  0  0  0  0  0  0  0
   54.6357    6.6687   23.7345 H   0  0  0  0  0  0  0  0  0  0  0  0
   54.8592    6.0582   22.0869 H   0  0  0  0  0  0  0  0  0  0  0  0
   53.5780    7.2370   22.4396 H   0  0  0  0  0  0  0  0  0  0  0  0
  2  1  1  0
  3  1  2  0
  4  2  2  0
  5  2  1  0
  6 10  1  0
  7  1  1  0
  8  6  1  0
  9  4  1  0
 10  5  2  0
 11  7  1  0
 12 11  1  0
 13 12  1  0
 14 13  1  0
  9  6  2  0
 16 17  1  0
 17 15  2  0
 18 15  1  0
 19 16  1  0
 20 21  1  0
 21 23  2  0
 22 21  1  0
 23 15  1  0
 24 18  1  0
 25 19  1  0
 26 20  1  0
 27 18  2  0
 28 19  2  0
 29 20  2  0
 30 17  1  0
 22 16  2  0
 32 31  1  0
 33 31  2  0
 34 32  2  0
 35 32  1  0
 36 40  1  0
 37 31  1  0
 38 36  1  0
 39 34  1  0
 40 35  2  0
 41 37  1  0
 42 41  1  0
 43 42  1  0
 44 43  1  0
 39 36  2  0
  4 45  1  0
  5 46  1  0
  8 47  1  0
  8 48  1  0
  9 49  1  0
 10 50  1  0
 11 51  1  0
 11 52  1  0
 12 53  1  0
 12 54  1  0
 13 55  1  0
 13 56  1  0
 14 57  1  0
 14 58  1  0
 14 59  1  0
 22 60  1  0
 23 61  1  0
 30 62  1  0
 34 63  1  0
 35 64  1  0
 38 65  1  0
 38 66  1  0
 39 67  1  0
 40 68  1  0
 41 69  1  0
 41 70  1  0
 42 71  1  0
 42 72  1  0
 43 73  1  0
 43 74  1  0
 44 75  1  0
 44 76  1  0
 44 77  1  0
M  CHG  6  18   1  19   1  20   1  24  -1  25  -1  26  -1
M  END
> <Uni-Dock RESULT> 
ENERGY=   -5.673  LOWER_BOUND=    7.865  UPPER_BOUND=   10.259
INTER + INTRA:          -5.673
INTER:                  -5.673
INTRA:                   0.000
UNBOUND:                 0.000

$$$$

     RDKit          3D

 77 77  0  0  0  0  0  0  0  0999 V2000
   52.1441    2.5301   18.0486 C   0  0  0  0  0  0  0  0  0  0  0  0
   50.8166    3.0565   17.6302 C   0  0  0  0  0  0  0  0  0  0  0  0
   52.4113    1.3401   18.1067 O   0  0  0  0  0  0  0  0  0  0  0  0
   50.5445    4.4262   17.5355 C   0  0  0  0  0  0  0  0  0  0  0  0
   49.8139    2.1380   17.2984 C   0  0  0  0  0  0  0  0  0  0  0  0
   48.2582    3.9511   16.8541 C   0  0  0  0  0  0  0  0  0  0  0  0
   52.9887    3.5478   18.3498 O   0  0  0  0  0  0  0  0  0  0  0  0
   47.0387    4.3938   16.3328 N   0  0  0  0  0  0  0  0  0  0  0  0
   49.2788    4.8646   17.1294 C   0  0  0  0  0  0  0  0  0  0  0  0
   48.5522    2.5863   16.8937 C   0  0  0  0  0  0  0  0  0  0  0  0
   54.2988    3.1258   18.7563 C   0  0  0  0  0  0  0  0  0  0  0  0
   55.1168    4.3753   19.0668 C   0  0  0  0  0  0  0  0  0  0  0  0
   56.5774    4.0839   19.4063 C   0  0  0  0  0  0  0  0  0  0  0  0
   56.7538    3.2765   20.6830 C   0  0  0  0  0  0  0  0  0  0  0  0
   52.2237    2.2925   17.9729 C   0  0  0  0  0  0  0  0  0  0  0  0
   53.2618    4.1668   19.0584 C   0  0  0  0  0  0  0  0  0  0  0  0
   53.2923    2.8039   18.7193 C   0  0  0  0  0  0  0  0  0  0  0  0
   52.2160    0.8959   17.5956 N   0  0  0  0  0  0  0  0  0  0  0  0
   54.3470    4.7748   19.8389 N   0  0  0  0  0  0  0  0  0  0  0  0
   50.0062    5.2814   17.4989 N   0  0  0  0  0  0  0  0  0  0  0  0
   51.1309    4.4306   17.9146 C   0  0  0  0  0  0  0  0  0  0  0  0
   52.1853    4.9845   18.6585 C   0  0  0  0  0  0  0  0  0  0  0  0
   51.1391    3.0777   17.5642 C   0  0  0  0  0  0  0  0  0  0  0  0
   52.8714    0.5849   16.5938 O   0  0  0  0  0  0  0  0  0  0  0  0
   54.2616    5.9785   20.1099 O   0  0  0  0  0  0  0  0  0  0  0  0
   50.0193    6.4634   17.8636 O   0  0  0  0  0  0  0  0  0  0  0  0
   51.4997    0.1450   18.2688 O   0  0  0  0  0  0  0  0  0  0  0  0
   55.2840    4.0374   20.1785 O   0  0  0  0  0  0  0  0  0  0  0  0
   49.1204    4.7595   16.8106 O   0  0  0  0  0  0  0  0  0  0  0  0
   54.2922    1.9442   19.0799 O   0  0  0  0  0  0  0  0  0  0  0  0
   52.3711    3.9358   19.5541 C   0  0  0  0  0  0  0  0  0  0  0  0
   53.8133    3.5857   19.4444 C   0  0  0  0  0  0  0  0  0  0  0  0
   51.8504    4.3411   20.5815 O   0  0  0  0  0  0  0  0  0  0  0  0
   54.6205    3.7381   20.5776 C   0  0  0  0  0  0  0  0  0  0  0  0
   54.3822    3.0949   18.2637 C   0  0  0  0  0  0  0  0  0  0  0  0
   56.5660    2.9870   19.3301 C   0  0  0  0  0  0  0  0  0  0  0  0
   51.7418    3.7462   18.3675 O   0  0  0  0  0  0  0  0  0  0  0  0
   57.8966    2.5574   19.3132 N   0  0  0  0  0  0  0  0  0  0  0  0
   55.9816    3.4201   20.5224 C   0  0  0  0  0  0  0  0  0  0  0  0
   55.7453    2.7798   18.2186 C   0  0  0  0  0  0  0  0  0  0  0  0
   50.3426    4.0647   18.3848 C   0  0  0  0  0  0  0  0  0  0  0  0
   49.7934    3.8334   16.9809 C   0  0  0  0  0  0  0  0  0  0  0  0
   48.3264    4.2293   16.8239 C   0  0  0  0  0  0  0  0  0  0  0  0
   47.3776    3.3777   17.6528 C   0  0  0  0  0  0  0  0  0  0  0  0
   51.3091    5.1659   17.7582 H   0  0  0  0  0  0  0  0  0  0  0  0
   50.0127    1.0687   17.3389 H   0  0  0  0  0  0  0  0  0  0  0  0
   46.7827    5.3343   16.6166 H   0  0  0  0  0  0  0  0  0  0  0  0
   46.2752    3.7348   16.4492 H   0  0  0  0  0  0  0  0  0  0  0  0
   49.0981    5.9321   17.0289 H   0  0  0  0  0  0  0  0  0  0  0  0
   47.7999    1.8550   16.6087 H   0  0  0  0  0  0  0  0  0  0  0  0
   54.7674    2.5605   17.9424 H   0  0  0  0  0  0  0  0  0  0  0  0
   54.2120    2.4917   19.6454 H   0  0  0  0  0  0  0  0  0  0  0  0
   55.0800    5.0477   18.2003 H   0  0  0  0  0  0  0  0  0  0  0  0
   54.6409    4.9285   19.8862 H   0  0  0  0  0  0  0  0  0  0  0  0
   57.1049    5.0384   19.5212 H   0  0  0  0  0  0  0  0  0  0  0  0
   57.0556    3.5565   18.5727 H   0  0  0  0  0  0  0  0  0  0  0  0
   56.2557    3.7628   21.5278 H   0  0  0  0  0  0  0  0  0  0  0  0
   57.8176    3.1840   20.9242 H   0  0  0  0  0  0  0  0  0  0  0  0
   56.3495    2.2655   20.5767 H   0  0  0  0  0  0  0  0  0  0  0  0
   52.1675    6.0422   18.9254 H   0  0  0  0  0  0  0  0  0  0  0  0
   50.3283    2.6327   16.9880 H   0  0  0  0  0  0  0  0  0  0  0  0
   54.9982    2.4007   19.5890 H   0  0  0  0  0  0  0  0  0  0  0  0
   54.1929    4.0924   21.5136 H   0  0  0  0  0  0  0  0  0  0  0  0
   53.7784    2.9382   17.3737 H   0  0  0  0  0  0  0  0  0  0  0  0
   58.3211    2.5597   18.3911 H   0  0  0  0  0  0  0  0  0  0  0  0
   58.4848    3.0064   20.0085 H   0  0  0  0  0  0  0  0  0  0  0  0
   56.5819    3.5158   21.4237 H   0  0  0  0  0  0  0  0  0  0  0  0
   56.1612    2.3689   17.3021 H   0  0  0  0  0  0  0  0  0  0  0  0
   49.8382    3.4155   19.1082 H   0  0  0  0  0  0  0  0  0  0  0  0
   50.2098    5.1137   18.6733 H   0  0  0  0  0  0  0  0  0  0  0  0
   49.9338    2.7815   16.7022 H   0  0  0  0  0  0  0  0  0  0  0  0
   50.3959    4.4083   16.2663 H   0  0  0  0  0  0  0  0  0  0  0  0
   48.1946    5.2849   17.0884 H   0  0  0  0  0  0  0  0  0  0  0  0
   48.0504    4.1307   15.7672 H   0  0  0  0  0  0  0  0  0  0  0  0
   46.3402    3.6470   17.4304 H   0  0  0  0  0  0  0  0  0  0  0  0
   47.5066    2.3141   17.4287 H   0  0  0  0  0  0  0  0  0  0  0  0
   47.5359    3.5286   18.7246 H   0  0  0  0  0  0  0  0  0  0  0  0
  2  1  1  0
  3  1  2  0
  4  2  2  0
  5  2  1  0
  6 10  1  0
  7  1  1  0
  8  6  1  0
  9  4  1  0
 10  5  2  0
 11  7  1  0
 12 11  1  0
 13 12  1  0
 14 13  1  0
  9  6  2  0
 16 17  1  0
 17 15  2  0
 18 15  1  0
 19 16  1  0
 20 21  1  0
 21 23  2  0
 22 21  1  0
 23 15  1  0
 24 18  1  0
 25 19  1  0
 26 20  1  0
 27 18  2  0
 28 19  2  0
 29 20  2  0
 30 17  1  0
 22 16  2  0
 32 31  1  0
 33 31  2  0
 34 32  2  0
 35 32  1  0
 36 40  1  0
 37 31  1  0
 38 36  1  0
 39 34  1  0
 40 35  2  0
 41 37  1  0
 42 41  1  0
 43 42  1  0
 44 43  1  0
 39 36  2  0
  4 45  1  0
  5 46  1  0
  8 47  1  0
  8 48  1  0
  9 49  1  0
 10 50  1  0
 11 51  1  0
 11 52  1  0
 12 53  1  0
 12 54  1  0
 13 55  1  0
 13 56  1  0
 14 57  1  0
 14 58  1  0
 14 59  1  0
 22 60  1  0
 23 61  1  0
 30 62  1  0
 34 63  1  0
 35 64  1  0
 38 65  1  0
 38 66  1  0
 39 67  1  0
 40 68  1  0
 41 69  1  0
 41 70  1  0
 42 71  1  0
 42 72  1  0
 43 73  1  0
 43 74  1  0
 44 75  1  0
 44 76  1  0
 44 77  1  0
M  CHG  6  18   1  19   1  20   1  24  -1  25  -1  26  -1
M  END
> <Uni-Dock RESULT> 
ENERGY=   -5.585  LOWER_BOUND=    8.072  UPPER_BOUND=    9.878
INTER + INTRA:          -5.585
INTER:                  -5.585
INTRA:                   0.000
UNBOUND:                 0.000

$$$$

     RDKit          3D

 77 77  0  0  0  0  0  0  0  0999 V2000
   46.0466    8.2512   12.1910 C   0  0  0  0  0  0  0  0  0  0  0  0
   47.2597    9.1110   12.2527 C   0  0  0  0  0  0  0  0  0  0  0  0
   44.9069    8.6891   12.2038 O   0  0  0  0  0  0  0  0  0  0  0  0
   48.5572    8.5889   12.1992 C   0  0  0  0  0  0  0  0  0  0  0  0
   47.0861   10.4968   12.3449 C   0  0  0  0  0  0  0  0  0  0  0  0
   49.4931   10.8248   12.4054 C   0  0  0  0  0  0  0  0  0  0  0  0
   46.3919    6.9414   12.1224 O   0  0  0  0  0  0  0  0  0  0  0  0
   50.5959   11.6814   12.3362 N   0  0  0  0  0  0  0  0  0  0  0  0
   49.6623    9.4462   12.2543 C   0  0  0  0  0  0  0  0  0  0  0  0
   48.1969   11.3451   12.3993 C   0  0  0  0  0  0  0  0  0  0  0  0
   45.2768    6.0408   12.0510 C   0  0  0  0  0  0  0  0  0  0  0  0
   45.8272    4.6195   11.9901 C   0  0  0  0  0  0  0  0  0  0  0  0
   44.7512    3.5525   11.7963 C   0  0  0  0  0  0  0  0  0  0  0  0
   43.7774    3.4549   12.9603 C   0  0  0  0  0  0  0  0  0  0  0  0
   45.8194    8.3467   12.1027 C   0  0  0  0  0  0  0  0  0  0  0  0
   46.6439    6.1599   12.6568 C   0  0  0  0  0  0  0  0  0  0  0  0
   45.5520    7.0031   12.3922 C   0  0  0  0  0  0  0  0  0  0  0  0
   44.7261    9.2502   11.8175 N   0  0  0  0  0  0  0  0  0  0  0  0
   46.4423    4.7389   12.9677 N   0  0  0  0  0  0  0  0  0  0  0  0
   49.5600    8.5381   12.3189 N   0  0  0  0  0  0  0  0  0  0  0  0
   48.1862    8.0150   12.3423 C   0  0  0  0  0  0  0  0  0  0  0  0
   47.9620    6.6594   12.6325 C   0  0  0  0  0  0  0  0  0  0  0  0
   47.1163    8.8733   12.0746 C   0  0  0  0  0  0  0  0  0  0  0  0
   44.2831    9.2432   10.6627 O   0  0  0  0  0  0  0  0  0  0  0  0
   47.4425    4.0482   13.1959 O   0  0  0  0  0  0  0  0  0  0  0  0
   50.4744    7.7538   12.6002 O   0  0  0  0  0  0  0  0  0  0  0  0
   44.3740    9.9997   12.7365 O   0  0  0  0  0  0  0  0  0  0  0  0
   45.2750    4.3212   12.9821 O   0  0  0  0  0  0  0  0  0  0  0  0
   49.7117    9.7287   12.0187 O   0  0  0  0  0  0  0  0  0  0  0  0
   44.2463    6.5982   12.4092 O   0  0  0  0  0  0  0  0  0  0  0  0
   46.8455    6.8113   13.4489 C   0  0  0  0  0  0  0  0  0  0  0  0
   45.8043    5.9358   12.8456 C   0  0  0  0  0  0  0  0  0  0  0  0
   47.2907    6.6544   14.5750 O   0  0  0  0  0  0  0  0  0  0  0  0
   45.3147    4.8675   13.6058 C   0  0  0  0  0  0  0  0  0  0  0  0
   45.2875    6.1527   11.5632 C   0  0  0  0  0  0  0  0  0  0  0  0
   43.8592    4.1954   11.7795 C   0  0  0  0  0  0  0  0  0  0  0  0
   47.2182    7.7812   12.5768 O   0  0  0  0  0  0  0  0  0  0  0  0
   42.7963    3.4197   11.3063 N   0  0  0  0  0  0  0  0  0  0  0  0
   44.3344    4.0187   13.0809 C   0  0  0  0  0  0  0  0  0  0  0  0
   44.3070    5.2975   11.0469 C   0  0  0  0  0  0  0  0  0  0  0  0
   48.2253    8.6710   13.0801 C   0  0  0  0  0  0  0  0  0  0  0  0
   48.5564    9.6726   11.9786 C   0  0  0  0  0  0  0  0  0  0  0  0
   49.6926   10.6276   12.3400 C   0  0  0  0  0  0  0  0  0  0  0  0
   49.3551   11.5611   13.4920 C   0  0  0  0  0  0  0  0  0  0  0  0
   48.7273    7.5201   12.0989 H   0  0  0  0  0  0  0  0  0  0  0  0
   46.0858   10.9256   12.3603 H   0  0  0  0  0  0  0  0  0  0  0  0
   51.4665   11.2636   12.6496 H   0  0  0  0  0  0  0  0  0  0  0  0
   50.4367   12.5953   12.7487 H   0  0  0  0  0  0  0  0  0  0  0  0
   50.6612    9.0238   12.1765 H   0  0  0  0  0  0  0  0  0  0  0  0
   48.0375   12.4199   12.4368 H   0  0  0  0  0  0  0  0  0  0  0  0
   44.6914    6.2578   11.1500 H   0  0  0  0  0  0  0  0  0  0  0  0
   44.6507    6.1735   12.9402 H   0  0  0  0  0  0  0  0  0  0  0  0
   46.5472    4.5531   11.1645 H   0  0  0  0  0  0  0  0  0  0  0  0
   46.4054    4.4130   12.8994 H   0  0  0  0  0  0  0  0  0  0  0  0
   45.2436    2.5809   11.6706 H   0  0  0  0  0  0  0  0  0  0  0  0
   44.1954    3.7476   10.8717 H   0  0  0  0  0  0  0  0  0  0  0  0
   44.3078    3.2944   13.9044 H   0  0  0  0  0  0  0  0  0  0  0  0
   43.0942    2.6133   12.8082 H   0  0  0  0  0  0  0  0  0  0  0  0
   43.1710    4.3609   13.0525 H   0  0  0  0  0  0  0  0  0  0  0  0
   48.8057    5.9993   12.8394 H   0  0  0  0  0  0  0  0  0  0  0  0
   47.2735    9.9276   11.8483 H   0  0  0  0  0  0  0  0  0  0  0  0
   44.1655    5.6395   12.6099 H   0  0  0  0  0  0  0  0  0  0  0  0
   45.6830    4.6970   14.6156 H   0  0  0  0  0  0  0  0  0  0  0  0
   45.6253    6.9892   10.9571 H   0  0  0  0  0  0  0  0  0  0  0  0
   42.7234    3.3899   10.2943 H   0  0  0  0  0  0  0  0  0  0  0  0
   42.7415    2.4954   11.7232 H   0  0  0  0  0  0  0  0  0  0  0  0
   43.9461    3.2153   13.7017 H   0  0  0  0  0  0  0  0  0  0  0  0
   43.8948    5.5022   10.0620 H   0  0  0  0  0  0  0  0  0  0  0  0
   47.8364    9.1855   13.9651 H   0  0  0  0  0  0  0  0  0  0  0  0
   49.1196    8.0970   13.3487 H   0  0  0  0  0  0  0  0  0  0  0  0
   47.6542   10.2393   11.7166 H   0  0  0  0  0  0  0  0  0  0  0  0
   48.8299    9.1214   11.0699 H   0  0  0  0  0  0  0  0  0  0  0  0
   50.5957   10.0569   12.5856 H   0  0  0  0  0  0  0  0  0  0  0  0
   49.9313   11.2342   11.4582 H   0  0  0  0  0  0  0  0  0  0  0  0
   50.1681   12.2782   13.6443 H   0  0  0  0  0  0  0  0  0  0  0  0
   48.4403   12.1256   13.2855 H   0  0  0  0  0  0  0  0  0  0  0  0
   49.2202   11.0109   14.4277 H   0  0  0  0  0  0  0  0  0  0  0  0
  2  1  1  0
  3  1  2  0
  4  2  2  0
  5  2  1  0
  6 10  1  0
  7  1  1  0
  8  6  1  0
  9  4  1  0
 10  5  2  0
 11  7  1  0
 12 11  1  0
 13 12  1  0
 14 13  1  0
  9  6  2  0
 16 17  1  0
 17 15  2  0
 18 15  1  0
 19 16  1  0
 20 21  1  0
 21 23  2  0
 22 21  1  0
 23 15  1  0
 24 18  1  0
 25 19  1  0
 26 20  1  0
 27 18  2  0
 28 19  2  0
 29 20  2  0
 30 17  1  0
 22 16  2  0
 32 31  1  0
 33 31  2  0
 34 32  2  0
 35 32  1  0
 36 40  1  0
 37 31  1  0
 38 36  1  0
 39 34  1  0
 40 35  2  0
 41 37  1  0
 42 41  1  0
 43 42  1  0
 44 43  1  0
 39 36  2  0
  4 45  1  0
  5 46  1  0
  8 47  1  0
  8 48  1  0
  9 49  1  0
 10 50  1  0
 11 51  1  0
 11 52  1  0
 12 53  1  0
 12 54  1  0
 13 55  1  0
 13 56  1  0
 14 57  1  0
 14 58  1  0
 14 59  1  0
 22 60  1  0
 23 61  1  0
 30 62  1  0
 34 63  1  0
 35 64  1  0
 38 65  1  0
 38 66  1  0
 39 67  1  0
 40 68  1  0
 41 69  1  0
 41 70  1  0
 42 71  1  0
 42 72  1  0
 43 73  1  0
 43 74  1  0
 44 75  1  0
 44 76  1  0
 44 77  1  0
M  CHG  6  18   1  19   1  20   1  24  -1  25  -1  26  -1
M  END
> <Uni-Dock RESULT> 
ENERGY=   -5.566  LOWER_BOUND=    0.890  UPPER_BOUND=    5.817
INTER + INTRA:          -5.566
INTER:                  -5.566
INTRA:                   0.000
UNBOUND:                 0.000

$$$$

     RDKit          3D

 77 77  0  0  0  0  0  0  0  0999 V2000
   48.3247    8.6853   18.1873 C   0  0  0  0  0  0  0  0  0  0  0  0
   48.1366    7.2104   18.1252 C   0  0  0  0  0  0  0  0  0  0  0  0
   48.9004    9.3299   17.3249 O   0  0  0  0  0  0  0  0  0  0  0  0
   47.4406    6.4971   19.1079 C   0  0  0  0  0  0  0  0  0  0  0  0
   48.6600    6.5211   17.0252 C   0  0  0  0  0  0  0  0  0  0  0  0
   47.8597    4.4117   17.9278 C   0  0  0  0  0  0  0  0  0  0  0  0
   47.7753    9.1901   19.3201 O   0  0  0  0  0  0  0  0  0  0  0  0
   47.5988    3.0486   17.7584 N   0  0  0  0  0  0  0  0  0  0  0  0
   47.2882    5.1105   18.9942 C   0  0  0  0  0  0  0  0  0  0  0  0
   48.5024    5.1353   16.9207 C   0  0  0  0  0  0  0  0  0  0  0  0
   47.9056   10.6129   19.4551 C   0  0  0  0  0  0  0  0  0  0  0  0
   47.2526   11.0190   20.7724 C   0  0  0  0  0  0  0  0  0  0  0  0
   47.2149   12.5293   20.9987 C   0  0  0  0  0  0  0  0  0  0  0  0
   48.5936   13.1569   21.1333 C   0  0  0  0  0  0  0  0  0  0  0  0
   48.3618    8.8247   17.9690 C   0  0  0  0  0  0  0  0  0  0  0  0
   47.9356    9.3554   20.2723 C   0  0  0  0  0  0  0  0  0  0  0  0
   48.3580    9.7728   18.9993 C   0  0  0  0  0  0  0  0  0  0  0  0
   48.7830    9.2116   16.6401 N   0  0  0  0  0  0  0  0  0  0  0  0
   47.9040   10.2929   21.4022 N   0  0  0  0  0  0  0  0  0  0  0  0
   47.1396    5.7117   19.6692 N   0  0  0  0  0  0  0  0  0  0  0  0
   47.5565    7.1022   19.4365 C   0  0  0  0  0  0  0  0  0  0  0  0
   47.5333    8.0229   20.4966 C   0  0  0  0  0  0  0  0  0  0  0  0
   47.9717    7.4939   18.1608 C   0  0  0  0  0  0  0  0  0  0  0  0
   47.9387    9.7661   15.9263 O   0  0  0  0  0  0  0  0  0  0  0  0
   47.5266    9.8652   22.4995 O   0  0  0  0  0  0  0  0  0  0  0  0
   46.8172    5.3976   20.8214 O   0  0  0  0  0  0  0  0  0  0  0  0
   49.9317    8.8931   16.3094 O   0  0  0  0  0  0  0  0  0  0  0  0
   48.2607   11.4596   21.1816 O   0  0  0  0  0  0  0  0  0  0  0  0
   47.1378    4.9467   18.6969 O   0  0  0  0  0  0  0  0  0  0  0  0
   48.7747   11.0412   18.7053 O   0  0  0  0  0  0  0  0  0  0  0  0
   48.7295    8.6776   20.2196 C   0  0  0  0  0  0  0  0  0  0  0  0
   48.3698   10.1191   20.1344 C   0  0  0  0  0  0  0  0  0  0  0  0
   49.5033    8.2221   21.0470 O   0  0  0  0  0  0  0  0  0  0  0  0
   48.9414   11.0008   21.0589 C   0  0  0  0  0  0  0  0  0  0  0  0
   47.5025   10.6232   19.1584 C   0  0  0  0  0  0  0  0  0  0  0  0
   47.7230   12.8628   20.0822 C   0  0  0  0  0  0  0  0  0  0  0  0
   48.0786    7.9654   19.2661 O   0  0  0  0  0  0  0  0  0  0  0  0
   47.5131   14.2406   19.9682 N   0  0  0  0  0  0  0  0  0  0  0  0
   48.6340   12.3648   21.0164 C   0  0  0  0  0  0  0  0  0  0  0  0
   47.2010   11.9897   19.1245 C   0  0  0  0  0  0  0  0  0  0  0  0
   48.3675    6.5599   19.2801 C   0  0  0  0  0  0  0  0  0  0  0  0
   47.5396    5.9018   18.1812 C   0  0  0  0  0  0  0  0  0  0  0  0
   47.6709    4.3803   18.1430 C   0  0  0  0  0  0  0  0  0  0  0  0
   49.0686    3.9024   17.7818 C   0  0  0  0  0  0  0  0  0  0  0  0
   46.9969    7.0051   19.9603 H   0  0  0  0  0  0  0  0  0  0  0  0
   49.1809    7.0601   16.2360 H   0  0  0  0  0  0  0  0  0  0  0  0
   47.4208    2.5492   18.6242 H   0  0  0  0  0  0  0  0  0  0  0  0
   48.2708    2.5687   17.1679 H   0  0  0  0  0  0  0  0  0  0  0  0
   46.7146    4.5796   19.7502 H   0  0  0  0  0  0  0  0  0  0  0  0
   48.8882    4.6262   16.0409 H   0  0  0  0  0  0  0  0  0  0  0  0
   47.4008   11.1053   18.6159 H   0  0  0  0  0  0  0  0  0  0  0  0
   48.9686   10.8776   19.4546 H   0  0  0  0  0  0  0  0  0  0  0  0
   46.2265   10.6300   20.7943 H   0  0  0  0  0  0  0  0  0  0  0  0
   47.7702   10.5246   21.6038 H   0  0  0  0  0  0  0  0  0  0  0  0
   46.6490   12.7295   21.9163 H   0  0  0  0  0  0  0  0  0  0  0  0
   46.6718   13.0153   20.1797 H   0  0  0  0  0  0  0  0  0  0  0  0
   49.1730   12.6674   21.9226 H   0  0  0  0  0  0  0  0  0  0  0  0
   48.4997   14.2170   21.3896 H   0  0  0  0  0  0  0  0  0  0  0  0
   49.1568   13.0913   20.1977 H   0  0  0  0  0  0  0  0  0  0  0  0
   47.2066    7.7050   21.4879 H   0  0  0  0  0  0  0  0  0  0  0  0
   47.9961    6.7916   17.3281 H   0  0  0  0  0  0  0  0  0  0  0  0
   48.7237   11.6316   19.4894 H   0  0  0  0  0  0  0  0  0  0  0  0
   49.6395   10.6343   21.8091 H   0  0  0  0  0  0  0  0  0  0  0  0
   47.0632    9.9708   18.4084 H   0  0  0  0  0  0  0  0  0  0  0  0
   46.6434   14.4906   19.5083 H   0  0  0  0  0  0  0  0  0  0  0  0
   47.6516   14.7528   20.8339 H   0  0  0  0  0  0  0  0  0  0  0  0
   49.1149   13.0354   21.7240 H   0  0  0  0  0  0  0  0  0  0  0  0
   46.5514   12.3667   18.3386 H   0  0  0  0  0  0  0  0  0  0  0  0
   49.4372    6.4140   19.0969 H   0  0  0  0  0  0  0  0  0  0  0  0
   48.0986    6.1408   20.2566 H   0  0  0  0  0  0  0  0  0  0  0  0
   47.8154    6.3303   17.2095 H   0  0  0  0  0  0  0  0  0  0  0  0
   46.4843    6.1646   18.3280 H   0  0  0  0  0  0  0  0  0  0  0  0
   47.3792    3.9563   19.1109 H   0  0  0  0  0  0  0  0  0  0  0  0
   46.9657    3.9886   17.4002 H   0  0  0  0  0  0  0  0  0  0  0  0
   49.0781    2.8124   17.6815 H   0  0  0  0  0  0  0  0  0  0  0  0
   49.3975    4.3326   16.8305 H   0  0  0  0  0  0  0  0  0  0  0  0
   49.7958    4.1696   18.5539 H   0  0  0  0  0  0  0  0  0  0  0  0
  2  1  1  0
  3  1  2  0
  4  2  2  0
  5  2  1  0
  6 10  1  0
  7  1  1  0
  8  6  1  0
  9  4  1  0
 10  5  2  0
 11  7  1  0
 12 11  1  0
 13 12  1  0
 14 13  1  0
  9  6  2  0
 16 17  1  0
 17 15  2  0
 18 15  1  0
 19 16  1  0
 20 21  1  0
 21 23  2  0
 22 21  1  0
 23 15  1  0
 24 18  1  0
 25 19  1  0
 26 20  1  0
 27 18  2  0
 28 19  2  0
 29 20  2  0
 30 17  1  0
 22 16  2  0
 32 31  1  0
 33 31  2  0
 34 32  2  0
 35 32  1  0
 36 40  1  0
 37 31  1  0
 38 36  1  0
 39 34  1  0
 40 35  2  0
 41 37  1  0
 42 41  1  0
 43 42  1  0
 44 43  1  0
 39 36  2  0
  4 45  1  0
  5 46  1  0
  8 47  1  0
  8 48  1  0
  9 49  1  0
 10 50  1  0
 11 51  1  0
 11 52  1  0
 12 53  1  0
 12 54  1  0
 13 55  1  0
 13 56  1  0
 14 57  1  0
 14 58  1  0
 14 59  1  0
 22 60  1  0
 23 61  1  0
 30 62  1  0
 34 63  1  0
 35 64  1  0
 38 65  1  0
 38 66  1  0
 39 67  1  0
 40 68  1  0
 41 69  1  0
 41 70  1  0
 42 71  1  0
 42 72  1  0
 43 73  1  0
 43 74  1  0
 44 75  1  0
 44 76  1  0
 44 77  1  0
M  CHG  6  18   1  19   1  20   1  24  -1  25  -1  26  -1
M  END
> <Uni-Dock RESULT> 
ENERGY=   -5.524  LOWER_BOUND=    6.360  UPPER_BOUND=    7.371
INTER + INTRA:          -5.524
INTER:                  -5.524
INTRA:                   0.000
UNBOUND:                 0.000

$$$$

     RDKit          3D

 77 77  0  0  0  0  0  0  0  0999 V2000
   45.2603    9.3516   11.8303 C   0  0  0  0  0  0  0  0  0  0  0  0
   46.2246   10.4849   11.8443 C   0  0  0  0  0  0  0  0  0  0  0  0
   44.0478    9.4960   11.8337 O   0  0  0  0  0  0  0  0  0  0  0  0
   47.6108   10.2958   11.8027 C   0  0  0  0  0  0  0  0  0  0  0  0
   45.7153   11.7883   11.8774 C   0  0  0  0  0  0  0  0  0  0  0  0
   47.9677   12.6999   11.9032 C   0  0  0  0  0  0  0  0  0  0  0  0
   45.9172    8.1650   11.8160 O   0  0  0  0  0  0  0  0  0  0  0  0
   48.8263   13.7974   11.7875 N   0  0  0  0  0  0  0  0  0  0  0  0
   48.4710   11.3999   11.8110 C   0  0  0  0  0  0  0  0  0  0  0  0
   46.5834   12.8850   11.8854 C   0  0  0  0  0  0  0  0  0  0  0  0
   45.0578    7.0158   11.7934 C   0  0  0  0  0  0  0  0  0  0  0  0
   45.9409    5.7720   11.7898 C   0  0  0  0  0  0  0  0  0  0  0  0
   45.1608    4.4659   11.6518 C   0  0  0  0  0  0  0  0  0  0  0  0
   44.2379    4.1837   12.8272 C   0  0  0  0  0  0  0  0  0  0  0  0
   45.0168    9.3843   11.7399 C   0  0  0  0  0  0  0  0  0  0  0  0
   46.3522    7.4939   12.3819 C   0  0  0  0  0  0  0  0  0  0  0  0
   45.0872    8.0303   12.0899 C   0  0  0  0  0  0  0  0  0  0  0  0
   43.7356    9.9778   11.4248 N   0  0  0  0  0  0  0  0  0  0  0  0
   46.5053    6.0821   12.7561 N   0  0  0  0  0  0  0  0  0  0  0  0
   48.5949   10.4983   11.9160 N   0  0  0  0  0  0  0  0  0  0  0  0
   47.3919    9.6552   11.9737 C   0  0  0  0  0  0  0  0  0  0  0  0
   47.5071    8.3004   12.3247 C   0  0  0  0  0  0  0  0  0  0  0  0
   46.1445   10.2116   11.6779 C   0  0  0  0  0  0  0  0  0  0  0  0
   43.3109    9.8111   10.2752 O   0  0  0  0  0  0  0  0  0  0  0  0
   47.6440    5.6692   13.0057 O   0  0  0  0  0  0  0  0  0  0  0  0
   49.6734    9.9760   12.2234 O   0  0  0  0  0  0  0  0  0  0  0  0
   43.2077   10.6579   12.3132 O   0  0  0  0  0  0  0  0  0  0  0  0
   45.4766    5.3915   12.7985 O   0  0  0  0  0  0  0  0  0  0  0  0
   48.4501   11.6751   11.5628 O   0  0  0  0  0  0  0  0  0  0  0  0
   43.9211    7.3182   12.1356 O   0  0  0  0  0  0  0  0  0  0  0  0
   46.3854    8.2093   13.1431 C   0  0  0  0  0  0  0  0  0  0  0  0
   45.5929    7.0789   12.5873 C   0  0  0  0  0  0  0  0  0  0  0  0
   46.8527    8.2167   14.2711 O   0  0  0  0  0  0  0  0  0  0  0  0
   45.3791    5.9579   13.3975 C   0  0  0  0  0  0  0  0  0  0  0  0
   45.0420    7.1051   11.3011 C   0  0  0  0  0  0  0  0  0  0  0  0
   44.1382    4.8685   11.6145 C   0  0  0  0  0  0  0  0  0  0  0  0
   46.5105    9.2014   12.2264 O   0  0  0  0  0  0  0  0  0  0  0  0
   43.2998    3.8352   11.1846 N   0  0  0  0  0  0  0  0  0  0  0  0
   44.6389    4.8718   12.9184 C   0  0  0  0  0  0  0  0  0  0  0  0
   44.3031    6.0132   10.8308 C   0  0  0  0  0  0  0  0  0  0  0  0
   47.2667   10.3328   12.6818 C   0  0  0  0  0  0  0  0  0  0  0  0
   47.3441   11.3352   11.5350 C   0  0  0  0  0  0  0  0  0  0  0  0
   48.2097   12.5552   11.8448 C   0  0  0  0  0  0  0  0  0  0  0  0
   47.6502   13.4273   12.9578 C   0  0  0  0  0  0  0  0  0  0  0  0
   48.0387    9.2982   11.7476 H   0  0  0  0  0  0  0  0  0  0  0  0
   44.6404   11.9584   11.8825 H   0  0  0  0  0  0  0  0  0  0  0  0
   49.7721   13.6206   12.1114 H   0  0  0  0  0  0  0  0  0  0  0  0
   48.4462   14.6615   12.1610 H   0  0  0  0  0  0  0  0  0  0  0  0
   49.5433   11.2329   11.7433 H   0  0  0  0  0  0  0  0  0  0  0  0
   46.1646   13.8883   11.8774 H   0  0  0  0  0  0  0  0  0  0  0  0
   44.4394    7.0422   10.8887 H   0  0  0  0  0  0  0  0  0  0  0  0
   44.4162    7.0298   12.6811 H   0  0  0  0  0  0  0  0  0  0  0  0
   46.6573    5.8480   10.9619 H   0  0  0  0  0  0  0  0  0  0  0  0
   46.5499    5.7544   12.7023 H   0  0  0  0  0  0  0  0  0  0  0  0
   45.8772    3.6404   11.5644 H   0  0  0  0  0  0  0  0  0  0  0  0
   44.5765    4.4772   10.7243 H   0  0  0  0  0  0  0  0  0  0  0  0
   44.7891    4.2005   13.7728 H   0  0  0  0  0  0  0  0  0  0  0  0
   43.7830    3.1941   12.7176 H   0  0  0  0  0  0  0  0  0  0  0  0
   43.4272    4.9160   12.8849 H   0  0  0  0  0  0  0  0  0  0  0  0
   48.4867    7.8777   12.5529 H   0  0  0  0  0  0  0  0  0  0  0  0
   46.0382   11.2611   11.4046 H   0  0  0  0  0  0  0  0  0  0  0  0
   44.0779    6.3789   12.3786 H   0  0  0  0  0  0  0  0  0  0  0  0
   45.7755    5.9281   14.4106 H   0  0  0  0  0  0  0  0  0  0  0  0
   45.1653    7.9712   10.6562 H   0  0  0  0  0  0  0  0  0  0  0  0
   43.2390    3.7436   10.1755 H   0  0  0  0  0  0  0  0  0  0  0  0
   43.4728    2.9452   11.6419 H   0  0  0  0  0  0  0  0  0  0  0  0
   44.4584    4.0259   13.5768 H   0  0  0  0  0  0  0  0  0  0  0  0
   43.8557    6.0665    9.8415 H   0  0  0  0  0  0  0  0  0  0  0  0
   46.7610   10.7747   13.5469 H   0  0  0  0  0  0  0  0  0  0  0  0
   48.2739   10.0087   12.9676 H   0  0  0  0  0  0  0  0  0  0  0  0
   46.3309   11.6506   11.2561 H   0  0  0  0  0  0  0  0  0  0  0  0
   47.7470   10.8284   10.6489 H   0  0  0  0  0  0  0  0  0  0  0  0
   49.2248   12.2353   12.1074 H   0  0  0  0  0  0  0  0  0  0  0  0
   48.2942   13.1621   10.9354 H   0  0  0  0  0  0  0  0  0  0  0  0
   48.2615   14.3282   13.0718 H   0  0  0  0  0  0  0  0  0  0  0  0
   46.6252   13.7399   12.7346 H   0  0  0  0  0  0  0  0  0  0  0  0
   47.6523   12.9028   13.9177 H   0  0  0  0  0  0  0  0  0  0  0  0
  2  1  1  0
  3  1  2  0
  4  2  2  0
  5  2  1  0
  6 10  1  0
  7  1  1  0
  8  6  1  0
  9  4  1  0
 10  5  2  0
 11  7  1  0
 12 11  1  0
 13 12  1  0
 14 13  1  0
  9  6  2  0
 16 17  1  0
 17 15  2  0
 18 15  1  0
 19 16  1  0
 20 21  1  0
 21 23  2  0
 22 21  1  0
 23 15  1  0
 24 18  1  0
 25 19  1  0
 26 20  1  0
 27 18  2  0
 28 19  2  0
 29 20  2  0
 30 17  1  0
 22 16  2  0
 32 31  1  0
 33 31  2  0
 34 32  2  0
 35 32  1  0
 36 40  1  0
 37 31  1  0
 38 36  1  0
 39 34  1  0
 40 35  2  0
 41 37  1  0
 42 41  1  0
 43 42  1  0
 44 43  1  0
 39 36  2  0
  4 45  1  0
  5 46  1  0
  8 47  1  0
  8 48  1  0
  9 49  1  0
 10 50  1  0
 11 51  1  0
 11 52  1  0
 12 53  1  0
 12 54  1  0
 13 55  1  0
 13 56  1  0
 14 57  1  0
 14 58  1  0
 14 59  1  0
 22 60  1  0
 23 61  1  0
 30 62  1  0
 34 63  1  0
 35 64  1  0
 38 65  1  0
 38 66  1  0
 39 67  1  0
 40 68  1  0
 41 69  1  0
 41 70  1  0
 42 71  1  0
 42 72  1  0
 43 73  1  0
 43 74  1  0
 44 75  1  0
 44 76  1  0
 44 77  1  0
M  CHG  6  18   1  19   1  20   1  24  -1  25  -1  26  -1
M  END
> <Uni-Dock RESULT> 
ENERGY=   -5.502  LOWER_BOUND=    1.500  UPPER_BOUND=    5.911
INTER + INTRA:          -5.502
INTER:                  -5.502
INTRA:                   0.000
UNBOUND:                 0.000

$$$$

     RDKit          3D

 77 77  0  0  0  0  0  0  0  0999 V2000
   47.9107    8.2025   20.2457 C   0  0  0  0  0  0  0  0  0  0  0  0
   47.7338    9.6776   20.3316 C   0  0  0  0  0  0  0  0  0  0  0  0
   48.1532    7.4938   21.2100 O   0  0  0  0  0  0  0  0  0  0  0  0
   47.4195   10.4652   19.2181 C   0  0  0  0  0  0  0  0  0  0  0  0
   47.8663   10.2894   21.5835 C   0  0  0  0  0  0  0  0  0  0  0  0
   47.4470   12.4697   20.5960 C   0  0  0  0  0  0  0  0  0  0  0  0
   47.7674    7.7775   18.9656 O   0  0  0  0  0  0  0  0  0  0  0  0
   47.1638   13.8300   20.7514 N   0  0  0  0  0  0  0  0  0  0  0  0
   47.2576   11.8483   19.3590 C   0  0  0  0  0  0  0  0  0  0  0  0
   47.7026   11.6723   21.7139 C   0  0  0  0  0  0  0  0  0  0  0  0
   47.9151    6.3601   18.7951 C   0  0  0  0  0  0  0  0  0  0  0  0
   47.7378    6.0469   17.3129 C   0  0  0  0  0  0  0  0  0  0  0  0
   47.7567    4.5528   16.9948 C   0  0  0  0  0  0  0  0  0  0  0  0
   49.0912    3.8866   17.2918 C   0  0  0  0  0  0  0  0  0  0  0  0
   47.8701    8.0505   20.4549 C   0  0  0  0  0  0  0  0  0  0  0  0
   48.2365    7.6574   18.1139 C   0  0  0  0  0  0  0  0  0  0  0  0
   48.1997    7.1590   19.4267 C   0  0  0  0  0  0  0  0  0  0  0  0
   47.8138    7.5797   21.8217 N   0  0  0  0  0  0  0  0  0  0  0  0
   48.5736    6.7826   16.9836 N   0  0  0  0  0  0  0  0  0  0  0  0
   47.3364   11.2891   18.6377 N   0  0  0  0  0  0  0  0  0  0  0  0
   47.6306    9.8748   18.9109 C   0  0  0  0  0  0  0  0  0  0  0  0
   47.9523    9.0128   17.8500 C   0  0  0  0  0  0  0  0  0  0  0  0
   47.5865    9.4021   20.2254 C   0  0  0  0  0  0  0  0  0  0  0  0
   46.7707    7.0173   22.1758 O   0  0  0  0  0  0  0  0  0  0  0  0
   48.5937    7.2805   15.8517 O   0  0  0  0  0  0  0  0  0  0  0  0
   47.4252   11.6746   17.4656 O   0  0  0  0  0  0  0  0  0  0  0  0
   48.7887    7.8408   22.5371 O   0  0  0  0  0  0  0  0  0  0  0  0
   48.8184    5.5944   17.2389 O   0  0  0  0  0  0  0  0  0  0  0  0
   47.0184   12.0012   19.5982 O   0  0  0  0  0  0  0  0  0  0  0  0
   48.4748    5.8633   19.7650 O   0  0  0  0  0  0  0  0  0  0  0  0
   48.9760    8.3039   18.4712 C   0  0  0  0  0  0  0  0  0  0  0  0
   48.5879    6.8731   18.3423 C   0  0  0  0  0  0  0  0  0  0  0  0
   49.9896    8.7759   17.9806 O   0  0  0  0  0  0  0  0  0  0  0  0
   49.4246    6.0225   17.6106 C   0  0  0  0  0  0  0  0  0  0  0  0
   47.4356    6.3479   18.9383 C   0  0  0  0  0  0  0  0  0  0  0  0
   47.9219    4.1542   18.0063 C   0  0  0  0  0  0  0  0  0  0  0  0
   48.0524    8.9864   19.1931 O   0  0  0  0  0  0  0  0  0  0  0  0
   47.6662    2.7802   17.9586 N   0  0  0  0  0  0  0  0  0  0  0  0
   49.1013    4.6695   17.4638 C   0  0  0  0  0  0  0  0  0  0  0  0
   47.1207    4.9926   18.7853 C   0  0  0  0  0  0  0  0  0  0  0  0
   48.3493   10.3801   19.3630 C   0  0  0  0  0  0  0  0  0  0  0  0
   47.2094   11.0070   20.1591 C   0  0  0  0  0  0  0  0  0  0  0  0
   47.3420   12.5189   20.3324 C   0  0  0  0  0  0  0  0  0  0  0  0
   48.5433   12.9291   21.1697 C   0  0  0  0  0  0  0  0  0  0  0  0
   47.2814   10.0185   18.2369 H   0  0  0  0  0  0  0  0  0  0  0  0
   48.0834    9.6919   22.4670 H   0  0  0  0  0  0  0  0  0  0  0  0
   47.2948   14.3804   19.9084 H   0  0  0  0  0  0  0  0  0  0  0  0
   47.6047   14.2548   21.5613 H   0  0  0  0  0  0  0  0  0  0  0  0
   46.9797   12.4378   18.4886 H   0  0  0  0  0  0  0  0  0  0  0  0
   47.7771   12.1207   22.7015 H   0  0  0  0  0  0  0  0  0  0  0  0
   47.1502    5.8415   19.3847 H   0  0  0  0  0  0  0  0  0  0  0  0
   48.9120    6.0596   19.1356 H   0  0  0  0  0  0  0  0  0  0  0  0
   46.7847    6.4713   16.9722 H   0  0  0  0  0  0  0  0  0  0  0  0
   48.5122    6.5666   16.7350 H   0  0  0  0  0  0  0  0  0  0  0  0
   47.5300    4.4209   15.9301 H   0  0  0  0  0  0  0  0  0  0  0  0
   46.9628    4.0430   17.5530 H   0  0  0  0  0  0  0  0  0  0  0  0
   49.9095    4.3970   16.7740 H   0  0  0  0  0  0  0  0  0  0  0  0
   49.0739    2.8454   16.9544 H   0  0  0  0  0  0  0  0  0  0  0  0
   49.3075    3.8833   18.3642 H   0  0  0  0  0  0  0  0  0  0  0  0
   47.9829    9.3938   16.8281 H   0  0  0  0  0  0  0  0  0  0  0  0
   47.3393   10.0582   21.0596 H   0  0  0  0  0  0  0  0  0  0  0  0
   48.6823    5.3173   18.9745 H   0  0  0  0  0  0  0  0  0  0  0  0
   50.3396    6.4042   17.1618 H   0  0  0  0  0  0  0  0  0  0  0  0
   46.7789    6.9743   19.5362 H   0  0  0  0  0  0  0  0  0  0  0  0
   46.6889    2.5360   18.0841 H   0  0  0  0  0  0  0  0  0  0  0  0
   48.0805    2.3101   17.1597 H   0  0  0  0  0  0  0  0  0  0  0  0
   49.7826    4.0213   16.9186 H   0  0  0  0  0  0  0  0  0  0  0  0
   46.2391    4.5970   19.2833 H   0  0  0  0  0  0  0  0  0  0  0  0
   49.2970   10.4794   19.9027 H   0  0  0  0  0  0  0  0  0  0  0  0
   48.4308   10.8592   18.3806 H   0  0  0  0  0  0  0  0  0  0  0  0
   47.1359   10.5184   21.1388 H   0  0  0  0  0  0  0  0  0  0  0  0
   46.2614   10.7884   19.6513 H   0  0  0  0  0  0  0  0  0  0  0  0
   47.3993   13.0032   19.3506 H   0  0  0  0  0  0  0  0  0  0  0  0
   46.4337   12.8946   20.8184 H   0  0  0  0  0  0  0  0  0  0  0  0
   48.5342   14.0112   21.3341 H   0  0  0  0  0  0  0  0  0  0  0  0
   48.5266   12.4381   22.1479 H   0  0  0  0  0  0  0  0  0  0  0  0
   49.4840   12.6784   20.6711 H   0  0  0  0  0  0  0  0  0  0  0  0
  2  1  1  0
  3  1  2  0
  4  2  2  0
  5  2  1  0
  6 10  1  0
  7  1  1  0
  8  6  1  0
  9  4  1  0
 10  5  2  0
 11  7  1  0
 12 11  1  0
 13 12  1  0
 14 13  1  0
  9  6  2  0
 16 17  1  0
 17 15  2  0
 18 15  1  0
 19 16  1  0
 20 21  1  0
 21 23  2  0
 22 21  1  0
 23 15  1  0
 24 18  1  0
 25 19  1  0
 26 20  1  0
 27 18  2  0
 28 19  2  0
 29 20  2  0
 30 17  1  0
 22 16  2  0
 32 31  1  0
 33 31  2  0
 34 32  2  0
 35 32  1  0
 36 40  1  0
 37 31  1  0
 38 36  1  0
 39 34  1  0
 40 35  2  0
 41 37  1  0
 42 41  1  0
 43 42  1  0
 44 43  1  0
 39 36  2  0
  4 45  1  0
  5 46  1  0
  8 47  1  0
  8 48  1  0
  9 49  1  0
 10 50  1  0
 11 51  1  0
 11 52  1  0
 12 53  1  0
 12 54  1  0
 13 55  1  0
 13 56  1  0
 14 57  1  0
 14 58  1  0
 14 59  1  0
 22 60  1  0
 23 61  1  0
 30 62  1  0
 34 63  1  0
 35 64  1  0
 38 65  1  0
 38 66  1  0
 39 67  1  0
 40 68  1  0
 41 69  1  0
 41 70  1  0
 42 71  1  0
 42 72  1  0
 43 73  1  0
 43 74  1  0
 44 75  1  0
 44 76  1  0
 44 77  1  0
M  CHG  6  18   1  19   1  20   1  24  -1  25  -1  26  -1
M  END
> <Uni-Dock RESULT> 
ENERGY=   -5.433  LOWER_BOUND=    6.416  UPPER_BOUND=    8.866
INTER + INTRA:          -5.433
INTER:                  -5.433
INTRA:                   0.000
UNBOUND:                 0.000

$$$$

     RDKit          3D

 77 77  0  0  0  0  0  0  0  0999 V2000
   48.7898    5.7321   17.4051 C   0  0  0  0  0  0  0  0  0  0  0  0
   48.4125    5.7109   18.8445 C   0  0  0  0  0  0  0  0  0  0  0  0
   49.3363    4.8002   16.8362 O   0  0  0  0  0  0  0  0  0  0  0  0
   47.7531    6.7772   19.4668 C   0  0  0  0  0  0  0  0  0  0  0  0
   48.7127    4.5660   19.5917 C   0  0  0  0  0  0  0  0  0  0  0  0
   47.7663    5.5825   21.5857 C   0  0  0  0  0  0  0  0  0  0  0  0
   48.4448    6.9148   16.8378 O   0  0  0  0  0  0  0  0  0  0  0  0
   47.3186    5.4620   22.9048 N   0  0  0  0  0  0  0  0  0  0  0  0
   47.4160    6.6995   20.8230 C   0  0  0  0  0  0  0  0  0  0  0  0
   48.3716    4.4981   20.9465 C   0  0  0  0  0  0  0  0  0  0  0  0
   48.7672    7.0157   15.4430 C   0  0  0  0  0  0  0  0  0  0  0  0
   48.3295    8.3951   14.9608 C   0  0  0  0  0  0  0  0  0  0  0  0
   48.5080    8.6052   13.4583 C   0  0  0  0  0  0  0  0  0  0  0  0
   49.9607    8.5699   13.0095 C   0  0  0  0  0  0  0  0  0  0  0  0
   48.8181    5.5091   17.2710 C   0  0  0  0  0  0  0  0  0  0  0  0
   48.7354    7.8396   16.6961 C   0  0  0  0  0  0  0  0  0  0  0  0
   49.0542    6.5208   16.3323 C   0  0  0  0  0  0  0  0  0  0  0  0
   49.1253    4.1353   16.9373 N   0  0  0  0  0  0  0  0  0  0  0  0
   48.9544    8.9535   15.7645 N   0  0  0  0  0  0  0  0  0  0  0  0
   47.4242    7.3796   20.2093 N   0  0  0  0  0  0  0  0  0  0  0  0
   47.9816    7.0823   18.8818 C   0  0  0  0  0  0  0  0  0  0  0  0
   48.1986    8.1261   17.9678 C   0  0  0  0  0  0  0  0  0  0  0  0
   48.2898    5.7620   18.5426 C   0  0  0  0  0  0  0  0  0  0  0  0
   48.2791    3.5182   16.2793 O   0  0  0  0  0  0  0  0  0  0  0  0
   48.6580   10.0927   16.1438 O   0  0  0  0  0  0  0  0  0  0  0  0
   47.2027    8.5655   20.4829 O   0  0  0  0  0  0  0  0  0  0  0  0
   50.1782    3.6767   17.3970 O   0  0  0  0  0  0  0  0  0  0  0  0
   49.4259    8.6781   14.6514 O   0  0  0  0  0  0  0  0  0  0  0  0
   47.2125    6.4239   20.9659 O   0  0  0  0  0  0  0  0  0  0  0  0
   49.5889    6.1642   15.1257 O   0  0  0  0  0  0  0  0  0  0  0  0
   49.4265    7.7030   17.4682 C   0  0  0  0  0  0  0  0  0  0  0  0
   49.2425    7.6423   15.9927 C   0  0  0  0  0  0  0  0  0  0  0  0
   50.2290    8.4400   18.0193 O   0  0  0  0  0  0  0  0  0  0  0  0
   50.0247    8.4825   15.1920 C   0  0  0  0  0  0  0  0  0  0  0  0
   48.3365    6.7681   15.3814 C   0  0  0  0  0  0  0  0  0  0  0  0
   48.9426    7.6315   13.1894 C   0  0  0  0  0  0  0  0  0  0  0  0
   48.5840    6.8412   18.0907 O   0  0  0  0  0  0  0  0  0  0  0  0
   48.8950    7.5254   11.7959 N   0  0  0  0  0  0  0  0  0  0  0  0
   49.8876    8.4590   13.8001 C   0  0  0  0  0  0  0  0  0  0  0  0
   48.2066    6.7524   13.9877 C   0  0  0  0  0  0  0  0  0  0  0  0
   48.6943    6.8391   19.5215 C   0  0  0  0  0  0  0  0  0  0  0  0
   47.6672    5.8528   20.0678 C   0  0  0  0  0  0  0  0  0  0  0  0
   47.6016    5.8186   21.5936 C   0  0  0  0  0  0  0  0  0  0  0  0
   48.8762    5.3026   22.2428 C   0  0  0  0  0  0  0  0  0  0  0  0
   47.4798    7.6691   18.9089 H   0  0  0  0  0  0  0  0  0  0  0  0
   49.2006    3.7146   19.1208 H   0  0  0  0  0  0  0  0  0  0  0  0
   47.1825    6.3488   23.3798 H   0  0  0  0  0  0  0  0  0  0  0  0
   47.8513    4.8030   23.4641 H   0  0  0  0  0  0  0  0  0  0  0  0
   46.8733    7.5239   21.2792 H   0  0  0  0  0  0  0  0  0  0  0  0
   48.5845    3.5858   21.4982 H   0  0  0  0  0  0  0  0  0  0  0  0
   48.2329    6.2351   14.8891 H   0  0  0  0  0  0  0  0  0  0  0  0
   49.8475    6.8877   15.3140 H   0  0  0  0  0  0  0  0  0  0  0  0
   47.2726    8.5417   15.2177 H   0  0  0  0  0  0  0  0  0  0  0  0
   48.8753    9.1665   15.5183 H   0  0  0  0  0  0  0  0  0  0  0  0
   48.0835    9.5801   13.1905 H   0  0  0  0  0  0  0  0  0  0  0  0
   47.9376    7.8492   12.9060 H   0  0  0  0  0  0  0  0  0  0  0  0
   50.5630    9.2921   13.5697 H   0  0  0  0  0  0  0  0  0  0  0  0
   50.0310    8.8220   11.9466 H   0  0  0  0  0  0  0  0  0  0  0  0
   50.3974    7.5757   13.1433 H   0  0  0  0  0  0  0  0  0  0  0  0
   47.9535    9.1527   18.2444 H   0  0  0  0  0  0  0  0  0  0  0  0
   48.1280    4.9410   19.2406 H   0  0  0  0  0  0  0  0  0  0  0  0
   49.7048    6.9414   14.5353 H   0  0  0  0  0  0  0  0  0  0  0  0
   50.7546    9.1505   15.6451 H   0  0  0  0  0  0  0  0  0  0  0  0
   47.7339    6.0828   15.9717 H   0  0  0  0  0  0  0  0  0  0  0  0
   48.0154    7.1672   11.4374 H   0  0  0  0  0  0  0  0  0  0  0  0
   49.1972    8.3625   11.3070 H   0  0  0  0  0  0  0  0  0  0  0  0
   50.5285    9.0971   13.1969 H   0  0  0  0  0  0  0  0  0  0  0  0
   47.5214    6.0432   13.5303 H   0  0  0  0  0  0  0  0  0  0  0  0
   49.7084    6.5339   19.8004 H   0  0  0  0  0  0  0  0  0  0  0  0
   48.4917    7.8454   19.9056 H   0  0  0  0  0  0  0  0  0  0  0  0
   47.8783    4.8502   19.6752 H   0  0  0  0  0  0  0  0  0  0  0  0
   46.6777    6.1186   19.6746 H   0  0  0  0  0  0  0  0  0  0  0  0
   47.3749    6.8192   21.9796 H   0  0  0  0  0  0  0  0  0  0  0  0
   46.7706    5.1684   21.8918 H   0  0  0  0  0  0  0  0  0  0  0  0
   48.7374    5.2156   23.3251 H   0  0  0  0  0  0  0  0  0  0  0  0
   49.1423    4.3141   21.8552 H   0  0  0  0  0  0  0  0  0  0  0  0
   49.7168    5.9811   22.0708 H   0  0  0  0  0  0  0  0  0  0  0  0
  2  1  1  0
  3  1  2  0
  4  2  2  0
  5  2  1  0
  6 10  1  0
  7  1  1  0
  8  6  1  0
  9  4  1  0
 10  5  2  0
 11  7  1  0
 12 11  1  0
 13 12  1  0
 14 13  1  0
  9  6  2  0
 16 17  1  0
 17 15  2  0
 18 15  1  0
 19 16  1  0
 20 21  1  0
 21 23  2  0
 22 21  1  0
 23 15  1  0
 24 18  1  0
 25 19  1  0
 26 20  1  0
 27 18  2  0
 28 19  2  0
 29 20  2  0
 30 17  1  0
 22 16  2  0
 32 31  1  0
 33 31  2  0
 34 32  2  0
 35 32  1  0
 36 40  1  0
 37 31  1  0
 38 36  1  0
 39 34  1  0
 40 35  2  0
 41 37  1  0
 42 41  1  0
 43 42  1  0
 44 43  1  0
 39 36  2  0
  4 45  1  0
  5 46  1  0
  8 47  1  0
  8 48  1  0
  9 49  1  0
 10 50  1  0
 11 51  1  0
 11 52  1  0
 12 53  1  0
 12 54  1  0
 13 55  1  0
 13 56  1  0
 14 57  1  0
 14 58  1  0
 14 59  1  0
 22 60  1  0
 23 61  1  0
 30 62  1  0
 34 63  1  0
 35 64  1  0
 38 65  1  0
 38 66  1  0
 39 67  1  0
 40 68  1  0
 41 69  1  0
 41 70  1  0
 42 71  1  0
 42 72  1  0
 43 73  1  0
 43 74  1  0
 44 75  1  0
 44 76  1  0
 44 77  1  0
M  CHG  6  18   1  19   1  20   1  24  -1  25  -1  26  -1
M  END
> <Uni-Dock RESULT> 
ENERGY=   -5.346  LOWER_BOUND=    5.306  UPPER_BOUND=    6.796
INTER + INTRA:          -5.346
INTER:                  -5.346
INTRA:                   0.000
UNBOUND:                 0.000

$$$$
