
     RDKit          3D

 77 77  0  0  0  0  0  0  0  0999 V2000
   48.7423    6.9822   20.2406 C   0  0  0  0  0  0  0  0  0  0  0  0
   48.5012    8.3385   20.8045 C   0  0  0  0  0  0  0  0  0  0  0  0
   49.0600    6.0184   20.9193 O   0  0  0  0  0  0  0  0  0  0  0  0
   48.1353    9.4314   20.0104 C   0  0  0  0  0  0  0  0  0  0  0  0
   48.6677    8.5228   22.1819 C   0  0  0  0  0  0  0  0  0  0  0  0
   48.0310   10.8588   21.9775 C   0  0  0  0  0  0  0  0  0  0  0  0
   48.5528    6.9836   18.8972 O   0  0  0  0  0  0  0  0  0  0  0  0
   47.9362   12.1374   22.5361 N   0  0  0  0  0  0  0  0  0  0  0  0
   47.9231   10.6853   20.5954 C   0  0  0  0  0  0  0  0  0  0  0  0
   48.4543    9.7799   22.7569 C   0  0  0  0  0  0  0  0  0  0  0  0
   48.7626    5.7253   18.2347 C   0  0  0  0  0  0  0  0  0  0  0  0
   47.4650    4.9217   18.2295 C   0  0  0  0  0  0  0  0  0  0  0  0
   47.6055    3.5397   17.5935 C   0  0  0  0  0  0  0  0  0  0  0  0
   47.9347    3.5861   16.1095 C   0  0  0  0  0  0  0  0  0  0  0  0
   47.9065    8.3375   18.9172 C   0  0  0  0  0  0  0  0  0  0  0  0
   47.9932    5.9538   19.1974 C   0  0  0  0  0  0  0  0  0  0  0  0
   48.0768    7.0643   18.3487 C   0  0  0  0  0  0  0  0  0  0  0  0
   47.9804    9.5493   18.0908 N   0  0  0  0  0  0  0  0  0  0  0  0
   48.1549    4.6224   18.6545 N   0  0  0  0  0  0  0  0  0  0  0  0
   47.3372    7.4928   22.5556 N   0  0  0  0  0  0  0  0  0  0  0  0
   47.5905    7.3431   21.1150 C   0  0  0  0  0  0  0  0  0  0  0  0
   47.7559    6.0657   20.5726 C   0  0  0  0  0  0  0  0  0  0  0  0
   47.6625    8.4829   20.2981 C   0  0  0  0  0  0  0  0  0  0  0  0
   48.1783    9.3968   16.8760 O   0  0  0  0  0  0  0  0  0  0  0  0
   49.2557    4.0846   18.8271 O   0  0  0  0  0  0  0  0  0  0  0  0
   47.2546    6.4592   23.2305 O   0  0  0  0  0  0  0  0  0  0  0  0
   47.8425   10.6424   18.6518 O   0  0  0  0  0  0  0  0  0  0  0  0
   47.1603    4.1103   18.1272 O   0  0  0  0  0  0  0  0  0  0  0  0
   47.2220    8.6421   22.9984 O   0  0  0  0  0  0  0  0  0  0  0  0
   48.3289    6.8414   17.0236 O   0  0  0  0  0  0  0  0  0  0  0  0
   48.0534    8.0269   18.6617 C   0  0  0  0  0  0  0  0  0  0  0  0
   48.0214    6.6016   18.2336 C   0  0  0  0  0  0  0  0  0  0  0  0
   48.9590    8.7930   18.3742 O   0  0  0  0  0  0  0  0  0  0  0  0
   46.9769    5.7342   18.5740 C   0  0  0  0  0  0  0  0  0  0  0  0
   49.0929    6.1130   17.4770 C   0  0  0  0  0  0  0  0  0  0  0  0
   48.0392    3.9278   17.3387 C   0  0  0  0  0  0  0  0  0  0  0  0
   46.9563    8.3243   19.4003 O   0  0  0  0  0  0  0  0  0  0  0  0
   48.1151    2.5694   17.0153 N   0  0  0  0  0  0  0  0  0  0  0  0
   47.0008    4.4024   18.1440 C   0  0  0  0  0  0  0  0  0  0  0  0
   49.1083    4.7800   17.0533 C   0  0  0  0  0  0  0  0  0  0  0  0
   46.8511    9.6720   19.8853 C   0  0  0  0  0  0  0  0  0  0  0  0
   47.0521    9.7020   21.3985 C   0  0  0  0  0  0  0  0  0  0  0  0
   48.4731    9.3143   21.8115 C   0  0  0  0  0  0  0  0  0  0  0  0
   48.6636    9.4245   23.3163 C   0  0  0  0  0  0  0  0  0  0  0  0
   48.0241    9.3299   18.9341 H   0  0  0  0  0  0  0  0  0  0  0  0
   48.9783    7.6930   22.8138 H   0  0  0  0  0  0  0  0  0  0  0  0
   47.3450   12.7755   22.0128 H   0  0  0  0  0  0  0  0  0  0  0  0
   47.7199   12.1393   23.5283 H   0  0  0  0  0  0  0  0  0  0  0  0
   47.6716   11.5287   19.9571 H   0  0  0  0  0  0  0  0  0  0  0  0
   48.6222    9.9067   23.8234 H   0  0  0  0  0  0  0  0  0  0  0  0
   49.5857    5.1672   18.6965 H   0  0  0  0  0  0  0  0  0  0  0  0
   49.0707    5.9637   17.2119 H   0  0  0  0  0  0  0  0  0  0  0  0
   47.1099    4.8003   19.2602 H   0  0  0  0  0  0  0  0  0  0  0  0
   46.6832    5.4966   17.7175 H   0  0  0  0  0  0  0  0  0  0  0  0
   48.3755    2.9639   18.1201 H   0  0  0  0  0  0  0  0  0  0  0  0
   46.6608    2.9986   17.7244 H   0  0  0  0  0  0  0  0  0  0  0  0
   47.1975    4.1818   15.5618 H   0  0  0  0  0  0  0  0  0  0  0  0
   48.9261    4.0128   15.9317 H   0  0  0  0  0  0  0  0  0  0  0  0
   47.9302    2.5740   15.6921 H   0  0  0  0  0  0  0  0  0  0  0  0
   47.7034    5.1715   21.1931 H   0  0  0  0  0  0  0  0  0  0  0  0
   47.5309    9.4747   20.7334 H   0  0  0  0  0  0  0  0  0  0  0  0
   48.3503    7.6802   16.5118 H   0  0  0  0  0  0  0  0  0  0  0  0
   46.1432    6.0725   19.1837 H   0  0  0  0  0  0  0  0  0  0  0  0
   49.9285    6.7626   17.2238 H   0  0  0  0  0  0  0  0  0  0  0  0
   48.6991    2.3679   16.2094 H   0  0  0  0  0  0  0  0  0  0  0  0
   47.2136    2.1049   16.9631 H   0  0  0  0  0  0  0  0  0  0  0  0
   46.1957    3.7367   18.4458 H   0  0  0  0  0  0  0  0  0  0  0  0
   49.9666    4.4147   16.4951 H   0  0  0  0  0  0  0  0  0  0  0  0
   47.5403   10.3599   19.3825 H   0  0  0  0  0  0  0  0  0  0  0  0
   45.8360   10.0108   19.6513 H   0  0  0  0  0  0  0  0  0  0  0  0
   46.3447    9.0100   21.8712 H   0  0  0  0  0  0  0  0  0  0  0  0
   46.8246   10.7095   21.7657 H   0  0  0  0  0  0  0  0  0  0  0  0
   49.1975    9.9654   21.3091 H   0  0  0  0  0  0  0  0  0  0  0  0
   48.6901    8.2856   21.5031 H   0  0  0  0  0  0  0  0  0  0  0  0
   47.9743    8.7610   23.8486 H   0  0  0  0  0  0  0  0  0  0  0  0
   49.6854    9.1434   23.5902 H   0  0  0  0  0  0  0  0  0  0  0  0
   48.4896   10.4492   23.6600 H   0  0  0  0  0  0  0  0  0  0  0  0
  2  1  1  0
  3  1  2  0
  4  2  2  0
  5  2  1  0
  6 10  1  0
  7  1  1  0
  8  6  1  0
  9  4  1  0
 10  5  2  0
 11  7  1  0
 12 11  1  0
 13 12  1  0
 14 13  1  0
  9  6  2  0
 16 17  1  0
 17 15  2  0
 18 15  1  0
 19 16  1  0
 20 21  1  0
 21 23  2  0
 22 21  1  0
 23 15  1  0
 24 18  1  0
 25 19  1  0
 26 20  1  0
 27 18  2  0
 28 19  2  0
 29 20  2  0
 30 17  1  0
 22 16  2  0
 32 31  1  0
 33 31  2  0
 34 32  2  0
 35 32  1  0
 36 40  1  0
 37 31  1  0
 38 36  1  0
 39 34  1  0
 40 35  2  0
 41 37  1  0
 42 41  1  0
 43 42  1  0
 44 43  1  0
 39 36  2  0
  4 45  1  0
  5 46  1  0
  8 47  1  0
  8 48  1  0
  9 49  1  0
 10 50  1  0
 11 51  1  0
 11 52  1  0
 12 53  1  0
 12 54  1  0
 13 55  1  0
 13 56  1  0
 14 57  1  0
 14 58  1  0
 14 59  1  0
 22 60  1  0
 23 61  1  0
 30 62  1  0
 34 63  1  0
 35 64  1  0
 38 65  1  0
 38 66  1  0
 39 67  1  0
 40 68  1  0
 41 69  1  0
 41 70  1  0
 42 71  1  0
 42 72  1  0
 43 73  1  0
 43 74  1  0
 44 75  1  0
 44 76  1  0
 44 77  1  0
M  CHG  6  18   1  19   1  20   1  24  -1  25  -1  26  -1
M  END
> <Uni-Dock RESULT> 
ENERGY=   -5.958  LOWER_BOUND=    0.000  UPPER_BOUND=    0.000
INTER + INTRA:          -5.958
INTER:                  -5.958
INTRA:                   0.000
UNBOUND:                 0.000

$$$$

     RDKit          3D

 77 77  0  0  0  0  0  0  0  0999 V2000
   46.7334    6.7507   11.8778 C   0  0  0  0  0  0  0  0  0  0  0  0
   45.8065    5.5886   11.7991 C   0  0  0  0  0  0  0  0  0  0  0  0
   46.6983    7.6928   11.1022 O   0  0  0  0  0  0  0  0  0  0  0  0
   45.8605    4.5183   12.6992 C   0  0  0  0  0  0  0  0  0  0  0  0
   44.8587    5.5655   10.7695 C   0  0  0  0  0  0  0  0  0  0  0  0
   43.9787    3.4527   11.5854 C   0  0  0  0  0  0  0  0  0  0  0  0
   47.5920    6.6062   12.9182 O   0  0  0  0  0  0  0  0  0  0  0  0
   43.1687    2.3286   11.3956 N   0  0  0  0  0  0  0  0  0  0  0  0
   44.9639    3.4504   12.5760 C   0  0  0  0  0  0  0  0  0  0  0  0
   43.9676    4.4935   10.6541 C   0  0  0  0  0  0  0  0  0  0  0  0
   48.5449    7.6679   13.0949 C   0  0  0  0  0  0  0  0  0  0  0  0
   47.9465    8.7565   13.9818 C   0  0  0  0  0  0  0  0  0  0  0  0
   48.8696    9.9577   14.1805 C   0  0  0  0  0  0  0  0  0  0  0  0
   50.1455    9.6228   14.9373 C   0  0  0  0  0  0  0  0  0  0  0  0
   46.8064    5.4692   13.5025 C   0  0  0  0  0  0  0  0  0  0  0  0
   47.2973    7.7736   13.0365 C   0  0  0  0  0  0  0  0  0  0  0  0
   47.6699    6.5682   13.6438 C   0  0  0  0  0  0  0  0  0  0  0  0
   47.1295    4.1723   14.1111 N   0  0  0  0  0  0  0  0  0  0  0  0
   48.1523    8.9341   13.1618 N   0  0  0  0  0  0  0  0  0  0  0  0
   44.0244    6.9328   11.4063 N   0  0  0  0  0  0  0  0  0  0  0  0
   45.2736    6.8108   12.1721 C   0  0  0  0  0  0  0  0  0  0  0  0
   46.1160    7.9187   12.2993 C   0  0  0  0  0  0  0  0  0  0  0  0
   45.6078    5.5846   12.7693 C   0  0  0  0  0  0  0  0  0  0  0  0
   48.1799    4.0984   14.7661 O   0  0  0  0  0  0  0  0  0  0  0  0
   48.8649    9.2040   12.1871 O   0  0  0  0  0  0  0  0  0  0  0  0
   43.7585    8.0397   10.9217 O   0  0  0  0  0  0  0  0  0  0  0  0
   46.3403    3.2370   13.9346 O   0  0  0  0  0  0  0  0  0  0  0  0
   48.0470    9.5951   14.2018 O   0  0  0  0  0  0  0  0  0  0  0  0
   43.3206    5.9214   11.2975 O   0  0  0  0  0  0  0  0  0  0  0  0
   48.8538    6.5331   14.3265 O   0  0  0  0  0  0  0  0  0  0  0  0
   47.1686    5.6950   13.5377 C   0  0  0  0  0  0  0  0  0  0  0  0
   47.8431    7.0094   13.7202 C   0  0  0  0  0  0  0  0  0  0  0  0
   47.7431    4.6973   13.1324 O   0  0  0  0  0  0  0  0  0  0  0  0
   47.1697    8.1458   14.1832 C   0  0  0  0  0  0  0  0  0  0  0  0
   49.2008    7.1080   13.3944 C   0  0  0  0  0  0  0  0  0  0  0  0
   49.2243    9.4429   14.0669 C   0  0  0  0  0  0  0  0  0  0  0  0
   45.8592    5.7834   13.8771 O   0  0  0  0  0  0  0  0  0  0  0  0
   49.8726   10.6815   14.1057 N   0  0  0  0  0  0  0  0  0  0  0  0
   47.8557    9.3565   14.3343 C   0  0  0  0  0  0  0  0  0  0  0  0
   49.8772    8.3228   13.5474 C   0  0  0  0  0  0  0  0  0  0  0  0
   45.0777    4.5852   13.7505 C   0  0  0  0  0  0  0  0  0  0  0  0
   44.0941    4.7207   12.5906 C   0  0  0  0  0  0  0  0  0  0  0  0
   44.7931    4.8020   11.2323 C   0  0  0  0  0  0  0  0  0  0  0  0
   43.7876    4.8619   10.0929 C   0  0  0  0  0  0  0  0  0  0  0  0
   46.6017    4.4911   13.4937 H   0  0  0  0  0  0  0  0  0  0  0  0
   44.8171    6.3743   10.0426 H   0  0  0  0  0  0  0  0  0  0  0  0
   43.0058    1.7879   12.2392 H   0  0  0  0  0  0  0  0  0  0  0  0
   42.3091    2.5199   10.8897 H   0  0  0  0  0  0  0  0  0  0  0  0
   45.0438    2.6132   13.2649 H   0  0  0  0  0  0  0  0  0  0  0  0
   43.2626    4.4812    9.8268 H   0  0  0  0  0  0  0  0  0  0  0  0
   48.8773    8.0662   12.1289 H   0  0  0  0  0  0  0  0  0  0  0  0
   49.4200    7.2193   13.5752 H   0  0  0  0  0  0  0  0  0  0  0  0
   47.0046    9.1056   13.5413 H   0  0  0  0  0  0  0  0  0  0  0  0
   47.6723    8.3248   14.9525 H   0  0  0  0  0  0  0  0  0  0  0  0
   49.1261   10.3951   13.2086 H   0  0  0  0  0  0  0  0  0  0  0  0
   48.3240   10.7270   14.7399 H   0  0  0  0  0  0  0  0  0  0  0  0
   49.9197    9.1552   15.9009 H   0  0  0  0  0  0  0  0  0  0  0  0
   50.7853    8.9450   14.3647 H   0  0  0  0  0  0  0  0  0  0  0  0
   50.7186   10.5356   15.1295 H   0  0  0  0  0  0  0  0  0  0  0  0
   45.8712    8.8767   11.8415 H   0  0  0  0  0  0  0  0  0  0  0  0
   44.9414    4.7272   12.6635 H   0  0  0  0  0  0  0  0  0  0  0  0
   49.0148    5.6511   14.7294 H   0  0  0  0  0  0  0  0  0  0  0  0
   46.1093    8.1121   14.4188 H   0  0  0  0  0  0  0  0  0  0  0  0
   49.7374    6.2441   13.0072 H   0  0  0  0  0  0  0  0  0  0  0  0
   50.8818   10.6175   14.1979 H   0  0  0  0  0  0  0  0  0  0  0  0
   49.4671   11.3409   14.7629 H   0  0  0  0  0  0  0  0  0  0  0  0
   47.3072   10.2352   14.6651 H   0  0  0  0  0  0  0  0  0  0  0  0
   50.9230    8.3837   13.2568 H   0  0  0  0  0  0  0  0  0  0  0  0
   45.6935    3.6853   13.6419 H   0  0  0  0  0  0  0  0  0  0  0  0
   44.5172    4.4765   14.6854 H   0  0  0  0  0  0  0  0  0  0  0  0
   43.4897    5.6249   12.7324 H   0  0  0  0  0  0  0  0  0  0  0  0
   43.4126    3.8622   12.6025 H   0  0  0  0  0  0  0  0  0  0  0  0
   45.4408    3.9287   11.0942 H   0  0  0  0  0  0  0  0  0  0  0  0
   45.4309    5.6917   11.1869 H   0  0  0  0  0  0  0  0  0  0  0  0
   43.1436    5.7426   10.1841 H   0  0  0  0  0  0  0  0  0  0  0  0
   44.3077    4.9193    9.1315 H   0  0  0  0  0  0  0  0  0  0  0  0
   43.1523    3.9704   10.0827 H   0  0  0  0  0  0  0  0  0  0  0  0
  2  1  1  0
  3  1  2  0
  4  2  2  0
  5  2  1  0
  6 10  1  0
  7  1  1  0
  8  6  1  0
  9  4  1  0
 10  5  2  0
 11  7  1  0
 12 11  1  0
 13 12  1  0
 14 13  1  0
  9  6  2  0
 16 17  1  0
 17 15  2  0
 18 15  1  0
 19 16  1  0
 20 21  1  0
 21 23  2  0
 22 21  1  0
 23 15  1  0
 24 18  1  0
 25 19  1  0
 26 20  1  0
 27 18  2  0
 28 19  2  0
 29 20  2  0
 30 17  1  0
 22 16  2  0
 32 31  1  0
 33 31  2  0
 34 32  2  0
 35 32  1  0
 36 40  1  0
 37 31  1  0
 38 36  1  0
 39 34  1  0
 40 35  2  0
 41 37  1  0
 42 41  1  0
 43 42  1  0
 44 43  1  0
 39 36  2  0
  4 45  1  0
  5 46  1  0
  8 47  1  0
  8 48  1  0
  9 49  1  0
 10 50  1  0
 11 51  1  0
 11 52  1  0
 12 53  1  0
 12 54  1  0
 13 55  1  0
 13 56  1  0
 14 57  1  0
 14 58  1  0
 14 59  1  0
 22 60  1  0
 23 61  1  0
 30 62  1  0
 34 63  1  0
 35 64  1  0
 38 65  1  0
 38 66  1  0
 39 67  1  0
 40 68  1  0
 41 69  1  0
 41 70  1  0
 42 71  1  0
 42 72  1  0
 43 73  1  0
 43 74  1  0
 44 75  1  0
 44 76  1  0
 44 77  1  0
M  CHG  6  18   1  19   1  20   1  24  -1  25  -1  26  -1
M  END
> <Uni-Dock RESULT> 
ENERGY=   -5.558  LOWER_BOUND=    5.827  UPPER_BOUND=    8.897
INTER + INTRA:          -5.558
INTER:                  -5.558
INTRA:                   0.000
UNBOUND:                 0.000

$$$$

     RDKit          3D

 77 77  0  0  0  0  0  0  0  0999 V2000
   47.7499    8.7559   18.1267 C   0  0  0  0  0  0  0  0  0  0  0  0
   47.6367   10.0469   18.8590 C   0  0  0  0  0  0  0  0  0  0  0  0
   47.8409    8.6774   16.9118 O   0  0  0  0  0  0  0  0  0  0  0  0
   47.5354   10.1170   20.2531 C   0  0  0  0  0  0  0  0  0  0  0  0
   47.6127   11.2315   18.1138 C   0  0  0  0  0  0  0  0  0  0  0  0
   47.4646   12.5464   20.1517 C   0  0  0  0  0  0  0  0  0  0  0  0
   47.7431    7.7131   18.9947 O   0  0  0  0  0  0  0  0  0  0  0  0
   47.2370   13.7737   20.7825 N   0  0  0  0  0  0  0  0  0  0  0  0
   47.4295   11.3599   20.8884 C   0  0  0  0  0  0  0  0  0  0  0  0
   47.5056   12.4685   18.7579 C   0  0  0  0  0  0  0  0  0  0  0  0
   47.8419    6.4066   18.4035 C   0  0  0  0  0  0  0  0  0  0  0  0
   49.3102    6.0221   18.2430 C   0  0  0  0  0  0  0  0  0  0  0  0
   49.5160    4.6670   17.5681 C   0  0  0  0  0  0  0  0  0  0  0  0
   48.9877    3.4972   18.3838 C   0  0  0  0  0  0  0  0  0  0  0  0
   47.9373    8.6078   20.1834 C   0  0  0  0  0  0  0  0  0  0  0  0
   48.6283    7.3696   18.2449 C   0  0  0  0  0  0  0  0  0  0  0  0
   48.0908    7.3696   19.5378 C   0  0  0  0  0  0  0  0  0  0  0  0
   47.3809    8.6878   21.5402 N   0  0  0  0  0  0  0  0  0  0  0  0
   48.8113    6.1170   17.5443 N   0  0  0  0  0  0  0  0  0  0  0  0
   49.2339   11.0106   17.5717 N   0  0  0  0  0  0  0  0  0  0  0  0
   48.8433    9.7620   18.2428 C   0  0  0  0  0  0  0  0  0  0  0  0
   49.0063    8.5423   17.5801 C   0  0  0  0  0  0  0  0  0  0  0  0
   48.3121    9.8059   19.5419 C   0  0  0  0  0  0  0  0  0  0  0  0
   47.0744    7.6203   22.0920 O   0  0  0  0  0  0  0  0  0  0  0  0
   47.9644    5.8331   16.6882 O   0  0  0  0  0  0  0  0  0  0  0  0
   49.7227   10.9202   16.4388 O   0  0  0  0  0  0  0  0  0  0  0  0
   47.2513    9.8076   22.0480 O   0  0  0  0  0  0  0  0  0  0  0  0
   49.8328    5.4728   17.8108 O   0  0  0  0  0  0  0  0  0  0  0  0
   49.0493   12.0695   18.1840 O   0  0  0  0  0  0  0  0  0  0  0  0
   47.7398    6.1676   20.0865 O   0  0  0  0  0  0  0  0  0  0  0  0
   47.8595    8.2047   20.0614 C   0  0  0  0  0  0  0  0  0  0  0  0
   48.2697    7.0017   19.2867 C   0  0  0  0  0  0  0  0  0  0  0  0
   46.7315    8.3685   20.4979 O   0  0  0  0  0  0  0  0  0  0  0  0
   49.5669    6.8297   18.7899 C   0  0  0  0  0  0  0  0  0  0  0  0
   47.3073    6.0174   19.0329 C   0  0  0  0  0  0  0  0  0  0  0  0
   48.9532    4.6659   17.8629 C   0  0  0  0  0  0  0  0  0  0  0  0
   48.9023    9.0606   20.1946 O   0  0  0  0  0  0  0  0  0  0  0  0
   49.2556    3.5772   17.0389 N   0  0  0  0  0  0  0  0  0  0  0  0
   49.8954    5.6773   18.0663 C   0  0  0  0  0  0  0  0  0  0  0  0
   47.6450    4.8701   18.3075 C   0  0  0  0  0  0  0  0  0  0  0  0
   48.6530   10.2726   20.9234 C   0  0  0  0  0  0  0  0  0  0  0  0
   48.6627   11.4675   19.9729 C   0  0  0  0  0  0  0  0  0  0  0  0
   47.5013   11.4377   18.9779 C   0  0  0  0  0  0  0  0  0  0  0  0
   47.4949   12.6756   18.0945 C   0  0  0  0  0  0  0  0  0  0  0  0
   47.5233    9.2156   20.8601 H   0  0  0  0  0  0  0  0  0  0  0  0
   47.6628   11.1983   17.0272 H   0  0  0  0  0  0  0  0  0  0  0  0
   47.5250   13.7992   21.7556 H   0  0  0  0  0  0  0  0  0  0  0  0
   47.5764   14.5756   20.2600 H   0  0  0  0  0  0  0  0  0  0  0  0
   47.3187   11.3913   21.9694 H   0  0  0  0  0  0  0  0  0  0  0  0
   47.4552   13.3727   18.1566 H   0  0  0  0  0  0  0  0  0  0  0  0
   47.3024    6.3618   17.4499 H   0  0  0  0  0  0  0  0  0  0  0  0
   47.3378    5.7193   19.0899 H   0  0  0  0  0  0  0  0  0  0  0  0
   49.8236    6.7908   17.6527 H   0  0  0  0  0  0  0  0  0  0  0  0
   49.7987    6.0340   19.2254 H   0  0  0  0  0  0  0  0  0  0  0  0
   49.0409    4.6669   16.5802 H   0  0  0  0  0  0  0  0  0  0  0  0
   50.5901    4.5200   17.4028 H   0  0  0  0  0  0  0  0  0  0  0  0
   49.4229    3.4900   19.3882 H   0  0  0  0  0  0  0  0  0  0  0  0
   47.8985    3.5336   18.4783 H   0  0  0  0  0  0  0  0  0  0  0  0
   49.2461    2.5519   17.8956 H   0  0  0  0  0  0  0  0  0  0  0  0
   49.4165    8.4915   16.5719 H   0  0  0  0  0  0  0  0  0  0  0  0
   48.1905   10.7643   20.0489 H   0  0  0  0  0  0  0  0  0  0  0  0
   47.3910    6.2730   20.9993 H   0  0  0  0  0  0  0  0  0  0  0  0
   50.3314    7.5865   18.9442 H   0  0  0  0  0  0  0  0  0  0  0  0
   46.2858    6.1432   19.3865 H   0  0  0  0  0  0  0  0  0  0  0  0
   48.6570    2.7698   17.1838 H   0  0  0  0  0  0  0  0  0  0  0  0
   50.2401    3.3289   17.0252 H   0  0  0  0  0  0  0  0  0  0  0  0
   50.8998    5.5776   17.6620 H   0  0  0  0  0  0  0  0  0  0  0  0
   46.8727    4.1352   18.0946 H   0  0  0  0  0  0  0  0  0  0  0  0
   47.7232   10.2372   21.5024 H   0  0  0  0  0  0  0  0  0  0  0  0
   49.4721   10.3798   21.6428 H   0  0  0  0  0  0  0  0  0  0  0  0
   49.6069   11.4782   19.4149 H   0  0  0  0  0  0  0  0  0  0  0  0
   48.6171   12.3898   20.5636 H   0  0  0  0  0  0  0  0  0  0  0  0
   46.5496   11.3773   19.5182 H   0  0  0  0  0  0  0  0  0  0  0  0
   47.5713   10.5498   18.3400 H   0  0  0  0  0  0  0  0  0  0  0  0
   48.4213   12.7493   17.5157 H   0  0  0  0  0  0  0  0  0  0  0  0
   46.6572   12.6346   17.3911 H   0  0  0  0  0  0  0  0  0  0  0  0
   47.3904   13.5855   18.6943 H   0  0  0  0  0  0  0  0  0  0  0  0
  2  1  1  0
  3  1  2  0
  4  2  2  0
  5  2  1  0
  6 10  1  0
  7  1  1  0
  8  6  1  0
  9  4  1  0
 10  5  2  0
 11  7  1  0
 12 11  1  0
 13 12  1  0
 14 13  1  0
  9  6  2  0
 16 17  1  0
 17 15  2  0
 18 15  1  0
 19 16  1  0
 20 21  1  0
 21 23  2  0
 22 21  1  0
 23 15  1  0
 24 18  1  0
 25 19  1  0
 26 20  1  0
 27 18  2  0
 28 19  2  0
 29 20  2  0
 30 17  1  0
 22 16  2  0
 32 31  1  0
 33 31  2  0
 34 32  2  0
 35 32  1  0
 36 40  1  0
 37 31  1  0
 38 36  1  0
 39 34  1  0
 40 35  2  0
 41 37  1  0
 42 41  1  0
 43 42  1  0
 44 43  1  0
 39 36  2  0
  4 45  1  0
  5 46  1  0
  8 47  1  0
  8 48  1  0
  9 49  1  0
 10 50  1  0
 11 51  1  0
 11 52  1  0
 12 53  1  0
 12 54  1  0
 13 55  1  0
 13 56  1  0
 14 57  1  0
 14 58  1  0
 14 59  1  0
 22 60  1  0
 23 61  1  0
 30 62  1  0
 34 63  1  0
 35 64  1  0
 38 65  1  0
 38 66  1  0
 39 67  1  0
 40 68  1  0
 41 69  1  0
 41 70  1  0
 42 71  1  0
 42 72  1  0
 43 73  1  0
 43 74  1  0
 44 75  1  0
 44 76  1  0
 44 77  1  0
M  CHG  6  18   1  19   1  20   1  24  -1  25  -1  26  -1
M  END
> <Uni-Dock RESULT> 
ENERGY=   -5.201  LOWER_BOUND=    1.495  UPPER_BOUND=    3.436
INTER + INTRA:          -5.201
INTER:                  -5.201
INTRA:                   0.000
UNBOUND:                 0.000

$$$$

     RDKit          3D

 77 77  0  0  0  0  0  0  0  0999 V2000
   47.4802    8.9473   21.1274 C   0  0  0  0  0  0  0  0  0  0  0  0
   47.7313    7.5025   20.8724 C   0  0  0  0  0  0  0  0  0  0  0  0
   47.2089    9.3987   22.2287 O   0  0  0  0  0  0  0  0  0  0  0  0
   48.0434    7.0037   19.6025 C   0  0  0  0  0  0  0  0  0  0  0  0
   47.6307    6.6125   21.9479 C   0  0  0  0  0  0  0  0  0  0  0  0
   48.2263    4.7515   20.5035 C   0  0  0  0  0  0  0  0  0  0  0  0
   47.6031    9.6623   19.9809 O   0  0  0  0  0  0  0  0  0  0  0  0
   48.3321    3.3731   20.2925 N   0  0  0  0  0  0  0  0  0  0  0  0
   48.2680    5.6340   19.4212 C   0  0  0  0  0  0  0  0  0  0  0  0
   47.8561    5.2453   21.7564 C   0  0  0  0  0  0  0  0  0  0  0  0
   47.3771   11.0770   20.0988 C   0  0  0  0  0  0  0  0  0  0  0  0
   48.6832   11.7805   20.4580 C   0  0  0  0  0  0  0  0  0  0  0  0
   48.5292   13.2869   20.6607 C   0  0  0  0  0  0  0  0  0  0  0  0
   48.1266   14.0305   19.3966 C   0  0  0  0  0  0  0  0  0  0  0  0
   48.2321    8.5145   19.2474 C   0  0  0  0  0  0  0  0  0  0  0  0
   48.1901   10.3841   20.7544 C   0  0  0  0  0  0  0  0  0  0  0  0
   48.0503    9.8925   19.4508 C   0  0  0  0  0  0  0  0  0  0  0  0
   48.1017    7.9255   17.9084 N   0  0  0  0  0  0  0  0  0  0  0  0
   48.0190   11.7979   21.0100 N   0  0  0  0  0  0  0  0  0  0  0  0
   48.9913    7.3071   22.7462 N   0  0  0  0  0  0  0  0  0  0  0  0
   48.6690    8.1949   21.6193 C   0  0  0  0  0  0  0  0  0  0  0  0
   48.4936    9.5627   21.8468 C   0  0  0  0  0  0  0  0  0  0  0  0
   48.5421    7.6618   20.3265 C   0  0  0  0  0  0  0  0  0  0  0  0
   47.8460    8.6966   16.9714 O   0  0  0  0  0  0  0  0  0  0  0  0
   46.9352   12.1450   21.4953 O   0  0  0  0  0  0  0  0  0  0  0  0
   49.1205    7.8258   23.8619 O   0  0  0  0  0  0  0  0  0  0  0  0
   48.2530    6.7035   17.7959 O   0  0  0  0  0  0  0  0  0  0  0  0
   48.9928   12.5270   20.7875 O   0  0  0  0  0  0  0  0  0  0  0  0
   49.1134    6.1000   22.5049 O   0  0  0  0  0  0  0  0  0  0  0  0
   47.7359   10.7811   18.4606 O   0  0  0  0  0  0  0  0  0  0  0  0
   48.0767    8.9111   19.2034 C   0  0  0  0  0  0  0  0  0  0  0  0
   48.1059   10.3465   19.5965 C   0  0  0  0  0  0  0  0  0  0  0  0
   47.1482    8.4008   18.5974 O   0  0  0  0  0  0  0  0  0  0  0  0
   49.1771   10.9166   20.2942 C   0  0  0  0  0  0  0  0  0  0  0  0
   47.0047   11.1458   19.2681 C   0  0  0  0  0  0  0  0  0  0  0  0
   48.0785   13.0868   20.2601 C   0  0  0  0  0  0  0  0  0  0  0  0
   49.2050    8.2837   19.6168 O   0  0  0  0  0  0  0  0  0  0  0  0
   48.0043   14.4083   20.7116 N   0  0  0  0  0  0  0  0  0  0  0  0
   49.1492   12.2730   20.6388 C   0  0  0  0  0  0  0  0  0  0  0  0
   46.9856   12.4999   19.6183 C   0  0  0  0  0  0  0  0  0  0  0  0
   49.3166    6.8860   19.3063 C   0  0  0  0  0  0  0  0  0  0  0  0
   49.1902    6.0540   20.5803 C   0  0  0  0  0  0  0  0  0  0  0  0
   47.7966    6.1415   21.2048 C   0  0  0  0  0  0  0  0  0  0  0  0
   47.6792    5.2463   22.4286 C   0  0  0  0  0  0  0  0  0  0  0  0
   48.1026    7.6629   18.7405 H   0  0  0  0  0  0  0  0  0  0  0  0
   47.3625    6.9753   22.9382 H   0  0  0  0  0  0  0  0  0  0  0  0
   48.8884    3.1194   19.4821 H   0  0  0  0  0  0  0  0  0  0  0  0
   48.5970    2.8479   21.1203 H   0  0  0  0  0  0  0  0  0  0  0  0
   48.4767    5.2621   18.4211 H   0  0  0  0  0  0  0  0  0  0  0  0
   47.7394    4.5691   22.5994 H   0  0  0  0  0  0  0  0  0  0  0  0
   46.5851   11.2921   20.8260 H   0  0  0  0  0  0  0  0  0  0  0  0
   47.0158   11.4134   19.1221 H   0  0  0  0  0  0  0  0  0  0  0  0
   49.0902   11.3415   21.3770 H   0  0  0  0  0  0  0  0  0  0  0  0
   49.4312   11.5772   19.6814 H   0  0  0  0  0  0  0  0  0  0  0  0
   47.7937   13.4834   21.4494 H   0  0  0  0  0  0  0  0  0  0  0  0
   49.4862   13.6903   21.0127 H   0  0  0  0  0  0  0  0  0  0  0  0
   48.8280   13.8279   18.5811 H   0  0  0  0  0  0  0  0  0  0  0  0
   47.1221   13.7482   19.0680 H   0  0  0  0  0  0  0  0  0  0  0  0
   48.1235   15.1098   19.5808 H   0  0  0  0  0  0  0  0  0  0  0  0
   48.5882    9.9916   22.8440 H   0  0  0  0  0  0  0  0  0  0  0  0
   48.6822    6.5924   20.1616 H   0  0  0  0  0  0  0  0  0  0  0  0
   47.6784   10.3418   17.5832 H   0  0  0  0  0  0  0  0  0  0  0  0
   50.0354   10.3190   20.5896 H   0  0  0  0  0  0  0  0  0  0  0  0
   46.1493   10.7170   18.7497 H   0  0  0  0  0  0  0  0  0  0  0  0
   47.3838   14.9979   20.1653 H   0  0  0  0  0  0  0  0  0  0  0  0
   48.9081   14.8433   20.8701 H   0  0  0  0  0  0  0  0  0  0  0  0
   49.9768   12.6890   21.2083 H   0  0  0  0  0  0  0  0  0  0  0  0
   46.1056   13.0927   19.3819 H   0  0  0  0  0  0  0  0  0  0  0  0
   48.5946    6.5596   18.5492 H   0  0  0  0  0  0  0  0  0  0  0  0
   50.3144    6.7387   18.8790 H   0  0  0  0  0  0  0  0  0  0  0  0
   49.9291    6.4002   21.3132 H   0  0  0  0  0  0  0  0  0  0  0  0
   49.4226    5.0090   20.3448 H   0  0  0  0  0  0  0  0  0  0  0  0
   47.0398    5.8455   20.4693 H   0  0  0  0  0  0  0  0  0  0  0  0
   47.5779    7.1735   21.5007 H   0  0  0  0  0  0  0  0  0  0  0  0
   48.4025    5.5363   23.1976 H   0  0  0  0  0  0  0  0  0  0  0  0
   46.6759    5.3234   22.8593 H   0  0  0  0  0  0  0  0  0  0  0  0
   47.8567    4.1982   22.1667 H   0  0  0  0  0  0  0  0  0  0  0  0
  2  1  1  0
  3  1  2  0
  4  2  2  0
  5  2  1  0
  6 10  1  0
  7  1  1  0
  8  6  1  0
  9  4  1  0
 10  5  2  0
 11  7  1  0
 12 11  1  0
 13 12  1  0
 14 13  1  0
  9  6  2  0
 16 17  1  0
 17 15  2  0
 18 15  1  0
 19 16  1  0
 20 21  1  0
 21 23  2  0
 22 21  1  0
 23 15  1  0
 24 18  1  0
 25 19  1  0
 26 20  1  0
 27 18  2  0
 28 19  2  0
 29 20  2  0
 30 17  1  0
 22 16  2  0
 32 31  1  0
 33 31  2  0
 34 32  2  0
 35 32  1  0
 36 40  1  0
 37 31  1  0
 38 36  1  0
 39 34  1  0
 40 35  2  0
 41 37  1  0
 42 41  1  0
 43 42  1  0
 44 43  1  0
 39 36  2  0
  4 45  1  0
  5 46  1  0
  8 47  1  0
  8 48  1  0
  9 49  1  0
 10 50  1  0
 11 51  1  0
 11 52  1  0
 12 53  1  0
 12 54  1  0
 13 55  1  0
 13 56  1  0
 14 57  1  0
 14 58  1  0
 14 59  1  0
 22 60  1  0
 23 61  1  0
 30 62  1  0
 34 63  1  0
 35 64  1  0
 38 65  1  0
 38 66  1  0
 39 67  1  0
 40 68  1  0
 41 69  1  0
 41 70  1  0
 42 71  1  0
 42 72  1  0
 43 73  1  0
 43 74  1  0
 44 75  1  0
 44 76  1  0
 44 77  1  0
M  CHG  6  18   1  19   1  20   1  24  -1  25  -1  26  -1
M  END
> <Uni-Dock RESULT> 
ENERGY=   -5.176  LOWER_BOUND=    1.670  UPPER_BOUND=    5.630
INTER + INTRA:          -5.176
INTER:                  -5.176
INTRA:                   0.000
UNBOUND:                 0.000

$$$$

     RDKit          3D

 77 77  0  0  0  0  0  0  0  0999 V2000
   46.0116    8.2741   12.9110 C   0  0  0  0  0  0  0  0  0  0  0  0
   47.2983    9.0222   12.9275 C   0  0  0  0  0  0  0  0  0  0  0  0
   44.9181    8.8160   12.9424 O   0  0  0  0  0  0  0  0  0  0  0  0
   48.5429    8.3833   12.8887 C   0  0  0  0  0  0  0  0  0  0  0  0
   47.2518   10.4191   13.0038 C   0  0  0  0  0  0  0  0  0  0  0  0
   49.6776   10.5347   12.9252 C   0  0  0  0  0  0  0  0  0  0  0  0
   46.2377    6.9378   12.8506 O   0  0  0  0  0  0  0  0  0  0  0  0
   50.8560   11.2745   13.0668 N   0  0  0  0  0  0  0  0  0  0  0  0
   49.7214    9.1384   12.9086 C   0  0  0  0  0  0  0  0  0  0  0  0
   48.4351   11.1648   13.0240 C   0  0  0  0  0  0  0  0  0  0  0  0
   45.0659    6.1052   12.8346 C   0  0  0  0  0  0  0  0  0  0  0  0
   44.5961    5.9024   11.3967 C   0  0  0  0  0  0  0  0  0  0  0  0
   43.3178    5.0733   11.2835 C   0  0  0  0  0  0  0  0  0  0  0  0
   43.4849    3.6353   11.7494 C   0  0  0  0  0  0  0  0  0  0  0  0
   47.6899    7.1252   12.5232 C   0  0  0  0  0  0  0  0  0  0  0  0
   45.3365    7.0449   12.0505 C   0  0  0  0  0  0  0  0  0  0  0  0
   46.5003    6.3810   12.4570 C   0  0  0  0  0  0  0  0  0  0  0  0
   48.9505    6.4980   12.9407 N   0  0  0  0  0  0  0  0  0  0  0  0
   44.0895    6.3166   11.9606 N   0  0  0  0  0  0  0  0  0  0  0  0
   46.5208   10.5537   11.4487 N   0  0  0  0  0  0  0  0  0  0  0  0
   46.5110    9.1244   11.7934 C   0  0  0  0  0  0  0  0  0  0  0  0
   45.3151    8.4049   11.7190 C   0  0  0  0  0  0  0  0  0  0  0  0
   47.7015    8.4956   12.1921 C   0  0  0  0  0  0  0  0  0  0  0  0
   48.9205    5.2879   13.2103 O   0  0  0  0  0  0  0  0  0  0  0  0
   43.2911    6.4695   12.8932 O   0  0  0  0  0  0  0  0  0  0  0  0
   45.4541   11.0578   11.0763 O   0  0  0  0  0  0  0  0  0  0  0  0
   49.9600    7.2095   12.9990 O   0  0  0  0  0  0  0  0  0  0  0  0
   43.8997    5.6605   10.9296 O   0  0  0  0  0  0  0  0  0  0  0  0
   47.5950   11.1584   11.5524 O   0  0  0  0  0  0  0  0  0  0  0  0
   46.4047    5.0544   12.7735 O   0  0  0  0  0  0  0  0  0  0  0  0
   47.3907    6.8346   12.6200 C   0  0  0  0  0  0  0  0  0  0  0  0
   46.0831    6.1939   12.3106 C   0  0  0  0  0  0  0  0  0  0  0  0
   47.9554    6.7201   13.6960 O   0  0  0  0  0  0  0  0  0  0  0  0
   45.4464    6.3372   11.0724 C   0  0  0  0  0  0  0  0  0  0  0  0
   45.4638    5.4358   13.3111 C   0  0  0  0  0  0  0  0  0  0  0  0
   43.6244    4.9061   11.8142 C   0  0  0  0  0  0  0  0  0  0  0  0
   47.8344    7.5444   11.5538 O   0  0  0  0  0  0  0  0  0  0  0  0
   42.3420    4.3853   11.6149 N   0  0  0  0  0  0  0  0  0  0  0  0
   44.2160    5.7121   10.8383 C   0  0  0  0  0  0  0  0  0  0  0  0
   44.2334    4.8163   13.0679 C   0  0  0  0  0  0  0  0  0  0  0  0
   49.0916    8.2213   11.7075 C   0  0  0  0  0  0  0  0  0  0  0  0
   48.8703    9.7307   11.7705 C   0  0  0  0  0  0  0  0  0  0  0  0
   48.1092   10.1623   13.0252 C   0  0  0  0  0  0  0  0  0  0  0  0
   47.9687   11.6750   13.0967 C   0  0  0  0  0  0  0  0  0  0  0  0
   48.6157    7.2994   12.8569 H   0  0  0  0  0  0  0  0  0  0  0  0
   46.2953   10.9347   13.0623 H   0  0  0  0  0  0  0  0  0  0  0  0
   51.6789   10.8204   12.6832 H   0  0  0  0  0  0  0  0  0  0  0  0
   50.7751   12.2412   12.7663 H   0  0  0  0  0  0  0  0  0  0  0  0
   50.6781    8.6220   12.9110 H   0  0  0  0  0  0  0  0  0  0  0  0
   48.3746   12.2461   13.1174 H   0  0  0  0  0  0  0  0  0  0  0  0
   44.2740    6.5243   13.4668 H   0  0  0  0  0  0  0  0  0  0  0  0
   45.3608    5.1503   13.2805 H   0  0  0  0  0  0  0  0  0  0  0  0
   44.4238    6.8802   10.9305 H   0  0  0  0  0  0  0  0  0  0  0  0
   45.4013    5.4388   10.8130 H   0  0  0  0  0  0  0  0  0  0  0  0
   42.5127    5.5504   11.8542 H   0  0  0  0  0  0  0  0  0  0  0  0
   43.0001    5.0651   10.2339 H   0  0  0  0  0  0  0  0  0  0  0  0
   44.3044    3.1423   11.2169 H   0  0  0  0  0  0  0  0  0  0  0  0
   43.6879    3.5826   12.8230 H   0  0  0  0  0  0  0  0  0  0  0  0
   42.5673    3.0695   11.5578 H   0  0  0  0  0  0  0  0  0  0  0  0
   44.3829    8.8784   11.4119 H   0  0  0  0  0  0  0  0  0  0  0  0
   48.6288    9.0679   12.2455 H   0  0  0  0  0  0  0  0  0  0  0  0
   47.2762    4.6780   13.0281 H   0  0  0  0  0  0  0  0  0  0  0  0
   45.8852    6.9413   10.2828 H   0  0  0  0  0  0  0  0  0  0  0  0
   45.9279    5.3334   14.2900 H   0  0  0  0  0  0  0  0  0  0  0  0
   42.1197    3.5936   12.2107 H   0  0  0  0  0  0  0  0  0  0  0  0
   42.1125    4.2106   10.6412 H   0  0  0  0  0  0  0  0  0  0  0  0
   43.7227    5.8618    9.8809 H   0  0  0  0  0  0  0  0  0  0  0  0
   43.7560    4.2602   13.8707 H   0  0  0  0  0  0  0  0  0  0  0  0
   49.6604    7.8699   12.5758 H   0  0  0  0  0  0  0  0  0  0  0  0
   49.6866    7.9826   10.8193 H   0  0  0  0  0  0  0  0  0  0  0  0
   48.3058   10.0507   10.8863 H   0  0  0  0  0  0  0  0  0  0  0  0
   49.8443   10.2326   11.7405 H   0  0  0  0  0  0  0  0  0  0  0  0
   48.6344    9.8078   13.9195 H   0  0  0  0  0  0  0  0  0  0  0  0
   47.1094    9.7146   13.0349 H   0  0  0  0  0  0  0  0  0  0  0  0
   47.4195   12.0592   12.2311 H   0  0  0  0  0  0  0  0  0  0  0  0
   47.4223   11.9622   14.0006 H   0  0  0  0  0  0  0  0  0  0  0  0
   48.9500   12.1595   13.1246 H   0  0  0  0  0  0  0  0  0  0  0  0
  2  1  1  0
  3  1  2  0
  4  2  2  0
  5  2  1  0
  6 10  1  0
  7  1  1  0
  8  6  1  0
  9  4  1  0
 10  5  2  0
 11  7  1  0
 12 11  1  0
 13 12  1  0
 14 13  1  0
  9  6  2  0
 16 17  1  0
 17 15  2  0
 18 15  1  0
 19 16  1  0
 20 21  1  0
 21 23  2  0
 22 21  1  0
 23 15  1  0
 24 18  1  0
 25 19  1  0
 26 20  1  0
 27 18  2  0
 28 19  2  0
 29 20  2  0
 30 17  1  0
 22 16  2  0
 32 31  1  0
 33 31  2  0
 34 32  2  0
 35 32  1  0
 36 40  1  0
 37 31  1  0
 38 36  1  0
 39 34  1  0
 40 35  2  0
 41 37  1  0
 42 41  1  0
 43 42  1  0
 44 43  1  0
 39 36  2  0
  4 45  1  0
  5 46  1  0
  8 47  1  0
  8 48  1  0
  9 49  1  0
 10 50  1  0
 11 51  1  0
 11 52  1  0
 12 53  1  0
 12 54  1  0
 13 55  1  0
 13 56  1  0
 14 57  1  0
 14 58  1  0
 14 59  1  0
 22 60  1  0
 23 61  1  0
 30 62  1  0
 34 63  1  0
 35 64  1  0
 38 65  1  0
 38 66  1  0
 39 67  1  0
 40 68  1  0
 41 69  1  0
 41 70  1  0
 42 71  1  0
 42 72  1  0
 43 73  1  0
 43 74  1  0
 44 75  1  0
 44 76  1  0
 44 77  1  0
M  CHG  6  18   1  19   1  20   1  24  -1  25  -1  26  -1
M  END
> <Uni-Dock RESULT> 
ENERGY=   -5.129  LOWER_BOUND=    6.985  UPPER_BOUND=    8.192
INTER + INTRA:          -5.129
INTER:                  -5.129
INTRA:                   0.000
UNBOUND:                 0.000

$$$$

     RDKit          3D

 77 77  0  0  0  0  0  0  0  0999 V2000
   45.6059   11.9407    9.3427 C   0  0  0  0  0  0  0  0  0  0  0  0
   46.4144   12.3074    8.1479 C   0  0  0  0  0  0  0  0  0  0  0  0
   46.0005   12.0777   10.4898 O   0  0  0  0  0  0  0  0  0  0  0  0
   45.9438   12.1451    6.8399 C   0  0  0  0  0  0  0  0  0  0  0  0
   47.7023   12.8166    8.3502 C   0  0  0  0  0  0  0  0  0  0  0  0
   48.0121   13.0691    5.9534 C   0  0  0  0  0  0  0  0  0  0  0  0
   44.3967   11.4521    8.9687 O   0  0  0  0  0  0  0  0  0  0  0  0
   48.8548   13.3128    4.8643 N   0  0  0  0  0  0  0  0  0  0  0  0
   46.7494   12.5058    5.7534 C   0  0  0  0  0  0  0  0  0  0  0  0
   48.5000   13.1733    7.2579 C   0  0  0  0  0  0  0  0  0  0  0  0
   43.5236   11.0560   10.0397 C   0  0  0  0  0  0  0  0  0  0  0  0
   42.6912   12.2512   10.4961 C   0  0  0  0  0  0  0  0  0  0  0  0
   41.7699   11.9391   11.6743 C   0  0  0  0  0  0  0  0  0  0  0  0
   40.6841   10.9271   11.3429 C   0  0  0  0  0  0  0  0  0  0  0  0
   44.5713   11.9068    7.5495 C   0  0  0  0  0  0  0  0  0  0  0  0
   44.0693   12.1735    9.8830 C   0  0  0  0  0  0  0  0  0  0  0  0
   43.7550   11.5921    8.6486 C   0  0  0  0  0  0  0  0  0  0  0  0
   44.3043   11.3360    6.2230 N   0  0  0  0  0  0  0  0  0  0  0  0
   43.2518   11.8838   11.0411 N   0  0  0  0  0  0  0  0  0  0  0  0
   47.0997   14.2442    9.1050 N   0  0  0  0  0  0  0  0  0  0  0  0
   45.9534   13.3363    8.9515 C   0  0  0  0  0  0  0  0  0  0  0  0
   45.1555   13.0390   10.0597 C   0  0  0  0  0  0  0  0  0  0  0  0
   45.6702   12.7780    7.6946 C   0  0  0  0  0  0  0  0  0  0  0  0
   43.3224   10.5863    6.1147 O   0  0  0  0  0  0  0  0  0  0  0  0
   43.7025   11.0571   11.8436 O   0  0  0  0  0  0  0  0  0  0  0  0
   47.2936   14.7335   10.2246 O   0  0  0  0  0  0  0  0  0  0  0  0
   45.0700   11.6343    5.2992 O   0  0  0  0  0  0  0  0  0  0  0  0
   42.2085   12.5364   11.1650 O   0  0  0  0  0  0  0  0  0  0  0  0
   47.7944   14.4605    8.1046 O   0  0  0  0  0  0  0  0  0  0  0  0
   42.6812   10.7478    8.5921 O   0  0  0  0  0  0  0  0  0  0  0  0
   44.3202   11.6816    7.8134 C   0  0  0  0  0  0  0  0  0  0  0  0
   43.4838   11.6243    9.0434 C   0  0  0  0  0  0  0  0  0  0  0  0
   44.7237   10.6882    7.2302 O   0  0  0  0  0  0  0  0  0  0  0  0
   43.0311   12.7730    9.7028 C   0  0  0  0  0  0  0  0  0  0  0  0
   43.1585   10.3669    9.5652 C   0  0  0  0  0  0  0  0  0  0  0  0
   41.8718   11.4045   11.3463 C   0  0  0  0  0  0  0  0  0  0  0  0
   44.5572   12.9691    7.4613 O   0  0  0  0  0  0  0  0  0  0  0  0
   41.1921   11.2986   12.5639 N   0  0  0  0  0  0  0  0  0  0  0  0
   42.2479   12.6581   10.8572 C   0  0  0  0  0  0  0  0  0  0  0  0
   42.3765   10.2625   10.7203 C   0  0  0  0  0  0  0  0  0  0  0  0
   45.3560   13.1800    6.2866 C   0  0  0  0  0  0  0  0  0  0  0  0
   46.7228   13.7386    6.6753 C   0  0  0  0  0  0  0  0  0  0  0  0
   47.5639   12.7374    7.4692 C   0  0  0  0  0  0  0  0  0  0  0  0
   48.9451   13.2940    7.7779 C   0  0  0  0  0  0  0  0  0  0  0  0
   44.9595   11.7271    6.6463 H   0  0  0  0  0  0  0  0  0  0  0  0
   48.0982   12.9256    9.3580 H   0  0  0  0  0  0  0  0  0  0  0  0
   48.3651   13.5172    3.9989 H   0  0  0  0  0  0  0  0  0  0  0  0
   49.5933   13.9832    5.0557 H   0  0  0  0  0  0  0  0  0  0  0  0
   46.3783   12.3412    4.7448 H   0  0  0  0  0  0  0  0  0  0  0  0
   49.5091   13.5350    7.4385 H   0  0  0  0  0  0  0  0  0  0  0  0
   44.0891   10.6131   10.8682 H   0  0  0  0  0  0  0  0  0  0  0  0
   42.8779   10.2702    9.6358 H   0  0  0  0  0  0  0  0  0  0  0  0
   43.3611   13.0717   10.7810 H   0  0  0  0  0  0  0  0  0  0  0  0
   42.1071   12.6323    9.6491 H   0  0  0  0  0  0  0  0  0  0  0  0
   42.3608   11.5753   12.5229 H   0  0  0  0  0  0  0  0  0  0  0  0
   41.2911   12.8709   11.9980 H   0  0  0  0  0  0  0  0  0  0  0  0
   40.0963   11.2503   10.4778 H   0  0  0  0  0  0  0  0  0  0  0  0
   41.1068    9.9418   11.1261 H   0  0  0  0  0  0  0  0  0  0  0  0
   40.0030   10.8154   12.1928 H   0  0  0  0  0  0  0  0  0  0  0  0
   45.3623   13.4636   11.0417 H   0  0  0  0  0  0  0  0  0  0  0  0
   46.3002   13.0184    6.8369 H   0  0  0  0  0  0  0  0  0  0  0  0
   42.5340   10.4078    7.6817 H   0  0  0  0  0  0  0  0  0  0  0  0
   43.2882   13.7651    9.3413 H   0  0  0  0  0  0  0  0  0  0  0  0
   43.5223    9.4611    9.0841 H   0  0  0  0  0  0  0  0  0  0  0  0
   40.7058   10.4162   12.6908 H   0  0  0  0  0  0  0  0  0  0  0  0
   40.6035   12.0972   12.7806 H   0  0  0  0  0  0  0  0  0  0  0  0
   41.9329   13.5624   11.3724 H   0  0  0  0  0  0  0  0  0  0  0  0
   42.1645    9.2763   11.1255 H   0  0  0  0  0  0  0  0  0  0  0  0
   45.4590   12.2768    5.6745 H   0  0  0  0  0  0  0  0  0  0  0  0
   44.8265   13.9196    5.6763 H   0  0  0  0  0  0  0  0  0  0  0  0
   46.5853   14.6434    7.2798 H   0  0  0  0  0  0  0  0  0  0  0  0
   47.2589   14.0279    5.7640 H   0  0  0  0  0  0  0  0  0  0  0  0
   47.6707   11.8069    6.9000 H   0  0  0  0  0  0  0  0  0  0  0  0
   47.0656   12.4876    8.4124 H   0  0  0  0  0  0  0  0  0  0  0  0
   48.8748   14.2095    8.3742 H   0  0  0  0  0  0  0  0  0  0  0  0
   49.5298   12.5631    8.3453 H   0  0  0  0  0  0  0  0  0  0  0  0
   49.4905   13.5240    6.8570 H   0  0  0  0  0  0  0  0  0  0  0  0
  2  1  1  0
  3  1  2  0
  4  2  2  0
  5  2  1  0
  6 10  1  0
  7  1  1  0
  8  6  1  0
  9  4  1  0
 10  5  2  0
 11  7  1  0
 12 11  1  0
 13 12  1  0
 14 13  1  0
  9  6  2  0
 16 17  1  0
 17 15  2  0
 18 15  1  0
 19 16  1  0
 20 21  1  0
 21 23  2  0
 22 21  1  0
 23 15  1  0
 24 18  1  0
 25 19  1  0
 26 20  1  0
 27 18  2  0
 28 19  2  0
 29 20  2  0
 30 17  1  0
 22 16  2  0
 32 31  1  0
 33 31  2  0
 34 32  2  0
 35 32  1  0
 36 40  1  0
 37 31  1  0
 38 36  1  0
 39 34  1  0
 40 35  2  0
 41 37  1  0
 42 41  1  0
 43 42  1  0
 44 43  1  0
 39 36  2  0
  4 45  1  0
  5 46  1  0
  8 47  1  0
  8 48  1  0
  9 49  1  0
 10 50  1  0
 11 51  1  0
 11 52  1  0
 12 53  1  0
 12 54  1  0
 13 55  1  0
 13 56  1  0
 14 57  1  0
 14 58  1  0
 14 59  1  0
 22 60  1  0
 23 61  1  0
 30 62  1  0
 34 63  1  0
 35 64  1  0
 38 65  1  0
 38 66  1  0
 39 67  1  0
 40 68  1  0
 41 69  1  0
 41 70  1  0
 42 71  1  0
 42 72  1  0
 43 73  1  0
 43 74  1  0
 44 75  1  0
 44 76  1  0
 44 77  1  0
M  CHG  6  18   1  19   1  20   1  24  -1  25  -1  26  -1
M  END
> <Uni-Dock RESULT> 
ENERGY=   -5.095  LOWER_BOUND=   11.066  UPPER_BOUND=   13.129
INTER + INTRA:          -5.095
INTER:                  -5.095
INTRA:                   0.000
UNBOUND:                 0.000

$$$$

     RDKit          3D

 77 77  0  0  0  0  0  0  0  0999 V2000
   47.5706    6.3580   12.9233 C   0  0  0  0  0  0  0  0  0  0  0  0
   48.3866    7.4889   13.4437 C   0  0  0  0  0  0  0  0  0  0  0  0
   47.8729    5.1849   13.0748 O   0  0  0  0  0  0  0  0  0  0  0  0
   48.0226    8.8281   13.2620 C   0  0  0  0  0  0  0  0  0  0  0  0
   49.5730    7.1919   14.1243 C   0  0  0  0  0  0  0  0  0  0  0  0
   49.9839    9.5567   14.5028 C   0  0  0  0  0  0  0  0  0  0  0  0
   46.4693    6.8208   12.2803 O   0  0  0  0  0  0  0  0  0  0  0  0
   50.8452   10.5833   14.9027 N   0  0  0  0  0  0  0  0  0  0  0  0
   48.8301    9.8513   13.7722 C   0  0  0  0  0  0  0  0  0  0  0  0
   50.3737    8.2216   14.6297 C   0  0  0  0  0  0  0  0  0  0  0  0
   45.6010    5.8182   11.7260 C   0  0  0  0  0  0  0  0  0  0  0  0
   44.5788    5.3842   12.7731 C   0  0  0  0  0  0  0  0  0  0  0  0
   43.6445    4.2756   12.2911 C   0  0  0  0  0  0  0  0  0  0  0  0
   42.7382    4.7018   11.1467 C   0  0  0  0  0  0  0  0  0  0  0  0
   46.6595    8.2135   12.8051 C   0  0  0  0  0  0  0  0  0  0  0  0
   45.9873    5.9104   12.9148 C   0  0  0  0  0  0  0  0  0  0  0  0
   45.8340    7.1772   12.3384 C   0  0  0  0  0  0  0  0  0  0  0  0
   46.5569    9.5690   12.2491 N   0  0  0  0  0  0  0  0  0  0  0  0
   45.1535    4.8146   12.4706 N   0  0  0  0  0  0  0  0  0  0  0  0
   48.7264    6.4395   15.4236 N   0  0  0  0  0  0  0  0  0  0  0  0
   47.7349    6.6894   14.3671 C   0  0  0  0  0  0  0  0  0  0  0  0
   46.9244    5.6423   13.9199 C   0  0  0  0  0  0  0  0  0  0  0  0
   47.6102    7.9761   13.8187 C   0  0  0  0  0  0  0  0  0  0  0  0
   45.7020    9.7591   11.3710 O   0  0  0  0  0  0  0  0  0  0  0  0
   45.6711    4.0072   11.6891 O   0  0  0  0  0  0  0  0  0  0  0  0
   48.7810    5.2973   15.8958 O   0  0  0  0  0  0  0  0  0  0  0  0
   47.3245   10.4340   12.6862 O   0  0  0  0  0  0  0  0  0  0  0  0
   44.0213    4.7400   12.9626 O   0  0  0  0  0  0  0  0  0  0  0  0
   49.4403    7.3878   15.7721 O   0  0  0  0  0  0  0  0  0  0  0  0
   44.8991    7.3240   11.3517 O   0  0  0  0  0  0  0  0  0  0  0  0
   46.4286    7.9722   12.5372 C   0  0  0  0  0  0  0  0  0  0  0  0
   45.5382    6.7997   12.3176 C   0  0  0  0  0  0  0  0  0  0  0  0
   47.0055    8.5546   11.6328 O   0  0  0  0  0  0  0  0  0  0  0  0
   44.8858    6.1403   13.3657 C   0  0  0  0  0  0  0  0  0  0  0  0
   45.3682    6.3329   11.0089 C   0  0  0  0  0  0  0  0  0  0  0  0
   43.8419    4.6104   11.7885 C   0  0  0  0  0  0  0  0  0  0  0  0
   46.4970    8.2744   13.8568 O   0  0  0  0  0  0  0  0  0  0  0  0
   43.1141    3.4417   11.5436 N   0  0  0  0  0  0  0  0  0  0  0  0
   44.0607    5.0413   13.0995 C   0  0  0  0  0  0  0  0  0  0  0  0
   44.5428    5.2330   10.7532 C   0  0  0  0  0  0  0  0  0  0  0  0
   47.3248    9.3900   14.2211 C   0  0  0  0  0  0  0  0  0  0  0  0
   48.5709    8.9007   14.9552 C   0  0  0  0  0  0  0  0  0  0  0  0
   49.4998    8.0817   14.0572 C   0  0  0  0  0  0  0  0  0  0  0  0
   50.7651    7.6713   14.7943 C   0  0  0  0  0  0  0  0  0  0  0  0
   47.1223    9.0947   12.7146 H   0  0  0  0  0  0  0  0  0  0  0  0
   49.8887    6.1585   14.2531 H   0  0  0  0  0  0  0  0  0  0  0  0
   50.3830   11.4723   15.0654 H   0  0  0  0  0  0  0  0  0  0  0  0
   51.4662   10.3278   15.6647 H   0  0  0  0  0  0  0  0  0  0  0  0
   48.5470   10.8854   13.5919 H   0  0  0  0  0  0  0  0  0  0  0  0
   51.3073    7.9678   15.1253 H   0  0  0  0  0  0  0  0  0  0  0  0
   46.1748    4.9674   11.3396 H   0  0  0  0  0  0  0  0  0  0  0  0
   45.1009    6.2829   10.8707 H   0  0  0  0  0  0  0  0  0  0  0  0
   45.1048    5.0358   13.6703 H   0  0  0  0  0  0  0  0  0  0  0  0
   43.9967    6.2563   13.0964 H   0  0  0  0  0  0  0  0  0  0  0  0
   44.2307    3.4010   11.9859 H   0  0  0  0  0  0  0  0  0  0  0  0
   43.0175    3.9584   13.1329 H   0  0  0  0  0  0  0  0  0  0  0  0
   42.1619    5.5936   11.4128 H   0  0  0  0  0  0  0  0  0  0  0  0
   43.3112    4.9173   10.2401 H   0  0  0  0  0  0  0  0  0  0  0  0
   42.0315    3.9001   10.9088 H   0  0  0  0  0  0  0  0  0  0  0  0
   47.0092    4.6383   14.3349 H   0  0  0  0  0  0  0  0  0  0  0  0
   48.2483    8.7854   14.1768 H   0  0  0  0  0  0  0  0  0  0  0  0
   44.8566    8.2505   11.0265 H   0  0  0  0  0  0  0  0  0  0  0  0
   45.0173    6.4584   14.3966 H   0  0  0  0  0  0  0  0  0  0  0  0
   45.8872    6.8137   10.1820 H   0  0  0  0  0  0  0  0  0  0  0  0
   42.7540    3.3692   10.5969 H   0  0  0  0  0  0  0  0  0  0  0  0
   42.4042    3.2417   12.2417 H   0  0  0  0  0  0  0  0  0  0  0  0
   43.5882    4.5236   13.9307 H   0  0  0  0  0  0  0  0  0  0  0  0
   44.4523    4.8682    9.7331 H   0  0  0  0  0  0  0  0  0  0  0  0
   47.5934   10.0179   13.3641 H   0  0  0  0  0  0  0  0  0  0  0  0
   46.7307   10.0131   14.8984 H   0  0  0  0  0  0  0  0  0  0  0  0
   48.2683    8.2826   15.8092 H   0  0  0  0  0  0  0  0  0  0  0  0
   49.1123    9.7682   15.3502 H   0  0  0  0  0  0  0  0  0  0  0  0
   49.7736    8.6674   13.1722 H   0  0  0  0  0  0  0  0  0  0  0  0
   48.9881    7.1790   13.7056 H   0  0  0  0  0  0  0  0  0  0  0  0
   50.5279    7.0568   15.6688 H   0  0  0  0  0  0  0  0  0  0  0  0
   51.4150    7.0874   14.1349 H   0  0  0  0  0  0  0  0  0  0  0  0
   51.3249    8.5494   15.1322 H   0  0  0  0  0  0  0  0  0  0  0  0
  2  1  1  0
  3  1  2  0
  4  2  2  0
  5  2  1  0
  6 10  1  0
  7  1  1  0
  8  6  1  0
  9  4  1  0
 10  5  2  0
 11  7  1  0
 12 11  1  0
 13 12  1  0
 14 13  1  0
  9  6  2  0
 16 17  1  0
 17 15  2  0
 18 15  1  0
 19 16  1  0
 20 21  1  0
 21 23  2  0
 22 21  1  0
 23 15  1  0
 24 18  1  0
 25 19  1  0
 26 20  1  0
 27 18  2  0
 28 19  2  0
 29 20  2  0
 30 17  1  0
 22 16  2  0
 32 31  1  0
 33 31  2  0
 34 32  2  0
 35 32  1  0
 36 40  1  0
 37 31  1  0
 38 36  1  0
 39 34  1  0
 40 35  2  0
 41 37  1  0
 42 41  1  0
 43 42  1  0
 44 43  1  0
 39 36  2  0
  4 45  1  0
  5 46  1  0
  8 47  1  0
  8 48  1  0
  9 49  1  0
 10 50  1  0
 11 51  1  0
 11 52  1  0
 12 53  1  0
 12 54  1  0
 13 55  1  0
 13 56  1  0
 14 57  1  0
 14 58  1  0
 14 59  1  0
 22 60  1  0
 23 61  1  0
 30 62  1  0
 34 63  1  0
 35 64  1  0
 38 65  1  0
 38 66  1  0
 39 67  1  0
 40 68  1  0
 41 69  1  0
 41 70  1  0
 42 71  1  0
 42 72  1  0
 43 73  1  0
 43 74  1  0
 44 75  1  0
 44 76  1  0
 44 77  1  0
M  CHG  6  18   1  19   1  20   1  24  -1  25  -1  26  -1
M  END
> <Uni-Dock RESULT> 
ENERGY=   -5.080  LOWER_BOUND=    5.282  UPPER_BOUND=    7.024
INTER + INTRA:          -5.080
INTER:                  -5.080
INTRA:                   0.000
UNBOUND:                 0.000

$$$$

     RDKit          3D

 77 77  0  0  0  0  0  0  0  0999 V2000
   49.7933    7.3408   19.0405 C   0  0  0  0  0  0  0  0  0  0  0  0
   49.9481    5.9346   18.5777 C   0  0  0  0  0  0  0  0  0  0  0  0
   50.7358    8.0897   19.2437 O   0  0  0  0  0  0  0  0  0  0  0  0
   48.8550    5.0913   18.3479 C   0  0  0  0  0  0  0  0  0  0  0  0
   51.2429    5.4390   18.3853 C   0  0  0  0  0  0  0  0  0  0  0  0
   50.3492    3.2973   17.6652 C   0  0  0  0  0  0  0  0  0  0  0  0
   48.4812    7.6520   19.1898 O   0  0  0  0  0  0  0  0  0  0  0  0
   50.5507    1.9497   17.3502 N   0  0  0  0  0  0  0  0  0  0  0  0
   49.0607    3.7763   17.9146 C   0  0  0  0  0  0  0  0  0  0  0  0
   51.4382    4.1231   17.9530 C   0  0  0  0  0  0  0  0  0  0  0  0
   48.2027    8.9883   19.6403 C   0  0  0  0  0  0  0  0  0  0  0  0
   48.0967    9.9262   18.4408 C   0  0  0  0  0  0  0  0  0  0  0  0
   47.8572   11.3851   18.8260 C   0  0  0  0  0  0  0  0  0  0  0  0
   46.5185   11.6197   19.5085 C   0  0  0  0  0  0  0  0  0  0  0  0
   48.0315    6.4147   18.4701 C   0  0  0  0  0  0  0  0  0  0  0  0
   48.8840    8.6533   18.6431 C   0  0  0  0  0  0  0  0  0  0  0  0
   47.8365    7.7500   18.8602 C   0  0  0  0  0  0  0  0  0  0  0  0
   46.9786    5.4096   18.6656 N   0  0  0  0  0  0  0  0  0  0  0  0
   48.7251   10.0405   19.0223 N   0  0  0  0  0  0  0  0  0  0  0  0
   51.5414    6.5186   17.0752 N   0  0  0  0  0  0  0  0  0  0  0  0
   50.2734    6.9431   17.6867 C   0  0  0  0  0  0  0  0  0  0  0  0
   50.1029    8.2774   18.0658 C   0  0  0  0  0  0  0  0  0  0  0  0
   49.2462    6.0060   17.8827 C   0  0  0  0  0  0  0  0  0  0  0  0
   45.9122    5.7950   19.1678 O   0  0  0  0  0  0  0  0  0  0  0  0
   49.2647   10.3903   20.0793 O   0  0  0  0  0  0  0  0  0  0  0  0
   52.4066    7.3847   16.8971 O   0  0  0  0  0  0  0  0  0  0  0  0
   47.2169    4.2465   18.3207 O   0  0  0  0  0  0  0  0  0  0  0  0
   48.1248   10.7715   18.2256 O   0  0  0  0  0  0  0  0  0  0  0  0
   51.6597    5.3237   16.7778 O   0  0  0  0  0  0  0  0  0  0  0  0
   46.6948    8.2208   19.4468 O   0  0  0  0  0  0  0  0  0  0  0  0
   47.8974    6.7528   18.6960 C   0  0  0  0  0  0  0  0  0  0  0  0
   47.8256    8.2299   18.8659 C   0  0  0  0  0  0  0  0  0  0  0  0
   47.6474    5.9621   19.5916 O   0  0  0  0  0  0  0  0  0  0  0  0
   48.1184    9.1242   17.8297 C   0  0  0  0  0  0  0  0  0  0  0  0
   47.4691    8.7357   20.1214 C   0  0  0  0  0  0  0  0  0  0  0  0
   47.6217   11.0111   19.2824 C   0  0  0  0  0  0  0  0  0  0  0  0
   48.2767    6.4391   17.4330 O   0  0  0  0  0  0  0  0  0  0  0  0
   47.6573   12.3877   19.5262 N   0  0  0  0  0  0  0  0  0  0  0  0
   48.0351   10.5043   18.0478 C   0  0  0  0  0  0  0  0  0  0  0  0
   47.3901   10.1166   20.3299 C   0  0  0  0  0  0  0  0  0  0  0  0
   48.3897    5.0417   17.1216 C   0  0  0  0  0  0  0  0  0  0  0  0
   49.8573    4.6621   16.9393 C   0  0  0  0  0  0  0  0  0  0  0  0
   50.6604    4.7757   18.2362 C   0  0  0  0  0  0  0  0  0  0  0  0
   52.0986    4.3215   18.0406 C   0  0  0  0  0  0  0  0  0  0  0  0
   47.8374    5.4352   18.5136 H   0  0  0  0  0  0  0  0  0  0  0  0
   52.1077    6.0690   18.5842 H   0  0  0  0  0  0  0  0  0  0  0  0
   49.7709    1.5163   16.8659 H   0  0  0  0  0  0  0  0  0  0  0  0
   51.4387    1.7604   16.8954 H   0  0  0  0  0  0  0  0  0  0  0  0
   48.2000    3.1273   17.7734 H   0  0  0  0  0  0  0  0  0  0  0  0
   52.4532    3.7501   17.8429 H   0  0  0  0  0  0  0  0  0  0  0  0
   48.9576    9.3293   20.3587 H   0  0  0  0  0  0  0  0  0  0  0  0
   47.2492    8.9402   20.1754 H   0  0  0  0  0  0  0  0  0  0  0  0
   49.0192    9.8649   17.8505 H   0  0  0  0  0  0  0  0  0  0  0  0
   47.2996    9.5747   17.7737 H   0  0  0  0  0  0  0  0  0  0  0  0
   48.6655   11.7356   19.4782 H   0  0  0  0  0  0  0  0  0  0  0  0
   47.8967   11.9962   17.9164 H   0  0  0  0  0  0  0  0  0  0  0  0
   45.6929   11.2504   18.8919 H   0  0  0  0  0  0  0  0  0  0  0  0
   46.4725   11.1238   20.4824 H   0  0  0  0  0  0  0  0  0  0  0  0
   46.3645   12.6908   19.6748 H   0  0  0  0  0  0  0  0  0  0  0  0
   50.8904    9.0165   17.9209 H   0  0  0  0  0  0  0  0  0  0  0  0
   49.3912    4.9673   17.5818 H   0  0  0  0  0  0  0  0  0  0  0  0
   46.0162    7.5157   19.5384 H   0  0  0  0  0  0  0  0  0  0  0  0
   48.4255    8.7666   16.8504 H   0  0  0  0  0  0  0  0  0  0  0  0
   47.2635    8.0591   20.9486 H   0  0  0  0  0  0  0  0  0  0  0  0
   47.0757   12.6854   20.3036 H   0  0  0  0  0  0  0  0  0  0  0  0
   47.5153   12.9587   18.6986 H   0  0  0  0  0  0  0  0  0  0  0  0
   48.2972   11.1823   17.2391 H   0  0  0  0  0  0  0  0  0  0  0  0
   47.1435   10.4863   21.3220 H   0  0  0  0  0  0  0  0  0  0  0  0
   47.9062    4.3996   17.8665 H   0  0  0  0  0  0  0  0  0  0  0  0
   47.8590    4.8875   16.1759 H   0  0  0  0  0  0  0  0  0  0  0  0
   50.3093    5.3170   16.1844 H   0  0  0  0  0  0  0  0  0  0  0  0
   49.9127    3.6346   16.5615 H   0  0  0  0  0  0  0  0  0  0  0  0
   50.1940    4.1647   19.0176 H   0  0  0  0  0  0  0  0  0  0  0  0
   50.6632    5.8123   18.5907 H   0  0  0  0  0  0  0  0  0  0  0  0
   52.6041    4.9336   17.2866 H   0  0  0  0  0  0  0  0  0  0  0  0
   52.6548    4.4103   18.9791 H   0  0  0  0  0  0  0  0  0  0  0  0
   52.1397    3.2758   17.7191 H   0  0  0  0  0  0  0  0  0  0  0  0
  2  1  1  0
  3  1  2  0
  4  2  2  0
  5  2  1  0
  6 10  1  0
  7  1  1  0
  8  6  1  0
  9  4  1  0
 10  5  2  0
 11  7  1  0
 12 11  1  0
 13 12  1  0
 14 13  1  0
  9  6  2  0
 16 17  1  0
 17 15  2  0
 18 15  1  0
 19 16  1  0
 20 21  1  0
 21 23  2  0
 22 21  1  0
 23 15  1  0
 24 18  1  0
 25 19  1  0
 26 20  1  0
 27 18  2  0
 28 19  2  0
 29 20  2  0
 30 17  1  0
 22 16  2  0
 32 31  1  0
 33 31  2  0
 34 32  2  0
 35 32  1  0
 36 40  1  0
 37 31  1  0
 38 36  1  0
 39 34  1  0
 40 35  2  0
 41 37  1  0
 42 41  1  0
 43 42  1  0
 44 43  1  0
 39 36  2  0
  4 45  1  0
  5 46  1  0
  8 47  1  0
  8 48  1  0
  9 49  1  0
 10 50  1  0
 11 51  1  0
 11 52  1  0
 12 53  1  0
 12 54  1  0
 13 55  1  0
 13 56  1  0
 14 57  1  0
 14 58  1  0
 14 59  1  0
 22 60  1  0
 23 61  1  0
 30 62  1  0
 34 63  1  0
 35 64  1  0
 38 65  1  0
 38 66  1  0
 39 67  1  0
 40 68  1  0
 41 69  1  0
 41 70  1  0
 42 71  1  0
 42 72  1  0
 43 73  1  0
 43 74  1  0
 44 75  1  0
 44 76  1  0
 44 77  1  0
M  CHG  6  18   1  19   1  20   1  24  -1  25  -1  26  -1
M  END
> <Uni-Dock RESULT> 
ENERGY=   -4.909  LOWER_BOUND=    1.839  UPPER_BOUND=    5.911
INTER + INTRA:          -4.909
INTER:                  -4.909
INTRA:                   0.000
UNBOUND:                 0.000

$$$$

     RDKit          3D

 77 77  0  0  0  0  0  0  0  0999 V2000
   48.2441    7.7358   17.3058 C   0  0  0  0  0  0  0  0  0  0  0  0
   48.0668    7.0130   18.5949 C   0  0  0  0  0  0  0  0  0  0  0  0
   48.2755    8.9529   17.2159 O   0  0  0  0  0  0  0  0  0  0  0  0
   48.0356    5.6162   18.6785 C   0  0  0  0  0  0  0  0  0  0  0  0
   47.9072    7.7689   19.7620 C   0  0  0  0  0  0  0  0  0  0  0  0
   47.7637    5.7408   21.0926 C   0  0  0  0  0  0  0  0  0  0  0  0
   48.3682    6.8571   16.2795 O   0  0  0  0  0  0  0  0  0  0  0  0
   47.4722    5.1123   22.3074 N   0  0  0  0  0  0  0  0  0  0  0  0
   47.8642    4.9901   19.9187 C   0  0  0  0  0  0  0  0  0  0  0  0
   47.7356    7.1339   20.9965 C   0  0  0  0  0  0  0  0  0  0  0  0
   48.5401    7.4382   14.9760 C   0  0  0  0  0  0  0  0  0  0  0  0
   50.0239    7.6748   14.7076 C   0  0  0  0  0  0  0  0  0  0  0  0
   50.3016    8.3448   13.3629 C   0  0  0  0  0  0  0  0  0  0  0  0
   49.9141    7.4882   12.1676 C   0  0  0  0  0  0  0  0  0  0  0  0
   48.5535    5.6910   17.2053 C   0  0  0  0  0  0  0  0  0  0  0  0
   49.2365    7.6506   15.9962 C   0  0  0  0  0  0  0  0  0  0  0  0
   48.7713    6.3301   15.9735 C   0  0  0  0  0  0  0  0  0  0  0  0
   48.0664    4.3066   17.2618 N   0  0  0  0  0  0  0  0  0  0  0  0
   49.4820    8.3461   14.7515 N   0  0  0  0  0  0  0  0  0  0  0  0
   49.5094    8.3969   19.6630 N   0  0  0  0  0  0  0  0  0  0  0  0
   49.2575    7.6913   18.3978 C   0  0  0  0  0  0  0  0  0  0  0  0
   49.4824    8.3482   17.1849 C   0  0  0  0  0  0  0  0  0  0  0  0
   48.7954    6.3655   18.4194 C   0  0  0  0  0  0  0  0  0  0  0  0
   47.8773    3.7269   16.1819 O   0  0  0  0  0  0  0  0  0  0  0  0
   48.6158    9.1511   14.3875 O   0  0  0  0  0  0  0  0  0  0  0  0
   49.9421    9.5539   19.5943 O   0  0  0  0  0  0  0  0  0  0  0  0
   47.8745    3.8051   18.3754 O   0  0  0  0  0  0  0  0  0  0  0  0
   50.5650    8.1290   14.1952 O   0  0  0  0  0  0  0  0  0  0  0  0
   49.2732    7.7873   20.7132 O   0  0  0  0  0  0  0  0  0  0  0  0
   48.5486    5.7495   14.7560 O   0  0  0  0  0  0  0  0  0  0  0  0
   48.5020    5.8040   16.7955 C   0  0  0  0  0  0  0  0  0  0  0  0
   48.9655    6.5866   15.6171 C   0  0  0  0  0  0  0  0  0  0  0  0
   47.3896    5.3080   16.8754 O   0  0  0  0  0  0  0  0  0  0  0  0
   50.2437    7.1520   15.5415 C   0  0  0  0  0  0  0  0  0  0  0  0
   48.0733    6.7760   14.5553 C   0  0  0  0  0  0  0  0  0  0  0  0
   49.7574    8.0195   13.3215 C   0  0  0  0  0  0  0  0  0  0  0  0
   49.4780    5.7380   17.7339 O   0  0  0  0  0  0  0  0  0  0  0  0
   50.1017    8.8466   12.2477 N   0  0  0  0  0  0  0  0  0  0  0  0
   50.6245    7.8796   14.4080 C   0  0  0  0  0  0  0  0  0  0  0  0
   48.4629    7.5059   13.4274 C   0  0  0  0  0  0  0  0  0  0  0  0
   49.1715    5.0102   18.9334 C   0  0  0  0  0  0  0  0  0  0  0  0
   49.0335    5.9731   20.1102 C   0  0  0  0  0  0  0  0  0  0  0  0
   47.8263    6.9024   19.9722 C   0  0  0  0  0  0  0  0  0  0  0  0
   47.6725    7.7979   21.1917 C   0  0  0  0  0  0  0  0  0  0  0  0
   48.1290    4.9994   17.7886 H   0  0  0  0  0  0  0  0  0  0  0  0
   47.9012    8.8561   19.7160 H   0  0  0  0  0  0  0  0  0  0  0  0
   47.8093    4.1569   22.3711 H   0  0  0  0  0  0  0  0  0  0  0  0
   47.7172    5.6617   23.1257 H   0  0  0  0  0  0  0  0  0  0  0  0
   47.8097    3.9050   19.9580 H   0  0  0  0  0  0  0  0  0  0  0  0
   47.5801    7.7415   21.8842 H   0  0  0  0  0  0  0  0  0  0  0  0
   47.9553    8.3601   14.8733 H   0  0  0  0  0  0  0  0  0  0  0  0
   48.1308    6.7174   14.2614 H   0  0  0  0  0  0  0  0  0  0  0  0
   50.4410    8.3011   15.5056 H   0  0  0  0  0  0  0  0  0  0  0  0
   50.5620    6.7210   14.7739 H   0  0  0  0  0  0  0  0  0  0  0  0
   49.7754    9.3050   13.3095 H   0  0  0  0  0  0  0  0  0  0  0  0
   51.3735    8.5672   13.2997 H   0  0  0  0  0  0  0  0  0  0  0  0
   50.4020    6.5093   12.2108 H   0  0  0  0  0  0  0  0  0  0  0  0
   48.8322    7.3343   12.1183 H   0  0  0  0  0  0  0  0  0  0  0  0
   50.2212    7.9792   11.2384 H   0  0  0  0  0  0  0  0  0  0  0  0
   49.8403    9.3769   17.1513 H   0  0  0  0  0  0  0  0  0  0  0  0
   48.6243    5.8634   19.3728 H   0  0  0  0  0  0  0  0  0  0  0  0
   48.2421    4.8201   14.8474 H   0  0  0  0  0  0  0  0  0  0  0  0
   50.9518    7.0485   16.3594 H   0  0  0  0  0  0  0  0  0  0  0  0
   47.0656    6.3682   14.6045 H   0  0  0  0  0  0  0  0  0  0  0  0
   49.5788    8.6599   11.3974 H   0  0  0  0  0  0  0  0  0  0  0  0
   51.1009    8.9116   12.0787 H   0  0  0  0  0  0  0  0  0  0  0  0
   51.6105    8.3374   14.3825 H   0  0  0  0  0  0  0  0  0  0  0  0
   47.7420    7.6678   12.6299 H   0  0  0  0  0  0  0  0  0  0  0  0
   48.2802    4.3806   18.8328 H   0  0  0  0  0  0  0  0  0  0  0  0
   50.0169    4.3382   19.1168 H   0  0  0  0  0  0  0  0  0  0  0  0
   49.9423    6.5823   20.1877 H   0  0  0  0  0  0  0  0  0  0  0  0
   48.9457    5.3912   21.0350 H   0  0  0  0  0  0  0  0  0  0  0  0
   46.9131    6.3099   19.8443 H   0  0  0  0  0  0  0  0  0  0  0  0
   47.9332    7.5332   19.0828 H   0  0  0  0  0  0  0  0  0  0  0  0
   48.5574    8.4276   21.3301 H   0  0  0  0  0  0  0  0  0  0  0  0
   46.8042    8.4537   21.0729 H   0  0  0  0  0  0  0  0  0  0  0  0
   47.5275    7.2035   22.0995 H   0  0  0  0  0  0  0  0  0  0  0  0
  2  1  1  0
  3  1  2  0
  4  2  2  0
  5  2  1  0
  6 10  1  0
  7  1  1  0
  8  6  1  0
  9  4  1  0
 10  5  2  0
 11  7  1  0
 12 11  1  0
 13 12  1  0
 14 13  1  0
  9  6  2  0
 16 17  1  0
 17 15  2  0
 18 15  1  0
 19 16  1  0
 20 21  1  0
 21 23  2  0
 22 21  1  0
 23 15  1  0
 24 18  1  0
 25 19  1  0
 26 20  1  0
 27 18  2  0
 28 19  2  0
 29 20  2  0
 30 17  1  0
 22 16  2  0
 32 31  1  0
 33 31  2  0
 34 32  2  0
 35 32  1  0
 36 40  1  0
 37 31  1  0
 38 36  1  0
 39 34  1  0
 40 35  2  0
 41 37  1  0
 42 41  1  0
 43 42  1  0
 44 43  1  0
 39 36  2  0
  4 45  1  0
  5 46  1  0
  8 47  1  0
  8 48  1  0
  9 49  1  0
 10 50  1  0
 11 51  1  0
 11 52  1  0
 12 53  1  0
 12 54  1  0
 13 55  1  0
 13 56  1  0
 14 57  1  0
 14 58  1  0
 14 59  1  0
 22 60  1  0
 23 61  1  0
 30 62  1  0
 34 63  1  0
 35 64  1  0
 38 65  1  0
 38 66  1  0
 39 67  1  0
 40 68  1  0
 41 69  1  0
 41 70  1  0
 42 71  1  0
 42 72  1  0
 43 73  1  0
 43 74  1  0
 44 75  1  0
 44 76  1  0
 44 77  1  0
M  CHG  6  18   1  19   1  20   1  24  -1  25  -1  26  -1
M  END
> <Uni-Dock RESULT> 
ENERGY=   -4.868  LOWER_BOUND=    2.545  UPPER_BOUND=    4.719
INTER + INTRA:          -4.868
INTER:                  -4.868
INTRA:                   0.000
UNBOUND:                 0.000

$$$$
