
     RDKit          3D

 77 77  0  0  0  0  0  0  0  0999 V2000
   45.5187    7.1693   12.9176 C   0  0  0  0  0  0  0  0  0  0  0  0
   45.9291    8.5441   12.5216 C   0  0  0  0  0  0  0  0  0  0  0  0
   46.2628    6.3841   13.4833 O   0  0  0  0  0  0  0  0  0  0  0  0
   47.2221    8.9694   12.8473 C   0  0  0  0  0  0  0  0  0  0  0  0
   45.0835    9.4112   11.8199 C   0  0  0  0  0  0  0  0  0  0  0  0
   46.7943   11.1407   11.8430 C   0  0  0  0  0  0  0  0  0  0  0  0
   44.2326    6.9369   12.5579 O   0  0  0  0  0  0  0  0  0  0  0  0
   47.2710   12.3716   11.3820 N   0  0  0  0  0  0  0  0  0  0  0  0
   47.6546   10.2513   12.4908 C   0  0  0  0  0  0  0  0  0  0  0  0
   45.5256   10.6918   11.4677 C   0  0  0  0  0  0  0  0  0  0  0  0
   43.6975    5.6425   12.8750 C   0  0  0  0  0  0  0  0  0  0  0  0
   43.4860    4.8362   11.5961 C   0  0  0  0  0  0  0  0  0  0  0  0
   44.8012    4.4851   10.8982 C   0  0  0  0  0  0  0  0  0  0  0  0
   44.5635    3.6262    9.6661 C   0  0  0  0  0  0  0  0  0  0  0  0
   45.0940    8.6581   11.5876 C   0  0  0  0  0  0  0  0  0  0  0  0
   44.8451    6.2698   11.6208 C   0  0  0  0  0  0  0  0  0  0  0  0
   44.2776    7.5360   11.4023 C   0  0  0  0  0  0  0  0  0  0  0  0
   44.5502    9.9829   11.3801 N   0  0  0  0  0  0  0  0  0  0  0  0
   44.0512    5.0467   11.4455 N   0  0  0  0  0  0  0  0  0  0  0  0
   48.3860    7.1624   12.5898 N   0  0  0  0  0  0  0  0  0  0  0  0
   46.9791    7.2931   12.1827 C   0  0  0  0  0  0  0  0  0  0  0  0
   46.1934    6.1421   12.0116 C   0  0  0  0  0  0  0  0  0  0  0  0
   46.4373    8.5640   11.9715 C   0  0  0  0  0  0  0  0  0  0  0  0
   44.8364   10.5373   10.3118 O   0  0  0  0  0  0  0  0  0  0  0  0
   42.8530    5.1841   11.1581 O   0  0  0  0  0  0  0  0  0  0  0  0
   48.8342    6.0187   12.7349 O   0  0  0  0  0  0  0  0  0  0  0  0
   43.9045   10.4734   12.3139 O   0  0  0  0  0  0  0  0  0  0  0  0
   44.6217    3.9598   11.5937 O   0  0  0  0  0  0  0  0  0  0  0  0
   49.0290    8.2052   12.7620 O   0  0  0  0  0  0  0  0  0  0  0  0
   42.9844    7.7414   11.0094 O   0  0  0  0  0  0  0  0  0  0  0  0
   44.4008    7.5200   11.7380 C   0  0  0  0  0  0  0  0  0  0  0  0
   44.3689    6.0443   11.5470 C   0  0  0  0  0  0  0  0  0  0  0  0
   43.7296    8.2989   11.0797 O   0  0  0  0  0  0  0  0  0  0  0  0
   43.5477    5.5239   10.5401 C   0  0  0  0  0  0  0  0  0  0  0  0
   45.1403    5.1672   12.3177 C   0  0  0  0  0  0  0  0  0  0  0  0
   44.2124    3.2610   11.1245 C   0  0  0  0  0  0  0  0  0  0  0  0
   45.2698    7.8536   12.7249 O   0  0  0  0  0  0  0  0  0  0  0  0
   44.2444    1.8963   10.8220 N   0  0  0  0  0  0  0  0  0  0  0  0
   43.4894    4.1438   10.3192 C   0  0  0  0  0  0  0  0  0  0  0  0
   45.0737    3.7876   12.0902 C   0  0  0  0  0  0  0  0  0  0  0  0
   45.3956    9.2581   12.9979 C   0  0  0  0  0  0  0  0  0  0  0  0
   46.4444    9.8757   12.0777 C   0  0  0  0  0  0  0  0  0  0  0  0
   46.6505   11.3579   12.3771 C   0  0  0  0  0  0  0  0  0  0  0  0
   47.7054   11.9681   11.4682 C   0  0  0  0  0  0  0  0  0  0  0  0
   47.9061    8.3014   13.3672 H   0  0  0  0  0  0  0  0  0  0  0  0
   44.0840    9.1029   11.5249 H   0  0  0  0  0  0  0  0  0  0  0  0
   46.5448   13.0600   11.2099 H   0  0  0  0  0  0  0  0  0  0  0  0
   48.0378   12.7501   11.9290 H   0  0  0  0  0  0  0  0  0  0  0  0
   48.6739   10.5470   12.7253 H   0  0  0  0  0  0  0  0  0  0  0  0
   44.8656   11.3373   10.8935 H   0  0  0  0  0  0  0  0  0  0  0  0
   42.7281    5.8136   13.3554 H   0  0  0  0  0  0  0  0  0  0  0  0
   44.3157    5.0901   13.5915 H   0  0  0  0  0  0  0  0  0  0  0  0
   42.9431    3.9161   11.8426 H   0  0  0  0  0  0  0  0  0  0  0  0
   42.8616    5.4139   10.9038 H   0  0  0  0  0  0  0  0  0  0  0  0
   45.3255    5.3983   10.5958 H   0  0  0  0  0  0  0  0  0  0  0  0
   45.4579    3.9460   11.5908 H   0  0  0  0  0  0  0  0  0  0  0  0
   45.5154    3.3870    9.1818 H   0  0  0  0  0  0  0  0  0  0  0  0
   43.9344    4.1493    8.9384 H   0  0  0  0  0  0  0  0  0  0  0  0
   44.0719    2.6849    9.9323 H   0  0  0  0  0  0  0  0  0  0  0  0
   46.6278    5.1556   12.1805 H   0  0  0  0  0  0  0  0  0  0  0  0
   47.0341    9.4667   12.0995 H   0  0  0  0  0  0  0  0  0  0  0  0
   42.4870    6.8963   10.9420 H   0  0  0  0  0  0  0  0  0  0  0  0
   42.9600    6.1901    9.9114 H   0  0  0  0  0  0  0  0  0  0  0  0
   45.8087    5.5393   13.0897 H   0  0  0  0  0  0  0  0  0  0  0  0
   44.5121    1.3049   11.6026 H   0  0  0  0  0  0  0  0  0  0  0  0
   43.4126    1.5570   10.3488 H   0  0  0  0  0  0  0  0  0  0  0  0
   42.8705    3.7657    9.5095 H   0  0  0  0  0  0  0  0  0  0  0  0
   45.7056    3.1259   12.6774 H   0  0  0  0  0  0  0  0  0  0  0  0
   44.4270    9.7655   12.9132 H   0  0  0  0  0  0  0  0  0  0  0  0
   45.7138    9.3488   14.0424 H   0  0  0  0  0  0  0  0  0  0  0  0
   47.3895    9.3298   12.1908 H   0  0  0  0  0  0  0  0  0  0  0  0
   46.1445    9.7418   11.0313 H   0  0  0  0  0  0  0  0  0  0  0  0
   46.9566   11.4887   13.4213 H   0  0  0  0  0  0  0  0  0  0  0  0
   45.7065   11.8988   12.2454 H   0  0  0  0  0  0  0  0  0  0  0  0
   48.6718   11.4707   11.5993 H   0  0  0  0  0  0  0  0  0  0  0  0
   47.8354   13.0303   11.6985 H   0  0  0  0  0  0  0  0  0  0  0  0
   47.4145   11.8820   10.4162 H   0  0  0  0  0  0  0  0  0  0  0  0
  2  1  1  0
  3  1  2  0
  4  2  2  0
  5  2  1  0
  6 10  1  0
  7  1  1  0
  8  6  1  0
  9  4  1  0
 10  5  2  0
 11  7  1  0
 12 11  1  0
 13 12  1  0
 14 13  1  0
  9  6  2  0
 16 17  1  0
 17 15  2  0
 18 15  1  0
 19 16  1  0
 20 21  1  0
 21 23  2  0
 22 21  1  0
 23 15  1  0
 24 18  1  0
 25 19  1  0
 26 20  1  0
 27 18  2  0
 28 19  2  0
 29 20  2  0
 30 17  1  0
 22 16  2  0
 32 31  1  0
 33 31  2  0
 34 32  2  0
 35 32  1  0
 36 40  1  0
 37 31  1  0
 38 36  1  0
 39 34  1  0
 40 35  2  0
 41 37  1  0
 42 41  1  0
 43 42  1  0
 44 43  1  0
 39 36  2  0
  4 45  1  0
  5 46  1  0
  8 47  1  0
  8 48  1  0
  9 49  1  0
 10 50  1  0
 11 51  1  0
 11 52  1  0
 12 53  1  0
 12 54  1  0
 13 55  1  0
 13 56  1  0
 14 57  1  0
 14 58  1  0
 14 59  1  0
 22 60  1  0
 23 61  1  0
 30 62  1  0
 34 63  1  0
 35 64  1  0
 38 65  1  0
 38 66  1  0
 39 67  1  0
 40 68  1  0
 41 69  1  0
 41 70  1  0
 42 71  1  0
 42 72  1  0
 43 73  1  0
 43 74  1  0
 44 75  1  0
 44 76  1  0
 44 77  1  0
M  CHG  6  18   1  19   1  20   1  24  -1  25  -1  26  -1
M  END
> <Uni-Dock RESULT> 
ENERGY=   -6.637  LOWER_BOUND=    0.000  UPPER_BOUND=    0.000
INTER + INTRA:          -6.637
INTER:                  -6.637
INTRA:                   0.000
UNBOUND:                 0.000

$$$$

     RDKit          3D

 77 77  0  0  0  0  0  0  0  0999 V2000
   46.8958    9.9421   20.5530 C   0  0  0  0  0  0  0  0  0  0  0  0
   47.4541    8.9110   21.4698 C   0  0  0  0  0  0  0  0  0  0  0  0
   46.5324    9.6997   19.4131 O   0  0  0  0  0  0  0  0  0  0  0  0
   47.5320    7.5903   21.0131 C   0  0  0  0  0  0  0  0  0  0  0  0
   47.9223    9.2164   22.7531 C   0  0  0  0  0  0  0  0  0  0  0  0
   48.4680    6.8773   23.1394 C   0  0  0  0  0  0  0  0  0  0  0  0
   46.8612   11.1510   21.1650 O   0  0  0  0  0  0  0  0  0  0  0  0
   49.1009    5.8982   23.9112 N   0  0  0  0  0  0  0  0  0  0  0  0
   48.0546    6.5878   21.8371 C   0  0  0  0  0  0  0  0  0  0  0  0
   48.4435    8.2062   23.5699 C   0  0  0  0  0  0  0  0  0  0  0  0
   46.3462   12.2492   20.3961 C   0  0  0  0  0  0  0  0  0  0  0  0
   47.4735   13.2182   20.0480 C   0  0  0  0  0  0  0  0  0  0  0  0
   48.5024   12.6055   19.0962 C   0  0  0  0  0  0  0  0  0  0  0  0
   49.5749   13.6139   18.7149 C   0  0  0  0  0  0  0  0  0  0  0  0
   48.1138    9.7171   22.1753 C   0  0  0  0  0  0  0  0  0  0  0  0
   47.9036   11.3227   20.4019 C   0  0  0  0  0  0  0  0  0  0  0  0
   48.0069   11.0549   21.7769 C   0  0  0  0  0  0  0  0  0  0  0  0
   48.2160    9.3935   23.5819 N   0  0  0  0  0  0  0  0  0  0  0  0
   47.7889   12.7012   19.9081 N   0  0  0  0  0  0  0  0  0  0  0  0
   48.0308    7.8487   18.9224 N   0  0  0  0  0  0  0  0  0  0  0  0
   48.0231    8.9451   19.9022 C   0  0  0  0  0  0  0  0  0  0  0  0
   47.9101   10.2733   19.4609 C   0  0  0  0  0  0  0  0  0  0  0  0
   48.1271    8.6532   21.2651 C   0  0  0  0  0  0  0  0  0  0  0  0
   49.3453    9.1182   24.0056 O   0  0  0  0  0  0  0  0  0  0  0  0
   47.7269   13.6042   20.7554 O   0  0  0  0  0  0  0  0  0  0  0  0
   47.9690    8.1529   17.7251 O   0  0  0  0  0  0  0  0  0  0  0  0
   47.1593    9.3533   24.2233 O   0  0  0  0  0  0  0  0  0  0  0  0
   47.7619   12.8776   18.6847 O   0  0  0  0  0  0  0  0  0  0  0  0
   48.0970    6.6934   19.3600 O   0  0  0  0  0  0  0  0  0  0  0  0
   48.0215   12.0167   22.7484 O   0  0  0  0  0  0  0  0  0  0  0  0
   47.7202   10.8849   21.6464 C   0  0  0  0  0  0  0  0  0  0  0  0
   47.8276   11.8384   20.5087 C   0  0  0  0  0  0  0  0  0  0  0  0
   48.1928   11.0992   22.7515 O   0  0  0  0  0  0  0  0  0  0  0  0
   48.5326   13.0310   20.7076 C   0  0  0  0  0  0  0  0  0  0  0  0
   47.2717   11.5776   19.2511 C   0  0  0  0  0  0  0  0  0  0  0  0
   48.0622   13.7259   18.4272 C   0  0  0  0  0  0  0  0  0  0  0  0
   47.0397    9.7724   21.2727 O   0  0  0  0  0  0  0  0  0  0  0  0
   48.2997   14.5929   17.3564 N   0  0  0  0  0  0  0  0  0  0  0  0
   48.6653   13.9551   19.6659 C   0  0  0  0  0  0  0  0  0  0  0  0
   47.4084   12.5095   18.2155 C   0  0  0  0  0  0  0  0  0  0  0  0
   46.8774    8.7691   22.2875 C   0  0  0  0  0  0  0  0  0  0  0  0
   48.0863    7.8381   22.2975 C   0  0  0  0  0  0  0  0  0  0  0  0
   47.9254    6.7205   23.3242 C   0  0  0  0  0  0  0  0  0  0  0  0
   49.1248    5.7865   23.3231 C   0  0  0  0  0  0  0  0  0  0  0  0
   47.2004    7.3355   20.0082 H   0  0  0  0  0  0  0  0  0  0  0  0
   47.9044   10.2361   23.1285 H   0  0  0  0  0  0  0  0  0  0  0  0
   49.0885    6.0841   24.9094 H   0  0  0  0  0  0  0  0  0  0  0  0
   48.8142    4.9493   23.6931 H   0  0  0  0  0  0  0  0  0  0  0  0
   48.1355    5.5759   21.4483 H   0  0  0  0  0  0  0  0  0  0  0  0
   48.8328    8.4701   24.5502 H   0  0  0  0  0  0  0  0  0  0  0  0
   45.6164   12.7618   21.0319 H   0  0  0  0  0  0  0  0  0  0  0  0
   45.8129   11.9252   19.4954 H   0  0  0  0  0  0  0  0  0  0  0  0
   47.0407   14.1170   19.5932 H   0  0  0  0  0  0  0  0  0  0  0  0
   47.9830   13.5256   20.9693 H   0  0  0  0  0  0  0  0  0  0  0  0
   48.9830   11.7392   19.5640 H   0  0  0  0  0  0  0  0  0  0  0  0
   48.0035   12.2505   18.1871 H   0  0  0  0  0  0  0  0  0  0  0  0
   50.3005   13.1562   18.0351 H   0  0  0  0  0  0  0  0  0  0  0  0
   50.1145   13.9664   19.6000 H   0  0  0  0  0  0  0  0  0  0  0  0
   49.1371   14.4813   18.2105 H   0  0  0  0  0  0  0  0  0  0  0  0
   47.8287   10.4881   18.3943 H   0  0  0  0  0  0  0  0  0  0  0  0
   48.2160    7.6279   21.6233 H   0  0  0  0  0  0  0  0  0  0  0  0
   47.9056   12.9164   22.3701 H   0  0  0  0  0  0  0  0  0  0  0  0
   48.9958   13.2414   21.6697 H   0  0  0  0  0  0  0  0  0  0  0  0
   46.7411   10.6498   19.0544 H   0  0  0  0  0  0  0  0  0  0  0  0
   47.6028   14.5425   16.6199 H   0  0  0  0  0  0  0  0  0  0  0  0
   48.4990   15.5492   17.6337 H   0  0  0  0  0  0  0  0  0  0  0  0
   49.2460   14.8586   19.8341 H   0  0  0  0  0  0  0  0  0  0  0  0
   46.9978   12.2734   17.2370 H   0  0  0  0  0  0  0  0  0  0  0  0
   46.7037    9.2249   23.2698 H   0  0  0  0  0  0  0  0  0  0  0  0
   45.9730    8.2058   22.0320 H   0  0  0  0  0  0  0  0  0  0  0  0
   48.2243    7.4158   21.2941 H   0  0  0  0  0  0  0  0  0  0  0  0
   48.9958    8.4137   22.5080 H   0  0  0  0  0  0  0  0  0  0  0  0
   47.0196    6.1426   23.1078 H   0  0  0  0  0  0  0  0  0  0  0  0
   47.8051    7.1496   24.3254 H   0  0  0  0  0  0  0  0  0  0  0  0
   49.2539    5.3144   22.3438 H   0  0  0  0  0  0  0  0  0  0  0  0
   48.9893    4.9950   24.0670 H   0  0  0  0  0  0  0  0  0  0  0  0
   50.0443    6.3281   23.5675 H   0  0  0  0  0  0  0  0  0  0  0  0
  2  1  1  0
  3  1  2  0
  4  2  2  0
  5  2  1  0
  6 10  1  0
  7  1  1  0
  8  6  1  0
  9  4  1  0
 10  5  2  0
 11  7  1  0
 12 11  1  0
 13 12  1  0
 14 13  1  0
  9  6  2  0
 16 17  1  0
 17 15  2  0
 18 15  1  0
 19 16  1  0
 20 21  1  0
 21 23  2  0
 22 21  1  0
 23 15  1  0
 24 18  1  0
 25 19  1  0
 26 20  1  0
 27 18  2  0
 28 19  2  0
 29 20  2  0
 30 17  1  0
 22 16  2  0
 32 31  1  0
 33 31  2  0
 34 32  2  0
 35 32  1  0
 36 40  1  0
 37 31  1  0
 38 36  1  0
 39 34  1  0
 40 35  2  0
 41 37  1  0
 42 41  1  0
 43 42  1  0
 44 43  1  0
 39 36  2  0
  4 45  1  0
  5 46  1  0
  8 47  1  0
  8 48  1  0
  9 49  1  0
 10 50  1  0
 11 51  1  0
 11 52  1  0
 12 53  1  0
 12 54  1  0
 13 55  1  0
 13 56  1  0
 14 57  1  0
 14 58  1  0
 14 59  1  0
 22 60  1  0
 23 61  1  0
 30 62  1  0
 34 63  1  0
 35 64  1  0
 38 65  1  0
 38 66  1  0
 39 67  1  0
 40 68  1  0
 41 69  1  0
 41 70  1  0
 42 71  1  0
 42 72  1  0
 43 73  1  0
 43 74  1  0
 44 75  1  0
 44 76  1  0
 44 77  1  0
M  CHG  6  18   1  19   1  20   1  24  -1  25  -1  26  -1
M  END
> <Uni-Dock RESULT> 
ENERGY=   -5.655  LOWER_BOUND=    8.777  UPPER_BOUND=   11.317
INTER + INTRA:          -5.655
INTER:                  -5.655
INTRA:                   0.000
UNBOUND:                 0.000

$$$$

     RDKit          3D

 77 77  0  0  0  0  0  0  0  0999 V2000
   45.8266    7.4819   13.2425 C   0  0  0  0  0  0  0  0  0  0  0  0
   45.2550    6.1578   12.8749 C   0  0  0  0  0  0  0  0  0  0  0  0
   45.2564    8.5404   13.0314 O   0  0  0  0  0  0  0  0  0  0  0  0
   43.9837    6.1238   12.2906 C   0  0  0  0  0  0  0  0  0  0  0  0
   45.9475    4.9569   13.0689 C   0  0  0  0  0  0  0  0  0  0  0  0
   44.0702    3.6982   12.1690 C   0  0  0  0  0  0  0  0  0  0  0  0
   47.0408    7.3283   13.8252 O   0  0  0  0  0  0  0  0  0  0  0  0
   43.5444    2.4949   11.6891 N   0  0  0  0  0  0  0  0  0  0  0  0
   43.4078    4.9029   11.9230 C   0  0  0  0  0  0  0  0  0  0  0  0
   45.3627    3.7405   12.6978 C   0  0  0  0  0  0  0  0  0  0  0  0
   47.7177    8.5276   14.2324 C   0  0  0  0  0  0  0  0  0  0  0  0
   48.9332    8.7706   13.3414 C   0  0  0  0  0  0  0  0  0  0  0  0
   48.5481    9.0866   11.8950 C   0  0  0  0  0  0  0  0  0  0  0  0
   49.7741    9.3895   11.0479 C   0  0  0  0  0  0  0  0  0  0  0  0
   46.3615    5.5655   12.7872 C   0  0  0  0  0  0  0  0  0  0  0  0
   47.4157    7.7183   12.6395 C   0  0  0  0  0  0  0  0  0  0  0  0
   47.4728    6.3758   13.0490 C   0  0  0  0  0  0  0  0  0  0  0  0
   46.3733    4.1778   13.1969 N   0  0  0  0  0  0  0  0  0  0  0  0
   48.5430    8.6288   12.8788 N   0  0  0  0  0  0  0  0  0  0  0  0
   43.9903    7.9021   11.0560 N   0  0  0  0  0  0  0  0  0  0  0  0
   45.1821    7.3767   11.7386 C   0  0  0  0  0  0  0  0  0  0  0  0
   46.2741    8.2242   11.9855 C   0  0  0  0  0  0  0  0  0  0  0  0
   45.2150    6.0373   12.1365 C   0  0  0  0  0  0  0  0  0  0  0  0
   46.5989    3.3420   12.3131 O   0  0  0  0  0  0  0  0  0  0  0  0
   49.5128    8.1786   13.5064 O   0  0  0  0  0  0  0  0  0  0  0  0
   44.0155    9.0841   10.6924 O   0  0  0  0  0  0  0  0  0  0  0  0
   46.0903    3.9422   14.3776 O   0  0  0  0  0  0  0  0  0  0  0  0
   48.4582    9.7825   12.4422 O   0  0  0  0  0  0  0  0  0  0  0  0
   43.0397    7.1277   10.8915 O   0  0  0  0  0  0  0  0  0  0  0  0
   48.5474    5.8082   13.6752 O   0  0  0  0  0  0  0  0  0  0  0  0
   47.1912    6.5331   13.2044 C   0  0  0  0  0  0  0  0  0  0  0  0
   47.8822    7.8103   12.8782 C   0  0  0  0  0  0  0  0  0  0  0  0
   47.7673    5.4608   13.2985 O   0  0  0  0  0  0  0  0  0  0  0  0
   49.2607    7.7756   12.6381 C   0  0  0  0  0  0  0  0  0  0  0  0
   47.2049    9.0311   12.7827 C   0  0  0  0  0  0  0  0  0  0  0  0
   49.2909   10.1792   12.2834 C   0  0  0  0  0  0  0  0  0  0  0  0
   45.8609    6.7405   13.3708 O   0  0  0  0  0  0  0  0  0  0  0  0
   49.9612   11.3268   11.8493 N   0  0  0  0  0  0  0  0  0  0  0  0
   49.9522    8.9497   12.3219 C   0  0  0  0  0  0  0  0  0  0  0  0
   47.9062   10.2009   12.4675 C   0  0  0  0  0  0  0  0  0  0  0  0
   45.0812    5.5751   13.6821 C   0  0  0  0  0  0  0  0  0  0  0  0
   44.6537    4.8754   12.3953 C   0  0  0  0  0  0  0  0  0  0  0  0
   43.7722    3.6632   12.6820 C   0  0  0  0  0  0  0  0  0  0  0  0
   43.3364    2.9755   11.3981 C   0  0  0  0  0  0  0  0  0  0  0  0
   43.4393    7.0476   12.1040 H   0  0  0  0  0  0  0  0  0  0  0  0
   46.9483    4.9489   13.4925 H   0  0  0  0  0  0  0  0  0  0  0  0
   43.9036    1.6686   12.1573 H   0  0  0  0  0  0  0  0  0  0  0  0
   42.5320    2.4854   11.6150 H   0  0  0  0  0  0  0  0  0  0  0  0
   42.4337    4.9045   11.4407 H   0  0  0  0  0  0  0  0  0  0  0  0
   45.9308    2.8224   12.8258 H   0  0  0  0  0  0  0  0  0  0  0  0
   48.0547    8.3629   15.2615 H   0  0  0  0  0  0  0  0  0  0  0  0
   47.0594    9.4035   14.2485 H   0  0  0  0  0  0  0  0  0  0  0  0
   49.5171    9.6005   13.7565 H   0  0  0  0  0  0  0  0  0  0  0  0
   49.5719    7.8790   13.3505 H   0  0  0  0  0  0  0  0  0  0  0  0
   48.0133    8.2395   11.4513 H   0  0  0  0  0  0  0  0  0  0  0  0
   47.8718    9.9488   11.8696 H   0  0  0  0  0  0  0  0  0  0  0  0
   49.4774    9.6120   10.0181 H   0  0  0  0  0  0  0  0  0  0  0  0
   50.4577    8.5345   11.0270 H   0  0  0  0  0  0  0  0  0  0  0  0
   50.3178   10.2554   11.4393 H   0  0  0  0  0  0  0  0  0  0  0  0
   46.2357    9.2681   11.6708 H   0  0  0  0  0  0  0  0  0  0  0  0
   44.3761    5.3670   11.9516 H   0  0  0  0  0  0  0  0  0  0  0  0
   49.2579    6.4659   13.8443 H   0  0  0  0  0  0  0  0  0  0  0  0
   49.8022    6.8324   12.6806 H   0  0  0  0  0  0  0  0  0  0  0  0
   46.1307    9.0896   12.9365 H   0  0  0  0  0  0  0  0  0  0  0  0
   49.5281   12.1964   12.1443 H   0  0  0  0  0  0  0  0  0  0  0  0
   50.9610   11.3147   12.0262 H   0  0  0  0  0  0  0  0  0  0  0  0
   51.0162    8.8925   12.1064 H   0  0  0  0  0  0  0  0  0  0  0  0
   47.3564   11.1333   12.3656 H   0  0  0  0  0  0  0  0  0  0  0  0
   45.6283    4.9009   14.3523 H   0  0  0  0  0  0  0  0  0  0  0  0
   44.1986    5.9236   14.2299 H   0  0  0  0  0  0  0  0  0  0  0  0
   44.1209    5.5906   11.7560 H   0  0  0  0  0  0  0  0  0  0  0  0
   45.5407    4.5692   11.8276 H   0  0  0  0  0  0  0  0  0  0  0  0
   42.8832    3.9726   13.2435 H   0  0  0  0  0  0  0  0  0  0  0  0
   44.3171    2.9462   13.3064 H   0  0  0  0  0  0  0  0  0  0  0  0
   42.7594    3.6566   10.7642 H   0  0  0  0  0  0  0  0  0  0  0  0
   42.7078    2.1091   11.6269 H   0  0  0  0  0  0  0  0  0  0  0  0
   44.2023    2.6252   10.8270 H   0  0  0  0  0  0  0  0  0  0  0  0
  2  1  1  0
  3  1  2  0
  4  2  2  0
  5  2  1  0
  6 10  1  0
  7  1  1  0
  8  6  1  0
  9  4  1  0
 10  5  2  0
 11  7  1  0
 12 11  1  0
 13 12  1  0
 14 13  1  0
  9  6  2  0
 16 17  1  0
 17 15  2  0
 18 15  1  0
 19 16  1  0
 20 21  1  0
 21 23  2  0
 22 21  1  0
 23 15  1  0
 24 18  1  0
 25 19  1  0
 26 20  1  0
 27 18  2  0
 28 19  2  0
 29 20  2  0
 30 17  1  0
 22 16  2  0
 32 31  1  0
 33 31  2  0
 34 32  2  0
 35 32  1  0
 36 40  1  0
 37 31  1  0
 38 36  1  0
 39 34  1  0
 40 35  2  0
 41 37  1  0
 42 41  1  0
 43 42  1  0
 44 43  1  0
 39 36  2  0
  4 45  1  0
  5 46  1  0
  8 47  1  0
  8 48  1  0
  9 49  1  0
 10 50  1  0
 11 51  1  0
 11 52  1  0
 12 53  1  0
 12 54  1  0
 13 55  1  0
 13 56  1  0
 14 57  1  0
 14 58  1  0
 14 59  1  0
 22 60  1  0
 23 61  1  0
 30 62  1  0
 34 63  1  0
 35 64  1  0
 38 65  1  0
 38 66  1  0
 39 67  1  0
 40 68  1  0
 41 69  1  0
 41 70  1  0
 42 71  1  0
 42 72  1  0
 43 73  1  0
 43 74  1  0
 44 75  1  0
 44 76  1  0
 44 77  1  0
M  CHG  6  18   1  19   1  20   1  24  -1  25  -1  26  -1
M  END
> <Uni-Dock RESULT> 
ENERGY=   -5.630  LOWER_BOUND=    1.485  UPPER_BOUND=    6.109
INTER + INTRA:          -5.630
INTER:                  -5.630
INTRA:                   0.000
UNBOUND:                 0.000

$$$$

     RDKit          3D

 77 77  0  0  0  0  0  0  0  0999 V2000
   47.7702    6.5167   12.8973 C   0  0  0  0  0  0  0  0  0  0  0  0
   46.3469    6.3672   12.4883 C   0  0  0  0  0  0  0  0  0  0  0  0
   48.4821    5.5738   13.2044 O   0  0  0  0  0  0  0  0  0  0  0  0
   45.8095    5.0769   12.4178 C   0  0  0  0  0  0  0  0  0  0  0  0
   45.5265    7.4634   12.1971 C   0  0  0  0  0  0  0  0  0  0  0  0
   43.6697    5.9739   11.6949 C   0  0  0  0  0  0  0  0  0  0  0  0
   48.1338    7.8223   12.8781 O   0  0  0  0  0  0  0  0  0  0  0  0
   42.3073    5.7880   11.4418 N   0  0  0  0  0  0  0  0  0  0  0  0
   44.4749    4.8872   12.0435 C   0  0  0  0  0  0  0  0  0  0  0  0
   44.1924    7.2631   11.8236 C   0  0  0  0  0  0  0  0  0  0  0  0
   49.4870    8.1211   13.2550 C   0  0  0  0  0  0  0  0  0  0  0  0
   49.5086    8.8390   14.6021 C   0  0  0  0  0  0  0  0  0  0  0  0
   49.0377    7.9463   15.7516 C   0  0  0  0  0  0  0  0  0  0  0  0
   49.1335    8.6657   17.0879 C   0  0  0  0  0  0  0  0  0  0  0  0
   45.9991    7.5286   12.8245 C   0  0  0  0  0  0  0  0  0  0  0  0
   47.9894    7.6550   14.1624 C   0  0  0  0  0  0  0  0  0  0  0  0
   47.0286    8.3048   13.3701 C   0  0  0  0  0  0  0  0  0  0  0  0
   44.9908    8.1543   11.9965 N   0  0  0  0  0  0  0  0  0  0  0  0
   49.0981    8.4031   14.7692 N   0  0  0  0  0  0  0  0  0  0  0  0
   46.7755    4.0782   14.0779 N   0  0  0  0  0  0  0  0  0  0  0  0
   46.8598    5.5259   13.8341 C   0  0  0  0  0  0  0  0  0  0  0  0
   47.9110    6.2673   14.3970 C   0  0  0  0  0  0  0  0  0  0  0  0
   45.8918    6.1496   13.0421 C   0  0  0  0  0  0  0  0  0  0  0  0
   43.8982    8.3802   12.5310 O   0  0  0  0  0  0  0  0  0  0  0  0
   49.1807    9.6111   14.5028 O   0  0  0  0  0  0  0  0  0  0  0  0
   47.6340    3.5719   14.8104 O   0  0  0  0  0  0  0  0  0  0  0  0
   45.2837    8.3468   10.8104 O   0  0  0  0  0  0  0  0  0  0  0  0
   49.8778    7.7874   15.5052 O   0  0  0  0  0  0  0  0  0  0  0  0
   45.8521    3.4611   13.5330 O   0  0  0  0  0  0  0  0  0  0  0  0
   47.0283    9.6466   13.1081 O   0  0  0  0  0  0  0  0  0  0  0  0
   47.1847    8.0475   13.1763 C   0  0  0  0  0  0  0  0  0  0  0  0
   48.2667    8.1078   14.1964 C   0  0  0  0  0  0  0  0  0  0  0  0
   46.4075    8.9647   12.9639 O   0  0  0  0  0  0  0  0  0  0  0  0
   48.3811    9.2663   14.9736 C   0  0  0  0  0  0  0  0  0  0  0  0
   49.1531    7.0481   14.4192 C   0  0  0  0  0  0  0  0  0  0  0  0
   50.3020    8.3352   16.1344 C   0  0  0  0  0  0  0  0  0  0  0  0
   47.1945    6.8482   12.5422 O   0  0  0  0  0  0  0  0  0  0  0  0
   51.2178    8.3903   17.1895 N   0  0  0  0  0  0  0  0  0  0  0  0
   49.3787    9.3666   15.9491 C   0  0  0  0  0  0  0  0  0  0  0  0
   50.1492    7.1588   15.3965 C   0  0  0  0  0  0  0  0  0  0  0  0
   46.1859    6.6653   11.5361 C   0  0  0  0  0  0  0  0  0  0  0  0
   44.9023    6.1427   12.1744 C   0  0  0  0  0  0  0  0  0  0  0  0
   43.8227    5.8788   11.1286 C   0  0  0  0  0  0  0  0  0  0  0  0
   42.5493    5.3456   11.7652 C   0  0  0  0  0  0  0  0  0  0  0  0
   46.4212    4.2120   12.6678 H   0  0  0  0  0  0  0  0  0  0  0  0
   45.9026    8.4804   12.2706 H   0  0  0  0  0  0  0  0  0  0  0  0
   41.8768    6.5404   10.9130 H   0  0  0  0  0  0  0  0  0  0  0  0
   42.0766    4.8734   11.0667 H   0  0  0  0  0  0  0  0  0  0  0  0
   44.0710    3.8782   12.0280 H   0  0  0  0  0  0  0  0  0  0  0  0
   43.5629    8.1291   11.6345 H   0  0  0  0  0  0  0  0  0  0  0  0
   49.8859    8.7907   12.4854 H   0  0  0  0  0  0  0  0  0  0  0  0
   50.1303    7.2341   13.2707 H   0  0  0  0  0  0  0  0  0  0  0  0
   50.5285    9.1884   14.8014 H   0  0  0  0  0  0  0  0  0  0  0  0
   48.8599    9.7219   14.5513 H   0  0  0  0  0  0  0  0  0  0  0  0
   47.9988    7.6376   15.5909 H   0  0  0  0  0  0  0  0  0  0  0  0
   49.6465    7.0356   15.7893 H   0  0  0  0  0  0  0  0  0  0  0  0
   48.7919    8.0110   17.8958 H   0  0  0  0  0  0  0  0  0  0  0  0
   48.5108    9.5662   17.0943 H   0  0  0  0  0  0  0  0  0  0  0  0
   50.1660    8.9596   17.3026 H   0  0  0  0  0  0  0  0  0  0  0  0
   48.6610    5.7686   15.0127 H   0  0  0  0  0  0  0  0  0  0  0  0
   45.0697    5.5883   12.5988 H   0  0  0  0  0  0  0  0  0  0  0  0
   47.8082   10.0940   13.5050 H   0  0  0  0  0  0  0  0  0  0  0  0
   47.6852   10.0915   14.8352 H   0  0  0  0  0  0  0  0  0  0  0  0
   49.0757    6.1241   13.8524 H   0  0  0  0  0  0  0  0  0  0  0  0
   52.0272    7.7897   17.0675 H   0  0  0  0  0  0  0  0  0  0  0  0
   51.4754    9.3327   17.4660 H   0  0  0  0  0  0  0  0  0  0  0  0
   49.4266   10.2622   16.5633 H   0  0  0  0  0  0  0  0  0  0  0  0
   50.8066    6.3120   15.5768 H   0  0  0  0  0  0  0  0  0  0  0  0
   46.0158    7.5915   10.9739 H   0  0  0  0  0  0  0  0  0  0  0  0
   46.5784    5.9283   10.8268 H   0  0  0  0  0  0  0  0  0  0  0  0
   45.1249    5.2240   12.7315 H   0  0  0  0  0  0  0  0  0  0  0  0
   44.5379    6.8627   12.9173 H   0  0  0  0  0  0  0  0  0  0  0  0
   44.1866    5.1541   10.3913 H   0  0  0  0  0  0  0  0  0  0  0  0
   43.5939    6.8044   10.5884 H   0  0  0  0  0  0  0  0  0  0  0  0
   42.7367    4.4015   12.2868 H   0  0  0  0  0  0  0  0  0  0  0  0
   41.7891    5.1655   10.9984 H   0  0  0  0  0  0  0  0  0  0  0  0
   42.1413    6.0615   12.4861 H   0  0  0  0  0  0  0  0  0  0  0  0
  2  1  1  0
  3  1  2  0
  4  2  2  0
  5  2  1  0
  6 10  1  0
  7  1  1  0
  8  6  1  0
  9  4  1  0
 10  5  2  0
 11  7  1  0
 12 11  1  0
 13 12  1  0
 14 13  1  0
  9  6  2  0
 16 17  1  0
 17 15  2  0
 18 15  1  0
 19 16  1  0
 20 21  1  0
 21 23  2  0
 22 21  1  0
 23 15  1  0
 24 18  1  0
 25 19  1  0
 26 20  1  0
 27 18  2  0
 28 19  2  0
 29 20  2  0
 30 17  1  0
 22 16  2  0
 32 31  1  0
 33 31  2  0
 34 32  2  0
 35 32  1  0
 36 40  1  0
 37 31  1  0
 38 36  1  0
 39 34  1  0
 40 35  2  0
 41 37  1  0
 42 41  1  0
 43 42  1  0
 44 43  1  0
 39 36  2  0
  4 45  1  0
  5 46  1  0
  8 47  1  0
  8 48  1  0
  9 49  1  0
 10 50  1  0
 11 51  1  0
 11 52  1  0
 12 53  1  0
 12 54  1  0
 13 55  1  0
 13 56  1  0
 14 57  1  0
 14 58  1  0
 14 59  1  0
 22 60  1  0
 23 61  1  0
 30 62  1  0
 34 63  1  0
 35 64  1  0
 38 65  1  0
 38 66  1  0
 39 67  1  0
 40 68  1  0
 41 69  1  0
 41 70  1  0
 42 71  1  0
 42 72  1  0
 43 73  1  0
 43 74  1  0
 44 75  1  0
 44 76  1  0
 44 77  1  0
M  CHG  6  18   1  19   1  20   1  24  -1  25  -1  26  -1
M  END
> <Uni-Dock RESULT> 
ENERGY=   -5.622  LOWER_BOUND=    2.400  UPPER_BOUND=    5.713
INTER + INTRA:          -5.622
INTER:                  -5.622
INTRA:                   0.000
UNBOUND:                 0.000

$$$$

     RDKit          3D

 77 77  0  0  0  0  0  0  0  0999 V2000
   47.7701    6.5166   12.8971 C   0  0  0  0  0  0  0  0  0  0  0  0
   46.3468    6.3671   12.4882 C   0  0  0  0  0  0  0  0  0  0  0  0
   48.4821    5.5738   13.2043 O   0  0  0  0  0  0  0  0  0  0  0  0
   45.8095    5.0768   12.4177 C   0  0  0  0  0  0  0  0  0  0  0  0
   45.5263    7.4632   12.1971 C   0  0  0  0  0  0  0  0  0  0  0  0
   43.6696    5.9736   11.6949 C   0  0  0  0  0  0  0  0  0  0  0  0
   48.1337    7.8223   12.8779 O   0  0  0  0  0  0  0  0  0  0  0  0
   42.3072    5.7877   11.4418 N   0  0  0  0  0  0  0  0  0  0  0  0
   44.4749    4.8870   12.0435 C   0  0  0  0  0  0  0  0  0  0  0  0
   44.1923    7.2629   11.8236 C   0  0  0  0  0  0  0  0  0  0  0  0
   49.4869    8.1211   13.2548 C   0  0  0  0  0  0  0  0  0  0  0  0
   49.5084    8.8391   14.6019 C   0  0  0  0  0  0  0  0  0  0  0  0
   49.0376    7.9463   15.7514 C   0  0  0  0  0  0  0  0  0  0  0  0
   49.1335    8.6657   17.0877 C   0  0  0  0  0  0  0  0  0  0  0  0
   45.9990    7.5285   12.8244 C   0  0  0  0  0  0  0  0  0  0  0  0
   47.9893    7.6550   14.1623 C   0  0  0  0  0  0  0  0  0  0  0  0
   47.0285    8.3047   13.3700 C   0  0  0  0  0  0  0  0  0  0  0  0
   44.9907    8.1541   11.9964 N   0  0  0  0  0  0  0  0  0  0  0  0
   49.0980    8.4031   14.7690 N   0  0  0  0  0  0  0  0  0  0  0  0
   46.7756    4.0781   14.0778 N   0  0  0  0  0  0  0  0  0  0  0  0
   46.8598    5.5258   13.8340 C   0  0  0  0  0  0  0  0  0  0  0  0
   47.9110    6.2673   14.3969 C   0  0  0  0  0  0  0  0  0  0  0  0
   45.8917    6.1495   13.0420 C   0  0  0  0  0  0  0  0  0  0  0  0
   43.8980    8.3800   12.5310 O   0  0  0  0  0  0  0  0  0  0  0  0
   49.1805    9.6112   14.5026 O   0  0  0  0  0  0  0  0  0  0  0  0
   47.6342    3.5719   14.8103 O   0  0  0  0  0  0  0  0  0  0  0  0
   45.2834    8.3466   10.8104 O   0  0  0  0  0  0  0  0  0  0  0  0
   49.8778    7.7874   15.5050 O   0  0  0  0  0  0  0  0  0  0  0  0
   45.8522    3.4609   13.5329 O   0  0  0  0  0  0  0  0  0  0  0  0
   47.0281    9.6465   13.1079 O   0  0  0  0  0  0  0  0  0  0  0  0
   47.1846    8.0474   13.1761 C   0  0  0  0  0  0  0  0  0  0  0  0
   48.2666    8.1078   14.1963 C   0  0  0  0  0  0  0  0  0  0  0  0
   46.4073    8.9646   12.9638 O   0  0  0  0  0  0  0  0  0  0  0  0
   48.3809    9.2663   14.9734 C   0  0  0  0  0  0  0  0  0  0  0  0
   49.1531    7.0481   14.4190 C   0  0  0  0  0  0  0  0  0  0  0  0
   50.3019    8.3353   16.1342 C   0  0  0  0  0  0  0  0  0  0  0  0
   47.1944    6.8481   12.5421 O   0  0  0  0  0  0  0  0  0  0  0  0
   51.2178    8.3905   17.1892 N   0  0  0  0  0  0  0  0  0  0  0  0
   49.3785    9.3666   15.9489 C   0  0  0  0  0  0  0  0  0  0  0  0
   50.1492    7.1589   15.3963 C   0  0  0  0  0  0  0  0  0  0  0  0
   46.1858    6.6652   11.5360 C   0  0  0  0  0  0  0  0  0  0  0  0
   44.9022    6.1425   12.1744 C   0  0  0  0  0  0  0  0  0  0  0  0
   43.8226    5.8786   11.1286 C   0  0  0  0  0  0  0  0  0  0  0  0
   42.5492    5.3453   11.7652 C   0  0  0  0  0  0  0  0  0  0  0  0
   46.4212    4.2119   12.6677 H   0  0  0  0  0  0  0  0  0  0  0  0
   45.9024    8.4802   12.2705 H   0  0  0  0  0  0  0  0  0  0  0  0
   41.8767    6.5401   10.9131 H   0  0  0  0  0  0  0  0  0  0  0  0
   42.0765    4.8731   11.0667 H   0  0  0  0  0  0  0  0  0  0  0  0
   44.0710    3.8779   12.0280 H   0  0  0  0  0  0  0  0  0  0  0  0
   43.5627    8.1289   11.6345 H   0  0  0  0  0  0  0  0  0  0  0  0
   49.8856    8.7908   12.4852 H   0  0  0  0  0  0  0  0  0  0  0  0
   50.1302    7.2342   13.2705 H   0  0  0  0  0  0  0  0  0  0  0  0
   50.5283    9.1886   14.8012 H   0  0  0  0  0  0  0  0  0  0  0  0
   48.8597    9.7219   14.5512 H   0  0  0  0  0  0  0  0  0  0  0  0
   47.9988    7.6376   15.5907 H   0  0  0  0  0  0  0  0  0  0  0  0
   49.6465    7.0357   15.7890 H   0  0  0  0  0  0  0  0  0  0  0  0
   48.7919    8.0110   17.8956 H   0  0  0  0  0  0  0  0  0  0  0  0
   48.5107    9.5662   17.0942 H   0  0  0  0  0  0  0  0  0  0  0  0
   50.1659    8.9597   17.3024 H   0  0  0  0  0  0  0  0  0  0  0  0
   48.6610    5.7686   15.0125 H   0  0  0  0  0  0  0  0  0  0  0  0
   45.0697    5.5881   12.5988 H   0  0  0  0  0  0  0  0  0  0  0  0
   47.8080   10.0940   13.5049 H   0  0  0  0  0  0  0  0  0  0  0  0
   47.6850   10.0915   14.8351 H   0  0  0  0  0  0  0  0  0  0  0  0
   49.0756    6.1242   13.8522 H   0  0  0  0  0  0  0  0  0  0  0  0
   52.0272    7.7899   17.0672 H   0  0  0  0  0  0  0  0  0  0  0  0
   51.4753    9.3329   17.4658 H   0  0  0  0  0  0  0  0  0  0  0  0
   49.4264   10.2623   16.5631 H   0  0  0  0  0  0  0  0  0  0  0  0
   50.8066    6.3121   15.5766 H   0  0  0  0  0  0  0  0  0  0  0  0
   46.0156    7.5914   10.9738 H   0  0  0  0  0  0  0  0  0  0  0  0
   46.5783    5.9282   10.8266 H   0  0  0  0  0  0  0  0  0  0  0  0
   45.1249    5.2238   12.7315 H   0  0  0  0  0  0  0  0  0  0  0  0
   44.5378    6.8625   12.9172 H   0  0  0  0  0  0  0  0  0  0  0  0
   44.1865    5.1539   10.3912 H   0  0  0  0  0  0  0  0  0  0  0  0
   43.5937    6.8042   10.5884 H   0  0  0  0  0  0  0  0  0  0  0  0
   42.7367    4.4012   12.2869 H   0  0  0  0  0  0  0  0  0  0  0  0
   41.7890    5.1651   10.9985 H   0  0  0  0  0  0  0  0  0  0  0  0
   42.1412    6.0611   12.4862 H   0  0  0  0  0  0  0  0  0  0  0  0
  2  1  1  0
  3  1  2  0
  4  2  2  0
  5  2  1  0
  6 10  1  0
  7  1  1  0
  8  6  1  0
  9  4  1  0
 10  5  2  0
 11  7  1  0
 12 11  1  0
 13 12  1  0
 14 13  1  0
  9  6  2  0
 16 17  1  0
 17 15  2  0
 18 15  1  0
 19 16  1  0
 20 21  1  0
 21 23  2  0
 22 21  1  0
 23 15  1  0
 24 18  1  0
 25 19  1  0
 26 20  1  0
 27 18  2  0
 28 19  2  0
 29 20  2  0
 30 17  1  0
 22 16  2  0
 32 31  1  0
 33 31  2  0
 34 32  2  0
 35 32  1  0
 36 40  1  0
 37 31  1  0
 38 36  1  0
 39 34  1  0
 40 35  2  0
 41 37  1  0
 42 41  1  0
 43 42  1  0
 44 43  1  0
 39 36  2  0
  4 45  1  0
  5 46  1  0
  8 47  1  0
  8 48  1  0
  9 49  1  0
 10 50  1  0
 11 51  1  0
 11 52  1  0
 12 53  1  0
 12 54  1  0
 13 55  1  0
 13 56  1  0
 14 57  1  0
 14 58  1  0
 14 59  1  0
 22 60  1  0
 23 61  1  0
 30 62  1  0
 34 63  1  0
 35 64  1  0
 38 65  1  0
 38 66  1  0
 39 67  1  0
 40 68  1  0
 41 69  1  0
 41 70  1  0
 42 71  1  0
 42 72  1  0
 43 73  1  0
 43 74  1  0
 44 75  1  0
 44 76  1  0
 44 77  1  0
M  CHG  6  18   1  19   1  20   1  24  -1  25  -1  26  -1
M  END
> <Uni-Dock RESULT> 
ENERGY=   -5.620  LOWER_BOUND=    2.400  UPPER_BOUND=    5.713
INTER + INTRA:          -5.620
INTER:                  -5.620
INTRA:                   0.000
UNBOUND:                 0.000

$$$$

     RDKit          3D

 77 77  0  0  0  0  0  0  0  0999 V2000
   45.9068    5.9538   13.5553 C   0  0  0  0  0  0  0  0  0  0  0  0
   47.2154    6.6610   13.5020 C   0  0  0  0  0  0  0  0  0  0  0  0
   45.5823    5.2120   14.4688 O   0  0  0  0  0  0  0  0  0  0  0  0
   48.1027    6.4948   14.5715 C   0  0  0  0  0  0  0  0  0  0  0  0
   47.5972    7.4608   12.4185 C   0  0  0  0  0  0  0  0  0  0  0  0
   49.7072    7.9811   13.5120 C   0  0  0  0  0  0  0  0  0  0  0  0
   45.1622    6.2526   12.4628 O   0  0  0  0  0  0  0  0  0  0  0  0
   50.9965    8.5183   13.4513 N   0  0  0  0  0  0  0  0  0  0  0  0
   49.3465    7.1352   14.5632 C   0  0  0  0  0  0  0  0  0  0  0  0
   48.8439    8.0972   12.4196 C   0  0  0  0  0  0  0  0  0  0  0  0
   43.8679    5.6364   12.3756 C   0  0  0  0  0  0  0  0  0  0  0  0
   43.8574    4.5975   11.2571 C   0  0  0  0  0  0  0  0  0  0  0  0
   44.7688    3.4052   11.5536 C   0  0  0  0  0  0  0  0  0  0  0  0
   44.6864    2.3571   10.4548 C   0  0  0  0  0  0  0  0  0  0  0  0
   47.2418    6.7778   12.2496 C   0  0  0  0  0  0  0  0  0  0  0  0
   45.5682    5.0597   12.1303 C   0  0  0  0  0  0  0  0  0  0  0  0
   46.1328    6.2290   11.5947 C   0  0  0  0  0  0  0  0  0  0  0  0
   47.8523    7.9855   11.7372 N   0  0  0  0  0  0  0  0  0  0  0  0
   44.4041    4.4256   11.4979 N   0  0  0  0  0  0  0  0  0  0  0  0
   47.7885    4.4244   15.1204 N   0  0  0  0  0  0  0  0  0  0  0  0
   47.2235    5.0444   13.9127 C   0  0  0  0  0  0  0  0  0  0  0  0
   46.1078    4.4640   13.2883 C   0  0  0  0  0  0  0  0  0  0  0  0
   47.8030    6.2078   13.3988 C   0  0  0  0  0  0  0  0  0  0  0  0
   48.8971    7.8454   11.0897 O   0  0  0  0  0  0  0  0  0  0  0  0
   43.9103    4.9978   10.5151 O   0  0  0  0  0  0  0  0  0  0  0  0
   47.2654    3.3784   15.5231 O   0  0  0  0  0  0  0  0  0  0  0  0
   47.3164    9.0562   12.0470 O   0  0  0  0  0  0  0  0  0  0  0  0
   43.9889    3.3656   11.9802 O   0  0  0  0  0  0  0  0  0  0  0  0
   48.7495    4.9906   15.6557 O   0  0  0  0  0  0  0  0  0  0  0  0
   45.6764    6.8574   10.4696 O   0  0  0  0  0  0  0  0  0  0  0  0
   46.0326    6.2923   11.9324 C   0  0  0  0  0  0  0  0  0  0  0  0
   45.1753    5.0862   11.7725 C   0  0  0  0  0  0  0  0  0  0  0  0
   46.4424    6.9565   10.9936 O   0  0  0  0  0  0  0  0  0  0  0  0
   44.8453    4.6748   10.4761 C   0  0  0  0  0  0  0  0  0  0  0  0
   44.7089    4.3426   12.8624 C   0  0  0  0  0  0  0  0  0  0  0  0
   43.5310    2.8329   11.3617 C   0  0  0  0  0  0  0  0  0  0  0  0
   46.2834    6.5275   13.2448 O   0  0  0  0  0  0  0  0  0  0  0  0
   42.8369    1.6368   11.1555 N   0  0  0  0  0  0  0  0  0  0  0  0
   44.0471    3.5435   10.2758 C   0  0  0  0  0  0  0  0  0  0  0  0
   43.9093    3.2131   12.6517 C   0  0  0  0  0  0  0  0  0  0  0  0
   47.1120    7.6660   13.5280 C   0  0  0  0  0  0  0  0  0  0  0  0
   48.5832    7.2646   13.4784 C   0  0  0  0  0  0  0  0  0  0  0  0
   49.4964    8.4349   13.8325 C   0  0  0  0  0  0  0  0  0  0  0  0
   50.9611    8.0293   13.7956 C   0  0  0  0  0  0  0  0  0  0  0  0
   47.8383    5.8545   15.4110 H   0  0  0  0  0  0  0  0  0  0  0  0
   46.9454    7.5877   11.5582 H   0  0  0  0  0  0  0  0  0  0  0  0
   51.0782    9.3353   12.8538 H   0  0  0  0  0  0  0  0  0  0  0  0
   51.4293    8.6604   14.3584 H   0  0  0  0  0  0  0  0  0  0  0  0
   50.0319    6.9644   15.3894 H   0  0  0  0  0  0  0  0  0  0  0  0
   49.1350    8.6866   11.5536 H   0  0  0  0  0  0  0  0  0  0  0  0
   43.1575    6.4335   12.1313 H   0  0  0  0  0  0  0  0  0  0  0  0
   43.5407    5.1971   13.3246 H   0  0  0  0  0  0  0  0  0  0  0  0
   42.8293    4.2469   11.1083 H   0  0  0  0  0  0  0  0  0  0  0  0
   44.1850    5.0693   10.3227 H   0  0  0  0  0  0  0  0  0  0  0  0
   45.8087    3.7370   11.6473 H   0  0  0  0  0  0  0  0  0  0  0  0
   44.4848    2.9479   12.5084 H   0  0  0  0  0  0  0  0  0  0  0  0
   45.3452    1.5141   10.6854 H   0  0  0  0  0  0  0  0  0  0  0  0
   44.9940    2.7746    9.4905 H   0  0  0  0  0  0  0  0  0  0  0  0
   43.6661    1.9731   10.3540 H   0  0  0  0  0  0  0  0  0  0  0  0
   45.6639    3.5562   13.6998 H   0  0  0  0  0  0  0  0  0  0  0  0
   48.6693    6.6699   13.8715 H   0  0  0  0  0  0  0  0  0  0  0  0
   44.8766    6.4162   10.1067 H   0  0  0  0  0  0  0  0  0  0  0  0
   45.2198    5.2230    9.6137 H   0  0  0  0  0  0  0  0  0  0  0  0
   44.9683    4.6183   13.8811 H   0  0  0  0  0  0  0  0  0  0  0  0
   42.2427    1.3633   11.9320 H   0  0  0  0  0  0  0  0  0  0  0  0
   42.3536    1.5864   10.2640 H   0  0  0  0  0  0  0  0  0  0  0  0
   43.8322    3.2238    9.2593 H   0  0  0  0  0  0  0  0  0  0  0  0
   43.5846    2.6301   13.5100 H   0  0  0  0  0  0  0  0  0  0  0  0
   46.8908    8.4955   12.8455 H   0  0  0  0  0  0  0  0  0  0  0  0
   46.8497    8.0035   14.5369 H   0  0  0  0  0  0  0  0  0  0  0  0
   48.7521    6.4281   14.1682 H   0  0  0  0  0  0  0  0  0  0  0  0
   48.8302    6.8840   12.4799 H   0  0  0  0  0  0  0  0  0  0  0  0
   49.2523    8.8092   14.8333 H   0  0  0  0  0  0  0  0  0  0  0  0
   49.3341    9.2595   13.1292 H   0  0  0  0  0  0  0  0  0  0  0  0
   51.1646    7.2274   14.5126 H   0  0  0  0  0  0  0  0  0  0  0  0
   51.5971    8.8830   14.0503 H   0  0  0  0  0  0  0  0  0  0  0  0
   51.2464    7.6792   12.7982 H   0  0  0  0  0  0  0  0  0  0  0  0
  2  1  1  0
  3  1  2  0
  4  2  2  0
  5  2  1  0
  6 10  1  0
  7  1  1  0
  8  6  1  0
  9  4  1  0
 10  5  2  0
 11  7  1  0
 12 11  1  0
 13 12  1  0
 14 13  1  0
  9  6  2  0
 16 17  1  0
 17 15  2  0
 18 15  1  0
 19 16  1  0
 20 21  1  0
 21 23  2  0
 22 21  1  0
 23 15  1  0
 24 18  1  0
 25 19  1  0
 26 20  1  0
 27 18  2  0
 28 19  2  0
 29 20  2  0
 30 17  1  0
 22 16  2  0
 32 31  1  0
 33 31  2  0
 34 32  2  0
 35 32  1  0
 36 40  1  0
 37 31  1  0
 38 36  1  0
 39 34  1  0
 40 35  2  0
 41 37  1  0
 42 41  1  0
 43 42  1  0
 44 43  1  0
 39 36  2  0
  4 45  1  0
  5 46  1  0
  8 47  1  0
  8 48  1  0
  9 49  1  0
 10 50  1  0
 11 51  1  0
 11 52  1  0
 12 53  1  0
 12 54  1  0
 13 55  1  0
 13 56  1  0
 14 57  1  0
 14 58  1  0
 14 59  1  0
 22 60  1  0
 23 61  1  0
 30 62  1  0
 34 63  1  0
 35 64  1  0
 38 65  1  0
 38 66  1  0
 39 67  1  0
 40 68  1  0
 41 69  1  0
 41 70  1  0
 42 71  1  0
 42 72  1  0
 43 73  1  0
 43 74  1  0
 44 75  1  0
 44 76  1  0
 44 77  1  0
M  CHG  6  18   1  19   1  20   1  24  -1  25  -1  26  -1
M  END
> <Uni-Dock RESULT> 
ENERGY=   -5.480  LOWER_BOUND=    2.230  UPPER_BOUND=    2.924
INTER + INTRA:          -5.480
INTER:                  -5.480
INTRA:                   0.000
UNBOUND:                 0.000

$$$$

     RDKit          3D

 77 77  0  0  0  0  0  0  0  0999 V2000
   49.0345    7.7113   19.8298 C   0  0  0  0  0  0  0  0  0  0  0  0
   48.7168    6.4471   19.1113 C   0  0  0  0  0  0  0  0  0  0  0  0
   49.1104    7.7906   21.0456 O   0  0  0  0  0  0  0  0  0  0  0  0
   48.5318    5.2837   19.8670 C   0  0  0  0  0  0  0  0  0  0  0  0
   48.5740    6.3854   17.7202 C   0  0  0  0  0  0  0  0  0  0  0  0
   48.1412    3.9946   17.8442 C   0  0  0  0  0  0  0  0  0  0  0  0
   49.2153    8.7246   18.9480 O   0  0  0  0  0  0  0  0  0  0  0  0
   47.7157    2.8127   17.2303 N   0  0  0  0  0  0  0  0  0  0  0  0
   48.2261    4.0730   19.2361 C   0  0  0  0  0  0  0  0  0  0  0  0
   48.2680    5.1692   17.0984 C   0  0  0  0  0  0  0  0  0  0  0  0
   49.5268   10.0131   19.5004 C   0  0  0  0  0  0  0  0  0  0  0  0
   48.3478   10.9637   19.3082 C   0  0  0  0  0  0  0  0  0  0  0  0
   47.1191   10.5477   20.1190 C   0  0  0  0  0  0  0  0  0  0  0  0
   45.9849   11.5482   19.9604 C   0  0  0  0  0  0  0  0  0  0  0  0
   48.2472    7.0030   18.0850 C   0  0  0  0  0  0  0  0  0  0  0  0
   48.0186    9.0167   19.3733 C   0  0  0  0  0  0  0  0  0  0  0  0
   48.2527    8.4022   18.1321 C   0  0  0  0  0  0  0  0  0  0  0  0
   48.4902    6.3267   16.8291 N   0  0  0  0  0  0  0  0  0  0  0  0
   48.0083   10.4798   19.5009 N   0  0  0  0  0  0  0  0  0  0  0  0
   47.5397    6.0321   21.6396 N   0  0  0  0  0  0  0  0  0  0  0  0
   47.7840    6.8416   20.4366 C   0  0  0  0  0  0  0  0  0  0  0  0
   47.7849    8.2428   20.5279 C   0  0  0  0  0  0  0  0  0  0  0  0
   48.0145    6.2068   19.2130 C   0  0  0  0  0  0  0  0  0  0  0  0
   47.4980    5.8802   16.2402 O   0  0  0  0  0  0  0  0  0  0  0  0
   48.2733   11.1400   18.4854 O   0  0  0  0  0  0  0  0  0  0  0  0
   47.3085    6.6339   22.6952 O   0  0  0  0  0  0  0  0  0  0  0  0
   49.6711    6.1933   16.4865 O   0  0  0  0  0  0  0  0  0  0  0  0
   47.7372   10.9628   20.6063 O   0  0  0  0  0  0  0  0  0  0  0  0
   47.5831    4.8017   21.5175 O   0  0  0  0  0  0  0  0  0  0  0  0
   48.4734    9.0825   16.9669 O   0  0  0  0  0  0  0  0  0  0  0  0
   48.4993    8.2899   18.3660 C   0  0  0  0  0  0  0  0  0  0  0  0
   48.1177    9.4921   19.1559 C   0  0  0  0  0  0  0  0  0  0  0  0
   48.3091    8.1852   17.1646 O   0  0  0  0  0  0  0  0  0  0  0  0
   47.4808   10.5468   18.4918 C   0  0  0  0  0  0  0  0  0  0  0  0
   48.3518    9.5961   20.5317 C   0  0  0  0  0  0  0  0  0  0  0  0
   47.3823   11.8273   20.5545 C   0  0  0  0  0  0  0  0  0  0  0  0
   49.0699    7.3553   19.1669 O   0  0  0  0  0  0  0  0  0  0  0  0
   46.8909   12.9208   21.2740 N   0  0  0  0  0  0  0  0  0  0  0  0
   47.0979   11.6947   19.1936 C   0  0  0  0  0  0  0  0  0  0  0  0
   47.9665   10.7497   21.2248 C   0  0  0  0  0  0  0  0  0  0  0  0
   49.4750    6.1397   18.5180 C   0  0  0  0  0  0  0  0  0  0  0  0
   48.3058    5.1605   18.4698 C   0  0  0  0  0  0  0  0  0  0  0  0
   48.7126    3.8316   17.8394 C   0  0  0  0  0  0  0  0  0  0  0  0
   47.5499    2.8528   17.8045 C   0  0  0  0  0  0  0  0  0  0  0  0
   48.6096    5.3146   20.9521 H   0  0  0  0  0  0  0  0  0  0  0  0
   48.6814    7.2752   17.1055 H   0  0  0  0  0  0  0  0  0  0  0  0
   47.9701    2.7392   16.2500 H   0  0  0  0  0  0  0  0  0  0  0  0
   47.9420    1.9710   17.7504 H   0  0  0  0  0  0  0  0  0  0  0  0
   48.0544    3.1901   19.8465 H   0  0  0  0  0  0  0  0  0  0  0  0
   48.1281    5.1495   16.0204 H   0  0  0  0  0  0  0  0  0  0  0  0
   50.3887   10.3934   18.9415 H   0  0  0  0  0  0  0  0  0  0  0  0
   49.8258    9.9639   20.5534 H   0  0  0  0  0  0  0  0  0  0  0  0
   48.6561   11.9746   19.5995 H   0  0  0  0  0  0  0  0  0  0  0  0
   48.0770   10.9931   18.2458 H   0  0  0  0  0  0  0  0  0  0  0  0
   46.7675    9.5617   19.7957 H   0  0  0  0  0  0  0  0  0  0  0  0
   47.3826   10.4684   21.1800 H   0  0  0  0  0  0  0  0  0  0  0  0
   45.1165   11.2323   20.5470 H   0  0  0  0  0  0  0  0  0  0  0  0
   45.6761   11.6285   18.9130 H   0  0  0  0  0  0  0  0  0  0  0  0
   46.2861   12.5418   20.3076 H   0  0  0  0  0  0  0  0  0  0  0  0
   47.6046    8.7263   21.4891 H   0  0  0  0  0  0  0  0  0  0  0  0
   48.0164    5.1206   19.1257 H   0  0  0  0  0  0  0  0  0  0  0  0
   48.4930   10.0543   17.1123 H   0  0  0  0  0  0  0  0  0  0  0  0
   47.2649   10.4753   17.4275 H   0  0  0  0  0  0  0  0  0  0  0  0
   48.8197    8.7851   21.0834 H   0  0  0  0  0  0  0  0  0  0  0  0
   47.3881   13.1045   22.1399 H   0  0  0  0  0  0  0  0  0  0  0  0
   46.7638   13.7602   20.7170 H   0  0  0  0  0  0  0  0  0  0  0  0
   46.5745   12.4862   18.6633 H   0  0  0  0  0  0  0  0  0  0  0  0
   48.1273   10.7971   22.2989 H   0  0  0  0  0  0  0  0  0  0  0  0
   49.8816    6.3412   17.5195 H   0  0  0  0  0  0  0  0  0  0  0  0
   50.2909    5.7197   19.1166 H   0  0  0  0  0  0  0  0  0  0  0  0
   47.9286    4.9990   19.4875 H   0  0  0  0  0  0  0  0  0  0  0  0
   47.4740    5.6036   17.9088 H   0  0  0  0  0  0  0  0  0  0  0  0
   49.5393    3.3875   18.4055 H   0  0  0  0  0  0  0  0  0  0  0  0
   49.0719    3.9990   16.8177 H   0  0  0  0  0  0  0  0  0  0  0  0
   47.1873    2.6377   18.8149 H   0  0  0  0  0  0  0  0  0  0  0  0
   47.8629    1.9087   17.3474 H   0  0  0  0  0  0  0  0  0  0  0  0
   46.7166    3.2538   17.2184 H   0  0  0  0  0  0  0  0  0  0  0  0
  2  1  1  0
  3  1  2  0
  4  2  2  0
  5  2  1  0
  6 10  1  0
  7  1  1  0
  8  6  1  0
  9  4  1  0
 10  5  2  0
 11  7  1  0
 12 11  1  0
 13 12  1  0
 14 13  1  0
  9  6  2  0
 16 17  1  0
 17 15  2  0
 18 15  1  0
 19 16  1  0
 20 21  1  0
 21 23  2  0
 22 21  1  0
 23 15  1  0
 24 18  1  0
 25 19  1  0
 26 20  1  0
 27 18  2  0
 28 19  2  0
 29 20  2  0
 30 17  1  0
 22 16  2  0
 32 31  1  0
 33 31  2  0
 34 32  2  0
 35 32  1  0
 36 40  1  0
 37 31  1  0
 38 36  1  0
 39 34  1  0
 40 35  2  0
 41 37  1  0
 42 41  1  0
 43 42  1  0
 44 43  1  0
 39 36  2  0
  4 45  1  0
  5 46  1  0
  8 47  1  0
  8 48  1  0
  9 49  1  0
 10 50  1  0
 11 51  1  0
 11 52  1  0
 12 53  1  0
 12 54  1  0
 13 55  1  0
 13 56  1  0
 14 57  1  0
 14 58  1  0
 14 59  1  0
 22 60  1  0
 23 61  1  0
 30 62  1  0
 34 63  1  0
 35 64  1  0
 38 65  1  0
 38 66  1  0
 39 67  1  0
 40 68  1  0
 41 69  1  0
 41 70  1  0
 42 71  1  0
 42 72  1  0
 43 73  1  0
 43 74  1  0
 44 75  1  0
 44 76  1  0
 44 77  1  0
M  CHG  6  18   1  19   1  20   1  24  -1  25  -1  26  -1
M  END
> <Uni-Dock RESULT> 
ENERGY=   -5.114  LOWER_BOUND=    6.924  UPPER_BOUND=    9.607
INTER + INTRA:          -5.114
INTER:                  -5.114
INTRA:                   0.000
UNBOUND:                 0.000

$$$$

     RDKit          3D

 77 77  0  0  0  0  0  0  0  0999 V2000
   48.0640    6.8703   12.7690 C   0  0  0  0  0  0  0  0  0  0  0  0
   46.6380    6.4690   12.6247 C   0  0  0  0  0  0  0  0  0  0  0  0
   48.8980    6.1875   13.3420 O   0  0  0  0  0  0  0  0  0  0  0  0
   46.2428    5.2296   13.1408 C   0  0  0  0  0  0  0  0  0  0  0  0
   45.6808    7.2903   12.0176 C   0  0  0  0  0  0  0  0  0  0  0  0
   43.9662    5.6023   12.3764 C   0  0  0  0  0  0  0  0  0  0  0  0
   48.2783    8.0749   12.1857 O   0  0  0  0  0  0  0  0  0  0  0  0
   42.6169    5.2360   12.3811 N   0  0  0  0  0  0  0  0  0  0  0  0
   44.9118    4.8120   13.0337 C   0  0  0  0  0  0  0  0  0  0  0  0
   44.3516    6.8636   11.9154 C   0  0  0  0  0  0  0  0  0  0  0  0
   49.6159    8.5940   12.2493 C   0  0  0  0  0  0  0  0  0  0  0  0
   49.6649    9.8006   13.1832 C   0  0  0  0  0  0  0  0  0  0  0  0
   49.3886    9.4275   14.6408 C   0  0  0  0  0  0  0  0  0  0  0  0
   49.5103   10.6361   15.5556 C   0  0  0  0  0  0  0  0  0  0  0  0
   46.1918    7.6393   12.5059 C   0  0  0  0  0  0  0  0  0  0  0  0
   48.2559    8.4393   13.4368 C   0  0  0  0  0  0  0  0  0  0  0  0
   47.1692    8.6396   12.5696 C   0  0  0  0  0  0  0  0  0  0  0  0
   45.0578    7.7998   11.6215 N   0  0  0  0  0  0  0  0  0  0  0  0
   49.3198    9.4445   13.5580 N   0  0  0  0  0  0  0  0  0  0  0  0
   47.4422    5.0680   14.9357 N   0  0  0  0  0  0  0  0  0  0  0  0
   47.3462    6.2906   14.1243 C   0  0  0  0  0  0  0  0  0  0  0  0
   48.3503    7.2679   14.2151 C   0  0  0  0  0  0  0  0  0  0  0  0
   46.2552    6.4668   13.2687 C   0  0  0  0  0  0  0  0  0  0  0  0
   43.9929    8.1494   12.1453 O   0  0  0  0  0  0  0  0  0  0  0  0
   49.2468   10.4397   12.8222 O   0  0  0  0  0  0  0  0  0  0  0  0
   48.4070    4.9667   15.7031 O   0  0  0  0  0  0  0  0  0  0  0  0
   45.2323    7.5089   10.4322 O   0  0  0  0  0  0  0  0  0  0  0  0
   50.2189    9.2396   14.3817 O   0  0  0  0  0  0  0  0  0  0  0  0
   46.5524    4.2199   14.7964 O   0  0  0  0  0  0  0  0  0  0  0  0
   46.9996    9.7526   11.7940 O   0  0  0  0  0  0  0  0  0  0  0  0
   47.3369    8.3368   12.4781 C   0  0  0  0  0  0  0  0  0  0  0  0
   48.4832    8.8841   13.2536 C   0  0  0  0  0  0  0  0  0  0  0  0
   46.4485    9.0307   12.0092 O   0  0  0  0  0  0  0  0  0  0  0  0
   48.5302   10.2641   13.4823 C   0  0  0  0  0  0  0  0  0  0  0  0
   49.4963    8.0723   13.7763 C   0  0  0  0  0  0  0  0  0  0  0  0
   50.6285   10.0250   14.6841 C   0  0  0  0  0  0  0  0  0  0  0  0
   47.4288    6.9868   12.3812 O   0  0  0  0  0  0  0  0  0  0  0  0
   51.6136   10.5703   15.5129 N   0  0  0  0  0  0  0  0  0  0  0  0
   49.5850   10.8237   14.2112 C   0  0  0  0  0  0  0  0  0  0  0  0
   50.5486    8.6420   14.5028 C   0  0  0  0  0  0  0  0  0  0  0  0
   46.3698    6.3388   11.6590 C   0  0  0  0  0  0  0  0  0  0  0  0
   45.2067    6.0370   12.5994 C   0  0  0  0  0  0  0  0  0  0  0  0
   44.0832    5.2942   11.8819 C   0  0  0  0  0  0  0  0  0  0  0  0
   42.9313    4.9827   12.8238 C   0  0  0  0  0  0  0  0  0  0  0  0
   46.9642    4.5874   13.6424 H   0  0  0  0  0  0  0  0  0  0  0  0
   45.9468    8.2713   11.6327 H   0  0  0  0  0  0  0  0  0  0  0  0
   42.0651    5.6741   11.6499 H   0  0  0  0  0  0  0  0  0  0  0  0
   42.4596    4.2345   12.4338 H   0  0  0  0  0  0  0  0  0  0  0  0
   44.6220    3.8602   13.4714 H   0  0  0  0  0  0  0  0  0  0  0  0
   43.6172    7.5305   11.4707 H   0  0  0  0  0  0  0  0  0  0  0  0
   49.8757    8.9150   11.2348 H   0  0  0  0  0  0  0  0  0  0  0  0
   50.3525    7.8379   12.5432 H   0  0  0  0  0  0  0  0  0  0  0  0
   50.6525   10.2702   13.1044 H   0  0  0  0  0  0  0  0  0  0  0  0
   48.9206   10.5383   12.8598 H   0  0  0  0  0  0  0  0  0  0  0  0
   48.3807    9.0096   14.7406 H   0  0  0  0  0  0  0  0  0  0  0  0
   50.0954    8.6564   14.9682 H   0  0  0  0  0  0  0  0  0  0  0  0
   49.3085   10.3484   16.5921 H   0  0  0  0  0  0  0  0  0  0  0  0
   48.7942   11.4151   15.2739 H   0  0  0  0  0  0  0  0  0  0  0  0
   50.5177   11.0623   15.5114 H   0  0  0  0  0  0  0  0  0  0  0  0
   49.1975    7.1180   14.8861 H   0  0  0  0  0  0  0  0  0  0  0  0
   45.4676    5.7182   13.1875 H   0  0  0  0  0  0  0  0  0  0  0  0
   47.7544   10.3758   11.8837 H   0  0  0  0  0  0  0  0  0  0  0  0
   47.7385   10.9103   13.1079 H   0  0  0  0  0  0  0  0  0  0  0  0
   49.4767    6.9943   13.6405 H   0  0  0  0  0  0  0  0  0  0  0  0
   52.4722   10.0296   15.5475 H   0  0  0  0  0  0  0  0  0  0  0  0
   51.7866   11.5586   15.3564 H   0  0  0  0  0  0  0  0  0  0  0  0
   49.5822   11.8933   14.4048 H   0  0  0  0  0  0  0  0  0  0  0  0
   51.3079    7.9908   14.9285 H   0  0  0  0  0  0  0  0  0  0  0  0
   46.0541    6.9392   10.7972 H   0  0  0  0  0  0  0  0  0  0  0  0
   46.7837    5.4046   11.2635 H   0  0  0  0  0  0  0  0  0  0  0  0
   45.5732    5.4450   13.4475 H   0  0  0  0  0  0  0  0  0  0  0  0
   44.8252    6.9713   13.0289 H   0  0  0  0  0  0  0  0  0  0  0  0
   44.4652    4.3578   11.4594 H   0  0  0  0  0  0  0  0  0  0  0  0
   43.7112    5.8990   11.0471 H   0  0  0  0  0  0  0  0  0  0  0  0
   43.2628    4.3507   13.6540 H   0  0  0  0  0  0  0  0  0  0  0  0
   42.1371    4.4525   12.2887 H   0  0  0  0  0  0  0  0  0  0  0  0
   42.5052    5.9013   13.2401 H   0  0  0  0  0  0  0  0  0  0  0  0
  2  1  1  0
  3  1  2  0
  4  2  2  0
  5  2  1  0
  6 10  1  0
  7  1  1  0
  8  6  1  0
  9  4  1  0
 10  5  2  0
 11  7  1  0
 12 11  1  0
 13 12  1  0
 14 13  1  0
  9  6  2  0
 16 17  1  0
 17 15  2  0
 18 15  1  0
 19 16  1  0
 20 21  1  0
 21 23  2  0
 22 21  1  0
 23 15  1  0
 24 18  1  0
 25 19  1  0
 26 20  1  0
 27 18  2  0
 28 19  2  0
 29 20  2  0
 30 17  1  0
 22 16  2  0
 32 31  1  0
 33 31  2  0
 34 32  2  0
 35 32  1  0
 36 40  1  0
 37 31  1  0
 38 36  1  0
 39 34  1  0
 40 35  2  0
 41 37  1  0
 42 41  1  0
 43 42  1  0
 44 43  1  0
 39 36  2  0
  4 45  1  0
  5 46  1  0
  8 47  1  0
  8 48  1  0
  9 49  1  0
 10 50  1  0
 11 51  1  0
 11 52  1  0
 12 53  1  0
 12 54  1  0
 13 55  1  0
 13 56  1  0
 14 57  1  0
 14 58  1  0
 14 59  1  0
 22 60  1  0
 23 61  1  0
 30 62  1  0
 34 63  1  0
 35 64  1  0
 38 65  1  0
 38 66  1  0
 39 67  1  0
 40 68  1  0
 41 69  1  0
 41 70  1  0
 42 71  1  0
 42 72  1  0
 43 73  1  0
 43 74  1  0
 44 75  1  0
 44 76  1  0
 44 77  1  0
M  CHG  6  18   1  19   1  20   1  24  -1  25  -1  26  -1
M  END
> <Uni-Dock RESULT> 
ENERGY=   -5.080  LOWER_BOUND=    2.155  UPPER_BOUND=    5.900
INTER + INTRA:          -5.080
INTER:                  -5.080
INTRA:                   0.000
UNBOUND:                 0.000

$$$$

     RDKit          3D

 77 77  0  0  0  0  0  0  0  0999 V2000
   47.9971   11.1470   12.3819 C   0  0  0  0  0  0  0  0  0  0  0  0
   48.0182    9.6815   12.6413 C   0  0  0  0  0  0  0  0  0  0  0  0
   47.0200   11.8499   12.5854 O   0  0  0  0  0  0  0  0  0  0  0  0
   46.8713    9.0871   13.1798 C   0  0  0  0  0  0  0  0  0  0  0  0
   49.1265    8.8790   12.3463 C   0  0  0  0  0  0  0  0  0  0  0  0
   47.9663    6.9176   13.1979 C   0  0  0  0  0  0  0  0  0  0  0  0
   49.1937   11.5593   11.8969 O   0  0  0  0  0  0  0  0  0  0  0  0
   47.8896    5.5288   13.3395 N   0  0  0  0  0  0  0  0  0  0  0  0
   46.8423    7.7119   13.4354 C   0  0  0  0  0  0  0  0  0  0  0  0
   49.0876    7.5040   12.6057 C   0  0  0  0  0  0  0  0  0  0  0  0
   49.3208   12.9578   11.5956 C   0  0  0  0  0  0  0  0  0  0  0  0
   49.4066   13.1617   10.0851 C   0  0  0  0  0  0  0  0  0  0  0  0
   48.1086   12.7882    9.3668 C   0  0  0  0  0  0  0  0  0  0  0  0
   48.2010   13.0648    7.8743 C   0  0  0  0  0  0  0  0  0  0  0  0
   48.9272    9.4222   11.8111 C   0  0  0  0  0  0  0  0  0  0  0  0
   48.5008   11.5551   10.7932 C   0  0  0  0  0  0  0  0  0  0  0  0
   49.4132   10.5380   11.1191 C   0  0  0  0  0  0  0  0  0  0  0  0
   49.8321    8.3528   12.1735 N   0  0  0  0  0  0  0  0  0  0  0  0
   48.9365   12.7554   10.0675 N   0  0  0  0  0  0  0  0  0  0  0  0
   45.2779   10.1936   12.2190 N   0  0  0  0  0  0  0  0  0  0  0  0
   46.6949   10.3090   11.8432 C   0  0  0  0  0  0  0  0  0  0  0  0
   47.1423   11.4469   11.1529 C   0  0  0  0  0  0  0  0  0  0  0  0
   47.5833    9.2837   12.1789 C   0  0  0  0  0  0  0  0  0  0  0  0
   49.8011    7.3382   11.4662 O   0  0  0  0  0  0  0  0  0  0  0  0
   50.1455   12.8566    9.8121 O   0  0  0  0  0  0  0  0  0  0  0  0
   44.5198   11.1083   11.8746 O   0  0  0  0  0  0  0  0  0  0  0  0
   50.5082    8.5166   13.1961 O   0  0  0  0  0  0  0  0  0  0  0  0
   48.0768   13.5877    9.7562 O   0  0  0  0  0  0  0  0  0  0  0  0
   44.9370    9.1897   12.8566 O   0  0  0  0  0  0  0  0  0  0  0  0
   50.7408   10.5630   10.7939 O   0  0  0  0  0  0  0  0  0  0  0  0
   49.2628   10.6603   11.4200 C   0  0  0  0  0  0  0  0  0  0  0  0
   48.9004   11.8528   10.6066 C   0  0  0  0  0  0  0  0  0  0  0  0
   50.1761    9.9023   11.1340 O   0  0  0  0  0  0  0  0  0  0  0  0
   49.6263   12.1022    9.4362 C   0  0  0  0  0  0  0  0  0  0  0  0
   47.8545   12.7145   10.9559 C   0  0  0  0  0  0  0  0  0  0  0  0
   48.3141   14.1028    9.0116 C   0  0  0  0  0  0  0  0  0  0  0  0
   48.4410   10.5488   12.4937 O   0  0  0  0  0  0  0  0  0  0  0  0
   47.9305   15.1341    8.1490 N   0  0  0  0  0  0  0  0  0  0  0  0
   49.3180   13.2075    8.6360 C   0  0  0  0  0  0  0  0  0  0  0  0
   47.5550   13.8189   10.1496 C   0  0  0  0  0  0  0  0  0  0  0  0
   48.6870    9.4257   13.3545 C   0  0  0  0  0  0  0  0  0  0  0  0
   47.9311    8.2026   12.8439 C   0  0  0  0  0  0  0  0  0  0  0  0
   48.1196    7.0012   13.7659 C   0  0  0  0  0  0  0  0  0  0  0  0
   47.3548    5.7876   13.2625 C   0  0  0  0  0  0  0  0  0  0  0  0
   45.9880    9.6871   13.3900 H   0  0  0  0  0  0  0  0  0  0  0  0
   50.0225    9.3024   11.9001 H   0  0  0  0  0  0  0  0  0  0  0  0
   48.7899    5.0722   13.4491 H   0  0  0  0  0  0  0  0  0  0  0  0
   47.2148    5.2195   14.0319 H   0  0  0  0  0  0  0  0  0  0  0  0
   45.9289    7.2677   13.8227 H   0  0  0  0  0  0  0  0  0  0  0  0
   49.9463    6.8932   12.3381 H   0  0  0  0  0  0  0  0  0  0  0  0
   50.2559   13.2937   12.0564 H   0  0  0  0  0  0  0  0  0  0  0  0
   48.5161   13.5617   12.0297 H   0  0  0  0  0  0  0  0  0  0  0  0
   49.6507   14.2111    9.8822 H   0  0  0  0  0  0  0  0  0  0  0  0
   50.2221   12.5483    9.6834 H   0  0  0  0  0  0  0  0  0  0  0  0
   47.8851   11.7260    9.5155 H   0  0  0  0  0  0  0  0  0  0  0  0
   47.2728   13.3595    9.7870 H   0  0  0  0  0  0  0  0  0  0  0  0
   47.2640   12.7906    7.3796 H   0  0  0  0  0  0  0  0  0  0  0  0
   49.0089   12.4843    7.4169 H   0  0  0  0  0  0  0  0  0  0  0  0
   48.3885   14.1262    7.6824 H   0  0  0  0  0  0  0  0  0  0  0  0
   46.4389   12.2409   10.8974 H   0  0  0  0  0  0  0  0  0  0  0  0
   47.2515    8.3942   12.7138 H   0  0  0  0  0  0  0  0  0  0  0  0
   50.9883   11.4007   10.3432 H   0  0  0  0  0  0  0  0  0  0  0  0
   50.4259   11.4296    9.1318 H   0  0  0  0  0  0  0  0  0  0  0  0
   47.2534   12.5353   11.8433 H   0  0  0  0  0  0  0  0  0  0  0  0
   47.4452   15.8990    8.6074 H   0  0  0  0  0  0  0  0  0  0  0  0
   48.6722   15.4598    7.5368 H   0  0  0  0  0  0  0  0  0  0  0  0
   49.8733   13.3616    7.7142 H   0  0  0  0  0  0  0  0  0  0  0  0
   46.7177   14.4573   10.4206 H   0  0  0  0  0  0  0  0  0  0  0  0
   49.7619    9.2310   13.4529 H   0  0  0  0  0  0  0  0  0  0  0  0
   48.3204    9.7044   14.3487 H   0  0  0  0  0  0  0  0  0  0  0  0
   46.8657    8.4491   12.7533 H   0  0  0  0  0  0  0  0  0  0  0  0
   48.2685    7.9548   11.8301 H   0  0  0  0  0  0  0  0  0  0  0  0
   47.7756    7.2489   14.7766 H   0  0  0  0  0  0  0  0  0  0  0  0
   49.1840    6.7507   13.8376 H   0  0  0  0  0  0  0  0  0  0  0  0
   46.2809    5.9941   13.2102 H   0  0  0  0  0  0  0  0  0  0  0  0
   47.5055    4.9384   13.9366 H   0  0  0  0  0  0  0  0  0  0  0  0
   47.6972    5.4939   12.2649 H   0  0  0  0  0  0  0  0  0  0  0  0
  2  1  1  0
  3  1  2  0
  4  2  2  0
  5  2  1  0
  6 10  1  0
  7  1  1  0
  8  6  1  0
  9  4  1  0
 10  5  2  0
 11  7  1  0
 12 11  1  0
 13 12  1  0
 14 13  1  0
  9  6  2  0
 16 17  1  0
 17 15  2  0
 18 15  1  0
 19 16  1  0
 20 21  1  0
 21 23  2  0
 22 21  1  0
 23 15  1  0
 24 18  1  0
 25 19  1  0
 26 20  1  0
 27 18  2  0
 28 19  2  0
 29 20  2  0
 30 17  1  0
 22 16  2  0
 32 31  1  0
 33 31  2  0
 34 32  2  0
 35 32  1  0
 36 40  1  0
 37 31  1  0
 38 36  1  0
 39 34  1  0
 40 35  2  0
 41 37  1  0
 42 41  1  0
 43 42  1  0
 44 43  1  0
 39 36  2  0
  4 45  1  0
  5 46  1  0
  8 47  1  0
  8 48  1  0
  9 49  1  0
 10 50  1  0
 11 51  1  0
 11 52  1  0
 12 53  1  0
 12 54  1  0
 13 55  1  0
 13 56  1  0
 14 57  1  0
 14 58  1  0
 14 59  1  0
 22 60  1  0
 23 61  1  0
 30 62  1  0
 34 63  1  0
 35 64  1  0
 38 65  1  0
 38 66  1  0
 39 67  1  0
 40 68  1  0
 41 69  1  0
 41 70  1  0
 42 71  1  0
 42 72  1  0
 43 73  1  0
 43 74  1  0
 44 75  1  0
 44 76  1  0
 44 77  1  0
M  CHG  6  18   1  19   1  20   1  24  -1  25  -1  26  -1
M  END
> <Uni-Dock RESULT> 
ENERGY=   -4.932  LOWER_BOUND=    2.943  UPPER_BOUND=    7.164
INTER + INTRA:          -4.932
INTER:                  -4.932
INTRA:                   0.000
UNBOUND:                 0.000

$$$$
