
     RDKit          3D

 31 32  0  0  0  0  0  0  0  0999 V2000
   43.8725    4.1599   10.9302 S   0  0  0  0  0  0  0  0  0  0  0  0
   44.7524    3.4126    9.7329 N   0  0  0  0  0  0  0  0  0  0  0  0
   45.5748    4.0712    8.8125 C   0  0  0  0  0  0  0  0  0  0  0  0
   45.1232    4.7683   12.0301 C   0  0  0  0  0  0  0  0  0  0  0  0
   43.1347    5.2708   10.3744 O   0  0  0  0  0  0  0  0  0  0  0  0
   43.1824    3.0811   11.6100 O   0  0  0  0  0  0  0  0  0  0  0  0
   45.7688    5.2762    8.8208 O   0  0  0  0  0  0  0  0  0  0  0  0
   46.2351    3.2023    7.7977 C   0  0  0  0  0  0  0  0  0  0  0  0
   45.5877    3.9590   13.0689 C   0  0  0  0  0  0  0  0  0  0  0  0
   45.5826    6.0793   11.8989 C   0  0  0  0  0  0  0  0  0  0  0  0
   47.0759    5.7428   13.7874 C   0  0  0  0  0  0  0  0  0  0  0  0
   47.9483    6.2732   14.7437 N   0  0  0  0  0  0  0  0  0  0  0  0
   46.5459    6.5643   12.7875 C   0  0  0  0  0  0  0  0  0  0  0  0
   46.5504    4.4571   13.9516 C   0  0  0  0  0  0  0  0  0  0  0  0
   46.4442    1.8290    7.9899 C   0  0  0  0  0  0  0  0  0  0  0  0
   46.6559    3.7994    6.6001 C   0  0  0  0  0  0  0  0  0  0  0  0
   47.2649    3.0337    5.6043 C   0  0  0  0  0  0  0  0  0  0  0  0
   47.0556    1.0670    6.9901 C   0  0  0  0  0  0  0  0  0  0  0  0
   47.4615    1.6681    5.7992 C   0  0  0  0  0  0  0  0  0  0  0  0
   44.5277    2.4282    9.6602 H   0  0  0  0  0  0  0  0  0  0  0  0
   45.1962    2.9551   13.2136 H   0  0  0  0  0  0  0  0  0  0  0  0
   45.1966    6.7278   11.1144 H   0  0  0  0  0  0  0  0  0  0  0  0
   48.4997    7.0572   14.4087 H   0  0  0  0  0  0  0  0  0  0  0  0
   48.5136    5.5787   15.2212 H   0  0  0  0  0  0  0  0  0  0  0  0
   46.8788    7.5946   12.6903 H   0  0  0  0  0  0  0  0  0  0  0  0
   46.8839    3.8331   14.7771 H   0  0  0  0  0  0  0  0  0  0  0  0
   46.1726    1.3327    8.9162 H   0  0  0  0  0  0  0  0  0  0  0  0
   46.5064    4.8657    6.4356 H   0  0  0  0  0  0  0  0  0  0  0  0
   47.5855    3.5039    4.6775 H   0  0  0  0  0  0  0  0  0  0  0  0
   47.2233    0.0028    7.1418 H   0  0  0  0  0  0  0  0  0  0  0  0
   47.9379    1.0725    5.0237 H   0  0  0  0  0  0  0  0  0  0  0  0
  2  1  1  0
  3  2  1  0
  4  1  1  0
  5  1  2  0
  6  1  2  0
  7  3  2  0
  8  3  1  0
  9  4  2  0
 10  4  1  0
 11 13  1  0
 12 11  1  0
 13 10  2  0
 14  9  1  0
 15  8  2  0
 16  8  1  0
 17 16  2  0
 18 15  1  0
 19 17  1  0
 11 14  2  0
 19 18  2  0
  2 20  1  0
  9 21  1  0
 10 22  1  0
 12 23  1  0
 12 24  1  0
 13 25  1  0
 14 26  1  0
 15 27  1  0
 16 28  1  0
 17 29  1  0
 18 30  1  0
 19 31  1  0
M  END
> <Uni-Dock RESULT> 
ENERGY=   -7.251  LOWER_BOUND=    0.000  UPPER_BOUND=    0.000
INTER + INTRA:          -7.251
INTER:                  -7.251
INTRA:                   0.000
UNBOUND:                 0.000

$$$$

     RDKit          3D

 31 32  0  0  0  0  0  0  0  0999 V2000
   43.8181    4.4653   10.7947 S   0  0  0  0  0  0  0  0  0  0  0  0
   44.9432    4.8950   11.9417 N   0  0  0  0  0  0  0  0  0  0  0  0
   45.6622    3.9955   12.7361 C   0  0  0  0  0  0  0  0  0  0  0  0
   44.7979    3.6796    9.5429 C   0  0  0  0  0  0  0  0  0  0  0  0
   42.8899    3.5095   11.3537 O   0  0  0  0  0  0  0  0  0  0  0  0
   43.3449    5.7234   10.2514 O   0  0  0  0  0  0  0  0  0  0  0  0
   45.5688    2.7825   12.6373 O   0  0  0  0  0  0  0  0  0  0  0  0
   46.5879    4.6076   13.7306 C   0  0  0  0  0  0  0  0  0  0  0  0
   45.3512    4.4435    8.5132 C   0  0  0  0  0  0  0  0  0  0  0  0
   44.9483    2.2925    9.5504 C   0  0  0  0  0  0  0  0  0  0  0  0
   46.3186    2.4325    7.5472 C   0  0  0  0  0  0  0  0  0  0  0  0
   46.9618    1.7968    6.4799 N   0  0  0  0  0  0  0  0  0  0  0  0
   45.6957    1.6748    8.5440 C   0  0  0  0  0  0  0  0  0  0  0  0
   46.0955    3.8128    7.5120 C   0  0  0  0  0  0  0  0  0  0  0  0
   47.0947    5.9087   13.6004 C   0  0  0  0  0  0  0  0  0  0  0  0
   46.9549    3.8365   14.8435 C   0  0  0  0  0  0  0  0  0  0  0  0
   47.8052    4.3617   15.8181 C   0  0  0  0  0  0  0  0  0  0  0  0
   47.9468    6.4295   14.5785 C   0  0  0  0  0  0  0  0  0  0  0  0
   48.2980    5.6584   15.6860 C   0  0  0  0  0  0  0  0  0  0  0  0
   44.9608    5.8956   12.0944 H   0  0  0  0  0  0  0  0  0  0  0  0
   45.1939    5.5183    8.4675 H   0  0  0  0  0  0  0  0  0  0  0  0
   44.4876    1.6874   10.3292 H   0  0  0  0  0  0  0  0  0  0  0  0
   47.3409    0.8840    6.7120 H   0  0  0  0  0  0  0  0  0  0  0  0
   47.6322    2.3812    5.9911 H   0  0  0  0  0  0  0  0  0  0  0  0
   45.7863    0.5915    8.5467 H   0  0  0  0  0  0  0  0  0  0  0  0
   46.4962    4.4092    6.6962 H   0  0  0  0  0  0  0  0  0  0  0  0
   46.8711    6.5265   12.7365 H   0  0  0  0  0  0  0  0  0  0  0  0
   46.5751    2.8221   14.9584 H   0  0  0  0  0  0  0  0  0  0  0  0
   48.0825    3.7581   16.6792 H   0  0  0  0  0  0  0  0  0  0  0  0
   48.3449    7.4366   14.4744 H   0  0  0  0  0  0  0  0  0  0  0  0
   48.9621    6.0662   16.4447 H   0  0  0  0  0  0  0  0  0  0  0  0
  2  1  1  0
  3  2  1  0
  4  1  1  0
  5  1  2  0
  6  1  2  0
  7  3  2  0
  8  3  1  0
  9  4  2  0
 10  4  1  0
 11 13  1  0
 12 11  1  0
 13 10  2  0
 14  9  1  0
 15  8  2  0
 16  8  1  0
 17 16  2  0
 18 15  1  0
 19 17  1  0
 11 14  2  0
 19 18  2  0
  2 20  1  0
  9 21  1  0
 10 22  1  0
 12 23  1  0
 12 24  1  0
 13 25  1  0
 14 26  1  0
 15 27  1  0
 16 28  1  0
 17 29  1  0
 18 30  1  0
 19 31  1  0
M  END
> <Uni-Dock RESULT> 
ENERGY=   -6.095  LOWER_BOUND=    1.747  UPPER_BOUND=    6.454
INTER + INTRA:          -6.095
INTER:                  -6.095
INTRA:                   0.000
UNBOUND:                 0.000

$$$$

     RDKit          3D

 31 32  0  0  0  0  0  0  0  0999 V2000
   44.1105   11.6732   11.4027 S   0  0  0  0  0  0  0  0  0  0  0  0
   44.9705   10.3617   11.9564 N   0  0  0  0  0  0  0  0  0  0  0  0
   44.6636    9.0257   11.6771 C   0  0  0  0  0  0  0  0  0  0  0  0
   44.4245   11.6539    9.6576 C   0  0  0  0  0  0  0  0  0  0  0  0
   42.7003   11.4705   11.6429 O   0  0  0  0  0  0  0  0  0  0  0  0
   44.7958   12.8250   11.9556 O   0  0  0  0  0  0  0  0  0  0  0  0
   43.7450    8.6808   10.9511 O   0  0  0  0  0  0  0  0  0  0  0  0
   45.5484    8.0113   12.3168 C   0  0  0  0  0  0  0  0  0  0  0  0
   45.5288   12.3365    9.1433 C   0  0  0  0  0  0  0  0  0  0  0  0
   43.5251   11.0206    8.7991 C   0  0  0  0  0  0  0  0  0  0  0  0
   44.9012   11.6501    6.8965 C   0  0  0  0  0  0  0  0  0  0  0  0
   45.0647   11.7625    5.5118 N   0  0  0  0  0  0  0  0  0  0  0  0
   43.7606   11.0347    7.4217 C   0  0  0  0  0  0  0  0  0  0  0  0
   45.7519   12.3438    7.7633 C   0  0  0  0  0  0  0  0  0  0  0  0
   46.8483    8.3017   12.7553 C   0  0  0  0  0  0  0  0  0  0  0  0
   45.0412    6.7143   12.4849 C   0  0  0  0  0  0  0  0  0  0  0  0
   45.8163    5.7256   13.0935 C   0  0  0  0  0  0  0  0  0  0  0  0
   47.6209    7.3078   13.3629 C   0  0  0  0  0  0  0  0  0  0  0  0
   47.1040    6.0240   13.5342 C   0  0  0  0  0  0  0  0  0  0  0  0
   45.6757   10.6323   12.6305 H   0  0  0  0  0  0  0  0  0  0  0  0
   46.2055   12.8795    9.7985 H   0  0  0  0  0  0  0  0  0  0  0  0
   42.6419   10.5191    9.1907 H   0  0  0  0  0  0  0  0  0  0  0  0
   44.6203   11.0186    4.9826 H   0  0  0  0  0  0  0  0  0  0  0  0
   46.0220   11.9272    5.2182 H   0  0  0  0  0  0  0  0  0  0  0  0
   43.0407   10.5585    6.7608 H   0  0  0  0  0  0  0  0  0  0  0  0
   46.5952   12.9039    7.3672 H   0  0  0  0  0  0  0  0  0  0  0  0
   47.2969    9.2792   12.6091 H   0  0  0  0  0  0  0  0  0  0  0  0
   44.0356    6.4693   12.1457 H   0  0  0  0  0  0  0  0  0  0  0  0
   45.4144    4.7233   13.2225 H   0  0  0  0  0  0  0  0  0  0  0  0
   48.6316    7.5314   13.6975 H   0  0  0  0  0  0  0  0  0  0  0  0
   47.7082    5.2526   14.0065 H   0  0  0  0  0  0  0  0  0  0  0  0
  2  1  1  0
  3  2  1  0
  4  1  1  0
  5  1  2  0
  6  1  2  0
  7  3  2  0
  8  3  1  0
  9  4  2  0
 10  4  1  0
 11 13  1  0
 12 11  1  0
 13 10  2  0
 14  9  1  0
 15  8  2  0
 16  8  1  0
 17 16  2  0
 18 15  1  0
 19 17  1  0
 11 14  2  0
 19 18  2  0
  2 20  1  0
  9 21  1  0
 10 22  1  0
 12 23  1  0
 12 24  1  0
 13 25  1  0
 14 26  1  0
 15 27  1  0
 16 28  1  0
 17 29  1  0
 18 30  1  0
 19 31  1  0
M  END
> <Uni-Dock RESULT> 
ENERGY=   -4.328  LOWER_BOUND=    5.603  UPPER_BOUND=    8.034
INTER + INTRA:          -4.328
INTER:                  -4.328
INTRA:                   0.000
UNBOUND:                 0.000

$$$$
