
     RDKit          3D

 31 32  0  0  0  0  0  0  0  0999 V2000
   44.6132    5.7821   10.5562 S   0  0  0  0  0  0  0  0  0  0  0  0
   45.3699    4.9599    9.3252 N   0  0  0  0  0  0  0  0  0  0  0  0
   45.4215    3.5675    9.1994 C   0  0  0  0  0  0  0  0  0  0  0  0
   45.4692    5.2438   12.0131 C   0  0  0  0  0  0  0  0  0  0  0  0
   43.2307    5.3673   10.6276 O   0  0  0  0  0  0  0  0  0  0  0  0
   44.9578    7.1737   10.3412 O   0  0  0  0  0  0  0  0  0  0  0  0
   44.9671    2.7954   10.0280 O   0  0  0  0  0  0  0  0  0  0  0  0
   46.1112    3.0611    7.9801 C   0  0  0  0  0  0  0  0  0  0  0  0
   46.6471    5.8875   12.3993 C   0  0  0  0  0  0  0  0  0  0  0  0
   44.9223    4.2379   12.8103 C   0  0  0  0  0  0  0  0  0  0  0  0
   46.8046    4.4274   14.3373 C   0  0  0  0  0  0  0  0  0  0  0  0
   47.3974    4.1126   15.5647 N   0  0  0  0  0  0  0  0  0  0  0  0
   45.5857    3.8449   13.9758 C   0  0  0  0  0  0  0  0  0  0  0  0
   47.2998    5.4855   13.5683 C   0  0  0  0  0  0  0  0  0  0  0  0
   46.6543    1.7689    8.0197 C   0  0  0  0  0  0  0  0  0  0  0  0
   46.2402    3.8262    6.8121 C   0  0  0  0  0  0  0  0  0  0  0  0
   46.9165    3.3053    5.7055 C   0  0  0  0  0  0  0  0  0  0  0  0
   47.3301    1.2538    6.9122 C   0  0  0  0  0  0  0  0  0  0  0  0
   47.4632    2.0236    5.7579 C   0  0  0  0  0  0  0  0  0  0  0  0
   45.9199    5.5752    8.7378 H   0  0  0  0  0  0  0  0  0  0  0  0
   47.0512    6.7111   11.8160 H   0  0  0  0  0  0  0  0  0  0  0  0
   43.9862    3.7566   12.5337 H   0  0  0  0  0  0  0  0  0  0  0  0
   47.1811    3.1785   15.8987 H   0  0  0  0  0  0  0  0  0  0  0  0
   48.3898    4.3197   15.6118 H   0  0  0  0  0  0  0  0  0  0  0  0
   45.1388    3.0755   14.6004 H   0  0  0  0  0  0  0  0  0  0  0  0
   48.1983    6.0121   13.8799 H   0  0  0  0  0  0  0  0  0  0  0  0
   46.5543    1.1577    8.9154 H   0  0  0  0  0  0  0  0  0  0  0  0
   45.7934    4.8125    6.7246 H   0  0  0  0  0  0  0  0  0  0  0  0
   47.0083    3.8951    4.7960 H   0  0  0  0  0  0  0  0  0  0  0  0
   47.7492    0.2509    6.9495 H   0  0  0  0  0  0  0  0  0  0  0  0
   47.9858    1.6196    4.8937 H   0  0  0  0  0  0  0  0  0  0  0  0
  2  1  1  0
  3  2  1  0
  4  1  1  0
  5  1  2  0
  6  1  2  0
  7  3  2  0
  8  3  1  0
  9  4  2  0
 10  4  1  0
 11 13  1  0
 12 11  1  0
 13 10  2  0
 14  9  1  0
 15  8  2  0
 16  8  1  0
 17 16  2  0
 18 15  1  0
 19 17  1  0
 11 14  2  0
 19 18  2  0
  2 20  1  0
  9 21  1  0
 10 22  1  0
 12 23  1  0
 12 24  1  0
 13 25  1  0
 14 26  1  0
 15 27  1  0
 16 28  1  0
 17 29  1  0
 18 30  1  0
 19 31  1  0
M  END
> <Uni-Dock RESULT> 
ENERGY=   -4.939  LOWER_BOUND=    0.000  UPPER_BOUND=    0.000
INTER + INTRA:          -4.939
INTER:                  -4.939
INTRA:                   0.000
UNBOUND:                 0.000

$$$$

     RDKit          3D

 31 32  0  0  0  0  0  0  0  0999 V2000
   43.6542    6.1174   12.0440 S   0  0  0  0  0  0  0  0  0  0  0  0
   45.1099    6.5853   12.6967 N   0  0  0  0  0  0  0  0  0  0  0  0
   46.2297    6.9887   11.9614 C   0  0  0  0  0  0  0  0  0  0  0  0
   44.0668    4.6983   11.0639 C   0  0  0  0  0  0  0  0  0  0  0  0
   43.1563    7.1684   11.1862 O   0  0  0  0  0  0  0  0  0  0  0  0
   42.8729    5.6514   13.1728 O   0  0  0  0  0  0  0  0  0  0  0  0
   46.2796    6.9759   10.7422 O   0  0  0  0  0  0  0  0  0  0  0  0
   47.4054    7.4157   12.7701 C   0  0  0  0  0  0  0  0  0  0  0  0
   44.1251    3.4382   11.6636 C   0  0  0  0  0  0  0  0  0  0  0  0
   44.2507    4.8323    9.6874 C   0  0  0  0  0  0  0  0  0  0  0  0
   44.6760    2.4450    9.5136 C   0  0  0  0  0  0  0  0  0  0  0  0
   44.8461    1.3056    8.7200 N   0  0  0  0  0  0  0  0  0  0  0  0
   44.5402    3.7027    8.9174 C   0  0  0  0  0  0  0  0  0  0  0  0
   44.4142    2.3162   10.8815 C   0  0  0  0  0  0  0  0  0  0  0  0
   48.6749    7.3338   12.1801 C   0  0  0  0  0  0  0  0  0  0  0  0
   47.2874    7.8835   14.0867 C   0  0  0  0  0  0  0  0  0  0  0  0
   48.4293    8.2506   14.8039 C   0  0  0  0  0  0  0  0  0  0  0  0
   49.8126    7.7005   12.9013 C   0  0  0  0  0  0  0  0  0  0  0  0
   49.6888    8.1552   14.2130 C   0  0  0  0  0  0  0  0  0  0  0  0
   45.1530    6.4137   13.6941 H   0  0  0  0  0  0  0  0  0  0  0  0
   43.9269    3.3147   12.7254 H   0  0  0  0  0  0  0  0  0  0  0  0
   44.1716    5.8063    9.2083 H   0  0  0  0  0  0  0  0  0  0  0  0
   45.3166    1.4846    7.8382 H   0  0  0  0  0  0  0  0  0  0  0  0
   45.2394    0.5107    9.2135 H   0  0  0  0  0  0  0  0  0  0  0  0
   44.6596    3.8160    7.8428 H   0  0  0  0  0  0  0  0  0  0  0  0
   44.4262    1.3348   11.3489 H   0  0  0  0  0  0  0  0  0  0  0  0
   48.7833    6.9822   11.1552 H   0  0  0  0  0  0  0  0  0  0  0  0
   46.3190    8.0061   14.5632 H   0  0  0  0  0  0  0  0  0  0  0  0
   48.3370    8.6225   15.8220 H   0  0  0  0  0  0  0  0  0  0  0  0
   50.7943    7.6344   12.4379 H   0  0  0  0  0  0  0  0  0  0  0  0
   50.5753    8.4452   14.7725 H   0  0  0  0  0  0  0  0  0  0  0  0
  2  1  1  0
  3  2  1  0
  4  1  1  0
  5  1  2  0
  6  1  2  0
  7  3  2  0
  8  3  1  0
  9  4  2  0
 10  4  1  0
 11 13  1  0
 12 11  1  0
 13 10  2  0
 14  9  1  0
 15  8  2  0
 16  8  1  0
 17 16  2  0
 18 15  1  0
 19 17  1  0
 11 14  2  0
 19 18  2  0
  2 20  1  0
  9 21  1  0
 10 22  1  0
 12 23  1  0
 12 24  1  0
 13 25  1  0
 14 26  1  0
 15 27  1  0
 16 28  1  0
 17 29  1  0
 18 30  1  0
 19 31  1  0
M  END
> <Uni-Dock RESULT> 
ENERGY=   -4.341  LOWER_BOUND=    2.942  UPPER_BOUND=    6.159
INTER + INTRA:          -4.341
INTER:                  -4.341
INTRA:                   0.000
UNBOUND:                 0.000

$$$$

     RDKit          3D

 31 32  0  0  0  0  0  0  0  0999 V2000
   48.1585    5.6023   17.9630 S   0  0  0  0  0  0  0  0  0  0  0  0
   48.3611    6.5497   16.6120 N   0  0  0  0  0  0  0  0  0  0  0  0
   48.1280    6.1360   15.2959 C   0  0  0  0  0  0  0  0  0  0  0  0
   49.2983    4.2661   17.7174 C   0  0  0  0  0  0  0  0  0  0  0  0
   46.8085    5.0872   17.9863 O   0  0  0  0  0  0  0  0  0  0  0  0
   48.6629    6.4052   19.0596 O   0  0  0  0  0  0  0  0  0  0  0  0
   47.8105    4.9981   14.9900 O   0  0  0  0  0  0  0  0  0  0  0  0
   48.3265    7.1807   14.2529 C   0  0  0  0  0  0  0  0  0  0  0  0
   50.6315    4.4155   18.1060 C   0  0  0  0  0  0  0  0  0  0  0  0
   48.8437    3.0466   17.2146 C   0  0  0  0  0  0  0  0  0  0  0  0
   51.0957    2.1444   17.3720 C   0  0  0  0  0  0  0  0  0  0  0  0
   51.9598    1.0452   17.3255 N   0  0  0  0  0  0  0  0  0  0  0  0
   49.7420    1.9877   17.0580 C   0  0  0  0  0  0  0  0  0  0  0  0
   51.5193    3.3477   17.9453 C   0  0  0  0  0  0  0  0  0  0  0  0
   48.6214    6.7604   12.9480 C   0  0  0  0  0  0  0  0  0  0  0  0
   48.2369    8.5523   14.5305 C   0  0  0  0  0  0  0  0  0  0  0  0
   48.4537    9.4873   13.5146 C   0  0  0  0  0  0  0  0  0  0  0  0
   48.8385    7.6985   11.9373 C   0  0  0  0  0  0  0  0  0  0  0  0
   48.7576    9.0604   12.2224 C   0  0  0  0  0  0  0  0  0  0  0  0
   48.8121    7.4305   16.8285 H   0  0  0  0  0  0  0  0  0  0  0  0
   50.9833    5.3424   18.5521 H   0  0  0  0  0  0  0  0  0  0  0  0
   47.7984    2.9123   16.9430 H   0  0  0  0  0  0  0  0  0  0  0  0
   51.6914    0.3390   16.6471 H   0  0  0  0  0  0  0  0  0  0  0  0
   52.9421    1.2916   17.2588 H   0  0  0  0  0  0  0  0  0  0  0  0
   49.3718    1.0356   16.6860 H   0  0  0  0  0  0  0  0  0  0  0  0
   52.5476    3.4602   18.2795 H   0  0  0  0  0  0  0  0  0  0  0  0
   48.6849    5.6990   12.7133 H   0  0  0  0  0  0  0  0  0  0  0  0
   47.9647    8.9176   15.5165 H   0  0  0  0  0  0  0  0  0  0  0  0
   48.3748   10.5512   13.7276 H   0  0  0  0  0  0  0  0  0  0  0  0
   49.0671    7.3660   10.9273 H   0  0  0  0  0  0  0  0  0  0  0  0
   48.9222    9.7906   11.4331 H   0  0  0  0  0  0  0  0  0  0  0  0
  2  1  1  0
  3  2  1  0
  4  1  1  0
  5  1  2  0
  6  1  2  0
  7  3  2  0
  8  3  1  0
  9  4  2  0
 10  4  1  0
 11 13  1  0
 12 11  1  0
 13 10  2  0
 14  9  1  0
 15  8  2  0
 16  8  1  0
 17 16  2  0
 18 15  1  0
 19 17  1  0
 11 14  2  0
 19 18  2  0
  2 20  1  0
  9 21  1  0
 10 22  1  0
 12 23  1  0
 12 24  1  0
 13 25  1  0
 14 26  1  0
 15 27  1  0
 16 28  1  0
 17 29  1  0
 18 30  1  0
 19 31  1  0
M  END
> <Uni-Dock RESULT> 
ENERGY=   -4.014  LOWER_BOUND=    6.052  UPPER_BOUND=    7.660
INTER + INTRA:          -4.014
INTER:                  -4.014
INTRA:                   0.000
UNBOUND:                 0.000

$$$$

     RDKit          3D

 31 32  0  0  0  0  0  0  0  0999 V2000
   48.2707    4.1355   18.2042 S   0  0  0  0  0  0  0  0  0  0  0  0
   48.1216    4.7644   19.7360 N   0  0  0  0  0  0  0  0  0  0  0  0
   47.5883    6.0211   20.0422 C   0  0  0  0  0  0  0  0  0  0  0  0
   49.3476    5.2787   17.3807 C   0  0  0  0  0  0  0  0  0  0  0  0
   46.9776    4.1398   17.5589 O   0  0  0  0  0  0  0  0  0  0  0  0
   49.0057    2.8984   18.3798 O   0  0  0  0  0  0  0  0  0  0  0  0
   47.2322    6.8290   19.1999 O   0  0  0  0  0  0  0  0  0  0  0  0
   47.5071    6.3444   21.4939 C   0  0  0  0  0  0  0  0  0  0  0  0
   50.7315    5.1331   17.5012 C   0  0  0  0  0  0  0  0  0  0  0  0
   48.8128    6.2660   16.5524 C   0  0  0  0  0  0  0  0  0  0  0  0
   51.0562    7.0552   16.0478 C   0  0  0  0  0  0  0  0  0  0  0  0
   51.9081    7.8544   15.2780 N   0  0  0  0  0  0  0  0  0  0  0  0
   49.6705    7.1399   15.8792 C   0  0  0  0  0  0  0  0  0  0  0  0
   51.5782    6.0132   16.8211 C   0  0  0  0  0  0  0  0  0  0  0  0
   47.4892    7.6960   21.8674 C   0  0  0  0  0  0  0  0  0  0  0  0
   47.4562    5.3554   22.4867 C   0  0  0  0  0  0  0  0  0  0  0  0
   47.4017    5.7196   23.8349 C   0  0  0  0  0  0  0  0  0  0  0  0
   47.4360    8.0543   23.2155 C   0  0  0  0  0  0  0  0  0  0  0  0
   47.3957    7.0661   24.1975 C   0  0  0  0  0  0  0  0  0  0  0  0
   48.5916    4.1946   20.4292 H   0  0  0  0  0  0  0  0  0  0  0  0
   51.1593    4.3316   18.0983 H   0  0  0  0  0  0  0  0  0  0  0  0
   47.7361    6.3624   16.4262 H   0  0  0  0  0  0  0  0  0  0  0  0
   51.5004    8.7418   15.0001 H   0  0  0  0  0  0  0  0  0  0  0  0
   52.8398    7.9617   15.6659 H   0  0  0  0  0  0  0  0  0  0  0  0
   49.2432    7.8909   15.2194 H   0  0  0  0  0  0  0  0  0  0  0  0
   52.6539    5.8741   16.8937 H   0  0  0  0  0  0  0  0  0  0  0  0
   47.5180    8.4765   21.1086 H   0  0  0  0  0  0  0  0  0  0  0  0
   47.4208    4.2989   22.2373 H   0  0  0  0  0  0  0  0  0  0  0  0
   47.3526    4.9525   24.6048 H   0  0  0  0  0  0  0  0  0  0  0  0
   47.4226    9.1044   23.4985 H   0  0  0  0  0  0  0  0  0  0  0  0
   47.3494    7.3463   25.2475 H   0  0  0  0  0  0  0  0  0  0  0  0
  2  1  1  0
  3  2  1  0
  4  1  1  0
  5  1  2  0
  6  1  2  0
  7  3  2  0
  8  3  1  0
  9  4  2  0
 10  4  1  0
 11 13  1  0
 12 11  1  0
 13 10  2  0
 14  9  1  0
 15  8  2  0
 16  8  1  0
 17 16  2  0
 18 15  1  0
 19 17  1  0
 11 14  2  0
 19 18  2  0
  2 20  1  0
  9 21  1  0
 10 22  1  0
 12 23  1  0
 12 24  1  0
 13 25  1  0
 14 26  1  0
 15 27  1  0
 16 28  1  0
 17 29  1  0
 18 30  1  0
 19 31  1  0
M  END
> <Uni-Dock RESULT> 
ENERGY=   -3.954  LOWER_BOUND=    8.119  UPPER_BOUND=   11.505
INTER + INTRA:          -3.954
INTER:                  -3.954
INTRA:                   0.000
UNBOUND:                 0.000

$$$$

     RDKit          3D

 31 32  0  0  0  0  0  0  0  0999 V2000
   47.5824    3.5299   16.7021 S   0  0  0  0  0  0  0  0  0  0  0  0
   46.5938    4.0369   15.4653 N   0  0  0  0  0  0  0  0  0  0  0  0
   46.9665    4.9216   14.4475 C   0  0  0  0  0  0  0  0  0  0  0  0
   47.9940    5.0287   17.5559 C   0  0  0  0  0  0  0  0  0  0  0  0
   48.7816    2.9463   16.1454 O   0  0  0  0  0  0  0  0  0  0  0  0
   46.7202    2.7575   17.5748 O   0  0  0  0  0  0  0  0  0  0  0  0
   48.0524    5.4757   14.3961 O   0  0  0  0  0  0  0  0  0  0  0  0
   45.9240    5.1857   13.4168 C   0  0  0  0  0  0  0  0  0  0  0  0
   47.1329    5.5226   18.5384 C   0  0  0  0  0  0  0  0  0  0  0  0
   49.2108    5.6627   17.3025 C   0  0  0  0  0  0  0  0  0  0  0  0
   48.6583    7.3730   18.9396 C   0  0  0  0  0  0  0  0  0  0  0  0
   49.0511    8.4638   19.7225 N   0  0  0  0  0  0  0  0  0  0  0  0
   49.5428    6.8236   18.0060 C   0  0  0  0  0  0  0  0  0  0  0  0
   47.4778    6.6839   19.2357 C   0  0  0  0  0  0  0  0  0  0  0  0
   45.9985    6.3875   12.6981 C   0  0  0  0  0  0  0  0  0  0  0  0
   44.8804    4.2878   13.1501 C   0  0  0  0  0  0  0  0  0  0  0  0
   43.9188    4.5995   12.1851 C   0  0  0  0  0  0  0  0  0  0  0  0
   45.0345    6.6946   11.7363 C   0  0  0  0  0  0  0  0  0  0  0  0
   43.9943    5.8021   11.4832 C   0  0  0  0  0  0  0  0  0  0  0  0
   45.6332    3.7454   15.6014 H   0  0  0  0  0  0  0  0  0  0  0  0
   46.2092    5.0043   18.7840 H   0  0  0  0  0  0  0  0  0  0  0  0
   49.9025    5.2631   16.5633 H   0  0  0  0  0  0  0  0  0  0  0  0
   49.7297    9.0704   19.2725 H   0  0  0  0  0  0  0  0  0  0  0  0
   48.2792    8.9822   20.1294 H   0  0  0  0  0  0  0  0  0  0  0  0
   50.5031    7.2963   17.8159 H   0  0  0  0  0  0  0  0  0  0  0  0
   46.8184    7.0445   20.0211 H   0  0  0  0  0  0  0  0  0  0  0  0
   46.8080    7.0912   12.8858 H   0  0  0  0  0  0  0  0  0  0  0  0
   44.8138    3.3264   13.6511 H   0  0  0  0  0  0  0  0  0  0  0  0
   43.1146    3.8988   11.9713 H   0  0  0  0  0  0  0  0  0  0  0  0
   45.0978    7.6285   11.1825 H   0  0  0  0  0  0  0  0  0  0  0  0
   43.2464    6.0401   10.7302 H   0  0  0  0  0  0  0  0  0  0  0  0
  2  1  1  0
  3  2  1  0
  4  1  1  0
  5  1  2  0
  6  1  2  0
  7  3  2  0
  8  3  1  0
  9  4  2  0
 10  4  1  0
 11 13  1  0
 12 11  1  0
 13 10  2  0
 14  9  1  0
 15  8  2  0
 16  8  1  0
 17 16  2  0
 18 15  1  0
 19 17  1  0
 11 14  2  0
 19 18  2  0
  2 20  1  0
  9 21  1  0
 10 22  1  0
 12 23  1  0
 12 24  1  0
 13 25  1  0
 14 26  1  0
 15 27  1  0
 16 28  1  0
 17 29  1  0
 18 30  1  0
 19 31  1  0
M  END
> <Uni-Dock RESULT> 
ENERGY=   -3.944  LOWER_BOUND=    4.911  UPPER_BOUND=    6.703
INTER + INTRA:          -3.944
INTER:                  -3.944
INTRA:                   0.000
UNBOUND:                 0.000

$$$$

     RDKit          3D

 31 32  0  0  0  0  0  0  0  0999 V2000
   48.7525    9.4174   14.0085 S   0  0  0  0  0  0  0  0  0  0  0  0
   48.2497    9.9488   15.5014 N   0  0  0  0  0  0  0  0  0  0  0  0
   48.2998    9.1995   16.6818 C   0  0  0  0  0  0  0  0  0  0  0  0
   47.7091    8.0208   13.6833 C   0  0  0  0  0  0  0  0  0  0  0  0
   50.1280    8.9827   14.0954 O   0  0  0  0  0  0  0  0  0  0  0  0
   48.3660   10.4697   13.0893 O   0  0  0  0  0  0  0  0  0  0  0  0
   48.6612    8.0349   16.7298 O   0  0  0  0  0  0  0  0  0  0  0  0
   47.8428    9.9091   17.9092 C   0  0  0  0  0  0  0  0  0  0  0  0
   46.4495    8.2178   13.1130 C   0  0  0  0  0  0  0  0  0  0  0  0
   48.1803    6.7293   13.9212 C   0  0  0  0  0  0  0  0  0  0  0  0
   46.0720    5.8159   13.1268 C   0  0  0  0  0  0  0  0  0  0  0  0
   45.3115    4.7126   12.7251 N   0  0  0  0  0  0  0  0  0  0  0  0
   47.3646    5.6331   13.6283 C   0  0  0  0  0  0  0  0  0  0  0  0
   45.6443    7.1125   12.8235 C   0  0  0  0  0  0  0  0  0  0  0  0
   47.3765    9.1354   18.9817 C   0  0  0  0  0  0  0  0  0  0  0  0
   47.8563   11.3066   18.0234 C   0  0  0  0  0  0  0  0  0  0  0  0
   47.3955   11.9176   19.1928 C   0  0  0  0  0  0  0  0  0  0  0  0
   46.9159    9.7507   20.1471 C   0  0  0  0  0  0  0  0  0  0  0  0
   46.9228   11.1407   20.2500 C   0  0  0  0  0  0  0  0  0  0  0  0
   47.7649   10.8366   15.4464 H   0  0  0  0  0  0  0  0  0  0  0  0
   46.0958    9.2169   12.8704 H   0  0  0  0  0  0  0  0  0  0  0  0
   49.1749    6.5674   14.3325 H   0  0  0  0  0  0  0  0  0  0  0  0
   45.5261    3.8586   13.2307 H   0  0  0  0  0  0  0  0  0  0  0  0
   44.3138    4.8919   12.6753 H   0  0  0  0  0  0  0  0  0  0  0  0
   47.7508    4.6310   13.7972 H   0  0  0  0  0  0  0  0  0  0  0  0
   44.6786    7.2713   12.3502 H   0  0  0  0  0  0  0  0  0  0  0  0
   47.3686    8.0487   18.9133 H   0  0  0  0  0  0  0  0  0  0  0  0
   48.2531   11.9390   17.2344 H   0  0  0  0  0  0  0  0  0  0  0  0
   47.4148   13.0013   19.2852 H   0  0  0  0  0  0  0  0  0  0  0  0
   46.5552    9.1449   20.9752 H   0  0  0  0  0  0  0  0  0  0  0  0
   46.5683   11.6190   21.1602 H   0  0  0  0  0  0  0  0  0  0  0  0
  2  1  1  0
  3  2  1  0
  4  1  1  0
  5  1  2  0
  6  1  2  0
  7  3  2  0
  8  3  1  0
  9  4  2  0
 10  4  1  0
 11 13  1  0
 12 11  1  0
 13 10  2  0
 14  9  1  0
 15  8  2  0
 16  8  1  0
 17 16  2  0
 18 15  1  0
 19 17  1  0
 11 14  2  0
 19 18  2  0
  2 20  1  0
  9 21  1  0
 10 22  1  0
 12 23  1  0
 12 24  1  0
 13 25  1  0
 14 26  1  0
 15 27  1  0
 16 28  1  0
 17 29  1  0
 18 30  1  0
 19 31  1  0
M  END
> <Uni-Dock RESULT> 
ENERGY=   -3.938  LOWER_BOUND=    5.657  UPPER_BOUND=    9.657
INTER + INTRA:          -3.938
INTER:                  -3.938
INTRA:                   0.000
UNBOUND:                 0.000

$$$$

     RDKit          3D

 31 32  0  0  0  0  0  0  0  0999 V2000
   42.8192   10.5258   10.8480 S   0  0  0  0  0  0  0  0  0  0  0  0
   43.7931    9.2752   11.3495 N   0  0  0  0  0  0  0  0  0  0  0  0
   45.0791    9.4194   11.8812 C   0  0  0  0  0  0  0  0  0  0  0  0
   43.7477   11.2880    9.5435 C   0  0  0  0  0  0  0  0  0  0  0  0
   42.6516   11.4647   11.9338 O   0  0  0  0  0  0  0  0  0  0  0  0
   41.6698    9.8826   10.2423 O   0  0  0  0  0  0  0  0  0  0  0  0
   45.6579   10.4898   11.9729 O   0  0  0  0  0  0  0  0  0  0  0  0
   45.7382    8.1548   12.3116 C   0  0  0  0  0  0  0  0  0  0  0  0
   43.6540   10.7847    8.2440 C   0  0  0  0  0  0  0  0  0  0  0  0
   44.5014   12.4332    9.8026 C   0  0  0  0  0  0  0  0  0  0  0  0
   45.1783   12.5133    7.4690 C   0  0  0  0  0  0  0  0  0  0  0  0
   45.7825   13.2026    6.4121 N   0  0  0  0  0  0  0  0  0  0  0  0
   45.2012   13.0480    8.7610 C   0  0  0  0  0  0  0  0  0  0  0  0
   44.3580   11.4102    7.2110 C   0  0  0  0  0  0  0  0  0  0  0  0
   47.1394    8.1255   12.3580 C   0  0  0  0  0  0  0  0  0  0  0  0
   45.0139    7.0058   12.6602 C   0  0  0  0  0  0  0  0  0  0  0  0
   45.6883    5.8410   13.0366 C   0  0  0  0  0  0  0  0  0  0  0  0
   47.8082    6.9590   12.7333 C   0  0  0  0  0  0  0  0  0  0  0  0
   47.0822    5.8176   13.0689 C   0  0  0  0  0  0  0  0  0  0  0  0
   43.4115    8.3710   11.0986 H   0  0  0  0  0  0  0  0  0  0  0  0
   43.0240    9.9273    8.0207 H   0  0  0  0  0  0  0  0  0  0  0  0
   44.5502   12.8513   10.8062 H   0  0  0  0  0  0  0  0  0  0  0  0
   46.5723   13.7758    6.6927 H   0  0  0  0  0  0  0  0  0  0  0  0
   45.9920   12.6242    5.6050 H   0  0  0  0  0  0  0  0  0  0  0  0
   45.7673   13.9522    8.9704 H   0  0  0  0  0  0  0  0  0  0  0  0
   44.2551   11.0326    6.1968 H   0  0  0  0  0  0  0  0  0  0  0  0
   47.7168    9.0120   12.1001 H   0  0  0  0  0  0  0  0  0  0  0  0
   43.9279    7.0016   12.6825 H   0  0  0  0  0  0  0  0  0  0  0  0
   45.1264    4.9525   13.3163 H   0  0  0  0  0  0  0  0  0  0  0  0
   48.8951    6.9428   12.7670 H   0  0  0  0  0  0  0  0  0  0  0  0
   47.6040    4.9106   13.3659 H   0  0  0  0  0  0  0  0  0  0  0  0
  2  1  1  0
  3  2  1  0
  4  1  1  0
  5  1  2  0
  6  1  2  0
  7  3  2  0
  8  3  1  0
  9  4  2  0
 10  4  1  0
 11 13  1  0
 12 11  1  0
 13 10  2  0
 14  9  1  0
 15  8  2  0
 16  8  1  0
 17 16  2  0
 18 15  1  0
 19 17  1  0
 11 14  2  0
 19 18  2  0
  2 20  1  0
  9 21  1  0
 10 22  1  0
 12 23  1  0
 12 24  1  0
 13 25  1  0
 14 26  1  0
 15 27  1  0
 16 28  1  0
 17 29  1  0
 18 30  1  0
 19 31  1  0
M  END
> <Uni-Dock RESULT> 
ENERGY=   -3.886  LOWER_BOUND=    5.462  UPPER_BOUND=    7.988
INTER + INTRA:          -3.886
INTER:                  -3.886
INTRA:                   0.000
UNBOUND:                 0.000

$$$$

     RDKit          3D

 31 32  0  0  0  0  0  0  0  0999 V2000
   54.6701    2.3378   18.6958 S   0  0  0  0  0  0  0  0  0  0  0  0
   53.1185    2.7854   18.3006 N   0  0  0  0  0  0  0  0  0  0  0  0
   52.1284    1.9209   17.8209 C   0  0  0  0  0  0  0  0  0  0  0  0
   55.3327    1.7185   17.1719 C   0  0  0  0  0  0  0  0  0  0  0  0
   54.6254    1.2724   19.6713 O   0  0  0  0  0  0  0  0  0  0  0  0
   55.3527    3.5823   18.9905 O   0  0  0  0  0  0  0  0  0  0  0  0
   52.3209    0.7414   17.5744 O   0  0  0  0  0  0  0  0  0  0  0  0
   50.7952    2.5429   17.5877 C   0  0  0  0  0  0  0  0  0  0  0  0
   55.8960    2.6062   16.2525 C   0  0  0  0  0  0  0  0  0  0  0  0
   55.3632    0.3441   16.9335 C   0  0  0  0  0  0  0  0  0  0  0  0
   56.4205    0.7430   14.7809 C   0  0  0  0  0  0  0  0  0  0  0  0
   57.0826    0.2469   13.6529 N   0  0  0  0  0  0  0  0  0  0  0  0
   55.9199   -0.1372   15.7455 C   0  0  0  0  0  0  0  0  0  0  0  0
   56.4509    2.1113   15.0688 C   0  0  0  0  0  0  0  0  0  0  0  0
   49.9362    1.9315   16.6632 C   0  0  0  0  0  0  0  0  0  0  0  0
   50.3791    3.7081   18.2477 C   0  0  0  0  0  0  0  0  0  0  0  0
   49.1239    4.2578   17.9724 C   0  0  0  0  0  0  0  0  0  0  0  0
   48.6841    2.4854   16.3909 C   0  0  0  0  0  0  0  0  0  0  0  0
   48.2809    3.6493   17.0432 C   0  0  0  0  0  0  0  0  0  0  0  0
   52.9981    3.7911   18.3094 H   0  0  0  0  0  0  0  0  0  0  0  0
   55.9291    3.6740   16.4546 H   0  0  0  0  0  0  0  0  0  0  0  0
   54.9578   -0.3556   17.6619 H   0  0  0  0  0  0  0  0  0  0  0  0
   56.7669   -0.6732   13.3618 H   0  0  0  0  0  0  0  0  0  0  0  0
   57.1317    0.9015   12.8788 H   0  0  0  0  0  0  0  0  0  0  0  0
   55.9580   -1.2110   15.5806 H   0  0  0  0  0  0  0  0  0  0  0  0
   56.9163    2.8047   14.3727 H   0  0  0  0  0  0  0  0  0  0  0  0
   50.2398    1.0207   16.1495 H   0  0  0  0  0  0  0  0  0  0  0  0
   50.9950    4.1853   19.0044 H   0  0  0  0  0  0  0  0  0  0  0  0
   48.7971    5.1563   18.4913 H   0  0  0  0  0  0  0  0  0  0  0  0
   48.0227    2.0064   15.6726 H   0  0  0  0  0  0  0  0  0  0  0  0
   47.3031    4.0775   16.8339 H   0  0  0  0  0  0  0  0  0  0  0  0
  2  1  1  0
  3  2  1  0
  4  1  1  0
  5  1  2  0
  6  1  2  0
  7  3  2  0
  8  3  1  0
  9  4  2  0
 10  4  1  0
 11 13  1  0
 12 11  1  0
 13 10  2  0
 14  9  1  0
 15  8  2  0
 16  8  1  0
 17 16  2  0
 18 15  1  0
 19 17  1  0
 11 14  2  0
 19 18  2  0
  2 20  1  0
  9 21  1  0
 10 22  1  0
 12 23  1  0
 12 24  1  0
 13 25  1  0
 14 26  1  0
 15 27  1  0
 16 28  1  0
 17 29  1  0
 18 30  1  0
 19 31  1  0
M  END
> <Uni-Dock RESULT> 
ENERGY=   -3.712  LOWER_BOUND=    9.111  UPPER_BOUND=   11.573
INTER + INTRA:          -3.712
INTER:                  -3.712
INTRA:                   0.000
UNBOUND:                 0.000

$$$$

     RDKit          3D

 31 32  0  0  0  0  0  0  0  0999 V2000
   41.8872   10.4680   10.8346 S   0  0  0  0  0  0  0  0  0  0  0  0
   41.1603   11.1922   12.1427 N   0  0  0  0  0  0  0  0  0  0  0  0
   41.1725   12.5649   12.4130 C   0  0  0  0  0  0  0  0  0  0  0  0
   43.6055   10.8577   11.0363 C   0  0  0  0  0  0  0  0  0  0  0  0
   41.3941   11.0741    9.6189 O   0  0  0  0  0  0  0  0  0  0  0  0
   41.7363    9.0448   11.0657 O   0  0  0  0  0  0  0  0  0  0  0  0
   41.7839   13.3815   11.7434 O   0  0  0  0  0  0  0  0  0  0  0  0
   40.4041   12.9858   13.6176 C   0  0  0  0  0  0  0  0  0  0  0  0
   44.4071   10.0475   11.8436 C   0  0  0  0  0  0  0  0  0  0  0  0
   44.1667   11.9194   10.3260 C   0  0  0  0  0  0  0  0  0  0  0  0
   46.3307   11.4418   11.3257 C   0  0  0  0  0  0  0  0  0  0  0  0
   47.7133   11.6511   11.3640 N   0  0  0  0  0  0  0  0  0  0  0  0
   45.5293   12.1970   10.4636 C   0  0  0  0  0  0  0  0  0  0  0  0
   45.7691   10.3354   11.9712 C   0  0  0  0  0  0  0  0  0  0  0  0
   40.7672   14.1870   14.2435 C   0  0  0  0  0  0  0  0  0  0  0  0
   39.3486   12.2273   14.1439 C   0  0  0  0  0  0  0  0  0  0  0  0
   38.6772   12.6629   15.2896 C   0  0  0  0  0  0  0  0  0  0  0  0
   40.0943   14.6169   15.3886 C   0  0  0  0  0  0  0  0  0  0  0  0
   39.0526   13.8530   15.9120 C   0  0  0  0  0  0  0  0  0  0  0  0
   40.8187   10.5136   12.8128 H   0  0  0  0  0  0  0  0  0  0  0  0
   43.9916    9.1834   12.3561 H   0  0  0  0  0  0  0  0  0  0  0  0
   43.5547   12.5329    9.6676 H   0  0  0  0  0  0  0  0  0  0  0  0
   47.9921   12.6015   11.1404 H   0  0  0  0  0  0  0  0  0  0  0  0
   48.1627   11.3043   12.2053 H   0  0  0  0  0  0  0  0  0  0  0  0
   45.9598   13.0128    9.8884 H   0  0  0  0  0  0  0  0  0  0  0  0
   46.3932    9.6819   12.5755 H   0  0  0  0  0  0  0  0  0  0  0  0
   41.5779   14.7930   13.8420 H   0  0  0  0  0  0  0  0  0  0  0  0
   39.0062   11.3160   13.6621 H   0  0  0  0  0  0  0  0  0  0  0  0
   37.8522   12.0795   15.6925 H   0  0  0  0  0  0  0  0  0  0  0  0
   40.3810   15.5493   15.8694 H   0  0  0  0  0  0  0  0  0  0  0  0
   38.5257   14.1912   16.8015 H   0  0  0  0  0  0  0  0  0  0  0  0
  2  1  1  0
  3  2  1  0
  4  1  1  0
  5  1  2  0
  6  1  2  0
  7  3  2  0
  8  3  1  0
  9  4  2  0
 10  4  1  0
 11 13  1  0
 12 11  1  0
 13 10  2  0
 14  9  1  0
 15  8  2  0
 16  8  1  0
 17 16  2  0
 18 15  1  0
 19 17  1  0
 11 14  2  0
 19 18  2  0
  2 20  1  0
  9 21  1  0
 10 22  1  0
 12 23  1  0
 12 24  1  0
 13 25  1  0
 14 26  1  0
 15 27  1  0
 16 28  1  0
 17 29  1  0
 18 30  1  0
 19 31  1  0
M  END
> <Uni-Dock RESULT> 
ENERGY=   -3.693  LOWER_BOUND=    7.858  UPPER_BOUND=   10.696
INTER + INTRA:          -3.693
INTER:                  -3.693
INTRA:                   0.000
UNBOUND:                 0.000

$$$$
