
     RDKit          3D

 31 32  0  0  0  0  0  0  0  0999 V2000
   44.0236    4.4443   11.5706 S   0  0  0  0  0  0  0  0  0  0  0  0
   44.9162    4.0927   10.2042 N   0  0  0  0  0  0  0  0  0  0  0  0
   44.8993    2.8260    9.6023 C   0  0  0  0  0  0  0  0  0  0  0  0
   44.5488    6.1253   11.8505 C   0  0  0  0  0  0  0  0  0  0  0  0
   44.5277    3.6629   12.6776 O   0  0  0  0  0  0  0  0  0  0  0  0
   42.6219    4.4964   11.2209 O   0  0  0  0  0  0  0  0  0  0  0  0
   44.2372    1.8870   10.0124 O   0  0  0  0  0  0  0  0  0  0  0  0
   45.7692    2.6786    8.4019 C   0  0  0  0  0  0  0  0  0  0  0  0
   43.8655    7.1726   11.2297 C   0  0  0  0  0  0  0  0  0  0  0  0
   45.6445    6.3807   12.6768 C   0  0  0  0  0  0  0  0  0  0  0  0
   45.3615    8.7650   12.2954 C   0  0  0  0  0  0  0  0  0  0  0  0
   45.8596   10.0686   12.3963 N   0  0  0  0  0  0  0  0  0  0  0  0
   46.0599    7.6998   12.8742 C   0  0  0  0  0  0  0  0  0  0  0  0
   44.2926    8.4865   11.4369 C   0  0  0  0  0  0  0  0  0  0  0  0
   46.1589    3.7693    7.6110 C   0  0  0  0  0  0  0  0  0  0  0  0
   46.2141    1.3918    8.0668 C   0  0  0  0  0  0  0  0  0  0  0  0
   47.0493    1.1991    6.9651 C   0  0  0  0  0  0  0  0  0  0  0  0
   46.9942    3.5707    6.5083 C   0  0  0  0  0  0  0  0  0  0  0  0
   47.4409    2.2888    6.1893 C   0  0  0  0  0  0  0  0  0  0  0  0
   45.6229    4.7757    9.9611 H   0  0  0  0  0  0  0  0  0  0  0  0
   43.0128    6.9779   10.5827 H   0  0  0  0  0  0  0  0  0  0  0  0
   46.1823    5.5683   13.1610 H   0  0  0  0  0  0  0  0  0  0  0  0
   46.3958   10.2395   13.2420 H   0  0  0  0  0  0  0  0  0  0  0  0
   45.1609   10.7890   12.2390 H   0  0  0  0  0  0  0  0  0  0  0  0
   46.9334    7.8916   13.4931 H   0  0  0  0  0  0  0  0  0  0  0  0
   43.7768    9.2963   10.9263 H   0  0  0  0  0  0  0  0  0  0  0  0
   45.7983    4.7742    7.8089 H   0  0  0  0  0  0  0  0  0  0  0  0
   45.9129    0.5334    8.6658 H   0  0  0  0  0  0  0  0  0  0  0  0
   47.3914    0.1983    6.7119 H   0  0  0  0  0  0  0  0  0  0  0  0
   47.2895    4.4149    5.8890 H   0  0  0  0  0  0  0  0  0  0  0  0
   48.0884    2.1367    5.3286 H   0  0  0  0  0  0  0  0  0  0  0  0
  2  1  1  0
  3  2  1  0
  4  1  1  0
  5  1  2  0
  6  1  2  0
  7  3  2  0
  8  3  1  0
  9  4  2  0
 10  4  1  0
 11 13  1  0
 12 11  1  0
 13 10  2  0
 14  9  1  0
 15  8  2  0
 16  8  1  0
 17 16  2  0
 18 15  1  0
 19 17  1  0
 11 14  2  0
 19 18  2  0
  2 20  1  0
  9 21  1  0
 10 22  1  0
 12 23  1  0
 12 24  1  0
 13 25  1  0
 14 26  1  0
 15 27  1  0
 16 28  1  0
 17 29  1  0
 18 30  1  0
 19 31  1  0
M  END
> <Uni-Dock RESULT> 
ENERGY=   -7.326  LOWER_BOUND=    0.000  UPPER_BOUND=    0.000
INTER + INTRA:          -7.326
INTER:                  -7.326
INTRA:                   0.000
UNBOUND:                 0.000

$$$$

     RDKit          3D

 31 32  0  0  0  0  0  0  0  0999 V2000
   44.0652    6.3708   11.8555 S   0  0  0  0  0  0  0  0  0  0  0  0
   45.6452    6.9030   11.9430 N   0  0  0  0  0  0  0  0  0  0  0  0
   45.9946    8.1205   12.5454 C   0  0  0  0  0  0  0  0  0  0  0  0
   44.3041    4.8664   10.9284 C   0  0  0  0  0  0  0  0  0  0  0  0
   43.3121    7.2659   11.0059 O   0  0  0  0  0  0  0  0  0  0  0  0
   43.6216    5.9831   13.1755 O   0  0  0  0  0  0  0  0  0  0  0  0
   45.1899    8.8822   13.0560 O   0  0  0  0  0  0  0  0  0  0  0  0
   47.4469    8.4516   12.5192 C   0  0  0  0  0  0  0  0  0  0  0  0
   44.5847    3.6778   11.6049 C   0  0  0  0  0  0  0  0  0  0  0  0
   44.2209    4.8901    9.5352 C   0  0  0  0  0  0  0  0  0  0  0  0
   44.6681    2.5010    9.4794 C   0  0  0  0  0  0  0  0  0  0  0  0
   44.9989    1.3541    8.7496 N   0  0  0  0  0  0  0  0  0  0  0  0
   44.4287    3.7100    8.8171 C   0  0  0  0  0  0  0  0  0  0  0  0
   44.7898    2.5056   10.8731 C   0  0  0  0  0  0  0  0  0  0  0  0
   48.4444    7.4723   12.4056 C   0  0  0  0  0  0  0  0  0  0  0  0
   47.8147    9.8018   12.6050 C   0  0  0  0  0  0  0  0  0  0  0  0
   49.1604   10.1702   12.5627 C   0  0  0  0  0  0  0  0  0  0  0  0
   49.7904    7.8463   12.3652 C   0  0  0  0  0  0  0  0  0  0  0  0
   50.1462    9.1926   12.4396 C   0  0  0  0  0  0  0  0  0  0  0  0
   46.3035    6.4032   11.3584 H   0  0  0  0  0  0  0  0  0  0  0  0
   44.6532    3.6554   12.6905 H   0  0  0  0  0  0  0  0  0  0  0  0
   44.0050    5.8139    9.0026 H   0  0  0  0  0  0  0  0  0  0  0  0
   44.5930    1.3278    7.8188 H   0  0  0  0  0  0  0  0  0  0  0  0
   44.8443    0.4865    9.2548 H   0  0  0  0  0  0  0  0  0  0  0  0
   44.3944    3.7397    7.7305 H   0  0  0  0  0  0  0  0  0  0  0  0
   45.0392    1.5891   11.4026 H   0  0  0  0  0  0  0  0  0  0  0  0
   48.2038    6.4137   12.3840 H   0  0  0  0  0  0  0  0  0  0  0  0
   47.0522   10.5735   12.7026 H   0  0  0  0  0  0  0  0  0  0  0  0
   49.4382   11.2196   12.6287 H   0  0  0  0  0  0  0  0  0  0  0  0
   50.5652    7.0868   12.2862 H   0  0  0  0  0  0  0  0  0  0  0  0
   51.1947    9.4806   12.4111 H   0  0  0  0  0  0  0  0  0  0  0  0
  2  1  1  0
  3  2  1  0
  4  1  1  0
  5  1  2  0
  6  1  2  0
  7  3  2  0
  8  3  1  0
  9  4  2  0
 10  4  1  0
 11 13  1  0
 12 11  1  0
 13 10  2  0
 14  9  1  0
 15  8  2  0
 16  8  1  0
 17 16  2  0
 18 15  1  0
 19 17  1  0
 11 14  2  0
 19 18  2  0
  2 20  1  0
  9 21  1  0
 10 22  1  0
 12 23  1  0
 12 24  1  0
 13 25  1  0
 14 26  1  0
 15 27  1  0
 16 28  1  0
 17 29  1  0
 18 30  1  0
 19 31  1  0
M  END
> <Uni-Dock RESULT> 
ENERGY=   -4.559  LOWER_BOUND=    2.781  UPPER_BOUND=    6.628
INTER + INTRA:          -4.559
INTER:                  -4.559
INTRA:                   0.000
UNBOUND:                 0.000

$$$$

     RDKit          3D

 31 32  0  0  0  0  0  0  0  0999 V2000
   44.0699    6.3743   11.8448 S   0  0  0  0  0  0  0  0  0  0  0  0
   45.6544    6.8854   11.9693 N   0  0  0  0  0  0  0  0  0  0  0  0
   46.0061    8.0965   12.5830 C   0  0  0  0  0  0  0  0  0  0  0  0
   44.3097    4.8694   10.9187 C   0  0  0  0  0  0  0  0  0  0  0  0
   43.3478    7.2816   10.9814 O   0  0  0  0  0  0  0  0  0  0  0  0
   43.5918    5.9889   13.1534 O   0  0  0  0  0  0  0  0  0  0  0  0
   45.2003    8.8673   13.0779 O   0  0  0  0  0  0  0  0  0  0  0  0
   47.4629    8.4085   12.5902 C   0  0  0  0  0  0  0  0  0  0  0  0
   44.5595    3.6754   11.5977 C   0  0  0  0  0  0  0  0  0  0  0  0
   44.2580    4.8981    9.5240 C   0  0  0  0  0  0  0  0  0  0  0  0
   44.6750    2.5035    9.4710 C   0  0  0  0  0  0  0  0  0  0  0  0
   45.0070    1.3543    8.7453 N   0  0  0  0  0  0  0  0  0  0  0  0
   44.4663    3.7173    8.8072 C   0  0  0  0  0  0  0  0  0  0  0  0
   44.7656    2.5026   10.8671 C   0  0  0  0  0  0  0  0  0  0  0  0
   48.4498    7.4165   12.4960 C   0  0  0  0  0  0  0  0  0  0  0  0
   47.8464    9.7535   12.6883 C   0  0  0  0  0  0  0  0  0  0  0  0
   49.1974   10.1042   12.6773 C   0  0  0  0  0  0  0  0  0  0  0  0
   49.8011    7.7728   12.4867 C   0  0  0  0  0  0  0  0  0  0  0  0
   50.1728    9.1141   12.5732 C   0  0  0  0  0  0  0  0  0  0  0  0
   46.3190    6.3786   11.3980 H   0  0  0  0  0  0  0  0  0  0  0  0
   44.6034    3.6491   12.6844 H   0  0  0  0  0  0  0  0  0  0  0  0
   44.0662    5.8261    8.9896 H   0  0  0  0  0  0  0  0  0  0  0  0
   44.6217    1.3359    7.8056 H   0  0  0  0  0  0  0  0  0  0  0  0
   44.8297    0.4875    9.2442 H   0  0  0  0  0  0  0  0  0  0  0  0
   44.4568    3.7505    7.7202 H   0  0  0  0  0  0  0  0  0  0  0  0
   44.9910    1.5815   11.3993 H   0  0  0  0  0  0  0  0  0  0  0  0
   48.1958    6.3612   12.4657 H   0  0  0  0  0  0  0  0  0  0  0  0
   47.0920   10.5349   12.7713 H   0  0  0  0  0  0  0  0  0  0  0  0
   49.4874   11.1497   12.7527 H   0  0  0  0  0  0  0  0  0  0  0  0
   50.5674    7.0034   12.4228 H   0  0  0  0  0  0  0  0  0  0  0  0
   51.2254    9.3884   12.5691 H   0  0  0  0  0  0  0  0  0  0  0  0
  2  1  1  0
  3  2  1  0
  4  1  1  0
  5  1  2  0
  6  1  2  0
  7  3  2  0
  8  3  1  0
  9  4  2  0
 10  4  1  0
 11 13  1  0
 12 11  1  0
 13 10  2  0
 14  9  1  0
 15  8  2  0
 16  8  1  0
 17 16  2  0
 18 15  1  0
 19 17  1  0
 11 14  2  0
 19 18  2  0
  2 20  1  0
  9 21  1  0
 10 22  1  0
 12 23  1  0
 12 24  1  0
 13 25  1  0
 14 26  1  0
 15 27  1  0
 16 28  1  0
 17 29  1  0
 18 30  1  0
 19 31  1  0
M  END
> <Uni-Dock RESULT> 
ENERGY=   -4.555  LOWER_BOUND=    2.779  UPPER_BOUND=    6.637
INTER + INTRA:          -4.555
INTER:                  -4.555
INTRA:                   0.000
UNBOUND:                 0.000

$$$$

     RDKit          3D

 31 32  0  0  0  0  0  0  0  0999 V2000
   47.0759    7.4553   13.3468 S   0  0  0  0  0  0  0  0  0  0  0  0
   46.5938    6.4907   12.0722 N   0  0  0  0  0  0  0  0  0  0  0  0
   45.5227    5.5911   12.1752 C   0  0  0  0  0  0  0  0  0  0  0  0
   48.4842    8.2573   12.6031 C   0  0  0  0  0  0  0  0  0  0  0  0
   47.5887    6.6158   14.4063 O   0  0  0  0  0  0  0  0  0  0  0  0
   46.0802    8.4794   13.5694 O   0  0  0  0  0  0  0  0  0  0  0  0
   44.8553    5.4412   13.1855 O   0  0  0  0  0  0  0  0  0  0  0  0
   45.2391    4.7938   10.9491 C   0  0  0  0  0  0  0  0  0  0  0  0
   48.3022    9.4378   11.8804 C   0  0  0  0  0  0  0  0  0  0  0  0
   49.7542    7.6937   12.7382 C   0  0  0  0  0  0  0  0  0  0  0  0
   50.6921    9.5257   11.4441 C   0  0  0  0  0  0  0  0  0  0  0  0
   51.7687   10.0756   10.7398 N   0  0  0  0  0  0  0  0  0  0  0  0
   50.8481    8.3194   12.1355 C   0  0  0  0  0  0  0  0  0  0  0  0
   49.4058   10.0522   11.2836 C   0  0  0  0  0  0  0  0  0  0  0  0
   45.6071    5.2227    9.6655 C   0  0  0  0  0  0  0  0  0  0  0  0
   44.5840    3.5637   11.1021 C   0  0  0  0  0  0  0  0  0  0  0  0
   44.3134    2.7656    9.9893 C   0  0  0  0  0  0  0  0  0  0  0  0
   45.3325    4.4206    8.5545 C   0  0  0  0  0  0  0  0  0  0  0  0
   44.6907    3.1933    8.7176 C   0  0  0  0  0  0  0  0  0  0  0  0
   47.2432    6.4410   11.2971 H   0  0  0  0  0  0  0  0  0  0  0  0
   47.3139    9.8790   11.7702 H   0  0  0  0  0  0  0  0  0  0  0  0
   49.9015    6.7725   13.2981 H   0  0  0  0  0  0  0  0  0  0  0  0
   52.6763    9.8572   11.1400 H   0  0  0  0  0  0  0  0  0  0  0  0
   51.6693   11.0678   10.5458 H   0  0  0  0  0  0  0  0  0  0  0  0
   51.8304    7.8597   12.2166 H   0  0  0  0  0  0  0  0  0  0  0  0
   49.2544   10.9542   10.6954 H   0  0  0  0  0  0  0  0  0  0  0  0
   46.0734    6.1892    9.4996 H   0  0  0  0  0  0  0  0  0  0  0  0
   44.2838    3.2208   12.0914 H   0  0  0  0  0  0  0  0  0  0  0  0
   43.8058    1.8121   10.1158 H   0  0  0  0  0  0  0  0  0  0  0  0
   45.6095    4.7566    7.5576 H   0  0  0  0  0  0  0  0  0  0  0  0
   44.4754    2.5725    7.8508 H   0  0  0  0  0  0  0  0  0  0  0  0
  2  1  1  0
  3  2  1  0
  4  1  1  0
  5  1  2  0
  6  1  2  0
  7  3  2  0
  8  3  1  0
  9  4  2  0
 10  4  1  0
 11 13  1  0
 12 11  1  0
 13 10  2  0
 14  9  1  0
 15  8  2  0
 16  8  1  0
 17 16  2  0
 18 15  1  0
 19 17  1  0
 11 14  2  0
 19 18  2  0
  2 20  1  0
  9 21  1  0
 10 22  1  0
 12 23  1  0
 12 24  1  0
 13 25  1  0
 14 26  1  0
 15 27  1  0
 16 28  1  0
 17 29  1  0
 18 30  1  0
 19 31  1  0
M  END
> <Uni-Dock RESULT> 
ENERGY=   -4.494  LOWER_BOUND=    3.536  UPPER_BOUND=    4.508
INTER + INTRA:          -4.494
INTER:                  -4.494
INTRA:                   0.000
UNBOUND:                 0.000

$$$$

     RDKit          3D

 31 32  0  0  0  0  0  0  0  0999 V2000
   47.9233    4.3310   17.3947 S   0  0  0  0  0  0  0  0  0  0  0  0
   49.4708    3.8029   17.7320 N   0  0  0  0  0  0  0  0  0  0  0  0
   49.9982    2.6252   17.1823 C   0  0  0  0  0  0  0  0  0  0  0  0
   47.8617    5.7737   18.4410 C   0  0  0  0  0  0  0  0  0  0  0  0
   46.9734    3.3854   17.9364 O   0  0  0  0  0  0  0  0  0  0  0  0
   47.8700    4.8018   16.0290 O   0  0  0  0  0  0  0  0  0  0  0  0
   49.3862    1.8985   16.4169 O   0  0  0  0  0  0  0  0  0  0  0  0
   51.3874    2.2908   17.6039 C   0  0  0  0  0  0  0  0  0  0  0  0
   48.3046    7.0021   17.9470 C   0  0  0  0  0  0  0  0  0  0  0  0
   47.3833    5.6624   19.7477 C   0  0  0  0  0  0  0  0  0  0  0  0
   47.7562    8.0425   20.0745 C   0  0  0  0  0  0  0  0  0  0  0  0
   47.8451    9.1407   20.9368 N   0  0  0  0  0  0  0  0  0  0  0  0
   47.3572    6.7946   20.5655 C   0  0  0  0  0  0  0  0  0  0  0  0
   48.2721    8.1255   18.7767 C   0  0  0  0  0  0  0  0  0  0  0  0
   52.2942    3.2594   18.0582 C   0  0  0  0  0  0  0  0  0  0  0  0
   51.7867    0.9481   17.5453 C   0  0  0  0  0  0  0  0  0  0  0  0
   53.0698    0.5757   17.9494 C   0  0  0  0  0  0  0  0  0  0  0  0
   53.5782    2.8815   18.4603 C   0  0  0  0  0  0  0  0  0  0  0  0
   53.9627    1.5420   18.4094 C   0  0  0  0  0  0  0  0  0  0  0  0
   49.9257    4.2638   18.5101 H   0  0  0  0  0  0  0  0  0  0  0  0
   48.6808    7.0927   16.9302 H   0  0  0  0  0  0  0  0  0  0  0  0
   47.0392    4.7072   20.1387 H   0  0  0  0  0  0  0  0  0  0  0  0
   47.1892    9.1090   21.7118 H   0  0  0  0  0  0  0  0  0  0  0  0
   47.8273   10.0386   20.4622 H   0  0  0  0  0  0  0  0  0  0  0  0
   47.0136    6.6966   21.5927 H   0  0  0  0  0  0  0  0  0  0  0  0
   48.6475    9.0731   18.3977 H   0  0  0  0  0  0  0  0  0  0  0  0
   52.0400    4.3150   18.0742 H   0  0  0  0  0  0  0  0  0  0  0  0
   51.0970    0.1853   17.1863 H   0  0  0  0  0  0  0  0  0  0  0  0
   53.3722   -0.4679   17.9022 H   0  0  0  0  0  0  0  0  0  0  0  0
   54.2852    3.6333   18.8043 H   0  0  0  0  0  0  0  0  0  0  0  0
   54.9638    1.2511   18.7199 H   0  0  0  0  0  0  0  0  0  0  0  0
  2  1  1  0
  3  2  1  0
  4  1  1  0
  5  1  2  0
  6  1  2  0
  7  3  2  0
  8  3  1  0
  9  4  2  0
 10  4  1  0
 11 13  1  0
 12 11  1  0
 13 10  2  0
 14  9  1  0
 15  8  2  0
 16  8  1  0
 17 16  2  0
 18 15  1  0
 19 17  1  0
 11 14  2  0
 19 18  2  0
  2 20  1  0
  9 21  1  0
 10 22  1  0
 12 23  1  0
 12 24  1  0
 13 25  1  0
 14 26  1  0
 15 27  1  0
 16 28  1  0
 17 29  1  0
 18 30  1  0
 19 31  1  0
M  END
> <Uni-Dock RESULT> 
ENERGY=   -4.457  LOWER_BOUND=    8.510  UPPER_BOUND=    9.548
INTER + INTRA:          -4.457
INTER:                  -4.457
INTRA:                   0.000
UNBOUND:                 0.000

$$$$
