
     RDKit          3D

 31 32  0  0  0  0  0  0  0  0999 V2000
   43.7828    4.7541   10.8113 S   0  0  0  0  0  0  0  0  0  0  0  0
   44.6692    4.2608    9.4933 N   0  0  0  0  0  0  0  0  0  0  0  0
   45.4057    3.0735    9.4211 C   0  0  0  0  0  0  0  0  0  0  0  0
   45.0263    5.1005   12.0270 C   0  0  0  0  0  0  0  0  0  0  0  0
   42.9451    3.6705   11.2709 O   0  0  0  0  0  0  0  0  0  0  0  0
   43.1998    6.0201   10.4119 O   0  0  0  0  0  0  0  0  0  0  0  0
   45.5111    2.2863   10.3479 O   0  0  0  0  0  0  0  0  0  0  0  0
   46.0891    2.8140    8.1225 C   0  0  0  0  0  0  0  0  0  0  0  0
   45.5878    6.3769   12.1016 C   0  0  0  0  0  0  0  0  0  0  0  0
   45.3829    4.1185   12.9520 C   0  0  0  0  0  0  0  0  0  0  0  0
   46.9673    5.6560   13.9699 C   0  0  0  0  0  0  0  0  0  0  0  0
   47.8339    5.9727   15.0212 N   0  0  0  0  0  0  0  0  0  0  0  0
   46.3410    4.4064   13.9277 C   0  0  0  0  0  0  0  0  0  0  0  0
   46.5441    6.6518   13.0835 C   0  0  0  0  0  0  0  0  0  0  0  0
   46.4054    3.8316    7.2108 C   0  0  0  0  0  0  0  0  0  0  0  0
   46.4194    1.4868    7.8112 C   0  0  0  0  0  0  0  0  0  0  0  0
   47.0448    1.1790    6.6017 C   0  0  0  0  0  0  0  0  0  0  0  0
   47.0327    3.5183    6.0015 C   0  0  0  0  0  0  0  0  0  0  0  0
   47.3482    2.1946    5.6972 C   0  0  0  0  0  0  0  0  0  0  0  0
   44.5146    4.8590    8.6912 H   0  0  0  0  0  0  0  0  0  0  0  0
   45.2767    7.1654   11.4208 H   0  0  0  0  0  0  0  0  0  0  0  0
   44.9211    3.1333   12.9229 H   0  0  0  0  0  0  0  0  0  0  0  0
   48.4664    6.7408   14.8216 H   0  0  0  0  0  0  0  0  0  0  0  0
   48.3133    5.1695   15.4163 H   0  0  0  0  0  0  0  0  0  0  0  0
   46.5936    3.6413   14.6576 H   0  0  0  0  0  0  0  0  0  0  0  0
   46.9534    7.6562   13.1562 H   0  0  0  0  0  0  0  0  0  0  0  0
   46.2062    4.8765    7.4271 H   0  0  0  0  0  0  0  0  0  0  0  0
   46.1860    0.6842    8.5096 H   0  0  0  0  0  0  0  0  0  0  0  0
   47.2948    0.1470    6.3669 H   0  0  0  0  0  0  0  0  0  0  0  0
   47.2837    4.3084    5.2971 H   0  0  0  0  0  0  0  0  0  0  0  0
   47.8373    1.9543    4.7558 H   0  0  0  0  0  0  0  0  0  0  0  0
  2  1  1  0
  3  2  1  0
  4  1  1  0
  5  1  2  0
  6  1  2  0
  7  3  2  0
  8  3  1  0
  9  4  2  0
 10  4  1  0
 11 13  1  0
 12 11  1  0
 13 10  2  0
 14  9  1  0
 15  8  2  0
 16  8  1  0
 17 16  2  0
 18 15  1  0
 19 17  1  0
 11 14  2  0
 19 18  2  0
  2 20  1  0
  9 21  1  0
 10 22  1  0
 12 23  1  0
 12 24  1  0
 13 25  1  0
 14 26  1  0
 15 27  1  0
 16 28  1  0
 17 29  1  0
 18 30  1  0
 19 31  1  0
M  END
> <Uni-Dock RESULT> 
ENERGY=   -6.139  LOWER_BOUND=    0.000  UPPER_BOUND=    0.000
INTER + INTRA:          -6.139
INTER:                  -6.139
INTRA:                   0.000
UNBOUND:                 0.000

$$$$

     RDKit          3D

 31 32  0  0  0  0  0  0  0  0999 V2000
   43.1775   11.0645   10.8922 S   0  0  0  0  0  0  0  0  0  0  0  0
   44.0167    9.7481   11.4658 N   0  0  0  0  0  0  0  0  0  0  0  0
   45.3498    9.7694   11.8895 C   0  0  0  0  0  0  0  0  0  0  0  0
   43.9759   11.4098    9.3470 C   0  0  0  0  0  0  0  0  0  0  0  0
   43.3522   12.1844   11.7881 O   0  0  0  0  0  0  0  0  0  0  0  0
   41.8526   10.5571   10.5938 O   0  0  0  0  0  0  0  0  0  0  0  0
   46.0588   10.7618   11.8400 O   0  0  0  0  0  0  0  0  0  0  0  0
   45.8848    8.4786   12.4074 C   0  0  0  0  0  0  0  0  0  0  0  0
   43.5263   10.7895    8.1794 C   0  0  0  0  0  0  0  0  0  0  0  0
   44.9995   12.3566    9.2927 C   0  0  0  0  0  0  0  0  0  0  0  0
   45.2167   11.9813    6.9007 C   0  0  0  0  0  0  0  0  0  0  0  0
   45.7437   12.3658    5.6633 N   0  0  0  0  0  0  0  0  0  0  0  0
   45.6044   12.6480    8.0672 C   0  0  0  0  0  0  0  0  0  0  0  0
   44.1395   11.0911    6.9599 C   0  0  0  0  0  0  0  0  0  0  0  0
   45.3278    7.2349   12.0763 C   0  0  0  0  0  0  0  0  0  0  0  0
   46.9921    8.5275   13.2670 C   0  0  0  0  0  0  0  0  0  0  0  0
   47.5271    7.3526   13.7983 C   0  0  0  0  0  0  0  0  0  0  0  0
   45.8680    6.0612   12.6100 C   0  0  0  0  0  0  0  0  0  0  0  0
   46.9629    6.1213   13.4714 C   0  0  0  0  0  0  0  0  0  0  0  0
   43.4134    8.9455   11.5961 H   0  0  0  0  0  0  0  0  0  0  0  0
   42.6931   10.0916    8.2022 H   0  0  0  0  0  0  0  0  0  0  0  0
   45.3288   12.8716   10.1934 H   0  0  0  0  0  0  0  0  0  0  0  0
   45.6615   11.6599    4.9389 H   0  0  0  0  0  0  0  0  0  0  0  0
   46.6791   12.7574    5.7174 H   0  0  0  0  0  0  0  0  0  0  0  0
   46.3846   13.4044    8.0332 H   0  0  0  0  0  0  0  0  0  0  0  0
   43.7636   10.6290    6.0506 H   0  0  0  0  0  0  0  0  0  0  0  0
   44.4972    7.1457   11.3833 H   0  0  0  0  0  0  0  0  0  0  0  0
   47.4409    9.4842   13.5310 H   0  0  0  0  0  0  0  0  0  0  0  0
   48.3839    7.3997   14.4664 H   0  0  0  0  0  0  0  0  0  0  0  0
   45.4398    5.0960   12.3483 H   0  0  0  0  0  0  0  0  0  0  0  0
   47.3815    5.2060   13.8841 H   0  0  0  0  0  0  0  0  0  0  0  0
  2  1  1  0
  3  2  1  0
  4  1  1  0
  5  1  2  0
  6  1  2  0
  7  3  2  0
  8  3  1  0
  9  4  2  0
 10  4  1  0
 11 13  1  0
 12 11  1  0
 13 10  2  0
 14  9  1  0
 15  8  2  0
 16  8  1  0
 17 16  2  0
 18 15  1  0
 19 17  1  0
 11 14  2  0
 19 18  2  0
  2 20  1  0
  9 21  1  0
 10 22  1  0
 12 23  1  0
 12 24  1  0
 13 25  1  0
 14 26  1  0
 15 27  1  0
 16 28  1  0
 17 29  1  0
 18 30  1  0
 19 31  1  0
M  END
> <Uni-Dock RESULT> 
ENERGY=   -4.118  LOWER_BOUND=    5.523  UPPER_BOUND=    8.078
INTER + INTRA:          -4.118
INTER:                  -4.118
INTRA:                   0.000
UNBOUND:                 0.000

$$$$

     RDKit          3D

 31 32  0  0  0  0  0  0  0  0999 V2000
   43.5656   11.2480   11.2531 S   0  0  0  0  0  0  0  0  0  0  0  0
   44.2437    9.8183   11.7653 N   0  0  0  0  0  0  0  0  0  0  0  0
   45.6098    9.6122   11.9852 C   0  0  0  0  0  0  0  0  0  0  0  0
   44.1619   11.4045    9.5906 C   0  0  0  0  0  0  0  0  0  0  0  0
   44.0678   12.3417   12.0524 O   0  0  0  0  0  0  0  0  0  0  0  0
   42.1429   10.9778   11.1817 O   0  0  0  0  0  0  0  0  0  0  0  0
   46.4630   10.4602   11.7785 O   0  0  0  0  0  0  0  0  0  0  0  0
   45.9878    8.2605   12.4861 C   0  0  0  0  0  0  0  0  0  0  0  0
   43.4364   10.8441    8.5371 C   0  0  0  0  0  0  0  0  0  0  0  0
   45.3125   12.1514    9.3350 C   0  0  0  0  0  0  0  0  0  0  0  0
   45.0879   11.6808    6.9605 C   0  0  0  0  0  0  0  0  0  0  0  0
   45.4748   11.9323    5.6400 N   0  0  0  0  0  0  0  0  0  0  0  0
   45.7611   12.2977    8.0197 C   0  0  0  0  0  0  0  0  0  0  0  0
   43.8957   10.9992    7.2260 C   0  0  0  0  0  0  0  0  0  0  0  0
   45.1800    7.1281   12.3079 C   0  0  0  0  0  0  0  0  0  0  0  0
   47.2067    8.1333   13.1684 C   0  0  0  0  0  0  0  0  0  0  0  0
   47.6068    6.8961   13.6764 C   0  0  0  0  0  0  0  0  0  0  0  0
   45.5857    5.8912   12.8173 C   0  0  0  0  0  0  0  0  0  0  0  0
   46.7947    5.7773   13.5026 C   0  0  0  0  0  0  0  0  0  0  0  0
   43.5385    9.1402   12.0261 H   0  0  0  0  0  0  0  0  0  0  0  0
   42.5090   10.3071    8.7202 H   0  0  0  0  0  0  0  0  0  0  0  0
   45.8615   12.6227   10.1482 H   0  0  0  0  0  0  0  0  0  0  0  0
   45.1606   11.2337    4.9745 H   0  0  0  0  0  0  0  0  0  0  0  0
   46.4606   12.1517    5.5341 H   0  0  0  0  0  0  0  0  0  0  0  0
   46.6452   12.9014    7.8303 H   0  0  0  0  0  0  0  0  0  0  0  0
   43.3091   10.5880    6.4083 H   0  0  0  0  0  0  0  0  0  0  0  0
   44.2491    7.1706   11.7512 H   0  0  0  0  0  0  0  0  0  0  0  0
   47.8493    9.0010   13.3117 H   0  0  0  0  0  0  0  0  0  0  0  0
   48.5520    6.8068   14.2067 H   0  0  0  0  0  0  0  0  0  0  0  0
   44.9620    5.0116   12.6736 H   0  0  0  0  0  0  0  0  0  0  0  0
   47.1080    4.8131   13.8968 H   0  0  0  0  0  0  0  0  0  0  0  0
  2  1  1  0
  3  2  1  0
  4  1  1  0
  5  1  2  0
  6  1  2  0
  7  3  2  0
  8  3  1  0
  9  4  2  0
 10  4  1  0
 11 13  1  0
 12 11  1  0
 13 10  2  0
 14  9  1  0
 15  8  2  0
 16  8  1  0
 17 16  2  0
 18 15  1  0
 19 17  1  0
 11 14  2  0
 19 18  2  0
  2 20  1  0
  9 21  1  0
 10 22  1  0
 12 23  1  0
 12 24  1  0
 13 25  1  0
 14 26  1  0
 15 27  1  0
 16 28  1  0
 17 29  1  0
 18 30  1  0
 19 31  1  0
M  END
> <Uni-Dock RESULT> 
ENERGY=   -4.087  LOWER_BOUND=    5.589  UPPER_BOUND=    7.981
INTER + INTRA:          -4.087
INTER:                  -4.087
INTRA:                   0.000
UNBOUND:                 0.000

$$$$

     RDKit          3D

 31 32  0  0  0  0  0  0  0  0999 V2000
   49.9725    6.9180   15.9715 S   0  0  0  0  0  0  0  0  0  0  0  0
   49.2533    8.1658   16.8035 N   0  0  0  0  0  0  0  0  0  0  0  0
   48.3311    8.0094   17.8438 C   0  0  0  0  0  0  0  0  0  0  0  0
   48.6232    6.2044   15.0690 C   0  0  0  0  0  0  0  0  0  0  0  0
   50.4984    5.9474   16.9036 O   0  0  0  0  0  0  0  0  0  0  0  0
   50.8435    7.5673   15.0114 O   0  0  0  0  0  0  0  0  0  0  0  0
   47.9194    6.9254   18.2247 O   0  0  0  0  0  0  0  0  0  0  0  0
   47.8487    9.2699   18.4756 C   0  0  0  0  0  0  0  0  0  0  0  0
   48.3072    6.6859   13.7968 C   0  0  0  0  0  0  0  0  0  0  0  0
   47.9325    5.1155   15.6020 C   0  0  0  0  0  0  0  0  0  0  0  0
   46.5121    5.0541   13.6300 C   0  0  0  0  0  0  0  0  0  0  0  0
   45.5503    4.3948   12.8574 N   0  0  0  0  0  0  0  0  0  0  0  0
   46.8901    4.5369   14.8730 C   0  0  0  0  0  0  0  0  0  0  0  0
   47.2630    6.0970   13.0778 C   0  0  0  0  0  0  0  0  0  0  0  0
   47.8933   10.5130   17.8278 C   0  0  0  0  0  0  0  0  0  0  0  0
   47.3345    9.1932   19.7783 C   0  0  0  0  0  0  0  0  0  0  0  0
   46.8836   10.3429   20.4292 C   0  0  0  0  0  0  0  0  0  0  0  0
   47.4394   11.6611   18.4834 C   0  0  0  0  0  0  0  0  0  0  0  0
   46.9391   11.5757   19.7821 C   0  0  0  0  0  0  0  0  0  0  0  0
   49.6552    9.0620   16.5579 H   0  0  0  0  0  0  0  0  0  0  0  0
   48.8749    7.4979   13.3492 H   0  0  0  0  0  0  0  0  0  0  0  0
   48.1990    4.7112   16.5768 H   0  0  0  0  0  0  0  0  0  0  0  0
   45.1181    4.9760   12.1466 H   0  0  0  0  0  0  0  0  0  0  0  0
   44.8670    3.8781   13.4027 H   0  0  0  0  0  0  0  0  0  0  0  0
   46.3747    3.6742   15.2879 H   0  0  0  0  0  0  0  0  0  0  0  0
   47.0434    6.4555   12.0753 H   0  0  0  0  0  0  0  0  0  0  0  0
   48.2444   10.6137   16.8056 H   0  0  0  0  0  0  0  0  0  0  0  0
   47.2873    8.2355   20.2949 H   0  0  0  0  0  0  0  0  0  0  0  0
   46.4891   10.2751   21.4404 H   0  0  0  0  0  0  0  0  0  0  0  0
   47.4683   12.6243   17.9786 H   0  0  0  0  0  0  0  0  0  0  0  0
   46.5856   12.4709   20.2891 H   0  0  0  0  0  0  0  0  0  0  0  0
  2  1  1  0
  3  2  1  0
  4  1  1  0
  5  1  2  0
  6  1  2  0
  7  3  2  0
  8  3  1  0
  9  4  2  0
 10  4  1  0
 11 13  1  0
 12 11  1  0
 13 10  2  0
 14  9  1  0
 15  8  2  0
 16  8  1  0
 17 16  2  0
 18 15  1  0
 19 17  1  0
 11 14  2  0
 19 18  2  0
  2 20  1  0
  9 21  1  0
 10 22  1  0
 12 23  1  0
 12 24  1  0
 13 25  1  0
 14 26  1  0
 15 27  1  0
 16 28  1  0
 17 29  1  0
 18 30  1  0
 19 31  1  0
M  END
> <Uni-Dock RESULT> 
ENERGY=   -3.883  LOWER_BOUND=    6.005  UPPER_BOUND=    9.976
INTER + INTRA:          -3.883
INTER:                  -3.883
INTRA:                   0.000
UNBOUND:                 0.000

$$$$

     RDKit          3D

 31 32  0  0  0  0  0  0  0  0999 V2000
   43.7419   10.0678   11.2401 S   0  0  0  0  0  0  0  0  0  0  0  0
   42.4267   10.7935   11.9542 N   0  0  0  0  0  0  0  0  0  0  0  0
   41.1415   10.8439   11.4037 C   0  0  0  0  0  0  0  0  0  0  0  0
   44.0597   11.1019    9.8352 C   0  0  0  0  0  0  0  0  0  0  0  0
   43.3859    8.7407   10.7936 O   0  0  0  0  0  0  0  0  0  0  0  0
   44.8282   10.2643   12.1799 O   0  0  0  0  0  0  0  0  0  0  0  0
   40.8585   10.3919   10.3058 O   0  0  0  0  0  0  0  0  0  0  0  0
   40.1044   11.5093   12.2417 C   0  0  0  0  0  0  0  0  0  0  0  0
   44.9105   12.2022    9.9613 C   0  0  0  0  0  0  0  0  0  0  0  0
   43.5192   10.7679    8.5929 C   0  0  0  0  0  0  0  0  0  0  0  0
   44.5876   12.7161    7.6065 C   0  0  0  0  0  0  0  0  0  0  0  0
   44.9581   13.4410    6.4691 N   0  0  0  0  0  0  0  0  0  0  0  0
   43.7980   11.5686    7.4822 C   0  0  0  0  0  0  0  0  0  0  0  0
   45.1820   12.9940    8.8417 C   0  0  0  0  0  0  0  0  0  0  0  0
   40.4163   12.4327   13.2501 C   0  0  0  0  0  0  0  0  0  0  0  0
   38.7615   11.1829   12.0018 C   0  0  0  0  0  0  0  0  0  0  0  0
   37.7462   11.7604   12.7662 C   0  0  0  0  0  0  0  0  0  0  0  0
   39.3958   13.0092   14.0119 C   0  0  0  0  0  0  0  0  0  0  0  0
   38.0646   12.6707   13.7720 C   0  0  0  0  0  0  0  0  0  0  0  0
   42.6289   11.0893   12.9011 H   0  0  0  0  0  0  0  0  0  0  0  0
   45.3809   12.4393   10.9123 H   0  0  0  0  0  0  0  0  0  0  0  0
   42.8859    9.8897    8.4801 H   0  0  0  0  0  0  0  0  0  0  0  0
   45.2496   14.3941    6.6601 H   0  0  0  0  0  0  0  0  0  0  0  0
   44.2870   13.3867    5.7090 H   0  0  0  0  0  0  0  0  0  0  0  0
   43.3906   11.2853    6.5148 H   0  0  0  0  0  0  0  0  0  0  0  0
   45.8703   13.8298    8.9398 H   0  0  0  0  0  0  0  0  0  0  0  0
   41.4373   12.7463   13.4435 H   0  0  0  0  0  0  0  0  0  0  0  0
   38.5003   10.4717   11.2193 H   0  0  0  0  0  0  0  0  0  0  0  0
   36.7077   11.4996   12.5755 H   0  0  0  0  0  0  0  0  0  0  0  0
   39.6374   13.7301   14.7899 H   0  0  0  0  0  0  0  0  0  0  0  0
   37.2728   13.1219   14.3658 H   0  0  0  0  0  0  0  0  0  0  0  0
  2  1  1  0
  3  2  1  0
  4  1  1  0
  5  1  2  0
  6  1  2  0
  7  3  2  0
  8  3  1  0
  9  4  2  0
 10  4  1  0
 11 13  1  0
 12 11  1  0
 13 10  2  0
 14  9  1  0
 15  8  2  0
 16  8  1  0
 17 16  2  0
 18 15  1  0
 19 17  1  0
 11 14  2  0
 19 18  2  0
  2 20  1  0
  9 21  1  0
 10 22  1  0
 12 23  1  0
 12 24  1  0
 13 25  1  0
 14 26  1  0
 15 27  1  0
 16 28  1  0
 17 29  1  0
 18 30  1  0
 19 31  1  0
M  END
> <Uni-Dock RESULT> 
ENERGY=   -3.852  LOWER_BOUND=    7.532  UPPER_BOUND=   10.252
INTER + INTRA:          -3.852
INTER:                  -3.852
INTRA:                   0.000
UNBOUND:                 0.000

$$$$

     RDKit          3D

 31 32  0  0  0  0  0  0  0  0999 V2000
   44.7924   12.2379   11.2739 S   0  0  0  0  0  0  0  0  0  0  0  0
   44.9498   12.2267    9.6182 N   0  0  0  0  0  0  0  0  0  0  0  0
   44.2671   11.3644    8.7536 C   0  0  0  0  0  0  0  0  0  0  0  0
   45.5178   10.6941   11.7585 C   0  0  0  0  0  0  0  0  0  0  0  0
   43.3928   12.2487   11.6323 O   0  0  0  0  0  0  0  0  0  0  0  0
   45.6778   13.2948   11.7224 O   0  0  0  0  0  0  0  0  0  0  0  0
   43.5070   10.4885    9.1340 O   0  0  0  0  0  0  0  0  0  0  0  0
   44.5312   11.5627    7.3005 C   0  0  0  0  0  0  0  0  0  0  0  0
   46.8862   10.6244   12.0282 C   0  0  0  0  0  0  0  0  0  0  0  0
   44.7055    9.5745   11.9416 C   0  0  0  0  0  0  0  0  0  0  0  0
   46.6572    8.2618   12.5563 C   0  0  0  0  0  0  0  0  0  0  0  0
   47.2018    7.0861   13.0832 N   0  0  0  0  0  0  0  0  0  0  0  0
   45.2776    8.3680   12.3537 C   0  0  0  0  0  0  0  0  0  0  0  0
   47.4454    9.4115   12.4411 C   0  0  0  0  0  0  0  0  0  0  0  0
   45.6881   12.1887    6.8144 C   0  0  0  0  0  0  0  0  0  0  0  0
   43.5673   11.1014    6.3918 C   0  0  0  0  0  0  0  0  0  0  0  0
   43.7503   11.2742    5.0187 C   0  0  0  0  0  0  0  0  0  0  0  0
   45.8672   12.3582    5.4384 C   0  0  0  0  0  0  0  0  0  0  0  0
   44.8985   11.9047    4.5438 C   0  0  0  0  0  0  0  0  0  0  0  0
   45.5054   13.0062    9.2883 H   0  0  0  0  0  0  0  0  0  0  0  0
   47.5188   11.5044   11.9420 H   0  0  0  0  0  0  0  0  0  0  0  0
   43.6322    9.6322   11.7698 H   0  0  0  0  0  0  0  0  0  0  0  0
   48.1954    6.9739   12.9098 H   0  0  0  0  0  0  0  0  0  0  0  0
   46.6728    6.2493   12.8571 H   0  0  0  0  0  0  0  0  0  0  0  0
   44.6316    7.5087   12.5159 H   0  0  0  0  0  0  0  0  0  0  0  0
   48.5051    9.3722   12.6802 H   0  0  0  0  0  0  0  0  0  0  0  0
   46.4792   12.5244    7.4775 H   0  0  0  0  0  0  0  0  0  0  0  0
   42.6650   10.6083    6.7511 H   0  0  0  0  0  0  0  0  0  0  0  0
   42.9967   10.9162    4.3212 H   0  0  0  0  0  0  0  0  0  0  0  0
   46.7676   12.8382    5.0611 H   0  0  0  0  0  0  0  0  0  0  0  0
   45.0415   12.0372    3.4736 H   0  0  0  0  0  0  0  0  0  0  0  0
  2  1  1  0
  3  2  1  0
  4  1  1  0
  5  1  2  0
  6  1  2  0
  7  3  2  0
  8  3  1  0
  9  4  2  0
 10  4  1  0
 11 13  1  0
 12 11  1  0
 13 10  2  0
 14  9  1  0
 15  8  2  0
 16  8  1  0
 17 16  2  0
 18 15  1  0
 19 17  1  0
 11 14  2  0
 19 18  2  0
  2 20  1  0
  9 21  1  0
 10 22  1  0
 12 23  1  0
 12 24  1  0
 13 25  1  0
 14 26  1  0
 15 27  1  0
 16 28  1  0
 17 29  1  0
 18 30  1  0
 19 31  1  0
M  END
> <Uni-Dock RESULT> 
ENERGY=   -3.846  LOWER_BOUND=    6.237  UPPER_BOUND=    7.516
INTER + INTRA:          -3.846
INTER:                  -3.846
INTRA:                   0.000
UNBOUND:                 0.000

$$$$

     RDKit          3D

 31 32  0  0  0  0  0  0  0  0999 V2000
   49.3076    8.5637   14.8720 S   0  0  0  0  0  0  0  0  0  0  0  0
   48.7470    8.8592   16.4097 N   0  0  0  0  0  0  0  0  0  0  0  0
   48.3995    7.8735   17.3397 C   0  0  0  0  0  0  0  0  0  0  0  0
   47.8963    7.8675   14.0549 C   0  0  0  0  0  0  0  0  0  0  0  0
   50.3710    7.5867   14.9181 O   0  0  0  0  0  0  0  0  0  0  0  0
   49.5359    9.8775   14.3028 O   0  0  0  0  0  0  0  0  0  0  0  0
   48.4305    6.6772   17.0998 O   0  0  0  0  0  0  0  0  0  0  0  0
   47.9619    8.3695   18.6751 C   0  0  0  0  0  0  0  0  0  0  0  0
   46.9833    8.7055   13.4112 C   0  0  0  0  0  0  0  0  0  0  0  0
   47.7452    6.4817   13.9939 C   0  0  0  0  0  0  0  0  0  0  0  0
   45.6842    6.7640   12.7359 C   0  0  0  0  0  0  0  0  0  0  0  0
   44.6572    6.2095   11.9649 N   0  0  0  0  0  0  0  0  0  0  0  0
   46.6476    5.9370   13.3220 C   0  0  0  0  0  0  0  0  0  0  0  0
   45.8904    8.1474   12.7416 C   0  0  0  0  0  0  0  0  0  0  0  0
   47.4613    9.6632   18.8812 C   0  0  0  0  0  0  0  0  0  0  0  0
   48.0665    7.4925   19.7647 C   0  0  0  0  0  0  0  0  0  0  0  0
   47.6887    7.9058   21.0436 C   0  0  0  0  0  0  0  0  0  0  0  0
   47.0832   10.0717   20.1635 C   0  0  0  0  0  0  0  0  0  0  0  0
   47.2002    9.1955   21.2419 C   0  0  0  0  0  0  0  0  0  0  0  0
   48.8046    9.8414   16.6483 H   0  0  0  0  0  0  0  0  0  0  0  0
   47.1215    9.7838   13.4057 H   0  0  0  0  0  0  0  0  0  0  0  0
   48.4740    5.8218   14.4612 H   0  0  0  0  0  0  0  0  0  0  0  0
   43.8534    6.8172   11.8443 H   0  0  0  0  0  0  0  0  0  0  0  0
   44.3932    5.2698   12.2446 H   0  0  0  0  0  0  0  0  0  0  0  0
   46.5529    4.8557   13.2608 H   0  0  0  0  0  0  0  0  0  0  0  0
   45.2015    8.8035   12.2156 H   0  0  0  0  0  0  0  0  0  0  0  0
   47.3241   10.3615   18.0616 H   0  0  0  0  0  0  0  0  0  0  0  0
   48.4482    6.4824   19.6224 H   0  0  0  0  0  0  0  0  0  0  0  0
   47.7758    7.2204   21.8835 H   0  0  0  0  0  0  0  0  0  0  0  0
   46.6890   11.0731   20.3223 H   0  0  0  0  0  0  0  0  0  0  0  0
   46.9041    9.5162   22.2383 H   0  0  0  0  0  0  0  0  0  0  0  0
  2  1  1  0
  3  2  1  0
  4  1  1  0
  5  1  2  0
  6  1  2  0
  7  3  2  0
  8  3  1  0
  9  4  2  0
 10  4  1  0
 11 13  1  0
 12 11  1  0
 13 10  2  0
 14  9  1  0
 15  8  2  0
 16  8  1  0
 17 16  2  0
 18 15  1  0
 19 17  1  0
 11 14  2  0
 19 18  2  0
  2 20  1  0
  9 21  1  0
 10 22  1  0
 12 23  1  0
 12 24  1  0
 13 25  1  0
 14 26  1  0
 15 27  1  0
 16 28  1  0
 17 29  1  0
 18 30  1  0
 19 31  1  0
M  END
> <Uni-Dock RESULT> 
ENERGY=   -3.628  LOWER_BOUND=    5.901  UPPER_BOUND=    9.806
INTER + INTRA:          -3.628
INTER:                  -3.628
INTRA:                   0.000
UNBOUND:                 0.000

$$$$

     RDKit          3D

 31 32  0  0  0  0  0  0  0  0999 V2000
   50.3108    8.4532   15.6013 S   0  0  0  0  0  0  0  0  0  0  0  0
   49.4165    9.4088   16.6277 N   0  0  0  0  0  0  0  0  0  0  0  0
   48.4378    8.9401   17.5106 C   0  0  0  0  0  0  0  0  0  0  0  0
   49.1067    7.8784   14.4336 C   0  0  0  0  0  0  0  0  0  0  0  0
   50.8547    7.3295   16.3285 O   0  0  0  0  0  0  0  0  0  0  0  0
   51.1861    9.3762   14.9055 O   0  0  0  0  0  0  0  0  0  0  0  0
   48.1031    7.7689   17.5887 O   0  0  0  0  0  0  0  0  0  0  0  0
   47.7924    9.9734   18.3687 C   0  0  0  0  0  0  0  0  0  0  0  0
   48.8429    8.6255   13.2836 C   0  0  0  0  0  0  0  0  0  0  0  0
   48.4839    6.6454   14.6311 C   0  0  0  0  0  0  0  0  0  0  0  0
   47.2277    6.9526   12.5726 C   0  0  0  0  0  0  0  0  0  0  0  0
   46.3932    6.4279   11.5801 N   0  0  0  0  0  0  0  0  0  0  0  0
   47.5586    6.1824   13.6919 C   0  0  0  0  0  0  0  0  0  0  0  0
   47.9159    8.1501   12.3516 C   0  0  0  0  0  0  0  0  0  0  0  0
   47.7678   11.3351   18.0343 C   0  0  0  0  0  0  0  0  0  0  0  0
   47.1915    9.5493   19.5631 C   0  0  0  0  0  0  0  0  0  0  0  0
   46.5863   10.4731   20.4170 C   0  0  0  0  0  0  0  0  0  0  0  0
   47.1594   12.2561   18.8921 C   0  0  0  0  0  0  0  0  0  0  0  0
   46.5734   11.8255   20.0819 C   0  0  0  0  0  0  0  0  0  0  0  0
   49.7492   10.3650   16.6362 H   0  0  0  0  0  0  0  0  0  0  0  0
   49.3632    9.5609   13.0928 H   0  0  0  0  0  0  0  0  0  0  0  0
   48.7136    6.0405   15.5064 H   0  0  0  0  0  0  0  0  0  0  0  0
   45.9625    7.1287   10.9858 H   0  0  0  0  0  0  0  0  0  0  0  0
   45.7228    5.7466   11.9230 H   0  0  0  0  0  0  0  0  0  0  0  0
   47.0974    5.2097   13.8442 H   0  0  0  0  0  0  0  0  0  0  0  0
   47.7392    8.7208   11.4434 H   0  0  0  0  0  0  0  0  0  0  0  0
   48.1834   11.7033   17.1016 H   0  0  0  0  0  0  0  0  0  0  0  0
   47.1965    8.4949   19.8365 H   0  0  0  0  0  0  0  0  0  0  0  0
   46.1253   10.1361   21.3425 H   0  0  0  0  0  0  0  0  0  0  0  0
   47.1349   13.3115   18.6297 H   0  0  0  0  0  0  0  0  0  0  0  0
   46.0998   12.5446   20.7467 H   0  0  0  0  0  0  0  0  0  0  0  0
  2  1  1  0
  3  2  1  0
  4  1  1  0
  5  1  2  0
  6  1  2  0
  7  3  2  0
  8  3  1  0
  9  4  2  0
 10  4  1  0
 11 13  1  0
 12 11  1  0
 13 10  2  0
 14  9  1  0
 15  8  2  0
 16  8  1  0
 17 16  2  0
 18 15  1  0
 19 17  1  0
 11 14  2  0
 19 18  2  0
  2 20  1  0
  9 21  1  0
 10 22  1  0
 12 23  1  0
 12 24  1  0
 13 25  1  0
 14 26  1  0
 15 27  1  0
 16 28  1  0
 17 29  1  0
 18 30  1  0
 19 31  1  0
M  END
> <Uni-Dock RESULT> 
ENERGY=   -3.623  LOWER_BOUND=    6.346  UPPER_BOUND=   10.326
INTER + INTRA:          -3.623
INTER:                  -3.623
INTRA:                   0.000
UNBOUND:                 0.000

$$$$

     RDKit          3D

 31 32  0  0  0  0  0  0  0  0999 V2000
   49.7255    6.7610   15.9018 S   0  0  0  0  0  0  0  0  0  0  0  0
   48.5354    6.1312   14.9256 N   0  0  0  0  0  0  0  0  0  0  0  0
   47.7897    6.8638   13.9958 C   0  0  0  0  0  0  0  0  0  0  0  0
   48.8248    7.8155   17.0068 C   0  0  0  0  0  0  0  0  0  0  0  0
   50.6378    7.5548   15.1112 O   0  0  0  0  0  0  0  0  0  0  0  0
   50.2071    5.6318   16.6733 O   0  0  0  0  0  0  0  0  0  0  0  0
   47.9069    8.0679   13.8339 O   0  0  0  0  0  0  0  0  0  0  0  0
   46.8039    6.0822   13.1971 C   0  0  0  0  0  0  0  0  0  0  0  0
   48.3145    7.2976   18.1991 C   0  0  0  0  0  0  0  0  0  0  0  0
   48.6958    9.1741   16.7163 C   0  0  0  0  0  0  0  0  0  0  0  0
   47.4302    9.4903   18.7678 C   0  0  0  0  0  0  0  0  0  0  0  0
   46.8537   10.3508   19.7078 N   0  0  0  0  0  0  0  0  0  0  0  0
   48.0117   10.0071   17.6057 C   0  0  0  0  0  0  0  0  0  0  0  0
   47.6334    8.1422   19.0805 C   0  0  0  0  0  0  0  0  0  0  0  0
   46.2846    4.8505   13.6211 C   0  0  0  0  0  0  0  0  0  0  0  0
   46.3911    6.6138   11.9665 C   0  0  0  0  0  0  0  0  0  0  0  0
   45.4829    5.9194   11.1654 C   0  0  0  0  0  0  0  0  0  0  0  0
   45.3745    4.1596   12.8158 C   0  0  0  0  0  0  0  0  0  0  0  0
   44.9779    4.6920   11.5896 C   0  0  0  0  0  0  0  0  0  0  0  0
   48.4944    5.1214   14.9868 H   0  0  0  0  0  0  0  0  0  0  0  0
   48.4573    6.2522   18.4611 H   0  0  0  0  0  0  0  0  0  0  0  0
   49.1243    9.5914   15.8069 H   0  0  0  0  0  0  0  0  0  0  0  0
   46.2008    9.8990   20.3398 H   0  0  0  0  0  0  0  0  0  0  0  0
   46.4771   11.2050   19.3082 H   0  0  0  0  0  0  0  0  0  0  0  0
   47.9378   11.0681   17.3806 H   0  0  0  0  0  0  0  0  0  0  0  0
   47.2668    7.7396   20.0214 H   0  0  0  0  0  0  0  0  0  0  0  0
   46.5435    4.4206   14.5836 H   0  0  0  0  0  0  0  0  0  0  0  0
   46.7800    7.5717   11.6235 H   0  0  0  0  0  0  0  0  0  0  0  0
   45.1703    6.3373   10.2113 H   0  0  0  0  0  0  0  0  0  0  0  0
   44.9669    3.2071   13.1475 H   0  0  0  0  0  0  0  0  0  0  0  0
   44.2686    4.1524   10.9658 H   0  0  0  0  0  0  0  0  0  0  0  0
  2  1  1  0
  3  2  1  0
  4  1  1  0
  5  1  2  0
  6  1  2  0
  7  3  2  0
  8  3  1  0
  9  4  2  0
 10  4  1  0
 11 13  1  0
 12 11  1  0
 13 10  2  0
 14  9  1  0
 15  8  2  0
 16  8  1  0
 17 16  2  0
 18 15  1  0
 19 17  1  0
 11 14  2  0
 19 18  2  0
  2 20  1  0
  9 21  1  0
 10 22  1  0
 12 23  1  0
 12 24  1  0
 13 25  1  0
 14 26  1  0
 15 27  1  0
 16 28  1  0
 17 29  1  0
 18 30  1  0
 19 31  1  0
M  END
> <Uni-Dock RESULT> 
ENERGY=   -3.614  LOWER_BOUND=    4.960  UPPER_BOUND=    7.098
INTER + INTRA:          -3.614
INTER:                  -3.614
INTRA:                   0.000
UNBOUND:                 0.000

$$$$
