
     RDKit          3D

 31 32  0  0  0  0  0  0  0  0999 V2000
   43.7473    4.7193   10.8298 S   0  0  0  0  0  0  0  0  0  0  0  0
   44.6388    4.2371    9.5115 N   0  0  0  0  0  0  0  0  0  0  0  0
   45.3801    3.0531    9.4326 C   0  0  0  0  0  0  0  0  0  0  0  0
   44.9877    5.1002   12.0382 C   0  0  0  0  0  0  0  0  0  0  0  0
   42.9343    3.6233   11.3041 O   0  0  0  0  0  0  0  0  0  0  0  0
   43.1361    5.9707   10.4265 O   0  0  0  0  0  0  0  0  0  0  0  0
   45.4800    2.2551   10.3507 O   0  0  0  0  0  0  0  0  0  0  0  0
   46.0730    2.8103    8.1359 C   0  0  0  0  0  0  0  0  0  0  0  0
   45.5146    6.3916   12.1087 C   0  0  0  0  0  0  0  0  0  0  0  0
   45.4062    4.1171   12.9356 C   0  0  0  0  0  0  0  0  0  0  0  0
   46.8761    5.7275   14.0104 C   0  0  0  0  0  0  0  0  0  0  0  0
   47.9243    6.0002   14.8963 N   0  0  0  0  0  0  0  0  0  0  0  0
   46.3701    4.4285   13.8980 C   0  0  0  0  0  0  0  0  0  0  0  0
   46.4750    6.6908   13.0790 C   0  0  0  0  0  0  0  0  0  0  0  0
   46.4025    1.4871    7.8077 C   0  0  0  0  0  0  0  0  0  0  0  0
   46.3985    3.8407    7.2421 C   0  0  0  0  0  0  0  0  0  0  0  0
   47.0341    3.5439    6.0330 C   0  0  0  0  0  0  0  0  0  0  0  0
   47.0362    1.1959    6.5983 C   0  0  0  0  0  0  0  0  0  0  0  0
   47.3486    2.2241    5.7113 C   0  0  0  0  0  0  0  0  0  0  0  0
   44.4812    4.8364    8.7107 H   0  0  0  0  0  0  0  0  0  0  0  0
   45.1940    7.1652   11.4154 H   0  0  0  0  0  0  0  0  0  0  0  0
   45.0076    3.1058   12.8779 H   0  0  0  0  0  0  0  0  0  0  0  0
   47.9425    5.3915   15.7091 H   0  0  0  0  0  0  0  0  0  0  0  0
   48.0061    6.9799   15.1492 H   0  0  0  0  0  0  0  0  0  0  0  0
   46.7204    3.6438   14.5639 H   0  0  0  0  0  0  0  0  0  0  0  0
   46.9060    7.6885   13.1065 H   0  0  0  0  0  0  0  0  0  0  0  0
   46.1628    0.6750    8.4928 H   0  0  0  0  0  0  0  0  0  0  0  0
   46.2010    4.8826    7.4737 H   0  0  0  0  0  0  0  0  0  0  0  0
   47.2931    4.3440    5.3428 H   0  0  0  0  0  0  0  0  0  0  0  0
   47.2863    0.1670    6.3504 H   0  0  0  0  0  0  0  0  0  0  0  0
   47.8448    1.9968    4.7704 H   0  0  0  0  0  0  0  0  0  0  0  0
  2  1  1  0
  3  2  1  0
  4  1  1  0
  5  1  2  0
  6  1  2  0
  7  3  2  0
  8  3  1  0
  9  4  2  0
 10  4  1  0
 11 13  1  0
 12 11  1  0
 13 10  2  0
 14  9  1  0
 15  8  2  0
 16  8  1  0
 17 16  2  0
 18 15  1  0
 19 17  1  0
 11 14  2  0
 19 18  2  0
  2 20  1  0
  9 21  1  0
 10 22  1  0
 12 23  1  0
 12 24  1  0
 13 25  1  0
 14 26  1  0
 15 27  1  0
 16 28  1  0
 17 29  1  0
 18 30  1  0
 19 31  1  0
M  END
> <Uni-Dock RESULT> 
ENERGY=   -6.190  LOWER_BOUND=    0.000  UPPER_BOUND=    0.000
INTER + INTRA:          -6.190
INTER:                  -6.190
INTRA:                   0.000
UNBOUND:                 0.000

$$$$

     RDKit          3D

 31 32  0  0  0  0  0  0  0  0999 V2000
   43.7706    4.3223   10.8738 S   0  0  0  0  0  0  0  0  0  0  0  0
   44.8470    4.4853   12.1308 N   0  0  0  0  0  0  0  0  0  0  0  0
   45.9027    5.4027   12.1705 C   0  0  0  0  0  0  0  0  0  0  0  0
   44.7666    3.6389    9.5759 C   0  0  0  0  0  0  0  0  0  0  0  0
   43.2805    5.6203   10.4714 O   0  0  0  0  0  0  0  0  0  0  0  0
   42.8509    3.2877   11.3051 O   0  0  0  0  0  0  0  0  0  0  0  0
   46.1695    6.1668   11.2569 O   0  0  0  0  0  0  0  0  0  0  0  0
   46.7187    5.3945   13.4173 C   0  0  0  0  0  0  0  0  0  0  0  0
   44.8915    2.2533    9.4530 C   0  0  0  0  0  0  0  0  0  0  0  0
   45.3926    4.4878    8.6624 C   0  0  0  0  0  0  0  0  0  0  0  0
   46.2607    2.5573    7.4670 C   0  0  0  0  0  0  0  0  0  0  0  0
   47.1254    2.0226    6.5056 N   0  0  0  0  0  0  0  0  0  0  0  0
   46.1606    3.9427    7.6302 C   0  0  0  0  0  0  0  0  0  0  0  0
   45.6593    1.7212    8.4134 C   0  0  0  0  0  0  0  0  0  0  0  0
   47.4377    6.5557   13.7364 C   0  0  0  0  0  0  0  0  0  0  0  0
   46.7894    4.2862   14.2736 C   0  0  0  0  0  0  0  0  0  0  0  0
   47.5607    4.3490   15.4377 C   0  0  0  0  0  0  0  0  0  0  0  0
   48.2055    6.6137   14.9009 C   0  0  0  0  0  0  0  0  0  0  0  0
   48.2639    5.5115   15.7515 C   0  0  0  0  0  0  0  0  0  0  0  0
   44.5750    3.9317   12.9338 H   0  0  0  0  0  0  0  0  0  0  0  0
   44.4064    1.5832   10.1584 H   0  0  0  0  0  0  0  0  0  0  0  0
   45.3084    5.5687    8.7600 H   0  0  0  0  0  0  0  0  0  0  0  0
   47.2662    2.6258    5.7007 H   0  0  0  0  0  0  0  0  0  0  0  0
   46.9036    1.0694    6.2362 H   0  0  0  0  0  0  0  0  0  0  0  0
   46.6791    4.6141    6.9502 H   0  0  0  0  0  0  0  0  0  0  0  0
   45.7803    0.6431    8.3437 H   0  0  0  0  0  0  0  0  0  0  0  0
   47.3993    7.4237   13.0796 H   0  0  0  0  0  0  0  0  0  0  0  0
   46.2842    3.3532   14.0446 H   0  0  0  0  0  0  0  0  0  0  0  0
   47.6212    3.4868   16.0984 H   0  0  0  0  0  0  0  0  0  0  0  0
   48.7582    7.5186   15.1423 H   0  0  0  0  0  0  0  0  0  0  0  0
   48.8645    5.5564   16.6572 H   0  0  0  0  0  0  0  0  0  0  0  0
  2  1  1  0
  3  2  1  0
  4  1  1  0
  5  1  2  0
  6  1  2  0
  7  3  2  0
  8  3  1  0
  9  4  2  0
 10  4  1  0
 11 13  1  0
 12 11  1  0
 13 10  2  0
 14  9  1  0
 15  8  2  0
 16  8  1  0
 17 16  2  0
 18 15  1  0
 19 17  1  0
 11 14  2  0
 19 18  2  0
  2 20  1  0
  9 21  1  0
 10 22  1  0
 12 23  1  0
 12 24  1  0
 13 25  1  0
 14 26  1  0
 15 27  1  0
 16 28  1  0
 17 29  1  0
 18 30  1  0
 19 31  1  0
M  END
> <Uni-Dock RESULT> 
ENERGY=   -6.055  LOWER_BOUND=    1.754  UPPER_BOUND=    6.391
INTER + INTRA:          -6.055
INTER:                  -6.055
INTRA:                   0.000
UNBOUND:                 0.000

$$$$

     RDKit          3D

 31 32  0  0  0  0  0  0  0  0999 V2000
   43.8668    6.0703   12.0988 S   0  0  0  0  0  0  0  0  0  0  0  0
   45.2751    6.2437   12.9658 N   0  0  0  0  0  0  0  0  0  0  0  0
   46.4993    6.6634   12.4339 C   0  0  0  0  0  0  0  0  0  0  0  0
   44.2009    4.6711   11.0622 C   0  0  0  0  0  0  0  0  0  0  0  0
   43.6463    7.2369   11.2758 O   0  0  0  0  0  0  0  0  0  0  0  0
   42.8779    5.6594   13.0763 O   0  0  0  0  0  0  0  0  0  0  0  0
   46.6726    6.9158   11.2524 O   0  0  0  0  0  0  0  0  0  0  0  0
   47.6205    6.7807   13.4085 C   0  0  0  0  0  0  0  0  0  0  0  0
   43.9050    3.3841   11.5167 C   0  0  0  0  0  0  0  0  0  0  0  0
   44.7253    4.8651    9.7839 C   0  0  0  0  0  0  0  0  0  0  0  0
   44.6378    2.4684    9.3870 C   0  0  0  0  0  0  0  0  0  0  0  0
   44.9937    1.3607    8.6096 N   0  0  0  0  0  0  0  0  0  0  0  0
   44.9686    3.7598    8.9643 C   0  0  0  0  0  0  0  0  0  0  0  0
   44.1492    2.2877   10.6851 C   0  0  0  0  0  0  0  0  0  0  0  0
   48.6869    7.6304   13.0798 C   0  0  0  0  0  0  0  0  0  0  0  0
   47.6458    6.0869   14.6269 C   0  0  0  0  0  0  0  0  0  0  0  0
   48.7202    6.2540   15.5054 C   0  0  0  0  0  0  0  0  0  0  0  0
   49.7569    7.7947   13.9614 C   0  0  0  0  0  0  0  0  0  0  0  0
   49.7709    7.1087   15.1741 C   0  0  0  0  0  0  0  0  0  0  0  0
   45.1204    6.1377   13.9608 H   0  0  0  0  0  0  0  0  0  0  0  0
   43.4944    3.2223   12.5103 H   0  0  0  0  0  0  0  0  0  0  0  0
   44.9688    5.8648    9.4287 H   0  0  0  0  0  0  0  0  0  0  0  0
   45.0412    1.5572    7.6143 H   0  0  0  0  0  0  0  0  0  0  0  0
   44.4528    0.5255    8.8100 H   0  0  0  0  0  0  0  0  0  0  0  0
   45.4176    3.9191    7.9871 H   0  0  0  0  0  0  0  0  0  0  0  0
   43.9486    1.2864   11.0577 H   0  0  0  0  0  0  0  0  0  0  0  0
   48.6868    8.1723   12.1350 H   0  0  0  0  0  0  0  0  0  0  0  0
   46.8635    5.3870   14.9030 H   0  0  0  0  0  0  0  0  0  0  0  0
   48.7433    5.7103   16.4475 H   0  0  0  0  0  0  0  0  0  0  0  0
   50.5789    8.4571   13.7000 H   0  0  0  0  0  0  0  0  0  0  0  0
   50.6062    7.2351   15.8593 H   0  0  0  0  0  0  0  0  0  0  0  0
  2  1  1  0
  3  2  1  0
  4  1  1  0
  5  1  2  0
  6  1  2  0
  7  3  2  0
  8  3  1  0
  9  4  2  0
 10  4  1  0
 11 13  1  0
 12 11  1  0
 13 10  2  0
 14  9  1  0
 15  8  2  0
 16  8  1  0
 17 16  2  0
 18 15  1  0
 19 17  1  0
 11 14  2  0
 19 18  2  0
  2 20  1  0
  9 21  1  0
 10 22  1  0
 12 23  1  0
 12 24  1  0
 13 25  1  0
 14 26  1  0
 15 27  1  0
 16 28  1  0
 17 29  1  0
 18 30  1  0
 19 31  1  0
M  END
> <Uni-Dock RESULT> 
ENERGY=   -4.743  LOWER_BOUND=    2.650  UPPER_BOUND=    6.402
INTER + INTRA:          -4.743
INTER:                  -4.743
INTRA:                   0.000
UNBOUND:                 0.000

$$$$

     RDKit          3D

 31 32  0  0  0  0  0  0  0  0999 V2000
   47.6120    3.9201   17.6648 S   0  0  0  0  0  0  0  0  0  0  0  0
   49.0625    3.1095   17.7282 N   0  0  0  0  0  0  0  0  0  0  0  0
   50.3207    3.7182   17.7950 C   0  0  0  0  0  0  0  0  0  0  0  0
   47.6348    4.6627   16.0549 C   0  0  0  0  0  0  0  0  0  0  0  0
   47.5802    4.9556   18.6717 O   0  0  0  0  0  0  0  0  0  0  0  0
   46.6049    2.8772   17.6471 O   0  0  0  0  0  0  0  0  0  0  0  0
   50.4891    4.9269   17.7776 O   0  0  0  0  0  0  0  0  0  0  0  0
   51.4833    2.7900   17.8802 C   0  0  0  0  0  0  0  0  0  0  0  0
   47.1221    3.9628   14.9604 C   0  0  0  0  0  0  0  0  0  0  0  0
   48.1330    5.9561   15.8951 C   0  0  0  0  0  0  0  0  0  0  0  0
   47.5816    5.8737   13.5290 C   0  0  0  0  0  0  0  0  0  0  0  0
   47.6911    6.4195   12.2453 N   0  0  0  0  0  0  0  0  0  0  0  0
   48.1307    6.5434   14.6272 C   0  0  0  0  0  0  0  0  0  0  0  0
   47.1219    4.5636   13.6985 C   0  0  0  0  0  0  0  0  0  0  0  0
   52.6755    3.2833   18.4301 C   0  0  0  0  0  0  0  0  0  0  0  0
   51.4286    1.4591   17.4419 C   0  0  0  0  0  0  0  0  0  0  0  0
   52.5506    0.6346   17.5654 C   0  0  0  0  0  0  0  0  0  0  0  0
   53.7929    2.4554   18.5525 C   0  0  0  0  0  0  0  0  0  0  0  0
   53.7283    1.1314   18.1227 C   0  0  0  0  0  0  0  0  0  0  0  0
   48.9320    2.1125   17.8472 H   0  0  0  0  0  0  0  0  0  0  0  0
   46.7300    2.9553   15.0745 H   0  0  0  0  0  0  0  0  0  0  0  0
   48.5446    6.5019   16.7423 H   0  0  0  0  0  0  0  0  0  0  0  0
   47.7334    7.4341   12.2339 H   0  0  0  0  0  0  0  0  0  0  0  0
   47.0121    6.0566   11.5837 H   0  0  0  0  0  0  0  0  0  0  0  0
   48.5608    7.5345   14.5065 H   0  0  0  0  0  0  0  0  0  0  0  0
   46.7528    4.0006   12.8449 H   0  0  0  0  0  0  0  0  0  0  0  0
   52.7378    4.3162   18.7700 H   0  0  0  0  0  0  0  0  0  0  0  0
   50.5410    1.0477   16.9714 H   0  0  0  0  0  0  0  0  0  0  0  0
   52.5104   -0.3959   17.2189 H   0  0  0  0  0  0  0  0  0  0  0  0
   54.7129    2.8450   18.9820 H   0  0  0  0  0  0  0  0  0  0  0  0
   54.6001    0.4877   18.2158 H   0  0  0  0  0  0  0  0  0  0  0  0
  2  1  1  0
  3  2  1  0
  4  1  1  0
  5  1  2  0
  6  1  2  0
  7  3  2  0
  8  3  1  0
  9  4  2  0
 10  4  1  0
 11 13  1  0
 12 11  1  0
 13 10  2  0
 14  9  1  0
 15  8  2  0
 16  8  1  0
 17 16  2  0
 18 15  1  0
 19 17  1  0
 11 14  2  0
 19 18  2  0
  2 20  1  0
  9 21  1  0
 10 22  1  0
 12 23  1  0
 12 24  1  0
 13 25  1  0
 14 26  1  0
 15 27  1  0
 16 28  1  0
 17 29  1  0
 18 30  1  0
 19 31  1  0
M  END
> <Uni-Dock RESULT> 
ENERGY=   -4.742  LOWER_BOUND=    6.209  UPPER_BOUND=    8.996
INTER + INTRA:          -4.742
INTER:                  -4.742
INTRA:                   0.000
UNBOUND:                 0.000

$$$$

     RDKit          3D

 31 32  0  0  0  0  0  0  0  0999 V2000
   42.9775   10.8498   10.6651 S   0  0  0  0  0  0  0  0  0  0  0  0
   43.6694    9.4139   11.1387 N   0  0  0  0  0  0  0  0  0  0  0  0
   44.9504    9.2813   11.6859 C   0  0  0  0  0  0  0  0  0  0  0  0
   43.9258   11.3029    9.2370 C   0  0  0  0  0  0  0  0  0  0  0  0
   43.1537   11.8469   11.6956 O   0  0  0  0  0  0  0  0  0  0  0  0
   41.6501   10.4886   10.2073 O   0  0  0  0  0  0  0  0  0  0  0  0
   45.7192   10.2163   11.8423 O   0  0  0  0  0  0  0  0  0  0  0  0
   45.3479    7.8978   12.0712 C   0  0  0  0  0  0  0  0  0  0  0  0
   43.5277   10.8650    7.9720 C   0  0  0  0  0  0  0  0  0  0  0  0
   45.0452   12.1234    9.3800 C   0  0  0  0  0  0  0  0  0  0  0  0
   45.3678   12.0991    6.9708 C   0  0  0  0  0  0  0  0  0  0  0  0
   46.1713   12.3735    5.8586 N   0  0  0  0  0  0  0  0  0  0  0  0
   45.7774   12.4928    8.2487 C   0  0  0  0  0  0  0  0  0  0  0  0
   44.2666   11.2454    6.8483 C   0  0  0  0  0  0  0  0  0  0  0  0
   46.3542    7.7513   13.0372 C   0  0  0  0  0  0  0  0  0  0  0  0
   44.7581    6.7536   11.5152 C   0  0  0  0  0  0  0  0  0  0  0  0
   45.1651    5.4831   11.9325 C   0  0  0  0  0  0  0  0  0  0  0  0
   46.7561    6.4801   13.4514 C   0  0  0  0  0  0  0  0  0  0  0  0
   46.1593    5.3478   12.9008 C   0  0  0  0  0  0  0  0  0  0  0  0
   43.0066    8.6490   11.1105 H   0  0  0  0  0  0  0  0  0  0  0  0
   42.6561   10.2269    7.8495 H   0  0  0  0  0  0  0  0  0  0  0  0
   45.3670   12.4582   10.3646 H   0  0  0  0  0  0  0  0  0  0  0  0
   46.7380   13.2103    5.9592 H   0  0  0  0  0  0  0  0  0  0  0  0
   45.6729   12.3521    4.9745 H   0  0  0  0  0  0  0  0  0  0  0  0
   46.6725   13.0966    8.3762 H   0  0  0  0  0  0  0  0  0  0  0  0
   43.9713   10.8733    5.8705 H   0  0  0  0  0  0  0  0  0  0  0  0
   46.8276    8.6289   13.4751 H   0  0  0  0  0  0  0  0  0  0  0  0
   44.0066    6.8191   10.7346 H   0  0  0  0  0  0  0  0  0  0  0  0
   44.7125    4.5952   11.4960 H   0  0  0  0  0  0  0  0  0  0  0  0
   47.5355    6.3750   14.2026 H   0  0  0  0  0  0  0  0  0  0  0  0
   46.4748    4.3576   13.2220 H   0  0  0  0  0  0  0  0  0  0  0  0
  2  1  1  0
  3  2  1  0
  4  1  1  0
  5  1  2  0
  6  1  2  0
  7  3  2  0
  8  3  1  0
  9  4  2  0
 10  4  1  0
 11 13  1  0
 12 11  1  0
 13 10  2  0
 14  9  1  0
 15  8  2  0
 16  8  1  0
 17 16  2  0
 18 15  1  0
 19 17  1  0
 11 14  2  0
 19 18  2  0
  2 20  1  0
  9 21  1  0
 10 22  1  0
 12 23  1  0
 12 24  1  0
 13 25  1  0
 14 26  1  0
 15 27  1  0
 16 28  1  0
 17 29  1  0
 18 30  1  0
 19 31  1  0
M  END
> <Uni-Dock RESULT> 
ENERGY=   -4.101  LOWER_BOUND=    5.292  UPPER_BOUND=    7.717
INTER + INTRA:          -4.101
INTER:                  -4.101
INTRA:                   0.000
UNBOUND:                 0.000

$$$$

     RDKit          3D

 31 32  0  0  0  0  0  0  0  0999 V2000
   48.6726    7.6998   12.6039 S   0  0  0  0  0  0  0  0  0  0  0  0
   47.4469    6.5855   12.4584 N   0  0  0  0  0  0  0  0  0  0  0  0
   46.0944    6.8417   12.7095 C   0  0  0  0  0  0  0  0  0  0  0  0
   48.7718    7.9643   14.3543 C   0  0  0  0  0  0  0  0  0  0  0  0
   48.2990    8.9334   11.9514 O   0  0  0  0  0  0  0  0  0  0  0  0
   49.8706    6.9875   12.2044 O   0  0  0  0  0  0  0  0  0  0  0  0
   45.6712    7.9172   13.1020 O   0  0  0  0  0  0  0  0  0  0  0  0
   45.1669    5.6987   12.4778 C   0  0  0  0  0  0  0  0  0  0  0  0
   49.6100    7.1616   15.1312 C   0  0  0  0  0  0  0  0  0  0  0  0
   48.0386    8.9957   14.9421 C   0  0  0  0  0  0  0  0  0  0  0  0
   49.0027    8.4453   17.1047 C   0  0  0  0  0  0  0  0  0  0  0  0
   49.0043    8.5894   18.4965 N   0  0  0  0  0  0  0  0  0  0  0  0
   48.1356    9.2115   16.3192 C   0  0  0  0  0  0  0  0  0  0  0  0
   49.7009    7.3910   16.5068 C   0  0  0  0  0  0  0  0  0  0  0  0
   43.8178    5.9908   12.2292 C   0  0  0  0  0  0  0  0  0  0  0  0
   45.5881    4.3612   12.4939 C   0  0  0  0  0  0  0  0  0  0  0  0
   44.6701    3.3351   12.2522 C   0  0  0  0  0  0  0  0  0  0  0  0
   42.9052    4.9624   11.9871 C   0  0  0  0  0  0  0  0  0  0  0  0
   43.3329    3.6362   11.9961 C   0  0  0  0  0  0  0  0  0  0  0  0
   47.7695    5.7236   12.0363 H   0  0  0  0  0  0  0  0  0  0  0  0
   50.1868    6.3566   14.6827 H   0  0  0  0  0  0  0  0  0  0  0  0
   47.3748    9.6170   14.3435 H   0  0  0  0  0  0  0  0  0  0  0  0
   48.7435    9.5187   18.8123 H   0  0  0  0  0  0  0  0  0  0  0  0
   49.8520    8.2561   18.9445 H   0  0  0  0  0  0  0  0  0  0  0  0
   47.5271    9.9897   16.7732 H   0  0  0  0  0  0  0  0  0  0  0  0
   50.3288    6.7409   17.1109 H   0  0  0  0  0  0  0  0  0  0  0  0
   43.4720    7.0235   12.2191 H   0  0  0  0  0  0  0  0  0  0  0  0
   46.6128    4.0868   12.7240 H   0  0  0  0  0  0  0  0  0  0  0  0
   44.9954    2.2972   12.2717 H   0  0  0  0  0  0  0  0  0  0  0  0
   41.8613    5.1974   11.7930 H   0  0  0  0  0  0  0  0  0  0  0  0
   42.6208    2.8353   11.8101 H   0  0  0  0  0  0  0  0  0  0  0  0
  2  1  1  0
  3  2  1  0
  4  1  1  0
  5  1  2  0
  6  1  2  0
  7  3  2  0
  8  3  1  0
  9  4  2  0
 10  4  1  0
 11 13  1  0
 12 11  1  0
 13 10  2  0
 14  9  1  0
 15  8  2  0
 16  8  1  0
 17 16  2  0
 18 15  1  0
 19 17  1  0
 11 14  2  0
 19 18  2  0
  2 20  1  0
  9 21  1  0
 10 22  1  0
 12 23  1  0
 12 24  1  0
 13 25  1  0
 14 26  1  0
 15 27  1  0
 16 28  1  0
 17 29  1  0
 18 30  1  0
 19 31  1  0
M  END
> <Uni-Dock RESULT> 
ENERGY=   -4.059  LOWER_BOUND=    4.466  UPPER_BOUND=    5.990
INTER + INTRA:          -4.059
INTER:                  -4.059
INTRA:                   0.000
UNBOUND:                 0.000

$$$$

     RDKit          3D

 31 32  0  0  0  0  0  0  0  0999 V2000
   43.2416   11.2301    9.9183 S   0  0  0  0  0  0  0  0  0  0  0  0
   44.2681   10.3071   10.8454 N   0  0  0  0  0  0  0  0  0  0  0  0
   44.0729    8.9574   11.1586 C   0  0  0  0  0  0  0  0  0  0  0  0
   41.8093   11.4000   10.9496 C   0  0  0  0  0  0  0  0  0  0  0  0
   42.8854   10.5151    8.7145 O   0  0  0  0  0  0  0  0  0  0  0  0
   43.8783   12.5305    9.8429 O   0  0  0  0  0  0  0  0  0  0  0  0
   43.0955    8.3161   10.8079 O   0  0  0  0  0  0  0  0  0  0  0  0
   45.1449    8.3229   11.9763 C   0  0  0  0  0  0  0  0  0  0  0  0
   41.7215   12.4682   11.8450 C   0  0  0  0  0  0  0  0  0  0  0  0
   40.7616   10.4855   10.8368 C   0  0  0  0  0  0  0  0  0  0  0  0
   39.5043   11.7235   12.5089 C   0  0  0  0  0  0  0  0  0  0  0  0
   38.4209   11.8001   13.3911 N   0  0  0  0  0  0  0  0  0  0  0  0
   39.6271   10.6356   11.6386 C   0  0  0  0  0  0  0  0  0  0  0  0
   40.5793   12.6090   12.6380 C   0  0  0  0  0  0  0  0  0  0  0  0
   45.2771    6.9280   11.9129 C   0  0  0  0  0  0  0  0  0  0  0  0
   46.0172    9.0588   12.7912 C   0  0  0  0  0  0  0  0  0  0  0  0
   47.0134    8.4039   13.5210 C   0  0  0  0  0  0  0  0  0  0  0  0
   46.2747    6.2789   12.6427 C   0  0  0  0  0  0  0  0  0  0  0  0
   47.1433    7.0177   13.4435 C   0  0  0  0  0  0  0  0  0  0  0  0
   45.1294   10.7965   11.0546 H   0  0  0  0  0  0  0  0  0  0  0  0
   42.5315   13.1872   11.9392 H   0  0  0  0  0  0  0  0  0  0  0  0
   40.8294    9.6444   10.1491 H   0  0  0  0  0  0  0  0  0  0  0  0
   37.5801   11.3455   13.0476 H   0  0  0  0  0  0  0  0  0  0  0  0
   38.2364   12.7365   13.7371 H   0  0  0  0  0  0  0  0  0  0  0  0
   38.8358    9.8930   11.5736 H   0  0  0  0  0  0  0  0  0  0  0  0
   40.5319   13.4229   13.3571 H   0  0  0  0  0  0  0  0  0  0  0  0
   44.6044    6.3400   11.2899 H   0  0  0  0  0  0  0  0  0  0  0  0
   45.9243   10.1344   12.9037 H   0  0  0  0  0  0  0  0  0  0  0  0
   47.6856    8.9740   14.1588 H   0  0  0  0  0  0  0  0  0  0  0  0
   46.3719    5.1972   12.5863 H   0  0  0  0  0  0  0  0  0  0  0  0
   47.9185    6.5111   14.0140 H   0  0  0  0  0  0  0  0  0  0  0  0
  2  1  1  0
  3  2  1  0
  4  1  1  0
  5  1  2  0
  6  1  2  0
  7  3  2  0
  8  3  1  0
  9  4  2  0
 10  4  1  0
 11 13  1  0
 12 11  1  0
 13 10  2  0
 14  9  1  0
 15  8  2  0
 16  8  1  0
 17 16  2  0
 18 15  1  0
 19 17  1  0
 11 14  2  0
 19 18  2  0
  2 20  1  0
  9 21  1  0
 10 22  1  0
 12 23  1  0
 12 24  1  0
 13 25  1  0
 14 26  1  0
 15 27  1  0
 16 28  1  0
 17 29  1  0
 18 30  1  0
 19 31  1  0
M  END
> <Uni-Dock RESULT> 
ENERGY=   -4.051  LOWER_BOUND=    5.638  UPPER_BOUND=    7.903
INTER + INTRA:          -4.051
INTER:                  -4.051
INTRA:                   0.000
UNBOUND:                 0.000

$$$$

     RDKit          3D

 31 32  0  0  0  0  0  0  0  0999 V2000
   48.4624    5.6191   17.8599 S   0  0  0  0  0  0  0  0  0  0  0  0
   48.6819    6.4356   16.4280 N   0  0  0  0  0  0  0  0  0  0  0  0
   48.2587    5.9843   15.1729 C   0  0  0  0  0  0  0  0  0  0  0  0
   49.5450    4.2242   17.6990 C   0  0  0  0  0  0  0  0  0  0  0  0
   47.0968    5.1589   17.9620 O   0  0  0  0  0  0  0  0  0  0  0  0
   49.0251    6.4901   18.8733 O   0  0  0  0  0  0  0  0  0  0  0  0
   47.7070    4.9109   14.9908 O   0  0  0  0  0  0  0  0  0  0  0  0
   48.5322    6.9018   14.0310 C   0  0  0  0  0  0  0  0  0  0  0  0
   50.8703    4.3209   18.1290 C   0  0  0  0  0  0  0  0  0  0  0  0
   49.0584    3.0258   17.1758 C   0  0  0  0  0  0  0  0  0  0  0  0
   51.2283    1.9906   17.5348 C   0  0  0  0  0  0  0  0  0  0  0  0
   52.1068    0.9237   17.3160 N   0  0  0  0  0  0  0  0  0  0  0  0
   49.9113    1.9241   17.0692 C   0  0  0  0  0  0  0  0  0  0  0  0
   51.7115    3.2100   18.0207 C   0  0  0  0  0  0  0  0  0  0  0  0
   47.7386    6.7709   12.8820 C   0  0  0  0  0  0  0  0  0  0  0  0
   49.5360    7.8804   14.0643 C   0  0  0  0  0  0  0  0  0  0  0  0
   49.7305    8.7214   12.9648 C   0  0  0  0  0  0  0  0  0  0  0  0
   47.9361    7.6142   11.7871 C   0  0  0  0  0  0  0  0  0  0  0  0
   48.9298    8.5901   11.8308 C   0  0  0  0  0  0  0  0  0  0  0  0
   49.0437    7.3692   16.5783 H   0  0  0  0  0  0  0  0  0  0  0  0
   51.2588    5.2495   18.5398 H   0  0  0  0  0  0  0  0  0  0  0  0
   48.0297    2.9480   16.8283 H   0  0  0  0  0  0  0  0  0  0  0  0
   51.6475    0.0195   17.2621 H   0  0  0  0  0  0  0  0  0  0  0  0
   52.9049    0.9115   17.9432 H   0  0  0  0  0  0  0  0  0  0  0  0
   49.5336    1.0088   16.6202 H   0  0  0  0  0  0  0  0  0  0  0  0
   52.7509    3.3022   18.3255 H   0  0  0  0  0  0  0  0  0  0  0  0
   46.9585    6.0122   12.8364 H   0  0  0  0  0  0  0  0  0  0  0  0
   50.2011    7.9890   14.9152 H   0  0  0  0  0  0  0  0  0  0  0  0
   50.5140    9.4760   12.9878 H   0  0  0  0  0  0  0  0  0  0  0  0
   47.3151    7.5077   10.9007 H   0  0  0  0  0  0  0  0  0  0  0  0
   49.0850    9.2450   10.9763 H   0  0  0  0  0  0  0  0  0  0  0  0
  2  1  1  0
  3  2  1  0
  4  1  1  0
  5  1  2  0
  6  1  2  0
  7  3  2  0
  8  3  1  0
  9  4  2  0
 10  4  1  0
 11 13  1  0
 12 11  1  0
 13 10  2  0
 14  9  1  0
 15  8  2  0
 16  8  1  0
 17 16  2  0
 18 15  1  0
 19 17  1  0
 11 14  2  0
 19 18  2  0
  2 20  1  0
  9 21  1  0
 10 22  1  0
 12 23  1  0
 12 24  1  0
 13 25  1  0
 14 26  1  0
 15 27  1  0
 16 28  1  0
 17 29  1  0
 18 30  1  0
 19 31  1  0
M  END
> <Uni-Dock RESULT> 
ENERGY=   -3.943  LOWER_BOUND=    5.850  UPPER_BOUND=    7.797
INTER + INTRA:          -3.943
INTER:                  -3.943
INTRA:                   0.000
UNBOUND:                 0.000

$$$$

     RDKit          3D

 31 32  0  0  0  0  0  0  0  0999 V2000
   50.0936    7.0201   16.4312 S   0  0  0  0  0  0  0  0  0  0  0  0
   49.2981    8.2761   17.1760 N   0  0  0  0  0  0  0  0  0  0  0  0
   48.3743    8.1368   18.2177 C   0  0  0  0  0  0  0  0  0  0  0  0
   48.8024    6.1998   15.5348 C   0  0  0  0  0  0  0  0  0  0  0  0
   50.6363    6.1212   17.4235 O   0  0  0  0  0  0  0  0  0  0  0  0
   50.9609    7.6555   15.4584 O   0  0  0  0  0  0  0  0  0  0  0  0
   48.0240    7.0593   18.6716 O   0  0  0  0  0  0  0  0  0  0  0  0
   47.8125    9.4074   18.7566 C   0  0  0  0  0  0  0  0  0  0  0  0
   48.5075    6.5925   14.2274 C   0  0  0  0  0  0  0  0  0  0  0  0
   48.1108    5.1428   16.1273 C   0  0  0  0  0  0  0  0  0  0  0  0
   46.8289    4.8395   14.0842 C   0  0  0  0  0  0  0  0  0  0  0  0
   45.7456    4.2597   13.4149 N   0  0  0  0  0  0  0  0  0  0  0  0
   47.1072    4.4876   15.4089 C   0  0  0  0  0  0  0  0  0  0  0  0
   47.5043    5.9259   13.5185 C   0  0  0  0  0  0  0  0  0  0  0  0
   47.2966    9.3935   20.0608 C   0  0  0  0  0  0  0  0  0  0  0  0
   47.7854   10.6006   18.0203 C   0  0  0  0  0  0  0  0  0  0  0  0
   47.2592   11.7633   18.5905 C   0  0  0  0  0  0  0  0  0  0  0  0
   46.7734   10.5579   20.6261 C   0  0  0  0  0  0  0  0  0  0  0  0
   46.7579   11.7418   19.8915 C   0  0  0  0  0  0  0  0  0  0  0  0
   49.6553    9.1763   16.8806 H   0  0  0  0  0  0  0  0  0  0  0  0
   49.0417    7.4137   13.7559 H   0  0  0  0  0  0  0  0  0  0  0  0
   48.3283    4.8399   17.1500 H   0  0  0  0  0  0  0  0  0  0  0  0
   45.5214    3.3219   13.7339 H   0  0  0  0  0  0  0  0  0  0  0  0
   45.8081    4.3157   12.4032 H   0  0  0  0  0  0  0  0  0  0  0  0
   46.5454    3.6942   15.8954 H   0  0  0  0  0  0  0  0  0  0  0  0
   47.2564    6.2588   12.5137 H   0  0  0  0  0  0  0  0  0  0  0  0
   47.3039    8.4743   20.6449 H   0  0  0  0  0  0  0  0  0  0  0  0
   48.1344   10.6472   16.9935 H   0  0  0  0  0  0  0  0  0  0  0  0
   47.2317   12.6873   18.0168 H   0  0  0  0  0  0  0  0  0  0  0  0
   46.3774   10.5393   21.6388 H   0  0  0  0  0  0  0  0  0  0  0  0
   46.3476   12.6480   20.3315 H   0  0  0  0  0  0  0  0  0  0  0  0
  2  1  1  0
  3  2  1  0
  4  1  1  0
  5  1  2  0
  6  1  2  0
  7  3  2  0
  8  3  1  0
  9  4  2  0
 10  4  1  0
 11 13  1  0
 12 11  1  0
 13 10  2  0
 14  9  1  0
 15  8  2  0
 16  8  1  0
 17 16  2  0
 18 15  1  0
 19 17  1  0
 11 14  2  0
 19 18  2  0
  2 20  1  0
  9 21  1  0
 10 22  1  0
 12 23  1  0
 12 24  1  0
 13 25  1  0
 14 26  1  0
 15 27  1  0
 16 28  1  0
 17 29  1  0
 18 30  1  0
 19 31  1  0
M  END
> <Uni-Dock RESULT> 
ENERGY=   -3.891  LOWER_BOUND=    6.322  UPPER_BOUND=   10.236
INTER + INTRA:          -3.891
INTER:                  -3.891
INTRA:                   0.000
UNBOUND:                 0.000

$$$$
