
     RDKit          3D

 31 32  0  0  0  0  0  0  0  0999 V2000
   43.8589    4.1586   10.9102 S   0  0  0  0  0  0  0  0  0  0  0  0
   44.7439    3.4100    9.7177 N   0  0  0  0  0  0  0  0  0  0  0  0
   45.5601    4.0674    8.7906 C   0  0  0  0  0  0  0  0  0  0  0  0
   45.1041    4.7518   12.0244 C   0  0  0  0  0  0  0  0  0  0  0  0
   43.1343    5.2796   10.3578 O   0  0  0  0  0  0  0  0  0  0  0  0
   43.1548    3.0826   11.5800 O   0  0  0  0  0  0  0  0  0  0  0  0
   45.7383    5.2748    8.7827 O   0  0  0  0  0  0  0  0  0  0  0  0
   46.2315    3.1935    7.7878 C   0  0  0  0  0  0  0  0  0  0  0  0
   45.5454    3.9372   13.0694 C   0  0  0  0  0  0  0  0  0  0  0  0
   45.6118    6.0426   11.8728 C   0  0  0  0  0  0  0  0  0  0  0  0
   47.0002    5.7252   13.8428 C   0  0  0  0  0  0  0  0  0  0  0  0
   48.0519    6.1555   14.6592 N   0  0  0  0  0  0  0  0  0  0  0  0
   46.5791    6.5115   12.7657 C   0  0  0  0  0  0  0  0  0  0  0  0
   46.5102    4.4202   13.9580 C   0  0  0  0  0  0  0  0  0  0  0  0
   46.6395    3.7776    6.5796 C   0  0  0  0  0  0  0  0  0  0  0  0
   46.4628    1.8271    8.0021 C   0  0  0  0  0  0  0  0  0  0  0  0
   47.0832    1.0584    7.0131 C   0  0  0  0  0  0  0  0  0  0  0  0
   47.2574    3.0052    5.5945 C   0  0  0  0  0  0  0  0  0  0  0  0
   47.4761    1.6462    5.8112 C   0  0  0  0  0  0  0  0  0  0  0  0
   44.5247    2.4239    9.6487 H   0  0  0  0  0  0  0  0  0  0  0  0
   45.1549    2.9307   13.1973 H   0  0  0  0  0  0  0  0  0  0  0  0
   45.2801    6.6777   11.0532 H   0  0  0  0  0  0  0  0  0  0  0  0
   48.1329    7.1658   14.7242 H   0  0  0  0  0  0  0  0  0  0  0  0
   48.0751    5.7096   15.5710 H   0  0  0  0  0  0  0  0  0  0  0  0
   46.9991    7.5025   12.6124 H   0  0  0  0  0  0  0  0  0  0  0  0
   46.8742    3.7689   14.7485 H   0  0  0  0  0  0  0  0  0  0  0  0
   46.4735    4.8387    6.3986 H   0  0  0  0  0  0  0  0  0  0  0  0
   46.2026    1.3427    8.9381 H   0  0  0  0  0  0  0  0  0  0  0  0
   47.2691   -0.0001    7.1822 H   0  0  0  0  0  0  0  0  0  0  0  0
   47.5687    3.4653    4.6595 H   0  0  0  0  0  0  0  0  0  0  0  0
   47.9601    1.0455    5.0444 H   0  0  0  0  0  0  0  0  0  0  0  0
  2  1  1  0
  3  2  1  0
  4  1  1  0
  5  1  2  0
  6  1  2  0
  7  3  2  0
  8  3  1  0
  9  4  2  0
 10  4  1  0
 11 13  1  0
 12 11  1  0
 13 10  2  0
 14  9  1  0
 15  8  2  0
 16  8  1  0
 17 16  2  0
 18 15  1  0
 19 17  1  0
 11 14  2  0
 19 18  2  0
  2 20  1  0
  9 21  1  0
 10 22  1  0
 12 23  1  0
 12 24  1  0
 13 25  1  0
 14 26  1  0
 15 27  1  0
 16 28  1  0
 17 29  1  0
 18 30  1  0
 19 31  1  0
M  END
> <Uni-Dock RESULT> 
ENERGY=   -7.245  LOWER_BOUND=    0.000  UPPER_BOUND=    0.000
INTER + INTRA:          -7.245
INTER:                  -7.245
INTRA:                   0.000
UNBOUND:                 0.000

$$$$

     RDKit          3D

 31 32  0  0  0  0  0  0  0  0999 V2000
   43.8103    4.4855   10.8044 S   0  0  0  0  0  0  0  0  0  0  0  0
   44.9424    4.9091   11.9464 N   0  0  0  0  0  0  0  0  0  0  0  0
   45.6427    4.0080   12.7561 C   0  0  0  0  0  0  0  0  0  0  0  0
   44.7807    3.6964    9.5477 C   0  0  0  0  0  0  0  0  0  0  0  0
   42.8786    3.5327   11.3619 O   0  0  0  0  0  0  0  0  0  0  0  0
   43.3411    5.7458   10.2624 O   0  0  0  0  0  0  0  0  0  0  0  0
   45.5196    2.7959   12.6827 O   0  0  0  0  0  0  0  0  0  0  0  0
   46.5843    4.6182   13.7365 C   0  0  0  0  0  0  0  0  0  0  0  0
   45.3249    4.4572    8.5108 C   0  0  0  0  0  0  0  0  0  0  0  0
   44.9669    2.3139    9.5816 C   0  0  0  0  0  0  0  0  0  0  0  0
   46.2318    2.4358    7.5094 C   0  0  0  0  0  0  0  0  0  0  0  0
   47.0786    1.8284    6.5757 N   0  0  0  0  0  0  0  0  0  0  0  0
   45.7166    1.6950    8.5778 C   0  0  0  0  0  0  0  0  0  0  0  0
   46.0692    3.8251    7.5108 C   0  0  0  0  0  0  0  0  0  0  0  0
   46.9302    3.8648   14.8679 C   0  0  0  0  0  0  0  0  0  0  0  0
   47.1260    5.9015   13.5746 C   0  0  0  0  0  0  0  0  0  0  0  0
   47.9914    6.4232   14.5404 C   0  0  0  0  0  0  0  0  0  0  0  0
   47.7938    4.3909   15.8302 C   0  0  0  0  0  0  0  0  0  0  0  0
   48.3212    5.6703   15.6668 C   0  0  0  0  0  0  0  0  0  0  0  0
   44.9778    5.9110   12.0884 H   0  0  0  0  0  0  0  0  0  0  0  0
   45.1842    5.5346    8.4742 H   0  0  0  0  0  0  0  0  0  0  0  0
   44.5548    1.7173   10.3937 H   0  0  0  0  0  0  0  0  0  0  0  0
   46.9041    0.8359    6.4495 H   0  0  0  0  0  0  0  0  0  0  0  0
   47.1388    2.3226    5.6909 H   0  0  0  0  0  0  0  0  0  0  0  0
   45.8916    0.6237    8.6376 H   0  0  0  0  0  0  0  0  0  0  0  0
   46.5186    4.4274    6.7254 H   0  0  0  0  0  0  0  0  0  0  0  0
   46.5238    2.8639   15.0068 H   0  0  0  0  0  0  0  0  0  0  0  0
   46.9199    6.5027   12.6945 H   0  0  0  0  0  0  0  0  0  0  0  0
   48.4173    7.4159   14.4113 H   0  0  0  0  0  0  0  0  0  0  0  0
   48.0551    3.8011   16.7058 H   0  0  0  0  0  0  0  0  0  0  0  0
   48.9963    6.0785   16.4156 H   0  0  0  0  0  0  0  0  0  0  0  0
  2  1  1  0
  3  2  1  0
  4  1  1  0
  5  1  2  0
  6  1  2  0
  7  3  2  0
  8  3  1  0
  9  4  2  0
 10  4  1  0
 11 13  1  0
 12 11  1  0
 13 10  2  0
 14  9  1  0
 15  8  2  0
 16  8  1  0
 17 16  2  0
 18 15  1  0
 19 17  1  0
 11 14  2  0
 19 18  2  0
  2 20  1  0
  9 21  1  0
 10 22  1  0
 12 23  1  0
 12 24  1  0
 13 25  1  0
 14 26  1  0
 15 27  1  0
 16 28  1  0
 17 29  1  0
 18 30  1  0
 19 31  1  0
M  END
> <Uni-Dock RESULT> 
ENERGY=   -6.077  LOWER_BOUND=    1.751  UPPER_BOUND=    6.437
INTER + INTRA:          -6.077
INTER:                  -6.077
INTRA:                   0.000
UNBOUND:                 0.000

$$$$

     RDKit          3D

 31 32  0  0  0  0  0  0  0  0999 V2000
   47.7184    4.3050   17.7423 S   0  0  0  0  0  0  0  0  0  0  0  0
   49.2799    3.7653   17.9318 N   0  0  0  0  0  0  0  0  0  0  0  0
   49.8304    2.6549   17.2824 C   0  0  0  0  0  0  0  0  0  0  0  0
   47.7071    4.9330   16.0842 C   0  0  0  0  0  0  0  0  0  0  0  0
   46.7970    3.1970   17.8433 O   0  0  0  0  0  0  0  0  0  0  0  0
   47.6076    5.4407   18.6368 O   0  0  0  0  0  0  0  0  0  0  0  0
   49.2230    1.9769   16.4692 O   0  0  0  0  0  0  0  0  0  0  0  0
   51.2427    2.3358   17.6341 C   0  0  0  0  0  0  0  0  0  0  0  0
   48.0400    6.2680   15.8453 C   0  0  0  0  0  0  0  0  0  0  0  0
   47.3317    4.0996   15.0299 C   0  0  0  0  0  0  0  0  0  0  0  0
   47.5945    5.9506   13.4763 C   0  0  0  0  0  0  0  0  0  0  0  0
   47.6819    6.4175   12.1601 N   0  0  0  0  0  0  0  0  0  0  0  0
   47.3061    4.6054   13.7275 C   0  0  0  0  0  0  0  0  0  0  0  0
   48.0062    6.7624   14.5384 C   0  0  0  0  0  0  0  0  0  0  0  0
   51.6871    1.0212   17.4297 C   0  0  0  0  0  0  0  0  0  0  0  0
   52.1299    3.2864   18.1592 C   0  0  0  0  0  0  0  0  0  0  0  0
   53.4386    2.9182   18.4845 C   0  0  0  0  0  0  0  0  0  0  0  0
   52.9946    0.6582   17.7576 C   0  0  0  0  0  0  0  0  0  0  0  0
   53.8679    1.6063   18.2870 C   0  0  0  0  0  0  0  0  0  0  0  0
   49.7596    4.2543   18.6774 H   0  0  0  0  0  0  0  0  0  0  0  0
   48.3321    6.9261   16.6599 H   0  0  0  0  0  0  0  0  0  0  0  0
   47.0824    3.0550   15.2086 H   0  0  0  0  0  0  0  0  0  0  0  0
   47.0971    5.9074   11.5050 H   0  0  0  0  0  0  0  0  0  0  0  0
   47.5707    7.4227   12.0711 H   0  0  0  0  0  0  0  0  0  0  0  0
   47.0542    3.9361   12.9088 H   0  0  0  0  0  0  0  0  0  0  0  0
   48.2994    7.7930   14.3551 H   0  0  0  0  0  0  0  0  0  0  0  0
   51.0134    0.2714   17.0171 H   0  0  0  0  0  0  0  0  0  0  0  0
   51.8423    4.3244   18.2940 H   0  0  0  0  0  0  0  0  0  0  0  0
   54.1290    3.6573   18.8852 H   0  0  0  0  0  0  0  0  0  0  0  0
   53.3306   -0.3637   17.5982 H   0  0  0  0  0  0  0  0  0  0  0  0
   54.8873    1.3235   18.5396 H   0  0  0  0  0  0  0  0  0  0  0  0
  2  1  1  0
  3  2  1  0
  4  1  1  0
  5  1  2  0
  6  1  2  0
  7  3  2  0
  8  3  1  0
  9  4  2  0
 10  4  1  0
 11 13  1  0
 12 11  1  0
 13 10  2  0
 14  9  1  0
 15  8  2  0
 16  8  1  0
 17 16  2  0
 18 15  1  0
 19 17  1  0
 11 14  2  0
 19 18  2  0
  2 20  1  0
  9 21  1  0
 10 22  1  0
 12 23  1  0
 12 24  1  0
 13 25  1  0
 14 26  1  0
 15 27  1  0
 16 28  1  0
 17 29  1  0
 18 30  1  0
 19 31  1  0
M  END
> <Uni-Dock RESULT> 
ENERGY=   -4.476  LOWER_BOUND=    5.989  UPPER_BOUND=    8.950
INTER + INTRA:          -4.476
INTER:                  -4.476
INTRA:                   0.000
UNBOUND:                 0.000

$$$$

     RDKit          3D

 31 32  0  0  0  0  0  0  0  0999 V2000
   44.1289   11.6758   11.4112 S   0  0  0  0  0  0  0  0  0  0  0  0
   44.9743   10.3488   11.9494 N   0  0  0  0  0  0  0  0  0  0  0  0
   44.6420    9.0181   11.6720 C   0  0  0  0  0  0  0  0  0  0  0  0
   44.4500   11.6787    9.6674 C   0  0  0  0  0  0  0  0  0  0  0  0
   42.7151   11.4871   11.6396 O   0  0  0  0  0  0  0  0  0  0  0  0
   44.8231   12.8138   11.9817 O   0  0  0  0  0  0  0  0  0  0  0  0
   43.7029    8.6885   10.9656 O   0  0  0  0  0  0  0  0  0  0  0  0
   45.5246    7.9898   12.2915 C   0  0  0  0  0  0  0  0  0  0  0  0
   45.5576   12.3663    9.1667 C   0  0  0  0  0  0  0  0  0  0  0  0
   43.5751   11.0231    8.8005 C   0  0  0  0  0  0  0  0  0  0  0  0
   44.9025   11.7647    6.9039 C   0  0  0  0  0  0  0  0  0  0  0  0
   45.2101   11.6831    5.5413 N   0  0  0  0  0  0  0  0  0  0  0  0
   43.8227   11.0450    7.4254 C   0  0  0  0  0  0  0  0  0  0  0  0
   45.7913   12.3839    7.7888 C   0  0  0  0  0  0  0  0  0  0  0  0
   45.0002    6.7018   12.4748 C   0  0  0  0  0  0  0  0  0  0  0  0
   46.8398    8.2595   12.6967 C   0  0  0  0  0  0  0  0  0  0  0  0
   47.6105    7.2540   13.2875 C   0  0  0  0  0  0  0  0  0  0  0  0
   45.7736    5.7016   13.0666 C   0  0  0  0  0  0  0  0  0  0  0  0
   47.0767    5.9795   13.4746 C   0  0  0  0  0  0  0  0  0  0  0  0
   45.6907   10.6041   12.6177 H   0  0  0  0  0  0  0  0  0  0  0  0
   46.2443   12.8818    9.8335 H   0  0  0  0  0  0  0  0  0  0  0  0
   42.7166   10.4757    9.1860 H   0  0  0  0  0  0  0  0  0  0  0  0
   44.4043   11.5041    4.9496 H   0  0  0  0  0  0  0  0  0  0  0  0
   45.7733   12.4552    5.1988 H   0  0  0  0  0  0  0  0  0  0  0  0
   43.1590   10.4948    6.7632 H   0  0  0  0  0  0  0  0  0  0  0  0
   46.6738   12.8921    7.4086 H   0  0  0  0  0  0  0  0  0  0  0  0
   43.9829    6.4730   12.1604 H   0  0  0  0  0  0  0  0  0  0  0  0
   47.3006    9.2290   12.5357 H   0  0  0  0  0  0  0  0  0  0  0  0
   48.6331    7.4612   13.5954 H   0  0  0  0  0  0  0  0  0  0  0  0
   45.3587    4.7062   13.2072 H   0  0  0  0  0  0  0  0  0  0  0  0
   47.6796    5.1989   13.9331 H   0  0  0  0  0  0  0  0  0  0  0  0
  2  1  1  0
  3  2  1  0
  4  1  1  0
  5  1  2  0
  6  1  2  0
  7  3  2  0
  8  3  1  0
  9  4  2  0
 10  4  1  0
 11 13  1  0
 12 11  1  0
 13 10  2  0
 14  9  1  0
 15  8  2  0
 16  8  1  0
 17 16  2  0
 18 15  1  0
 19 17  1  0
 11 14  2  0
 19 18  2  0
  2 20  1  0
  9 21  1  0
 10 22  1  0
 12 23  1  0
 12 24  1  0
 13 25  1  0
 14 26  1  0
 15 27  1  0
 16 28  1  0
 17 29  1  0
 18 30  1  0
 19 31  1  0
M  END
> <Uni-Dock RESULT> 
ENERGY=   -4.316  LOWER_BOUND=    5.619  UPPER_BOUND=    8.028
INTER + INTRA:          -4.316
INTER:                  -4.316
INTRA:                   0.000
UNBOUND:                 0.000

$$$$
