
     RDKit          3D

 31 32  0  0  0  0  0  0  0  0999 V2000
   44.0246    4.4432   11.5696 S   0  0  0  0  0  0  0  0  0  0  0  0
   44.9172    4.0921   10.2032 N   0  0  0  0  0  0  0  0  0  0  0  0
   44.9005    2.8256    9.6009 C   0  0  0  0  0  0  0  0  0  0  0  0
   44.5497    6.1242   11.8499 C   0  0  0  0  0  0  0  0  0  0  0  0
   44.5288    3.6615   12.6764 O   0  0  0  0  0  0  0  0  0  0  0  0
   42.6229    4.4952   11.2200 O   0  0  0  0  0  0  0  0  0  0  0  0
   44.2385    1.8863   10.0108 O   0  0  0  0  0  0  0  0  0  0  0  0
   45.7704    2.6785    8.4005 C   0  0  0  0  0  0  0  0  0  0  0  0
   45.6453    6.3794   12.6764 C   0  0  0  0  0  0  0  0  0  0  0  0
   43.8663    7.1716   11.2296 C   0  0  0  0  0  0  0  0  0  0  0  0
   45.3622    8.7638   12.2956 C   0  0  0  0  0  0  0  0  0  0  0  0
   45.8601   10.0674   12.3969 N   0  0  0  0  0  0  0  0  0  0  0  0
   44.2932    8.4853   11.4371 C   0  0  0  0  0  0  0  0  0  0  0  0
   46.0607    7.6985   12.8742 C   0  0  0  0  0  0  0  0  0  0  0  0
   46.2154    1.3919    8.0649 C   0  0  0  0  0  0  0  0  0  0  0  0
   46.1599    3.7695    7.6099 C   0  0  0  0  0  0  0  0  0  0  0  0
   46.9952    3.5714    6.5071 C   0  0  0  0  0  0  0  0  0  0  0  0
   47.0507    1.1996    6.9632 C   0  0  0  0  0  0  0  0  0  0  0  0
   47.4421    2.2896    6.1877 C   0  0  0  0  0  0  0  0  0  0  0  0
   45.6239    4.7751    9.9603 H   0  0  0  0  0  0  0  0  0  0  0  0
   46.1832    5.5669   13.1604 H   0  0  0  0  0  0  0  0  0  0  0  0
   43.0137    6.9770   10.5825 H   0  0  0  0  0  0  0  0  0  0  0  0
   46.3963   10.2381   13.2427 H   0  0  0  0  0  0  0  0  0  0  0  0
   45.1614   10.7877   12.2398 H   0  0  0  0  0  0  0  0  0  0  0  0
   43.7775    9.2953   10.9267 H   0  0  0  0  0  0  0  0  0  0  0  0
   46.9340    7.8902   13.4931 H   0  0  0  0  0  0  0  0  0  0  0  0
   45.9143    0.5333    8.6638 H   0  0  0  0  0  0  0  0  0  0  0  0
   45.7992    4.7744    7.8080 H   0  0  0  0  0  0  0  0  0  0  0  0
   47.2906    4.4157    5.8881 H   0  0  0  0  0  0  0  0  0  0  0  0
   47.3928    0.1989    6.7097 H   0  0  0  0  0  0  0  0  0  0  0  0
   48.0896    2.1377    5.3270 H   0  0  0  0  0  0  0  0  0  0  0  0
  2  1  1  0
  3  2  1  0
  4  1  1  0
  5  1  2  0
  6  1  2  0
  7  3  2  0
  8  3  1  0
  9  4  2  0
 10  4  1  0
 11 13  1  0
 12 11  1  0
 13 10  2  0
 14  9  1  0
 15  8  2  0
 16  8  1  0
 17 16  2  0
 18 15  1  0
 19 17  1  0
 11 14  2  0
 19 18  2  0
  2 20  1  0
  9 21  1  0
 10 22  1  0
 12 23  1  0
 12 24  1  0
 13 25  1  0
 14 26  1  0
 15 27  1  0
 16 28  1  0
 17 29  1  0
 18 30  1  0
 19 31  1  0
M  END
> <Uni-Dock RESULT> 
ENERGY=   -7.325  LOWER_BOUND=    0.000  UPPER_BOUND=    0.000
INTER + INTRA:          -7.325
INTER:                  -7.325
INTRA:                   0.000
UNBOUND:                 0.000

$$$$

     RDKit          3D

 31 32  0  0  0  0  0  0  0  0999 V2000
   44.0682    6.3708   11.8483 S   0  0  0  0  0  0  0  0  0  0  0  0
   45.6522    6.8829   11.9728 N   0  0  0  0  0  0  0  0  0  0  0  0
   46.0032    8.0937   12.5874 C   0  0  0  0  0  0  0  0  0  0  0  0
   44.3088    4.8667   10.9209 C   0  0  0  0  0  0  0  0  0  0  0  0
   43.3452    7.2782   10.9857 O   0  0  0  0  0  0  0  0  0  0  0  0
   43.5905    5.9839   13.1567 O   0  0  0  0  0  0  0  0  0  0  0  0
   45.1969    8.8637   13.0830 O   0  0  0  0  0  0  0  0  0  0  0  0
   47.4597    8.4067   12.5946 C   0  0  0  0  0  0  0  0  0  0  0  0
   44.2567    4.8965    9.5263 C   0  0  0  0  0  0  0  0  0  0  0  0
   44.5594    3.6724   11.5989 C   0  0  0  0  0  0  0  0  0  0  0  0
   44.6755    2.5022    9.4713 C   0  0  0  0  0  0  0  0  0  0  0  0
   45.0081    1.3538    8.7446 N   0  0  0  0  0  0  0  0  0  0  0  0
   44.7663    2.5004   10.8674 C   0  0  0  0  0  0  0  0  0  0  0  0
   44.4657    3.7164    8.8084 C   0  0  0  0  0  0  0  0  0  0  0  0
   47.8423    9.7521   12.6937 C   0  0  0  0  0  0  0  0  0  0  0  0
   48.4473    7.4155   12.4994 C   0  0  0  0  0  0  0  0  0  0  0  0
   49.7984    7.7728   12.4901 C   0  0  0  0  0  0  0  0  0  0  0  0
   49.1931   10.1036   12.6826 C   0  0  0  0  0  0  0  0  0  0  0  0
   50.1692    9.1142   12.5777 C   0  0  0  0  0  0  0  0  0  0  0  0
   46.3170    6.3770   11.4010 H   0  0  0  0  0  0  0  0  0  0  0  0
   44.0642    5.8249    8.9926 H   0  0  0  0  0  0  0  0  0  0  0  0
   44.6037    3.6452   12.6856 H   0  0  0  0  0  0  0  0  0  0  0  0
   44.6226    1.3360    7.8049 H   0  0  0  0  0  0  0  0  0  0  0  0
   44.8315    0.4865    9.2429 H   0  0  0  0  0  0  0  0  0  0  0  0
   44.9925    1.5790   11.3987 H   0  0  0  0  0  0  0  0  0  0  0  0
   44.4559    3.7504    7.7215 H   0  0  0  0  0  0  0  0  0  0  0  0
   47.0874   10.5328   12.7774 H   0  0  0  0  0  0  0  0  0  0  0  0
   48.1941    6.3600   12.4683 H   0  0  0  0  0  0  0  0  0  0  0  0
   50.5653    7.0040   12.4253 H   0  0  0  0  0  0  0  0  0  0  0  0
   49.4824   11.1493   12.7587 H   0  0  0  0  0  0  0  0  0  0  0  0
   51.2215    9.3893   12.5735 H   0  0  0  0  0  0  0  0  0  0  0  0
  2  1  1  0
  3  2  1  0
  4  1  1  0
  5  1  2  0
  6  1  2  0
  7  3  2  0
  8  3  1  0
  9  4  2  0
 10  4  1  0
 11 13  1  0
 12 11  1  0
 13 10  2  0
 14  9  1  0
 15  8  2  0
 16  8  1  0
 17 16  2  0
 18 15  1  0
 19 17  1  0
 11 14  2  0
 19 18  2  0
  2 20  1  0
  9 21  1  0
 10 22  1  0
 12 23  1  0
 12 24  1  0
 13 25  1  0
 14 26  1  0
 15 27  1  0
 16 28  1  0
 17 29  1  0
 18 30  1  0
 19 31  1  0
M  END
> <Uni-Dock RESULT> 
ENERGY=   -4.564  LOWER_BOUND=    2.777  UPPER_BOUND=    6.638
INTER + INTRA:          -4.564
INTER:                  -4.564
INTRA:                   0.000
UNBOUND:                 0.000

$$$$

     RDKit          3D

 31 32  0  0  0  0  0  0  0  0999 V2000
   47.9238    4.3352   17.4043 S   0  0  0  0  0  0  0  0  0  0  0  0
   49.4722    3.8081   17.7384 N   0  0  0  0  0  0  0  0  0  0  0  0
   49.9985    2.6297   17.1893 C   0  0  0  0  0  0  0  0  0  0  0  0
   47.8644    5.7797   18.4484 C   0  0  0  0  0  0  0  0  0  0  0  0
   46.9755    3.3902   17.9501 O   0  0  0  0  0  0  0  0  0  0  0  0
   47.8667    4.8037   16.0379 O   0  0  0  0  0  0  0  0  0  0  0  0
   49.3847    1.9014   16.4268 O   0  0  0  0  0  0  0  0  0  0  0  0
   51.3889    2.2964   17.6078 C   0  0  0  0  0  0  0  0  0  0  0  0
   47.3894    5.6704   19.7564 C   0  0  0  0  0  0  0  0  0  0  0  0
   48.3056    7.0073   17.9512 C   0  0  0  0  0  0  0  0  0  0  0  0
   47.7627    8.0511   20.0784 C   0  0  0  0  0  0  0  0  0  0  0  0
   47.8534    9.1508   20.9387 N   0  0  0  0  0  0  0  0  0  0  0  0
   48.2750    8.1320   18.7791 C   0  0  0  0  0  0  0  0  0  0  0  0
   47.3651    6.8040   20.5726 C   0  0  0  0  0  0  0  0  0  0  0  0
   51.7885    0.9536   17.5504 C   0  0  0  0  0  0  0  0  0  0  0  0
   52.2966    3.2660   18.0581 C   0  0  0  0  0  0  0  0  0  0  0  0
   53.5818    2.8891   18.4575 C   0  0  0  0  0  0  0  0  0  0  0  0
   53.0728    0.5824   17.9518 C   0  0  0  0  0  0  0  0  0  0  0  0
   53.9666    1.5497   18.4078 C   0  0  0  0  0  0  0  0  0  0  0  0
   49.9290    4.2705   18.5146 H   0  0  0  0  0  0  0  0  0  0  0  0
   47.0467    4.7157   20.1501 H   0  0  0  0  0  0  0  0  0  0  0  0
   48.6792    7.0964   16.9333 H   0  0  0  0  0  0  0  0  0  0  0  0
   47.1995    9.1201   21.7154 H   0  0  0  0  0  0  0  0  0  0  0  0
   47.8341   10.0478   20.4626 H   0  0  0  0  0  0  0  0  0  0  0  0
   48.6492    9.0792   18.3976 H   0  0  0  0  0  0  0  0  0  0  0  0
   47.0242    6.7075   21.6007 H   0  0  0  0  0  0  0  0  0  0  0  0
   51.0979    0.1901   17.1945 H   0  0  0  0  0  0  0  0  0  0  0  0
   52.0421    4.3215   18.0730 H   0  0  0  0  0  0  0  0  0  0  0  0
   54.2895    3.6417   18.7985 H   0  0  0  0  0  0  0  0  0  0  0  0
   53.3753   -0.4613   17.9056 H   0  0  0  0  0  0  0  0  0  0  0  0
   54.9685    1.2595   18.7162 H   0  0  0  0  0  0  0  0  0  0  0  0
  2  1  1  0
  3  2  1  0
  4  1  1  0
  5  1  2  0
  6  1  2  0
  7  3  2  0
  8  3  1  0
  9  4  2  0
 10  4  1  0
 11 13  1  0
 12 11  1  0
 13 10  2  0
 14  9  1  0
 15  8  2  0
 16  8  1  0
 17 16  2  0
 18 15  1  0
 19 17  1  0
 11 14  2  0
 19 18  2  0
  2 20  1  0
  9 21  1  0
 10 22  1  0
 12 23  1  0
 12 24  1  0
 13 25  1  0
 14 26  1  0
 15 27  1  0
 16 28  1  0
 17 29  1  0
 18 30  1  0
 19 31  1  0
M  END
> <Uni-Dock RESULT> 
ENERGY=   -4.460  LOWER_BOUND=    8.516  UPPER_BOUND=    9.552
INTER + INTRA:          -4.460
INTER:                  -4.460
INTRA:                   0.000
UNBOUND:                 0.000

$$$$
