
     RDKit          3D

 31 32  0  0  0  0  0  0  0  0999 V2000
   43.7581    4.1937   10.8910 S   0  0  0  0  0  0  0  0  0  0  0  0
   44.8319    4.3377   12.1530 N   0  0  0  0  0  0  0  0  0  0  0  0
   45.8867    5.2550   12.2076 C   0  0  0  0  0  0  0  0  0  0  0  0
   44.7661    3.5676    9.5733 C   0  0  0  0  0  0  0  0  0  0  0  0
   42.8566    3.1315   11.2919 O   0  0  0  0  0  0  0  0  0  0  0  0
   43.2472    5.4966   10.5323 O   0  0  0  0  0  0  0  0  0  0  0  0
   46.1591    6.0263   11.3017 O   0  0  0  0  0  0  0  0  0  0  0  0
   46.6971    5.2354   13.4582 C   0  0  0  0  0  0  0  0  0  0  0  0
   44.9233    2.1890    9.4145 C   0  0  0  0  0  0  0  0  0  0  0  0
   45.3354    4.4520    8.6566 C   0  0  0  0  0  0  0  0  0  0  0  0
   46.3321    2.5782    7.4711 C   0  0  0  0  0  0  0  0  0  0  0  0
   46.9997    2.0806    6.3469 N   0  0  0  0  0  0  0  0  0  0  0  0
   46.1033    3.9516    7.6017 C   0  0  0  0  0  0  0  0  0  0  0  0
   45.6929    1.7019    8.3542 C   0  0  0  0  0  0  0  0  0  0  0  0
   46.7585    4.1225   14.3094 C   0  0  0  0  0  0  0  0  0  0  0  0
   47.4205    6.3913   13.7867 C   0  0  0  0  0  0  0  0  0  0  0  0
   48.1839    6.4394   14.9545 C   0  0  0  0  0  0  0  0  0  0  0  0
   47.5254    4.1754   15.4769 C   0  0  0  0  0  0  0  0  0  0  0  0
   48.2333    5.3326   15.7995 C   0  0  0  0  0  0  0  0  0  0  0  0
   44.5599    3.7680   12.9445 H   0  0  0  0  0  0  0  0  0  0  0  0
   44.4387    1.4893   10.0908 H   0  0  0  0  0  0  0  0  0  0  0  0
   45.1851    5.5258    8.7530 H   0  0  0  0  0  0  0  0  0  0  0  0
   47.6673    2.7304    5.9430 H   0  0  0  0  0  0  0  0  0  0  0  0
   47.3907    1.1526    6.4725 H   0  0  0  0  0  0  0  0  0  0  0  0
   46.5222    4.6485    6.8802 H   0  0  0  0  0  0  0  0  0  0  0  0
   45.7846    0.6272    8.2175 H   0  0  0  0  0  0  0  0  0  0  0  0
   46.2487    3.1934   14.0748 H   0  0  0  0  0  0  0  0  0  0  0  0
   47.3887    7.2633   13.1348 H   0  0  0  0  0  0  0  0  0  0  0  0
   48.7396    7.3406   15.2032 H   0  0  0  0  0  0  0  0  0  0  0  0
   47.5780    3.3099   16.1340 H   0  0  0  0  0  0  0  0  0  0  0  0
   48.8299    5.3700   16.7082 H   0  0  0  0  0  0  0  0  0  0  0  0
  2  1  1  0
  3  2  1  0
  4  1  1  0
  5  1  2  0
  6  1  2  0
  7  3  2  0
  8  3  1  0
  9  4  2  0
 10  4  1  0
 11 13  1  0
 12 11  1  0
 13 10  2  0
 14  9  1  0
 15  8  2  0
 16  8  1  0
 17 16  2  0
 18 15  1  0
 19 17  1  0
 11 14  2  0
 19 18  2  0
  2 20  1  0
  9 21  1  0
 10 22  1  0
 12 23  1  0
 12 24  1  0
 13 25  1  0
 14 26  1  0
 15 27  1  0
 16 28  1  0
 17 29  1  0
 18 30  1  0
 19 31  1  0
M  END
> <Uni-Dock RESULT> 
ENERGY=   -6.060  LOWER_BOUND=    0.000  UPPER_BOUND=    0.000
INTER + INTRA:          -6.060
INTER:                  -6.060
INTRA:                   0.000
UNBOUND:                 0.000

$$$$

     RDKit          3D

 31 32  0  0  0  0  0  0  0  0999 V2000
   43.5847    4.3045   11.0603 S   0  0  0  0  0  0  0  0  0  0  0  0
   44.6875    4.4862   12.2921 N   0  0  0  0  0  0  0  0  0  0  0  0
   45.7408    5.4069   12.2959 C   0  0  0  0  0  0  0  0  0  0  0  0
   44.5631    3.6435    9.7374 C   0  0  0  0  0  0  0  0  0  0  0  0
   42.6957    3.2522   11.5122 O   0  0  0  0  0  0  0  0  0  0  0  0
   43.0619    5.5957   10.6772 O   0  0  0  0  0  0  0  0  0  0  0  0
   45.9897    6.1529   11.3625 O   0  0  0  0  0  0  0  0  0  0  0  0
   46.5804    5.4243   13.5271 C   0  0  0  0  0  0  0  0  0  0  0  0
   44.7203    2.2613    9.6138 C   0  0  0  0  0  0  0  0  0  0  0  0
   45.1082    4.5028    8.7829 C   0  0  0  0  0  0  0  0  0  0  0  0
   46.0819    2.5984    7.6275 C   0  0  0  0  0  0  0  0  0  0  0  0
   46.7242    2.0707    6.5023 N   0  0  0  0  0  0  0  0  0  0  0  0
   45.8525    3.9745    7.7247 C   0  0  0  0  0  0  0  0  0  0  0  0
   45.4661    1.7461    8.5497 C   0  0  0  0  0  0  0  0  0  0  0  0
   46.6648    4.3360   14.4076 C   0  0  0  0  0  0  0  0  0  0  0  0
   47.3082    6.5905   13.8057 C   0  0  0  0  0  0  0  0  0  0  0  0
   48.0987    6.6731   14.9534 C   0  0  0  0  0  0  0  0  0  0  0  0
   47.4589    4.4234   15.5548 C   0  0  0  0  0  0  0  0  0  0  0  0
   48.1710    5.5907   15.8278 C   0  0  0  0  0  0  0  0  0  0  0  0
   44.4357    3.9386   13.1056 H   0  0  0  0  0  0  0  0  0  0  0  0
   44.2537    1.5800   10.3208 H   0  0  0  0  0  0  0  0  0  0  0  0
   44.9574    5.5786    8.8525 H   0  0  0  0  0  0  0  0  0  0  0  0
   47.3803    2.7102    6.0646 H   0  0  0  0  0  0  0  0  0  0  0  0
   47.1206    1.1474    6.6448 H   0  0  0  0  0  0  0  0  0  0  0  0
   46.2524    4.6516    6.9742 H   0  0  0  0  0  0  0  0  0  0  0  0
   45.5574    0.6681    8.4413 H   0  0  0  0  0  0  0  0  0  0  0  0
   46.1522    3.3996   14.2114 H   0  0  0  0  0  0  0  0  0  0  0  0
   47.2587    7.4437   13.1304 H   0  0  0  0  0  0  0  0  0  0  0  0
   48.6577    7.5821   15.1634 H   0  0  0  0  0  0  0  0  0  0  0  0
   47.5293    3.5769   16.2346 H   0  0  0  0  0  0  0  0  0  0  0  0
   48.7887    5.6550   16.7208 H   0  0  0  0  0  0  0  0  0  0  0  0
  2  1  1  0
  3  2  1  0
  4  1  1  0
  5  1  2  0
  6  1  2  0
  7  3  2  0
  8  3  1  0
  9  4  2  0
 10  4  1  0
 11 13  1  0
 12 11  1  0
 13 10  2  0
 14  9  1  0
 15  8  2  0
 16  8  1  0
 17 16  2  0
 18 15  1  0
 19 17  1  0
 11 14  2  0
 19 18  2  0
  2 20  1  0
  9 21  1  0
 10 22  1  0
 12 23  1  0
 12 24  1  0
 13 25  1  0
 14 26  1  0
 15 27  1  0
 16 28  1  0
 17 29  1  0
 18 30  1  0
 19 31  1  0
M  END
> <Uni-Dock RESULT> 
ENERGY=   -5.727  LOWER_BOUND=    0.267  UPPER_BOUND=    0.267
INTER + INTRA:          -5.727
INTER:                  -5.727
INTRA:                   0.000
UNBOUND:                 0.000

$$$$

     RDKit          3D

 31 32  0  0  0  0  0  0  0  0999 V2000
   50.7138    5.2436   17.8448 S   0  0  0  0  0  0  0  0  0  0  0  0
   49.8909    5.3212   19.2882 N   0  0  0  0  0  0  0  0  0  0  0  0
   50.4906    5.3780   20.5509 C   0  0  0  0  0  0  0  0  0  0  0  0
   51.4611    3.6363   17.8925 C   0  0  0  0  0  0  0  0  0  0  0  0
   49.6786    5.2125   16.8303 O   0  0  0  0  0  0  0  0  0  0  0  0
   51.7443    6.2557   17.8141 O   0  0  0  0  0  0  0  0  0  0  0  0
   51.6972    5.3312   20.7288 O   0  0  0  0  0  0  0  0  0  0  0  0
   49.5559    5.4871   21.7066 C   0  0  0  0  0  0  0  0  0  0  0  0
   50.7651    2.5321   17.3956 C   0  0  0  0  0  0  0  0  0  0  0  0
   52.7693    3.4942   18.3561 C   0  0  0  0  0  0  0  0  0  0  0  0
   52.6557    1.1021   17.9379 C   0  0  0  0  0  0  0  0  0  0  0  0
   53.2994   -0.1356   17.8355 N   0  0  0  0  0  0  0  0  0  0  0  0
   53.3649    2.2300   18.3626 C   0  0  0  0  0  0  0  0  0  0  0  0
   51.3731    1.2735   17.4067 C   0  0  0  0  0  0  0  0  0  0  0  0
   48.2135    5.0868   21.6417 C   0  0  0  0  0  0  0  0  0  0  0  0
   50.0558    6.0209   22.9036 C   0  0  0  0  0  0  0  0  0  0  0  0
   49.2238    6.1644   24.0153 C   0  0  0  0  0  0  0  0  0  0  0  0
   47.3848    5.2314   22.7582 C   0  0  0  0  0  0  0  0  0  0  0  0
   47.8889    5.7721   23.9405 C   0  0  0  0  0  0  0  0  0  0  0  0
   48.8970    5.4524   19.1474 H   0  0  0  0  0  0  0  0  0  0  0  0
   49.7659    2.6410   16.9813 H   0  0  0  0  0  0  0  0  0  0  0  0
   53.3308    4.3572   18.7094 H   0  0  0  0  0  0  0  0  0  0  0  0
   54.0679   -0.2556   18.4882 H   0  0  0  0  0  0  0  0  0  0  0  0
   52.6705   -0.9320   17.8279 H   0  0  0  0  0  0  0  0  0  0  0  0
   54.3927    2.1353   18.7038 H   0  0  0  0  0  0  0  0  0  0  0  0
   50.8381    0.4242   16.9889 H   0  0  0  0  0  0  0  0  0  0  0  0
   47.7943    4.6309   20.7503 H   0  0  0  0  0  0  0  0  0  0  0  0
   51.0971    6.3323   22.9737 H   0  0  0  0  0  0  0  0  0  0  0  0
   49.6187    6.5818   24.9387 H   0  0  0  0  0  0  0  0  0  0  0  0
   46.3451    4.9151   22.7098 H   0  0  0  0  0  0  0  0  0  0  0  0
   47.2417    5.8824   24.8078 H   0  0  0  0  0  0  0  0  0  0  0  0
  2  1  1  0
  3  2  1  0
  4  1  1  0
  5  1  2  0
  6  1  2  0
  7  3  2  0
  8  3  1  0
  9  4  2  0
 10  4  1  0
 11 13  1  0
 12 11  1  0
 13 10  2  0
 14  9  1  0
 15  8  2  0
 16  8  1  0
 17 16  2  0
 18 15  1  0
 19 17  1  0
 11 14  2  0
 19 18  2  0
  2 20  1  0
  9 21  1  0
 10 22  1  0
 12 23  1  0
 12 24  1  0
 13 25  1  0
 14 26  1  0
 15 27  1  0
 16 28  1  0
 17 29  1  0
 18 30  1  0
 19 31  1  0
M  END
> <Uni-Dock RESULT> 
ENERGY=   -4.165  LOWER_BOUND=    8.692  UPPER_BOUND=   10.253
INTER + INTRA:          -4.165
INTER:                  -4.165
INTRA:                   0.000
UNBOUND:                 0.000

$$$$

     RDKit          3D

 31 32  0  0  0  0  0  0  0  0999 V2000
   43.1216   11.0226   10.8469 S   0  0  0  0  0  0  0  0  0  0  0  0
   43.9494    9.6966   11.4151 N   0  0  0  0  0  0  0  0  0  0  0  0
   45.2731    9.7112   11.8677 C   0  0  0  0  0  0  0  0  0  0  0  0
   43.9526   11.3955    9.3255 C   0  0  0  0  0  0  0  0  0  0  0  0
   41.8038   10.5199   10.5112 O   0  0  0  0  0  0  0  0  0  0  0  0
   43.2761   12.1266   11.7659 O   0  0  0  0  0  0  0  0  0  0  0  0
   45.9822   10.7045   11.8508 O   0  0  0  0  0  0  0  0  0  0  0  0
   45.7980    8.4116   12.3741 C   0  0  0  0  0  0  0  0  0  0  0  0
   43.5287   10.7955    8.1378 C   0  0  0  0  0  0  0  0  0  0  0  0
   44.9763   12.3434    9.3099 C   0  0  0  0  0  0  0  0  0  0  0  0
   45.2452   12.0105    6.9168 C   0  0  0  0  0  0  0  0  0  0  0  0
   45.7983   12.4169    5.6979 N   0  0  0  0  0  0  0  0  0  0  0  0
   45.6073   12.6566    8.1030 C   0  0  0  0  0  0  0  0  0  0  0  0
   44.1677   11.1189    6.9373 C   0  0  0  0  0  0  0  0  0  0  0  0
   45.2492    7.1737   12.0093 C   0  0  0  0  0  0  0  0  0  0  0  0
   46.8866    8.4459   13.2580 C   0  0  0  0  0  0  0  0  0  0  0  0
   47.4109    7.2621   13.7799 C   0  0  0  0  0  0  0  0  0  0  0  0
   45.7789    5.9910   12.5337 C   0  0  0  0  0  0  0  0  0  0  0  0
   46.8549    6.0364   13.4193 C   0  0  0  0  0  0  0  0  0  0  0  0
   43.3441    8.8917   11.5183 H   0  0  0  0  0  0  0  0  0  0  0  0
   42.6958   10.0969    8.1304 H   0  0  0  0  0  0  0  0  0  0  0  0
   45.2859   12.8426   10.2263 H   0  0  0  0  0  0  0  0  0  0  0  0
   46.7319   12.8078    5.7790 H   0  0  0  0  0  0  0  0  0  0  0  0
   45.7320   11.7238    4.9596 H   0  0  0  0  0  0  0  0  0  0  0  0
   46.3873   13.4138    8.0990 H   0  0  0  0  0  0  0  0  0  0  0  0
   43.8116   10.6726    6.0121 H   0  0  0  0  0  0  0  0  0  0  0  0
   44.4337    7.0963   11.2971 H   0  0  0  0  0  0  0  0  0  0  0  0
   47.3288    9.3980   13.5483 H   0  0  0  0  0  0  0  0  0  0  0  0
   48.2533    7.2978   14.4669 H   0  0  0  0  0  0  0  0  0  0  0  0
   45.3571    5.0304   12.2459 H   0  0  0  0  0  0  0  0  0  0  0  0
   47.2653    5.1143   13.8247 H   0  0  0  0  0  0  0  0  0  0  0  0
  2  1  1  0
  3  2  1  0
  4  1  1  0
  5  1  2  0
  6  1  2  0
  7  3  2  0
  8  3  1  0
  9  4  2  0
 10  4  1  0
 11 13  1  0
 12 11  1  0
 13 10  2  0
 14  9  1  0
 15  8  2  0
 16  8  1  0
 17 16  2  0
 18 15  1  0
 19 17  1  0
 11 14  2  0
 19 18  2  0
  2 20  1  0
  9 21  1  0
 10 22  1  0
 12 23  1  0
 12 24  1  0
 13 25  1  0
 14 26  1  0
 15 27  1  0
 16 28  1  0
 17 29  1  0
 18 30  1  0
 19 31  1  0
M  END
> <Uni-Dock RESULT> 
ENERGY=   -4.114  LOWER_BOUND=    5.842  UPPER_BOUND=    6.696
INTER + INTRA:          -4.114
INTER:                  -4.114
INTRA:                   0.000
UNBOUND:                 0.000

$$$$

     RDKit          3D

 31 32  0  0  0  0  0  0  0  0999 V2000
   43.2212   11.2388    9.9347 S   0  0  0  0  0  0  0  0  0  0  0  0
   44.2500   10.3146   10.8588 N   0  0  0  0  0  0  0  0  0  0  0  0
   44.0554    8.9642   11.1681 C   0  0  0  0  0  0  0  0  0  0  0  0
   41.7749   11.3716   10.9519 C   0  0  0  0  0  0  0  0  0  0  0  0
   43.8420   12.5481    9.8876 O   0  0  0  0  0  0  0  0  0  0  0  0
   42.8930   10.5356    8.7161 O   0  0  0  0  0  0  0  0  0  0  0  0
   43.0732    8.3267   10.8234 O   0  0  0  0  0  0  0  0  0  0  0  0
   45.1313    8.3241   11.9766 C   0  0  0  0  0  0  0  0  0  0  0  0
   41.6659   12.4178   11.8705 C   0  0  0  0  0  0  0  0  0  0  0  0
   40.7203   10.4750   10.7766 C   0  0  0  0  0  0  0  0  0  0  0  0
   39.4745   11.5996   12.5354 C   0  0  0  0  0  0  0  0  0  0  0  0
   38.2746   11.7932   13.2278 N   0  0  0  0  0  0  0  0  0  0  0  0
   39.5696   10.6028   11.5592 C   0  0  0  0  0  0  0  0  0  0  0  0
   40.5088   12.5348   12.6460 C   0  0  0  0  0  0  0  0  0  0  0  0
   46.0161    9.0548   12.7827 C   0  0  0  0  0  0  0  0  0  0  0  0
   45.2541    6.9282   11.9132 C   0  0  0  0  0  0  0  0  0  0  0  0
   46.2539    6.2732   12.6344 C   0  0  0  0  0  0  0  0  0  0  0  0
   47.0147    8.3939   13.5039 C   0  0  0  0  0  0  0  0  0  0  0  0
   47.1345    7.0068   13.4266 C   0  0  0  0  0  0  0  0  0  0  0  0
   45.1087   10.8070   11.0714 H   0  0  0  0  0  0  0  0  0  0  0  0
   42.4586   13.1542   11.9761 H   0  0  0  0  0  0  0  0  0  0  0  0
   40.7835    9.6802   10.0355 H   0  0  0  0  0  0  0  0  0  0  0  0
   37.7175   10.9505   13.3305 H   0  0  0  0  0  0  0  0  0  0  0  0
   38.3759   12.2987   14.1019 H   0  0  0  0  0  0  0  0  0  0  0  0
   38.7450    9.9132   11.3974 H   0  0  0  0  0  0  0  0  0  0  0  0
   40.4170   13.3700   13.3360 H   0  0  0  0  0  0  0  0  0  0  0  0
   45.9329   10.1312   12.8945 H   0  0  0  0  0  0  0  0  0  0  0  0
   44.5724    6.3441   11.2963 H   0  0  0  0  0  0  0  0  0  0  0  0
   46.3439    5.1908   12.5774 H   0  0  0  0  0  0  0  0  0  0  0  0
   47.6972    8.9601   14.1342 H   0  0  0  0  0  0  0  0  0  0  0  0
   47.9121    6.4955   13.9899 H   0  0  0  0  0  0  0  0  0  0  0  0
  2  1  1  0
  3  2  1  0
  4  1  1  0
  5  1  2  0
  6  1  2  0
  7  3  2  0
  8  3  1  0
  9  4  2  0
 10  4  1  0
 11 13  1  0
 12 11  1  0
 13 10  2  0
 14  9  1  0
 15  8  2  0
 16  8  1  0
 17 16  2  0
 18 15  1  0
 19 17  1  0
 11 14  2  0
 19 18  2  0
  2 20  1  0
  9 21  1  0
 10 22  1  0
 12 23  1  0
 12 24  1  0
 13 25  1  0
 14 26  1  0
 15 27  1  0
 16 28  1  0
 17 29  1  0
 18 30  1  0
 19 31  1  0
M  END
> <Uni-Dock RESULT> 
ENERGY=   -4.079  LOWER_BOUND=    6.226  UPPER_BOUND=    8.030
INTER + INTRA:          -4.079
INTER:                  -4.079
INTRA:                   0.000
UNBOUND:                 0.000

$$$$

     RDKit          3D

 31 32  0  0  0  0  0  0  0  0999 V2000
   50.0906    7.0330   16.4728 S   0  0  0  0  0  0  0  0  0  0  0  0
   49.2953    8.3144   17.1740 N   0  0  0  0  0  0  0  0  0  0  0  0
   48.3286    8.2051   18.1794 C   0  0  0  0  0  0  0  0  0  0  0  0
   48.8084    6.2104   15.5653 C   0  0  0  0  0  0  0  0  0  0  0  0
   50.9876    7.6378   15.5078 O   0  0  0  0  0  0  0  0  0  0  0  0
   50.5988    6.1519   17.4988 O   0  0  0  0  0  0  0  0  0  0  0  0
   47.9310    7.1391   18.6216 O   0  0  0  0  0  0  0  0  0  0  0  0
   47.7791    9.4923   18.6913 C   0  0  0  0  0  0  0  0  0  0  0  0
   48.5406    6.5858   14.2471 C   0  0  0  0  0  0  0  0  0  0  0  0
   48.1249    5.1418   16.1463 C   0  0  0  0  0  0  0  0  0  0  0  0
   46.8046    4.8877   14.1210 C   0  0  0  0  0  0  0  0  0  0  0  0
   45.9012    4.1417   13.3566 N   0  0  0  0  0  0  0  0  0  0  0  0
   47.1367    4.4766   15.4157 C   0  0  0  0  0  0  0  0  0  0  0  0
   47.5504    5.9112   13.5271 C   0  0  0  0  0  0  0  0  0  0  0  0
   47.8186   10.6848   17.9543 C   0  0  0  0  0  0  0  0  0  0  0  0
   47.2047    9.4952   19.9710 C   0  0  0  0  0  0  0  0  0  0  0  0
   46.6891   10.6744   20.5116 C   0  0  0  0  0  0  0  0  0  0  0  0
   47.2997   11.8626   18.4997 C   0  0  0  0  0  0  0  0  0  0  0  0
   46.7396   11.8571   19.7766 C   0  0  0  0  0  0  0  0  0  0  0  0
   49.6822    9.2028   16.8805 H   0  0  0  0  0  0  0  0  0  0  0  0
   49.1052    7.3807   13.7663 H   0  0  0  0  0  0  0  0  0  0  0  0
   48.3554    4.8197   17.1602 H   0  0  0  0  0  0  0  0  0  0  0  0
   45.2078    3.6446   13.9072 H   0  0  0  0  0  0  0  0  0  0  0  0
   45.4872    4.6542   12.5847 H   0  0  0  0  0  0  0  0  0  0  0  0
   46.6273    3.6305   15.8701 H   0  0  0  0  0  0  0  0  0  0  0  0
   47.3693    6.1871   12.4912 H   0  0  0  0  0  0  0  0  0  0  0  0
   48.2159   10.7211   16.9448 H   0  0  0  0  0  0  0  0  0  0  0  0
   47.1607    8.5773   20.5556 H   0  0  0  0  0  0  0  0  0  0  0  0
   46.2479   10.6685   21.5057 H   0  0  0  0  0  0  0  0  0  0  0  0
   47.3248   12.7864   17.9256 H   0  0  0  0  0  0  0  0  0  0  0  0
   46.3357   12.7752   20.1977 H   0  0  0  0  0  0  0  0  0  0  0  0
  2  1  1  0
  3  2  1  0
  4  1  1  0
  5  1  2  0
  6  1  2  0
  7  3  2  0
  8  3  1  0
  9  4  2  0
 10  4  1  0
 11 13  1  0
 12 11  1  0
 13 10  2  0
 14  9  1  0
 15  8  2  0
 16  8  1  0
 17 16  2  0
 18 15  1  0
 19 17  1  0
 11 14  2  0
 19 18  2  0
  2 20  1  0
  9 21  1  0
 10 22  1  0
 12 23  1  0
 12 24  1  0
 13 25  1  0
 14 26  1  0
 15 27  1  0
 16 28  1  0
 17 29  1  0
 18 30  1  0
 19 31  1  0
M  END
> <Uni-Dock RESULT> 
ENERGY=   -3.972  LOWER_BOUND=    5.607  UPPER_BOUND=    7.887
INTER + INTRA:          -3.972
INTER:                  -3.972
INTRA:                   0.000
UNBOUND:                 0.000

$$$$

     RDKit          3D

 31 32  0  0  0  0  0  0  0  0999 V2000
   48.8099    6.0107   17.8530 S   0  0  0  0  0  0  0  0  0  0  0  0
   49.0488    6.7475   16.3811 N   0  0  0  0  0  0  0  0  0  0  0  0
   48.5396    6.2872   15.1621 C   0  0  0  0  0  0  0  0  0  0  0  0
   49.7236    4.4987   17.7003 C   0  0  0  0  0  0  0  0  0  0  0  0
   49.5121    6.8494   18.8046 O   0  0  0  0  0  0  0  0  0  0  0  0
   47.4073    5.7129   18.0292 O   0  0  0  0  0  0  0  0  0  0  0  0
   47.8946    5.2577   15.0447 O   0  0  0  0  0  0  0  0  0  0  0  0
   48.8439    7.1328   13.9733 C   0  0  0  0  0  0  0  0  0  0  0  0
   51.0730    4.4638   18.0582 C   0  0  0  0  0  0  0  0  0  0  0  0
   49.0716    3.3335   17.2955 C   0  0  0  0  0  0  0  0  0  0  0  0
   51.1581    2.1010   17.4898 C   0  0  0  0  0  0  0  0  0  0  0  0
   51.8384    0.8790   17.5141 N   0  0  0  0  0  0  0  0  0  0  0  0
   49.7891    2.1376   17.2065 C   0  0  0  0  0  0  0  0  0  0  0  0
   51.7786    3.2607   17.9658 C   0  0  0  0  0  0  0  0  0  0  0  0
   49.9222    8.0285   13.9309 C   0  0  0  0  0  0  0  0  0  0  0  0
   48.0018    7.0193   12.8573 C   0  0  0  0  0  0  0  0  0  0  0  0
   48.2257    7.7983   11.7207 C   0  0  0  0  0  0  0  0  0  0  0  0
   50.1428    8.8053   12.7897 C   0  0  0  0  0  0  0  0  0  0  0  0
   49.2941    8.6921   11.6892 C   0  0  0  0  0  0  0  0  0  0  0  0
   49.5028    7.6469   16.4805 H   0  0  0  0  0  0  0  0  0  0  0  0
   51.5769    5.3536   18.4273 H   0  0  0  0  0  0  0  0  0  0  0  0
   48.0109    3.3460   17.0515 H   0  0  0  0  0  0  0  0  0  0  0  0
   51.4461    0.1766   16.8946 H   0  0  0  0  0  0  0  0  0  0  0  0
   52.8452    0.9616   17.4167 H   0  0  0  0  0  0  0  0  0  0  0  0
   49.2654    1.2313   16.9128 H   0  0  0  0  0  0  0  0  0  0  0  0
   52.8201    3.2334   18.2766 H   0  0  0  0  0  0  0  0  0  0  0  0
   50.6235    8.1198   14.7542 H   0  0  0  0  0  0  0  0  0  0  0  0
   47.1626    6.3251   12.8706 H   0  0  0  0  0  0  0  0  0  0  0  0
   47.5662    7.7061   10.8608 H   0  0  0  0  0  0  0  0  0  0  0  0
   50.9829    9.4956   12.7545 H   0  0  0  0  0  0  0  0  0  0  0  0
   49.4692    9.2973   10.8025 H   0  0  0  0  0  0  0  0  0  0  0  0
  2  1  1  0
  3  2  1  0
  4  1  1  0
  5  1  2  0
  6  1  2  0
  7  3  2  0
  8  3  1  0
  9  4  2  0
 10  4  1  0
 11 13  1  0
 12 11  1  0
 13 10  2  0
 14  9  1  0
 15  8  2  0
 16  8  1  0
 17 16  2  0
 18 15  1  0
 19 17  1  0
 11 14  2  0
 19 18  2  0
  2 20  1  0
  9 21  1  0
 10 22  1  0
 12 23  1  0
 12 24  1  0
 13 25  1  0
 14 26  1  0
 15 27  1  0
 16 28  1  0
 17 29  1  0
 18 30  1  0
 19 31  1  0
M  END
> <Uni-Dock RESULT> 
ENERGY=   -3.781  LOWER_BOUND=    5.738  UPPER_BOUND=    8.167
INTER + INTRA:          -3.781
INTER:                  -3.781
INTRA:                   0.000
UNBOUND:                 0.000

$$$$

     RDKit          3D

 31 32  0  0  0  0  0  0  0  0999 V2000
   49.5204    9.9218   14.6174 S   0  0  0  0  0  0  0  0  0  0  0  0
   48.9817   10.7477   15.9568 N   0  0  0  0  0  0  0  0  0  0  0  0
   48.1630   10.2092   16.9552 C   0  0  0  0  0  0  0  0  0  0  0  0
   48.0377    9.6633   13.6797 C   0  0  0  0  0  0  0  0  0  0  0  0
   50.3317   10.8807   13.8933 O   0  0  0  0  0  0  0  0  0  0  0  0
   50.0689    8.6464   15.0168 O   0  0  0  0  0  0  0  0  0  0  0  0
   47.7165    9.0737   16.9235 O   0  0  0  0  0  0  0  0  0  0  0  0
   47.8395   11.1214   18.0885 C   0  0  0  0  0  0  0  0  0  0  0  0
   47.6273   10.6226   12.7514 C   0  0  0  0  0  0  0  0  0  0  0  0
   47.3297    8.4692   13.8189 C   0  0  0  0  0  0  0  0  0  0  0  0
   45.7127    9.2388   12.1747 C   0  0  0  0  0  0  0  0  0  0  0  0
   44.6316    8.9685   11.3291 N   0  0  0  0  0  0  0  0  0  0  0  0
   46.1789    8.2571   13.0548 C   0  0  0  0  0  0  0  0  0  0  0  0
   46.4752   10.3972   11.9926 C   0  0  0  0  0  0  0  0  0  0  0  0
   47.9058   12.5184   17.9853 C   0  0  0  0  0  0  0  0  0  0  0  0
   47.4584   10.5406   19.3071 C   0  0  0  0  0  0  0  0  0  0  0  0
   47.1603   11.3429   20.4098 C   0  0  0  0  0  0  0  0  0  0  0  0
   47.6051   13.3174   19.0923 C   0  0  0  0  0  0  0  0  0  0  0  0
   47.2366   12.7300   20.3020 C   0  0  0  0  0  0  0  0  0  0  0  0
   49.4192   11.6571   16.0386 H   0  0  0  0  0  0  0  0  0  0  0  0
   48.2024   11.5320   12.5955 H   0  0  0  0  0  0  0  0  0  0  0  0
   47.6656    7.7013   14.5133 H   0  0  0  0  0  0  0  0  0  0  0  0
   43.9731    8.2932   11.7051 H   0  0  0  0  0  0  0  0  0  0  0  0
   44.1711    9.7965   10.9655 H   0  0  0  0  0  0  0  0  0  0  0  0
   45.6488    7.3133   13.1544 H   0  0  0  0  0  0  0  0  0  0  0  0
   46.1795   11.1332   11.2491 H   0  0  0  0  0  0  0  0  0  0  0  0
   48.1559   13.0124   17.0518 H   0  0  0  0  0  0  0  0  0  0  0  0
   47.3965    9.4575   19.4039 H   0  0  0  0  0  0  0  0  0  0  0  0
   46.8683   10.8844   21.3518 H   0  0  0  0  0  0  0  0  0  0  0  0
   47.6505   14.4013   19.0106 H   0  0  0  0  0  0  0  0  0  0  0  0
   47.0022   13.3546   21.1612 H   0  0  0  0  0  0  0  0  0  0  0  0
  2  1  1  0
  3  2  1  0
  4  1  1  0
  5  1  2  0
  6  1  2  0
  7  3  2  0
  8  3  1  0
  9  4  2  0
 10  4  1  0
 11 13  1  0
 12 11  1  0
 13 10  2  0
 14  9  1  0
 15  8  2  0
 16  8  1  0
 17 16  2  0
 18 15  1  0
 19 17  1  0
 11 14  2  0
 19 18  2  0
  2 20  1  0
  9 21  1  0
 10 22  1  0
 12 23  1  0
 12 24  1  0
 13 25  1  0
 14 26  1  0
 15 27  1  0
 16 28  1  0
 17 29  1  0
 18 30  1  0
 19 31  1  0
M  END
> <Uni-Dock RESULT> 
ENERGY=   -3.667  LOWER_BOUND=    6.342  UPPER_BOUND=    8.426
INTER + INTRA:          -3.667
INTER:                  -3.667
INTRA:                   0.000
UNBOUND:                 0.000

$$$$

     RDKit          3D

 31 32  0  0  0  0  0  0  0  0999 V2000
   50.2448    8.1034   15.4590 S   0  0  0  0  0  0  0  0  0  0  0  0
   49.4120    9.1043   16.4939 N   0  0  0  0  0  0  0  0  0  0  0  0
   48.4470    8.6818   17.4144 C   0  0  0  0  0  0  0  0  0  0  0  0
   48.9883    7.5460   14.3388 C   0  0  0  0  0  0  0  0  0  0  0  0
   51.1261    8.9862   14.7202 O   0  0  0  0  0  0  0  0  0  0  0  0
   50.7760    6.9762   16.1901 O   0  0  0  0  0  0  0  0  0  0  0  0
   48.0790    7.5232   17.5241 O   0  0  0  0  0  0  0  0  0  0  0  0
   47.8600    9.7498   18.2724 C   0  0  0  0  0  0  0  0  0  0  0  0
   48.7124    8.2809   13.1837 C   0  0  0  0  0  0  0  0  0  0  0  0
   48.3344    6.3369   14.5777 C   0  0  0  0  0  0  0  0  0  0  0  0
   47.0257    6.6469   12.5526 C   0  0  0  0  0  0  0  0  0  0  0  0
   46.1454    6.1312   11.5955 N   0  0  0  0  0  0  0  0  0  0  0  0
   47.3669    5.8865   13.6755 C   0  0  0  0  0  0  0  0  0  0  0  0
   47.7432    7.8183   12.2890 C   0  0  0  0  0  0  0  0  0  0  0  0
   47.8670   11.1055   17.9137 C   0  0  0  0  0  0  0  0  0  0  0  0
   47.2834    9.3655   19.4919 C   0  0  0  0  0  0  0  0  0  0  0  0
   46.7333   10.3227   20.3464 C   0  0  0  0  0  0  0  0  0  0  0  0
   47.3137   12.0599   18.7723 C   0  0  0  0  0  0  0  0  0  0  0  0
   46.7515   11.6687   19.9869 C   0  0  0  0  0  0  0  0  0  0  0  0
   49.7740   10.0496   16.4748 H   0  0  0  0  0  0  0  0  0  0  0  0
   49.2551    9.1960   12.9601 H   0  0  0  0  0  0  0  0  0  0  0  0
   48.5720    5.7404   15.4567 H   0  0  0  0  0  0  0  0  0  0  0  0
   45.4653    5.4774   11.9711 H   0  0  0  0  0  0  0  0  0  0  0  0
   45.7184    6.8346   11.0015 H   0  0  0  0  0  0  0  0  0  0  0  0
   46.8810    4.9316   13.8596 H   0  0  0  0  0  0  0  0  0  0  0  0
   47.5563    8.3782   11.3760 H   0  0  0  0  0  0  0  0  0  0  0  0
   48.2650   11.4441   16.9623 H   0  0  0  0  0  0  0  0  0  0  0  0
   47.2644    8.3165   19.7844 H   0  0  0  0  0  0  0  0  0  0  0  0
   46.2907   10.0165   21.2915 H   0  0  0  0  0  0  0  0  0  0  0  0
   47.3136   13.1109   18.4913 H   0  0  0  0  0  0  0  0  0  0  0  0
   46.3209   12.4138   20.6523 H   0  0  0  0  0  0  0  0  0  0  0  0
  2  1  1  0
  3  2  1  0
  4  1  1  0
  5  1  2  0
  6  1  2  0
  7  3  2  0
  8  3  1  0
  9  4  2  0
 10  4  1  0
 11 13  1  0
 12 11  1  0
 13 10  2  0
 14  9  1  0
 15  8  2  0
 16  8  1  0
 17 16  2  0
 18 15  1  0
 19 17  1  0
 11 14  2  0
 19 18  2  0
  2 20  1  0
  9 21  1  0
 10 22  1  0
 12 23  1  0
 12 24  1  0
 13 25  1  0
 14 26  1  0
 15 27  1  0
 16 28  1  0
 17 29  1  0
 18 30  1  0
 19 31  1  0
M  END
> <Uni-Dock RESULT> 
ENERGY=   -3.656  LOWER_BOUND=    5.388  UPPER_BOUND=    7.682
INTER + INTRA:          -3.656
INTER:                  -3.656
INTRA:                   0.000
UNBOUND:                 0.000

$$$$
