
     RDKit          3D

 31 32  0  0  0  0  0  0  0  0999 V2000
   43.7668    4.7447   10.8186 S   0  0  0  0  0  0  0  0  0  0  0  0
   44.6534    4.2559    9.4991 N   0  0  0  0  0  0  0  0  0  0  0  0
   45.3963    3.0727    9.4260 C   0  0  0  0  0  0  0  0  0  0  0  0
   45.0107    5.0985   12.0318 C   0  0  0  0  0  0  0  0  0  0  0  0
   43.1760    6.0073   10.4199 O   0  0  0  0  0  0  0  0  0  0  0  0
   42.9361    3.6566   11.2804 O   0  0  0  0  0  0  0  0  0  0  0  0
   45.5080    2.2865   10.3530 O   0  0  0  0  0  0  0  0  0  0  0  0
   46.0787    2.8164    8.1261 C   0  0  0  0  0  0  0  0  0  0  0  0
   45.5652    6.3782   12.1047 C   0  0  0  0  0  0  0  0  0  0  0  0
   45.3748    4.1191   12.9564 C   0  0  0  0  0  0  0  0  0  0  0  0
   46.9524    5.6659   13.9705 C   0  0  0  0  0  0  0  0  0  0  0  0
   47.8194    5.9879   15.0200 N   0  0  0  0  0  0  0  0  0  0  0  0
   46.3331    4.4127   13.9301 C   0  0  0  0  0  0  0  0  0  0  0  0
   46.5218    6.6588   13.0845 C   0  0  0  0  0  0  0  0  0  0  0  0
   46.3874    3.8354    7.2134 C   0  0  0  0  0  0  0  0  0  0  0  0
   46.4158    1.4909    7.8147 C   0  0  0  0  0  0  0  0  0  0  0  0
   47.0404    1.1863    6.6041 C   0  0  0  0  0  0  0  0  0  0  0  0
   47.0141    3.5251    6.0030 C   0  0  0  0  0  0  0  0  0  0  0  0
   47.3364    2.2031    5.6986 C   0  0  0  0  0  0  0  0  0  0  0  0
   44.4937    4.8528    8.6971 H   0  0  0  0  0  0  0  0  0  0  0  0
   45.2484    7.1646   11.4242 H   0  0  0  0  0  0  0  0  0  0  0  0
   44.9184    3.1313   12.9286 H   0  0  0  0  0  0  0  0  0  0  0  0
   48.3041    5.1876   15.4144 H   0  0  0  0  0  0  0  0  0  0  0  0
   48.4471    6.7596   14.8188 H   0  0  0  0  0  0  0  0  0  0  0  0
   46.5915    3.6494   14.6598 H   0  0  0  0  0  0  0  0  0  0  0  0
   46.9256    7.6657   13.1561 H   0  0  0  0  0  0  0  0  0  0  0  0
   46.1827    4.8792    7.4296 H   0  0  0  0  0  0  0  0  0  0  0  0
   46.1883    0.6874    8.5139 H   0  0  0  0  0  0  0  0  0  0  0  0
   47.2958    0.1555    6.3692 H   0  0  0  0  0  0  0  0  0  0  0  0
   47.2592    4.3163    5.2977 H   0  0  0  0  0  0  0  0  0  0  0  0
   47.8249    1.9652    4.7563 H   0  0  0  0  0  0  0  0  0  0  0  0
  2  1  1  0
  3  2  1  0
  4  1  1  0
  5  1  2  0
  6  1  2  0
  7  3  2  0
  8  3  1  0
  9  4  2  0
 10  4  1  0
 11 13  1  0
 12 11  1  0
 13 10  2  0
 14  9  1  0
 15  8  2  0
 16  8  1  0
 17 16  2  0
 18 15  1  0
 19 17  1  0
 11 14  2  0
 19 18  2  0
  2 20  1  0
  9 21  1  0
 10 22  1  0
 12 23  1  0
 12 24  1  0
 13 25  1  0
 14 26  1  0
 15 27  1  0
 16 28  1  0
 17 29  1  0
 18 30  1  0
 19 31  1  0
M  END
> <Uni-Dock RESULT> 
ENERGY=   -6.137  LOWER_BOUND=    0.000  UPPER_BOUND=    0.000
INTER + INTRA:          -6.137
INTER:                  -6.137
INTRA:                   0.000
UNBOUND:                 0.000

$$$$

     RDKit          3D

 31 32  0  0  0  0  0  0  0  0999 V2000
   43.7733    4.3817   10.8880 S   0  0  0  0  0  0  0  0  0  0  0  0
   44.8465    4.5273   12.1503 N   0  0  0  0  0  0  0  0  0  0  0  0
   45.9334    5.4077   12.1811 C   0  0  0  0  0  0  0  0  0  0  0  0
   44.7634    3.6782    9.5960 C   0  0  0  0  0  0  0  0  0  0  0  0
   42.8326    3.3657   11.3178 O   0  0  0  0  0  0  0  0  0  0  0  0
   43.3109    5.6899   10.4855 O   0  0  0  0  0  0  0  0  0  0  0  0
   46.2369    6.1394   11.2526 O   0  0  0  0  0  0  0  0  0  0  0  0
   46.7375    5.3990   13.4358 C   0  0  0  0  0  0  0  0  0  0  0  0
   44.8716    2.2905    9.4818 C   0  0  0  0  0  0  0  0  0  0  0  0
   45.3677    4.5120    8.6546 C   0  0  0  0  0  0  0  0  0  0  0  0
   46.3012    2.5669    7.5342 C   0  0  0  0  0  0  0  0  0  0  0  0
   46.9550    2.0102    6.4299 N   0  0  0  0  0  0  0  0  0  0  0  0
   46.1213    3.9511    7.6201 C   0  0  0  0  0  0  0  0  0  0  0  0
   45.6275    1.7426    8.4414 C   0  0  0  0  0  0  0  0  0  0  0  0
   46.7556    4.3123   14.3222 C   0  0  0  0  0  0  0  0  0  0  0  0
   47.5007    6.5382   13.7312 C   0  0  0  0  0  0  0  0  0  0  0  0
   48.2606    6.5962   14.9007 C   0  0  0  0  0  0  0  0  0  0  0  0
   47.5193    4.3750   15.4914 C   0  0  0  0  0  0  0  0  0  0  0  0
   48.2669    5.5158   15.7806 C   0  0  0  0  0  0  0  0  0  0  0  0
   44.5511    3.9933   12.9581 H   0  0  0  0  0  0  0  0  0  0  0  0
   44.3596    1.6305   10.1775 H   0  0  0  0  0  0  0  0  0  0  0  0
   45.2557    5.5930    8.7161 H   0  0  0  0  0  0  0  0  0  0  0  0
   47.6470    2.6225    6.0089 H   0  0  0  0  0  0  0  0  0  0  0  0
   47.3119    1.0733    6.5869 H   0  0  0  0  0  0  0  0  0  0  0  0
   46.5678    4.6092    6.8789 H   0  0  0  0  0  0  0  0  0  0  0  0
   45.6811    0.6616    8.3394 H   0  0  0  0  0  0  0  0  0  0  0  0
   46.2137    3.3951   14.1146 H   0  0  0  0  0  0  0  0  0  0  0  0
   47.5028    7.3895   13.0517 H   0  0  0  0  0  0  0  0  0  0  0  0
   48.8474    7.4844   15.1235 H   0  0  0  0  0  0  0  0  0  0  0  0
   47.5382    3.5296   16.1758 H   0  0  0  0  0  0  0  0  0  0  0  0
   48.8609    5.5609   16.6908 H   0  0  0  0  0  0  0  0  0  0  0  0
  2  1  1  0
  3  2  1  0
  4  1  1  0
  5  1  2  0
  6  1  2  0
  7  3  2  0
  8  3  1  0
  9  4  2  0
 10  4  1  0
 11 13  1  0
 12 11  1  0
 13 10  2  0
 14  9  1  0
 15  8  2  0
 16  8  1  0
 17 16  2  0
 18 15  1  0
 19 17  1  0
 11 14  2  0
 19 18  2  0
  2 20  1  0
  9 21  1  0
 10 22  1  0
 12 23  1  0
 12 24  1  0
 13 25  1  0
 14 26  1  0
 15 27  1  0
 16 28  1  0
 17 29  1  0
 18 30  1  0
 19 31  1  0
M  END
> <Uni-Dock RESULT> 
ENERGY=   -6.095  LOWER_BOUND=    1.757  UPPER_BOUND=    6.410
INTER + INTRA:          -6.095
INTER:                  -6.095
INTRA:                   0.000
UNBOUND:                 0.000

$$$$

     RDKit          3D

 31 32  0  0  0  0  0  0  0  0999 V2000
   43.2536   11.1489   10.9139 S   0  0  0  0  0  0  0  0  0  0  0  0
   44.0021    9.7722   11.4712 N   0  0  0  0  0  0  0  0  0  0  0  0
   45.3448    9.6891   11.8552 C   0  0  0  0  0  0  0  0  0  0  0  0
   44.0302   11.4227    9.3435 C   0  0  0  0  0  0  0  0  0  0  0  0
   41.8841   10.7475   10.6581 O   0  0  0  0  0  0  0  0  0  0  0  0
   43.5436   12.2552   11.7966 O   0  0  0  0  0  0  0  0  0  0  0  0
   46.1287   10.6214   11.7781 O   0  0  0  0  0  0  0  0  0  0  0  0
   45.7907    8.3618   12.3658 C   0  0  0  0  0  0  0  0  0  0  0  0
   43.4978   10.8351    8.1939 C   0  0  0  0  0  0  0  0  0  0  0  0
   45.1238   12.2844    9.2525 C   0  0  0  0  0  0  0  0  0  0  0  0
   45.2386   11.8827    6.8577 C   0  0  0  0  0  0  0  0  0  0  0  0
   45.7572   12.2184    5.6026 N   0  0  0  0  0  0  0  0  0  0  0  0
   45.7131   12.5213    8.0078 C   0  0  0  0  0  0  0  0  0  0  0  0
   44.0962   11.0815    6.9549 C   0  0  0  0  0  0  0  0  0  0  0  0
   45.1266    7.1651   12.0597 C   0  0  0  0  0  0  0  0  0  0  0  0
   46.9236    8.3261   13.1920 C   0  0  0  0  0  0  0  0  0  0  0  0
   47.3790    7.1146   13.7151 C   0  0  0  0  0  0  0  0  0  0  0  0
   45.5875    5.9544   12.5851 C   0  0  0  0  0  0  0  0  0  0  0  0
   46.7090    5.9307   13.4133 C   0  0  0  0  0  0  0  0  0  0  0  0
   43.3409    9.0210   11.6248 H   0  0  0  0  0  0  0  0  0  0  0  0
   42.6127   10.2060    8.2459 H   0  0  0  0  0  0  0  0  0  0  0  0
   45.5200   12.7755   10.1395 H   0  0  0  0  0  0  0  0  0  0  0  0
   46.7219   12.5343    5.6265 H   0  0  0  0  0  0  0  0  0  0  0  0
   45.5972   11.5181    4.8858 H   0  0  0  0  0  0  0  0  0  0  0  0
   46.5496   13.2128    7.9456 H   0  0  0  0  0  0  0  0  0  0  0  0
   43.6575   10.6468    6.0601 H   0  0  0  0  0  0  0  0  0  0  0  0
   44.2712    7.1395   11.3921 H   0  0  0  0  0  0  0  0  0  0  0  0
   47.4549    9.2450   13.4361 H   0  0  0  0  0  0  0  0  0  0  0  0
   48.2566    7.0961   14.3572 H   0  0  0  0  0  0  0  0  0  0  0  0
   45.0761    5.0253   12.3426 H   0  0  0  0  0  0  0  0  0  0  0  0
   47.0656    4.9868   13.8196 H   0  0  0  0  0  0  0  0  0  0  0  0
  2  1  1  0
  3  2  1  0
  4  1  1  0
  5  1  2  0
  6  1  2  0
  7  3  2  0
  8  3  1  0
  9  4  2  0
 10  4  1  0
 11 13  1  0
 12 11  1  0
 13 10  2  0
 14  9  1  0
 15  8  2  0
 16  8  1  0
 17 16  2  0
 18 15  1  0
 19 17  1  0
 11 14  2  0
 19 18  2  0
  2 20  1  0
  9 21  1  0
 10 22  1  0
 12 23  1  0
 12 24  1  0
 13 25  1  0
 14 26  1  0
 15 27  1  0
 16 28  1  0
 17 29  1  0
 18 30  1  0
 19 31  1  0
M  END
> <Uni-Dock RESULT> 
ENERGY=   -4.129  LOWER_BOUND=    5.509  UPPER_BOUND=    8.027
INTER + INTRA:          -4.129
INTER:                  -4.129
INTRA:                   0.000
UNBOUND:                 0.000

$$$$

     RDKit          3D

 31 32  0  0  0  0  0  0  0  0999 V2000
   46.0108    8.7305   12.2756 S   0  0  0  0  0  0  0  0  0  0  0  0
   45.6926    7.3871   11.3479 N   0  0  0  0  0  0  0  0  0  0  0  0
   45.5758    6.0826   11.8395 C   0  0  0  0  0  0  0  0  0  0  0  0
   47.6796    8.4638   12.8125 C   0  0  0  0  0  0  0  0  0  0  0  0
   46.0272    9.8338   11.3352 O   0  0  0  0  0  0  0  0  0  0  0  0
   45.1315    8.7531   13.4217 O   0  0  0  0  0  0  0  0  0  0  0  0
   45.7416    5.7846   13.0114 O   0  0  0  0  0  0  0  0  0  0  0  0
   45.2431    5.0381   10.8298 C   0  0  0  0  0  0  0  0  0  0  0  0
   48.7421    8.9231   12.0311 C   0  0  0  0  0  0  0  0  0  0  0  0
   47.9219    7.8641   14.0488 C   0  0  0  0  0  0  0  0  0  0  0  0
   50.3155    8.0712   13.6778 C   0  0  0  0  0  0  0  0  0  0  0  0
   51.6226    7.9970   14.1708 N   0  0  0  0  0  0  0  0  0  0  0  0
   49.2384    7.6842   14.4815 C   0  0  0  0  0  0  0  0  0  0  0  0
   50.0541    8.7380   12.4764 C   0  0  0  0  0  0  0  0  0  0  0  0
   45.4921    5.1965    9.4588 C   0  0  0  0  0  0  0  0  0  0  0  0
   44.6503    3.8520   11.2871 C   0  0  0  0  0  0  0  0  0  0  0  0
   44.2998    2.8443   10.3868 C   0  0  0  0  0  0  0  0  0  0  0  0
   45.1404    4.1838    8.5616 C   0  0  0  0  0  0  0  0  0  0  0  0
   44.5427    3.0124    9.0252 C   0  0  0  0  0  0  0  0  0  0  0  0
   45.4639    7.6353   10.3934 H   0  0  0  0  0  0  0  0  0  0  0  0
   48.5628    9.4409   11.0922 H   0  0  0  0  0  0  0  0  0  0  0  0
   47.0970    7.5381   14.6798 H   0  0  0  0  0  0  0  0  0  0  0  0
   51.7621    7.2643   14.8598 H   0  0  0  0  0  0  0  0  0  0  0  0
   52.3385    7.9929   13.4516 H   0  0  0  0  0  0  0  0  0  0  0  0
   49.4145    7.2374   15.4567 H   0  0  0  0  0  0  0  0  0  0  0  0
   50.8750    9.1265   11.8788 H   0  0  0  0  0  0  0  0  0  0  0  0
   45.9859    6.0791    9.0647 H   0  0  0  0  0  0  0  0  0  0  0  0
   44.4542    3.7096   12.3490 H   0  0  0  0  0  0  0  0  0  0  0  0
   43.8380    1.9288   10.7495 H   0  0  0  0  0  0  0  0  0  0  0  0
   45.3392    4.3040    7.4988 H   0  0  0  0  0  0  0  0  0  0  0  0
   44.2712    2.2259    8.3245 H   0  0  0  0  0  0  0  0  0  0  0  0
  2  1  1  0
  3  2  1  0
  4  1  1  0
  5  1  2  0
  6  1  2  0
  7  3  2  0
  8  3  1  0
  9  4  2  0
 10  4  1  0
 11 13  1  0
 12 11  1  0
 13 10  2  0
 14  9  1  0
 15  8  2  0
 16  8  1  0
 17 16  2  0
 18 15  1  0
 19 17  1  0
 11 14  2  0
 19 18  2  0
  2 20  1  0
  9 21  1  0
 10 22  1  0
 12 23  1  0
 12 24  1  0
 13 25  1  0
 14 26  1  0
 15 27  1  0
 16 28  1  0
 17 29  1  0
 18 30  1  0
 19 31  1  0
M  END
> <Uni-Dock RESULT> 
ENERGY=   -4.100  LOWER_BOUND=    3.171  UPPER_BOUND=    4.334
INTER + INTRA:          -4.100
INTER:                  -4.100
INTRA:                   0.000
UNBOUND:                 0.000

$$$$

     RDKit          3D

 31 32  0  0  0  0  0  0  0  0999 V2000
   43.2219   11.2384    9.9347 S   0  0  0  0  0  0  0  0  0  0  0  0
   44.2506   10.3142   10.8589 N   0  0  0  0  0  0  0  0  0  0  0  0
   44.0559    8.9638   11.1683 C   0  0  0  0  0  0  0  0  0  0  0  0
   41.7755   11.3713   10.9518 C   0  0  0  0  0  0  0  0  0  0  0  0
   43.8427   12.5477    9.8876 O   0  0  0  0  0  0  0  0  0  0  0  0
   42.8937   10.5351    8.7162 O   0  0  0  0  0  0  0  0  0  0  0  0
   43.0737    8.3264   10.8236 O   0  0  0  0  0  0  0  0  0  0  0  0
   45.1317    8.3237   11.9768 C   0  0  0  0  0  0  0  0  0  0  0  0
   41.6665   12.4175   11.8704 C   0  0  0  0  0  0  0  0  0  0  0  0
   40.7208   10.4747   10.7765 C   0  0  0  0  0  0  0  0  0  0  0  0
   39.4751   11.5995   12.5352 C   0  0  0  0  0  0  0  0  0  0  0  0
   38.2751   11.7932   13.2276 N   0  0  0  0  0  0  0  0  0  0  0  0
   39.5701   10.6026   11.5591 C   0  0  0  0  0  0  0  0  0  0  0  0
   40.5094   12.5347   12.6459 C   0  0  0  0  0  0  0  0  0  0  0  0
   46.0165    9.0545   12.7830 C   0  0  0  0  0  0  0  0  0  0  0  0
   45.2545    6.9279   11.9136 C   0  0  0  0  0  0  0  0  0  0  0  0
   46.2542    6.2729   12.6348 C   0  0  0  0  0  0  0  0  0  0  0  0
   47.0151    8.3936   13.5043 C   0  0  0  0  0  0  0  0  0  0  0  0
   47.1349    7.0065   13.4271 C   0  0  0  0  0  0  0  0  0  0  0  0
   45.1093   10.8066   11.0715 H   0  0  0  0  0  0  0  0  0  0  0  0
   42.4592   13.1539   11.9759 H   0  0  0  0  0  0  0  0  0  0  0  0
   40.7841    9.6799   10.0356 H   0  0  0  0  0  0  0  0  0  0  0  0
   37.7180   10.9505   13.3303 H   0  0  0  0  0  0  0  0  0  0  0  0
   38.3764   12.2987   14.1017 H   0  0  0  0  0  0  0  0  0  0  0  0
   38.7455    9.9130   11.3973 H   0  0  0  0  0  0  0  0  0  0  0  0
   40.4176   13.3699   13.3357 H   0  0  0  0  0  0  0  0  0  0  0  0
   45.9334   10.1309   12.8947 H   0  0  0  0  0  0  0  0  0  0  0  0
   44.5729    6.3437   11.2967 H   0  0  0  0  0  0  0  0  0  0  0  0
   46.3442    5.1905   12.5780 H   0  0  0  0  0  0  0  0  0  0  0  0
   47.6976    8.9598   14.1345 H   0  0  0  0  0  0  0  0  0  0  0  0
   47.9124    6.4953   13.9904 H   0  0  0  0  0  0  0  0  0  0  0  0
  2  1  1  0
  3  2  1  0
  4  1  1  0
  5  1  2  0
  6  1  2  0
  7  3  2  0
  8  3  1  0
  9  4  2  0
 10  4  1  0
 11 13  1  0
 12 11  1  0
 13 10  2  0
 14  9  1  0
 15  8  2  0
 16  8  1  0
 17 16  2  0
 18 15  1  0
 19 17  1  0
 11 14  2  0
 19 18  2  0
  2 20  1  0
  9 21  1  0
 10 22  1  0
 12 23  1  0
 12 24  1  0
 13 25  1  0
 14 26  1  0
 15 27  1  0
 16 28  1  0
 17 29  1  0
 18 30  1  0
 19 31  1  0
M  END
> <Uni-Dock RESULT> 
ENERGY=   -4.079  LOWER_BOUND=    5.654  UPPER_BOUND=    7.916
INTER + INTRA:          -4.079
INTER:                  -4.079
INTRA:                   0.000
UNBOUND:                 0.000

$$$$

     RDKit          3D

 31 32  0  0  0  0  0  0  0  0999 V2000
   48.6715    7.6676   12.6287 S   0  0  0  0  0  0  0  0  0  0  0  0
   47.4444    6.5558   12.4727 N   0  0  0  0  0  0  0  0  0  0  0  0
   46.0929    6.8122   12.7274 C   0  0  0  0  0  0  0  0  0  0  0  0
   48.7452    7.9440   14.3787 C   0  0  0  0  0  0  0  0  0  0  0  0
   49.8723    6.9485   12.2506 O   0  0  0  0  0  0  0  0  0  0  0  0
   48.3074    8.8953   11.9599 O   0  0  0  0  0  0  0  0  0  0  0  0
   45.6740    7.8822   13.1391 O   0  0  0  0  0  0  0  0  0  0  0  0
   45.1607    5.6765   12.4781 C   0  0  0  0  0  0  0  0  0  0  0  0
   49.5618    7.1380   15.1750 C   0  0  0  0  0  0  0  0  0  0  0  0
   48.0464    9.0126   14.9412 C   0  0  0  0  0  0  0  0  0  0  0  0
   48.8866    8.4025   17.1393 C   0  0  0  0  0  0  0  0  0  0  0  0
   49.0627    8.7141   18.4916 N   0  0  0  0  0  0  0  0  0  0  0  0
   48.1325    9.2451   16.3164 C   0  0  0  0  0  0  0  0  0  0  0  0
   49.6399    7.3823   16.5491 C   0  0  0  0  0  0  0  0  0  0  0  0
   45.5771    4.3374   12.4647 C   0  0  0  0  0  0  0  0  0  0  0  0
   43.8111    5.9778   12.2432 C   0  0  0  0  0  0  0  0  0  0  0  0
   42.8935    4.9577   11.9861 C   0  0  0  0  0  0  0  0  0  0  0  0
   44.6540    3.3195   12.2081 C   0  0  0  0  0  0  0  0  0  0  0  0
   43.3164    3.6302   11.9661 C   0  0  0  0  0  0  0  0  0  0  0  0
   47.7679    5.6966   12.0460 H   0  0  0  0  0  0  0  0  0  0  0  0
   50.1534    6.3371   14.7386 H   0  0  0  0  0  0  0  0  0  0  0  0
   47.4382    9.6677   14.3200 H   0  0  0  0  0  0  0  0  0  0  0  0
   48.2926    9.2367   18.8977 H   0  0  0  0  0  0  0  0  0  0  0  0
   49.3411    7.9259   19.0670 H   0  0  0  0  0  0  0  0  0  0  0  0
   47.6027   10.0947   16.7398 H   0  0  0  0  0  0  0  0  0  0  0  0
   50.3021    6.7717   17.1578 H   0  0  0  0  0  0  0  0  0  0  0  0
   46.6023    4.0544   12.6817 H   0  0  0  0  0  0  0  0  0  0  0  0
   43.4688    7.0118   12.2549 H   0  0  0  0  0  0  0  0  0  0  0  0
   41.8493    5.2002   11.8022 H   0  0  0  0  0  0  0  0  0  0  0  0
   44.9758    2.2803   12.2038 H   0  0  0  0  0  0  0  0  0  0  0  0
   42.6005    2.8357   11.7677 H   0  0  0  0  0  0  0  0  0  0  0  0
  2  1  1  0
  3  2  1  0
  4  1  1  0
  5  1  2  0
  6  1  2  0
  7  3  2  0
  8  3  1  0
  9  4  2  0
 10  4  1  0
 11 13  1  0
 12 11  1  0
 13 10  2  0
 14  9  1  0
 15  8  2  0
 16  8  1  0
 17 16  2  0
 18 15  1  0
 19 17  1  0
 11 14  2  0
 19 18  2  0
  2 20  1  0
  9 21  1  0
 10 22  1  0
 12 23  1  0
 12 24  1  0
 13 25  1  0
 14 26  1  0
 15 27  1  0
 16 28  1  0
 17 29  1  0
 18 30  1  0
 19 31  1  0
M  END
> <Uni-Dock RESULT> 
ENERGY=   -4.056  LOWER_BOUND=    4.448  UPPER_BOUND=    5.976
INTER + INTRA:          -4.056
INTER:                  -4.056
INTRA:                   0.000
UNBOUND:                 0.000

$$$$

     RDKit          3D

 31 32  0  0  0  0  0  0  0  0999 V2000
   50.0785    7.0249   16.4215 S   0  0  0  0  0  0  0  0  0  0  0  0
   49.2890    8.3050   17.1317 N   0  0  0  0  0  0  0  0  0  0  0  0
   48.3301    8.1935   18.1443 C   0  0  0  0  0  0  0  0  0  0  0  0
   48.7892    6.2048   15.5219 C   0  0  0  0  0  0  0  0  0  0  0  0
   50.9683    7.6317   15.4510 O   0  0  0  0  0  0  0  0  0  0  0  0
   50.5944    6.1413   17.4415 O   0  0  0  0  0  0  0  0  0  0  0  0
   47.9356    7.1267   18.5870 O   0  0  0  0  0  0  0  0  0  0  0  0
   47.7849    9.4798   18.6633 C   0  0  0  0  0  0  0  0  0  0  0  0
   48.5113    6.5833   14.2067 C   0  0  0  0  0  0  0  0  0  0  0  0
   48.1098    5.1350   16.1057 C   0  0  0  0  0  0  0  0  0  0  0  0
   46.7738    4.8860   14.0900 C   0  0  0  0  0  0  0  0  0  0  0  0
   45.8644    4.1420   13.3309 N   0  0  0  0  0  0  0  0  0  0  0  0
   47.1158    4.4718   15.3812 C   0  0  0  0  0  0  0  0  0  0  0  0
   47.5154    5.9106   13.4928 C   0  0  0  0  0  0  0  0  0  0  0  0
   47.8192   10.6739   17.9288 C   0  0  0  0  0  0  0  0  0  0  0  0
   47.2204    9.4799   19.9474 C   0  0  0  0  0  0  0  0  0  0  0  0
   46.7093   10.6580   20.4947 C   0  0  0  0  0  0  0  0  0  0  0  0
   47.3048   11.8507   18.4809 C   0  0  0  0  0  0  0  0  0  0  0  0
   46.7545   11.8424   19.7621 C   0  0  0  0  0  0  0  0  0  0  0  0
   49.6739    9.1939   16.8372 H   0  0  0  0  0  0  0  0  0  0  0  0
   49.0724    7.3792   13.7234 H   0  0  0  0  0  0  0  0  0  0  0  0
   48.3480    4.8105   17.1171 H   0  0  0  0  0  0  0  0  0  0  0  0
   45.1750    3.6439   13.8857 H   0  0  0  0  0  0  0  0  0  0  0  0
   45.4446    4.6564   12.5635 H   0  0  0  0  0  0  0  0  0  0  0  0
   46.6097    3.6248   15.8376 H   0  0  0  0  0  0  0  0  0  0  0  0
   47.3264    6.1890   12.4590 H   0  0  0  0  0  0  0  0  0  0  0  0
   48.2086   10.7125   16.9164 H   0  0  0  0  0  0  0  0  0  0  0  0
   47.1806    8.5606   20.5302 H   0  0  0  0  0  0  0  0  0  0  0  0
   46.2758   10.6499   21.4922 H   0  0  0  0  0  0  0  0  0  0  0  0
   47.3257   12.7757   17.9087 H   0  0  0  0  0  0  0  0  0  0  0  0
   46.3542   12.7595   20.1884 H   0  0  0  0  0  0  0  0  0  0  0  0
  2  1  1  0
  3  2  1  0
  4  1  1  0
  5  1  2  0
  6  1  2  0
  7  3  2  0
  8  3  1  0
  9  4  2  0
 10  4  1  0
 11 13  1  0
 12 11  1  0
 13 10  2  0
 14  9  1  0
 15  8  2  0
 16  8  1  0
 17 16  2  0
 18 15  1  0
 19 17  1  0
 11 14  2  0
 19 18  2  0
  2 20  1  0
  9 21  1  0
 10 22  1  0
 12 23  1  0
 12 24  1  0
 13 25  1  0
 14 26  1  0
 15 27  1  0
 16 28  1  0
 17 29  1  0
 18 30  1  0
 19 31  1  0
M  END
> <Uni-Dock RESULT> 
ENERGY=   -3.974  LOWER_BOUND=    6.307  UPPER_BOUND=   10.206
INTER + INTRA:          -3.974
INTER:                  -3.974
INTRA:                   0.000
UNBOUND:                 0.000

$$$$

     RDKit          3D

 31 32  0  0  0  0  0  0  0  0999 V2000
   48.3486    5.5454   17.8425 S   0  0  0  0  0  0  0  0  0  0  0  0
   48.5742    6.3897   16.4274 N   0  0  0  0  0  0  0  0  0  0  0  0
   48.1978    5.9405   15.1570 C   0  0  0  0  0  0  0  0  0  0  0  0
   49.4552    4.1704   17.6727 C   0  0  0  0  0  0  0  0  0  0  0  0
   48.8828    6.4089   18.8774 O   0  0  0  0  0  0  0  0  0  0  0  0
   46.9878    5.0654   17.9143 O   0  0  0  0  0  0  0  0  0  0  0  0
   47.6975    4.8471   14.9477 O   0  0  0  0  0  0  0  0  0  0  0  0
   48.4584    6.8844   14.0336 C   0  0  0  0  0  0  0  0  0  0  0  0
   50.7756    4.2834   18.1133 C   0  0  0  0  0  0  0  0  0  0  0  0
   48.9816    2.9582   17.1696 C   0  0  0  0  0  0  0  0  0  0  0  0
   51.1941    1.9863   17.4341 C   0  0  0  0  0  0  0  0  0  0  0  0
   52.0227    0.8592   17.4404 N   0  0  0  0  0  0  0  0  0  0  0  0
   49.8500    1.8682   17.0667 C   0  0  0  0  0  0  0  0  0  0  0  0
   51.6333    3.1849   18.0058 C   0  0  0  0  0  0  0  0  0  0  0  0
   49.4139    7.9085   14.1045 C   0  0  0  0  0  0  0  0  0  0  0  0
   47.7021    6.7313   12.8622 C   0  0  0  0  0  0  0  0  0  0  0  0
   47.8886    7.5962   11.7824 C   0  0  0  0  0  0  0  0  0  0  0  0
   49.5976    8.7711   13.0199 C   0  0  0  0  0  0  0  0  0  0  0  0
   48.8340    8.6165   11.8635 C   0  0  0  0  0  0  0  0  0  0  0  0
   48.9031    7.3315   16.6001 H   0  0  0  0  0  0  0  0  0  0  0  0
   51.1399    5.2063   18.5576 H   0  0  0  0  0  0  0  0  0  0  0  0
   47.9435    2.8524   16.8598 H   0  0  0  0  0  0  0  0  0  0  0  0
   51.7591    0.1502   16.7630 H   0  0  0  0  0  0  0  0  0  0  0  0
   53.0145    1.0721   17.4113 H   0  0  0  0  0  0  0  0  0  0  0  0
   49.4639    0.9222   16.6956 H   0  0  0  0  0  0  0  0  0  0  0  0
   52.6505    3.2697   18.3802 H   0  0  0  0  0  0  0  0  0  0  0  0
   50.0500    8.0389   14.9742 H   0  0  0  0  0  0  0  0  0  0  0  0
   46.9592    5.9383   12.7875 H   0  0  0  0  0  0  0  0  0  0  0  0
   47.2960    7.4722   10.8789 H   0  0  0  0  0  0  0  0  0  0  0  0
   50.3431    9.5616   13.0725 H   0  0  0  0  0  0  0  0  0  0  0  0
   48.9801    9.2888   11.0209 H   0  0  0  0  0  0  0  0  0  0  0  0
  2  1  1  0
  3  2  1  0
  4  1  1  0
  5  1  2  0
  6  1  2  0
  7  3  2  0
  8  3  1  0
  9  4  2  0
 10  4  1  0
 11 13  1  0
 12 11  1  0
 13 10  2  0
 14  9  1  0
 15  8  2  0
 16  8  1  0
 17 16  2  0
 18 15  1  0
 19 17  1  0
 11 14  2  0
 19 18  2  0
  2 20  1  0
  9 21  1  0
 10 22  1  0
 12 23  1  0
 12 24  1  0
 13 25  1  0
 14 26  1  0
 15 27  1  0
 16 28  1  0
 17 29  1  0
 18 30  1  0
 19 31  1  0
M  END
> <Uni-Dock RESULT> 
ENERGY=   -3.909  LOWER_BOUND=    5.810  UPPER_BOUND=    7.753
INTER + INTRA:          -3.909
INTER:                  -3.909
INTRA:                   0.000
UNBOUND:                 0.000

$$$$

     RDKit          3D

 31 32  0  0  0  0  0  0  0  0999 V2000
   43.7379   10.0633   11.2390 S   0  0  0  0  0  0  0  0  0  0  0  0
   42.4241   10.7902   11.9546 N   0  0  0  0  0  0  0  0  0  0  0  0
   41.1390   10.8439   11.4043 C   0  0  0  0  0  0  0  0  0  0  0  0
   44.0575   11.0994    9.8359 C   0  0  0  0  0  0  0  0  0  0  0  0
   44.8246   10.2561   12.1791 O   0  0  0  0  0  0  0  0  0  0  0  0
   43.3794    8.7377   10.7901 O   0  0  0  0  0  0  0  0  0  0  0  0
   40.8550   10.3945   10.3055 O   0  0  0  0  0  0  0  0  0  0  0  0
   40.1031   11.5098   12.2436 C   0  0  0  0  0  0  0  0  0  0  0  0
   44.9103   12.1979    9.9640 C   0  0  0  0  0  0  0  0  0  0  0  0
   43.5162   10.7687    8.5932 C   0  0  0  0  0  0  0  0  0  0  0  0
   44.5881   12.7167    7.6102 C   0  0  0  0  0  0  0  0  0  0  0  0
   44.9599   13.4431    6.4740 N   0  0  0  0  0  0  0  0  0  0  0  0
   43.7963   11.5710    7.4838 C   0  0  0  0  0  0  0  0  0  0  0  0
   45.1832   12.9913    8.8459 C   0  0  0  0  0  0  0  0  0  0  0  0
   40.4169   12.4307   13.2536 C   0  0  0  0  0  0  0  0  0  0  0  0
   38.7596   11.1862   12.0032 C   0  0  0  0  0  0  0  0  0  0  0  0
   37.7455   11.7642   12.7688 C   0  0  0  0  0  0  0  0  0  0  0  0
   39.3974   13.0077   14.0166 C   0  0  0  0  0  0  0  0  0  0  0  0
   38.0656   12.6720   13.7761 C   0  0  0  0  0  0  0  0  0  0  0  0
   42.6269   11.0838   12.9020 H   0  0  0  0  0  0  0  0  0  0  0  0
   45.3812   12.4324   10.9154 H   0  0  0  0  0  0  0  0  0  0  0  0
   42.8813    9.8920    8.4788 H   0  0  0  0  0  0  0  0  0  0  0  0
   44.2886   13.3914    5.7140 H   0  0  0  0  0  0  0  0  0  0  0  0
   45.2532   14.3953    6.6668 H   0  0  0  0  0  0  0  0  0  0  0  0
   43.3883   11.2903    6.5161 H   0  0  0  0  0  0  0  0  0  0  0  0
   45.8731   13.8256    8.9454 H   0  0  0  0  0  0  0  0  0  0  0  0
   41.4385   12.7420   13.4475 H   0  0  0  0  0  0  0  0  0  0  0  0
   38.4970   10.4769   11.2194 H   0  0  0  0  0  0  0  0  0  0  0  0
   36.7064   11.5057   12.5777 H   0  0  0  0  0  0  0  0  0  0  0  0
   39.6404   13.7268   14.7959 H   0  0  0  0  0  0  0  0  0  0  0  0
   37.2747   13.1236   14.3710 H   0  0  0  0  0  0  0  0  0  0  0  0
  2  1  1  0
  3  2  1  0
  4  1  1  0
  5  1  2  0
  6  1  2  0
  7  3  2  0
  8  3  1  0
  9  4  2  0
 10  4  1  0
 11 13  1  0
 12 11  1  0
 13 10  2  0
 14  9  1  0
 15  8  2  0
 16  8  1  0
 17 16  2  0
 18 15  1  0
 19 17  1  0
 11 14  2  0
 19 18  2  0
  2 20  1  0
  9 21  1  0
 10 22  1  0
 12 23  1  0
 12 24  1  0
 13 25  1  0
 14 26  1  0
 15 27  1  0
 16 28  1  0
 17 29  1  0
 18 30  1  0
 19 31  1  0
M  END
> <Uni-Dock RESULT> 
ENERGY=   -3.851  LOWER_BOUND=    7.527  UPPER_BOUND=   10.246
INTER + INTRA:          -3.851
INTER:                  -3.851
INTRA:                   0.000
UNBOUND:                 0.000

$$$$
