
     RDKit          3D

 31 32  0  0  0  0  0  0  0  0999 V2000
   43.7471    4.7192   10.8299 S   0  0  0  0  0  0  0  0  0  0  0  0
   44.6386    4.2372    9.5116 N   0  0  0  0  0  0  0  0  0  0  0  0
   45.3800    3.0531    9.4327 C   0  0  0  0  0  0  0  0  0  0  0  0
   44.9875    5.1003   12.0382 C   0  0  0  0  0  0  0  0  0  0  0  0
   42.9341    3.6233   11.3043 O   0  0  0  0  0  0  0  0  0  0  0  0
   43.1358    5.9706   10.4266 O   0  0  0  0  0  0  0  0  0  0  0  0
   45.4800    2.2552   10.3508 O   0  0  0  0  0  0  0  0  0  0  0  0
   46.0728    2.8104    8.1360 C   0  0  0  0  0  0  0  0  0  0  0  0
   45.4060    4.1173   12.9356 C   0  0  0  0  0  0  0  0  0  0  0  0
   45.5143    6.3918   12.1086 C   0  0  0  0  0  0  0  0  0  0  0  0
   46.8759    5.7277   14.0104 C   0  0  0  0  0  0  0  0  0  0  0  0
   47.9241    6.0004   14.8963 N   0  0  0  0  0  0  0  0  0  0  0  0
   46.4748    6.6910   13.0790 C   0  0  0  0  0  0  0  0  0  0  0  0
   46.3700    4.4288   13.8981 C   0  0  0  0  0  0  0  0  0  0  0  0
   46.4025    1.4871    7.8078 C   0  0  0  0  0  0  0  0  0  0  0  0
   46.3983    3.8407    7.2422 C   0  0  0  0  0  0  0  0  0  0  0  0
   47.0339    3.5440    6.0330 C   0  0  0  0  0  0  0  0  0  0  0  0
   47.0361    1.1960    6.5985 C   0  0  0  0  0  0  0  0  0  0  0  0
   47.3485    2.2241    5.7114 C   0  0  0  0  0  0  0  0  0  0  0  0
   44.4810    4.8364    8.7108 H   0  0  0  0  0  0  0  0  0  0  0  0
   45.0075    3.1058   12.8780 H   0  0  0  0  0  0  0  0  0  0  0  0
   45.1937    7.1653   11.4153 H   0  0  0  0  0  0  0  0  0  0  0  0
   47.9423    5.3918   15.7091 H   0  0  0  0  0  0  0  0  0  0  0  0
   48.0059    6.9802   15.1491 H   0  0  0  0  0  0  0  0  0  0  0  0
   46.9056    7.6887   13.1064 H   0  0  0  0  0  0  0  0  0  0  0  0
   46.7204    3.6440   14.5640 H   0  0  0  0  0  0  0  0  0  0  0  0
   46.1629    0.6751    8.4929 H   0  0  0  0  0  0  0  0  0  0  0  0
   46.2007    4.8827    7.4736 H   0  0  0  0  0  0  0  0  0  0  0  0
   47.2928    4.3440    5.3428 H   0  0  0  0  0  0  0  0  0  0  0  0
   47.2862    0.1671    6.3505 H   0  0  0  0  0  0  0  0  0  0  0  0
   47.8447    1.9969    4.7705 H   0  0  0  0  0  0  0  0  0  0  0  0
  2  1  1  0
  3  2  1  0
  4  1  1  0
  5  1  2  0
  6  1  2  0
  7  3  2  0
  8  3  1  0
  9  4  2  0
 10  4  1  0
 11 13  1  0
 12 11  1  0
 13 10  2  0
 14  9  1  0
 15  8  2  0
 16  8  1  0
 17 16  2  0
 18 15  1  0
 19 17  1  0
 11 14  2  0
 19 18  2  0
  2 20  1  0
  9 21  1  0
 10 22  1  0
 12 23  1  0
 12 24  1  0
 13 25  1  0
 14 26  1  0
 15 27  1  0
 16 28  1  0
 17 29  1  0
 18 30  1  0
 19 31  1  0
M  END
> <Uni-Dock RESULT> 
ENERGY=   -6.189  LOWER_BOUND=    0.000  UPPER_BOUND=    0.000
INTER + INTRA:          -6.189
INTER:                  -6.189
INTRA:                   0.000
UNBOUND:                 0.000

$$$$

     RDKit          3D

 31 32  0  0  0  0  0  0  0  0999 V2000
   43.5729   11.4446   11.2133 S   0  0  0  0  0  0  0  0  0  0  0  0
   44.2718   10.0361   11.7544 N   0  0  0  0  0  0  0  0  0  0  0  0
   45.6399    9.8558   11.9865 C   0  0  0  0  0  0  0  0  0  0  0  0
   44.1449   11.5615    9.5391 C   0  0  0  0  0  0  0  0  0  0  0  0
   44.0728   12.5677   11.9719 O   0  0  0  0  0  0  0  0  0  0  0  0
   42.1520   11.1594   11.1670 O   0  0  0  0  0  0  0  0  0  0  0  0
   46.4803   10.7161   11.7786 O   0  0  0  0  0  0  0  0  0  0  0  0
   46.0355    8.5165   12.5059 C   0  0  0  0  0  0  0  0  0  0  0  0
   45.3125   12.2698    9.2534 C   0  0  0  0  0  0  0  0  0  0  0  0
   43.4055   10.9737    8.5103 C   0  0  0  0  0  0  0  0  0  0  0  0
   44.9972   11.8295    6.8837 C   0  0  0  0  0  0  0  0  0  0  0  0
   45.5004   11.8366    5.5781 N   0  0  0  0  0  0  0  0  0  0  0  0
   43.8503   11.0899    7.1903 C   0  0  0  0  0  0  0  0  0  0  0  0
   45.7481   12.3748    7.9299 C   0  0  0  0  0  0  0  0  0  0  0  0
   47.2466    8.4180   13.2067 C   0  0  0  0  0  0  0  0  0  0  0  0
   45.2507    7.3682   12.3270 C   0  0  0  0  0  0  0  0  0  0  0  0
   45.6709    6.1437   12.8544 C   0  0  0  0  0  0  0  0  0  0  0  0
   47.6611    7.1931   13.7324 C   0  0  0  0  0  0  0  0  0  0  0  0
   46.8716    6.0581   13.5582 C   0  0  0  0  0  0  0  0  0  0  0  0
   43.5774    9.3518   12.0277 H   0  0  0  0  0  0  0  0  0  0  0  0
   45.8992   12.7201   10.0524 H   0  0  0  0  0  0  0  0  0  0  0  0
   42.4935   10.4212    8.7220 H   0  0  0  0  0  0  0  0  0  0  0  0
   46.1254   12.6133    5.3843 H   0  0  0  0  0  0  0  0  0  0  0  0
   44.7894   11.7287    4.8616 H   0  0  0  0  0  0  0  0  0  0  0  0
   43.2886   10.6013    6.3982 H   0  0  0  0  0  0  0  0  0  0  0  0
   46.6820   12.8918    7.7235 H   0  0  0  0  0  0  0  0  0  0  0  0
   47.8718    9.2983   13.3496 H   0  0  0  0  0  0  0  0  0  0  0  0
   44.3282    7.3891   11.7555 H   0  0  0  0  0  0  0  0  0  0  0  0
   45.0655    5.2515   12.7096 H   0  0  0  0  0  0  0  0  0  0  0  0
   48.6003    7.1257   14.2765 H   0  0  0  0  0  0  0  0  0  0  0  0
   47.1966    5.1034   13.9657 H   0  0  0  0  0  0  0  0  0  0  0  0
  2  1  1  0
  3  2  1  0
  4  1  1  0
  5  1  2  0
  6  1  2  0
  7  3  2  0
  8  3  1  0
  9  4  2  0
 10  4  1  0
 11 13  1  0
 12 11  1  0
 13 10  2  0
 14  9  1  0
 15  8  2  0
 16  8  1  0
 17 16  2  0
 18 15  1  0
 19 17  1  0
 11 14  2  0
 19 18  2  0
  2 20  1  0
  9 21  1  0
 10 22  1  0
 12 23  1  0
 12 24  1  0
 13 25  1  0
 14 26  1  0
 15 27  1  0
 16 28  1  0
 17 29  1  0
 18 30  1  0
 19 31  1  0
M  END
> <Uni-Dock RESULT> 
ENERGY=   -4.147  LOWER_BOUND=    5.736  UPPER_BOUND=    8.129
INTER + INTRA:          -4.147
INTER:                  -4.147
INTRA:                   0.000
UNBOUND:                 0.000

$$$$

     RDKit          3D

 31 32  0  0  0  0  0  0  0  0999 V2000
   48.6732    7.6993   12.6039 S   0  0  0  0  0  0  0  0  0  0  0  0
   47.4475    6.5850   12.4587 N   0  0  0  0  0  0  0  0  0  0  0  0
   46.0949    6.8413   12.7097 C   0  0  0  0  0  0  0  0  0  0  0  0
   48.7724    7.9640   14.3543 C   0  0  0  0  0  0  0  0  0  0  0  0
   48.2997    8.9328   11.9514 O   0  0  0  0  0  0  0  0  0  0  0  0
   49.8712    6.9867   12.2046 O   0  0  0  0  0  0  0  0  0  0  0  0
   45.6718    7.9168   13.1020 O   0  0  0  0  0  0  0  0  0  0  0  0
   45.1675    5.6984   12.4782 C   0  0  0  0  0  0  0  0  0  0  0  0
   48.0393    8.9954   14.9420 C   0  0  0  0  0  0  0  0  0  0  0  0
   49.6106    7.1612   15.1313 C   0  0  0  0  0  0  0  0  0  0  0  0
   49.0033    8.4453   17.1047 C   0  0  0  0  0  0  0  0  0  0  0  0
   49.0049    8.5896   18.4965 N   0  0  0  0  0  0  0  0  0  0  0  0
   49.7015    7.3908   16.5071 C   0  0  0  0  0  0  0  0  0  0  0  0
   48.1363    9.2115   16.3192 C   0  0  0  0  0  0  0  0  0  0  0  0
   43.8183    5.9904   12.2295 C   0  0  0  0  0  0  0  0  0  0  0  0
   45.5885    4.3609   12.4945 C   0  0  0  0  0  0  0  0  0  0  0  0
   44.6705    3.3347   12.2529 C   0  0  0  0  0  0  0  0  0  0  0  0
   42.9058    4.9621   11.9875 C   0  0  0  0  0  0  0  0  0  0  0  0
   43.3332    3.6359   11.9966 C   0  0  0  0  0  0  0  0  0  0  0  0
   47.7700    5.7230   12.0368 H   0  0  0  0  0  0  0  0  0  0  0  0
   47.3755    9.6168   14.3433 H   0  0  0  0  0  0  0  0  0  0  0  0
   50.1873    6.3561   14.6829 H   0  0  0  0  0  0  0  0  0  0  0  0
   48.7442    9.5190   18.8121 H   0  0  0  0  0  0  0  0  0  0  0  0
   49.8526    8.2562   18.9445 H   0  0  0  0  0  0  0  0  0  0  0  0
   50.3293    6.7408   17.1112 H   0  0  0  0  0  0  0  0  0  0  0  0
   47.5278    9.9897   16.7731 H   0  0  0  0  0  0  0  0  0  0  0  0
   43.4726    7.0232   12.2193 H   0  0  0  0  0  0  0  0  0  0  0  0
   46.6132    4.0863   12.7245 H   0  0  0  0  0  0  0  0  0  0  0  0
   44.9956    2.2968   12.2725 H   0  0  0  0  0  0  0  0  0  0  0  0
   41.8618    5.1972   11.7932 H   0  0  0  0  0  0  0  0  0  0  0  0
   42.6211    2.8351   11.8108 H   0  0  0  0  0  0  0  0  0  0  0  0
  2  1  1  0
  3  2  1  0
  4  1  1  0
  5  1  2  0
  6  1  2  0
  7  3  2  0
  8  3  1  0
  9  4  2  0
 10  4  1  0
 11 13  1  0
 12 11  1  0
 13 10  2  0
 14  9  1  0
 15  8  2  0
 16  8  1  0
 17 16  2  0
 18 15  1  0
 19 17  1  0
 11 14  2  0
 19 18  2  0
  2 20  1  0
  9 21  1  0
 10 22  1  0
 12 23  1  0
 12 24  1  0
 13 25  1  0
 14 26  1  0
 15 27  1  0
 16 28  1  0
 17 29  1  0
 18 30  1  0
 19 31  1  0
M  END
> <Uni-Dock RESULT> 
ENERGY=   -4.058  LOWER_BOUND=    4.466  UPPER_BOUND=    5.991
INTER + INTRA:          -4.058
INTER:                  -4.058
INTRA:                   0.000
UNBOUND:                 0.000

$$$$

     RDKit          3D

 31 32  0  0  0  0  0  0  0  0999 V2000
   43.2382   11.2335    9.9199 S   0  0  0  0  0  0  0  0  0  0  0  0
   44.2648   10.3102   10.8465 N   0  0  0  0  0  0  0  0  0  0  0  0
   44.0698    8.9601   11.1587 C   0  0  0  0  0  0  0  0  0  0  0  0
   41.8058   11.4025   10.9513 C   0  0  0  0  0  0  0  0  0  0  0  0
   42.8822   10.5195    8.7156 O   0  0  0  0  0  0  0  0  0  0  0  0
   43.8747   12.5342    9.8455 O   0  0  0  0  0  0  0  0  0  0  0  0
   43.0925    8.3190   10.8075 O   0  0  0  0  0  0  0  0  0  0  0  0
   45.1418    8.3252   11.9759 C   0  0  0  0  0  0  0  0  0  0  0  0
   40.7582   10.4879   10.8378 C   0  0  0  0  0  0  0  0  0  0  0  0
   41.7178   12.4700   11.8475 C   0  0  0  0  0  0  0  0  0  0  0  0
   39.5006   11.7244   12.5107 C   0  0  0  0  0  0  0  0  0  0  0  0
   38.4171   11.8002   13.3928 N   0  0  0  0  0  0  0  0  0  0  0  0
   40.5754   12.6100   12.6406 C   0  0  0  0  0  0  0  0  0  0  0  0
   39.6236   10.6372   11.6396 C   0  0  0  0  0  0  0  0  0  0  0  0
   45.2744    6.9303   11.9115 C   0  0  0  0  0  0  0  0  0  0  0  0
   46.0139    9.0606   12.7915 C   0  0  0  0  0  0  0  0  0  0  0  0
   47.0103    8.4054   13.5209 C   0  0  0  0  0  0  0  0  0  0  0  0
   46.2719    6.2810   12.6409 C   0  0  0  0  0  0  0  0  0  0  0  0
   47.1403    7.0193   13.4424 C   0  0  0  0  0  0  0  0  0  0  0  0
   45.1259   10.7996   11.0561 H   0  0  0  0  0  0  0  0  0  0  0  0
   40.8262    9.6473   10.1494 H   0  0  0  0  0  0  0  0  0  0  0  0
   42.5276   13.1890   11.9423 H   0  0  0  0  0  0  0  0  0  0  0  0
   37.5765   11.3457   13.0490 H   0  0  0  0  0  0  0  0  0  0  0  0
   38.2325   12.7363   13.7395 H   0  0  0  0  0  0  0  0  0  0  0  0
   40.5279   13.4234   13.3602 H   0  0  0  0  0  0  0  0  0  0  0  0
   38.8324    9.8945   11.5740 H   0  0  0  0  0  0  0  0  0  0  0  0
   44.6018    6.3427   11.2882 H   0  0  0  0  0  0  0  0  0  0  0  0
   45.9210   10.1361   12.9048 H   0  0  0  0  0  0  0  0  0  0  0  0
   47.6823    8.9751   14.1591 H   0  0  0  0  0  0  0  0  0  0  0  0
   46.3694    5.1993   12.5837 H   0  0  0  0  0  0  0  0  0  0  0  0
   47.9156    6.5123   14.0126 H   0  0  0  0  0  0  0  0  0  0  0  0
  2  1  1  0
  3  2  1  0
  4  1  1  0
  5  1  2  0
  6  1  2  0
  7  3  2  0
  8  3  1  0
  9  4  2  0
 10  4  1  0
 11 13  1  0
 12 11  1  0
 13 10  2  0
 14  9  1  0
 15  8  2  0
 16  8  1  0
 17 16  2  0
 18 15  1  0
 19 17  1  0
 11 14  2  0
 19 18  2  0
  2 20  1  0
  9 21  1  0
 10 22  1  0
 12 23  1  0
 12 24  1  0
 13 25  1  0
 14 26  1  0
 15 27  1  0
 16 28  1  0
 17 29  1  0
 18 30  1  0
 19 31  1  0
M  END
> <Uni-Dock RESULT> 
ENERGY=   -4.056  LOWER_BOUND=    5.641  UPPER_BOUND=    7.905
INTER + INTRA:          -4.056
INTER:                  -4.056
INTRA:                   0.000
UNBOUND:                 0.000

$$$$

     RDKit          3D

 31 32  0  0  0  0  0  0  0  0999 V2000
   44.6015   12.0755   11.3004 S   0  0  0  0  0  0  0  0  0  0  0  0
   44.8078   12.1255    9.6512 N   0  0  0  0  0  0  0  0  0  0  0  0
   44.1707   11.2802    8.7360 C   0  0  0  0  0  0  0  0  0  0  0  0
   45.3812   10.5504   11.7586 C   0  0  0  0  0  0  0  0  0  0  0  0
   43.1943   12.0115   11.6208 O   0  0  0  0  0  0  0  0  0  0  0  0
   45.4258   13.1540   11.8100 O   0  0  0  0  0  0  0  0  0  0  0  0
   43.4124   10.3806    9.0605 O   0  0  0  0  0  0  0  0  0  0  0  0
   44.4808   11.5320    7.3005 C   0  0  0  0  0  0  0  0  0  0  0  0
   44.6250    9.3801   11.8323 C   0  0  0  0  0  0  0  0  0  0  0  0
   46.7409   10.5343   12.0771 C   0  0  0  0  0  0  0  0  0  0  0  0
   46.5910    8.1594   12.5765 C   0  0  0  0  0  0  0  0  0  0  0  0
   47.2259    6.9407   12.8402 N   0  0  0  0  0  0  0  0  0  0  0  0
   47.3436    9.3327   12.4600 C   0  0  0  0  0  0  0  0  0  0  0  0
   45.2410    8.1849   12.2125 C   0  0  0  0  0  0  0  0  0  0  0  0
   43.5536   11.0932    6.3439 C   0  0  0  0  0  0  0  0  0  0  0  0
   45.6463   12.1867    6.8768 C   0  0  0  0  0  0  0  0  0  0  0  0
   45.8700   12.4070    5.5146 C   0  0  0  0  0  0  0  0  0  0  0  0
   43.7810   11.3168    4.9849 C   0  0  0  0  0  0  0  0  0  0  0  0
   44.9372   11.9758    4.5720 C   0  0  0  0  0  0  0  0  0  0  0  0
   45.3514   12.9298    9.3637 H   0  0  0  0  0  0  0  0  0  0  0  0
   43.5675    9.3843   11.5739 H   0  0  0  0  0  0  0  0  0  0  0  0
   47.3386   11.4408   12.0245 H   0  0  0  0  0  0  0  0  0  0  0  0
   46.6034    6.2247   13.2027 H   0  0  0  0  0  0  0  0  0  0  0  0
   48.0728    7.0282   13.3931 H   0  0  0  0  0  0  0  0  0  0  0  0
   48.4094    9.3203   12.6736 H   0  0  0  0  0  0  0  0  0  0  0  0
   44.6521    7.2710   12.2247 H   0  0  0  0  0  0  0  0  0  0  0  0
   42.6460   10.5775    6.6546 H   0  0  0  0  0  0  0  0  0  0  0  0
   46.4108   12.5052    7.5785 H   0  0  0  0  0  0  0  0  0  0  0  0
   46.7775   12.9085    5.1855 H   0  0  0  0  0  0  0  0  0  0  0  0
   43.0559   10.9754    4.2497 H   0  0  0  0  0  0  0  0  0  0  0  0
   45.1151   12.1472    3.5127 H   0  0  0  0  0  0  0  0  0  0  0  0
  2  1  1  0
  3  2  1  0
  4  1  1  0
  5  1  2  0
  6  1  2  0
  7  3  2  0
  8  3  1  0
  9  4  2  0
 10  4  1  0
 11 13  1  0
 12 11  1  0
 13 10  2  0
 14  9  1  0
 15  8  2  0
 16  8  1  0
 17 16  2  0
 18 15  1  0
 19 17  1  0
 11 14  2  0
 19 18  2  0
  2 20  1  0
  9 21  1  0
 10 22  1  0
 12 23  1  0
 12 24  1  0
 13 25  1  0
 14 26  1  0
 15 27  1  0
 16 28  1  0
 17 29  1  0
 18 30  1  0
 19 31  1  0
M  END
> <Uni-Dock RESULT> 
ENERGY=   -3.896  LOWER_BOUND=    6.180  UPPER_BOUND=    7.457
INTER + INTRA:          -3.896
INTER:                  -3.896
INTRA:                   0.000
UNBOUND:                 0.000

$$$$

     RDKit          3D

 31 32  0  0  0  0  0  0  0  0999 V2000
   50.0323    6.9423   16.2640 S   0  0  0  0  0  0  0  0  0  0  0  0
   49.2657    8.1735   17.0774 N   0  0  0  0  0  0  0  0  0  0  0  0
   48.3711    7.9999   18.1394 C   0  0  0  0  0  0  0  0  0  0  0  0
   48.7113    6.1622   15.3750 C   0  0  0  0  0  0  0  0  0  0  0  0
   50.5977    6.0044   17.2061 O   0  0  0  0  0  0  0  0  0  0  0  0
   50.8752    7.6094   15.2910 O   0  0  0  0  0  0  0  0  0  0  0  0
   48.0275    6.9079   18.5626 O   0  0  0  0  0  0  0  0  0  0  0  0
   47.8323    9.2521   18.7409 C   0  0  0  0  0  0  0  0  0  0  0  0
   48.0306    5.0872   15.9474 C   0  0  0  0  0  0  0  0  0  0  0  0
   48.3816    6.6049   14.0921 C   0  0  0  0  0  0  0  0  0  0  0  0
   46.6894    4.8664   13.9322 C   0  0  0  0  0  0  0  0  0  0  0  0
   45.5840    4.3172   13.2730 N   0  0  0  0  0  0  0  0  0  0  0  0
   47.3547    5.9700   13.3880 C   0  0  0  0  0  0  0  0  0  0  0  0
   47.0032    4.4641   15.2342 C   0  0  0  0  0  0  0  0  0  0  0  0
   47.3537    9.1921   20.0580 C   0  0  0  0  0  0  0  0  0  0  0  0
   47.7913   10.4720   18.0505 C   0  0  0  0  0  0  0  0  0  0  0  0
   47.2884   11.6153   18.6783 C   0  0  0  0  0  0  0  0  0  0  0  0
   46.8537   10.3370   20.6808 C   0  0  0  0  0  0  0  0  0  0  0  0
   46.8242   11.5476   19.9915 C   0  0  0  0  0  0  0  0  0  0  0  0
   49.6196    9.0823   16.8055 H   0  0  0  0  0  0  0  0  0  0  0  0
   48.2754    4.7453   16.9516 H   0  0  0  0  0  0  0  0  0  0  0  0
   48.9070    7.4405   13.6364 H   0  0  0  0  0  0  0  0  0  0  0  0
   45.3635    3.3693   13.5633 H   0  0  0  0  0  0  0  0  0  0  0  0
   45.6181    4.4108   12.2628 H   0  0  0  0  0  0  0  0  0  0  0  0
   47.0803    6.3412   12.4039 H   0  0  0  0  0  0  0  0  0  0  0  0
   46.4508    3.6557   15.7069 H   0  0  0  0  0  0  0  0  0  0  0  0
   47.3722    8.2517   20.6070 H   0  0  0  0  0  0  0  0  0  0  0  0
   48.1111   10.5554   17.0166 H   0  0  0  0  0  0  0  0  0  0  0  0
   47.2499   12.5601   18.1404 H   0  0  0  0  0  0  0  0  0  0  0  0
   46.4866   10.2825   21.7031 H   0  0  0  0  0  0  0  0  0  0  0  0
   46.4318   12.4386   20.4765 H   0  0  0  0  0  0  0  0  0  0  0  0
  2  1  1  0
  3  2  1  0
  4  1  1  0
  5  1  2  0
  6  1  2  0
  7  3  2  0
  8  3  1  0
  9  4  2  0
 10  4  1  0
 11 13  1  0
 12 11  1  0
 13 10  2  0
 14  9  1  0
 15  8  2  0
 16  8  1  0
 17 16  2  0
 18 15  1  0
 19 17  1  0
 11 14  2  0
 19 18  2  0
  2 20  1  0
  9 21  1  0
 10 22  1  0
 12 23  1  0
 12 24  1  0
 13 25  1  0
 14 26  1  0
 15 27  1  0
 16 28  1  0
 17 29  1  0
 18 30  1  0
 19 31  1  0
M  END
> <Uni-Dock RESULT> 
ENERGY=   -3.876  LOWER_BOUND=    6.204  UPPER_BOUND=   10.149
INTER + INTRA:          -3.876
INTER:                  -3.876
INTRA:                   0.000
UNBOUND:                 0.000

$$$$

     RDKit          3D

 31 32  0  0  0  0  0  0  0  0999 V2000
   41.7765   10.8219   10.8711 S   0  0  0  0  0  0  0  0  0  0  0  0
   41.0721   11.4907   12.2208 N   0  0  0  0  0  0  0  0  0  0  0  0
   41.1108   12.8482   12.5579 C   0  0  0  0  0  0  0  0  0  0  0  0
   43.5113   10.9631   11.2095 C   0  0  0  0  0  0  0  0  0  0  0  0
   41.4490   11.6057    9.7027 O   0  0  0  0  0  0  0  0  0  0  0  0
   41.4357    9.4139   10.9342 O   0  0  0  0  0  0  0  0  0  0  0  0
   41.7054   13.6906   11.9049 O   0  0  0  0  0  0  0  0  0  0  0  0
   40.3770   13.2265   13.7983 C   0  0  0  0  0  0  0  0  0  0  0  0
   44.2139   12.0859   10.7707 C   0  0  0  0  0  0  0  0  0  0  0  0
   44.1732    9.9341   11.8829 C   0  0  0  0  0  0  0  0  0  0  0  0
   46.2710   11.1425   11.6579 C   0  0  0  0  0  0  0  0  0  0  0  0
   47.6157   11.2993   12.0117 N   0  0  0  0  0  0  0  0  0  0  0  0
   45.5455   10.0418   12.1255 C   0  0  0  0  0  0  0  0  0  0  0  0
   45.5848   12.1828   11.0235 C   0  0  0  0  0  0  0  0  0  0  0  0
   39.9591   14.5588   13.9309 C   0  0  0  0  0  0  0  0  0  0  0  0
   40.0885   12.3116   14.8212 C   0  0  0  0  0  0  0  0  0  0  0  0
   39.3810   12.7270   15.9531 C   0  0  0  0  0  0  0  0  0  0  0  0
   39.2517   14.9682   15.0626 C   0  0  0  0  0  0  0  0  0  0  0  0
   38.9611   14.0515   16.0709 C   0  0  0  0  0  0  0  0  0  0  0  0
   40.4917   10.8228   12.7129 H   0  0  0  0  0  0  0  0  0  0  0  0
   43.7011   12.8964   10.2557 H   0  0  0  0  0  0  0  0  0  0  0  0
   43.6354    9.0543   12.2273 H   0  0  0  0  0  0  0  0  0  0  0  0
   48.1286   11.9296   11.4025 H   0  0  0  0  0  0  0  0  0  0  0  0
   48.1079   10.4239   12.1596 H   0  0  0  0  0  0  0  0  0  0  0  0
   46.0479    9.2533   12.6799 H   0  0  0  0  0  0  0  0  0  0  0  0
   46.1136   13.0814   10.7155 H   0  0  0  0  0  0  0  0  0  0  0  0
   40.1800   15.2843   13.1491 H   0  0  0  0  0  0  0  0  0  0  0  0
   40.4291   11.2818   14.7806 H   0  0  0  0  0  0  0  0  0  0  0  0
   39.1633   12.0190   16.7498 H   0  0  0  0  0  0  0  0  0  0  0  0
   38.9293   16.0026   15.1566 H   0  0  0  0  0  0  0  0  0  0  0  0
   38.4123   14.3718   16.9537 H   0  0  0  0  0  0  0  0  0  0  0  0
  2  1  1  0
  3  2  1  0
  4  1  1  0
  5  1  2  0
  6  1  2  0
  7  3  2  0
  8  3  1  0
  9  4  2  0
 10  4  1  0
 11 13  1  0
 12 11  1  0
 13 10  2  0
 14  9  1  0
 15  8  2  0
 16  8  1  0
 17 16  2  0
 18 15  1  0
 19 17  1  0
 11 14  2  0
 19 18  2  0
  2 20  1  0
  9 21  1  0
 10 22  1  0
 12 23  1  0
 12 24  1  0
 13 25  1  0
 14 26  1  0
 15 27  1  0
 16 28  1  0
 17 29  1  0
 18 30  1  0
 19 31  1  0
M  END
> <Uni-Dock RESULT> 
ENERGY=   -3.794  LOWER_BOUND=    7.438  UPPER_BOUND=   10.800
INTER + INTRA:          -3.794
INTER:                  -3.794
INTRA:                   0.000
UNBOUND:                 0.000

$$$$

     RDKit          3D

 31 32  0  0  0  0  0  0  0  0999 V2000
   46.3924    8.9973   12.3830 S   0  0  0  0  0  0  0  0  0  0  0  0
   45.9343    7.6301   11.5548 N   0  0  0  0  0  0  0  0  0  0  0  0
   45.8733    6.3430   12.1005 C   0  0  0  0  0  0  0  0  0  0  0  0
   48.1255    8.7415   12.6567 C   0  0  0  0  0  0  0  0  0  0  0  0
   45.7085    9.0578   13.6540 O   0  0  0  0  0  0  0  0  0  0  0  0
   46.2598   10.0748   11.4218 O   0  0  0  0  0  0  0  0  0  0  0  0
   46.1892    6.0799   13.2496 O   0  0  0  0  0  0  0  0  0  0  0  0
   45.3994    5.2727   11.1785 C   0  0  0  0  0  0  0  0  0  0  0  0
   48.5583    8.1294   13.8335 C   0  0  0  0  0  0  0  0  0  0  0  0
   49.0508    9.1850   11.7093 C   0  0  0  0  0  0  0  0  0  0  0  0
   50.8678    8.4245   13.1347 C   0  0  0  0  0  0  0  0  0  0  0  0
   52.2259    8.1335   13.3043 N   0  0  0  0  0  0  0  0  0  0  0  0
   50.4165    9.0007   11.9427 C   0  0  0  0  0  0  0  0  0  0  0  0
   49.9264    7.9477   14.0524 C   0  0  0  0  0  0  0  0  0  0  0  0
   44.8543    4.1125   11.7479 C   0  0  0  0  0  0  0  0  0  0  0  0
   45.4725    5.3830    9.7824 C   0  0  0  0  0  0  0  0  0  0  0  0
   44.9944    4.3489    8.9723 C   0  0  0  0  0  0  0  0  0  0  0  0
   44.3771    3.0833   10.9345 C   0  0  0  0  0  0  0  0  0  0  0  0
   44.4451    3.2038    9.5480 C   0  0  0  0  0  0  0  0  0  0  0  0
   45.5728    7.8502   10.6350 H   0  0  0  0  0  0  0  0  0  0  0  0
   47.8413    7.7712   14.5702 H   0  0  0  0  0  0  0  0  0  0  0  0
   48.7240    9.6646   10.7900 H   0  0  0  0  0  0  0  0  0  0  0  0
   52.5005    8.0112   14.2744 H   0  0  0  0  0  0  0  0  0  0  0  0
   52.8477    8.7627   12.8063 H   0  0  0  0  0  0  0  0  0  0  0  0
   51.1297    9.3175   11.1859 H   0  0  0  0  0  0  0  0  0  0  0  0
   50.2504    7.4310   14.9524 H   0  0  0  0  0  0  0  0  0  0  0  0
   44.7954    4.0072   12.8303 H   0  0  0  0  0  0  0  0  0  0  0  0
   45.9249    6.2433    9.2994 H   0  0  0  0  0  0  0  0  0  0  0  0
   45.0576    4.4314    7.8894 H   0  0  0  0  0  0  0  0  0  0  0  0
   43.9538    2.1880   11.3839 H   0  0  0  0  0  0  0  0  0  0  0  0
   44.0757    2.4002    8.9148 H   0  0  0  0  0  0  0  0  0  0  0  0
  2  1  1  0
  3  2  1  0
  4  1  1  0
  5  1  2  0
  6  1  2  0
  7  3  2  0
  8  3  1  0
  9  4  2  0
 10  4  1  0
 11 13  1  0
 12 11  1  0
 13 10  2  0
 14  9  1  0
 15  8  2  0
 16  8  1  0
 17 16  2  0
 18 15  1  0
 19 17  1  0
 11 14  2  0
 19 18  2  0
  2 20  1  0
  9 21  1  0
 10 22  1  0
 12 23  1  0
 12 24  1  0
 13 25  1  0
 14 26  1  0
 15 27  1  0
 16 28  1  0
 17 29  1  0
 18 30  1  0
 19 31  1  0
M  END
> <Uni-Dock RESULT> 
ENERGY=   -3.760  LOWER_BOUND=    3.579  UPPER_BOUND=    4.823
INTER + INTRA:          -3.760
INTER:                  -3.760
INTRA:                   0.000
UNBOUND:                 0.000

$$$$

     RDKit          3D

 31 32  0  0  0  0  0  0  0  0999 V2000
   49.5690    9.9098   14.7259 S   0  0  0  0  0  0  0  0  0  0  0  0
   49.0130   10.7341   16.0587 N   0  0  0  0  0  0  0  0  0  0  0  0
   48.1662   10.2015   17.0371 C   0  0  0  0  0  0  0  0  0  0  0  0
   48.1106    9.7113   13.7370 C   0  0  0  0  0  0  0  0  0  0  0  0
   50.0639    8.6108   15.1191 O   0  0  0  0  0  0  0  0  0  0  0  0
   50.4324   10.8519   14.0409 O   0  0  0  0  0  0  0  0  0  0  0  0
   47.7116    9.0696   16.9949 O   0  0  0  0  0  0  0  0  0  0  0  0
   47.8264   11.1155   18.1638 C   0  0  0  0  0  0  0  0  0  0  0  0
   47.3329    8.5608   13.8721 C   0  0  0  0  0  0  0  0  0  0  0  0
   47.7666   10.6912   12.8032 C   0  0  0  0  0  0  0  0  0  0  0  0
   45.8608    9.3515   12.1066 C   0  0  0  0  0  0  0  0  0  0  0  0
   44.6586    9.2420   11.3992 N   0  0  0  0  0  0  0  0  0  0  0  0
   46.6285   10.5169   12.0107 C   0  0  0  0  0  0  0  0  0  0  0  0
   46.1954    8.4011   13.0764 C   0  0  0  0  0  0  0  0  0  0  0  0
   47.4206   10.5375   19.3757 C   0  0  0  0  0  0  0  0  0  0  0  0
   47.9010   12.5120   18.0604 C   0  0  0  0  0  0  0  0  0  0  0  0
   47.5844   13.3135   19.1610 C   0  0  0  0  0  0  0  0  0  0  0  0
   47.1067   11.3424   20.4722 C   0  0  0  0  0  0  0  0  0  0  0  0
   47.1916   12.7290   20.3646 C   0  0  0  0  0  0  0  0  0  0  0  0
   49.4633   11.6354   16.1591 H   0  0  0  0  0  0  0  0  0  0  0  0
   47.5897    7.7992   14.6064 H   0  0  0  0  0  0  0  0  0  0  0  0
   48.3668   11.5904   12.6889 H   0  0  0  0  0  0  0  0  0  0  0  0
   44.3365    8.2856   11.2847 H   0  0  0  0  0  0  0  0  0  0  0  0
   44.6461    9.7580   10.5251 H   0  0  0  0  0  0  0  0  0  0  0  0
   46.3474   11.2989   11.3100 H   0  0  0  0  0  0  0  0  0  0  0  0
   45.5728    7.5215   13.2203 H   0  0  0  0  0  0  0  0  0  0  0  0
   47.3509    9.4549   19.4720 H   0  0  0  0  0  0  0  0  0  0  0  0
   48.1688   13.0033   17.1303 H   0  0  0  0  0  0  0  0  0  0  0  0
   47.6354   14.3971   19.0787 H   0  0  0  0  0  0  0  0  0  0  0  0
   46.7951   10.8863   21.4090 H   0  0  0  0  0  0  0  0  0  0  0  0
   46.9442   13.3557   21.2185 H   0  0  0  0  0  0  0  0  0  0  0  0
  2  1  1  0
  3  2  1  0
  4  1  1  0
  5  1  2  0
  6  1  2  0
  7  3  2  0
  8  3  1  0
  9  4  2  0
 10  4  1  0
 11 13  1  0
 12 11  1  0
 13 10  2  0
 14  9  1  0
 15  8  2  0
 16  8  1  0
 17 16  2  0
 18 15  1  0
 19 17  1  0
 11 14  2  0
 19 18  2  0
  2 20  1  0
  9 21  1  0
 10 22  1  0
 12 23  1  0
 12 24  1  0
 13 25  1  0
 14 26  1  0
 15 27  1  0
 16 28  1  0
 17 29  1  0
 18 30  1  0
 19 31  1  0
M  END
> <Uni-Dock RESULT> 
ENERGY=   -3.670  LOWER_BOUND=    6.982  UPPER_BOUND=   10.788
INTER + INTRA:          -3.670
INTER:                  -3.670
INTRA:                   0.000
UNBOUND:                 0.000

$$$$
