
     RDKit          3D

 31 32  0  0  0  0  0  0  0  0999 V2000
   44.0869    6.4108   11.7829 S   0  0  0  0  0  0  0  0  0  0  0  0
   45.6863    6.8103   12.0470 N   0  0  0  0  0  0  0  0  0  0  0  0
   46.0652    7.9370   12.7912 C   0  0  0  0  0  0  0  0  0  0  0  0
   44.3008    4.8869   10.8819 C   0  0  0  0  0  0  0  0  0  0  0  0
   43.4727    6.0634   13.0448 O   0  0  0  0  0  0  0  0  0  0  0  0
   43.5059    7.3629   10.8633 O   0  0  0  0  0  0  0  0  0  0  0  0
   45.2738    8.7155   13.2971 O   0  0  0  0  0  0  0  0  0  0  0  0
   47.5337    8.1349   12.9460 C   0  0  0  0  0  0  0  0  0  0  0  0
   44.4400    4.9217    9.4933 C   0  0  0  0  0  0  0  0  0  0  0  0
   44.3393    3.6736   11.5713 C   0  0  0  0  0  0  0  0  0  0  0  0
   44.6249    2.4980    9.4624 C   0  0  0  0  0  0  0  0  0  0  0  0
   44.9378    1.3223    8.7714 N   0  0  0  0  0  0  0  0  0  0  0  0
   44.5267    2.4871   10.8580 C   0  0  0  0  0  0  0  0  0  0  0  0
   44.6264    3.7269    8.7938 C   0  0  0  0  0  0  0  0  0  0  0  0
   48.4678    7.6081   12.0423 C   0  0  0  0  0  0  0  0  0  0  0  0
   47.9845    8.8733   14.0494 C   0  0  0  0  0  0  0  0  0  0  0  0
   49.3510    9.0703   14.2553 C   0  0  0  0  0  0  0  0  0  0  0  0
   49.8348    7.8095   12.2522 C   0  0  0  0  0  0  0  0  0  0  0  0
   50.2743    8.5357   13.3586 C   0  0  0  0  0  0  0  0  0  0  0  0
   46.3565    6.0862   11.8200 H   0  0  0  0  0  0  0  0  0  0  0  0
   44.4134    5.8653    8.9524 H   0  0  0  0  0  0  0  0  0  0  0  0
   44.2339    3.6407   12.6537 H   0  0  0  0  0  0  0  0  0  0  0  0
   44.6123    0.4767    9.2305 H   0  0  0  0  0  0  0  0  0  0  0  0
   44.6811    1.3425    7.7887 H   0  0  0  0  0  0  0  0  0  0  0  0
   44.5880    1.5476   11.4024 H   0  0  0  0  0  0  0  0  0  0  0  0
   44.7660    3.7620    7.7159 H   0  0  0  0  0  0  0  0  0  0  0  0
   48.1578    7.0711   11.1508 H   0  0  0  0  0  0  0  0  0  0  0  0
   47.2712    9.2965   14.7554 H   0  0  0  0  0  0  0  0  0  0  0  0
   49.6935    9.6434   15.1139 H   0  0  0  0  0  0  0  0  0  0  0  0
   50.5596    7.4090   11.5468 H   0  0  0  0  0  0  0  0  0  0  0  0
   51.3387    8.6936   13.5178 H   0  0  0  0  0  0  0  0  0  0  0  0
  2  1  1  0
  3  2  1  0
  4  1  1  0
  5  1  2  0
  6  1  2  0
  7  3  2  0
  8  3  1  0
  9  4  2  0
 10  4  1  0
 11 13  1  0
 12 11  1  0
 13 10  2  0
 14  9  1  0
 15  8  2  0
 16  8  1  0
 17 16  2  0
 18 15  1  0
 19 17  1  0
 11 14  2  0
 19 18  2  0
  2 20  1  0
  9 21  1  0
 10 22  1  0
 12 23  1  0
 12 24  1  0
 13 25  1  0
 14 26  1  0
 15 27  1  0
 16 28  1  0
 17 29  1  0
 18 30  1  0
 19 31  1  0
M  END
> <Uni-Dock RESULT> 
ENERGY=   -4.661  LOWER_BOUND=    0.000  UPPER_BOUND=    0.000
INTER + INTRA:          -4.661
INTER:                  -4.661
INTRA:                   0.000
UNBOUND:                 0.000

$$$$

     RDKit          3D

 31 32  0  0  0  0  0  0  0  0999 V2000
   43.5858    6.4697   11.8314 S   0  0  0  0  0  0  0  0  0  0  0  0
   44.3954    5.8104   10.5287 N   0  0  0  0  0  0  0  0  0  0  0  0
   44.3495    4.4404   10.2320 C   0  0  0  0  0  0  0  0  0  0  0  0
   43.9756    8.1929   11.5888 C   0  0  0  0  0  0  0  0  0  0  0  0
   42.1621    6.3332   11.6206 O   0  0  0  0  0  0  0  0  0  0  0  0
   44.2409    6.0604   13.0534 O   0  0  0  0  0  0  0  0  0  0  0  0
   43.7304    3.6221   10.8918 O   0  0  0  0  0  0  0  0  0  0  0  0
   45.1131    4.0238    9.0225 C   0  0  0  0  0  0  0  0  0  0  0  0
   45.1417    8.7203   12.1465 C   0  0  0  0  0  0  0  0  0  0  0  0
   43.1197    8.9976   10.8348 C   0  0  0  0  0  0  0  0  0  0  0  0
   44.5856   10.8983   11.2211 C   0  0  0  0  0  0  0  0  0  0  0  0
   44.9665   12.2085   10.9112 N   0  0  0  0  0  0  0  0  0  0  0  0
   43.4440   10.3416   10.6345 C   0  0  0  0  0  0  0  0  0  0  0  0
   45.4524   10.0662   11.9377 C   0  0  0  0  0  0  0  0  0  0  0  0
   46.1925    4.7630    8.5171 C   0  0  0  0  0  0  0  0  0  0  0  0
   44.7193    2.8469    8.3699 C   0  0  0  0  0  0  0  0  0  0  0  0
   45.3856    2.4220    7.2192 C   0  0  0  0  0  0  0  0  0  0  0  0
   46.8571    4.3323    7.3655 C   0  0  0  0  0  0  0  0  0  0  0  0
   46.4512    3.1666    6.7167 C   0  0  0  0  0  0  0  0  0  0  0  0
   44.7450    6.4785    9.8531 H   0  0  0  0  0  0  0  0  0  0  0  0
   45.8129    8.0960   12.7325 H   0  0  0  0  0  0  0  0  0  0  0  0
   42.2109    8.5913   10.3957 H   0  0  0  0  0  0  0  0  0  0  0  0
   44.1879   12.8200   10.6837 H   0  0  0  0  0  0  0  0  0  0  0  0
   45.5902   12.6278   11.5946 H   0  0  0  0  0  0  0  0  0  0  0  0
   42.7908   10.9566   10.0198 H   0  0  0  0  0  0  0  0  0  0  0  0
   46.3776   10.4645   12.3474 H   0  0  0  0  0  0  0  0  0  0  0  0
   46.5581    5.6536    9.0194 H   0  0  0  0  0  0  0  0  0  0  0  0
   43.8887    2.2571    8.7551 H   0  0  0  0  0  0  0  0  0  0  0  0
   45.0740    1.5086    6.7177 H   0  0  0  0  0  0  0  0  0  0  0  0
   47.7002    4.9002    6.9780 H   0  0  0  0  0  0  0  0  0  0  0  0
   46.9723    2.8320    5.8225 H   0  0  0  0  0  0  0  0  0  0  0  0
  2  1  1  0
  3  2  1  0
  4  1  1  0
  5  1  2  0
  6  1  2  0
  7  3  2  0
  8  3  1  0
  9  4  2  0
 10  4  1  0
 11 13  1  0
 12 11  1  0
 13 10  2  0
 14  9  1  0
 15  8  2  0
 16  8  1  0
 17 16  2  0
 18 15  1  0
 19 17  1  0
 11 14  2  0
 19 18  2  0
  2 20  1  0
  9 21  1  0
 10 22  1  0
 12 23  1  0
 12 24  1  0
 13 25  1  0
 14 26  1  0
 15 27  1  0
 16 28  1  0
 17 29  1  0
 18 30  1  0
 19 31  1  0
M  END
> <Uni-Dock RESULT> 
ENERGY=   -4.401  LOWER_BOUND=    2.859  UPPER_BOUND=    6.614
INTER + INTRA:          -4.401
INTER:                  -4.401
INTRA:                   0.000
UNBOUND:                 0.000

$$$$

     RDKit          3D

 31 32  0  0  0  0  0  0  0  0999 V2000
   48.1392    3.1190   16.8368 S   0  0  0  0  0  0  0  0  0  0  0  0
   47.9740    4.4500   15.8426 N   0  0  0  0  0  0  0  0  0  0  0  0
   47.2037    4.4203   14.6710 C   0  0  0  0  0  0  0  0  0  0  0  0
   49.1294    3.8336   18.1363 C   0  0  0  0  0  0  0  0  0  0  0  0
   46.8546    2.8036   17.4205 O   0  0  0  0  0  0  0  0  0  0  0  0
   48.9641    2.1329   16.1759 O   0  0  0  0  0  0  0  0  0  0  0  0
   46.6020    3.4347   14.2774 O   0  0  0  0  0  0  0  0  0  0  0  0
   47.1478    5.7010   13.9117 C   0  0  0  0  0  0  0  0  0  0  0  0
   50.5210    3.8255   18.0252 C   0  0  0  0  0  0  0  0  0  0  0  0
   48.5071    4.4052   19.2475 C   0  0  0  0  0  0  0  0  0  0  0  0
   50.6880    4.9427   20.1777 C   0  0  0  0  0  0  0  0  0  0  0  0
   51.4589    5.6297   21.1219 N   0  0  0  0  0  0  0  0  0  0  0  0
   49.2914    4.9796   20.2508 C   0  0  0  0  0  0  0  0  0  0  0  0
   51.2920    4.4034   19.0368 C   0  0  0  0  0  0  0  0  0  0  0  0
   48.1435    6.6836   14.0108 C   0  0  0  0  0  0  0  0  0  0  0  0
   46.0448    5.9210   13.0746 C   0  0  0  0  0  0  0  0  0  0  0  0
   45.9306    7.1131   12.3573 C   0  0  0  0  0  0  0  0  0  0  0  0
   48.0251    7.8748   13.2894 C   0  0  0  0  0  0  0  0  0  0  0  0
   46.9189    8.0895   12.4680 C   0  0  0  0  0  0  0  0  0  0  0  0
   48.2861    5.3278   16.2389 H   0  0  0  0  0  0  0  0  0  0  0  0
   51.0101    3.3835   17.1597 H   0  0  0  0  0  0  0  0  0  0  0  0
   47.4229    4.4166   19.3381 H   0  0  0  0  0  0  0  0  0  0  0  0
   51.0204    5.7037   22.0352 H   0  0  0  0  0  0  0  0  0  0  0  0
   52.4177    5.3005   21.1877 H   0  0  0  0  0  0  0  0  0  0  0  0
   48.8013    5.4520   21.0989 H   0  0  0  0  0  0  0  0  0  0  0  0
   52.3740    4.4228   18.9307 H   0  0  0  0  0  0  0  0  0  0  0  0
   49.0357    6.5322   14.6110 H   0  0  0  0  0  0  0  0  0  0  0  0
   45.2675    5.1638   12.9800 H   0  0  0  0  0  0  0  0  0  0  0  0
   45.0717    7.2772   11.7106 H   0  0  0  0  0  0  0  0  0  0  0  0
   48.8015    8.6336   13.3586 H   0  0  0  0  0  0  0  0  0  0  0  0
   46.8309    9.0161   11.9051 H   0  0  0  0  0  0  0  0  0  0  0  0
  2  1  1  0
  3  2  1  0
  4  1  1  0
  5  1  2  0
  6  1  2  0
  7  3  2  0
  8  3  1  0
  9  4  2  0
 10  4  1  0
 11 13  1  0
 12 11  1  0
 13 10  2  0
 14  9  1  0
 15  8  2  0
 16  8  1  0
 17 16  2  0
 18 15  1  0
 19 17  1  0
 11 14  2  0
 19 18  2  0
  2 20  1  0
  9 21  1  0
 10 22  1  0
 12 23  1  0
 12 24  1  0
 13 25  1  0
 14 26  1  0
 15 27  1  0
 16 28  1  0
 17 29  1  0
 18 30  1  0
 19 31  1  0
M  END
> <Uni-Dock RESULT> 
ENERGY=   -4.224  LOWER_BOUND=    5.765  UPPER_BOUND=    8.001
INTER + INTRA:          -4.224
INTER:                  -4.224
INTRA:                   0.000
UNBOUND:                 0.000

$$$$

     RDKit          3D

 31 32  0  0  0  0  0  0  0  0999 V2000
   42.8886   10.1910   10.7236 S   0  0  0  0  0  0  0  0  0  0  0  0
   42.0801   11.0406   11.9118 N   0  0  0  0  0  0  0  0  0  0  0  0
   40.7042   11.3029   11.8422 C   0  0  0  0  0  0  0  0  0  0  0  0
   44.5185   10.1389   11.4451 C   0  0  0  0  0  0  0  0  0  0  0  0
   42.4013    8.8300   10.7020 O   0  0  0  0  0  0  0  0  0  0  0  0
   42.9825   11.0097    9.5358 O   0  0  0  0  0  0  0  0  0  0  0  0
   39.9895   10.9458   10.9202 O   0  0  0  0  0  0  0  0  0  0  0  0
   40.1393   12.0565   12.9966 C   0  0  0  0  0  0  0  0  0  0  0  0
   45.4139   11.1814   11.1995 C   0  0  0  0  0  0  0  0  0  0  0  0
   44.8825    9.0642   12.2583 C   0  0  0  0  0  0  0  0  0  0  0  0
   47.0808   10.0564   12.5651 C   0  0  0  0  0  0  0  0  0  0  0  0
   48.3031   10.0898   13.2452 N   0  0  0  0  0  0  0  0  0  0  0  0
   46.1550    9.0426   12.8344 C   0  0  0  0  0  0  0  0  0  0  0  0
   46.6830   11.1456   11.7824 C   0  0  0  0  0  0  0  0  0  0  0  0
   40.9198   12.8891   13.8117 C   0  0  0  0  0  0  0  0  0  0  0  0
   38.7720   11.9106   13.2709 C   0  0  0  0  0  0  0  0  0  0  0  0
   38.1952   12.5761   14.3539 C   0  0  0  0  0  0  0  0  0  0  0  0
   40.3370   13.5543   14.8939 C   0  0  0  0  0  0  0  0  0  0  0  0
   38.9787   13.3943   15.1657 C   0  0  0  0  0  0  0  0  0  0  0  0
   42.5926   11.1715   12.7751 H   0  0  0  0  0  0  0  0  0  0  0  0
   45.1333   12.0222   10.5686 H   0  0  0  0  0  0  0  0  0  0  0  0
   44.1879    8.2503   12.4552 H   0  0  0  0  0  0  0  0  0  0  0  0
   48.6485    9.1735   13.5151 H   0  0  0  0  0  0  0  0  0  0  0  0
   49.0176   10.6418   12.7796 H   0  0  0  0  0  0  0  0  0  0  0  0
   46.4228    8.2194   13.4928 H   0  0  0  0  0  0  0  0  0  0  0  0
   47.3655   11.9751   11.6137 H   0  0  0  0  0  0  0  0  0  0  0  0
   41.9711   13.0656   13.6050 H   0  0  0  0  0  0  0  0  0  0  0  0
   38.1506   11.2746   12.6419 H   0  0  0  0  0  0  0  0  0  0  0  0
   37.1341   12.4575   14.5612 H   0  0  0  0  0  0  0  0  0  0  0  0
   40.9397   14.2075   15.5212 H   0  0  0  0  0  0  0  0  0  0  0  0
   38.5270   13.9157   16.0067 H   0  0  0  0  0  0  0  0  0  0  0  0
  2  1  1  0
  3  2  1  0
  4  1  1  0
  5  1  2  0
  6  1  2  0
  7  3  2  0
  8  3  1  0
  9  4  2  0
 10  4  1  0
 11 13  1  0
 12 11  1  0
 13 10  2  0
 14  9  1  0
 15  8  2  0
 16  8  1  0
 17 16  2  0
 18 15  1  0
 19 17  1  0
 11 14  2  0
 19 18  2  0
  2 20  1  0
  9 21  1  0
 10 22  1  0
 12 23  1  0
 12 24  1  0
 13 25  1  0
 14 26  1  0
 15 27  1  0
 16 28  1  0
 17 29  1  0
 18 30  1  0
 19 31  1  0
M  END
> <Uni-Dock RESULT> 
ENERGY=   -4.006  LOWER_BOUND=    5.654  UPPER_BOUND=    8.048
INTER + INTRA:          -4.006
INTER:                  -4.006
INTRA:                   0.000
UNBOUND:                 0.000

$$$$

     RDKit          3D

 31 32  0  0  0  0  0  0  0  0999 V2000
   45.7158    7.4919   12.1106 S   0  0  0  0  0  0  0  0  0  0  0  0
   44.4625    8.4439   11.5535 N   0  0  0  0  0  0  0  0  0  0  0  0
   44.5785    9.8353   11.4217 C   0  0  0  0  0  0  0  0  0  0  0  0
   44.9654    5.8819   11.9534 C   0  0  0  0  0  0  0  0  0  0  0  0
   46.8024    7.5374   11.1581 O   0  0  0  0  0  0  0  0  0  0  0  0
   45.9010    7.7313   13.5242 O   0  0  0  0  0  0  0  0  0  0  0  0
   45.5855   10.4635   11.7038 O   0  0  0  0  0  0  0  0  0  0  0  0
   43.3712   10.5286   10.8914 C   0  0  0  0  0  0  0  0  0  0  0  0
   44.2099    5.3683   13.0090 C   0  0  0  0  0  0  0  0  0  0  0  0
   45.1286    5.1532   10.7739 C   0  0  0  0  0  0  0  0  0  0  0  0
   43.7958    3.3516   11.7165 C   0  0  0  0  0  0  0  0  0  0  0  0
   43.0881    2.1575   11.5405 N   0  0  0  0  0  0  0  0  0  0  0  0
   44.5206    3.9013   10.6535 C   0  0  0  0  0  0  0  0  0  0  0  0
   43.6082    4.1148   12.8739 C   0  0  0  0  0  0  0  0  0  0  0  0
   42.0805    9.9910   11.0007 C   0  0  0  0  0  0  0  0  0  0  0  0
   43.5502   11.7640   10.2530 C   0  0  0  0  0  0  0  0  0  0  0  0
   42.4562   12.4463    9.7178 C   0  0  0  0  0  0  0  0  0  0  0  0
   40.9884   10.6788   10.4646 C   0  0  0  0  0  0  0  0  0  0  0  0
   41.1776   11.9016    9.8214 C   0  0  0  0  0  0  0  0  0  0  0  0
   43.6957    7.9418   11.1235 H   0  0  0  0  0  0  0  0  0  0  0  0
   44.0779    5.9340   13.9289 H   0  0  0  0  0  0  0  0  0  0  0  0
   45.7142    5.5497    9.9471 H   0  0  0  0  0  0  0  0  0  0  0  0
   43.5033    1.5303   10.8578 H   0  0  0  0  0  0  0  0  0  0  0  0
   42.8668    1.6790   12.4089 H   0  0  0  0  0  0  0  0  0  0  0  0
   44.6239    3.3514    9.7209 H   0  0  0  0  0  0  0  0  0  0  0  0
   42.9948    3.7328   13.6864 H   0  0  0  0  0  0  0  0  0  0  0  0
   41.8937    9.0605   11.5285 H   0  0  0  0  0  0  0  0  0  0  0  0
   44.5451   12.1990   10.1678 H   0  0  0  0  0  0  0  0  0  0  0  0
   42.6028   13.4037    9.2232 H   0  0  0  0  0  0  0  0  0  0  0  0
   39.9858   10.2669   10.5570 H   0  0  0  0  0  0  0  0  0  0  0  0
   40.3254   12.4363    9.4078 H   0  0  0  0  0  0  0  0  0  0  0  0
  2  1  1  0
  3  2  1  0
  4  1  1  0
  5  1  2  0
  6  1  2  0
  7  3  2  0
  8  3  1  0
  9  4  2  0
 10  4  1  0
 11 13  1  0
 12 11  1  0
 13 10  2  0
 14  9  1  0
 15  8  2  0
 16  8  1  0
 17 16  2  0
 18 15  1  0
 19 17  1  0
 11 14  2  0
 19 18  2  0
  2 20  1  0
  9 21  1  0
 10 22  1  0
 12 23  1  0
 12 24  1  0
 13 25  1  0
 14 26  1  0
 15 27  1  0
 16 28  1  0
 17 29  1  0
 18 30  1  0
 19 31  1  0
M  END
> <Uni-Dock RESULT> 
ENERGY=   -3.885  LOWER_BOUND=    3.652  UPPER_BOUND=    5.137
INTER + INTRA:          -3.885
INTER:                  -3.885
INTRA:                   0.000
UNBOUND:                 0.000

$$$$

     RDKit          3D

 31 32  0  0  0  0  0  0  0  0999 V2000
   49.3296    8.8261   16.5612 S   0  0  0  0  0  0  0  0  0  0  0  0
   48.1692    8.5809   15.3863 N   0  0  0  0  0  0  0  0  0  0  0  0
   48.4002    7.7785   14.2595 C   0  0  0  0  0  0  0  0  0  0  0  0
   48.3953    9.8257   17.7048 C   0  0  0  0  0  0  0  0  0  0  0  0
   49.5970    7.5723   17.2295 O   0  0  0  0  0  0  0  0  0  0  0  0
   50.3754    9.6687   16.0263 O   0  0  0  0  0  0  0  0  0  0  0  0
   49.4534    7.2039   14.0381 O   0  0  0  0  0  0  0  0  0  0  0  0
   47.2505    7.6512   13.3205 C   0  0  0  0  0  0  0  0  0  0  0  0
   48.3731   11.2128   17.5481 C   0  0  0  0  0  0  0  0  0  0  0  0
   47.6848    9.2146   18.7394 C   0  0  0  0  0  0  0  0  0  0  0  0
   46.9407   11.3994   19.5032 C   0  0  0  0  0  0  0  0  0  0  0  0
   46.0943   12.1705   20.3073 N   0  0  0  0  0  0  0  0  0  0  0  0
   46.9403   10.0051   19.6183 C   0  0  0  0  0  0  0  0  0  0  0  0
   47.6243   11.9901   18.4350 C   0  0  0  0  0  0  0  0  0  0  0  0
   46.2311    8.6108   13.2377 C   0  0  0  0  0  0  0  0  0  0  0  0
   47.1959    6.5165   12.4986 C   0  0  0  0  0  0  0  0  0  0  0  0
   46.1293    6.3357   11.6163 C   0  0  0  0  0  0  0  0  0  0  0  0
   45.1664    8.4257   12.3516 C   0  0  0  0  0  0  0  0  0  0  0  0
   45.1146    7.2885   11.5462 C   0  0  0  0  0  0  0  0  0  0  0  0
   47.2318    8.8705   15.6365 H   0  0  0  0  0  0  0  0  0  0  0  0
   48.9232   11.6930   16.7415 H   0  0  0  0  0  0  0  0  0  0  0  0
   47.6964    8.1339   18.8648 H   0  0  0  0  0  0  0  0  0  0  0  0
   45.8989   11.7564   21.2141 H   0  0  0  0  0  0  0  0  0  0  0  0
   46.3773   13.1428   20.3882 H   0  0  0  0  0  0  0  0  0  0  0  0
   46.3628    9.5221   20.4031 H   0  0  0  0  0  0  0  0  0  0  0  0
   47.5846   13.0670   18.2898 H   0  0  0  0  0  0  0  0  0  0  0  0
   46.2607    9.5253   13.8225 H   0  0  0  0  0  0  0  0  0  0  0  0
   47.9843    5.7666   12.5448 H   0  0  0  0  0  0  0  0  0  0  0  0
   46.0931    5.4526   10.9825 H   0  0  0  0  0  0  0  0  0  0  0  0
   44.3800    9.1739   12.2802 H   0  0  0  0  0  0  0  0  0  0  0  0
   44.2864    7.1484   10.8551 H   0  0  0  0  0  0  0  0  0  0  0  0
  2  1  1  0
  3  2  1  0
  4  1  1  0
  5  1  2  0
  6  1  2  0
  7  3  2  0
  8  3  1  0
  9  4  2  0
 10  4  1  0
 11 13  1  0
 12 11  1  0
 13 10  2  0
 14  9  1  0
 15  8  2  0
 16  8  1  0
 17 16  2  0
 18 15  1  0
 19 17  1  0
 11 14  2  0
 19 18  2  0
  2 20  1  0
  9 21  1  0
 10 22  1  0
 12 23  1  0
 12 24  1  0
 13 25  1  0
 14 26  1  0
 15 27  1  0
 16 28  1  0
 17 29  1  0
 18 30  1  0
 19 31  1  0
M  END
> <Uni-Dock RESULT> 
ENERGY=   -3.834  LOWER_BOUND=    4.752  UPPER_BOUND=    8.534
INTER + INTRA:          -3.834
INTER:                  -3.834
INTRA:                   0.000
UNBOUND:                 0.000

$$$$

     RDKit          3D

 31 32  0  0  0  0  0  0  0  0999 V2000
   48.0440    7.9555   13.2930 S   0  0  0  0  0  0  0  0  0  0  0  0
   47.8481    8.3897   14.8931 N   0  0  0  0  0  0  0  0  0  0  0  0
   48.5721    9.4376   15.4802 C   0  0  0  0  0  0  0  0  0  0  0  0
   46.8135    6.6703   13.1757 C   0  0  0  0  0  0  0  0  0  0  0  0
   47.5918    9.0402   12.4509 O   0  0  0  0  0  0  0  0  0  0  0  0
   49.3314    7.3188   13.1285 O   0  0  0  0  0  0  0  0  0  0  0  0
   49.3996   10.1089   14.8862 O   0  0  0  0  0  0  0  0  0  0  0  0
   48.2599    9.7045   16.9123 C   0  0  0  0  0  0  0  0  0  0  0  0
   47.1586    5.3554   13.4933 C   0  0  0  0  0  0  0  0  0  0  0  0
   45.5135    6.9893   12.7793 C   0  0  0  0  0  0  0  0  0  0  0  0
   44.8898    4.6483   12.9821 C   0  0  0  0  0  0  0  0  0  0  0  0
   43.8937    3.6669   13.0315 N   0  0  0  0  0  0  0  0  0  0  0  0
   44.5520    5.9783   12.7093 C   0  0  0  0  0  0  0  0  0  0  0  0
   46.1863    4.3551   13.4183 C   0  0  0  0  0  0  0  0  0  0  0  0
   47.7208    8.7293   17.7639 C   0  0  0  0  0  0  0  0  0  0  0  0
   48.5139   10.9898   17.4117 C   0  0  0  0  0  0  0  0  0  0  0  0
   48.2193   11.3010   18.7403 C   0  0  0  0  0  0  0  0  0  0  0  0
   47.4292    9.0456   19.0936 C   0  0  0  0  0  0  0  0  0  0  0  0
   47.6746   10.3299   19.5785 C   0  0  0  0  0  0  0  0  0  0  0  0
   47.0362    7.9959   15.3522 H   0  0  0  0  0  0  0  0  0  0  0  0
   48.1698    5.1028   13.8053 H   0  0  0  0  0  0  0  0  0  0  0  0
   45.2382    8.0127   12.5330 H   0  0  0  0  0  0  0  0  0  0  0  0
   43.1019    3.8538   12.4232 H   0  0  0  0  0  0  0  0  0  0  0  0
   44.2435    2.7200   12.9176 H   0  0  0  0  0  0  0  0  0  0  0  0
   43.5330    6.2368   12.4309 H   0  0  0  0  0  0  0  0  0  0  0  0
   46.4519    3.3382   13.6971 H   0  0  0  0  0  0  0  0  0  0  0  0
   47.5535    7.7100   17.4290 H   0  0  0  0  0  0  0  0  0  0  0  0
   48.9405   11.7556   16.7654 H   0  0  0  0  0  0  0  0  0  0  0  0
   48.4182   12.3004   19.1205 H   0  0  0  0  0  0  0  0  0  0  0  0
   47.0195    8.2873   19.7573 H   0  0  0  0  0  0  0  0  0  0  0  0
   47.4496   10.5725   20.6147 H   0  0  0  0  0  0  0  0  0  0  0  0
  2  1  1  0
  3  2  1  0
  4  1  1  0
  5  1  2  0
  6  1  2  0
  7  3  2  0
  8  3  1  0
  9  4  2  0
 10  4  1  0
 11 13  1  0
 12 11  1  0
 13 10  2  0
 14  9  1  0
 15  8  2  0
 16  8  1  0
 17 16  2  0
 18 15  1  0
 19 17  1  0
 11 14  2  0
 19 18  2  0
  2 20  1  0
  9 21  1  0
 10 22  1  0
 12 23  1  0
 12 24  1  0
 13 25  1  0
 14 26  1  0
 15 27  1  0
 16 28  1  0
 17 29  1  0
 18 30  1  0
 19 31  1  0
M  END
> <Uni-Dock RESULT> 
ENERGY=   -3.811  LOWER_BOUND=    3.603  UPPER_BOUND=    4.976
INTER + INTRA:          -3.811
INTER:                  -3.811
INTRA:                   0.000
UNBOUND:                 0.000

$$$$

     RDKit          3D

 31 32  0  0  0  0  0  0  0  0999 V2000
   52.3707    9.0590   10.5649 S   0  0  0  0  0  0  0  0  0  0  0  0
   50.8751    8.5110   11.0651 N   0  0  0  0  0  0  0  0  0  0  0  0
   49.9870    9.3147   11.7947 C   0  0  0  0  0  0  0  0  0  0  0  0
   52.9256    7.6316    9.6515 C   0  0  0  0  0  0  0  0  0  0  0  0
   52.1861   10.1213    9.6017 O   0  0  0  0  0  0  0  0  0  0  0  0
   53.2386    9.1840   11.7142 O   0  0  0  0  0  0  0  0  0  0  0  0
   50.2269   10.4632   12.1287 O   0  0  0  0  0  0  0  0  0  0  0  0
   48.6873    8.6752   12.1433 C   0  0  0  0  0  0  0  0  0  0  0  0
   53.6087    6.6116   10.3162 C   0  0  0  0  0  0  0  0  0  0  0  0
   52.6633    7.5390    8.2835 C   0  0  0  0  0  0  0  0  0  0  0  0
   53.8088    5.3955    8.2209 C   0  0  0  0  0  0  0  0  0  0  0  0
   54.1155    4.2130    7.5388 N   0  0  0  0  0  0  0  0  0  0  0  0
   53.0854    6.4077    7.5809 C   0  0  0  0  0  0  0  0  0  0  0  0
   54.0248    5.4865    9.6001 C   0  0  0  0  0  0  0  0  0  0  0  0
   48.5273    7.2846   12.2300 C   0  0  0  0  0  0  0  0  0  0  0  0
   47.5875    9.5108   12.3839 C   0  0  0  0  0  0  0  0  0  0  0  0
   46.3407    8.9640   12.6925 C   0  0  0  0  0  0  0  0  0  0  0  0
   47.2772    6.7423   12.5408 C   0  0  0  0  0  0  0  0  0  0  0  0
   46.1864    7.5809   12.7674 C   0  0  0  0  0  0  0  0  0  0  0  0
   50.5647    7.6479   10.6363 H   0  0  0  0  0  0  0  0  0  0  0  0
   53.8129    6.6784   11.3828 H   0  0  0  0  0  0  0  0  0  0  0  0
   52.1291    8.3297    7.7608 H   0  0  0  0  0  0  0  0  0  0  0  0
   54.2288    4.3341    6.5366 H   0  0  0  0  0  0  0  0  0  0  0  0
   54.8857    3.6911    7.9466 H   0  0  0  0  0  0  0  0  0  0  0  0
   52.8508    6.3254    6.5222 H   0  0  0  0  0  0  0  0  0  0  0  0
   54.5286    4.6806   10.1284 H   0  0  0  0  0  0  0  0  0  0  0  0
   49.3640    6.6054   12.0971 H   0  0  0  0  0  0  0  0  0  0  0  0
   47.6977   10.5930   12.3291 H   0  0  0  0  0  0  0  0  0  0  0  0
   45.4918    9.6184   12.8770 H   0  0  0  0  0  0  0  0  0  0  0  0
   47.1543    5.6642   12.6171 H   0  0  0  0  0  0  0  0  0  0  0  0
   45.2153    7.1563   13.0123 H   0  0  0  0  0  0  0  0  0  0  0  0
  2  1  1  0
  3  2  1  0
  4  1  1  0
  5  1  2  0
  6  1  2  0
  7  3  2  0
  8  3  1  0
  9  4  2  0
 10  4  1  0
 11 13  1  0
 12 11  1  0
 13 10  2  0
 14  9  1  0
 15  8  2  0
 16  8  1  0
 17 16  2  0
 18 15  1  0
 19 17  1  0
 11 14  2  0
 19 18  2  0
  2 20  1  0
  9 21  1  0
 10 22  1  0
 12 23  1  0
 12 24  1  0
 13 25  1  0
 14 26  1  0
 15 27  1  0
 16 28  1  0
 17 29  1  0
 18 30  1  0
 19 31  1  0
M  END
> <Uni-Dock RESULT> 
ENERGY=   -3.795  LOWER_BOUND=    5.291  UPPER_BOUND=    7.423
INTER + INTRA:          -3.795
INTER:                  -3.795
INTRA:                   0.000
UNBOUND:                 0.000

$$$$

     RDKit          3D

 31 32  0  0  0  0  0  0  0  0999 V2000
   47.9172    3.8680   16.9342 S   0  0  0  0  0  0  0  0  0  0  0  0
   47.4004    4.8327   15.6734 N   0  0  0  0  0  0  0  0  0  0  0  0
   46.9735    4.3010   14.4479 C   0  0  0  0  0  0  0  0  0  0  0  0
   48.2166    5.1191   18.1690 C   0  0  0  0  0  0  0  0  0  0  0  0
   46.8051    3.0753   17.4085 O   0  0  0  0  0  0  0  0  0  0  0  0
   49.2015    3.2959   16.5978 O   0  0  0  0  0  0  0  0  0  0  0  0
   46.9488    3.1075   14.1961 O   0  0  0  0  0  0  0  0  0  0  0  0
   46.5267    5.3022   13.4391 C   0  0  0  0  0  0  0  0  0  0  0  0
   49.4663    5.7380   18.2335 C   0  0  0  0  0  0  0  0  0  0  0  0
   47.1977    5.4784   19.0530 C   0  0  0  0  0  0  0  0  0  0  0  0
   48.6952    7.0741   20.1121 C   0  0  0  0  0  0  0  0  0  0  0  0
   48.8856    8.1542   20.9809 N   0  0  0  0  0  0  0  0  0  0  0  0
   47.4363    6.4733   20.0042 C   0  0  0  0  0  0  0  0  0  0  0  0
   49.6901    6.7310   19.1903 C   0  0  0  0  0  0  0  0  0  0  0  0
   46.9590    6.6363   13.4540 C   0  0  0  0  0  0  0  0  0  0  0  0
   45.6319    4.8798   12.4458 C   0  0  0  0  0  0  0  0  0  0  0  0
   45.1634    5.7818   11.4890 C   0  0  0  0  0  0  0  0  0  0  0  0
   46.4881    7.5349   12.4928 C   0  0  0  0  0  0  0  0  0  0  0  0
   45.5895    7.1085   11.5155 C   0  0  0  0  0  0  0  0  0  0  0  0
   47.2163    5.7986   15.9148 H   0  0  0  0  0  0  0  0  0  0  0  0
   50.2624    5.4629   17.5448 H   0  0  0  0  0  0  0  0  0  0  0  0
   46.2210    5.0013   19.0057 H   0  0  0  0  0  0  0  0  0  0  0  0
   48.2828    8.1354   21.7984 H   0  0  0  0  0  0  0  0  0  0  0  0
   49.8571    8.3147   21.2305 H   0  0  0  0  0  0  0  0  0  0  0  0
   46.6298    6.7723   20.6696 H   0  0  0  0  0  0  0  0  0  0  0  0
   50.6547    7.2321   19.2159 H   0  0  0  0  0  0  0  0  0  0  0  0
   47.6870    6.9913   14.1773 H   0  0  0  0  0  0  0  0  0  0  0  0
   45.2937    3.8449   12.4154 H   0  0  0  0  0  0  0  0  0  0  0  0
   44.4687    5.4472   10.7219 H   0  0  0  0  0  0  0  0  0  0  0  0
   46.8298    8.5677   12.4982 H   0  0  0  0  0  0  0  0  0  0  0  0
   45.2271    7.8093   10.7666 H   0  0  0  0  0  0  0  0  0  0  0  0
  2  1  1  0
  3  2  1  0
  4  1  1  0
  5  1  2  0
  6  1  2  0
  7  3  2  0
  8  3  1  0
  9  4  2  0
 10  4  1  0
 11 13  1  0
 12 11  1  0
 13 10  2  0
 14  9  1  0
 15  8  2  0
 16  8  1  0
 17 16  2  0
 18 15  1  0
 19 17  1  0
 11 14  2  0
 19 18  2  0
  2 20  1  0
  9 21  1  0
 10 22  1  0
 12 23  1  0
 12 24  1  0
 13 25  1  0
 14 26  1  0
 15 27  1  0
 16 28  1  0
 17 29  1  0
 18 30  1  0
 19 31  1  0
M  END
> <Uni-Dock RESULT> 
ENERGY=   -3.695  LOWER_BOUND=    5.202  UPPER_BOUND=    7.964
INTER + INTRA:          -3.695
INTER:                  -3.695
INTRA:                   0.000
UNBOUND:                 0.000

$$$$
