
     RDKit          3D

 31 32  0  0  0  0  0  0  0  0999 V2000
   44.0228    4.4490   11.5711 S   0  0  0  0  0  0  0  0  0  0  0  0
   44.9153    4.0964   10.2049 N   0  0  0  0  0  0  0  0  0  0  0  0
   44.8980    2.8294    9.6036 C   0  0  0  0  0  0  0  0  0  0  0  0
   44.5486    6.1299   11.8501 C   0  0  0  0  0  0  0  0  0  0  0  0
   44.5267    3.6679   12.6785 O   0  0  0  0  0  0  0  0  0  0  0  0
   42.6212    4.5013   11.2214 O   0  0  0  0  0  0  0  0  0  0  0  0
   44.2355    1.8908   10.0142 O   0  0  0  0  0  0  0  0  0  0  0  0
   45.7678    2.6810    8.4032 C   0  0  0  0  0  0  0  0  0  0  0  0
   43.8657    7.1771   11.2289 C   0  0  0  0  0  0  0  0  0  0  0  0
   45.6444    6.3853   12.6763 C   0  0  0  0  0  0  0  0  0  0  0  0
   45.3622    8.7696   12.2937 C   0  0  0  0  0  0  0  0  0  0  0  0
   45.8607   10.0730   12.3940 N   0  0  0  0  0  0  0  0  0  0  0  0
   46.0603    7.7043   12.8730 C   0  0  0  0  0  0  0  0  0  0  0  0
   44.2931    8.4910   11.4354 C   0  0  0  0  0  0  0  0  0  0  0  0
   46.1578    3.7712    7.6118 C   0  0  0  0  0  0  0  0  0  0  0  0
   46.2122    1.3940    8.0688 C   0  0  0  0  0  0  0  0  0  0  0  0
   47.0474    1.2005    6.9672 C   0  0  0  0  0  0  0  0  0  0  0  0
   46.9930    3.5718    6.5092 C   0  0  0  0  0  0  0  0  0  0  0  0
   47.4393    2.2896    6.1909 C   0  0  0  0  0  0  0  0  0  0  0  0
   45.6222    4.7790    9.9615 H   0  0  0  0  0  0  0  0  0  0  0  0
   43.0129    6.9824   10.5820 H   0  0  0  0  0  0  0  0  0  0  0  0
   46.1819    5.5729   13.1610 H   0  0  0  0  0  0  0  0  0  0  0  0
   46.3970   10.2441   13.2396 H   0  0  0  0  0  0  0  0  0  0  0  0
   45.1623   10.7935   12.2363 H   0  0  0  0  0  0  0  0  0  0  0  0
   46.9338    7.8962   13.4918 H   0  0  0  0  0  0  0  0  0  0  0  0
   43.7776    9.3007   10.9244 H   0  0  0  0  0  0  0  0  0  0  0  0
   45.7975    4.7764    7.8092 H   0  0  0  0  0  0  0  0  0  0  0  0
   45.9108    0.5360    8.6682 H   0  0  0  0  0  0  0  0  0  0  0  0
   47.3891    0.1994    6.7144 H   0  0  0  0  0  0  0  0  0  0  0  0
   47.2886    4.4156    5.8895 H   0  0  0  0  0  0  0  0  0  0  0  0
   48.0867    2.1369    5.3302 H   0  0  0  0  0  0  0  0  0  0  0  0
  2  1  1  0
  3  2  1  0
  4  1  1  0
  5  1  2  0
  6  1  2  0
  7  3  2  0
  8  3  1  0
  9  4  2  0
 10  4  1  0
 11 13  1  0
 12 11  1  0
 13 10  2  0
 14  9  1  0
 15  8  2  0
 16  8  1  0
 17 16  2  0
 18 15  1  0
 19 17  1  0
 11 14  2  0
 19 18  2  0
  2 20  1  0
  9 21  1  0
 10 22  1  0
 12 23  1  0
 12 24  1  0
 13 25  1  0
 14 26  1  0
 15 27  1  0
 16 28  1  0
 17 29  1  0
 18 30  1  0
 19 31  1  0
M  END
> <Uni-Dock RESULT> 
ENERGY=   -7.319  LOWER_BOUND=    0.000  UPPER_BOUND=    0.000
INTER + INTRA:          -7.319
INTER:                  -7.319
INTRA:                   0.000
UNBOUND:                 0.000

$$$$

     RDKit          3D

 31 32  0  0  0  0  0  0  0  0999 V2000
   47.8936    4.4309   17.4462 S   0  0  0  0  0  0  0  0  0  0  0  0
   49.4362    3.8795   17.7684 N   0  0  0  0  0  0  0  0  0  0  0  0
   49.9482    2.7058   17.1964 C   0  0  0  0  0  0  0  0  0  0  0  0
   47.8520    5.8557   18.5176 C   0  0  0  0  0  0  0  0  0  0  0  0
   46.9349    3.4866   17.9750 O   0  0  0  0  0  0  0  0  0  0  0  0
   47.8407    4.9258   16.0891 O   0  0  0  0  0  0  0  0  0  0  0  0
   49.3253    1.9994   16.4208 O   0  0  0  0  0  0  0  0  0  0  0  0
   51.3351    2.3485   17.6068 C   0  0  0  0  0  0  0  0  0  0  0  0
   48.3069    7.0874   18.0433 C   0  0  0  0  0  0  0  0  0  0  0  0
   47.3771    5.7270   19.8240 C   0  0  0  0  0  0  0  0  0  0  0  0
   47.7781    8.0967   20.1906 C   0  0  0  0  0  0  0  0  0  0  0  0
   47.8824    9.1787   21.0716 N   0  0  0  0  0  0  0  0  0  0  0  0
   47.3667    6.8451   20.6615 C   0  0  0  0  0  0  0  0  0  0  0  0
   48.2902    8.1965   18.8925 C   0  0  0  0  0  0  0  0  0  0  0  0
   52.2545    3.2988   18.0744 C   0  0  0  0  0  0  0  0  0  0  0  0
   51.7189    1.0026   17.5235 C   0  0  0  0  0  0  0  0  0  0  0  0
   52.9993    0.6089   17.9161 C   0  0  0  0  0  0  0  0  0  0  0  0
   53.5355    2.8995   18.4651 C   0  0  0  0  0  0  0  0  0  0  0  0
   53.9047    1.5569   18.3894 C   0  0  0  0  0  0  0  0  0  0  0  0
   49.8990    4.3218   18.5527 H   0  0  0  0  0  0  0  0  0  0  0  0
   48.6805    7.1915   17.0268 H   0  0  0  0  0  0  0  0  0  0  0  0
   47.0236    4.7691   20.1997 H   0  0  0  0  0  0  0  0  0  0  0  0
   47.2290    9.1409   21.8484 H   0  0  0  0  0  0  0  0  0  0  0  0
   47.8730   10.0849   20.6127 H   0  0  0  0  0  0  0  0  0  0  0  0
   47.0257    6.7330   21.6881 H   0  0  0  0  0  0  0  0  0  0  0  0
   48.6749    9.1464   18.5287 H   0  0  0  0  0  0  0  0  0  0  0  0
   52.0122    4.3567   18.1097 H   0  0  0  0  0  0  0  0  0  0  0  0
   51.0194    0.2540   17.1539 H   0  0  0  0  0  0  0  0  0  0  0  0
   53.2897   -0.4371   17.8497 H   0  0  0  0  0  0  0  0  0  0  0  0
   54.2522    3.6373   18.8193 H   0  0  0  0  0  0  0  0  0  0  0  0
   54.9035    1.2494   18.6911 H   0  0  0  0  0  0  0  0  0  0  0  0
  2  1  1  0
  3  2  1  0
  4  1  1  0
  5  1  2  0
  6  1  2  0
  7  3  2  0
  8  3  1  0
  9  4  2  0
 10  4  1  0
 11 13  1  0
 12 11  1  0
 13 10  2  0
 14  9  1  0
 15  8  2  0
 16  8  1  0
 17 16  2  0
 18 15  1  0
 19 17  1  0
 11 14  2  0
 19 18  2  0
  2 20  1  0
  9 21  1  0
 10 22  1  0
 12 23  1  0
 12 24  1  0
 13 25  1  0
 14 26  1  0
 15 27  1  0
 16 28  1  0
 17 29  1  0
 18 30  1  0
 19 31  1  0
M  END
> <Uni-Dock RESULT> 
ENERGY=   -4.448  LOWER_BOUND=    8.544  UPPER_BOUND=    9.563
INTER + INTRA:          -4.448
INTER:                  -4.448
INTRA:                   0.000
UNBOUND:                 0.000

$$$$
