
     RDKit          3D

 31 32  0  0  0  0  0  0  0  0999 V2000
   44.0802    6.3961   11.7771 S   0  0  0  0  0  0  0  0  0  0  0  0
   45.6779    6.8074   12.0329 N   0  0  0  0  0  0  0  0  0  0  0  0
   46.0522    7.9365   12.7758 C   0  0  0  0  0  0  0  0  0  0  0  0
   44.3007    4.8743   10.8741 C   0  0  0  0  0  0  0  0  0  0  0  0
   43.4752    6.0435   13.0419 O   0  0  0  0  0  0  0  0  0  0  0  0
   43.4873    7.3443   10.8610 O   0  0  0  0  0  0  0  0  0  0  0  0
   45.2577    8.7088   13.2863 O   0  0  0  0  0  0  0  0  0  0  0  0
   47.5200    8.1453   12.9231 C   0  0  0  0  0  0  0  0  0  0  0  0
   44.4324    4.9108    9.4848 C   0  0  0  0  0  0  0  0  0  0  0  0
   44.3519    3.6610   11.5626 C   0  0  0  0  0  0  0  0  0  0  0  0
   44.6352    2.4887    9.4516 C   0  0  0  0  0  0  0  0  0  0  0  0
   44.9532    1.3157    8.7583 N   0  0  0  0  0  0  0  0  0  0  0  0
   44.5444    2.4763   10.8477 C   0  0  0  0  0  0  0  0  0  0  0  0
   44.6240    3.7179    8.7836 C   0  0  0  0  0  0  0  0  0  0  0  0
   48.4533    7.6259   12.0142 C   0  0  0  0  0  0  0  0  0  0  0  0
   47.9711    8.8865   14.0245 C   0  0  0  0  0  0  0  0  0  0  0  0
   49.3372    9.0935   14.2233 C   0  0  0  0  0  0  0  0  0  0  0  0
   49.8198    7.8374   12.2170 C   0  0  0  0  0  0  0  0  0  0  0  0
   50.2597    8.5663   13.3215 C   0  0  0  0  0  0  0  0  0  0  0  0
   46.3523    6.0884   11.8021 H   0  0  0  0  0  0  0  0  0  0  0  0
   44.3959    5.8545    8.9445 H   0  0  0  0  0  0  0  0  0  0  0  0
   44.2524    3.6268   12.6455 H   0  0  0  0  0  0  0  0  0  0  0  0
   44.6365    0.4674    9.2186 H   0  0  0  0  0  0  0  0  0  0  0  0
   44.6913    1.3344    7.7770 H   0  0  0  0  0  0  0  0  0  0  0  0
   44.6156    1.5370   11.3912 H   0  0  0  0  0  0  0  0  0  0  0  0
   44.7576    3.7546    7.7051 H   0  0  0  0  0  0  0  0  0  0  0  0
   48.1427    7.0871   11.1240 H   0  0  0  0  0  0  0  0  0  0  0  0
   47.2583    9.3039   14.7345 H   0  0  0  0  0  0  0  0  0  0  0  0
   49.6798    9.6687   15.0804 H   0  0  0  0  0  0  0  0  0  0  0  0
   50.5439    7.4427   11.5076 H   0  0  0  0  0  0  0  0  0  0  0  0
   51.3237    8.7321   13.4752 H   0  0  0  0  0  0  0  0  0  0  0  0
  2  1  1  0
  3  2  1  0
  4  1  1  0
  5  1  2  0
  6  1  2  0
  7  3  2  0
  8  3  1  0
  9  4  2  0
 10  4  1  0
 11 13  1  0
 12 11  1  0
 13 10  2  0
 14  9  1  0
 15  8  2  0
 16  8  1  0
 17 16  2  0
 18 15  1  0
 19 17  1  0
 11 14  2  0
 19 18  2  0
  2 20  1  0
  9 21  1  0
 10 22  1  0
 12 23  1  0
 12 24  1  0
 13 25  1  0
 14 26  1  0
 15 27  1  0
 16 28  1  0
 17 29  1  0
 18 30  1  0
 19 31  1  0
M  END
> <Uni-Dock RESULT> 
ENERGY=   -4.660  LOWER_BOUND=    0.000  UPPER_BOUND=    0.000
INTER + INTRA:          -4.660
INTER:                  -4.660
INTRA:                   0.000
UNBOUND:                 0.000

$$$$

     RDKit          3D

 31 32  0  0  0  0  0  0  0  0999 V2000
   42.4736   11.3775   10.5601 S   0  0  0  0  0  0  0  0  0  0  0  0
   41.6351   11.6651   11.9749 N   0  0  0  0  0  0  0  0  0  0  0  0
   40.4187   12.3627   11.9975 C   0  0  0  0  0  0  0  0  0  0  0  0
   43.8256   10.4078   11.2019 C   0  0  0  0  0  0  0  0  0  0  0  0
   41.6938   10.4963    9.7201 O   0  0  0  0  0  0  0  0  0  0  0  0
   43.0388   12.6195   10.0830 O   0  0  0  0  0  0  0  0  0  0  0  0
   39.8780   12.8193   11.0037 O   0  0  0  0  0  0  0  0  0  0  0  0
   39.7946   12.5132   13.3419 C   0  0  0  0  0  0  0  0  0  0  0  0
   44.9766   11.0503   11.6615 C   0  0  0  0  0  0  0  0  0  0  0  0
   43.7188    9.0167   11.2510 C   0  0  0  0  0  0  0  0  0  0  0  0
   45.9541    8.8905   12.1988 C   0  0  0  0  0  0  0  0  0  0  0  0
   46.9525    8.1446   12.8349 N   0  0  0  0  0  0  0  0  0  0  0  0
   44.7758    8.2675   11.7735 C   0  0  0  0  0  0  0  0  0  0  0  0
   46.0254   10.2875   12.1810 C   0  0  0  0  0  0  0  0  0  0  0  0
   40.5365   12.4608   14.5309 C   0  0  0  0  0  0  0  0  0  0  0  0
   38.4073   12.7067   13.4044 C   0  0  0  0  0  0  0  0  0  0  0  0
   37.7677   12.8313   14.6389 C   0  0  0  0  0  0  0  0  0  0  0  0
   39.8914   12.5877   15.7642 C   0  0  0  0  0  0  0  0  0  0  0  0
   38.5097   12.7685   15.8169 C   0  0  0  0  0  0  0  0  0  0  0  0
   41.9451   11.1320   12.7778 H   0  0  0  0  0  0  0  0  0  0  0  0
   45.0629   12.1343   11.6276 H   0  0  0  0  0  0  0  0  0  0  0  0
   42.8232    8.5108   10.8966 H   0  0  0  0  0  0  0  0  0  0  0  0
   46.9945    7.1747   12.5360 H   0  0  0  0  0  0  0  0  0  0  0  0
   47.8675    8.5855   12.8198 H   0  0  0  0  0  0  0  0  0  0  0  0
   44.6752    7.1866   11.8392 H   0  0  0  0  0  0  0  0  0  0  0  0
   46.9067   10.7944   12.5667 H   0  0  0  0  0  0  0  0  0  0  0  0
   41.6177   12.3596   14.5238 H   0  0  0  0  0  0  0  0  0  0  0  0
   37.8184   12.7586   12.4897 H   0  0  0  0  0  0  0  0  0  0  0  0
   36.6911   12.9803   14.6797 H   0  0  0  0  0  0  0  0  0  0  0  0
   40.4673   12.5562   16.6865 H   0  0  0  0  0  0  0  0  0  0  0  0
   38.0106   12.8701   16.7780 H   0  0  0  0  0  0  0  0  0  0  0  0
  2  1  1  0
  3  2  1  0
  4  1  1  0
  5  1  2  0
  6  1  2  0
  7  3  2  0
  8  3  1  0
  9  4  2  0
 10  4  1  0
 11 13  1  0
 12 11  1  0
 13 10  2  0
 14  9  1  0
 15  8  2  0
 16  8  1  0
 17 16  2  0
 18 15  1  0
 19 17  1  0
 11 14  2  0
 19 18  2  0
  2 20  1  0
  9 21  1  0
 10 22  1  0
 12 23  1  0
 12 24  1  0
 13 25  1  0
 14 26  1  0
 15 27  1  0
 16 28  1  0
 17 29  1  0
 18 30  1  0
 19 31  1  0
M  END
> <Uni-Dock RESULT> 
ENERGY=   -3.938  LOWER_BOUND=    6.093  UPPER_BOUND=    8.167
INTER + INTRA:          -3.938
INTER:                  -3.938
INTRA:                   0.000
UNBOUND:                 0.000

$$$$

     RDKit          3D

 31 32  0  0  0  0  0  0  0  0999 V2000
   49.3261    8.8109   16.5611 S   0  0  0  0  0  0  0  0  0  0  0  0
   48.1656    8.5706   15.3851 N   0  0  0  0  0  0  0  0  0  0  0  0
   48.3942    7.7672   14.2586 C   0  0  0  0  0  0  0  0  0  0  0  0
   48.3950    9.8144   17.7039 C   0  0  0  0  0  0  0  0  0  0  0  0
   49.5877    7.5560   17.2295 O   0  0  0  0  0  0  0  0  0  0  0  0
   50.3758    9.6492   16.0270 O   0  0  0  0  0  0  0  0  0  0  0  0
   49.4452    7.1882   14.0381 O   0  0  0  0  0  0  0  0  0  0  0  0
   47.2448    7.6447   13.3186 C   0  0  0  0  0  0  0  0  0  0  0  0
   48.3786   11.2015   17.5471 C   0  0  0  0  0  0  0  0  0  0  0  0
   47.6811    9.2062   18.7379 C   0  0  0  0  0  0  0  0  0  0  0  0
   46.9454   11.3941   19.5011 C   0  0  0  0  0  0  0  0  0  0  0  0
   46.1015   12.1687   20.3045 N   0  0  0  0  0  0  0  0  0  0  0  0
   46.9392    9.9998   19.6161 C   0  0  0  0  0  0  0  0  0  0  0  0
   47.6324   11.9819   18.4335 C   0  0  0  0  0  0  0  0  0  0  0  0
   46.2295    8.6085   13.2350 C   0  0  0  0  0  0  0  0  0  0  0  0
   47.1862    6.5103   12.4967 C   0  0  0  0  0  0  0  0  0  0  0  0
   46.1196    6.3338   11.6135 C   0  0  0  0  0  0  0  0  0  0  0  0
   45.1647    8.4278   12.3479 C   0  0  0  0  0  0  0  0  0  0  0  0
   45.1090    7.2908   11.5425 C   0  0  0  0  0  0  0  0  0  0  0  0
   47.2293    8.8640   15.6346 H   0  0  0  0  0  0  0  0  0  0  0  0
   48.9314   11.6794   16.7411 H   0  0  0  0  0  0  0  0  0  0  0  0
   47.6881    8.1254   18.8633 H   0  0  0  0  0  0  0  0  0  0  0  0
   45.9037   11.7553   21.2111 H   0  0  0  0  0  0  0  0  0  0  0  0
   46.3885   13.1397   20.3857 H   0  0  0  0  0  0  0  0  0  0  0  0
   46.3590    9.5192   20.4005 H   0  0  0  0  0  0  0  0  0  0  0  0
   47.5973   13.0590   18.2883 H   0  0  0  0  0  0  0  0  0  0  0  0
   46.2624    9.5229   13.8198 H   0  0  0  0  0  0  0  0  0  0  0  0
   47.9715    5.7571   12.5435 H   0  0  0  0  0  0  0  0  0  0  0  0
   46.0803    5.4509   10.9796 H   0  0  0  0  0  0  0  0  0  0  0  0
   44.3815    9.1794   12.2759 H   0  0  0  0  0  0  0  0  0  0  0  0
   44.2807    7.1543   10.8507 H   0  0  0  0  0  0  0  0  0  0  0  0
  2  1  1  0
  3  2  1  0
  4  1  1  0
  5  1  2  0
  6  1  2  0
  7  3  2  0
  8  3  1  0
  9  4  2  0
 10  4  1  0
 11 13  1  0
 12 11  1  0
 13 10  2  0
 14  9  1  0
 15  8  2  0
 16  8  1  0
 17 16  2  0
 18 15  1  0
 19 17  1  0
 11 14  2  0
 19 18  2  0
  2 20  1  0
  9 21  1  0
 10 22  1  0
 12 23  1  0
 12 24  1  0
 13 25  1  0
 14 26  1  0
 15 27  1  0
 16 28  1  0
 17 29  1  0
 18 30  1  0
 19 31  1  0
M  END
> <Uni-Dock RESULT> 
ENERGY=   -3.834  LOWER_BOUND=    4.760  UPPER_BOUND=    8.538
INTER + INTRA:          -3.834
INTER:                  -3.834
INTRA:                   0.000
UNBOUND:                 0.000

$$$$

     RDKit          3D

 31 32  0  0  0  0  0  0  0  0999 V2000
   48.0538    7.9545   13.3033 S   0  0  0  0  0  0  0  0  0  0  0  0
   47.8530    8.3880   14.9030 N   0  0  0  0  0  0  0  0  0  0  0  0
   48.5748    9.4359   15.4927 C   0  0  0  0  0  0  0  0  0  0  0  0
   46.8239    6.6689   13.1819 C   0  0  0  0  0  0  0  0  0  0  0  0
   47.6039    9.0393   12.4603 O   0  0  0  0  0  0  0  0  0  0  0  0
   49.3419    7.3182   13.1426 O   0  0  0  0  0  0  0  0  0  0  0  0
   49.4040   10.1076   14.9014 O   0  0  0  0  0  0  0  0  0  0  0  0
   48.2582    9.7023   16.9239 C   0  0  0  0  0  0  0  0  0  0  0  0
   47.1685    5.3541   13.5002 C   0  0  0  0  0  0  0  0  0  0  0  0
   45.5252    6.9878   12.7816 C   0  0  0  0  0  0  0  0  0  0  0  0
   44.9014    4.6465   12.9818 C   0  0  0  0  0  0  0  0  0  0  0  0
   43.9054    3.6649   13.0279 N   0  0  0  0  0  0  0  0  0  0  0  0
   44.5641    5.9765   12.7084 C   0  0  0  0  0  0  0  0  0  0  0  0
   46.1966    4.3536   13.4218 C   0  0  0  0  0  0  0  0  0  0  0  0
   47.7168    8.7267   17.7735 C   0  0  0  0  0  0  0  0  0  0  0  0
   48.5103   10.9875   17.4245 C   0  0  0  0  0  0  0  0  0  0  0  0
   48.2117   11.2982   18.7522 C   0  0  0  0  0  0  0  0  0  0  0  0
   47.4210    9.0425   19.1025 C   0  0  0  0  0  0  0  0  0  0  0  0
   47.6646   10.3267   19.5884 C   0  0  0  0  0  0  0  0  0  0  0  0
   47.0397    7.9939   15.3595 H   0  0  0  0  0  0  0  0  0  0  0  0
   48.1788    5.1016   13.8152 H   0  0  0  0  0  0  0  0  0  0  0  0
   45.2504    8.0112   12.5349 H   0  0  0  0  0  0  0  0  0  0  0  0
   43.1154    3.8517   12.4172 H   0  0  0  0  0  0  0  0  0  0  0  0
   44.2558    2.7181   12.9147 H   0  0  0  0  0  0  0  0  0  0  0  0
   43.5459    6.2349   12.4270 H   0  0  0  0  0  0  0  0  0  0  0  0
   46.4617    3.3366   13.7011 H   0  0  0  0  0  0  0  0  0  0  0  0
   47.5508    7.7074   17.4378 H   0  0  0  0  0  0  0  0  0  0  0  0
   48.9388   11.7537   16.7797 H   0  0  0  0  0  0  0  0  0  0  0  0
   48.4091   12.2975   19.1334 H   0  0  0  0  0  0  0  0  0  0  0  0
   47.0095    8.2838   19.7646 H   0  0  0  0  0  0  0  0  0  0  0  0
   47.4365   10.5689   20.6240 H   0  0  0  0  0  0  0  0  0  0  0  0
  2  1  1  0
  3  2  1  0
  4  1  1  0
  5  1  2  0
  6  1  2  0
  7  3  2  0
  8  3  1  0
  9  4  2  0
 10  4  1  0
 11 13  1  0
 12 11  1  0
 13 10  2  0
 14  9  1  0
 15  8  2  0
 16  8  1  0
 17 16  2  0
 18 15  1  0
 19 17  1  0
 11 14  2  0
 19 18  2  0
  2 20  1  0
  9 21  1  0
 10 22  1  0
 12 23  1  0
 12 24  1  0
 13 25  1  0
 14 26  1  0
 15 27  1  0
 16 28  1  0
 17 29  1  0
 18 30  1  0
 19 31  1  0
M  END
> <Uni-Dock RESULT> 
ENERGY=   -3.815  LOWER_BOUND=    3.623  UPPER_BOUND=    5.000
INTER + INTRA:          -3.815
INTER:                  -3.815
INTRA:                   0.000
UNBOUND:                 0.000

$$$$

     RDKit          3D

 31 32  0  0  0  0  0  0  0  0999 V2000
   52.3678    9.0610   10.5752 S   0  0  0  0  0  0  0  0  0  0  0  0
   50.8686    8.5162   11.0680 N   0  0  0  0  0  0  0  0  0  0  0  0
   49.9806    9.3204   11.7971 C   0  0  0  0  0  0  0  0  0  0  0  0
   52.9214    7.6348    9.6589 C   0  0  0  0  0  0  0  0  0  0  0  0
   52.1904   10.1271    9.6150 O   0  0  0  0  0  0  0  0  0  0  0  0
   53.2319    9.1791   11.7281 O   0  0  0  0  0  0  0  0  0  0  0  0
   50.2231   10.4670   12.1359 O   0  0  0  0  0  0  0  0  0  0  0  0
   48.6775    8.6841   12.1387 C   0  0  0  0  0  0  0  0  0  0  0  0
   53.5986    6.6102   10.3225 C   0  0  0  0  0  0  0  0  0  0  0  0
   52.6638    7.5479    8.2896 C   0  0  0  0  0  0  0  0  0  0  0  0
   53.8023    5.4007    8.2238 C   0  0  0  0  0  0  0  0  0  0  0  0
   54.1075    4.2195    7.5387 N   0  0  0  0  0  0  0  0  0  0  0  0
   53.0846    6.4175    7.5847 C   0  0  0  0  0  0  0  0  0  0  0  0
   54.0136    5.4863    9.6041 C   0  0  0  0  0  0  0  0  0  0  0  0
   48.5125    7.2937   12.2201 C   0  0  0  0  0  0  0  0  0  0  0  0
   47.5796    9.5226   12.3782 C   0  0  0  0  0  0  0  0  0  0  0  0
   46.3298    8.9789   12.6804 C   0  0  0  0  0  0  0  0  0  0  0  0
   47.2595    6.7546   12.5244 C   0  0  0  0  0  0  0  0  0  0  0  0
   46.1706    7.5961   12.7500 C   0  0  0  0  0  0  0  0  0  0  0  0
   50.5569    7.6557   10.6351 H   0  0  0  0  0  0  0  0  0  0  0  0
   53.7991    6.6727   11.3901 H   0  0  0  0  0  0  0  0  0  0  0  0
   52.1341    8.3421    7.7677 H   0  0  0  0  0  0  0  0  0  0  0  0
   54.2249    4.3437    6.5374 H   0  0  0  0  0  0  0  0  0  0  0  0
   54.8745    3.6937    7.9476 H   0  0  0  0  0  0  0  0  0  0  0  0
   52.8536    6.3397    6.5249 H   0  0  0  0  0  0  0  0  0  0  0  0
   54.5127    4.6768   10.1314 H   0  0  0  0  0  0  0  0  0  0  0  0
   49.3474    6.6122   12.0880 H   0  0  0  0  0  0  0  0  0  0  0  0
   47.6936   10.6045   12.3276 H   0  0  0  0  0  0  0  0  0  0  0  0
   45.4824    9.6354   12.8641 H   0  0  0  0  0  0  0  0  0  0  0  0
   47.1327    5.6766   12.5967 H   0  0  0  0  0  0  0  0  0  0  0  0
   45.1972    7.1739   12.9898 H   0  0  0  0  0  0  0  0  0  0  0  0
  2  1  1  0
  3  2  1  0
  4  1  1  0
  5  1  2  0
  6  1  2  0
  7  3  2  0
  8  3  1  0
  9  4  2  0
 10  4  1  0
 11 13  1  0
 12 11  1  0
 13 10  2  0
 14  9  1  0
 15  8  2  0
 16  8  1  0
 17 16  2  0
 18 15  1  0
 19 17  1  0
 11 14  2  0
 19 18  2  0
  2 20  1  0
  9 21  1  0
 10 22  1  0
 12 23  1  0
 12 24  1  0
 13 25  1  0
 14 26  1  0
 15 27  1  0
 16 28  1  0
 17 29  1  0
 18 30  1  0
 19 31  1  0
M  END
> <Uni-Dock RESULT> 
ENERGY=   -3.795  LOWER_BOUND=    5.287  UPPER_BOUND=    7.422
INTER + INTRA:          -3.795
INTER:                  -3.795
INTRA:                   0.000
UNBOUND:                 0.000

$$$$

     RDKit          3D

 31 32  0  0  0  0  0  0  0  0999 V2000
   47.5299    6.0348   19.2162 S   0  0  0  0  0  0  0  0  0  0  0  0
   47.9703    7.2857   18.2020 N   0  0  0  0  0  0  0  0  0  0  0  0
   47.6214    8.6193   18.4602 C   0  0  0  0  0  0  0  0  0  0  0  0
   48.3349    4.6763   18.3877 C   0  0  0  0  0  0  0  0  0  0  0  0
   48.1987    6.1999   20.4872 O   0  0  0  0  0  0  0  0  0  0  0  0
   46.1064    5.8106   19.1020 O   0  0  0  0  0  0  0  0  0  0  0  0
   46.9706    8.9768   19.4282 O   0  0  0  0  0  0  0  0  0  0  0  0
   48.1121    9.6116   17.4631 C   0  0  0  0  0  0  0  0  0  0  0  0
   47.6607    3.9897   17.3763 C   0  0  0  0  0  0  0  0  0  0  0  0
   49.6351    4.3174   18.7475 C   0  0  0  0  0  0  0  0  0  0  0  0
   49.5888    2.5368   17.0928 C   0  0  0  0  0  0  0  0  0  0  0  0
   50.2688    1.5695   16.3447 N   0  0  0  0  0  0  0  0  0  0  0  0
   50.2639    3.2642   18.0790 C   0  0  0  0  0  0  0  0  0  0  0  0
   48.3024    2.9384   16.7172 C   0  0  0  0  0  0  0  0  0  0  0  0
   48.4226    9.2650   16.1402 C   0  0  0  0  0  0  0  0  0  0  0  0
   48.2721   10.9400   17.8821 C   0  0  0  0  0  0  0  0  0  0  0  0
   48.7500   11.9064   16.9953 C   0  0  0  0  0  0  0  0  0  0  0  0
   48.8993   10.2366   15.2559 C   0  0  0  0  0  0  0  0  0  0  0  0
   49.0660   11.5530   15.6847 C   0  0  0  0  0  0  0  0  0  0  0  0
   48.6733    7.0555   17.5107 H   0  0  0  0  0  0  0  0  0  0  0  0
   46.6483    4.2678   17.0909 H   0  0  0  0  0  0  0  0  0  0  0  0
   50.1663    4.8506   19.5332 H   0  0  0  0  0  0  0  0  0  0  0  0
   51.0287    1.1203   16.8474 H   0  0  0  0  0  0  0  0  0  0  0  0
   49.6585    0.8922   15.8969 H   0  0  0  0  0  0  0  0  0  0  0  0
   51.2882    3.0090   18.3408 H   0  0  0  0  0  0  0  0  0  0  0  0
   47.7850    2.4273   15.9088 H   0  0  0  0  0  0  0  0  0  0  0  0
   48.2682    8.2582   15.7637 H   0  0  0  0  0  0  0  0  0  0  0  0
   48.0269   11.2269   18.9038 H   0  0  0  0  0  0  0  0  0  0  0  0
   48.8725   12.9347   17.3276 H   0  0  0  0  0  0  0  0  0  0  0  0
   49.1318    9.9705   14.2270 H   0  0  0  0  0  0  0  0  0  0  0  0
   49.4341   12.3079   14.9935 H   0  0  0  0  0  0  0  0  0  0  0  0
  2  1  1  0
  3  2  1  0
  4  1  1  0
  5  1  2  0
  6  1  2  0
  7  3  2  0
  8  3  1  0
  9  4  2  0
 10  4  1  0
 11 13  1  0
 12 11  1  0
 13 10  2  0
 14  9  1  0
 15  8  2  0
 16  8  1  0
 17 16  2  0
 18 15  1  0
 19 17  1  0
 11 14  2  0
 19 18  2  0
  2 20  1  0
  9 21  1  0
 10 22  1  0
 12 23  1  0
 12 24  1  0
 13 25  1  0
 14 26  1  0
 15 27  1  0
 16 28  1  0
 17 29  1  0
 18 30  1  0
 19 31  1  0
M  END
> <Uni-Dock RESULT> 
ENERGY=   -3.730  LOWER_BOUND=    6.478  UPPER_BOUND=    7.288
INTER + INTRA:          -3.730
INTER:                  -3.730
INTRA:                   0.000
UNBOUND:                 0.000

$$$$

     RDKit          3D

 31 32  0  0  0  0  0  0  0  0999 V2000
   48.0411    5.0969   16.6271 S   0  0  0  0  0  0  0  0  0  0  0  0
   49.5126    4.4302   17.0481 N   0  0  0  0  0  0  0  0  0  0  0  0
   49.6663    3.0633   17.3216 C   0  0  0  0  0  0  0  0  0  0  0  0
   48.5442    6.7836   16.3411 C   0  0  0  0  0  0  0  0  0  0  0  0
   47.6305    4.5643   15.3473 O   0  0  0  0  0  0  0  0  0  0  0  0
   47.1769    5.1086   17.7859 O   0  0  0  0  0  0  0  0  0  0  0  0
   48.7531    2.2552   17.2836 O   0  0  0  0  0  0  0  0  0  0  0  0
   51.0513    2.6327   17.6622 C   0  0  0  0  0  0  0  0  0  0  0  0
   48.5607    7.6872   17.4051 C   0  0  0  0  0  0  0  0  0  0  0  0
   48.9284    7.1846   15.0603 C   0  0  0  0  0  0  0  0  0  0  0  0
   49.3215    9.4339   15.8954 C   0  0  0  0  0  0  0  0  0  0  0  0
   49.8530   10.7140   15.7044 N   0  0  0  0  0  0  0  0  0  0  0  0
   49.3394    8.5033   14.8508 C   0  0  0  0  0  0  0  0  0  0  0  0
   48.9738    9.0026   17.1800 C   0  0  0  0  0  0  0  0  0  0  0  0
   52.0104    3.5124   18.1848 C   0  0  0  0  0  0  0  0  0  0  0  0
   51.3965    1.2923   17.4382 C   0  0  0  0  0  0  0  0  0  0  0  0
   52.6871    0.8402   17.7186 C   0  0  0  0  0  0  0  0  0  0  0  0
   53.3007    3.0543   18.4652 C   0  0  0  0  0  0  0  0  0  0  0  0
   53.6382    1.7222   18.2285 C   0  0  0  0  0  0  0  0  0  0  0  0
   50.3176    5.0240   16.8916 H   0  0  0  0  0  0  0  0  0  0  0  0
   48.2647    7.3781   18.4054 H   0  0  0  0  0  0  0  0  0  0  0  0
   48.9200    6.4841   14.2279 H   0  0  0  0  0  0  0  0  0  0  0  0
   49.7783   11.0519   14.7494 H   0  0  0  0  0  0  0  0  0  0  0  0
   49.5222   11.4008   16.3759 H   0  0  0  0  0  0  0  0  0  0  0  0
   49.6682    8.8027   13.8583 H   0  0  0  0  0  0  0  0  0  0  0  0
   49.0151    9.6941   18.0181 H   0  0  0  0  0  0  0  0  0  0  0  0
   51.7696    4.5456   18.4165 H   0  0  0  0  0  0  0  0  0  0  0  0
   50.6603    0.5947   17.0412 H   0  0  0  0  0  0  0  0  0  0  0  0
   52.9480   -0.2006   17.5415 H   0  0  0  0  0  0  0  0  0  0  0  0
   54.0426    3.7338   18.8790 H   0  0  0  0  0  0  0  0  0  0  0  0
   54.6423    1.3675   18.4507 H   0  0  0  0  0  0  0  0  0  0  0  0
  2  1  1  0
  3  2  1  0
  4  1  1  0
  5  1  2  0
  6  1  2  0
  7  3  2  0
  8  3  1  0
  9  4  2  0
 10  4  1  0
 11 13  1  0
 12 11  1  0
 13 10  2  0
 14  9  1  0
 15  8  2  0
 16  8  1  0
 17 16  2  0
 18 15  1  0
 19 17  1  0
 11 14  2  0
 19 18  2  0
  2 20  1  0
  9 21  1  0
 10 22  1  0
 12 23  1  0
 12 24  1  0
 13 25  1  0
 14 26  1  0
 15 27  1  0
 16 28  1  0
 17 29  1  0
 18 30  1  0
 19 31  1  0
M  END
> <Uni-Dock RESULT> 
ENERGY=   -3.726  LOWER_BOUND=    6.290  UPPER_BOUND=    8.635
INTER + INTRA:          -3.726
INTER:                  -3.726
INTRA:                   0.000
UNBOUND:                 0.000

$$$$

     RDKit          3D

 31 32  0  0  0  0  0  0  0  0999 V2000
   48.7920    9.6492   14.3911 S   0  0  0  0  0  0  0  0  0  0  0  0
   48.2108    9.8512   15.9430 N   0  0  0  0  0  0  0  0  0  0  0  0
   48.6270   10.9056   16.7688 C   0  0  0  0  0  0  0  0  0  0  0  0
   47.8283    8.2353   13.8891 C   0  0  0  0  0  0  0  0  0  0  0  0
   48.3549   10.7596   13.5751 O   0  0  0  0  0  0  0  0  0  0  0  0
   50.1698    9.2159   14.4535 O   0  0  0  0  0  0  0  0  0  0  0  0
   49.4417   11.7501   16.4349 O   0  0  0  0  0  0  0  0  0  0  0  0
   47.9936   10.9486   18.1166 C   0  0  0  0  0  0  0  0  0  0  0  0
   48.3043    6.9493   14.1509 C   0  0  0  0  0  0  0  0  0  0  0  0
   46.6018    8.4242   13.2497 C   0  0  0  0  0  0  0  0  0  0  0  0
   46.3257    6.0138   13.0930 C   0  0  0  0  0  0  0  0  0  0  0  0
   45.5071    4.9094   12.8324 N   0  0  0  0  0  0  0  0  0  0  0  0
   45.8454    7.3101   12.8778 C   0  0  0  0  0  0  0  0  0  0  0  0
   47.5368    5.8450   13.7728 C   0  0  0  0  0  0  0  0  0  0  0  0
   47.4535    9.8119   18.7356 C   0  0  0  0  0  0  0  0  0  0  0  0
   47.9361   12.1843   18.7765 C   0  0  0  0  0  0  0  0  0  0  0  0
   47.3337   12.2860   20.0317 C   0  0  0  0  0  0  0  0  0  0  0  0
   46.8528    9.9189   19.9929 C   0  0  0  0  0  0  0  0  0  0  0  0
   46.7901   11.1543   20.6367 C   0  0  0  0  0  0  0  0  0  0  0  0
   47.3949    9.2985   16.1751 H   0  0  0  0  0  0  0  0  0  0  0  0
   49.2583    6.7977   14.6514 H   0  0  0  0  0  0  0  0  0  0  0  0
   46.2247    9.4241   13.0453 H   0  0  0  0  0  0  0  0  0  0  0  0
   44.8354    5.0627   12.0859 H   0  0  0  0  0  0  0  0  0  0  0  0
   46.0171    4.0394   12.7102 H   0  0  0  0  0  0  0  0  0  0  0  0
   44.8761    7.4624   12.4088 H   0  0  0  0  0  0  0  0  0  0  0  0
   47.8969    4.8461   14.0072 H   0  0  0  0  0  0  0  0  0  0  0  0
   47.5197    8.8289   18.2790 H   0  0  0  0  0  0  0  0  0  0  0  0
   48.3589   13.0746   18.3130 H   0  0  0  0  0  0  0  0  0  0  0  0
   47.2919   13.2481   20.5372 H   0  0  0  0  0  0  0  0  0  0  0  0
   46.4417    9.0361   20.4777 H   0  0  0  0  0  0  0  0  0  0  0  0
   46.3249   11.2341   21.6167 H   0  0  0  0  0  0  0  0  0  0  0  0
  2  1  1  0
  3  2  1  0
  4  1  1  0
  5  1  2  0
  6  1  2  0
  7  3  2  0
  8  3  1  0
  9  4  2  0
 10  4  1  0
 11 13  1  0
 12 11  1  0
 13 10  2  0
 14  9  1  0
 15  8  2  0
 16  8  1  0
 17 16  2  0
 18 15  1  0
 19 17  1  0
 11 14  2  0
 19 18  2  0
  2 20  1  0
  9 21  1  0
 10 22  1  0
 12 23  1  0
 12 24  1  0
 13 25  1  0
 14 26  1  0
 15 27  1  0
 16 28  1  0
 17 29  1  0
 18 30  1  0
 19 31  1  0
M  END
> <Uni-Dock RESULT> 
ENERGY=   -3.677  LOWER_BOUND=    4.523  UPPER_BOUND=    6.444
INTER + INTRA:          -3.677
INTER:                  -3.677
INTRA:                   0.000
UNBOUND:                 0.000

$$$$

     RDKit          3D

 31 32  0  0  0  0  0  0  0  0999 V2000
   49.8343    7.2156   16.7607 S   0  0  0  0  0  0  0  0  0  0  0  0
   48.8702    8.2578   17.6391 N   0  0  0  0  0  0  0  0  0  0  0  0
   49.0945    9.6419   17.6689 C   0  0  0  0  0  0  0  0  0  0  0  0
   48.9822    5.6805   17.0725 C   0  0  0  0  0  0  0  0  0  0  0  0
   49.6748    7.4993   15.3521 O   0  0  0  0  0  0  0  0  0  0  0  0
   51.1273    7.1139   17.3991 O   0  0  0  0  0  0  0  0  0  0  0  0
   50.0020   10.1969   17.0716 O   0  0  0  0  0  0  0  0  0  0  0  0
   48.1280   10.4272   18.4869 C   0  0  0  0  0  0  0  0  0  0  0  0
   49.3191    4.9215   18.1947 C   0  0  0  0  0  0  0  0  0  0  0  0
   47.9783    5.2554   16.2006 C   0  0  0  0  0  0  0  0  0  0  0  0
   47.6566    3.2656   17.5600 C   0  0  0  0  0  0  0  0  0  0  0  0
   46.8927    2.1393   17.8851 N   0  0  0  0  0  0  0  0  0  0  0  0
   47.3035    4.0610   16.4645 C   0  0  0  0  0  0  0  0  0  0  0  0
   48.6357    3.7291   18.4452 C   0  0  0  0  0  0  0  0  0  0  0  0
   47.3974    9.8637   19.5431 C   0  0  0  0  0  0  0  0  0  0  0  0
   47.9472   11.7811   18.1703 C   0  0  0  0  0  0  0  0  0  0  0  0
   47.0376   12.5581   18.8898 C   0  0  0  0  0  0  0  0  0  0  0  0
   46.4891   10.6464   20.2612 C   0  0  0  0  0  0  0  0  0  0  0  0
   46.3076   11.9892   19.9319 C   0  0  0  0  0  0  0  0  0  0  0  0
   48.0004    7.8635   17.9751 H   0  0  0  0  0  0  0  0  0  0  0  0
   50.0990    5.2504   18.8783 H   0  0  0  0  0  0  0  0  0  0  0  0
   47.7097    5.8441   15.3259 H   0  0  0  0  0  0  0  0  0  0  0  0
   46.4502    1.6976   17.0845 H   0  0  0  0  0  0  0  0  0  0  0  0
   47.3812    1.4654   18.4674 H   0  0  0  0  0  0  0  0  0  0  0  0
   46.5005    3.7500   15.8002 H   0  0  0  0  0  0  0  0  0  0  0  0
   48.8800    3.1575   19.3374 H   0  0  0  0  0  0  0  0  0  0  0  0
   47.5427    8.8323   19.8499 H   0  0  0  0  0  0  0  0  0  0  0  0
   48.5136   12.2356   17.3586 H   0  0  0  0  0  0  0  0  0  0  0  0
   46.9019   13.6074   18.6380 H   0  0  0  0  0  0  0  0  0  0  0  0
   45.9287   10.2125   21.0864 H   0  0  0  0  0  0  0  0  0  0  0  0
   45.6024   12.5969   20.4945 H   0  0  0  0  0  0  0  0  0  0  0  0
  2  1  1  0
  3  2  1  0
  4  1  1  0
  5  1  2  0
  6  1  2  0
  7  3  2  0
  8  3  1  0
  9  4  2  0
 10  4  1  0
 11 13  1  0
 12 11  1  0
 13 10  2  0
 14  9  1  0
 15  8  2  0
 16  8  1  0
 17 16  2  0
 18 15  1  0
 19 17  1  0
 11 14  2  0
 19 18  2  0
  2 20  1  0
  9 21  1  0
 10 22  1  0
 12 23  1  0
 12 24  1  0
 13 25  1  0
 14 26  1  0
 15 27  1  0
 16 28  1  0
 17 29  1  0
 18 30  1  0
 19 31  1  0
M  END
> <Uni-Dock RESULT> 
ENERGY=   -3.627  LOWER_BOUND=    6.316  UPPER_BOUND=    7.799
INTER + INTRA:          -3.627
INTER:                  -3.627
INTRA:                   0.000
UNBOUND:                 0.000

$$$$
