
     RDKit          3D

 31 32  0  0  0  0  0  0  0  0999 V2000
   44.6280    5.8306   10.5482 S   0  0  0  0  0  0  0  0  0  0  0  0
   45.3730    4.9832    9.3272 N   0  0  0  0  0  0  0  0  0  0  0  0
   45.3892    3.5893    9.2080 C   0  0  0  0  0  0  0  0  0  0  0  0
   45.4577    5.2770   12.0145 C   0  0  0  0  0  0  0  0  0  0  0  0
   43.2345    5.4523   10.6100 O   0  0  0  0  0  0  0  0  0  0  0  0
   45.0105    7.2118   10.3298 O   0  0  0  0  0  0  0  0  0  0  0  0
   44.9081    2.8332   10.0362 O   0  0  0  0  0  0  0  0  0  0  0  0
   46.0754    3.0595    7.9967 C   0  0  0  0  0  0  0  0  0  0  0  0
   46.6488    5.8915   12.4076 C   0  0  0  0  0  0  0  0  0  0  0  0
   44.8782    4.2894   12.8116 C   0  0  0  0  0  0  0  0  0  0  0  0
   46.7523    4.4369   14.3533 C   0  0  0  0  0  0  0  0  0  0  0  0
   47.3266    4.1125   15.5870 N   0  0  0  0  0  0  0  0  0  0  0  0
   45.5216    3.8847   13.9843 C   0  0  0  0  0  0  0  0  0  0  0  0
   47.2812    5.4781   13.5837 C   0  0  0  0  0  0  0  0  0  0  0  0
   46.5842    1.7537    8.0466 C   0  0  0  0  0  0  0  0  0  0  0  0
   46.2338    3.8155    6.8264 C   0  0  0  0  0  0  0  0  0  0  0  0
   46.9054    3.2720    5.7278 C   0  0  0  0  0  0  0  0  0  0  0  0
   47.2554    1.2160    6.9470 C   0  0  0  0  0  0  0  0  0  0  0  0
   47.4180    1.9767    5.7905 C   0  0  0  0  0  0  0  0  0  0  0  0
   45.9436    5.5812    8.7416 H   0  0  0  0  0  0  0  0  0  0  0  0
   47.0790    6.7016   11.8240 H   0  0  0  0  0  0  0  0  0  0  0  0
   43.9322    3.8313   12.5294 H   0  0  0  0  0  0  0  0  0  0  0  0
   47.0832    3.1859   15.9234 H   0  0  0  0  0  0  0  0  0  0  0  0
   48.3237    4.2939   15.6414 H   0  0  0  0  0  0  0  0  0  0  0  0
   45.0497    3.1301   14.6086 H   0  0  0  0  0  0  0  0  0  0  0  0
   48.1906    5.9826   13.9004 H   0  0  0  0  0  0  0  0  0  0  0  0
   46.4610    1.1495    8.9441 H   0  0  0  0  0  0  0  0  0  0  0  0
   45.8138    4.8126    6.7309 H   0  0  0  0  0  0  0  0  0  0  0  0
   47.0200    3.8549    4.8165 H   0  0  0  0  0  0  0  0  0  0  0  0
   47.6479    0.2028    6.9923 H   0  0  0  0  0  0  0  0  0  0  0  0
   47.9370    1.5552    4.9325 H   0  0  0  0  0  0  0  0  0  0  0  0
  2  1  1  0
  3  2  1  0
  4  1  1  0
  5  1  2  0
  6  1  2  0
  7  3  2  0
  8  3  1  0
  9  4  2  0
 10  4  1  0
 11 13  1  0
 12 11  1  0
 13 10  2  0
 14  9  1  0
 15  8  2  0
 16  8  1  0
 17 16  2  0
 18 15  1  0
 19 17  1  0
 11 14  2  0
 19 18  2  0
  2 20  1  0
  9 21  1  0
 10 22  1  0
 12 23  1  0
 12 24  1  0
 13 25  1  0
 14 26  1  0
 15 27  1  0
 16 28  1  0
 17 29  1  0
 18 30  1  0
 19 31  1  0
M  END
> <Uni-Dock RESULT> 
ENERGY=   -4.946  LOWER_BOUND=    0.000  UPPER_BOUND=    0.000
INTER + INTRA:          -4.946
INTER:                  -4.946
INTRA:                   0.000
UNBOUND:                 0.000

$$$$

     RDKit          3D

 31 32  0  0  0  0  0  0  0  0999 V2000
   43.6519    6.1163   12.0420 S   0  0  0  0  0  0  0  0  0  0  0  0
   45.1074    6.5857   12.6939 N   0  0  0  0  0  0  0  0  0  0  0  0
   46.2266    6.9897   11.9579 C   0  0  0  0  0  0  0  0  0  0  0  0
   44.0653    4.6971   11.0624 C   0  0  0  0  0  0  0  0  0  0  0  0
   43.1527    7.1666   11.1839 O   0  0  0  0  0  0  0  0  0  0  0  0
   42.8714    5.6502   13.1713 O   0  0  0  0  0  0  0  0  0  0  0  0
   46.2761    6.9764   10.7387 O   0  0  0  0  0  0  0  0  0  0  0  0
   47.4023    7.4179   12.7660 C   0  0  0  0  0  0  0  0  0  0  0  0
   44.1248    3.4373   11.6626 C   0  0  0  0  0  0  0  0  0  0  0  0
   44.2484    4.8307    9.6857 C   0  0  0  0  0  0  0  0  0  0  0  0
   44.6757    2.4436    9.5128 C   0  0  0  0  0  0  0  0  0  0  0  0
   44.8463    1.3040    8.7197 N   0  0  0  0  0  0  0  0  0  0  0  0
   44.5386    3.7009    8.9161 C   0  0  0  0  0  0  0  0  0  0  0  0
   44.4145    2.3152   10.8809 C   0  0  0  0  0  0  0  0  0  0  0  0
   48.6717    7.3369   12.1755 C   0  0  0  0  0  0  0  0  0  0  0  0
   47.2844    7.8862   14.0825 C   0  0  0  0  0  0  0  0  0  0  0  0
   48.4264    8.2546   14.7990 C   0  0  0  0  0  0  0  0  0  0  0  0
   49.8093    7.7048   12.8961 C   0  0  0  0  0  0  0  0  0  0  0  0
   49.6857    8.1599   14.2076 C   0  0  0  0  0  0  0  0  0  0  0  0
   45.1511    6.4145   13.6914 H   0  0  0  0  0  0  0  0  0  0  0  0
   43.9271    3.3141   12.7245 H   0  0  0  0  0  0  0  0  0  0  0  0
   44.1684    5.8044    9.2062 H   0  0  0  0  0  0  0  0  0  0  0  0
   45.3163    1.4831    7.8376 H   0  0  0  0  0  0  0  0  0  0  0  0
   45.2405    0.5097    9.2133 H   0  0  0  0  0  0  0  0  0  0  0  0
   44.6574    3.8139    7.8414 H   0  0  0  0  0  0  0  0  0  0  0  0
   44.4275    1.3340   11.3487 H   0  0  0  0  0  0  0  0  0  0  0  0
   48.7799    6.9849   11.1507 H   0  0  0  0  0  0  0  0  0  0  0  0
   46.3161    8.0082   14.5593 H   0  0  0  0  0  0  0  0  0  0  0  0
   48.3342    8.6269   15.8170 H   0  0  0  0  0  0  0  0  0  0  0  0
   50.7909    7.6393   12.4324 H   0  0  0  0  0  0  0  0  0  0  0  0
   50.5722    8.4509   14.7667 H   0  0  0  0  0  0  0  0  0  0  0  0
  2  1  1  0
  3  2  1  0
  4  1  1  0
  5  1  2  0
  6  1  2  0
  7  3  2  0
  8  3  1  0
  9  4  2  0
 10  4  1  0
 11 13  1  0
 12 11  1  0
 13 10  2  0
 14  9  1  0
 15  8  2  0
 16  8  1  0
 17 16  2  0
 18 15  1  0
 19 17  1  0
 11 14  2  0
 19 18  2  0
  2 20  1  0
  9 21  1  0
 10 22  1  0
 12 23  1  0
 12 24  1  0
 13 25  1  0
 14 26  1  0
 15 27  1  0
 16 28  1  0
 17 29  1  0
 18 30  1  0
 19 31  1  0
M  END
> <Uni-Dock RESULT> 
ENERGY=   -4.332  LOWER_BOUND=    2.922  UPPER_BOUND=    6.159
INTER + INTRA:          -4.332
INTER:                  -4.332
INTRA:                   0.000
UNBOUND:                 0.000

$$$$

     RDKit          3D

 31 32  0  0  0  0  0  0  0  0999 V2000
   48.1962    5.6093   17.9823 S   0  0  0  0  0  0  0  0  0  0  0  0
   48.3927    6.5545   16.6287 N   0  0  0  0  0  0  0  0  0  0  0  0
   48.1467    6.1407   15.3150 C   0  0  0  0  0  0  0  0  0  0  0  0
   49.3272    4.2671   17.7286 C   0  0  0  0  0  0  0  0  0  0  0  0
   46.8438    5.1011   18.0170 O   0  0  0  0  0  0  0  0  0  0  0  0
   48.7135    6.4107   19.0740 O   0  0  0  0  0  0  0  0  0  0  0  0
   47.8211    5.0042   15.0128 O   0  0  0  0  0  0  0  0  0  0  0  0
   48.3421    7.1835   14.2694 C   0  0  0  0  0  0  0  0  0  0  0  0
   50.6643    4.4101   18.1063 C   0  0  0  0  0  0  0  0  0  0  0  0
   48.8623    3.0495   17.2307 C   0  0  0  0  0  0  0  0  0  0  0  0
   51.1109    2.1360   17.3707 C   0  0  0  0  0  0  0  0  0  0  0  0
   51.9690    1.0324   17.3182 N   0  0  0  0  0  0  0  0  0  0  0  0
   49.7539    1.9859   17.0678 C   0  0  0  0  0  0  0  0  0  0  0  0
   51.5453    3.3377   17.9394 C   0  0  0  0  0  0  0  0  0  0  0  0
   48.6243    6.7606   12.9626 C   0  0  0  0  0  0  0  0  0  0  0  0
   48.2617    8.5558   14.5464 C   0  0  0  0  0  0  0  0  0  0  0  0
   48.4749    9.4888   13.5279 C   0  0  0  0  0  0  0  0  0  0  0  0
   48.8379    7.6966   11.9492 C   0  0  0  0  0  0  0  0  0  0  0  0
   48.7662    9.0592   12.2337 C   0  0  0  0  0  0  0  0  0  0  0  0
   48.8498    7.4332   16.8407 H   0  0  0  0  0  0  0  0  0  0  0  0
   51.0243    5.3357   18.5487 H   0  0  0  0  0  0  0  0  0  0  0  0
   47.8142    2.9203   16.9677 H   0  0  0  0  0  0  0  0  0  0  0  0
   51.6915    0.3269   16.6427 H   0  0  0  0  0  0  0  0  0  0  0  0
   52.9520    1.2738   17.2433 H   0  0  0  0  0  0  0  0  0  0  0  0
   49.3759    1.0354   16.6998 H   0  0  0  0  0  0  0  0  0  0  0  0
   52.5768    3.4453   18.2651 H   0  0  0  0  0  0  0  0  0  0  0  0
   48.6804    5.6986   12.7284 H   0  0  0  0  0  0  0  0  0  0  0  0
   47.9993    8.9233   15.5343 H   0  0  0  0  0  0  0  0  0  0  0  0
   48.4032   10.5532   13.7406 H   0  0  0  0  0  0  0  0  0  0  0  0
   49.0566    7.3620   10.9378 H   0  0  0  0  0  0  0  0  0  0  0  0
   48.9281    9.7878   11.4424 H   0  0  0  0  0  0  0  0  0  0  0  0
  2  1  1  0
  3  2  1  0
  4  1  1  0
  5  1  2  0
  6  1  2  0
  7  3  2  0
  8  3  1  0
  9  4  2  0
 10  4  1  0
 11 13  1  0
 12 11  1  0
 13 10  2  0
 14  9  1  0
 15  8  2  0
 16  8  1  0
 17 16  2  0
 18 15  1  0
 19 17  1  0
 11 14  2  0
 19 18  2  0
  2 20  1  0
  9 21  1  0
 10 22  1  0
 12 23  1  0
 12 24  1  0
 13 25  1  0
 14 26  1  0
 15 27  1  0
 16 28  1  0
 17 29  1  0
 18 30  1  0
 19 31  1  0
M  END
> <Uni-Dock RESULT> 
ENERGY=   -4.010  LOWER_BOUND=    6.071  UPPER_BOUND=    7.691
INTER + INTRA:          -4.010
INTER:                  -4.010
INTRA:                   0.000
UNBOUND:                 0.000

$$$$

     RDKit          3D

 31 32  0  0  0  0  0  0  0  0999 V2000
   48.4886    8.3124   12.1193 S   0  0  0  0  0  0  0  0  0  0  0  0
   47.2867    7.2043   11.8169 N   0  0  0  0  0  0  0  0  0  0  0  0
   45.9863    7.2666   12.3294 C   0  0  0  0  0  0  0  0  0  0  0  0
   48.7080    8.2291   13.8771 C   0  0  0  0  0  0  0  0  0  0  0  0
   48.0249    9.6311   11.7525 O   0  0  0  0  0  0  0  0  0  0  0  0
   49.6763    7.7493   11.5078 O   0  0  0  0  0  0  0  0  0  0  0  0
   45.6096    8.1177   13.1186 O   0  0  0  0  0  0  0  0  0  0  0  0
   45.0672    6.1868   11.8734 C   0  0  0  0  0  0  0  0  0  0  0  0
   49.5563    7.2626   14.4221 C   0  0  0  0  0  0  0  0  0  0  0  0
   48.0996    9.1771   14.7004 C   0  0  0  0  0  0  0  0  0  0  0  0
   49.0934    8.1186   16.6503 C   0  0  0  0  0  0  0  0  0  0  0  0
   49.3915    8.1474   18.0168 N   0  0  0  0  0  0  0  0  0  0  0  0
   48.3071    9.1253   16.0813 C   0  0  0  0  0  0  0  0  0  0  0  0
   49.7563    7.2229   15.8050 C   0  0  0  0  0  0  0  0  0  0  0  0
   43.9715    5.8674   12.6880 C   0  0  0  0  0  0  0  0  0  0  0  0
   45.2628    5.4835   10.6761 C   0  0  0  0  0  0  0  0  0  0  0  0
   44.3779    4.4655   10.3101 C   0  0  0  0  0  0  0  0  0  0  0  0
   43.0914    4.8487   12.3186 C   0  0  0  0  0  0  0  0  0  0  0  0
   43.2975    4.1469   11.1321 C   0  0  0  0  0  0  0  0  0  0  0  0
   47.6348    6.3886   11.3274 H   0  0  0  0  0  0  0  0  0  0  0  0
   50.0805    6.5552   13.7842 H   0  0  0  0  0  0  0  0  0  0  0  0
   47.4656    9.9547   14.2786 H   0  0  0  0  0  0  0  0  0  0  0  0
   48.6773    8.5928   18.5846 H   0  0  0  0  0  0  0  0  0  0  0  0
   49.6854    7.2533   18.3967 H   0  0  0  0  0  0  0  0  0  0  0  0
   47.8456    9.8824   16.7105 H   0  0  0  0  0  0  0  0  0  0  0  0
   50.4427    6.4887   16.2191 H   0  0  0  0  0  0  0  0  0  0  0  0
   43.7994    6.4105   13.6160 H   0  0  0  0  0  0  0  0  0  0  0  0
   46.0715    5.7318    9.9949 H   0  0  0  0  0  0  0  0  0  0  0  0
   44.5241    3.9262    9.3767 H   0  0  0  0  0  0  0  0  0  0  0  0
   42.2437    4.6056   12.9550 H   0  0  0  0  0  0  0  0  0  0  0  0
   42.6085    3.3566   10.8426 H   0  0  0  0  0  0  0  0  0  0  0  0
  2  1  1  0
  3  2  1  0
  4  1  1  0
  5  1  2  0
  6  1  2  0
  7  3  2  0
  8  3  1  0
  9  4  2  0
 10  4  1  0
 11 13  1  0
 12 11  1  0
 13 10  2  0
 14  9  1  0
 15  8  2  0
 16  8  1  0
 17 16  2  0
 18 15  1  0
 19 17  1  0
 11 14  2  0
 19 18  2  0
  2 20  1  0
  9 21  1  0
 10 22  1  0
 12 23  1  0
 12 24  1  0
 13 25  1  0
 14 26  1  0
 15 27  1  0
 16 28  1  0
 17 29  1  0
 18 30  1  0
 19 31  1  0
M  END
> <Uni-Dock RESULT> 
ENERGY=   -4.005  LOWER_BOUND=    3.991  UPPER_BOUND=    5.490
INTER + INTRA:          -4.005
INTER:                  -4.005
INTRA:                   0.000
UNBOUND:                 0.000

$$$$

     RDKit          3D

 31 32  0  0  0  0  0  0  0  0999 V2000
   48.2669    4.1362   18.2070 S   0  0  0  0  0  0  0  0  0  0  0  0
   48.1179    4.7688   19.7372 N   0  0  0  0  0  0  0  0  0  0  0  0
   47.5846    6.0262   20.0404 C   0  0  0  0  0  0  0  0  0  0  0  0
   49.3435    5.2776   17.3805 C   0  0  0  0  0  0  0  0  0  0  0  0
   46.9737    4.1387   17.5618 O   0  0  0  0  0  0  0  0  0  0  0  0
   49.0021    2.8996   18.3854 O   0  0  0  0  0  0  0  0  0  0  0  0
   47.2281    6.8320   19.1962 O   0  0  0  0  0  0  0  0  0  0  0  0
   47.5035    6.3530   21.4914 C   0  0  0  0  0  0  0  0  0  0  0  0
   50.7274    5.1325   17.5011 C   0  0  0  0  0  0  0  0  0  0  0  0
   48.8084    6.2627   16.5499 C   0  0  0  0  0  0  0  0  0  0  0  0
   51.0517    7.0510   16.0430 C   0  0  0  0  0  0  0  0  0  0  0  0
   51.9033    7.8485   15.2711 N   0  0  0  0  0  0  0  0  0  0  0  0
   49.6660    7.1351   15.8743 C   0  0  0  0  0  0  0  0  0  0  0  0
   51.5739    6.0110   16.8187 C   0  0  0  0  0  0  0  0  0  0  0  0
   47.4854    7.7055   21.8615 C   0  0  0  0  0  0  0  0  0  0  0  0
   47.4529    5.3665   22.4866 C   0  0  0  0  0  0  0  0  0  0  0  0
   47.3985    5.7339   23.8339 C   0  0  0  0  0  0  0  0  0  0  0  0
   47.4325    8.0671   23.2088 C   0  0  0  0  0  0  0  0  0  0  0  0
   47.3924    7.0812   24.1932 C   0  0  0  0  0  0  0  0  0  0  0  0
   48.5881    4.2007   20.4317 H   0  0  0  0  0  0  0  0  0  0  0  0
   51.1555    4.3324   18.1001 H   0  0  0  0  0  0  0  0  0  0  0  0
   47.7317    6.3587   16.4236 H   0  0  0  0  0  0  0  0  0  0  0  0
   51.4954    8.7351   14.9911 H   0  0  0  0  0  0  0  0  0  0  0  0
   52.8351    7.9569   15.6586 H   0  0  0  0  0  0  0  0  0  0  0  0
   49.2384    7.8844   15.2129 H   0  0  0  0  0  0  0  0  0  0  0  0
   52.6496    5.8722   16.8915 H   0  0  0  0  0  0  0  0  0  0  0  0
   47.5140    8.4841   21.1008 H   0  0  0  0  0  0  0  0  0  0  0  0
   47.4176    4.3093   22.2397 H   0  0  0  0  0  0  0  0  0  0  0  0
   47.3497    4.9687   24.6056 H   0  0  0  0  0  0  0  0  0  0  0  0
   47.4189    9.1178   23.4892 H   0  0  0  0  0  0  0  0  0  0  0  0
   47.3463    7.3640   25.2425 H   0  0  0  0  0  0  0  0  0  0  0  0
  2  1  1  0
  3  2  1  0
  4  1  1  0
  5  1  2  0
  6  1  2  0
  7  3  2  0
  8  3  1  0
  9  4  2  0
 10  4  1  0
 11 13  1  0
 12 11  1  0
 13 10  2  0
 14  9  1  0
 15  8  2  0
 16  8  1  0
 17 16  2  0
 18 15  1  0
 19 17  1  0
 11 14  2  0
 19 18  2  0
  2 20  1  0
  9 21  1  0
 10 22  1  0
 12 23  1  0
 12 24  1  0
 13 25  1  0
 14 26  1  0
 15 27  1  0
 16 28  1  0
 17 29  1  0
 18 30  1  0
 19 31  1  0
M  END
> <Uni-Dock RESULT> 
ENERGY=   -3.953  LOWER_BOUND=    8.116  UPPER_BOUND=   11.501
INTER + INTRA:          -3.953
INTER:                  -3.953
INTRA:                   0.000
UNBOUND:                 0.000

$$$$

     RDKit          3D

 31 32  0  0  0  0  0  0  0  0999 V2000
   47.5822    3.5300   16.7022 S   0  0  0  0  0  0  0  0  0  0  0  0
   46.5937    4.0372   15.4655 N   0  0  0  0  0  0  0  0  0  0  0  0
   46.9665    4.9219   14.4478 C   0  0  0  0  0  0  0  0  0  0  0  0
   47.9940    5.0287   17.5562 C   0  0  0  0  0  0  0  0  0  0  0  0
   48.7814    2.9464   16.1455 O   0  0  0  0  0  0  0  0  0  0  0  0
   46.7200    2.7576   17.5749 O   0  0  0  0  0  0  0  0  0  0  0  0
   48.0525    5.4760   14.3964 O   0  0  0  0  0  0  0  0  0  0  0  0
   45.9241    5.1862   13.4171 C   0  0  0  0  0  0  0  0  0  0  0  0
   47.1329    5.5226   18.5387 C   0  0  0  0  0  0  0  0  0  0  0  0
   49.2108    5.6626   17.3029 C   0  0  0  0  0  0  0  0  0  0  0  0
   48.6585    7.3729   18.9400 C   0  0  0  0  0  0  0  0  0  0  0  0
   49.0513    8.4636   19.7231 N   0  0  0  0  0  0  0  0  0  0  0  0
   49.5429    6.8234   18.0064 C   0  0  0  0  0  0  0  0  0  0  0  0
   47.4779    6.6839   19.2361 C   0  0  0  0  0  0  0  0  0  0  0  0
   45.9986    6.3880   12.6985 C   0  0  0  0  0  0  0  0  0  0  0  0
   44.8804    4.2884   13.1502 C   0  0  0  0  0  0  0  0  0  0  0  0
   43.9188    4.6003   12.1852 C   0  0  0  0  0  0  0  0  0  0  0  0
   45.0347    6.6953   11.7366 C   0  0  0  0  0  0  0  0  0  0  0  0
   43.9945    5.8029   11.4835 C   0  0  0  0  0  0  0  0  0  0  0  0
   45.6331    3.7457   15.6016 H   0  0  0  0  0  0  0  0  0  0  0  0
   46.2091    5.0044   18.7842 H   0  0  0  0  0  0  0  0  0  0  0  0
   49.9025    5.2631   16.5636 H   0  0  0  0  0  0  0  0  0  0  0  0
   49.7300    9.0701   19.2731 H   0  0  0  0  0  0  0  0  0  0  0  0
   48.2795    8.9820   20.1300 H   0  0  0  0  0  0  0  0  0  0  0  0
   50.5032    7.2961   17.8164 H   0  0  0  0  0  0  0  0  0  0  0  0
   46.8185    7.0445   20.0215 H   0  0  0  0  0  0  0  0  0  0  0  0
   46.8082    7.0916   12.8862 H   0  0  0  0  0  0  0  0  0  0  0  0
   44.8137    3.3270   13.6512 H   0  0  0  0  0  0  0  0  0  0  0  0
   43.1145    3.8997   11.9714 H   0  0  0  0  0  0  0  0  0  0  0  0
   45.0982    7.6293   11.1829 H   0  0  0  0  0  0  0  0  0  0  0  0
   43.2466    6.0411   10.7304 H   0  0  0  0  0  0  0  0  0  0  0  0
  2  1  1  0
  3  2  1  0
  4  1  1  0
  5  1  2  0
  6  1  2  0
  7  3  2  0
  8  3  1  0
  9  4  2  0
 10  4  1  0
 11 13  1  0
 12 11  1  0
 13 10  2  0
 14  9  1  0
 15  8  2  0
 16  8  1  0
 17 16  2  0
 18 15  1  0
 19 17  1  0
 11 14  2  0
 19 18  2  0
  2 20  1  0
  9 21  1  0
 10 22  1  0
 12 23  1  0
 12 24  1  0
 13 25  1  0
 14 26  1  0
 15 27  1  0
 16 28  1  0
 17 29  1  0
 18 30  1  0
 19 31  1  0
M  END
> <Uni-Dock RESULT> 
ENERGY=   -3.943  LOWER_BOUND=    4.900  UPPER_BOUND=    6.703
INTER + INTRA:          -3.943
INTER:                  -3.943
INTRA:                   0.000
UNBOUND:                 0.000

$$$$

     RDKit          3D

 31 32  0  0  0  0  0  0  0  0999 V2000
   48.7438    9.3604   13.9728 S   0  0  0  0  0  0  0  0  0  0  0  0
   48.2525    9.8998   15.4666 N   0  0  0  0  0  0  0  0  0  0  0  0
   48.3068    9.1550   16.6497 C   0  0  0  0  0  0  0  0  0  0  0  0
   47.6927    7.9669   13.6596 C   0  0  0  0  0  0  0  0  0  0  0  0
   50.1180    8.9203   14.0529 O   0  0  0  0  0  0  0  0  0  0  0  0
   48.3560   10.4106   13.0517 O   0  0  0  0  0  0  0  0  0  0  0  0
   48.6637    7.9892   16.7000 O   0  0  0  0  0  0  0  0  0  0  0  0
   47.8603    9.8714   17.8769 C   0  0  0  0  0  0  0  0  0  0  0  0
   46.4304    8.1669   13.0962 C   0  0  0  0  0  0  0  0  0  0  0  0
   48.1600    6.6743   13.8997 C   0  0  0  0  0  0  0  0  0  0  0  0
   46.0430    5.7666   13.1220 C   0  0  0  0  0  0  0  0  0  0  0  0
   45.2754    4.6649   12.7294 N   0  0  0  0  0  0  0  0  0  0  0  0
   47.3380    5.5804   13.6162 C   0  0  0  0  0  0  0  0  0  0  0  0
   45.6188    7.0637   12.8162 C   0  0  0  0  0  0  0  0  0  0  0  0
   47.3974    9.1040   18.9554 C   0  0  0  0  0  0  0  0  0  0  0  0
   47.8803   11.2693   17.9854 C   0  0  0  0  0  0  0  0  0  0  0  0
   47.4292   11.8868   19.1552 C   0  0  0  0  0  0  0  0  0  0  0  0
   46.9465    9.7258   20.1211 C   0  0  0  0  0  0  0  0  0  0  0  0
   46.9599   11.1161   20.2184 C   0  0  0  0  0  0  0  0  0  0  0  0
   47.7711   10.7894   15.4110 H   0  0  0  0  0  0  0  0  0  0  0  0
   46.0793    9.1664   12.8519 H   0  0  0  0  0  0  0  0  0  0  0  0
   49.1564    6.5099   14.3055 H   0  0  0  0  0  0  0  0  0  0  0  0
   45.4896    3.8121   13.2371 H   0  0  0  0  0  0  0  0  0  0  0  0
   44.2782    4.8482   12.6851 H   0  0  0  0  0  0  0  0  0  0  0  0
   47.7210    4.5774   13.7868 H   0  0  0  0  0  0  0  0  0  0  0  0
   44.6509    7.2247   12.3482 H   0  0  0  0  0  0  0  0  0  0  0  0
   47.3846    8.0170   18.8914 H   0  0  0  0  0  0  0  0  0  0  0  0
   48.2748   11.8969   17.1915 H   0  0  0  0  0  0  0  0  0  0  0  0
   47.4536   12.9708   19.2432 H   0  0  0  0  0  0  0  0  0  0  0  0
   46.5885    9.1249   20.9539 H   0  0  0  0  0  0  0  0  0  0  0  0
   46.6130   11.5996   21.1289 H   0  0  0  0  0  0  0  0  0  0  0  0
  2  1  1  0
  3  2  1  0
  4  1  1  0
  5  1  2  0
  6  1  2  0
  7  3  2  0
  8  3  1  0
  9  4  2  0
 10  4  1  0
 11 13  1  0
 12 11  1  0
 13 10  2  0
 14  9  1  0
 15  8  2  0
 16  8  1  0
 17 16  2  0
 18 15  1  0
 19 17  1  0
 11 14  2  0
 19 18  2  0
  2 20  1  0
  9 21  1  0
 10 22  1  0
 12 23  1  0
 12 24  1  0
 13 25  1  0
 14 26  1  0
 15 27  1  0
 16 28  1  0
 17 29  1  0
 18 30  1  0
 19 31  1  0
M  END
> <Uni-Dock RESULT> 
ENERGY=   -3.936  LOWER_BOUND=    5.608  UPPER_BOUND=    9.610
INTER + INTRA:          -3.936
INTER:                  -3.936
INTRA:                   0.000
UNBOUND:                 0.000

$$$$

     RDKit          3D

 31 32  0  0  0  0  0  0  0  0999 V2000
   43.3318   12.2160   11.0643 S   0  0  0  0  0  0  0  0  0  0  0  0
   44.2684   11.0151   11.7311 N   0  0  0  0  0  0  0  0  0  0  0  0
   44.2548    9.6721   11.3393 C   0  0  0  0  0  0  0  0  0  0  0  0
   41.6708   11.6846   11.3859 C   0  0  0  0  0  0  0  0  0  0  0  0
   43.5571   12.2597    9.6374 O   0  0  0  0  0  0  0  0  0  0  0  0
   43.5802   13.3825   11.8884 O   0  0  0  0  0  0  0  0  0  0  0  0
   43.4942    9.2195   10.4993 O   0  0  0  0  0  0  0  0  0  0  0  0
   45.2239    8.7899   12.0474 C   0  0  0  0  0  0  0  0  0  0  0  0
   41.0723   11.9919   12.6099 C   0  0  0  0  0  0  0  0  0  0  0  0
   40.9420   11.0356   10.3888 C   0  0  0  0  0  0  0  0  0  0  0  0
   39.0318   10.8858   11.8851 C   0  0  0  0  0  0  0  0  0  0  0  0
   37.6753   10.6075   12.0840 N   0  0  0  0  0  0  0  0  0  0  0  0
   39.6216   10.6524   10.6388 C   0  0  0  0  0  0  0  0  0  0  0  0
   39.7503   11.6041   12.8464 C   0  0  0  0  0  0  0  0  0  0  0  0
   44.9415    7.4178   12.1093 C   0  0  0  0  0  0  0  0  0  0  0  0
   46.3900    9.2805   12.6523 C   0  0  0  0  0  0  0  0  0  0  0  0
   47.2521    8.4070   13.3208 C   0  0  0  0  0  0  0  0  0  0  0  0
   45.8052    6.5497   12.7796 C   0  0  0  0  0  0  0  0  0  0  0  0
   46.9574    7.0456   13.3872 C   0  0  0  0  0  0  0  0  0  0  0  0
   44.7591   11.3303   12.5594 H   0  0  0  0  0  0  0  0  0  0  0  0
   41.6124   12.5478   13.3723 H   0  0  0  0  0  0  0  0  0  0  0  0
   41.3910   10.8247    9.4201 H   0  0  0  0  0  0  0  0  0  0  0  0
   37.3216    9.8505   11.5071 H   0  0  0  0  0  0  0  0  0  0  0  0
   37.4106   10.5069   13.0586 H   0  0  0  0  0  0  0  0  0  0  0  0
   39.0566   10.1672    9.8469 H   0  0  0  0  0  0  0  0  0  0  0  0
   39.2805   11.8746   13.7887 H   0  0  0  0  0  0  0  0  0  0  0  0
   44.0454    7.0190   11.6363 H   0  0  0  0  0  0  0  0  0  0  0  0
   46.6686   10.3283   12.5865 H   0  0  0  0  0  0  0  0  0  0  0  0
   48.1616    8.7859   13.7820 H   0  0  0  0  0  0  0  0  0  0  0  0
   45.5802    5.4866   12.8242 H   0  0  0  0  0  0  0  0  0  0  0  0
   47.6322    6.3678   13.9051 H   0  0  0  0  0  0  0  0  0  0  0  0
  2  1  1  0
  3  2  1  0
  4  1  1  0
  5  1  2  0
  6  1  2  0
  7  3  2  0
  8  3  1  0
  9  4  2  0
 10  4  1  0
 11 13  1  0
 12 11  1  0
 13 10  2  0
 14  9  1  0
 15  8  2  0
 16  8  1  0
 17 16  2  0
 18 15  1  0
 19 17  1  0
 11 14  2  0
 19 18  2  0
  2 20  1  0
  9 21  1  0
 10 22  1  0
 12 23  1  0
 12 24  1  0
 13 25  1  0
 14 26  1  0
 15 27  1  0
 16 28  1  0
 17 29  1  0
 18 30  1  0
 19 31  1  0
M  END
> <Uni-Dock RESULT> 
ENERGY=   -3.934  LOWER_BOUND=    6.107  UPPER_BOUND=    8.246
INTER + INTRA:          -3.934
INTER:                  -3.934
INTRA:                   0.000
UNBOUND:                 0.000

$$$$

     RDKit          3D

 31 32  0  0  0  0  0  0  0  0999 V2000
   42.8272   10.5318   10.8400 S   0  0  0  0  0  0  0  0  0  0  0  0
   43.8036    9.2842   11.3441 N   0  0  0  0  0  0  0  0  0  0  0  0
   45.0893    9.4322   11.8758 C   0  0  0  0  0  0  0  0  0  0  0  0
   43.7543   11.2933    9.5341 C   0  0  0  0  0  0  0  0  0  0  0  0
   42.6575   11.4725   11.9239 O   0  0  0  0  0  0  0  0  0  0  0  0
   41.6792    9.8849   10.2355 O   0  0  0  0  0  0  0  0  0  0  0  0
   45.6658   10.5039   11.9653 O   0  0  0  0  0  0  0  0  0  0  0  0
   45.7509    8.1698   12.3088 C   0  0  0  0  0  0  0  0  0  0  0  0
   43.6619   10.7872    8.2356 C   0  0  0  0  0  0  0  0  0  0  0  0
   44.5056   12.4406    9.7910 C   0  0  0  0  0  0  0  0  0  0  0  0
   45.1826   12.5175    7.4573 C   0  0  0  0  0  0  0  0  0  0  0  0
   45.7855   13.2059    6.3992 N   0  0  0  0  0  0  0  0  0  0  0  0
   45.2043   13.0548    8.7483 C   0  0  0  0  0  0  0  0  0  0  0  0
   44.3647   11.4121    7.2015 C   0  0  0  0  0  0  0  0  0  0  0  0
   47.1522    8.1435   12.3554 C   0  0  0  0  0  0  0  0  0  0  0  0
   45.0290    7.0200   12.6596 C   0  0  0  0  0  0  0  0  0  0  0  0
   45.7058    5.8574   13.0384 C   0  0  0  0  0  0  0  0  0  0  0  0
   47.8233    6.9792   12.7331 C   0  0  0  0  0  0  0  0  0  0  0  0
   47.0997    5.8369   13.0709 C   0  0  0  0  0  0  0  0  0  0  0  0
   43.4240    8.3787   11.0950 H   0  0  0  0  0  0  0  0  0  0  0  0
   43.0336    9.9280    8.0140 H   0  0  0  0  0  0  0  0  0  0  0  0
   44.5534   12.8608   10.7938 H   0  0  0  0  0  0  0  0  0  0  0  0
   46.5741   13.7813    6.6787 H   0  0  0  0  0  0  0  0  0  0  0  0
   45.9964   12.6263    5.5932 H   0  0  0  0  0  0  0  0  0  0  0  0
   45.7684   13.9606    8.9560 H   0  0  0  0  0  0  0  0  0  0  0  0
   44.2627   11.0323    6.1880 H   0  0  0  0  0  0  0  0  0  0  0  0
   47.7277    9.0307   12.0958 H   0  0  0  0  0  0  0  0  0  0  0  0
   43.9431    7.0136   12.6817 H   0  0  0  0  0  0  0  0  0  0  0  0
   45.1457    4.9682   13.3197 H   0  0  0  0  0  0  0  0  0  0  0  0
   48.9103    6.9653   12.7670 H   0  0  0  0  0  0  0  0  0  0  0  0
   47.6234    4.9316   13.3698 H   0  0  0  0  0  0  0  0  0  0  0  0
  2  1  1  0
  3  2  1  0
  4  1  1  0
  5  1  2  0
  6  1  2  0
  7  3  2  0
  8  3  1  0
  9  4  2  0
 10  4  1  0
 11 13  1  0
 12 11  1  0
 13 10  2  0
 14  9  1  0
 15  8  2  0
 16  8  1  0
 17 16  2  0
 18 15  1  0
 19 17  1  0
 11 14  2  0
 19 18  2  0
  2 20  1  0
  9 21  1  0
 10 22  1  0
 12 23  1  0
 12 24  1  0
 13 25  1  0
 14 26  1  0
 15 27  1  0
 16 28  1  0
 17 29  1  0
 18 30  1  0
 19 31  1  0
M  END
> <Uni-Dock RESULT> 
ENERGY=   -3.883  LOWER_BOUND=    5.458  UPPER_BOUND=    7.982
INTER + INTRA:          -3.883
INTER:                  -3.883
INTRA:                   0.000
UNBOUND:                 0.000

$$$$
