
     RDKit          3D

 31 32  0  0  0  0  0  0  0  0999 V2000
   43.7657    4.7349   10.8245 S   0  0  0  0  0  0  0  0  0  0  0  0
   44.6510    4.2489    9.5030 N   0  0  0  0  0  0  0  0  0  0  0  0
   45.3977    3.0683    9.4282 C   0  0  0  0  0  0  0  0  0  0  0  0
   45.0111    5.0928   12.0349 C   0  0  0  0  0  0  0  0  0  0  0  0
   42.9396    3.6440   11.2880 O   0  0  0  0  0  0  0  0  0  0  0  0
   43.1698    5.9955   10.4271 O   0  0  0  0  0  0  0  0  0  0  0  0
   45.5140    2.2824   10.3549 O   0  0  0  0  0  0  0  0  0  0  0  0
   46.0780    2.8143    8.1269 C   0  0  0  0  0  0  0  0  0  0  0  0
   45.5615    6.3742   12.1068 C   0  0  0  0  0  0  0  0  0  0  0  0
   45.3803    4.1145   12.9588 C   0  0  0  0  0  0  0  0  0  0  0  0
   46.9551    5.6664   13.9695 C   0  0  0  0  0  0  0  0  0  0  0  0
   47.8233    5.9912   15.0171 N   0  0  0  0  0  0  0  0  0  0  0  0
   46.3398    4.4112   13.9304 C   0  0  0  0  0  0  0  0  0  0  0  0
   46.5194    6.6580   13.0845 C   0  0  0  0  0  0  0  0  0  0  0  0
   46.3814    3.8344    7.2135 C   0  0  0  0  0  0  0  0  0  0  0  0
   46.4189    1.4901    7.8147 C   0  0  0  0  0  0  0  0  0  0  0  0
   47.0419    1.1874    6.6027 C   0  0  0  0  0  0  0  0  0  0  0  0
   47.0065    3.5262    6.0018 C   0  0  0  0  0  0  0  0  0  0  0  0
   47.3325    2.2052    5.6966 C   0  0  0  0  0  0  0  0  0  0  0  0
   44.4877    4.8454    8.7014 H   0  0  0  0  0  0  0  0  0  0  0  0
   45.2406    7.1596   11.4269 H   0  0  0  0  0  0  0  0  0  0  0  0
   44.9271    3.1251   12.9320 H   0  0  0  0  0  0  0  0  0  0  0  0
   48.4480    6.7648   14.8146 H   0  0  0  0  0  0  0  0  0  0  0  0
   48.3115    5.1925   15.4105 H   0  0  0  0  0  0  0  0  0  0  0  0
   46.6023    3.6487   14.6596 H   0  0  0  0  0  0  0  0  0  0  0  0
   46.9200    7.6661   13.1552 H   0  0  0  0  0  0  0  0  0  0  0  0
   46.1738    4.8775    7.4302 H   0  0  0  0  0  0  0  0  0  0  0  0
   46.1955    0.6857    8.5143 H   0  0  0  0  0  0  0  0  0  0  0  0
   47.3001    0.1575    6.3672 H   0  0  0  0  0  0  0  0  0  0  0  0
   47.2475    4.3182    5.2960 H   0  0  0  0  0  0  0  0  0  0  0  0
   47.8198    1.9690    4.7532 H   0  0  0  0  0  0  0  0  0  0  0  0
  2  1  1  0
  3  2  1  0
  4  1  1  0
  5  1  2  0
  6  1  2  0
  7  3  2  0
  8  3  1  0
  9  4  2  0
 10  4  1  0
 11 13  1  0
 12 11  1  0
 13 10  2  0
 14  9  1  0
 15  8  2  0
 16  8  1  0
 17 16  2  0
 18 15  1  0
 19 17  1  0
 11 14  2  0
 19 18  2  0
  2 20  1  0
  9 21  1  0
 10 22  1  0
 12 23  1  0
 12 24  1  0
 13 25  1  0
 14 26  1  0
 15 27  1  0
 16 28  1  0
 17 29  1  0
 18 30  1  0
 19 31  1  0
M  END
> <Uni-Dock RESULT> 
ENERGY=   -6.152  LOWER_BOUND=    0.000  UPPER_BOUND=    0.000
INTER + INTRA:          -6.152
INTER:                  -6.152
INTRA:                   0.000
UNBOUND:                 0.000

$$$$

     RDKit          3D

 31 32  0  0  0  0  0  0  0  0999 V2000
   43.7729    4.3908   10.8868 S   0  0  0  0  0  0  0  0  0  0  0  0
   44.8468    4.5395   12.1480 N   0  0  0  0  0  0  0  0  0  0  0  0
   45.9346    5.4189   12.1755 C   0  0  0  0  0  0  0  0  0  0  0  0
   44.7615    3.6822    9.5966 C   0  0  0  0  0  0  0  0  0  0  0  0
   43.3113    5.6981   10.4803 O   0  0  0  0  0  0  0  0  0  0  0  0
   42.8314    3.3770   11.3204 O   0  0  0  0  0  0  0  0  0  0  0  0
   46.2382    6.1474   11.2445 O   0  0  0  0  0  0  0  0  0  0  0  0
   46.7393    5.4135   13.4297 C   0  0  0  0  0  0  0  0  0  0  0  0
   44.8684    2.2941    9.4866 C   0  0  0  0  0  0  0  0  0  0  0  0
   45.3660    4.5125    8.6520 C   0  0  0  0  0  0  0  0  0  0  0  0
   46.2972    2.5630    7.5375 C   0  0  0  0  0  0  0  0  0  0  0  0
   46.9497    2.0022    6.4346 N   0  0  0  0  0  0  0  0  0  0  0  0
   46.1186    3.9475    7.6190 C   0  0  0  0  0  0  0  0  0  0  0  0
   45.6232    1.7421    8.4476 C   0  0  0  0  0  0  0  0  0  0  0  0
   46.7569    4.3297   14.3195 C   0  0  0  0  0  0  0  0  0  0  0  0
   47.5038    6.5528   13.7210 C   0  0  0  0  0  0  0  0  0  0  0  0
   48.2644    6.6139   14.8900 C   0  0  0  0  0  0  0  0  0  0  0  0
   47.5212    4.3953   15.4881 C   0  0  0  0  0  0  0  0  0  0  0  0
   48.2702    5.5364   15.7733 C   0  0  0  0  0  0  0  0  0  0  0  0
   44.5515    4.0082   12.9577 H   0  0  0  0  0  0  0  0  0  0  0  0
   44.3561    1.6368   10.1848 H   0  0  0  0  0  0  0  0  0  0  0  0
   45.2550    5.5938    8.7102 H   0  0  0  0  0  0  0  0  0  0  0  0
   47.3060    1.0655    6.5943 H   0  0  0  0  0  0  0  0  0  0  0  0
   47.6421    2.6125    6.0112 H   0  0  0  0  0  0  0  0  0  0  0  0
   46.5653    4.6030    6.8754 H   0  0  0  0  0  0  0  0  0  0  0  0
   45.6758    0.6608    8.3491 H   0  0  0  0  0  0  0  0  0  0  0  0
   46.2141    3.4122   14.1152 H   0  0  0  0  0  0  0  0  0  0  0  0
   47.5062    7.4020   13.0389 H   0  0  0  0  0  0  0  0  0  0  0  0
   48.8520    7.5023   15.1096 H   0  0  0  0  0  0  0  0  0  0  0  0
   47.5398    3.5521   16.1752 H   0  0  0  0  0  0  0  0  0  0  0  0
   48.8647    5.5838   16.6830 H   0  0  0  0  0  0  0  0  0  0  0  0
  2  1  1  0
  3  2  1  0
  4  1  1  0
  5  1  2  0
  6  1  2  0
  7  3  2  0
  8  3  1  0
  9  4  2  0
 10  4  1  0
 11 13  1  0
 12 11  1  0
 13 10  2  0
 14  9  1  0
 15  8  2  0
 16  8  1  0
 17 16  2  0
 18 15  1  0
 19 17  1  0
 11 14  2  0
 19 18  2  0
  2 20  1  0
  9 21  1  0
 10 22  1  0
 12 23  1  0
 12 24  1  0
 13 25  1  0
 14 26  1  0
 15 27  1  0
 16 28  1  0
 17 29  1  0
 18 30  1  0
 19 31  1  0
M  END
> <Uni-Dock RESULT> 
ENERGY=   -6.099  LOWER_BOUND=    1.756  UPPER_BOUND=    6.410
INTER + INTRA:          -6.099
INTER:                  -6.099
INTRA:                   0.000
UNBOUND:                 0.000

$$$$

     RDKit          3D

 31 32  0  0  0  0  0  0  0  0999 V2000
   47.6307    3.9385   17.6370 S   0  0  0  0  0  0  0  0  0  0  0  0
   49.0784    3.1224   17.7042 N   0  0  0  0  0  0  0  0  0  0  0  0
   50.3397    3.7272   17.7238 C   0  0  0  0  0  0  0  0  0  0  0  0
   47.6445    4.6515   16.0136 C   0  0  0  0  0  0  0  0  0  0  0  0
   47.6155    4.9902   18.6275 O   0  0  0  0  0  0  0  0  0  0  0  0
   46.6196    2.8994   17.6475 O   0  0  0  0  0  0  0  0  0  0  0  0
   50.5121    4.9332   17.6481 O   0  0  0  0  0  0  0  0  0  0  0  0
   51.5007    2.7991   17.8304 C   0  0  0  0  0  0  0  0  0  0  0  0
   47.1291    3.9307   14.9343 C   0  0  0  0  0  0  0  0  0  0  0  0
   48.1003    5.9582   15.8350 C   0  0  0  0  0  0  0  0  0  0  0  0
   47.6366    5.7922   13.4544 C   0  0  0  0  0  0  0  0  0  0  0  0
   47.5079    6.4092   12.2056 N   0  0  0  0  0  0  0  0  0  0  0  0
   48.0802    6.5267   14.5586 C   0  0  0  0  0  0  0  0  0  0  0  0
   47.1137    4.5118   13.6630 C   0  0  0  0  0  0  0  0  0  0  0  0
   51.4332    1.4482   17.4598 C   0  0  0  0  0  0  0  0  0  0  0  0
   52.7059    3.3141   18.3301 C   0  0  0  0  0  0  0  0  0  0  0  0
   53.8233    2.4891   18.4697 C   0  0  0  0  0  0  0  0  0  0  0  0
   52.5554    0.6266   17.6004 C   0  0  0  0  0  0  0  0  0  0  0  0
   53.7460    1.1459   18.1073 C   0  0  0  0  0  0  0  0  0  0  0  0
   48.9439    2.1309   17.8590 H   0  0  0  0  0  0  0  0  0  0  0  0
   46.7207    2.9326   15.0723 H   0  0  0  0  0  0  0  0  0  0  0  0
   48.4680    6.5390   16.6790 H   0  0  0  0  0  0  0  0  0  0  0  0
   47.4875    5.7636   11.4230 H   0  0  0  0  0  0  0  0  0  0  0  0
   48.1553    7.1772   12.0567 H   0  0  0  0  0  0  0  0  0  0  0  0
   48.4157    7.5535   14.4356 H   0  0  0  0  0  0  0  0  0  0  0  0
   46.6817    3.9576   12.8336 H   0  0  0  0  0  0  0  0  0  0  0  0
   50.5348    1.0164   17.0302 H   0  0  0  0  0  0  0  0  0  0  0  0
   52.7781    4.3621   18.6181 H   0  0  0  0  0  0  0  0  0  0  0  0
   54.7530    2.8958   18.8608 H   0  0  0  0  0  0  0  0  0  0  0  0
   52.5049   -0.4198   17.3071 H   0  0  0  0  0  0  0  0  0  0  0  0
   54.6178    0.5042   18.2144 H   0  0  0  0  0  0  0  0  0  0  0  0
  2  1  1  0
  3  2  1  0
  4  1  1  0
  5  1  2  0
  6  1  2  0
  7  3  2  0
  8  3  1  0
  9  4  2  0
 10  4  1  0
 11 13  1  0
 12 11  1  0
 13 10  2  0
 14  9  1  0
 15  8  2  0
 16  8  1  0
 17 16  2  0
 18 15  1  0
 19 17  1  0
 11 14  2  0
 19 18  2  0
  2 20  1  0
  9 21  1  0
 10 22  1  0
 12 23  1  0
 12 24  1  0
 13 25  1  0
 14 26  1  0
 15 27  1  0
 16 28  1  0
 17 29  1  0
 18 30  1  0
 19 31  1  0
M  END
> <Uni-Dock RESULT> 
ENERGY=   -4.737  LOWER_BOUND=    6.179  UPPER_BOUND=    8.981
INTER + INTRA:          -4.737
INTER:                  -4.737
INTRA:                   0.000
UNBOUND:                 0.000

$$$$

     RDKit          3D

 31 32  0  0  0  0  0  0  0  0999 V2000
   43.2435   11.1391   10.9122 S   0  0  0  0  0  0  0  0  0  0  0  0
   43.9964    9.7650   11.4700 N   0  0  0  0  0  0  0  0  0  0  0  0
   45.3377    9.6876   11.8599 C   0  0  0  0  0  0  0  0  0  0  0  0
   44.0258   11.4201    9.3459 C   0  0  0  0  0  0  0  0  0  0  0  0
   43.5241   12.2449   11.7987 O   0  0  0  0  0  0  0  0  0  0  0  0
   41.8772   10.7314   10.6495 O   0  0  0  0  0  0  0  0  0  0  0  0
   46.1173   10.6240   11.7884 O   0  0  0  0  0  0  0  0  0  0  0  0
   45.7879    8.3616   12.3696 C   0  0  0  0  0  0  0  0  0  0  0  0
   43.5016   10.8324    8.1927 C   0  0  0  0  0  0  0  0  0  0  0  0
   45.1155   12.2876    9.2618 C   0  0  0  0  0  0  0  0  0  0  0  0
   45.2432   11.8915    6.8667 C   0  0  0  0  0  0  0  0  0  0  0  0
   45.7657   12.2326    5.6148 N   0  0  0  0  0  0  0  0  0  0  0  0
   45.7091   12.5300    8.0202 C   0  0  0  0  0  0  0  0  0  0  0  0
   44.1044   11.0845    6.9568 C   0  0  0  0  0  0  0  0  0  0  0  0
   45.1313    7.1622   12.0580 C   0  0  0  0  0  0  0  0  0  0  0  0
   46.9173    8.3296   13.2008 C   0  0  0  0  0  0  0  0  0  0  0  0
   47.3764    7.1193   13.7234 C   0  0  0  0  0  0  0  0  0  0  0  0
   45.5958    5.9527   12.5828 C   0  0  0  0  0  0  0  0  0  0  0  0
   46.7136    5.9328   13.4161 C   0  0  0  0  0  0  0  0  0  0  0  0
   43.3383    9.0101   11.6189 H   0  0  0  0  0  0  0  0  0  0  0  0
   42.6194   10.1987    8.2394 H   0  0  0  0  0  0  0  0  0  0  0  0
   45.5052   12.7787   10.1517 H   0  0  0  0  0  0  0  0  0  0  0  0
   45.6125   11.5331    4.8957 H   0  0  0  0  0  0  0  0  0  0  0  0
   46.7287   12.5533    5.6436 H   0  0  0  0  0  0  0  0  0  0  0  0
   46.5425   13.2260    7.9634 H   0  0  0  0  0  0  0  0  0  0  0  0
   43.6719   10.6496    6.0593 H   0  0  0  0  0  0  0  0  0  0  0  0
   44.2790    7.1337   11.3865 H   0  0  0  0  0  0  0  0  0  0  0  0
   47.4428    9.2507   13.4493 H   0  0  0  0  0  0  0  0  0  0  0  0
   48.2511    7.1038   14.3695 H   0  0  0  0  0  0  0  0  0  0  0  0
   45.0902    5.0216   12.3361 H   0  0  0  0  0  0  0  0  0  0  0  0
   47.0732    4.9898   13.8219 H   0  0  0  0  0  0  0  0  0  0  0  0
  2  1  1  0
  3  2  1  0
  4  1  1  0
  5  1  2  0
  6  1  2  0
  7  3  2  0
  8  3  1  0
  9  4  2  0
 10  4  1  0
 11 13  1  0
 12 11  1  0
 13 10  2  0
 14  9  1  0
 15  8  2  0
 16  8  1  0
 17 16  2  0
 18 15  1  0
 19 17  1  0
 11 14  2  0
 19 18  2  0
  2 20  1  0
  9 21  1  0
 10 22  1  0
 12 23  1  0
 12 24  1  0
 13 25  1  0
 14 26  1  0
 15 27  1  0
 16 28  1  0
 17 29  1  0
 18 30  1  0
 19 31  1  0
M  END
> <Uni-Dock RESULT> 
ENERGY=   -4.128  LOWER_BOUND=    5.508  UPPER_BOUND=    8.029
INTER + INTRA:          -4.128
INTER:                  -4.128
INTRA:                   0.000
UNBOUND:                 0.000

$$$$

     RDKit          3D

 31 32  0  0  0  0  0  0  0  0999 V2000
   46.0100    8.7322   12.2766 S   0  0  0  0  0  0  0  0  0  0  0  0
   45.6918    7.3887   11.3493 N   0  0  0  0  0  0  0  0  0  0  0  0
   45.5750    6.0842   11.8412 C   0  0  0  0  0  0  0  0  0  0  0  0
   47.6789    8.4657   12.8135 C   0  0  0  0  0  0  0  0  0  0  0  0
   45.1307    8.7552   13.4228 O   0  0  0  0  0  0  0  0  0  0  0  0
   46.0263    9.8354   11.3360 O   0  0  0  0  0  0  0  0  0  0  0  0
   45.7407    5.7866   13.0132 O   0  0  0  0  0  0  0  0  0  0  0  0
   45.2422    5.0396   10.8318 C   0  0  0  0  0  0  0  0  0  0  0  0
   48.7412    8.9249   12.0321 C   0  0  0  0  0  0  0  0  0  0  0  0
   47.9211    7.8664   14.0501 C   0  0  0  0  0  0  0  0  0  0  0  0
   50.3148    8.0733   13.6789 C   0  0  0  0  0  0  0  0  0  0  0  0
   51.6217    7.9993   14.1719 N   0  0  0  0  0  0  0  0  0  0  0  0
   49.2377    7.6867   14.4827 C   0  0  0  0  0  0  0  0  0  0  0  0
   50.0534    8.7398   12.4774 C   0  0  0  0  0  0  0  0  0  0  0  0
   45.4913    5.1976    9.4608 C   0  0  0  0  0  0  0  0  0  0  0  0
   44.6495    3.8535   11.2894 C   0  0  0  0  0  0  0  0  0  0  0  0
   44.2990    2.8455   10.3895 C   0  0  0  0  0  0  0  0  0  0  0  0
   45.1395    4.1847    8.5639 C   0  0  0  0  0  0  0  0  0  0  0  0
   44.5419    3.0134    9.0277 C   0  0  0  0  0  0  0  0  0  0  0  0
   45.4631    7.6366   10.3947 H   0  0  0  0  0  0  0  0  0  0  0  0
   48.5619    9.4424   11.0930 H   0  0  0  0  0  0  0  0  0  0  0  0
   47.0963    7.5406   14.6812 H   0  0  0  0  0  0  0  0  0  0  0  0
   52.3377    7.9950   13.4527 H   0  0  0  0  0  0  0  0  0  0  0  0
   51.7614    7.2669   14.8611 H   0  0  0  0  0  0  0  0  0  0  0  0
   49.4138    7.2401   15.4582 H   0  0  0  0  0  0  0  0  0  0  0  0
   50.8741    9.1282   11.8796 H   0  0  0  0  0  0  0  0  0  0  0  0
   45.9850    6.0801    9.0664 H   0  0  0  0  0  0  0  0  0  0  0  0
   44.4534    3.7114   12.3513 H   0  0  0  0  0  0  0  0  0  0  0  0
   43.8371    1.9302   10.7523 H   0  0  0  0  0  0  0  0  0  0  0  0
   45.3383    4.3046    7.5011 H   0  0  0  0  0  0  0  0  0  0  0  0
   44.2704    2.2266    8.3273 H   0  0  0  0  0  0  0  0  0  0  0  0
  2  1  1  0
  3  2  1  0
  4  1  1  0
  5  1  2  0
  6  1  2  0
  7  3  2  0
  8  3  1  0
  9  4  2  0
 10  4  1  0
 11 13  1  0
 12 11  1  0
 13 10  2  0
 14  9  1  0
 15  8  2  0
 16  8  1  0
 17 16  2  0
 18 15  1  0
 19 17  1  0
 11 14  2  0
 19 18  2  0
  2 20  1  0
  9 21  1  0
 10 22  1  0
 12 23  1  0
 12 24  1  0
 13 25  1  0
 14 26  1  0
 15 27  1  0
 16 28  1  0
 17 29  1  0
 18 30  1  0
 19 31  1  0
M  END
> <Uni-Dock RESULT> 
ENERGY=   -4.099  LOWER_BOUND=    3.174  UPPER_BOUND=    4.338
INTER + INTRA:          -4.099
INTER:                  -4.099
INTRA:                   0.000
UNBOUND:                 0.000

$$$$

     RDKit          3D

 31 32  0  0  0  0  0  0  0  0999 V2000
   43.2124   11.2445    9.9339 S   0  0  0  0  0  0  0  0  0  0  0  0
   44.2421   10.3200   10.8565 N   0  0  0  0  0  0  0  0  0  0  0  0
   44.0484    8.9691   11.1645 C   0  0  0  0  0  0  0  0  0  0  0  0
   41.7663   11.3754   10.9518 C   0  0  0  0  0  0  0  0  0  0  0  0
   42.8841   10.5425    8.7147 O   0  0  0  0  0  0  0  0  0  0  0  0
   43.8324   12.5544    9.8880 O   0  0  0  0  0  0  0  0  0  0  0  0
   43.0665    8.3314   10.8195 O   0  0  0  0  0  0  0  0  0  0  0  0
   45.1250    8.3288   11.9718 C   0  0  0  0  0  0  0  0  0  0  0  0
   41.6570   12.4205   11.8716 C   0  0  0  0  0  0  0  0  0  0  0  0
   40.7121   10.4784   10.7759 C   0  0  0  0  0  0  0  0  0  0  0  0
   39.4665   11.6003   12.5364 C   0  0  0  0  0  0  0  0  0  0  0  0
   38.2667   11.7924   13.2295 N   0  0  0  0  0  0  0  0  0  0  0  0
   39.5618   10.6047   11.5591 C   0  0  0  0  0  0  0  0  0  0  0  0
   40.5002   12.5360   12.6478 C   0  0  0  0  0  0  0  0  0  0  0  0
   46.0097    9.0592   12.7785 C   0  0  0  0  0  0  0  0  0  0  0  0
   45.2486    6.9332   11.9070 C   0  0  0  0  0  0  0  0  0  0  0  0
   46.2490    6.2779   12.6271 C   0  0  0  0  0  0  0  0  0  0  0  0
   47.0090    8.3981   13.4985 C   0  0  0  0  0  0  0  0  0  0  0  0
   47.1296    7.0112   13.4197 C   0  0  0  0  0  0  0  0  0  0  0  0
   45.1006   10.8127   11.0694 H   0  0  0  0  0  0  0  0  0  0  0  0
   42.4494   13.1573   11.9776 H   0  0  0  0  0  0  0  0  0  0  0  0
   40.7756    9.6844   10.0339 H   0  0  0  0  0  0  0  0  0  0  0  0
   38.3680   12.2969   14.1042 H   0  0  0  0  0  0  0  0  0  0  0  0
   37.7101   10.9493   13.3315 H   0  0  0  0  0  0  0  0  0  0  0  0
   38.7374    9.9147   11.3968 H   0  0  0  0  0  0  0  0  0  0  0  0
   40.4082   13.3703   13.3386 H   0  0  0  0  0  0  0  0  0  0  0  0
   45.9258   10.1354   12.8915 H   0  0  0  0  0  0  0  0  0  0  0  0
   44.5671    6.3493   11.2898 H   0  0  0  0  0  0  0  0  0  0  0  0
   46.3398    5.1957   12.5689 H   0  0  0  0  0  0  0  0  0  0  0  0
   47.6913    8.9640   14.1291 H   0  0  0  0  0  0  0  0  0  0  0  0
   47.9076    6.4997   13.9822 H   0  0  0  0  0  0  0  0  0  0  0  0
  2  1  1  0
  3  2  1  0
  4  1  1  0
  5  1  2  0
  6  1  2  0
  7  3  2  0
  8  3  1  0
  9  4  2  0
 10  4  1  0
 11 13  1  0
 12 11  1  0
 13 10  2  0
 14  9  1  0
 15  8  2  0
 16  8  1  0
 17 16  2  0
 18 15  1  0
 19 17  1  0
 11 14  2  0
 19 18  2  0
  2 20  1  0
  9 21  1  0
 10 22  1  0
 12 23  1  0
 12 24  1  0
 13 25  1  0
 14 26  1  0
 15 27  1  0
 16 28  1  0
 17 29  1  0
 18 30  1  0
 19 31  1  0
M  END
> <Uni-Dock RESULT> 
ENERGY=   -4.083  LOWER_BOUND=    5.663  UPPER_BOUND=    7.924
INTER + INTRA:          -4.083
INTER:                  -4.083
INTRA:                   0.000
UNBOUND:                 0.000

$$$$

     RDKit          3D

 31 32  0  0  0  0  0  0  0  0999 V2000
   48.6730    7.6660   12.6323 S   0  0  0  0  0  0  0  0  0  0  0  0
   47.4454    6.5548   12.4756 N   0  0  0  0  0  0  0  0  0  0  0  0
   46.0938    6.8120   12.7293 C   0  0  0  0  0  0  0  0  0  0  0  0
   48.7456    7.9427   14.3823 C   0  0  0  0  0  0  0  0  0  0  0  0
   48.3101    8.8938   11.9629 O   0  0  0  0  0  0  0  0  0  0  0  0
   49.8737    6.9462   12.2552 O   0  0  0  0  0  0  0  0  0  0  0  0
   45.6752    7.8822   13.1404 O   0  0  0  0  0  0  0  0  0  0  0  0
   45.1613    5.6767   12.4795 C   0  0  0  0  0  0  0  0  0  0  0  0
   49.5611    7.1366   15.1794 C   0  0  0  0  0  0  0  0  0  0  0  0
   48.0469    9.0120   14.9439 C   0  0  0  0  0  0  0  0  0  0  0  0
   48.8851    8.4019   17.1428 C   0  0  0  0  0  0  0  0  0  0  0  0
   49.0603    8.7138   18.4951 N   0  0  0  0  0  0  0  0  0  0  0  0
   48.1322    9.2447   16.3192 C   0  0  0  0  0  0  0  0  0  0  0  0
   49.6383    7.3812   16.5536 C   0  0  0  0  0  0  0  0  0  0  0  0
   45.5770    4.3374   12.4668 C   0  0  0  0  0  0  0  0  0  0  0  0
   43.8120    5.9786   12.2436 C   0  0  0  0  0  0  0  0  0  0  0  0
   42.8940    4.9590   11.9860 C   0  0  0  0  0  0  0  0  0  0  0  0
   44.6536    3.3199   12.2097 C   0  0  0  0  0  0  0  0  0  0  0  0
   43.3163    3.6313   11.9667 C   0  0  0  0  0  0  0  0  0  0  0  0
   47.7688    5.6953   12.0494 H   0  0  0  0  0  0  0  0  0  0  0  0
   50.1527    6.3353   14.7436 H   0  0  0  0  0  0  0  0  0  0  0  0
   47.4396    9.6672   14.3221 H   0  0  0  0  0  0  0  0  0  0  0  0
   49.3379    7.9257   19.0710 H   0  0  0  0  0  0  0  0  0  0  0  0
   48.2903    9.2370   18.9006 H   0  0  0  0  0  0  0  0  0  0  0  0
   47.6025   10.0948   16.7420 H   0  0  0  0  0  0  0  0  0  0  0  0
   50.2997    6.7704   17.1629 H   0  0  0  0  0  0  0  0  0  0  0  0
   46.6019    4.0538   12.6846 H   0  0  0  0  0  0  0  0  0  0  0  0
   43.4703    7.0128   12.2547 H   0  0  0  0  0  0  0  0  0  0  0  0
   41.8502    5.2020   11.8012 H   0  0  0  0  0  0  0  0  0  0  0  0
   44.9748    2.2806   12.2060 H   0  0  0  0  0  0  0  0  0  0  0  0
   42.6000    2.8370   11.7680 H   0  0  0  0  0  0  0  0  0  0  0  0
  2  1  1  0
  3  2  1  0
  4  1  1  0
  5  1  2  0
  6  1  2  0
  7  3  2  0
  8  3  1  0
  9  4  2  0
 10  4  1  0
 11 13  1  0
 12 11  1  0
 13 10  2  0
 14  9  1  0
 15  8  2  0
 16  8  1  0
 17 16  2  0
 18 15  1  0
 19 17  1  0
 11 14  2  0
 19 18  2  0
  2 20  1  0
  9 21  1  0
 10 22  1  0
 12 23  1  0
 12 24  1  0
 13 25  1  0
 14 26  1  0
 15 27  1  0
 16 28  1  0
 17 29  1  0
 18 30  1  0
 19 31  1  0
M  END
> <Uni-Dock RESULT> 
ENERGY=   -4.057  LOWER_BOUND=    4.450  UPPER_BOUND=    5.978
INTER + INTRA:          -4.057
INTER:                  -4.057
INTRA:                   0.000
UNBOUND:                 0.000

$$$$

     RDKit          3D

 31 32  0  0  0  0  0  0  0  0999 V2000
   50.0686    7.0111   16.4422 S   0  0  0  0  0  0  0  0  0  0  0  0
   49.2818    8.2937   17.1508 N   0  0  0  0  0  0  0  0  0  0  0  0
   48.3223    8.1856   18.1631 C   0  0  0  0  0  0  0  0  0  0  0  0
   48.7777    6.1928   15.5432 C   0  0  0  0  0  0  0  0  0  0  0  0
   50.5823    6.1276   17.4634 O   0  0  0  0  0  0  0  0  0  0  0  0
   50.9601    7.6149   15.4712 O   0  0  0  0  0  0  0  0  0  0  0  0
   47.9254    7.1202   18.6071 O   0  0  0  0  0  0  0  0  0  0  0  0
   47.7799    9.4736   18.6806 C   0  0  0  0  0  0  0  0  0  0  0  0
   48.5011    6.5703   14.2275 C   0  0  0  0  0  0  0  0  0  0  0  0
   48.0959    5.1251   16.1281 C   0  0  0  0  0  0  0  0  0  0  0  0
   46.7599    4.8767   14.1124 C   0  0  0  0  0  0  0  0  0  0  0  0
   45.8491    4.1338   13.3539 N   0  0  0  0  0  0  0  0  0  0  0  0
   47.1007    4.4633   15.4041 C   0  0  0  0  0  0  0  0  0  0  0  0
   47.5038    5.8990   13.5141 C   0  0  0  0  0  0  0  0  0  0  0  0
   47.8169   10.6668   17.9447 C   0  0  0  0  0  0  0  0  0  0  0  0
   47.2150    9.4765   19.9644 C   0  0  0  0  0  0  0  0  0  0  0  0
   46.7063   10.6563   20.5103 C   0  0  0  0  0  0  0  0  0  0  0  0
   47.3050   11.8453   18.4953 C   0  0  0  0  0  0  0  0  0  0  0  0
   46.7543   11.8397   19.7763 C   0  0  0  0  0  0  0  0  0  0  0  0
   49.6687    9.1815   16.8553 H   0  0  0  0  0  0  0  0  0  0  0  0
   49.0641    7.3645   13.7434 H   0  0  0  0  0  0  0  0  0  0  0  0
   48.3332    4.8013   17.1399 H   0  0  0  0  0  0  0  0  0  0  0  0
   45.4306    4.6482   12.5858 H   0  0  0  0  0  0  0  0  0  0  0  0
   45.1585    3.6378   13.9090 H   0  0  0  0  0  0  0  0  0  0  0  0
   46.5926    3.6179   15.8614 H   0  0  0  0  0  0  0  0  0  0  0  0
   47.3157    6.1766   12.4800 H   0  0  0  0  0  0  0  0  0  0  0  0
   48.2067   10.7034   16.9323 H   0  0  0  0  0  0  0  0  0  0  0  0
   47.1731    8.5580   20.5483 H   0  0  0  0  0  0  0  0  0  0  0  0
   46.2726   10.6504   21.5076 H   0  0  0  0  0  0  0  0  0  0  0  0
   47.3281   12.7696   17.9220 H   0  0  0  0  0  0  0  0  0  0  0  0
   46.3558   12.7583   20.2014 H   0  0  0  0  0  0  0  0  0  0  0  0
  2  1  1  0
  3  2  1  0
  4  1  1  0
  5  1  2  0
  6  1  2  0
  7  3  2  0
  8  3  1  0
  9  4  2  0
 10  4  1  0
 11 13  1  0
 12 11  1  0
 13 10  2  0
 14  9  1  0
 15  8  2  0
 16  8  1  0
 17 16  2  0
 18 15  1  0
 19 17  1  0
 11 14  2  0
 19 18  2  0
  2 20  1  0
  9 21  1  0
 10 22  1  0
 12 23  1  0
 12 24  1  0
 13 25  1  0
 14 26  1  0
 15 27  1  0
 16 28  1  0
 17 29  1  0
 18 30  1  0
 19 31  1  0
M  END
> <Uni-Dock RESULT> 
ENERGY=   -3.974  LOWER_BOUND=    6.315  UPPER_BOUND=   10.213
INTER + INTRA:          -3.974
INTER:                  -3.974
INTRA:                   0.000
UNBOUND:                 0.000

$$$$

     RDKit          3D

 31 32  0  0  0  0  0  0  0  0999 V2000
   48.3315    5.5285   17.8413 S   0  0  0  0  0  0  0  0  0  0  0  0
   48.5553    6.3762   16.4279 N   0  0  0  0  0  0  0  0  0  0  0  0
   48.1859    5.9260   15.1559 C   0  0  0  0  0  0  0  0  0  0  0  0
   49.4484    4.1615   17.6730 C   0  0  0  0  0  0  0  0  0  0  0  0
   46.9739    5.0388   17.9085 O   0  0  0  0  0  0  0  0  0  0  0  0
   48.8565    6.3944   18.8789 O   0  0  0  0  0  0  0  0  0  0  0  0
   47.6938    4.8294   14.9436 O   0  0  0  0  0  0  0  0  0  0  0  0
   48.4430    6.8732   14.0345 C   0  0  0  0  0  0  0  0  0  0  0  0
   50.7665    4.2832   18.1176 C   0  0  0  0  0  0  0  0  0  0  0  0
   48.9846    2.9466   17.1670 C   0  0  0  0  0  0  0  0  0  0  0  0
   51.2032    1.9900   17.4368 C   0  0  0  0  0  0  0  0  0  0  0  0
   52.0396    0.8688   17.4441 N   0  0  0  0  0  0  0  0  0  0  0  0
   49.8610    1.8630   17.0653 C   0  0  0  0  0  0  0  0  0  0  0  0
   51.6323    3.1909   18.0113 C   0  0  0  0  0  0  0  0  0  0  0  0
   49.3911    7.9039   14.1094 C   0  0  0  0  0  0  0  0  0  0  0  0
   47.6915    6.7163   12.8607 C   0  0  0  0  0  0  0  0  0  0  0  0
   47.8749    7.5839   11.7825 C   0  0  0  0  0  0  0  0  0  0  0  0
   49.5720    8.7692   13.0266 C   0  0  0  0  0  0  0  0  0  0  0  0
   48.8129    8.6108   11.8677 C   0  0  0  0  0  0  0  0  0  0  0  0
   48.8772    7.3200   16.6028 H   0  0  0  0  0  0  0  0  0  0  0  0
   51.1230    5.2081   18.5642 H   0  0  0  0  0  0  0  0  0  0  0  0
   47.9482    2.8340   16.8540 H   0  0  0  0  0  0  0  0  0  0  0  0
   53.0299    1.0887   17.4181 H   0  0  0  0  0  0  0  0  0  0  0  0
   51.7830    0.1588   16.7651 H   0  0  0  0  0  0  0  0  0  0  0  0
   49.4826    0.9146   16.6918 H   0  0  0  0  0  0  0  0  0  0  0  0
   52.6477    3.2824   18.3888 H   0  0  0  0  0  0  0  0  0  0  0  0
   50.0239    8.0377   14.9812 H   0  0  0  0  0  0  0  0  0  0  0  0
   46.9543    5.9183   12.7828 H   0  0  0  0  0  0  0  0  0  0  0  0
   47.2859    7.4570   10.8771 H   0  0  0  0  0  0  0  0  0  0  0  0
   50.3118    9.5648   13.0824 H   0  0  0  0  0  0  0  0  0  0  0  0
   48.9568    9.2851   11.0264 H   0  0  0  0  0  0  0  0  0  0  0  0
  2  1  1  0
  3  2  1  0
  4  1  1  0
  5  1  2  0
  6  1  2  0
  7  3  2  0
  8  3  1  0
  9  4  2  0
 10  4  1  0
 11 13  1  0
 12 11  1  0
 13 10  2  0
 14  9  1  0
 15  8  2  0
 16  8  1  0
 17 16  2  0
 18 15  1  0
 19 17  1  0
 11 14  2  0
 19 18  2  0
  2 20  1  0
  9 21  1  0
 10 22  1  0
 12 23  1  0
 12 24  1  0
 13 25  1  0
 14 26  1  0
 15 27  1  0
 16 28  1  0
 17 29  1  0
 18 30  1  0
 19 31  1  0
M  END
> <Uni-Dock RESULT> 
ENERGY=   -3.912  LOWER_BOUND=    5.799  UPPER_BOUND=    7.745
INTER + INTRA:          -3.912
INTER:                  -3.912
INTRA:                   0.000
UNBOUND:                 0.000

$$$$
