
     RDKit          3D

 31 32  0  0  0  0  0  0  0  0999 V2000
   43.7447    4.7200   10.8284 S   0  0  0  0  0  0  0  0  0  0  0  0
   44.6366    4.2372    9.5106 N   0  0  0  0  0  0  0  0  0  0  0  0
   45.3783    3.0533    9.4326 C   0  0  0  0  0  0  0  0  0  0  0  0
   44.9848    5.1021   12.0367 C   0  0  0  0  0  0  0  0  0  0  0  0
   42.9319    3.6242   11.3033 O   0  0  0  0  0  0  0  0  0  0  0  0
   43.1332    5.9709   10.4241 O   0  0  0  0  0  0  0  0  0  0  0  0
   45.4782    2.2560   10.3513 O   0  0  0  0  0  0  0  0  0  0  0  0
   46.0715    2.8099    8.1362 C   0  0  0  0  0  0  0  0  0  0  0  0
   45.5113    6.3938   12.1064 C   0  0  0  0  0  0  0  0  0  0  0  0
   45.4033    4.1198   12.9349 C   0  0  0  0  0  0  0  0  0  0  0  0
   46.8726    5.7313   14.0089 C   0  0  0  0  0  0  0  0  0  0  0  0
   47.9206    6.0049   14.8948 N   0  0  0  0  0  0  0  0  0  0  0  0
   46.3670    4.4321   13.8973 C   0  0  0  0  0  0  0  0  0  0  0  0
   46.4714    6.6939   13.0767 C   0  0  0  0  0  0  0  0  0  0  0  0
   46.4015    1.4865    7.8090 C   0  0  0  0  0  0  0  0  0  0  0  0
   46.3968    3.8397    7.2418 C   0  0  0  0  0  0  0  0  0  0  0  0
   47.0328    3.5423    6.0330 C   0  0  0  0  0  0  0  0  0  0  0  0
   47.0354    1.1947    6.5999 C   0  0  0  0  0  0  0  0  0  0  0  0
   47.3478    2.2224    5.7123 C   0  0  0  0  0  0  0  0  0  0  0  0
   44.4790    4.8359    8.7093 H   0  0  0  0  0  0  0  0  0  0  0  0
   45.1906    7.1668   11.4125 H   0  0  0  0  0  0  0  0  0  0  0  0
   45.0051    3.1083   12.8778 H   0  0  0  0  0  0  0  0  0  0  0  0
   47.9387    5.3968   15.7080 H   0  0  0  0  0  0  0  0  0  0  0  0
   48.0020    6.9848   15.1470 H   0  0  0  0  0  0  0  0  0  0  0  0
   46.7174    3.6479   14.5638 H   0  0  0  0  0  0  0  0  0  0  0  0
   46.9020    7.6917   13.1036 H   0  0  0  0  0  0  0  0  0  0  0  0
   46.1618    0.6749    8.4946 H   0  0  0  0  0  0  0  0  0  0  0  0
   46.1989    4.8818    7.4726 H   0  0  0  0  0  0  0  0  0  0  0  0
   47.2916    4.3420    5.3423 H   0  0  0  0  0  0  0  0  0  0  0  0
   47.2860    0.1657    6.3528 H   0  0  0  0  0  0  0  0  0  0  0  0
   47.8442    1.9946    4.7716 H   0  0  0  0  0  0  0  0  0  0  0  0
  2  1  1  0
  3  2  1  0
  4  1  1  0
  5  1  2  0
  6  1  2  0
  7  3  2  0
  8  3  1  0
  9  4  2  0
 10  4  1  0
 11 13  1  0
 12 11  1  0
 13 10  2  0
 14  9  1  0
 15  8  2  0
 16  8  1  0
 17 16  2  0
 18 15  1  0
 19 17  1  0
 11 14  2  0
 19 18  2  0
  2 20  1  0
  9 21  1  0
 10 22  1  0
 12 23  1  0
 12 24  1  0
 13 25  1  0
 14 26  1  0
 15 27  1  0
 16 28  1  0
 17 29  1  0
 18 30  1  0
 19 31  1  0
M  END
> <Uni-Dock RESULT> 
ENERGY=   -6.187  LOWER_BOUND=    0.000  UPPER_BOUND=    0.000
INTER + INTRA:          -6.187
INTER:                  -6.187
INTRA:                   0.000
UNBOUND:                 0.000

$$$$

     RDKit          3D

 31 32  0  0  0  0  0  0  0  0999 V2000
   43.7716    4.4132   10.9026 S   0  0  0  0  0  0  0  0  0  0  0  0
   44.8505    4.5581   12.1596 N   0  0  0  0  0  0  0  0  0  0  0  0
   45.9265    5.4517   12.1956 C   0  0  0  0  0  0  0  0  0  0  0  0
   44.7529    3.7013    9.6087 C   0  0  0  0  0  0  0  0  0  0  0  0
   43.3110    5.7200   10.4935 O   0  0  0  0  0  0  0  0  0  0  0  0
   42.8286    3.4016   11.3381 O   0  0  0  0  0  0  0  0  0  0  0  0
   46.2111    6.2052   11.2786 O   0  0  0  0  0  0  0  0  0  0  0  0
   46.7413    5.4312   13.4431 C   0  0  0  0  0  0  0  0  0  0  0  0
   44.8467    2.3127    9.4926 C   0  0  0  0  0  0  0  0  0  0  0  0
   45.3983    4.5315    8.6916 C   0  0  0  0  0  0  0  0  0  0  0  0
   46.2237    2.5763    7.5062 C   0  0  0  0  0  0  0  0  0  0  0  0
   47.0768    2.0177    6.5481 N   0  0  0  0  0  0  0  0  0  0  0  0
   46.1546    3.9644    7.6627 C   0  0  0  0  0  0  0  0  0  0  0  0
   45.6030    1.7585    8.4561 C   0  0  0  0  0  0  0  0  0  0  0  0
   47.4859    6.5775   13.7572 C   0  0  0  0  0  0  0  0  0  0  0  0
   46.7864    4.3258   14.3048 C   0  0  0  0  0  0  0  0  0  0  0  0
   47.5582    4.3768   15.4692 C   0  0  0  0  0  0  0  0  0  0  0  0
   48.2541    6.6239   14.9221 C   0  0  0  0  0  0  0  0  0  0  0  0
   48.2871    5.5248   15.7779 C   0  0  0  0  0  0  0  0  0  0  0  0
   44.5656    4.0146   12.9650 H   0  0  0  0  0  0  0  0  0  0  0  0
   44.3462    1.6571   10.2008 H   0  0  0  0  0  0  0  0  0  0  0  0
   45.3384    5.6145    8.7840 H   0  0  0  0  0  0  0  0  0  0  0  0
   47.2316    2.6137    5.7404 H   0  0  0  0  0  0  0  0  0  0  0  0
   46.8338    1.0684    6.2831 H   0  0  0  0  0  0  0  0  0  0  0  0
   46.6885    4.6207    6.9799 H   0  0  0  0  0  0  0  0  0  0  0  0
   45.6998    0.6777    8.3918 H   0  0  0  0  0  0  0  0  0  0  0  0
   47.4675    7.4430   13.0962 H   0  0  0  0  0  0  0  0  0  0  0  0
   46.2606    3.4032   14.0799 H   0  0  0  0  0  0  0  0  0  0  0  0
   47.5989    3.5167   16.1341 H   0  0  0  0  0  0  0  0  0  0  0  0
   48.8268    7.5173   15.1595 H   0  0  0  0  0  0  0  0  0  0  0  0
   48.8880    5.5605   16.6839 H   0  0  0  0  0  0  0  0  0  0  0  0
  2  1  1  0
  3  2  1  0
  4  1  1  0
  5  1  2  0
  6  1  2  0
  7  3  2  0
  8  3  1  0
  9  4  2  0
 10  4  1  0
 11 13  1  0
 12 11  1  0
 13 10  2  0
 14  9  1  0
 15  8  2  0
 16  8  1  0
 17 16  2  0
 18 15  1  0
 19 17  1  0
 11 14  2  0
 19 18  2  0
  2 20  1  0
  9 21  1  0
 10 22  1  0
 12 23  1  0
 12 24  1  0
 13 25  1  0
 14 26  1  0
 15 27  1  0
 16 28  1  0
 17 29  1  0
 18 30  1  0
 19 31  1  0
M  END
> <Uni-Dock RESULT> 
ENERGY=   -6.070  LOWER_BOUND=    1.765  UPPER_BOUND=    6.394
INTER + INTRA:          -6.070
INTER:                  -6.070
INTRA:                   0.000
UNBOUND:                 0.000

$$$$

     RDKit          3D

 31 32  0  0  0  0  0  0  0  0999 V2000
   47.6205    3.9387   17.6636 S   0  0  0  0  0  0  0  0  0  0  0  0
   49.0692    3.1249   17.7289 N   0  0  0  0  0  0  0  0  0  0  0  0
   50.3286    3.7309   17.7966 C   0  0  0  0  0  0  0  0  0  0  0  0
   47.6466    4.6803   16.0533 C   0  0  0  0  0  0  0  0  0  0  0  0
   47.5900    4.9748   18.6699 O   0  0  0  0  0  0  0  0  0  0  0  0
   46.6112    2.8980   17.6454 O   0  0  0  0  0  0  0  0  0  0  0  0
   50.4997    4.9392   17.7787 O   0  0  0  0  0  0  0  0  0  0  0  0
   51.4891    2.8001   17.8835 C   0  0  0  0  0  0  0  0  0  0  0  0
   47.1334    3.9810   14.9587 C   0  0  0  0  0  0  0  0  0  0  0  0
   48.1477    5.9726   15.8934 C   0  0  0  0  0  0  0  0  0  0  0  0
   47.5985    5.8901   13.5268 C   0  0  0  0  0  0  0  0  0  0  0  0
   47.7105    6.4349   12.2428 N   0  0  0  0  0  0  0  0  0  0  0  0
   48.1480    6.5591   14.6251 C   0  0  0  0  0  0  0  0  0  0  0  0
   47.1357    4.5811   13.6964 C   0  0  0  0  0  0  0  0  0  0  0  0
   52.6819    3.2912   18.4343 C   0  0  0  0  0  0  0  0  0  0  0  0
   51.4319    1.4691   17.4458 C   0  0  0  0  0  0  0  0  0  0  0  0
   52.5519    0.6422   17.5709 C   0  0  0  0  0  0  0  0  0  0  0  0
   53.7973    2.4608   18.5582 C   0  0  0  0  0  0  0  0  0  0  0  0
   53.7302    1.1368   18.1291 C   0  0  0  0  0  0  0  0  0  0  0  0
   48.9364    2.1283   17.8483 H   0  0  0  0  0  0  0  0  0  0  0  0
   46.7389    2.9744   15.0730 H   0  0  0  0  0  0  0  0  0  0  0  0
   48.5597    6.5179   16.7406 H   0  0  0  0  0  0  0  0  0  0  0  0
   47.7551    7.4494   12.2309 H   0  0  0  0  0  0  0  0  0  0  0  0
   47.0313    6.0732   11.5808 H   0  0  0  0  0  0  0  0  0  0  0  0
   48.5804    7.5492   14.5042 H   0  0  0  0  0  0  0  0  0  0  0  0
   46.7663    4.0184   12.8428 H   0  0  0  0  0  0  0  0  0  0  0  0
   52.7461    4.3241   18.7737 H   0  0  0  0  0  0  0  0  0  0  0  0
   50.5439    1.0594   16.9747 H   0  0  0  0  0  0  0  0  0  0  0  0
   52.5098   -0.3883   17.2249 H   0  0  0  0  0  0  0  0  0  0  0  0
   54.7177    2.8486   18.9884 H   0  0  0  0  0  0  0  0  0  0  0  0
   54.6004    0.4912   18.2234 H   0  0  0  0  0  0  0  0  0  0  0  0
  2  1  1  0
  3  2  1  0
  4  1  1  0
  5  1  2  0
  6  1  2  0
  7  3  2  0
  8  3  1  0
  9  4  2  0
 10  4  1  0
 11 13  1  0
 12 11  1  0
 13 10  2  0
 14  9  1  0
 15  8  2  0
 16  8  1  0
 17 16  2  0
 18 15  1  0
 19 17  1  0
 11 14  2  0
 19 18  2  0
  2 20  1  0
  9 21  1  0
 10 22  1  0
 12 23  1  0
 12 24  1  0
 13 25  1  0
 14 26  1  0
 15 27  1  0
 16 28  1  0
 17 29  1  0
 18 30  1  0
 19 31  1  0
M  END
> <Uni-Dock RESULT> 
ENERGY=   -4.739  LOWER_BOUND=    6.215  UPPER_BOUND=    9.001
INTER + INTRA:          -4.739
INTER:                  -4.739
INTRA:                   0.000
UNBOUND:                 0.000

$$$$

     RDKit          3D

 31 32  0  0  0  0  0  0  0  0999 V2000
   43.3691   11.2305   10.9868 S   0  0  0  0  0  0  0  0  0  0  0  0
   44.1272    9.8623   11.5511 N   0  0  0  0  0  0  0  0  0  0  0  0
   45.4756    9.7839   11.9166 C   0  0  0  0  0  0  0  0  0  0  0  0
   44.0934   11.4616    9.3851 C   0  0  0  0  0  0  0  0  0  0  0  0
   43.6941   12.3585   11.8289 O   0  0  0  0  0  0  0  0  0  0  0  0
   41.9892   10.8335   10.7855 O   0  0  0  0  0  0  0  0  0  0  0  0
   46.2568   10.7170   11.8243 O   0  0  0  0  0  0  0  0  0  0  0  0
   45.9293    8.4607   12.4304 C   0  0  0  0  0  0  0  0  0  0  0  0
   43.5128   10.8585    8.2672 C   0  0  0  0  0  0  0  0  0  0  0  0
   45.2197   12.2731    9.2442 C   0  0  0  0  0  0  0  0  0  0  0  0
   45.1807   11.9058    6.8415 C   0  0  0  0  0  0  0  0  0  0  0  0
   45.8093   12.0069    5.5955 N   0  0  0  0  0  0  0  0  0  0  0  0
   45.7747   12.4668    7.9765 C   0  0  0  0  0  0  0  0  0  0  0  0
   44.0756   11.0641    7.0045 C   0  0  0  0  0  0  0  0  0  0  0  0
   47.0683    8.4321   13.2483 C   0  0  0  0  0  0  0  0  0  0  0  0
   45.2661    7.2611   12.1346 C   0  0  0  0  0  0  0  0  0  0  0  0
   45.7337    6.0541   12.6624 C   0  0  0  0  0  0  0  0  0  0  0  0
   47.5304    7.2241   13.7740 C   0  0  0  0  0  0  0  0  0  0  0  0
   46.8611    6.0372   13.4828 C   0  0  0  0  0  0  0  0  0  0  0  0
   43.4694    9.1135   11.7293 H   0  0  0  0  0  0  0  0  0  0  0  0
   42.6342   10.2259    8.3659 H   0  0  0  0  0  0  0  0  0  0  0  0
   45.6834   12.7362   10.1133 H   0  0  0  0  0  0  0  0  0  0  0  0
   46.3826   12.8389    5.4923 H   0  0  0  0  0  0  0  0  0  0  0  0
   45.1851   11.8713    4.8066 H   0  0  0  0  0  0  0  0  0  0  0  0
   46.6773   13.0657    7.8842 H   0  0  0  0  0  0  0  0  0  0  0  0
   43.6391   10.5643    6.1433 H   0  0  0  0  0  0  0  0  0  0  0  0
   47.5994    9.3534   13.4834 H   0  0  0  0  0  0  0  0  0  0  0  0
   44.4068    7.2307   11.4721 H   0  0  0  0  0  0  0  0  0  0  0  0
   45.2234    5.1225   12.4272 H   0  0  0  0  0  0  0  0  0  0  0  0
   48.4131    7.2107   14.4092 H   0  0  0  0  0  0  0  0  0  0  0  0
   47.2233    5.0960   13.8905 H   0  0  0  0  0  0  0  0  0  0  0  0
  2  1  1  0
  3  2  1  0
  4  1  1  0
  5  1  2  0
  6  1  2  0
  7  3  2  0
  8  3  1  0
  9  4  2  0
 10  4  1  0
 11 13  1  0
 12 11  1  0
 13 10  2  0
 14  9  1  0
 15  8  2  0
 16  8  1  0
 17 16  2  0
 18 15  1  0
 19 17  1  0
 11 14  2  0
 19 18  2  0
  2 20  1  0
  9 21  1  0
 10 22  1  0
 12 23  1  0
 12 24  1  0
 13 25  1  0
 14 26  1  0
 15 27  1  0
 16 28  1  0
 17 29  1  0
 18 30  1  0
 19 31  1  0
M  END
> <Uni-Dock RESULT> 
ENERGY=   -4.176  LOWER_BOUND=    5.581  UPPER_BOUND=    8.064
INTER + INTRA:          -4.176
INTER:                  -4.176
INTRA:                   0.000
UNBOUND:                 0.000

$$$$

     RDKit          3D

 31 32  0  0  0  0  0  0  0  0999 V2000
   47.5723    4.1033   17.8334 S   0  0  0  0  0  0  0  0  0  0  0  0
   47.5000    5.1080   16.5104 N   0  0  0  0  0  0  0  0  0  0  0  0
   47.4731    4.6813   15.1781 C   0  0  0  0  0  0  0  0  0  0  0  0
   49.2083    3.4265   17.7371 C   0  0  0  0  0  0  0  0  0  0  0  0
   46.6033    3.0400   17.7000 O   0  0  0  0  0  0  0  0  0  0  0  0
   47.5379    4.9934   18.9773 O   0  0  0  0  0  0  0  0  0  0  0  0
   47.5368    3.5098   14.8416 O   0  0  0  0  0  0  0  0  0  0  0  0
   47.3707    5.7611   14.1563 C   0  0  0  0  0  0  0  0  0  0  0  0
   50.2692    4.0836   18.3640 C   0  0  0  0  0  0  0  0  0  0  0  0
   49.4219    2.2225   17.0650 C   0  0  0  0  0  0  0  0  0  0  0  0
   51.7754    2.3065   17.6676 C   0  0  0  0  0  0  0  0  0  0  0  0
   53.0795    1.8256   17.5070 N   0  0  0  0  0  0  0  0  0  0  0  0
   50.7101    1.6843   17.0089 C   0  0  0  0  0  0  0  0  0  0  0  0
   51.5520    3.5320   18.3038 C   0  0  0  0  0  0  0  0  0  0  0  0
   46.8560    5.4227   12.8962 C   0  0  0  0  0  0  0  0  0  0  0  0
   47.7596    7.0850   14.4061 C   0  0  0  0  0  0  0  0  0  0  0  0
   47.6220    8.0551   13.4090 C   0  0  0  0  0  0  0  0  0  0  0  0
   46.7194    6.3956   11.9043 C   0  0  0  0  0  0  0  0  0  0  0  0
   47.0999    7.7110   12.1627 C   0  0  0  0  0  0  0  0  0  0  0  0
   47.3430    6.0720   16.7776 H   0  0  0  0  0  0  0  0  0  0  0  0
   50.1131    5.0212   18.8917 H   0  0  0  0  0  0  0  0  0  0  0  0
   48.6010    1.7119   16.5646 H   0  0  0  0  0  0  0  0  0  0  0  0
   53.1284    0.8281   17.3225 H   0  0  0  0  0  0  0  0  0  0  0  0
   53.7178    2.1111   18.2428 H   0  0  0  0  0  0  0  0  0  0  0  0
   50.8728    0.7685   16.4460 H   0  0  0  0  0  0  0  0  0  0  0  0
   52.3793    4.0659   18.7647 H   0  0  0  0  0  0  0  0  0  0  0  0
   46.5547    4.3981   12.6827 H   0  0  0  0  0  0  0  0  0  0  0  0
   48.2022    7.3826   15.3515 H   0  0  0  0  0  0  0  0  0  0  0  0
   47.9304    9.0807   13.6004 H   0  0  0  0  0  0  0  0  0  0  0  0
   46.3174    6.1256   10.9306 H   0  0  0  0  0  0  0  0  0  0  0  0
   46.9957    8.4679   11.3886 H   0  0  0  0  0  0  0  0  0  0  0  0
  2  1  1  0
  3  2  1  0
  4  1  1  0
  5  1  2  0
  6  1  2  0
  7  3  2  0
  8  3  1  0
  9  4  2  0
 10  4  1  0
 11 13  1  0
 12 11  1  0
 13 10  2  0
 14  9  1  0
 15  8  2  0
 16  8  1  0
 17 16  2  0
 18 15  1  0
 19 17  1  0
 11 14  2  0
 19 18  2  0
  2 20  1  0
  9 21  1  0
 10 22  1  0
 12 23  1  0
 12 24  1  0
 13 25  1  0
 14 26  1  0
 15 27  1  0
 16 28  1  0
 17 29  1  0
 18 30  1  0
 19 31  1  0
M  END
> <Uni-Dock RESULT> 
ENERGY=   -4.064  LOWER_BOUND=    5.201  UPPER_BOUND=    7.423
INTER + INTRA:          -4.064
INTER:                  -4.064
INTRA:                   0.000
UNBOUND:                 0.000

$$$$

     RDKit          3D

 31 32  0  0  0  0  0  0  0  0999 V2000
   48.6725    7.6997   12.6037 S   0  0  0  0  0  0  0  0  0  0  0  0
   47.4468    6.5854   12.4583 N   0  0  0  0  0  0  0  0  0  0  0  0
   46.0943    6.8416   12.7094 C   0  0  0  0  0  0  0  0  0  0  0  0
   48.7717    7.9642   14.3541 C   0  0  0  0  0  0  0  0  0  0  0  0
   48.2989    8.9333   11.9513 O   0  0  0  0  0  0  0  0  0  0  0  0
   49.8705    6.9873   12.2043 O   0  0  0  0  0  0  0  0  0  0  0  0
   45.6711    7.9171   13.1018 O   0  0  0  0  0  0  0  0  0  0  0  0
   45.1668    5.6986   12.4776 C   0  0  0  0  0  0  0  0  0  0  0  0
   49.6098    7.1614   15.1310 C   0  0  0  0  0  0  0  0  0  0  0  0
   48.0385    8.9955   14.9420 C   0  0  0  0  0  0  0  0  0  0  0  0
   49.0026    8.4451   17.1045 C   0  0  0  0  0  0  0  0  0  0  0  0
   49.0042    8.5891   18.4963 N   0  0  0  0  0  0  0  0  0  0  0  0
   48.1355    9.2113   16.3191 C   0  0  0  0  0  0  0  0  0  0  0  0
   49.7008    7.3908   16.5067 C   0  0  0  0  0  0  0  0  0  0  0  0
   43.8177    5.9907   12.2290 C   0  0  0  0  0  0  0  0  0  0  0  0
   45.5880    4.3611   12.4937 C   0  0  0  0  0  0  0  0  0  0  0  0
   44.6699    3.3351   12.2519 C   0  0  0  0  0  0  0  0  0  0  0  0
   42.9051    4.9623   11.9868 C   0  0  0  0  0  0  0  0  0  0  0  0
   43.3327    3.6362   11.9958 C   0  0  0  0  0  0  0  0  0  0  0  0
   47.7694    5.7235   12.0361 H   0  0  0  0  0  0  0  0  0  0  0  0
   50.1867    6.3564   14.6825 H   0  0  0  0  0  0  0  0  0  0  0  0
   47.3747    9.6169   14.3434 H   0  0  0  0  0  0  0  0  0  0  0  0
   48.7434    9.5185   18.8122 H   0  0  0  0  0  0  0  0  0  0  0  0
   49.8519    8.2558   18.9444 H   0  0  0  0  0  0  0  0  0  0  0  0
   47.5270    9.9895   16.7731 H   0  0  0  0  0  0  0  0  0  0  0  0
   50.3287    6.7406   17.1108 H   0  0  0  0  0  0  0  0  0  0  0  0
   43.4719    7.0235   12.2189 H   0  0  0  0  0  0  0  0  0  0  0  0
   46.6127    4.0867   12.7237 H   0  0  0  0  0  0  0  0  0  0  0  0
   44.9952    2.2971   12.2714 H   0  0  0  0  0  0  0  0  0  0  0  0
   41.8612    5.1974   11.7927 H   0  0  0  0  0  0  0  0  0  0  0  0
   42.6206    2.8353   11.8098 H   0  0  0  0  0  0  0  0  0  0  0  0
  2  1  1  0
  3  2  1  0
  4  1  1  0
  5  1  2  0
  6  1  2  0
  7  3  2  0
  8  3  1  0
  9  4  2  0
 10  4  1  0
 11 13  1  0
 12 11  1  0
 13 10  2  0
 14  9  1  0
 15  8  2  0
 16  8  1  0
 17 16  2  0
 18 15  1  0
 19 17  1  0
 11 14  2  0
 19 18  2  0
  2 20  1  0
  9 21  1  0
 10 22  1  0
 12 23  1  0
 12 24  1  0
 13 25  1  0
 14 26  1  0
 15 27  1  0
 16 28  1  0
 17 29  1  0
 18 30  1  0
 19 31  1  0
M  END
> <Uni-Dock RESULT> 
ENERGY=   -4.059  LOWER_BOUND=    4.466  UPPER_BOUND=    5.991
INTER + INTRA:          -4.059
INTER:                  -4.059
INTRA:                   0.000
UNBOUND:                 0.000

$$$$

     RDKit          3D

 31 32  0  0  0  0  0  0  0  0999 V2000
   43.2310   11.2379    9.9186 S   0  0  0  0  0  0  0  0  0  0  0  0
   44.2586   10.3144   10.8440 N   0  0  0  0  0  0  0  0  0  0  0  0
   44.0649    8.9640   11.1550 C   0  0  0  0  0  0  0  0  0  0  0  0
   41.7988   11.4046   10.9504 C   0  0  0  0  0  0  0  0  0  0  0  0
   42.8754   10.5246    8.7137 O   0  0  0  0  0  0  0  0  0  0  0  0
   43.8664   12.5391    9.8452 O   0  0  0  0  0  0  0  0  0  0  0  0
   43.0880    8.3223   10.8034 O   0  0  0  0  0  0  0  0  0  0  0  0
   45.1376    8.3292   11.9714 C   0  0  0  0  0  0  0  0  0  0  0  0
   41.7100   12.4712   11.8476 C   0  0  0  0  0  0  0  0  0  0  0  0
   40.7519   10.4893   10.8362 C   0  0  0  0  0  0  0  0  0  0  0  0
   39.4936   11.7232   12.5106 C   0  0  0  0  0  0  0  0  0  0  0  0
   38.4103   11.7973   13.3931 N   0  0  0  0  0  0  0  0  0  0  0  0
   39.6174   10.6369   11.6385 C   0  0  0  0  0  0  0  0  0  0  0  0
   40.5678   12.6096   12.6410 C   0  0  0  0  0  0  0  0  0  0  0  0
   45.2712    6.9345   11.9056 C   0  0  0  0  0  0  0  0  0  0  0  0
   46.0093    9.0646   12.7874 C   0  0  0  0  0  0  0  0  0  0  0  0
   47.0063    8.4094   13.5160 C   0  0  0  0  0  0  0  0  0  0  0  0
   46.2695    6.2852   12.6342 C   0  0  0  0  0  0  0  0  0  0  0  0
   47.1375    7.0235   13.4361 C   0  0  0  0  0  0  0  0  0  0  0  0
   45.1195   10.8043   11.0538 H   0  0  0  0  0  0  0  0  0  0  0  0
   42.5193   13.1909   11.9429 H   0  0  0  0  0  0  0  0  0  0  0  0
   40.8204    9.6494   10.1471 H   0  0  0  0  0  0  0  0  0  0  0  0
   37.5700   11.3424   13.0490 H   0  0  0  0  0  0  0  0  0  0  0  0
   38.2249   12.7328   13.7407 H   0  0  0  0  0  0  0  0  0  0  0  0
   38.8268    9.8936   11.5723 H   0  0  0  0  0  0  0  0  0  0  0  0
   40.5197   13.4222   13.3615 H   0  0  0  0  0  0  0  0  0  0  0  0
   44.5990    6.3469   11.2818 H   0  0  0  0  0  0  0  0  0  0  0  0
   45.9154   10.1399   12.9017 H   0  0  0  0  0  0  0  0  0  0  0  0
   47.6780    8.9792   14.1546 H   0  0  0  0  0  0  0  0  0  0  0  0
   46.3678    5.2037   12.5760 H   0  0  0  0  0  0  0  0  0  0  0  0
   47.9133    6.5167   14.0057 H   0  0  0  0  0  0  0  0  0  0  0  0
  2  1  1  0
  3  2  1  0
  4  1  1  0
  5  1  2  0
  6  1  2  0
  7  3  2  0
  8  3  1  0
  9  4  2  0
 10  4  1  0
 11 13  1  0
 12 11  1  0
 13 10  2  0
 14  9  1  0
 15  8  2  0
 16  8  1  0
 17 16  2  0
 18 15  1  0
 19 17  1  0
 11 14  2  0
 19 18  2  0
  2 20  1  0
  9 21  1  0
 10 22  1  0
 12 23  1  0
 12 24  1  0
 13 25  1  0
 14 26  1  0
 15 27  1  0
 16 28  1  0
 17 29  1  0
 18 30  1  0
 19 31  1  0
M  END
> <Uni-Dock RESULT> 
ENERGY=   -4.051  LOWER_BOUND=    5.643  UPPER_BOUND=    7.906
INTER + INTRA:          -4.051
INTER:                  -4.051
INTRA:                   0.000
UNBOUND:                 0.000

$$$$

     RDKit          3D

 31 32  0  0  0  0  0  0  0  0999 V2000
   48.4552    5.5824   17.8492 S   0  0  0  0  0  0  0  0  0  0  0  0
   48.6679    6.3967   16.4151 N   0  0  0  0  0  0  0  0  0  0  0  0
   48.2385    5.9438   15.1628 C   0  0  0  0  0  0  0  0  0  0  0  0
   49.5368    4.1870   17.6851 C   0  0  0  0  0  0  0  0  0  0  0  0
   47.0900    5.1225   17.9586 O   0  0  0  0  0  0  0  0  0  0  0  0
   49.0229    6.4547   18.8587 O   0  0  0  0  0  0  0  0  0  0  0  0
   47.6858    4.8702   14.9848 O   0  0  0  0  0  0  0  0  0  0  0  0
   48.5067    6.8596   14.0183 C   0  0  0  0  0  0  0  0  0  0  0  0
   50.8641    4.2841   18.1085 C   0  0  0  0  0  0  0  0  0  0  0  0
   49.0474    2.9880   17.1659 C   0  0  0  0  0  0  0  0  0  0  0  0
   51.2189    1.9530   17.5160 C   0  0  0  0  0  0  0  0  0  0  0  0
   52.0962    0.8856   17.2944 N   0  0  0  0  0  0  0  0  0  0  0  0
   49.8996    1.8860   17.0568 C   0  0  0  0  0  0  0  0  0  0  0  0
   51.7046    3.1730   17.9977 C   0  0  0  0  0  0  0  0  0  0  0  0
   47.7075    6.7272   12.8732 C   0  0  0  0  0  0  0  0  0  0  0  0
   49.5107    7.8381   14.0453 C   0  0  0  0  0  0  0  0  0  0  0  0
   49.7001    8.6775   12.9437 C   0  0  0  0  0  0  0  0  0  0  0  0
   47.8999    7.5689   11.7762 C   0  0  0  0  0  0  0  0  0  0  0  0
   48.8939    8.5448   11.8138 C   0  0  0  0  0  0  0  0  0  0  0  0
   49.0306    7.3306   16.5624 H   0  0  0  0  0  0  0  0  0  0  0  0
   51.2548    5.2132   18.5161 H   0  0  0  0  0  0  0  0  0  0  0  0
   48.0171    2.9099   16.8235 H   0  0  0  0  0  0  0  0  0  0  0  0
   51.6365   -0.0186   17.2440 H   0  0  0  0  0  0  0  0  0  0  0  0
   52.8973    0.8742   17.9177 H   0  0  0  0  0  0  0  0  0  0  0  0
   49.5197    0.9702   16.6110 H   0  0  0  0  0  0  0  0  0  0  0  0
   52.7455    3.2654   18.2974 H   0  0  0  0  0  0  0  0  0  0  0  0
   46.9271    5.9686   12.8325 H   0  0  0  0  0  0  0  0  0  0  0  0
   50.1800    7.9478   14.8928 H   0  0  0  0  0  0  0  0  0  0  0  0
   50.4838    9.4319   12.9619 H   0  0  0  0  0  0  0  0  0  0  0  0
   47.2745    7.4613   10.8930 H   0  0  0  0  0  0  0  0  0  0  0  0
   49.0450    9.1984   10.9576 H   0  0  0  0  0  0  0  0  0  0  0  0
  2  1  1  0
  3  2  1  0
  4  1  1  0
  5  1  2  0
  6  1  2  0
  7  3  2  0
  8  3  1  0
  9  4  2  0
 10  4  1  0
 11 13  1  0
 12 11  1  0
 13 10  2  0
 14  9  1  0
 15  8  2  0
 16  8  1  0
 17 16  2  0
 18 15  1  0
 19 17  1  0
 11 14  2  0
 19 18  2  0
  2 20  1  0
  9 21  1  0
 10 22  1  0
 12 23  1  0
 12 24  1  0
 13 25  1  0
 14 26  1  0
 15 27  1  0
 16 28  1  0
 17 29  1  0
 18 30  1  0
 19 31  1  0
M  END
> <Uni-Dock RESULT> 
ENERGY=   -3.949  LOWER_BOUND=    5.818  UPPER_BOUND=    7.776
INTER + INTRA:          -3.949
INTER:                  -3.949
INTRA:                   0.000
UNBOUND:                 0.000

$$$$

     RDKit          3D

 31 32  0  0  0  0  0  0  0  0999 V2000
   50.0493    6.9589   16.3228 S   0  0  0  0  0  0  0  0  0  0  0  0
   49.2737    8.1998   17.1125 N   0  0  0  0  0  0  0  0  0  0  0  0
   48.3715    8.0393   18.1699 C   0  0  0  0  0  0  0  0  0  0  0  0
   48.7370    6.1628   15.4352 C   0  0  0  0  0  0  0  0  0  0  0  0
   50.6098    6.0361   17.2827 O   0  0  0  0  0  0  0  0  0  0  0  0
   50.8981    7.6138   15.3466 O   0  0  0  0  0  0  0  0  0  0  0  0
   48.0272    6.9528   18.6064 O   0  0  0  0  0  0  0  0  0  0  0  0
   47.8252    9.2989   18.7492 C   0  0  0  0  0  0  0  0  0  0  0  0
   48.4160    6.5860   14.1436 C   0  0  0  0  0  0  0  0  0  0  0  0
   48.0545    5.0945   16.0180 C   0  0  0  0  0  0  0  0  0  0  0  0
   46.7292    4.8413   13.9959 C   0  0  0  0  0  0  0  0  0  0  0  0
   45.6301    4.2800   13.3365 N   0  0  0  0  0  0  0  0  0  0  0  0
   47.0340    4.4586   15.3061 C   0  0  0  0  0  0  0  0  0  0  0  0
   47.3960    5.9385   13.4410 C   0  0  0  0  0  0  0  0  0  0  0  0
   47.3367    9.2567   20.0633 C   0  0  0  0  0  0  0  0  0  0  0  0
   47.7866   10.5086   18.0410 C   0  0  0  0  0  0  0  0  0  0  0  0
   47.2762   11.6595   18.6483 C   0  0  0  0  0  0  0  0  0  0  0  0
   46.8292   10.4093   20.6658 C   0  0  0  0  0  0  0  0  0  0  0  0
   46.8022   11.6097   19.9587 C   0  0  0  0  0  0  0  0  0  0  0  0
   49.6275    9.1055   16.8301 H   0  0  0  0  0  0  0  0  0  0  0  0
   48.9430    7.4162   13.6798 H   0  0  0  0  0  0  0  0  0  0  0  0
   48.2924    4.7678   17.0287 H   0  0  0  0  0  0  0  0  0  0  0  0
   45.4096    3.3358   13.6387 H   0  0  0  0  0  0  0  0  0  0  0  0
   45.6717    4.3589   12.3253 H   0  0  0  0  0  0  0  0  0  0  0  0
   46.4799    3.6558   15.7861 H   0  0  0  0  0  0  0  0  0  0  0  0
   47.1283    6.2948   12.4494 H   0  0  0  0  0  0  0  0  0  0  0  0
   47.3532    8.3243   20.6261 H   0  0  0  0  0  0  0  0  0  0  0  0
   48.1141   10.5777   17.0084 H   0  0  0  0  0  0  0  0  0  0  0  0
   47.2397   12.5963   18.0964 H   0  0  0  0  0  0  0  0  0  0  0  0
   46.4544   10.3687   21.6858 H   0  0  0  0  0  0  0  0  0  0  0  0
   46.4041   12.5068   20.4278 H   0  0  0  0  0  0  0  0  0  0  0  0
  2  1  1  0
  3  2  1  0
  4  1  1  0
  5  1  2  0
  6  1  2  0
  7  3  2  0
  8  3  1  0
  9  4  2  0
 10  4  1  0
 11 13  1  0
 12 11  1  0
 13 10  2  0
 14  9  1  0
 15  8  2  0
 16  8  1  0
 17 16  2  0
 18 15  1  0
 19 17  1  0
 11 14  2  0
 19 18  2  0
  2 20  1  0
  9 21  1  0
 10 22  1  0
 12 23  1  0
 12 24  1  0
 13 25  1  0
 14 26  1  0
 15 27  1  0
 16 28  1  0
 17 29  1  0
 18 30  1  0
 19 31  1  0
M  END
> <Uni-Dock RESULT> 
ENERGY=   -3.880  LOWER_BOUND=    6.244  UPPER_BOUND=   10.178
INTER + INTRA:          -3.880
INTER:                  -3.880
INTRA:                   0.000
UNBOUND:                 0.000

$$$$
