
     RDKit          3D

 31 32  0  0  0  0  0  0  0  0999 V2000
   43.8692    4.1474   10.9327 S   0  0  0  0  0  0  0  0  0  0  0  0
   44.7505    3.4006    9.7361 N   0  0  0  0  0  0  0  0  0  0  0  0
   45.5714    4.0598    8.8149 C   0  0  0  0  0  0  0  0  0  0  0  0
   45.1188    4.7595   12.0318 C   0  0  0  0  0  0  0  0  0  0  0  0
   43.1292    5.2563   10.3758 O   0  0  0  0  0  0  0  0  0  0  0  0
   43.1812    3.0681   11.6137 O   0  0  0  0  0  0  0  0  0  0  0  0
   45.7631    5.2652    8.8219 O   0  0  0  0  0  0  0  0  0  0  0  0
   46.2334    3.1911    7.8010 C   0  0  0  0  0  0  0  0  0  0  0  0
   45.5850    3.9522   13.0715 C   0  0  0  0  0  0  0  0  0  0  0  0
   45.5757    6.0713   11.8992 C   0  0  0  0  0  0  0  0  0  0  0  0
   47.0698    5.7397   13.7879 C   0  0  0  0  0  0  0  0  0  0  0  0
   47.9412    6.2728   14.7436 N   0  0  0  0  0  0  0  0  0  0  0  0
   46.5381    6.5591   12.7872 C   0  0  0  0  0  0  0  0  0  0  0  0
   46.5468    4.4531   13.9536 C   0  0  0  0  0  0  0  0  0  0  0  0
   46.4451    1.8185    7.9947 C   0  0  0  0  0  0  0  0  0  0  0  0
   46.6529    3.7878    6.6027 C   0  0  0  0  0  0  0  0  0  0  0  0
   47.2632    3.0221    5.6077 C   0  0  0  0  0  0  0  0  0  0  0  0
   47.0579    1.0565    6.9956 C   0  0  0  0  0  0  0  0  0  0  0  0
   47.4626    1.6571    5.8040 C   0  0  0  0  0  0  0  0  0  0  0  0
   44.5276    2.4157    9.6645 H   0  0  0  0  0  0  0  0  0  0  0  0
   45.1955    2.9477   13.2172 H   0  0  0  0  0  0  0  0  0  0  0  0
   45.1883    6.7182   11.1140 H   0  0  0  0  0  0  0  0  0  0  0  0
   48.4911    7.0575   14.4077 H   0  0  0  0  0  0  0  0  0  0  0  0
   48.5080    5.5799   15.2217 H   0  0  0  0  0  0  0  0  0  0  0  0
   46.8690    7.5899   12.6889 H   0  0  0  0  0  0  0  0  0  0  0  0
   46.8816    3.8307   14.7796 H   0  0  0  0  0  0  0  0  0  0  0  0
   46.1746    1.3226    8.9215 H   0  0  0  0  0  0  0  0  0  0  0  0
   46.5013    4.8535    6.4371 H   0  0  0  0  0  0  0  0  0  0  0  0
   47.5829    3.4920    4.6804 H   0  0  0  0  0  0  0  0  0  0  0  0
   47.2278   -0.0071    7.1485 H   0  0  0  0  0  0  0  0  0  0  0  0
   47.9400    1.0616    5.0291 H   0  0  0  0  0  0  0  0  0  0  0  0
  2  1  1  0
  3  2  1  0
  4  1  1  0
  5  1  2  0
  6  1  2  0
  7  3  2  0
  8  3  1  0
  9  4  2  0
 10  4  1  0
 11 13  1  0
 12 11  1  0
 13 10  2  0
 14  9  1  0
 15  8  2  0
 16  8  1  0
 17 16  2  0
 18 15  1  0
 19 17  1  0
 11 14  2  0
 19 18  2  0
  2 20  1  0
  9 21  1  0
 10 22  1  0
 12 23  1  0
 12 24  1  0
 13 25  1  0
 14 26  1  0
 15 27  1  0
 16 28  1  0
 17 29  1  0
 18 30  1  0
 19 31  1  0
M  END
> <Uni-Dock RESULT> 
ENERGY=   -7.256  LOWER_BOUND=    0.000  UPPER_BOUND=    0.000
INTER + INTRA:          -7.256
INTER:                  -7.256
INTRA:                   0.000
UNBOUND:                 0.000

$$$$

     RDKit          3D

 31 32  0  0  0  0  0  0  0  0999 V2000
   43.8176    4.4684   10.7981 S   0  0  0  0  0  0  0  0  0  0  0  0
   44.9433    4.8976   11.9448 N   0  0  0  0  0  0  0  0  0  0  0  0
   45.6624    3.9976   12.7386 C   0  0  0  0  0  0  0  0  0  0  0  0
   44.7968    3.6830    9.5457 C   0  0  0  0  0  0  0  0  0  0  0  0
   42.8895    3.5126   11.3571 O   0  0  0  0  0  0  0  0  0  0  0  0
   43.3444    5.7267   10.2553 O   0  0  0  0  0  0  0  0  0  0  0  0
   45.5687    2.7847   12.6395 O   0  0  0  0  0  0  0  0  0  0  0  0
   46.5886    4.6093   13.7330 C   0  0  0  0  0  0  0  0  0  0  0  0
   45.3499    4.4471    8.5160 C   0  0  0  0  0  0  0  0  0  0  0  0
   44.9471    2.2958    9.5526 C   0  0  0  0  0  0  0  0  0  0  0  0
   46.3166    2.4362    7.5490 C   0  0  0  0  0  0  0  0  0  0  0  0
   46.9593    1.8008    6.4813 N   0  0  0  0  0  0  0  0  0  0  0  0
   45.6940    1.6784    8.5458 C   0  0  0  0  0  0  0  0  0  0  0  0
   46.0938    3.8166    7.5143 C   0  0  0  0  0  0  0  0  0  0  0  0
   47.0955    5.9104   13.6031 C   0  0  0  0  0  0  0  0  0  0  0  0
   46.9558    3.8378   14.8455 C   0  0  0  0  0  0  0  0  0  0  0  0
   47.8066    4.3625   15.8199 C   0  0  0  0  0  0  0  0  0  0  0  0
   47.9481    6.4307   14.5811 C   0  0  0  0  0  0  0  0  0  0  0  0
   48.2995    5.6592   15.6881 C   0  0  0  0  0  0  0  0  0  0  0  0
   44.9610    5.8981   12.0978 H   0  0  0  0  0  0  0  0  0  0  0  0
   45.1928    5.5219    8.4708 H   0  0  0  0  0  0  0  0  0  0  0  0
   44.4866    1.6906   10.3314 H   0  0  0  0  0  0  0  0  0  0  0  0
   47.3384    0.8878    6.7129 H   0  0  0  0  0  0  0  0  0  0  0  0
   47.6296    2.3852    5.9924 H   0  0  0  0  0  0  0  0  0  0  0  0
   45.7844    0.5950    8.5481 H   0  0  0  0  0  0  0  0  0  0  0  0
   46.4943    4.4132    6.6986 H   0  0  0  0  0  0  0  0  0  0  0  0
   46.8717    6.5285   12.7394 H   0  0  0  0  0  0  0  0  0  0  0  0
   46.5760    2.8235   14.9602 H   0  0  0  0  0  0  0  0  0  0  0  0
   48.0841    3.7586   16.6808 H   0  0  0  0  0  0  0  0  0  0  0  0
   48.3463    7.4378   14.4771 H   0  0  0  0  0  0  0  0  0  0  0  0
   48.9640    6.0667   16.4467 H   0  0  0  0  0  0  0  0  0  0  0  0
  2  1  1  0
  3  2  1  0
  4  1  1  0
  5  1  2  0
  6  1  2  0
  7  3  2  0
  8  3  1  0
  9  4  2  0
 10  4  1  0
 11 13  1  0
 12 11  1  0
 13 10  2  0
 14  9  1  0
 15  8  2  0
 16  8  1  0
 17 16  2  0
 18 15  1  0
 19 17  1  0
 11 14  2  0
 19 18  2  0
  2 20  1  0
  9 21  1  0
 10 22  1  0
 12 23  1  0
 12 24  1  0
 13 25  1  0
 14 26  1  0
 15 27  1  0
 16 28  1  0
 17 29  1  0
 18 30  1  0
 19 31  1  0
M  END
> <Uni-Dock RESULT> 
ENERGY=   -6.109  LOWER_BOUND=    1.748  UPPER_BOUND=    6.454
INTER + INTRA:          -6.109
INTER:                  -6.109
INTRA:                   0.000
UNBOUND:                 0.000

$$$$

     RDKit          3D

 31 32  0  0  0  0  0  0  0  0999 V2000
   43.8014    6.1487   11.9739 S   0  0  0  0  0  0  0  0  0  0  0  0
   45.3139    6.7218   12.3615 N   0  0  0  0  0  0  0  0  0  0  0  0
   46.2244    6.0756   13.2044 C   0  0  0  0  0  0  0  0  0  0  0  0
   44.1529    4.7158   10.9902 C   0  0  0  0  0  0  0  0  0  0  0  0
   43.1056    5.7516   13.1762 O   0  0  0  0  0  0  0  0  0  0  0  0
   43.2395    7.1541   11.0933 O   0  0  0  0  0  0  0  0  0  0  0  0
   46.0171    4.9866   13.7153 O   0  0  0  0  0  0  0  0  0  0  0  0
   47.5065    6.7961   13.4454 C   0  0  0  0  0  0  0  0  0  0  0  0
   44.3066    4.8431    9.6081 C   0  0  0  0  0  0  0  0  0  0  0  0
   44.1990    3.4575   11.5914 C   0  0  0  0  0  0  0  0  0  0  0  0
   44.6756    2.4460    9.4328 C   0  0  0  0  0  0  0  0  0  0  0  0
   44.8014    1.3004    8.6399 N   0  0  0  0  0  0  0  0  0  0  0  0
   44.4456    2.3275   10.8071 C   0  0  0  0  0  0  0  0  0  0  0  0
   44.5515    3.7044    8.8351 C   0  0  0  0  0  0  0  0  0  0  0  0
   48.0085    7.7718   12.5722 C   0  0  0  0  0  0  0  0  0  0  0  0
   48.2285    6.4758   14.6047 C   0  0  0  0  0  0  0  0  0  0  0  0
   49.4277    7.1295   14.8937 C   0  0  0  0  0  0  0  0  0  0  0  0
   49.2104    8.4225   12.8656 C   0  0  0  0  0  0  0  0  0  0  0  0
   49.9158    8.1039   14.0254 C   0  0  0  0  0  0  0  0  0  0  0  0
   45.4584    7.6631   12.0180 H   0  0  0  0  0  0  0  0  0  0  0  0
   44.2178    5.8117    9.1224 H   0  0  0  0  0  0  0  0  0  0  0  0
   44.0422    3.3471   12.6630 H   0  0  0  0  0  0  0  0  0  0  0  0
   45.1780    0.4970    9.1334 H   0  0  0  0  0  0  0  0  0  0  0  0
   45.2633    1.4593    7.7503 H   0  0  0  0  0  0  0  0  0  0  0  0
   44.4557    1.3500   11.2827 H   0  0  0  0  0  0  0  0  0  0  0  0
   44.6381    3.8066    7.7563 H   0  0  0  0  0  0  0  0  0  0  0  0
   47.5054    8.0226   11.6437 H   0  0  0  0  0  0  0  0  0  0  0  0
   47.8565    5.7170   15.2917 H   0  0  0  0  0  0  0  0  0  0  0  0
   49.9799    6.8773   15.7961 H   0  0  0  0  0  0  0  0  0  0  0  0
   49.6030    9.1750   12.1850 H   0  0  0  0  0  0  0  0  0  0  0  0
   50.8512    8.6113   14.2502 H   0  0  0  0  0  0  0  0  0  0  0  0
  2  1  1  0
  3  2  1  0
  4  1  1  0
  5  1  2  0
  6  1  2  0
  7  3  2  0
  8  3  1  0
  9  4  2  0
 10  4  1  0
 11 13  1  0
 12 11  1  0
 13 10  2  0
 14  9  1  0
 15  8  2  0
 16  8  1  0
 17 16  2  0
 18 15  1  0
 19 17  1  0
 11 14  2  0
 19 18  2  0
  2 20  1  0
  9 21  1  0
 10 22  1  0
 12 23  1  0
 12 24  1  0
 13 25  1  0
 14 26  1  0
 15 27  1  0
 16 28  1  0
 17 29  1  0
 18 30  1  0
 19 31  1  0
M  END
> <Uni-Dock RESULT> 
ENERGY=   -4.677  LOWER_BOUND=    2.710  UPPER_BOUND=    6.412
INTER + INTRA:          -4.677
INTER:                  -4.677
INTRA:                   0.000
UNBOUND:                 0.000

$$$$

     RDKit          3D

 31 32  0  0  0  0  0  0  0  0999 V2000
   47.8407    4.6005   17.7376 S   0  0  0  0  0  0  0  0  0  0  0  0
   49.3652    3.9576   17.9077 N   0  0  0  0  0  0  0  0  0  0  0  0
   49.8152    2.7867   17.2883 C   0  0  0  0  0  0  0  0  0  0  0  0
   47.8122    5.1288   16.0452 C   0  0  0  0  0  0  0  0  0  0  0  0
   46.8493    3.5691   17.9394 O   0  0  0  0  0  0  0  0  0  0  0  0
   47.8470    5.7909   18.5652 O   0  0  0  0  0  0  0  0  0  0  0  0
   49.1395    2.1298   16.5126 O   0  0  0  0  0  0  0  0  0  0  0  0
   51.2083    2.3739   17.6199 C   0  0  0  0  0  0  0  0  0  0  0  0
   48.2409    6.4154   15.7122 C   0  0  0  0  0  0  0  0  0  0  0  0
   47.2909    4.2840   15.0647 C   0  0  0  0  0  0  0  0  0  0  0  0
   47.7358    5.9740   13.3749 C   0  0  0  0  0  0  0  0  0  0  0  0
   47.5723    6.4435   12.0673 N   0  0  0  0  0  0  0  0  0  0  0  0
   47.2419    4.7168   13.7369 C   0  0  0  0  0  0  0  0  0  0  0  0
   48.1853    6.8362   14.3803 C   0  0  0  0  0  0  0  0  0  0  0  0
   52.1756    3.2698   18.0975 C   0  0  0  0  0  0  0  0  0  0  0  0
   51.5493    1.0244   17.4456 C   0  0  0  0  0  0  0  0  0  0  0  0
   52.8338    0.5742   17.7558 C   0  0  0  0  0  0  0  0  0  0  0  0
   53.4608    2.8141   18.4055 C   0  0  0  0  0  0  0  0  0  0  0  0
   53.7871    1.4688   18.2379 C   0  0  0  0  0  0  0  0  0  0  0  0
   49.9003    4.4423   18.6173 H   0  0  0  0  0  0  0  0  0  0  0  0
   48.5975    7.1014   16.4765 H   0  0  0  0  0  0  0  0  0  0  0  0
   46.9198    3.2939   15.3238 H   0  0  0  0  0  0  0  0  0  0  0  0
   47.5378    5.7091   11.3670 H   0  0  0  0  0  0  0  0  0  0  0  0
   48.2082    7.1920   11.8118 H   0  0  0  0  0  0  0  0  0  0  0  0
   46.8119    4.0592   12.9856 H   0  0  0  0  0  0  0  0  0  0  0  0
   48.4904    7.8499   14.1330 H   0  0  0  0  0  0  0  0  0  0  0  0
   51.9692    4.3295   18.2090 H   0  0  0  0  0  0  0  0  0  0  0  0
   50.8124    0.3154   17.0707 H   0  0  0  0  0  0  0  0  0  0  0  0
   53.0892   -0.4742   17.6204 H   0  0  0  0  0  0  0  0  0  0  0  0
   54.2131    3.5103   18.7702 H   0  0  0  0  0  0  0  0  0  0  0  0
   54.7883    1.1177   18.4775 H   0  0  0  0  0  0  0  0  0  0  0  0
  2  1  1  0
  3  2  1  0
  4  1  1  0
  5  1  2  0
  6  1  2  0
  7  3  2  0
  8  3  1  0
  9  4  2  0
 10  4  1  0
 11 13  1  0
 12 11  1  0
 13 10  2  0
 14  9  1  0
 15  8  2  0
 16  8  1  0
 17 16  2  0
 18 15  1  0
 19 17  1  0
 11 14  2  0
 19 18  2  0
  2 20  1  0
  9 21  1  0
 10 22  1  0
 12 23  1  0
 12 24  1  0
 13 25  1  0
 14 26  1  0
 15 27  1  0
 16 28  1  0
 17 29  1  0
 18 30  1  0
 19 31  1  0
M  END
> <Uni-Dock RESULT> 
ENERGY=   -4.531  LOWER_BOUND=    5.990  UPPER_BOUND=    8.934
INTER + INTRA:          -4.531
INTER:                  -4.531
INTRA:                   0.000
UNBOUND:                 0.000

$$$$

     RDKit          3D

 31 32  0  0  0  0  0  0  0  0999 V2000
   44.1080   11.6711   11.4035 S   0  0  0  0  0  0  0  0  0  0  0  0
   44.9708   10.3616   11.9576 N   0  0  0  0  0  0  0  0  0  0  0  0
   44.6666    9.0248   11.6788 C   0  0  0  0  0  0  0  0  0  0  0  0
   44.4216   11.6518    9.6584 C   0  0  0  0  0  0  0  0  0  0  0  0
   42.6983   11.4656   11.6442 O   0  0  0  0  0  0  0  0  0  0  0  0
   44.7910   12.8245   11.9558 O   0  0  0  0  0  0  0  0  0  0  0  0
   43.7486    8.6777   10.9532 O   0  0  0  0  0  0  0  0  0  0  0  0
   45.5537    8.0126   12.3186 C   0  0  0  0  0  0  0  0  0  0  0  0
   45.5244   12.3365    9.1436 C   0  0  0  0  0  0  0  0  0  0  0  0
   43.5233   11.0163    8.8003 C   0  0  0  0  0  0  0  0  0  0  0  0
   44.8976   11.6479    6.8972 C   0  0  0  0  0  0  0  0  0  0  0  0
   45.0605   11.7602    5.5124 N   0  0  0  0  0  0  0  0  0  0  0  0
   43.7584   11.0304    7.4229 C   0  0  0  0  0  0  0  0  0  0  0  0
   45.7471   12.3437    7.7635 C   0  0  0  0  0  0  0  0  0  0  0  0
   46.8531    8.3058   12.7568 C   0  0  0  0  0  0  0  0  0  0  0  0
   45.0492    6.7146   12.4874 C   0  0  0  0  0  0  0  0  0  0  0  0
   45.8265    5.7277   13.0961 C   0  0  0  0  0  0  0  0  0  0  0  0
   47.6279    7.3137   13.3646 C   0  0  0  0  0  0  0  0  0  0  0  0
   47.1138    6.0289   13.5364 C   0  0  0  0  0  0  0  0  0  0  0  0
   45.6756   10.6339   12.6313 H   0  0  0  0  0  0  0  0  0  0  0  0
   46.2000   12.8811    9.7984 H   0  0  0  0  0  0  0  0  0  0  0  0
   42.6412   10.5131    9.1923 H   0  0  0  0  0  0  0  0  0  0  0  0
   44.6175   11.0151    4.9836 H   0  0  0  0  0  0  0  0  0  0  0  0
   46.0175   11.9268    5.2185 H   0  0  0  0  0  0  0  0  0  0  0  0
   43.0393   10.5525    6.7624 H   0  0  0  0  0  0  0  0  0  0  0  0
   46.5892   12.9054    7.3670 H   0  0  0  0  0  0  0  0  0  0  0  0
   47.2997    9.2842   12.6101 H   0  0  0  0  0  0  0  0  0  0  0  0
   44.0440    6.4674   12.1485 H   0  0  0  0  0  0  0  0  0  0  0  0
   45.4268    4.7246   13.2256 H   0  0  0  0  0  0  0  0  0  0  0  0
   48.6382    7.5395   13.6988 H   0  0  0  0  0  0  0  0  0  0  0  0
   47.7196    5.2590   14.0088 H   0  0  0  0  0  0  0  0  0  0  0  0
  2  1  1  0
  3  2  1  0
  4  1  1  0
  5  1  2  0
  6  1  2  0
  7  3  2  0
  8  3  1  0
  9  4  2  0
 10  4  1  0
 11 13  1  0
 12 11  1  0
 13 10  2  0
 14  9  1  0
 15  8  2  0
 16  8  1  0
 17 16  2  0
 18 15  1  0
 19 17  1  0
 11 14  2  0
 19 18  2  0
  2 20  1  0
  9 21  1  0
 10 22  1  0
 12 23  1  0
 12 24  1  0
 13 25  1  0
 14 26  1  0
 15 27  1  0
 16 28  1  0
 17 29  1  0
 18 30  1  0
 19 31  1  0
M  END
> <Uni-Dock RESULT> 
ENERGY=   -4.332  LOWER_BOUND=    5.608  UPPER_BOUND=    8.039
INTER + INTRA:          -4.332
INTER:                  -4.332
INTRA:                   0.000
UNBOUND:                 0.000

$$$$
