
     RDKit          3D

 31 32  0  0  0  0  0  0  0  0999 V2000
   44.0206    4.4957   11.5897 S   0  0  0  0  0  0  0  0  0  0  0  0
   44.9096    4.1327   10.2241 N   0  0  0  0  0  0  0  0  0  0  0  0
   44.8872    2.8624    9.6299 C   0  0  0  0  0  0  0  0  0  0  0  0
   44.5522    6.1765   11.8585 C   0  0  0  0  0  0  0  0  0  0  0  0
   44.5238    3.7193   12.7007 O   0  0  0  0  0  0  0  0  0  0  0  0
   42.6184    4.5506   11.2422 O   0  0  0  0  0  0  0  0  0  0  0  0
   44.2225    1.9282   10.0469 O   0  0  0  0  0  0  0  0  0  0  0  0
   45.7545    2.7046    8.4290 C   0  0  0  0  0  0  0  0  0  0  0  0
   45.6501    6.4330   12.6815 C   0  0  0  0  0  0  0  0  0  0  0  0
   43.8715    7.2224   11.2327 C   0  0  0  0  0  0  0  0  0  0  0  0
   45.3750    8.8160   12.2860 C   0  0  0  0  0  0  0  0  0  0  0  0
   45.8778   10.1184   12.3782 N   0  0  0  0  0  0  0  0  0  0  0  0
   44.3036    8.5359   11.4310 C   0  0  0  0  0  0  0  0  0  0  0  0
   46.0706    7.7519   12.8702 C   0  0  0  0  0  0  0  0  0  0  0  0
   46.1943    1.4142    8.1010 C   0  0  0  0  0  0  0  0  0  0  0  0
   46.1467    3.7891    7.6309 C   0  0  0  0  0  0  0  0  0  0  0  0
   46.9794    3.5809    6.5279 C   0  0  0  0  0  0  0  0  0  0  0  0
   47.0270    1.2119    6.9991 C   0  0  0  0  0  0  0  0  0  0  0  0
   47.4211    2.2955    6.2160 C   0  0  0  0  0  0  0  0  0  0  0  0
   45.6183    4.8116    9.9757 H   0  0  0  0  0  0  0  0  0  0  0  0
   46.1859    5.6216   13.1698 H   0  0  0  0  0  0  0  0  0  0  0  0
   43.0171    7.0268   10.5882 H   0  0  0  0  0  0  0  0  0  0  0  0
   46.4161   10.2925   13.2219 H   0  0  0  0  0  0  0  0  0  0  0  0
   45.1814   10.8402   12.2176 H   0  0  0  0  0  0  0  0  0  0  0  0
   43.7899    9.3445   10.9164 H   0  0  0  0  0  0  0  0  0  0  0  0
   46.9457    7.9443   13.4864 H   0  0  0  0  0  0  0  0  0  0  0  0
   45.8911    0.5605    8.7058 H   0  0  0  0  0  0  0  0  0  0  0  0
   45.7900    4.7965    7.8232 H   0  0  0  0  0  0  0  0  0  0  0  0
   47.2768    4.4202    5.9031 H   0  0  0  0  0  0  0  0  0  0  0  0
   47.3651    0.2083    6.7514 H   0  0  0  0  0  0  0  0  0  0  0  0
   48.0665    2.1358    5.3552 H   0  0  0  0  0  0  0  0  0  0  0  0
  2  1  1  0
  3  2  1  0
  4  1  1  0
  5  1  2  0
  6  1  2  0
  7  3  2  0
  8  3  1  0
  9  4  2  0
 10  4  1  0
 11 13  1  0
 12 11  1  0
 13 10  2  0
 14  9  1  0
 15  8  2  0
 16  8  1  0
 17 16  2  0
 18 15  1  0
 19 17  1  0
 11 14  2  0
 19 18  2  0
  2 20  1  0
  9 21  1  0
 10 22  1  0
 12 23  1  0
 12 24  1  0
 13 25  1  0
 14 26  1  0
 15 27  1  0
 16 28  1  0
 17 29  1  0
 18 30  1  0
 19 31  1  0
M  END
> <Uni-Dock RESULT> 
ENERGY=   -7.324  LOWER_BOUND=    0.000  UPPER_BOUND=    0.000
INTER + INTRA:          -7.324
INTER:                  -7.324
INTRA:                   0.000
UNBOUND:                 0.000

$$$$

     RDKit          3D

 31 32  0  0  0  0  0  0  0  0999 V2000
   47.0735    7.4517   13.3450 S   0  0  0  0  0  0  0  0  0  0  0  0
   46.5945    6.4903   12.0669 N   0  0  0  0  0  0  0  0  0  0  0  0
   45.5256    5.5877   12.1665 C   0  0  0  0  0  0  0  0  0  0  0  0
   48.4802    8.2598   12.6046 C   0  0  0  0  0  0  0  0  0  0  0  0
   47.5881    6.6100   14.4018 O   0  0  0  0  0  0  0  0  0  0  0  0
   46.0752    8.4726   13.5708 O   0  0  0  0  0  0  0  0  0  0  0  0
   44.8583    5.4325   13.1759 O   0  0  0  0  0  0  0  0  0  0  0  0
   45.2446    4.7938   10.9375 C   0  0  0  0  0  0  0  0  0  0  0  0
   49.7515    7.6991   12.7385 C   0  0  0  0  0  0  0  0  0  0  0  0
   48.2955    9.4425   11.8860 C   0  0  0  0  0  0  0  0  0  0  0  0
   50.6852    9.5378   11.4509 C   0  0  0  0  0  0  0  0  0  0  0  0
   51.7607   10.0930   10.7489 N   0  0  0  0  0  0  0  0  0  0  0  0
   49.3977   10.0615   11.2917 C   0  0  0  0  0  0  0  0  0  0  0  0
   50.8442    8.3296   12.1383 C   0  0  0  0  0  0  0  0  0  0  0  0
   44.5924    3.5615   11.0860 C   0  0  0  0  0  0  0  0  0  0  0  0
   45.6119    5.2281    9.6556 C   0  0  0  0  0  0  0  0  0  0  0  0
   45.3399    4.4291    8.5417 C   0  0  0  0  0  0  0  0  0  0  0  0
   44.3244    2.7666    9.9704 C   0  0  0  0  0  0  0  0  0  0  0  0
   44.7011    3.1996    8.7002 C   0  0  0  0  0  0  0  0  0  0  0  0
   47.2443    6.4449   11.2920 H   0  0  0  0  0  0  0  0  0  0  0  0
   49.9009    6.7763   13.2952 H   0  0  0  0  0  0  0  0  0  0  0  0
   47.3061    9.8814   11.7768 H   0  0  0  0  0  0  0  0  0  0  0  0
   52.6688    9.8754   11.1488 H   0  0  0  0  0  0  0  0  0  0  0  0
   51.6588   11.0854   10.5584 H   0  0  0  0  0  0  0  0  0  0  0  0
   49.2443   10.9651   10.7065 H   0  0  0  0  0  0  0  0  0  0  0  0
   51.8275    7.8722   12.2183 H   0  0  0  0  0  0  0  0  0  0  0  0
   44.2928    3.2145   12.0741 H   0  0  0  0  0  0  0  0  0  0  0  0
   46.0758    6.1964    9.4931 H   0  0  0  0  0  0  0  0  0  0  0  0
   45.6164    4.7692    7.5461 H   0  0  0  0  0  0  0  0  0  0  0  0
   43.8192    1.8114   10.0934 H   0  0  0  0  0  0  0  0  0  0  0  0
   44.4877    2.5812    7.8313 H   0  0  0  0  0  0  0  0  0  0  0  0
  2  1  1  0
  3  2  1  0
  4  1  1  0
  5  1  2  0
  6  1  2  0
  7  3  2  0
  8  3  1  0
  9  4  2  0
 10  4  1  0
 11 13  1  0
 12 11  1  0
 13 10  2  0
 14  9  1  0
 15  8  2  0
 16  8  1  0
 17 16  2  0
 18 15  1  0
 19 17  1  0
 11 14  2  0
 19 18  2  0
  2 20  1  0
  9 21  1  0
 10 22  1  0
 12 23  1  0
 12 24  1  0
 13 25  1  0
 14 26  1  0
 15 27  1  0
 16 28  1  0
 17 29  1  0
 18 30  1  0
 19 31  1  0
M  END
> <Uni-Dock RESULT> 
ENERGY=   -4.496  LOWER_BOUND=    3.507  UPPER_BOUND=    4.468
INTER + INTRA:          -4.496
INTER:                  -4.496
INTRA:                   0.000
UNBOUND:                 0.000

$$$$

     RDKit          3D

 31 32  0  0  0  0  0  0  0  0999 V2000
   47.0629    7.4200   13.3447 S   0  0  0  0  0  0  0  0  0  0  0  0
   46.5866    6.4632   12.0622 N   0  0  0  0  0  0  0  0  0  0  0  0
   45.5206    5.5568   12.1577 C   0  0  0  0  0  0  0  0  0  0  0  0
   48.4669    8.2361   12.6078 C   0  0  0  0  0  0  0  0  0  0  0  0
   47.5805    6.5748   14.3974 O   0  0  0  0  0  0  0  0  0  0  0  0
   46.0615    8.4366   13.5757 O   0  0  0  0  0  0  0  0  0  0  0  0
   44.8540    5.3946   13.1666 O   0  0  0  0  0  0  0  0  0  0  0  0
   45.2417    4.7680   10.9250 C   0  0  0  0  0  0  0  0  0  0  0  0
   49.7400    7.6787   12.7386 C   0  0  0  0  0  0  0  0  0  0  0  0
   48.2782    9.4216   11.8950 C   0  0  0  0  0  0  0  0  0  0  0  0
   50.6675    9.5266   11.4596 C   0  0  0  0  0  0  0  0  0  0  0  0
   51.7410   10.0884   10.7600 N   0  0  0  0  0  0  0  0  0  0  0  0
   49.3783   10.0469   11.3034 C   0  0  0  0  0  0  0  0  0  0  0  0
   50.8305    8.3156   12.1412 C   0  0  0  0  0  0  0  0  0  0  0  0
   44.5935    3.5329   11.0678 C   0  0  0  0  0  0  0  0  0  0  0  0
   45.6073    5.2096    9.6451 C   0  0  0  0  0  0  0  0  0  0  0  0
   45.3374    4.4150    8.5274 C   0  0  0  0  0  0  0  0  0  0  0  0
   44.3275    2.7426    9.9484 C   0  0  0  0  0  0  0  0  0  0  0  0
   44.7025    3.1829    8.6803 C   0  0  0  0  0  0  0  0  0  0  0  0
   47.2363    6.4236   11.2868 H   0  0  0  0  0  0  0  0  0  0  0  0
   49.8925    6.7537   13.2909 H   0  0  0  0  0  0  0  0  0  0  0  0
   47.2874    9.8579   11.7882 H   0  0  0  0  0  0  0  0  0  0  0  0
   52.6500    9.8718   11.1586 H   0  0  0  0  0  0  0  0  0  0  0  0
   51.6360   11.0815   10.5743 H   0  0  0  0  0  0  0  0  0  0  0  0
   49.2219   10.9529   10.7226 H   0  0  0  0  0  0  0  0  0  0  0  0
   51.8152    7.8608   12.2187 H   0  0  0  0  0  0  0  0  0  0  0  0
   44.2952    3.1802   12.0543 H   0  0  0  0  0  0  0  0  0  0  0  0
   46.0681    6.1800    9.4872 H   0  0  0  0  0  0  0  0  0  0  0  0
   45.6126    4.7608    7.5334 H   0  0  0  0  0  0  0  0  0  0  0  0
   43.8254    1.7852   10.0669 H   0  0  0  0  0  0  0  0  0  0  0  0
   44.4908    2.5679    7.8084 H   0  0  0  0  0  0  0  0  0  0  0  0
  2  1  1  0
  3  2  1  0
  4  1  1  0
  5  1  2  0
  6  1  2  0
  7  3  2  0
  8  3  1  0
  9  4  2  0
 10  4  1  0
 11 13  1  0
 12 11  1  0
 13 10  2  0
 14  9  1  0
 15  8  2  0
 16  8  1  0
 17 16  2  0
 18 15  1  0
 19 17  1  0
 11 14  2  0
 19 18  2  0
  2 20  1  0
  9 21  1  0
 10 22  1  0
 12 23  1  0
 12 24  1  0
 13 25  1  0
 14 26  1  0
 15 27  1  0
 16 28  1  0
 17 29  1  0
 18 30  1  0
 19 31  1  0
M  END
> <Uni-Dock RESULT> 
ENERGY=   -4.491  LOWER_BOUND=    3.488  UPPER_BOUND=    4.444
INTER + INTRA:          -4.491
INTER:                  -4.491
INTRA:                   0.000
UNBOUND:                 0.000

$$$$
