
     RDKit          3D

 31 32  0  0  0  0  0  0  0  0999 V2000
   43.8060    4.5014   10.8024 S   0  0  0  0  0  0  0  0  0  0  0  0
   44.9386    4.9270   11.9432 N   0  0  0  0  0  0  0  0  0  0  0  0
   45.6359    4.0276   12.7573 C   0  0  0  0  0  0  0  0  0  0  0  0
   44.7750    3.7040    9.5498 C   0  0  0  0  0  0  0  0  0  0  0  0
   42.8713    3.5536   11.3636 O   0  0  0  0  0  0  0  0  0  0  0  0
   43.3406    5.7606   10.2545 O   0  0  0  0  0  0  0  0  0  0  0  0
   45.5095    2.8155   12.6892 O   0  0  0  0  0  0  0  0  0  0  0  0
   46.5787    4.6395   13.7355 C   0  0  0  0  0  0  0  0  0  0  0  0
   45.3218    4.4587    8.5099 C   0  0  0  0  0  0  0  0  0  0  0  0
   44.9573    2.3212    9.5900 C   0  0  0  0  0  0  0  0  0  0  0  0
   46.2237    2.4304    7.5180 C   0  0  0  0  0  0  0  0  0  0  0  0
   47.0694    1.8164    6.5875 N   0  0  0  0  0  0  0  0  0  0  0  0
   45.7058    1.6958    8.5894 C   0  0  0  0  0  0  0  0  0  0  0  0
   46.0649    3.8200    7.5131 C   0  0  0  0  0  0  0  0  0  0  0  0
   46.9218    3.8902   14.8705 C   0  0  0  0  0  0  0  0  0  0  0  0
   47.1240    5.9206   13.5682 C   0  0  0  0  0  0  0  0  0  0  0  0
   47.9903    6.4442   14.5322 C   0  0  0  0  0  0  0  0  0  0  0  0
   47.7863    4.4182   15.8310 C   0  0  0  0  0  0  0  0  0  0  0  0
   48.3174    5.6954   15.6621 C   0  0  0  0  0  0  0  0  0  0  0  0
   44.9767    5.9294   12.0807 H   0  0  0  0  0  0  0  0  0  0  0  0
   45.1842    5.5363    8.4684 H   0  0  0  0  0  0  0  0  0  0  0  0
   44.5431    1.7293   10.4045 H   0  0  0  0  0  0  0  0  0  0  0  0
   46.8922    0.8239    6.4656 H   0  0  0  0  0  0  0  0  0  0  0  0
   47.1314    2.3066    5.7006 H   0  0  0  0  0  0  0  0  0  0  0  0
   45.8778    0.6243    8.6541 H   0  0  0  0  0  0  0  0  0  0  0  0
   46.5164    4.4177    6.7253 H   0  0  0  0  0  0  0  0  0  0  0  0
   46.5126    2.8910   15.0136 H   0  0  0  0  0  0  0  0  0  0  0  0
   46.9201    6.5184   12.6853 H   0  0  0  0  0  0  0  0  0  0  0  0
   48.4189    7.4351   14.3989 H   0  0  0  0  0  0  0  0  0  0  0  0
   48.0455    3.8316   16.7093 H   0  0  0  0  0  0  0  0  0  0  0  0
   48.9932    6.1051   16.4095 H   0  0  0  0  0  0  0  0  0  0  0  0
  2  1  1  0
  3  2  1  0
  4  1  1  0
  5  1  2  0
  6  1  2  0
  7  3  2  0
  8  3  1  0
  9  4  2  0
 10  4  1  0
 11 13  1  0
 12 11  1  0
 13 10  2  0
 14  9  1  0
 15  8  2  0
 16  8  1  0
 17 16  2  0
 18 15  1  0
 19 17  1  0
 11 14  2  0
 19 18  2  0
  2 20  1  0
  9 21  1  0
 10 22  1  0
 12 23  1  0
 12 24  1  0
 13 25  1  0
 14 26  1  0
 15 27  1  0
 16 28  1  0
 17 29  1  0
 18 30  1  0
 19 31  1  0
M  END
> <Uni-Dock RESULT> 
ENERGY=   -6.078  LOWER_BOUND=    0.000  UPPER_BOUND=    0.000
INTER + INTRA:          -6.078
INTER:                  -6.078
INTRA:                   0.000
UNBOUND:                 0.000

$$$$

     RDKit          3D

 31 32  0  0  0  0  0  0  0  0999 V2000
   47.7439    4.4575   17.7660 S   0  0  0  0  0  0  0  0  0  0  0  0
   49.2925    3.8790   17.9461 N   0  0  0  0  0  0  0  0  0  0  0  0
   49.8023    2.7385   17.3158 C   0  0  0  0  0  0  0  0  0  0  0  0
   47.7252    5.0462   16.0936 C   0  0  0  0  0  0  0  0  0  0  0  0
   46.7938    3.3785   17.9068 O   0  0  0  0  0  0  0  0  0  0  0  0
   47.6780    5.6168   18.6344 O   0  0  0  0  0  0  0  0  0  0  0  0
   49.1643    2.0587   16.5280 O   0  0  0  0  0  0  0  0  0  0  0  0
   51.2104    2.3883   17.6550 C   0  0  0  0  0  0  0  0  0  0  0  0
   48.0913    6.3653   15.8179 C   0  0  0  0  0  0  0  0  0  0  0  0
   47.3112    4.1989   15.0652 C   0  0  0  0  0  0  0  0  0  0  0  0
   47.6019    6.0045   13.4638 C   0  0  0  0  0  0  0  0  0  0  0  0
   47.6825    6.4375   12.1357 N   0  0  0  0  0  0  0  0  0  0  0  0
   47.2801    4.6743   13.7515 C   0  0  0  0  0  0  0  0  0  0  0  0
   48.0517    6.8294   14.5001 C   0  0  0  0  0  0  0  0  0  0  0  0
   51.6150    1.0573   17.4760 C   0  0  0  0  0  0  0  0  0  0  0  0
   52.1313    3.3259   18.1442 C   0  0  0  0  0  0  0  0  0  0  0  0
   53.4340    2.9289   18.4597 C   0  0  0  0  0  0  0  0  0  0  0  0
   52.9167    0.6657   17.7938 C   0  0  0  0  0  0  0  0  0  0  0  0
   53.8238    1.6012   18.2877 C   0  0  0  0  0  0  0  0  0  0  0  0
   49.7967    4.3718   18.6728 H   0  0  0  0  0  0  0  0  0  0  0  0
   48.4136    7.0340   16.6122 H   0  0  0  0  0  0  0  0  0  0  0  0
   47.0358    3.1663   15.2725 H   0  0  0  0  0  0  0  0  0  0  0  0
   47.0740    5.9286   11.5015 H   0  0  0  0  0  0  0  0  0  0  0  0
   47.5978    7.4430   12.0240 H   0  0  0  0  0  0  0  0  0  0  0  0
   46.9975    3.9931   12.9528 H   0  0  0  0  0  0  0  0  0  0  0  0
   48.3705    7.8467   14.2878 H   0  0  0  0  0  0  0  0  0  0  0  0
   50.9148    0.3172   17.0912 H   0  0  0  0  0  0  0  0  0  0  0  0
   51.8745    4.3744   18.2581 H   0  0  0  0  0  0  0  0  0  0  0  0
   54.1505    3.6577   18.8325 H   0  0  0  0  0  0  0  0  0  0  0  0
   53.2219   -0.3687   17.6543 H   0  0  0  0  0  0  0  0  0  0  0  0
   54.8387    1.2960   18.5325 H   0  0  0  0  0  0  0  0  0  0  0  0
  2  1  1  0
  3  2  1  0
  4  1  1  0
  5  1  2  0
  6  1  2  0
  7  3  2  0
  8  3  1  0
  9  4  2  0
 10  4  1  0
 11 13  1  0
 12 11  1  0
 13 10  2  0
 14  9  1  0
 15  8  2  0
 16  8  1  0
 17 16  2  0
 18 15  1  0
 19 17  1  0
 11 14  2  0
 19 18  2  0
  2 20  1  0
  9 21  1  0
 10 22  1  0
 12 23  1  0
 12 24  1  0
 13 25  1  0
 14 26  1  0
 15 27  1  0
 16 28  1  0
 17 29  1  0
 18 30  1  0
 19 31  1  0
M  END
> <Uni-Dock RESULT> 
ENERGY=   -4.447  LOWER_BOUND=    5.152  UPPER_BOUND=    7.191
INTER + INTRA:          -4.447
INTER:                  -4.447
INTRA:                   0.000
UNBOUND:                 0.000

$$$$

     RDKit          3D

 31 32  0  0  0  0  0  0  0  0999 V2000
   44.1288   11.6716   11.4128 S   0  0  0  0  0  0  0  0  0  0  0  0
   44.9732   10.3440   11.9513 N   0  0  0  0  0  0  0  0  0  0  0  0
   44.6393    9.0135   11.6753 C   0  0  0  0  0  0  0  0  0  0  0  0
   44.4482   11.6727    9.6688 C   0  0  0  0  0  0  0  0  0  0  0  0
   42.7149   11.4845   11.6428 O   0  0  0  0  0  0  0  0  0  0  0  0
   44.8246   12.8093   11.9818 O   0  0  0  0  0  0  0  0  0  0  0  0
   43.6992    8.6843   10.9700 O   0  0  0  0  0  0  0  0  0  0  0  0
   45.5215    7.9848   12.2947 C   0  0  0  0  0  0  0  0  0  0  0  0
   45.5559   12.3588    9.1665 C   0  0  0  0  0  0  0  0  0  0  0  0
   43.5717   11.0173    8.8032 C   0  0  0  0  0  0  0  0  0  0  0  0
   44.8980   11.7561    6.9047 C   0  0  0  0  0  0  0  0  0  0  0  0
   45.2042   11.6731    5.5419 N   0  0  0  0  0  0  0  0  0  0  0  0
   43.8180   11.0379    7.4278 C   0  0  0  0  0  0  0  0  0  0  0  0
   45.7884   12.3750    7.7883 C   0  0  0  0  0  0  0  0  0  0  0  0
   44.9959    6.6975   12.4796 C   0  0  0  0  0  0  0  0  0  0  0  0
   46.8373    8.2534   12.6985 C   0  0  0  0  0  0  0  0  0  0  0  0
   47.6075    7.2476   13.2893 C   0  0  0  0  0  0  0  0  0  0  0  0
   45.7687    5.6969   13.0713 C   0  0  0  0  0  0  0  0  0  0  0  0
   47.0726    5.9738   13.4779 C   0  0  0  0  0  0  0  0  0  0  0  0
   45.6906   10.5991   12.6187 H   0  0  0  0  0  0  0  0  0  0  0  0
   46.2438   12.8741    9.8321 H   0  0  0  0  0  0  0  0  0  0  0  0
   42.7130   10.4711    9.1900 H   0  0  0  0  0  0  0  0  0  0  0  0
   44.3977   11.4945    4.9512 H   0  0  0  0  0  0  0  0  0  0  0  0
   45.7679   12.4444    5.1983 H   0  0  0  0  0  0  0  0  0  0  0  0
   43.1530   10.4879    6.7667 H   0  0  0  0  0  0  0  0  0  0  0  0
   46.6710   12.8820    7.4068 H   0  0  0  0  0  0  0  0  0  0  0  0
   43.9780    6.4695   12.1663 H   0  0  0  0  0  0  0  0  0  0  0  0
   47.2990    9.2223   12.5362 H   0  0  0  0  0  0  0  0  0  0  0  0
   48.6306    7.4540   13.5960 H   0  0  0  0  0  0  0  0  0  0  0  0
   45.3530    4.7021   13.2132 H   0  0  0  0  0  0  0  0  0  0  0  0
   47.6751    5.1929   13.9364 H   0  0  0  0  0  0  0  0  0  0  0  0
  2  1  1  0
  3  2  1  0
  4  1  1  0
  5  1  2  0
  6  1  2  0
  7  3  2  0
  8  3  1  0
  9  4  2  0
 10  4  1  0
 11 13  1  0
 12 11  1  0
 13 10  2  0
 14  9  1  0
 15  8  2  0
 16  8  1  0
 17 16  2  0
 18 15  1  0
 19 17  1  0
 11 14  2  0
 19 18  2  0
  2 20  1  0
  9 21  1  0
 10 22  1  0
 12 23  1  0
 12 24  1  0
 13 25  1  0
 14 26  1  0
 15 27  1  0
 16 28  1  0
 17 29  1  0
 18 30  1  0
 19 31  1  0
M  END
> <Uni-Dock RESULT> 
ENERGY=   -4.316  LOWER_BOUND=    5.808  UPPER_BOUND=    6.836
INTER + INTRA:          -4.316
INTER:                  -4.316
INTRA:                   0.000
UNBOUND:                 0.000

$$$$

     RDKit          3D

 31 32  0  0  0  0  0  0  0  0999 V2000
   47.7621    4.2012   17.6390 S   0  0  0  0  0  0  0  0  0  0  0  0
   47.7526    5.0603   16.2152 N   0  0  0  0  0  0  0  0  0  0  0  0
   48.4843    6.2291   15.9774 C   0  0  0  0  0  0  0  0  0  0  0  0
   49.3935    3.5078   17.6809 C   0  0  0  0  0  0  0  0  0  0  0  0
   47.5918    5.0982   18.7585 O   0  0  0  0  0  0  0  0  0  0  0  0
   46.8328    3.1101   17.4197 O   0  0  0  0  0  0  0  0  0  0  0  0
   49.2452    6.7281   16.7908 O   0  0  0  0  0  0  0  0  0  0  0  0
   48.2921    6.8494   14.6363 C   0  0  0  0  0  0  0  0  0  0  0  0
   49.6328    2.2608   17.0995 C   0  0  0  0  0  0  0  0  0  0  0  0
   50.4226    4.1955   18.3251 C   0  0  0  0  0  0  0  0  0  0  0  0
   51.9485    2.3685   17.8326 C   0  0  0  0  0  0  0  0  0  0  0  0
   53.2545    1.8689   17.7787 N   0  0  0  0  0  0  0  0  0  0  0  0
   51.7019    3.6352   18.3716 C   0  0  0  0  0  0  0  0  0  0  0  0
   50.9161    1.7098   17.1569 C   0  0  0  0  0  0  0  0  0  0  0  0
   48.5752    8.2165   14.5009 C   0  0  0  0  0  0  0  0  0  0  0  0
   47.8404    6.1283   13.5216 C   0  0  0  0  0  0  0  0  0  0  0  0
   47.6648    6.7740   12.2943 C   0  0  0  0  0  0  0  0  0  0  0  0
   48.3969    8.8569   13.2734 C   0  0  0  0  0  0  0  0  0  0  0  0
   47.9394    8.1356   12.1724 C   0  0  0  0  0  0  0  0  0  0  0  0
   47.0501    4.7164   15.5724 H   0  0  0  0  0  0  0  0  0  0  0  0
   48.8376    1.7161   16.5968 H   0  0  0  0  0  0  0  0  0  0  0  0
   50.2446    5.1731   18.7699 H   0  0  0  0  0  0  0  0  0  0  0  0
   53.8565    2.2160   18.5193 H   0  0  0  0  0  0  0  0  0  0  0  0
   53.3061    0.8595   17.6840 H   0  0  0  0  0  0  0  0  0  0  0  0
   52.5058    4.1990   18.8380 H   0  0  0  0  0  0  0  0  0  0  0  0
   51.1035    0.7547   16.6728 H   0  0  0  0  0  0  0  0  0  0  0  0
   48.9329    8.7907   15.3546 H   0  0  0  0  0  0  0  0  0  0  0  0
   47.6500    5.0607   13.5696 H   0  0  0  0  0  0  0  0  0  0  0  0
   47.3212    6.2131   11.4278 H   0  0  0  0  0  0  0  0  0  0  0  0
   48.6165    9.9177   13.1774 H   0  0  0  0  0  0  0  0  0  0  0  0
   47.8033    8.6346   11.2155 H   0  0  0  0  0  0  0  0  0  0  0  0
  2  1  1  0
  3  2  1  0
  4  1  1  0
  5  1  2  0
  6  1  2  0
  7  3  2  0
  8  3  1  0
  9  4  2  0
 10  4  1  0
 11 13  1  0
 12 11  1  0
 13 10  2  0
 14  9  1  0
 15  8  2  0
 16  8  1  0
 17 16  2  0
 18 15  1  0
 19 17  1  0
 11 14  2  0
 19 18  2  0
  2 20  1  0
  9 21  1  0
 10 22  1  0
 12 23  1  0
 12 24  1  0
 13 25  1  0
 14 26  1  0
 15 27  1  0
 16 28  1  0
 17 29  1  0
 18 30  1  0
 19 31  1  0
M  END
> <Uni-Dock RESULT> 
ENERGY=   -4.218  LOWER_BOUND=    5.488  UPPER_BOUND=    8.086
INTER + INTRA:          -4.218
INTER:                  -4.218
INTRA:                   0.000
UNBOUND:                 0.000

$$$$

     RDKit          3D

 31 32  0  0  0  0  0  0  0  0999 V2000
   50.0254    6.8452   17.0039 S   0  0  0  0  0  0  0  0  0  0  0  0
   49.1422    7.9281   17.9054 N   0  0  0  0  0  0  0  0  0  0  0  0
   48.5410    9.0881   17.4047 C   0  0  0  0  0  0  0  0  0  0  0  0
   48.8002    6.0862   15.9712 C   0  0  0  0  0  0  0  0  0  0  0  0
   50.9793    7.5507   16.1796 O   0  0  0  0  0  0  0  0  0  0  0  0
   50.4697    5.8459   17.9558 O   0  0  0  0  0  0  0  0  0  0  0  0
   48.5726    9.4128   16.2285 O   0  0  0  0  0  0  0  0  0  0  0  0
   47.8279    9.9297   18.4065 C   0  0  0  0  0  0  0  0  0  0  0  0
   48.1302    4.9438   16.4141 C   0  0  0  0  0  0  0  0  0  0  0  0
   48.5364    6.6135   14.7065 C   0  0  0  0  0  0  0  0  0  0  0  0
   46.9350    4.8305   14.2998 C   0  0  0  0  0  0  0  0  0  0  0  0
   45.8998    4.2919   13.5277 N   0  0  0  0  0  0  0  0  0  0  0  0
   47.5835    5.9995   13.8894 C   0  0  0  0  0  0  0  0  0  0  0  0
   47.1824    4.3371   15.5851 C   0  0  0  0  0  0  0  0  0  0  0  0
   47.6410   11.2871   18.1066 C   0  0  0  0  0  0  0  0  0  0  0  0
   47.3480    9.4231   19.6228 C   0  0  0  0  0  0  0  0  0  0  0  0
   46.7017   10.2701   20.5278 C   0  0  0  0  0  0  0  0  0  0  0  0
   46.9961   12.1290   19.0143 C   0  0  0  0  0  0  0  0  0  0  0  0
   46.5297   11.6202   20.2248 C   0  0  0  0  0  0  0  0  0  0  0  0
   49.1956    7.7255   18.8960 H   0  0  0  0  0  0  0  0  0  0  0  0
   48.3296    4.5240   17.3969 H   0  0  0  0  0  0  0  0  0  0  0  0
   49.0473    7.5105   14.3606 H   0  0  0  0  0  0  0  0  0  0  0  0
   45.9864    4.4856   12.5345 H   0  0  0  0  0  0  0  0  0  0  0  0
   45.7153    3.3108   13.7123 H   0  0  0  0  0  0  0  0  0  0  0  0
   47.3548    6.4438   12.9239 H   0  0  0  0  0  0  0  0  0  0  0  0
   46.6399    3.4684   15.9494 H   0  0  0  0  0  0  0  0  0  0  0  0
   48.0018   11.6962   17.1638 H   0  0  0  0  0  0  0  0  0  0  0  0
   47.4325    8.3713   19.8777 H   0  0  0  0  0  0  0  0  0  0  0  0
   46.3231    9.8756   21.4683 H   0  0  0  0  0  0  0  0  0  0  0  0
   46.8573   13.1808   18.7752 H   0  0  0  0  0  0  0  0  0  0  0  0
   46.0248   12.2762   20.9304 H   0  0  0  0  0  0  0  0  0  0  0  0
  2  1  1  0
  3  2  1  0
  4  1  1  0
  5  1  2  0
  6  1  2  0
  7  3  2  0
  8  3  1  0
  9  4  2  0
 10  4  1  0
 11 13  1  0
 12 11  1  0
 13 10  2  0
 14  9  1  0
 15  8  2  0
 16  8  1  0
 17 16  2  0
 18 15  1  0
 19 17  1  0
 11 14  2  0
 19 18  2  0
  2 20  1  0
  9 21  1  0
 10 22  1  0
 12 23  1  0
 12 24  1  0
 13 25  1  0
 14 26  1  0
 15 27  1  0
 16 28  1  0
 17 29  1  0
 18 30  1  0
 19 31  1  0
M  END
> <Uni-Dock RESULT> 
ENERGY=   -4.145  LOWER_BOUND=    5.709  UPPER_BOUND=    8.093
INTER + INTRA:          -4.145
INTER:                  -4.145
INTRA:                   0.000
UNBOUND:                 0.000

$$$$

     RDKit          3D

 31 32  0  0  0  0  0  0  0  0999 V2000
   48.6123    7.6736   12.9281 S   0  0  0  0  0  0  0  0  0  0  0  0
   47.1415    6.9522   12.6418 N   0  0  0  0  0  0  0  0  0  0  0  0
   46.7943    5.6539   13.0313 C   0  0  0  0  0  0  0  0  0  0  0  0
   48.6083    7.9143   14.6848 C   0  0  0  0  0  0  0  0  0  0  0  0
   49.6828    6.7728   12.5685 O   0  0  0  0  0  0  0  0  0  0  0  0
   48.5099    8.9816   12.3110 O   0  0  0  0  0  0  0  0  0  0  0  0
   47.5338    4.9166   13.6631 O   0  0  0  0  0  0  0  0  0  0  0  0
   45.4303    5.2039   12.6347 C   0  0  0  0  0  0  0  0  0  0  0  0
   48.0916    9.0950   15.2224 C   0  0  0  0  0  0  0  0  0  0  0  0
   49.1533    6.9379   15.5194 C   0  0  0  0  0  0  0  0  0  0  0  0
   48.6911    8.3364   17.4532 C   0  0  0  0  0  0  0  0  0  0  0  0
   48.5975    8.4820   18.8417 N   0  0  0  0  0  0  0  0  0  0  0  0
   49.1648    7.1417   16.9018 C   0  0  0  0  0  0  0  0  0  0  0  0
   48.1131    9.2881   16.6066 C   0  0  0  0  0  0  0  0  0  0  0  0
   45.1972    3.8238   12.5434 C   0  0  0  0  0  0  0  0  0  0  0  0
   44.3873    6.0966   12.3486 C   0  0  0  0  0  0  0  0  0  0  0  0
   43.1343    5.6096   11.9653 C   0  0  0  0  0  0  0  0  0  0  0  0
   43.9445    3.3426   12.1588 C   0  0  0  0  0  0  0  0  0  0  0  0
   42.9154    4.2360   11.8676 C   0  0  0  0  0  0  0  0  0  0  0  0
   46.5595    7.5126   12.0316 H   0  0  0  0  0  0  0  0  0  0  0  0
   47.6664    9.8627   14.5808 H   0  0  0  0  0  0  0  0  0  0  0  0
   49.5469    6.0105   15.1069 H   0  0  0  0  0  0  0  0  0  0  0  0
   49.2822    7.9376   19.3576 H   0  0  0  0  0  0  0  0  0  0  0  0
   48.5616    9.4475   19.1535 H   0  0  0  0  0  0  0  0  0  0  0  0
   49.5523    6.3559   17.5455 H   0  0  0  0  0  0  0  0  0  0  0  0
   47.6785   10.1941   17.0210 H   0  0  0  0  0  0  0  0  0  0  0  0
   45.9940    3.1160   12.7680 H   0  0  0  0  0  0  0  0  0  0  0  0
   44.5102    7.1706   12.4474 H   0  0  0  0  0  0  0  0  0  0  0  0
   42.3232    6.3019   11.7502 H   0  0  0  0  0  0  0  0  0  0  0  0
   43.7727    2.2711   12.0882 H   0  0  0  0  0  0  0  0  0  0  0  0
   41.9388    3.8603   11.5708 H   0  0  0  0  0  0  0  0  0  0  0  0
  2  1  1  0
  3  2  1  0
  4  1  1  0
  5  1  2  0
  6  1  2  0
  7  3  2  0
  8  3  1  0
  9  4  2  0
 10  4  1  0
 11 13  1  0
 12 11  1  0
 13 10  2  0
 14  9  1  0
 15  8  2  0
 16  8  1  0
 17 16  2  0
 18 15  1  0
 19 17  1  0
 11 14  2  0
 19 18  2  0
  2 20  1  0
  9 21  1  0
 10 22  1  0
 12 23  1  0
 12 24  1  0
 13 25  1  0
 14 26  1  0
 15 27  1  0
 16 28  1  0
 17 29  1  0
 18 30  1  0
 19 31  1  0
M  END
> <Uni-Dock RESULT> 
ENERGY=   -4.031  LOWER_BOUND=    4.009  UPPER_BOUND=    7.461
INTER + INTRA:          -4.031
INTER:                  -4.031
INTRA:                   0.000
UNBOUND:                 0.000

$$$$

     RDKit          3D

 31 32  0  0  0  0  0  0  0  0999 V2000
   45.8105   12.5733   11.1436 S   0  0  0  0  0  0  0  0  0  0  0  0
   46.7427   11.2786   11.6128 N   0  0  0  0  0  0  0  0  0  0  0  0
   46.2452   10.0318   12.0076 C   0  0  0  0  0  0  0  0  0  0  0  0
   45.1437   12.0473    9.5872 C   0  0  0  0  0  0  0  0  0  0  0  0
   44.7335   12.7738   12.0853 O   0  0  0  0  0  0  0  0  0  0  0  0
   46.7602   13.6347   10.8719 O   0  0  0  0  0  0  0  0  0  0  0  0
   45.0580    9.7486   12.0148 O   0  0  0  0  0  0  0  0  0  0  0  0
   47.2679    9.0303   12.4217 C   0  0  0  0  0  0  0  0  0  0  0  0
   45.8423   12.3126    8.4075 C   0  0  0  0  0  0  0  0  0  0  0  0
   43.9074   11.4017    9.5455 C   0  0  0  0  0  0  0  0  0  0  0  0
   44.0435   11.3028    7.1204 C   0  0  0  0  0  0  0  0  0  0  0  0
   43.5659   10.8004    5.9050 N   0  0  0  0  0  0  0  0  0  0  0  0
   43.3778   11.0066    8.3141 C   0  0  0  0  0  0  0  0  0  0  0  0
   45.2993   11.9158    7.1821 C   0  0  0  0  0  0  0  0  0  0  0  0
   46.8584    7.9874   13.2655 C   0  0  0  0  0  0  0  0  0  0  0  0
   48.6066    9.0939   12.0088 C   0  0  0  0  0  0  0  0  0  0  0  0
   49.5208    8.1316   12.4471 C   0  0  0  0  0  0  0  0  0  0  0  0
   47.7757    7.0297   13.7014 C   0  0  0  0  0  0  0  0  0  0  0  0
   49.1062    7.1044   13.2940 C   0  0  0  0  0  0  0  0  0  0  0  0
   47.7181   11.5321   11.7097 H   0  0  0  0  0  0  0  0  0  0  0  0
   46.8053   12.8166    8.4289 H   0  0  0  0  0  0  0  0  0  0  0  0
   43.3638   11.1819   10.4627 H   0  0  0  0  0  0  0  0  0  0  0  0
   42.5604   10.6586    5.8874 H   0  0  0  0  0  0  0  0  0  0  0  0
   43.8957   11.3088    5.0906 H   0  0  0  0  0  0  0  0  0  0  0  0
   42.4348   10.4660    8.2969 H   0  0  0  0  0  0  0  0  0  0  0  0
   45.8640   12.0948    6.2707 H   0  0  0  0  0  0  0  0  0  0  0  0
   45.8213    7.9190   13.5910 H   0  0  0  0  0  0  0  0  0  0  0  0
   48.9580    9.8581   11.3227 H   0  0  0  0  0  0  0  0  0  0  0  0
   50.5577    8.1768   12.1211 H   0  0  0  0  0  0  0  0  0  0  0  0
   47.4507    6.2255   14.3575 H   0  0  0  0  0  0  0  0  0  0  0  0
   49.8198    6.3562   13.6318 H   0  0  0  0  0  0  0  0  0  0  0  0
  2  1  1  0
  3  2  1  0
  4  1  1  0
  5  1  2  0
  6  1  2  0
  7  3  2  0
  8  3  1  0
  9  4  2  0
 10  4  1  0
 11 13  1  0
 12 11  1  0
 13 10  2  0
 14  9  1  0
 15  8  2  0
 16  8  1  0
 17 16  2  0
 18 15  1  0
 19 17  1  0
 11 14  2  0
 19 18  2  0
  2 20  1  0
  9 21  1  0
 10 22  1  0
 12 23  1  0
 12 24  1  0
 13 25  1  0
 14 26  1  0
 15 27  1  0
 16 28  1  0
 17 29  1  0
 18 30  1  0
 19 31  1  0
M  END
> <Uni-Dock RESULT> 
ENERGY=   -3.833  LOWER_BOUND=    6.175  UPPER_BOUND=    7.245
INTER + INTRA:          -3.833
INTER:                  -3.833
INTRA:                   0.000
UNBOUND:                 0.000

$$$$

     RDKit          3D

 31 32  0  0  0  0  0  0  0  0999 V2000
   47.7841    5.8671   18.3766 S   0  0  0  0  0  0  0  0  0  0  0  0
   47.7209    7.5288   18.3781 N   0  0  0  0  0  0  0  0  0  0  0  0
   47.4377    8.3209   19.4963 C   0  0  0  0  0  0  0  0  0  0  0  0
   49.2400    5.5179   19.3264 C   0  0  0  0  0  0  0  0  0  0  0  0
   46.6274    5.3280   19.0536 O   0  0  0  0  0  0  0  0  0  0  0  0
   48.0675    5.5082   17.0007 O   0  0  0  0  0  0  0  0  0  0  0  0
   47.2395    7.8691   20.6127 O   0  0  0  0  0  0  0  0  0  0  0  0
   47.3993    9.7905   19.2535 C   0  0  0  0  0  0  0  0  0  0  0  0
   50.4779    5.4176   18.6877 C   0  0  0  0  0  0  0  0  0  0  0  0
   49.1368    5.3105   20.7024 C   0  0  0  0  0  0  0  0  0  0  0  0
   51.5248    4.8698   20.8127 C   0  0  0  0  0  0  0  0  0  0  0  0
   52.6849    4.6936   21.5750 N   0  0  0  0  0  0  0  0  0  0  0  0
   50.2849    5.0166   21.4427 C   0  0  0  0  0  0  0  0  0  0  0  0
   51.6178    5.1189   19.4394 C   0  0  0  0  0  0  0  0  0  0  0  0
   46.6671   10.5830   20.1497 C   0  0  0  0  0  0  0  0  0  0  0  0
   48.0548   10.4013   18.1747 C   0  0  0  0  0  0  0  0  0  0  0  0
   47.9653   11.7844   17.9932 C   0  0  0  0  0  0  0  0  0  0  0  0
   46.5797   11.9637   19.9633 C   0  0  0  0  0  0  0  0  0  0  0  0
   47.2266   12.5624   18.8839 C   0  0  0  0  0  0  0  0  0  0  0  0
   47.7810    7.9090   17.4417 H   0  0  0  0  0  0  0  0  0  0  0  0
   50.5688    5.5757   17.6160 H   0  0  0  0  0  0  0  0  0  0  0  0
   48.1764    5.3988   21.2074 H   0  0  0  0  0  0  0  0  0  0  0  0
   52.5244    4.2281   22.4632 H   0  0  0  0  0  0  0  0  0  0  0  0
   53.4576    4.2824   21.0607 H   0  0  0  0  0  0  0  0  0  0  0  0
   50.1997    4.8996   22.5201 H   0  0  0  0  0  0  0  0  0  0  0  0
   52.5832    5.0760   18.9416 H   0  0  0  0  0  0  0  0  0  0  0  0
   46.1569   10.1263   20.9966 H   0  0  0  0  0  0  0  0  0  0  0  0
   48.6672    9.8332   17.4814 H   0  0  0  0  0  0  0  0  0  0  0  0
   48.4796   12.2591   17.1604 H   0  0  0  0  0  0  0  0  0  0  0  0
   46.0080   12.5708   20.6613 H   0  0  0  0  0  0  0  0  0  0  0  0
   47.1604   13.6386   18.7409 H   0  0  0  0  0  0  0  0  0  0  0  0
  2  1  1  0
  3  2  1  0
  4  1  1  0
  5  1  2  0
  6  1  2  0
  7  3  2  0
  8  3  1  0
  9  4  2  0
 10  4  1  0
 11 13  1  0
 12 11  1  0
 13 10  2  0
 14  9  1  0
 15  8  2  0
 16  8  1  0
 17 16  2  0
 18 15  1  0
 19 17  1  0
 11 14  2  0
 19 18  2  0
  2 20  1  0
  9 21  1  0
 10 22  1  0
 12 23  1  0
 12 24  1  0
 13 25  1  0
 14 26  1  0
 15 27  1  0
 16 28  1  0
 17 29  1  0
 18 30  1  0
 19 31  1  0
M  END
> <Uni-Dock RESULT> 
ENERGY=   -3.716  LOWER_BOUND=    8.864  UPPER_BOUND=   10.331
INTER + INTRA:          -3.716
INTER:                  -3.716
INTRA:                   0.000
UNBOUND:                 0.000

$$$$

     RDKit          3D

 31 32  0  0  0  0  0  0  0  0999 V2000
   44.3910   12.2114   11.2352 S   0  0  0  0  0  0  0  0  0  0  0  0
   44.2731   11.9964    9.5904 N   0  0  0  0  0  0  0  0  0  0  0  0
   45.3329   12.1235    8.6857 C   0  0  0  0  0  0  0  0  0  0  0  0
   45.3551   10.8175   11.7561 C   0  0  0  0  0  0  0  0  0  0  0  0
   45.1117   13.4296   11.5238 O   0  0  0  0  0  0  0  0  0  0  0  0
   43.0430   12.0162   11.7321 O   0  0  0  0  0  0  0  0  0  0  0  0
   46.4801   12.3745    9.0185 O   0  0  0  0  0  0  0  0  0  0  0  0
   44.9851   11.9204    7.2511 C   0  0  0  0  0  0  0  0  0  0  0  0
   44.7182    9.6252   12.1071 C   0  0  0  0  0  0  0  0  0  0  0  0
   46.7430   10.9294   11.8464 C   0  0  0  0  0  0  0  0  0  0  0  0
   46.8710    8.6468   12.6724 C   0  0  0  0  0  0  0  0  0  0  0  0
   47.6373    7.5191   12.9868 N   0  0  0  0  0  0  0  0  0  0  0  0
   47.4960    9.8335   12.2760 C   0  0  0  0  0  0  0  0  0  0  0  0
   45.4829    8.5380   12.5393 C   0  0  0  0  0  0  0  0  0  0  0  0
   45.8260   12.4942    6.2862 C   0  0  0  0  0  0  0  0  0  0  0  0
   43.8613   11.1915    6.8361 C   0  0  0  0  0  0  0  0  0  0  0  0
   43.5812   11.0522    5.4737 C   0  0  0  0  0  0  0  0  0  0  0  0
   45.5411   12.3532    4.9269 C   0  0  0  0  0  0  0  0  0  0  0  0
   44.4177   11.6348    4.5223 C   0  0  0  0  0  0  0  0  0  0  0  0
   43.3114   11.8903    9.2923 H   0  0  0  0  0  0  0  0  0  0  0  0
   43.6373    9.5283   12.0420 H   0  0  0  0  0  0  0  0  0  0  0  0
   47.2458   11.8525   11.5630 H   0  0  0  0  0  0  0  0  0  0  0  0
   48.5577    7.7392   13.3554 H   0  0  0  0  0  0  0  0  0  0  0  0
   47.1496    6.8351   13.5568 H   0  0  0  0  0  0  0  0  0  0  0  0
   48.5795    9.9179   12.3012 H   0  0  0  0  0  0  0  0  0  0  0  0
   44.9839    7.6023   12.7783 H   0  0  0  0  0  0  0  0  0  0  0  0
   46.7066   13.0583    6.5904 H   0  0  0  0  0  0  0  0  0  0  0  0
   43.2072   10.6949    7.5460 H   0  0  0  0  0  0  0  0  0  0  0  0
   42.7133   10.4807    5.1515 H   0  0  0  0  0  0  0  0  0  0  0  0
   46.1969   12.8032    4.1852 H   0  0  0  0  0  0  0  0  0  0  0  0
   44.1979   11.5230    3.4629 H   0  0  0  0  0  0  0  0  0  0  0  0
  2  1  1  0
  3  2  1  0
  4  1  1  0
  5  1  2  0
  6  1  2  0
  7  3  2  0
  8  3  1  0
  9  4  2  0
 10  4  1  0
 11 13  1  0
 12 11  1  0
 13 10  2  0
 14  9  1  0
 15  8  2  0
 16  8  1  0
 17 16  2  0
 18 15  1  0
 19 17  1  0
 11 14  2  0
 19 18  2  0
  2 20  1  0
  9 21  1  0
 10 22  1  0
 12 23  1  0
 12 24  1  0
 13 25  1  0
 14 26  1  0
 15 27  1  0
 16 28  1  0
 17 29  1  0
 18 30  1  0
 19 31  1  0
M  END
> <Uni-Dock RESULT> 
ENERGY=   -3.622  LOWER_BOUND=    6.659  UPPER_BOUND=    9.489
INTER + INTRA:          -3.622
INTER:                  -3.622
INTRA:                   0.000
UNBOUND:                 0.000

$$$$
