
     RDKit          3D

 31 32  0  0  0  0  0  0  0  0999 V2000
   43.7470    4.7132   10.8243 S   0  0  0  0  0  0  0  0  0  0  0  0
   44.6395    4.2317    9.5064 N   0  0  0  0  0  0  0  0  0  0  0  0
   45.3806    3.0473    9.4275 C   0  0  0  0  0  0  0  0  0  0  0  0
   44.9864    5.0931   12.0340 C   0  0  0  0  0  0  0  0  0  0  0  0
   42.9332    3.6173   11.2972 O   0  0  0  0  0  0  0  0  0  0  0  0
   43.1364    5.9650   10.4211 O   0  0  0  0  0  0  0  0  0  0  0  0
   45.4795    2.2489   10.3453 O   0  0  0  0  0  0  0  0  0  0  0  0
   46.0745    2.8052    8.1314 C   0  0  0  0  0  0  0  0  0  0  0  0
   45.4038    4.1095   12.9311 C   0  0  0  0  0  0  0  0  0  0  0  0
   45.5136    6.3844   12.1056 C   0  0  0  0  0  0  0  0  0  0  0  0
   46.8732    5.7187   14.0082 C   0  0  0  0  0  0  0  0  0  0  0  0
   47.9207    5.9906   14.8952 N   0  0  0  0  0  0  0  0  0  0  0  0
   46.4733    6.6827   13.0770 C   0  0  0  0  0  0  0  0  0  0  0  0
   46.3669    4.4200   13.8947 C   0  0  0  0  0  0  0  0  0  0  0  0
   46.4041    1.4821    7.8026 C   0  0  0  0  0  0  0  0  0  0  0  0
   46.4012    3.8360    7.2384 C   0  0  0  0  0  0  0  0  0  0  0  0
   47.0378    3.5398    6.0297 C   0  0  0  0  0  0  0  0  0  0  0  0
   47.0387    1.1915    6.5937 C   0  0  0  0  0  0  0  0  0  0  0  0
   47.3522    2.2200    5.7075 C   0  0  0  0  0  0  0  0  0  0  0  0
   44.4829    4.8314    8.7059 H   0  0  0  0  0  0  0  0  0  0  0  0
   45.0050    3.0982   12.8725 H   0  0  0  0  0  0  0  0  0  0  0  0
   45.1938    7.1585   11.4125 H   0  0  0  0  0  0  0  0  0  0  0  0
   47.9379    5.3814   15.7077 H   0  0  0  0  0  0  0  0  0  0  0  0
   48.0025    6.9702   15.1487 H   0  0  0  0  0  0  0  0  0  0  0  0
   46.9044    7.6802   13.1055 H   0  0  0  0  0  0  0  0  0  0  0  0
   46.7164    3.6347   14.5604 H   0  0  0  0  0  0  0  0  0  0  0  0
   46.1635    0.6697    8.4871 H   0  0  0  0  0  0  0  0  0  0  0  0
   46.2037    4.8778    7.4703 H   0  0  0  0  0  0  0  0  0  0  0  0
   47.2976    4.3401    5.3402 H   0  0  0  0  0  0  0  0  0  0  0  0
   47.2887    0.1626    6.3454 H   0  0  0  0  0  0  0  0  0  0  0  0
   47.8493    1.9931    4.7670 H   0  0  0  0  0  0  0  0  0  0  0  0
  2  1  1  0
  3  2  1  0
  4  1  1  0
  5  1  2  0
  6  1  2  0
  7  3  2  0
  8  3  1  0
  9  4  2  0
 10  4  1  0
 11 13  1  0
 12 11  1  0
 13 10  2  0
 14  9  1  0
 15  8  2  0
 16  8  1  0
 17 16  2  0
 18 15  1  0
 19 17  1  0
 11 14  2  0
 19 18  2  0
  2 20  1  0
  9 21  1  0
 10 22  1  0
 12 23  1  0
 12 24  1  0
 13 25  1  0
 14 26  1  0
 15 27  1  0
 16 28  1  0
 17 29  1  0
 18 30  1  0
 19 31  1  0
M  END
> <Uni-Dock RESULT> 
ENERGY=   -6.193  LOWER_BOUND=    0.000  UPPER_BOUND=    0.000
INTER + INTRA:          -6.193
INTER:                  -6.193
INTRA:                   0.000
UNBOUND:                 0.000

$$$$

     RDKit          3D

 31 32  0  0  0  0  0  0  0  0999 V2000
   43.7680    4.4160   10.9054 S   0  0  0  0  0  0  0  0  0  0  0  0
   44.8470    4.5586   12.1626 N   0  0  0  0  0  0  0  0  0  0  0  0
   45.9246    5.4505   12.1991 C   0  0  0  0  0  0  0  0  0  0  0  0
   44.7482    3.7029    9.6114 C   0  0  0  0  0  0  0  0  0  0  0  0
   43.3097    5.7236   10.4967 O   0  0  0  0  0  0  0  0  0  0  0  0
   42.8233    3.4058   11.3405 O   0  0  0  0  0  0  0  0  0  0  0  0
   46.2104    6.2038   11.2824 O   0  0  0  0  0  0  0  0  0  0  0  0
   46.7391    5.4282   13.4466 C   0  0  0  0  0  0  0  0  0  0  0  0
   45.3952    4.5324    8.6947 C   0  0  0  0  0  0  0  0  0  0  0  0
   44.8398    2.3142    9.4949 C   0  0  0  0  0  0  0  0  0  0  0  0
   46.2175    2.5763    7.5087 C   0  0  0  0  0  0  0  0  0  0  0  0
   47.0698    2.0166    6.5505 N   0  0  0  0  0  0  0  0  0  0  0  0
   45.5954    1.7591    8.4583 C   0  0  0  0  0  0  0  0  0  0  0  0
   46.1507    3.9643    7.6656 C   0  0  0  0  0  0  0  0  0  0  0  0
   47.4856    6.5732   13.7613 C   0  0  0  0  0  0  0  0  0  0  0  0
   46.7824    4.3224   14.3079 C   0  0  0  0  0  0  0  0  0  0  0  0
   47.5541    4.3717   15.4725 C   0  0  0  0  0  0  0  0  0  0  0  0
   48.2536    6.6178   14.9261 C   0  0  0  0  0  0  0  0  0  0  0  0
   48.2848    5.5184   15.7817 C   0  0  0  0  0  0  0  0  0  0  0  0
   44.5612    4.0153   12.9678 H   0  0  0  0  0  0  0  0  0  0  0  0
   45.3370    5.6155    8.7874 H   0  0  0  0  0  0  0  0  0  0  0  0
   44.3382    1.6592   10.2028 H   0  0  0  0  0  0  0  0  0  0  0  0
   47.2257    2.6126    5.7430 H   0  0  0  0  0  0  0  0  0  0  0  0
   46.8253    1.0678    6.2852 H   0  0  0  0  0  0  0  0  0  0  0  0
   45.6904    0.6782    8.3935 H   0  0  0  0  0  0  0  0  0  0  0  0
   46.6858    4.6200    6.9831 H   0  0  0  0  0  0  0  0  0  0  0  0
   47.4687    7.4389   13.1006 H   0  0  0  0  0  0  0  0  0  0  0  0
   46.2551    3.4008   14.0827 H   0  0  0  0  0  0  0  0  0  0  0  0
   47.5933    3.5114   16.1371 H   0  0  0  0  0  0  0  0  0  0  0  0
   48.8278    7.5103   15.1640 H   0  0  0  0  0  0  0  0  0  0  0  0
   48.8857    5.5529   16.6877 H   0  0  0  0  0  0  0  0  0  0  0  0
  2  1  1  0
  3  2  1  0
  4  1  1  0
  5  1  2  0
  6  1  2  0
  7  3  2  0
  8  3  1  0
  9  4  2  0
 10  4  1  0
 11 13  1  0
 12 11  1  0
 13 10  2  0
 14  9  1  0
 15  8  2  0
 16  8  1  0
 17 16  2  0
 18 15  1  0
 19 17  1  0
 11 14  2  0
 19 18  2  0
  2 20  1  0
  9 21  1  0
 10 22  1  0
 12 23  1  0
 12 24  1  0
 13 25  1  0
 14 26  1  0
 15 27  1  0
 16 28  1  0
 17 29  1  0
 18 30  1  0
 19 31  1  0
M  END
> <Uni-Dock RESULT> 
ENERGY=   -6.063  LOWER_BOUND=    1.765  UPPER_BOUND=    6.395
INTER + INTRA:          -6.063
INTER:                  -6.063
INTRA:                   0.000
UNBOUND:                 0.000

$$$$

     RDKit          3D

 31 32  0  0  0  0  0  0  0  0999 V2000
   47.6236    3.9179   17.6740 S   0  0  0  0  0  0  0  0  0  0  0  0
   49.0737    3.1064   17.7361 N   0  0  0  0  0  0  0  0  0  0  0  0
   50.3322    3.7144   17.8039 C   0  0  0  0  0  0  0  0  0  0  0  0
   47.6468    4.6630   16.0653 C   0  0  0  0  0  0  0  0  0  0  0  0
   47.5922    4.9517   18.6825 O   0  0  0  0  0  0  0  0  0  0  0  0
   46.6160    2.8754   17.6545 O   0  0  0  0  0  0  0  0  0  0  0  0
   50.5011    4.9230   17.7885 O   0  0  0  0  0  0  0  0  0  0  0  0
   51.4942    2.7855   17.8877 C   0  0  0  0  0  0  0  0  0  0  0  0
   48.1456    5.9564   15.9076 C   0  0  0  0  0  0  0  0  0  0  0  0
   47.1337    3.9651   14.9696 C   0  0  0  0  0  0  0  0  0  0  0  0
   47.5943    5.8782   13.5414 C   0  0  0  0  0  0  0  0  0  0  0  0
   47.7042    6.4259   12.2585 N   0  0  0  0  0  0  0  0  0  0  0  0
   47.1340    4.5680   13.7086 C   0  0  0  0  0  0  0  0  0  0  0  0
   48.1436    6.5458   14.6406 C   0  0  0  0  0  0  0  0  0  0  0  0
   52.6868    3.2773   18.4384 C   0  0  0  0  0  0  0  0  0  0  0  0
   51.4389    1.4553   17.4472 C   0  0  0  0  0  0  0  0  0  0  0  0
   52.5606    0.6300   17.5694 C   0  0  0  0  0  0  0  0  0  0  0  0
   53.8036    2.4486   18.5595 C   0  0  0  0  0  0  0  0  0  0  0  0
   53.7385    1.1255   18.1276 C   0  0  0  0  0  0  0  0  0  0  0  0
   48.9427    2.1093   17.8534 H   0  0  0  0  0  0  0  0  0  0  0  0
   48.5574    6.5007   16.7558 H   0  0  0  0  0  0  0  0  0  0  0  0
   46.7412    2.9576   15.0821 H   0  0  0  0  0  0  0  0  0  0  0  0
   47.7469    7.4406   12.2488 H   0  0  0  0  0  0  0  0  0  0  0  0
   47.0249    6.0644   11.5964 H   0  0  0  0  0  0  0  0  0  0  0  0
   46.7646    4.0066   12.8542 H   0  0  0  0  0  0  0  0  0  0  0  0
   48.5743    7.5369   14.5215 H   0  0  0  0  0  0  0  0  0  0  0  0
   52.7495    4.3096   18.7800 H   0  0  0  0  0  0  0  0  0  0  0  0
   50.5513    1.0450   16.9760 H   0  0  0  0  0  0  0  0  0  0  0  0
   52.5199   -0.3999   17.2212 H   0  0  0  0  0  0  0  0  0  0  0  0
   54.7238    2.8371   18.9898 H   0  0  0  0  0  0  0  0  0  0  0  0
   54.6100    0.4811   18.2197 H   0  0  0  0  0  0  0  0  0  0  0  0
  2  1  1  0
  3  2  1  0
  4  1  1  0
  5  1  2  0
  6  1  2  0
  7  3  2  0
  8  3  1  0
  9  4  2  0
 10  4  1  0
 11 13  1  0
 12 11  1  0
 13 10  2  0
 14  9  1  0
 15  8  2  0
 16  8  1  0
 17 16  2  0
 18 15  1  0
 19 17  1  0
 11 14  2  0
 19 18  2  0
  2 20  1  0
  9 21  1  0
 10 22  1  0
 12 23  1  0
 12 24  1  0
 13 25  1  0
 14 26  1  0
 15 27  1  0
 16 28  1  0
 17 29  1  0
 18 30  1  0
 19 31  1  0
M  END
> <Uni-Dock RESULT> 
ENERGY=   -4.739  LOWER_BOUND=    6.223  UPPER_BOUND=    9.009
INTER + INTRA:          -4.739
INTER:                  -4.739
INTRA:                   0.000
UNBOUND:                 0.000

$$$$

     RDKit          3D

 31 32  0  0  0  0  0  0  0  0999 V2000
   43.3235   11.1951   10.9615 S   0  0  0  0  0  0  0  0  0  0  0  0
   44.0815    9.8256   11.5229 N   0  0  0  0  0  0  0  0  0  0  0  0
   45.4257    9.7505   11.9043 C   0  0  0  0  0  0  0  0  0  0  0  0
   44.0663   11.4440    9.3709 C   0  0  0  0  0  0  0  0  0  0  0  0
   43.6325   12.3171   11.8175 O   0  0  0  0  0  0  0  0  0  0  0  0
   41.9482   10.7931   10.7397 O   0  0  0  0  0  0  0  0  0  0  0  0
   46.2033   10.6883   11.8298 O   0  0  0  0  0  0  0  0  0  0  0  0
   45.8797    8.4252   12.4118 C   0  0  0  0  0  0  0  0  0  0  0  0
   45.1900   12.2622    9.2511 C   0  0  0  0  0  0  0  0  0  0  0  0
   43.5024   10.8480    8.2406 C   0  0  0  0  0  0  0  0  0  0  0  0
   45.1825   11.9163    6.8449 C   0  0  0  0  0  0  0  0  0  0  0  0
   45.8258   12.0316    5.6077 N   0  0  0  0  0  0  0  0  0  0  0  0
   44.0797   11.0676    6.9868 C   0  0  0  0  0  0  0  0  0  0  0  0
   45.7596   12.4701    7.9921 C   0  0  0  0  0  0  0  0  0  0  0  0
   47.0088    8.3947   13.2435 C   0  0  0  0  0  0  0  0  0  0  0  0
   45.2263    7.2249   12.0972 C   0  0  0  0  0  0  0  0  0  0  0  0
   45.6934    6.0155   12.6200 C   0  0  0  0  0  0  0  0  0  0  0  0
   47.4704    7.1845   13.7640 C   0  0  0  0  0  0  0  0  0  0  0  0
   46.8107    5.9969   13.4541 C   0  0  0  0  0  0  0  0  0  0  0  0
   43.4253    9.0720   11.6862 H   0  0  0  0  0  0  0  0  0  0  0  0
   45.6408   12.7199   10.1300 H   0  0  0  0  0  0  0  0  0  0  0  0
   42.6259   10.2102    8.3230 H   0  0  0  0  0  0  0  0  0  0  0  0
   46.3961   12.8673    5.5190 H   0  0  0  0  0  0  0  0  0  0  0  0
   45.2119   11.8999    4.8100 H   0  0  0  0  0  0  0  0  0  0  0  0
   43.6563   10.5735    6.1160 H   0  0  0  0  0  0  0  0  0  0  0  0
   46.6604   13.0742    7.9162 H   0  0  0  0  0  0  0  0  0  0  0  0
   47.5323    9.3165   13.4931 H   0  0  0  0  0  0  0  0  0  0  0  0
   44.3753    7.1962   11.4240 H   0  0  0  0  0  0  0  0  0  0  0  0
   45.1908    5.0836   12.3703 H   0  0  0  0  0  0  0  0  0  0  0  0
   48.3452    7.1697   14.4100 H   0  0  0  0  0  0  0  0  0  0  0  0
   47.1726    5.0539   13.8577 H   0  0  0  0  0  0  0  0  0  0  0  0
  2  1  1  0
  3  2  1  0
  4  1  1  0
  5  1  2  0
  6  1  2  0
  7  3  2  0
  8  3  1  0
  9  4  2  0
 10  4  1  0
 11 13  1  0
 12 11  1  0
 13 10  2  0
 14  9  1  0
 15  8  2  0
 16  8  1  0
 17 16  2  0
 18 15  1  0
 19 17  1  0
 11 14  2  0
 19 18  2  0
  2 20  1  0
  9 21  1  0
 10 22  1  0
 12 23  1  0
 12 24  1  0
 13 25  1  0
 14 26  1  0
 15 27  1  0
 16 28  1  0
 17 29  1  0
 18 30  1  0
 19 31  1  0
M  END
> <Uni-Dock RESULT> 
ENERGY=   -4.173  LOWER_BOUND=    5.554  UPPER_BOUND=    8.049
INTER + INTRA:          -4.173
INTER:                  -4.173
INTRA:                   0.000
UNBOUND:                 0.000

$$$$

     RDKit          3D

 31 32  0  0  0  0  0  0  0  0999 V2000
   45.9659    8.7849   12.2836 S   0  0  0  0  0  0  0  0  0  0  0  0
   45.6574    7.4343   11.3639 N   0  0  0  0  0  0  0  0  0  0  0  0
   45.5475    6.1313   11.8621 C   0  0  0  0  0  0  0  0  0  0  0  0
   47.6483    8.5511   12.7922 C   0  0  0  0  0  0  0  0  0  0  0  0
   45.1091    8.7973   13.4466 O   0  0  0  0  0  0  0  0  0  0  0  0
   45.9469    9.8870   11.3415 O   0  0  0  0  0  0  0  0  0  0  0  0
   45.7043    5.8409   13.0371 O   0  0  0  0  0  0  0  0  0  0  0  0
   45.2304    5.0798   10.8551 C   0  0  0  0  0  0  0  0  0  0  0  0
   47.9243    7.9132   14.0020 C   0  0  0  0  0  0  0  0  0  0  0  0
   48.6879    9.0374   11.9965 C   0  0  0  0  0  0  0  0  0  0  0  0
   50.3023    8.2678   13.6436 C   0  0  0  0  0  0  0  0  0  0  0  0
   51.6290    7.9954   13.9954 N   0  0  0  0  0  0  0  0  0  0  0  0
   50.0109    8.8700   12.4153 C   0  0  0  0  0  0  0  0  0  0  0  0
   49.2516    7.7489   14.4068 C   0  0  0  0  0  0  0  0  0  0  0  0
   44.6352    3.8946   11.3117 C   0  0  0  0  0  0  0  0  0  0  0  0
   45.4965    5.2312    9.4866 C   0  0  0  0  0  0  0  0  0  0  0  0
   45.1588    4.2127    8.5907 C   0  0  0  0  0  0  0  0  0  0  0  0
   44.2987    2.8810   10.4128 C   0  0  0  0  0  0  0  0  0  0  0  0
   44.5582    3.0422    9.0533 C   0  0  0  0  0  0  0  0  0  0  0  0
   45.4241    7.6744   10.4084 H   0  0  0  0  0  0  0  0  0  0  0  0
   47.1186    7.5218   14.6207 H   0  0  0  0  0  0  0  0  0  0  0  0
   48.4835    9.5374   11.0530 H   0  0  0  0  0  0  0  0  0  0  0  0
   51.7671    7.8502   14.9910 H   0  0  0  0  0  0  0  0  0  0  0  0
   52.3011    8.6492   13.6065 H   0  0  0  0  0  0  0  0  0  0  0  0
   50.8165    9.2205   11.7750 H   0  0  0  0  0  0  0  0  0  0  0  0
   49.4568    7.2122   15.3298 H   0  0  0  0  0  0  0  0  0  0  0  0
   44.4271    3.7574   12.3719 H   0  0  0  0  0  0  0  0  0  0  0  0
   45.9941    6.1126    9.0946 H   0  0  0  0  0  0  0  0  0  0  0  0
   45.3717    4.3271    7.5300 H   0  0  0  0  0  0  0  0  0  0  0  0
   43.8355    1.9661   10.7747 H   0  0  0  0  0  0  0  0  0  0  0  0
   44.2984    2.2509    8.3537 H   0  0  0  0  0  0  0  0  0  0  0  0
  2  1  1  0
  3  2  1  0
  4  1  1  0
  5  1  2  0
  6  1  2  0
  7  3  2  0
  8  3  1  0
  9  4  2  0
 10  4  1  0
 11 13  1  0
 12 11  1  0
 13 10  2  0
 14  9  1  0
 15  8  2  0
 16  8  1  0
 17 16  2  0
 18 15  1  0
 19 17  1  0
 11 14  2  0
 19 18  2  0
  2 20  1  0
  9 21  1  0
 10 22  1  0
 12 23  1  0
 12 24  1  0
 13 25  1  0
 14 26  1  0
 15 27  1  0
 16 28  1  0
 17 29  1  0
 18 30  1  0
 19 31  1  0
M  END
> <Uni-Dock RESULT> 
ENERGY=   -4.076  LOWER_BOUND=    3.207  UPPER_BOUND=    4.383
INTER + INTRA:          -4.076
INTER:                  -4.076
INTRA:                   0.000
UNBOUND:                 0.000

$$$$

     RDKit          3D

 31 32  0  0  0  0  0  0  0  0999 V2000
   48.6725    7.6999   12.6038 S   0  0  0  0  0  0  0  0  0  0  0  0
   47.4469    6.5855   12.4585 N   0  0  0  0  0  0  0  0  0  0  0  0
   46.0943    6.8417   12.7095 C   0  0  0  0  0  0  0  0  0  0  0  0
   48.7718    7.9643   14.3543 C   0  0  0  0  0  0  0  0  0  0  0  0
   48.2990    8.9335   11.9515 O   0  0  0  0  0  0  0  0  0  0  0  0
   49.8706    6.9875   12.2044 O   0  0  0  0  0  0  0  0  0  0  0  0
   45.6711    7.9171   13.1020 O   0  0  0  0  0  0  0  0  0  0  0  0
   45.1669    5.6987   12.4778 C   0  0  0  0  0  0  0  0  0  0  0  0
   48.0386    8.9957   14.9421 C   0  0  0  0  0  0  0  0  0  0  0  0
   49.6099    7.1615   15.1312 C   0  0  0  0  0  0  0  0  0  0  0  0
   49.0026    8.4453   17.1047 C   0  0  0  0  0  0  0  0  0  0  0  0
   49.0042    8.5894   18.4965 N   0  0  0  0  0  0  0  0  0  0  0  0
   49.7009    7.3910   16.5069 C   0  0  0  0  0  0  0  0  0  0  0  0
   48.1356    9.2116   16.3193 C   0  0  0  0  0  0  0  0  0  0  0  0
   43.8177    5.9907   12.2292 C   0  0  0  0  0  0  0  0  0  0  0  0
   45.5881    4.3613   12.4940 C   0  0  0  0  0  0  0  0  0  0  0  0
   44.6701    3.3351   12.2522 C   0  0  0  0  0  0  0  0  0  0  0  0
   42.9053    4.9624   11.9871 C   0  0  0  0  0  0  0  0  0  0  0  0
   43.3328    3.6363   11.9960 C   0  0  0  0  0  0  0  0  0  0  0  0
   47.7695    5.7236   12.0364 H   0  0  0  0  0  0  0  0  0  0  0  0
   47.3748    9.6171   14.3435 H   0  0  0  0  0  0  0  0  0  0  0  0
   50.1867    6.3565   14.6827 H   0  0  0  0  0  0  0  0  0  0  0  0
   48.7435    9.5188   18.8123 H   0  0  0  0  0  0  0  0  0  0  0  0
   49.8519    8.2560   18.9445 H   0  0  0  0  0  0  0  0  0  0  0  0
   50.3287    6.7409   17.1110 H   0  0  0  0  0  0  0  0  0  0  0  0
   47.5270    9.9897   16.7733 H   0  0  0  0  0  0  0  0  0  0  0  0
   43.4719    7.0235   12.2191 H   0  0  0  0  0  0  0  0  0  0  0  0
   46.6128    4.0868   12.7240 H   0  0  0  0  0  0  0  0  0  0  0  0
   44.9953    2.2972   12.2717 H   0  0  0  0  0  0  0  0  0  0  0  0
   41.8613    5.1974   11.7928 H   0  0  0  0  0  0  0  0  0  0  0  0
   42.6207    2.8354   11.8101 H   0  0  0  0  0  0  0  0  0  0  0  0
  2  1  1  0
  3  2  1  0
  4  1  1  0
  5  1  2  0
  6  1  2  0
  7  3  2  0
  8  3  1  0
  9  4  2  0
 10  4  1  0
 11 13  1  0
 12 11  1  0
 13 10  2  0
 14  9  1  0
 15  8  2  0
 16  8  1  0
 17 16  2  0
 18 15  1  0
 19 17  1  0
 11 14  2  0
 19 18  2  0
  2 20  1  0
  9 21  1  0
 10 22  1  0
 12 23  1  0
 12 24  1  0
 13 25  1  0
 14 26  1  0
 15 27  1  0
 16 28  1  0
 17 29  1  0
 18 30  1  0
 19 31  1  0
M  END
> <Uni-Dock RESULT> 
ENERGY=   -4.059  LOWER_BOUND=    4.471  UPPER_BOUND=    5.996
INTER + INTRA:          -4.059
INTER:                  -4.059
INTRA:                   0.000
UNBOUND:                 0.000

$$$$

     RDKit          3D

 31 32  0  0  0  0  0  0  0  0999 V2000
   47.5879    4.1773   17.8107 S   0  0  0  0  0  0  0  0  0  0  0  0
   47.5354    5.1859   16.4897 N   0  0  0  0  0  0  0  0  0  0  0  0
   47.5118    4.7625   15.1562 C   0  0  0  0  0  0  0  0  0  0  0  0
   49.2166    3.4819   17.7228 C   0  0  0  0  0  0  0  0  0  0  0  0
   46.6077    3.1257   17.6689 O   0  0  0  0  0  0  0  0  0  0  0  0
   47.5568    5.0653   18.9565 O   0  0  0  0  0  0  0  0  0  0  0  0
   47.5640    3.5912   14.8174 O   0  0  0  0  0  0  0  0  0  0  0  0
   47.4281    5.8457   14.1363 C   0  0  0  0  0  0  0  0  0  0  0  0
   49.4204    2.2772   17.0493 C   0  0  0  0  0  0  0  0  0  0  0  0
   50.2812    4.1254   18.3578 C   0  0  0  0  0  0  0  0  0  0  0  0
   51.7710    2.3325   17.6663 C   0  0  0  0  0  0  0  0  0  0  0  0
   53.0705    1.8370   17.5125 N   0  0  0  0  0  0  0  0  0  0  0  0
   51.5580    3.5591   18.3040 C   0  0  0  0  0  0  0  0  0  0  0  0
   50.7027    1.7241   16.9997 C   0  0  0  0  0  0  0  0  0  0  0  0
   46.9172    5.5163   12.8723 C   0  0  0  0  0  0  0  0  0  0  0  0
   47.8307    7.1645   14.3916 C   0  0  0  0  0  0  0  0  0  0  0  0
   47.7105    8.1384   13.3960 C   0  0  0  0  0  0  0  0  0  0  0  0
   46.7980    6.4929   11.8820 C   0  0  0  0  0  0  0  0  0  0  0  0
   47.1920    7.8031   12.1457 C   0  0  0  0  0  0  0  0  0  0  0  0
   47.3880    6.1510   16.7582 H   0  0  0  0  0  0  0  0  0  0  0  0
   48.5967    1.7771   16.5426 H   0  0  0  0  0  0  0  0  0  0  0  0
   50.1327    5.0635   18.8866 H   0  0  0  0  0  0  0  0  0  0  0  0
   53.1089    0.8393   17.3261 H   0  0  0  0  0  0  0  0  0  0  0  0
   53.7075    2.1135   18.2530 H   0  0  0  0  0  0  0  0  0  0  0  0
   52.3884    4.0823   18.7712 H   0  0  0  0  0  0  0  0  0  0  0  0
   50.8583    0.8078   16.4356 H   0  0  0  0  0  0  0  0  0  0  0  0
   46.6055    4.4956   12.6546 H   0  0  0  0  0  0  0  0  0  0  0  0
   48.2710    7.4549   15.3403 H   0  0  0  0  0  0  0  0  0  0  0  0
   48.0295    9.1599   13.5916 H   0  0  0  0  0  0  0  0  0  0  0  0
   46.3988    6.2297   10.9052 H   0  0  0  0  0  0  0  0  0  0  0  0
   47.1014    8.5629   11.3727 H   0  0  0  0  0  0  0  0  0  0  0  0
  2  1  1  0
  3  2  1  0
  4  1  1  0
  5  1  2  0
  6  1  2  0
  7  3  2  0
  8  3  1  0
  9  4  2  0
 10  4  1  0
 11 13  1  0
 12 11  1  0
 13 10  2  0
 14  9  1  0
 15  8  2  0
 16  8  1  0
 17 16  2  0
 18 15  1  0
 19 17  1  0
 11 14  2  0
 19 18  2  0
  2 20  1  0
  9 21  1  0
 10 22  1  0
 12 23  1  0
 12 24  1  0
 13 25  1  0
 14 26  1  0
 15 27  1  0
 16 28  1  0
 17 29  1  0
 18 30  1  0
 19 31  1  0
M  END
> <Uni-Dock RESULT> 
ENERGY=   -4.054  LOWER_BOUND=    5.229  UPPER_BOUND=    7.429
INTER + INTRA:          -4.054
INTER:                  -4.054
INTRA:                   0.000
UNBOUND:                 0.000

$$$$

     RDKit          3D

 31 32  0  0  0  0  0  0  0  0999 V2000
   43.2380   11.2319    9.9188 S   0  0  0  0  0  0  0  0  0  0  0  0
   44.2648   10.3098   10.8464 N   0  0  0  0  0  0  0  0  0  0  0  0
   44.0704    8.9599   11.1597 C   0  0  0  0  0  0  0  0  0  0  0  0
   41.8053   11.4011   10.9496 C   0  0  0  0  0  0  0  0  0  0  0  0
   42.8827   10.5166    8.7150 O   0  0  0  0  0  0  0  0  0  0  0  0
   43.8740   12.5327    9.8434 O   0  0  0  0  0  0  0  0  0  0  0  0
   43.0934    8.3180   10.8089 O   0  0  0  0  0  0  0  0  0  0  0  0
   45.1424    8.3262   11.9778 C   0  0  0  0  0  0  0  0  0  0  0  0
   40.7582   10.4860   10.8366 C   0  0  0  0  0  0  0  0  0  0  0  0
   41.7166   12.4694   11.8449 C   0  0  0  0  0  0  0  0  0  0  0  0
   39.4995   11.7233   12.5081 C   0  0  0  0  0  0  0  0  0  0  0  0
   38.4158   11.7994   13.3900 N   0  0  0  0  0  0  0  0  0  0  0  0
   40.5739   12.6095   12.6376 C   0  0  0  0  0  0  0  0  0  0  0  0
   39.6233   10.6355   11.6381 C   0  0  0  0  0  0  0  0  0  0  0  0
   45.2756    6.9313   11.9147 C   0  0  0  0  0  0  0  0  0  0  0  0
   46.0140    9.0627   12.7930 C   0  0  0  0  0  0  0  0  0  0  0  0
   47.0105    8.4086   13.5232 C   0  0  0  0  0  0  0  0  0  0  0  0
   46.2732    6.2830   12.6448 C   0  0  0  0  0  0  0  0  0  0  0  0
   47.1411    7.0224   13.4459 C   0  0  0  0  0  0  0  0  0  0  0  0
   45.1257   10.7997   11.0558 H   0  0  0  0  0  0  0  0  0  0  0  0
   40.8267    9.6447   10.1490 H   0  0  0  0  0  0  0  0  0  0  0  0
   42.5261   13.1888   11.9393 H   0  0  0  0  0  0  0  0  0  0  0  0
   37.5755   11.3443   13.0463 H   0  0  0  0  0  0  0  0  0  0  0  0
   38.2307   12.7357   13.7358 H   0  0  0  0  0  0  0  0  0  0  0  0
   40.5258   13.4235   13.3565 H   0  0  0  0  0  0  0  0  0  0  0  0
   38.8324    9.8923   11.5729 H   0  0  0  0  0  0  0  0  0  0  0  0
   44.6035    6.3429   11.2916 H   0  0  0  0  0  0  0  0  0  0  0  0
   45.9205   10.1383   12.9054 H   0  0  0  0  0  0  0  0  0  0  0  0
   47.6820    8.9791   14.1611 H   0  0  0  0  0  0  0  0  0  0  0  0
   46.3712    5.2014   12.5886 H   0  0  0  0  0  0  0  0  0  0  0  0
   47.9164    6.5163   14.0168 H   0  0  0  0  0  0  0  0  0  0  0  0
  2  1  1  0
  3  2  1  0
  4  1  1  0
  5  1  2  0
  6  1  2  0
  7  3  2  0
  8  3  1  0
  9  4  2  0
 10  4  1  0
 11 13  1  0
 12 11  1  0
 13 10  2  0
 14  9  1  0
 15  8  2  0
 16  8  1  0
 17 16  2  0
 18 15  1  0
 19 17  1  0
 11 14  2  0
 19 18  2  0
  2 20  1  0
  9 21  1  0
 10 22  1  0
 12 23  1  0
 12 24  1  0
 13 25  1  0
 14 26  1  0
 15 27  1  0
 16 28  1  0
 17 29  1  0
 18 30  1  0
 19 31  1  0
M  END
> <Uni-Dock RESULT> 
ENERGY=   -4.051  LOWER_BOUND=    5.645  UPPER_BOUND=    7.911
INTER + INTRA:          -4.051
INTER:                  -4.051
INTRA:                   0.000
UNBOUND:                 0.000

$$$$

     RDKit          3D

 31 32  0  0  0  0  0  0  0  0999 V2000
   48.3766    5.5405   17.8283 S   0  0  0  0  0  0  0  0  0  0  0  0
   48.6080    6.3766   16.4096 N   0  0  0  0  0  0  0  0  0  0  0  0
   48.2052    5.9375   15.1435 C   0  0  0  0  0  0  0  0  0  0  0  0
   49.4733    4.1570   17.6646 C   0  0  0  0  0  0  0  0  0  0  0  0
   47.0139    5.0675   17.9065 O   0  0  0  0  0  0  0  0  0  0  0  0
   48.9183    6.4036   18.8598 O   0  0  0  0  0  0  0  0  0  0  0  0
   47.6654    4.8618   14.9408 O   0  0  0  0  0  0  0  0  0  0  0  0
   48.4859    6.8713   14.0169 C   0  0  0  0  0  0  0  0  0  0  0  0
   49.0040    2.9611   17.1202 C   0  0  0  0  0  0  0  0  0  0  0  0
   50.7919    4.2596   18.1134 C   0  0  0  0  0  0  0  0  0  0  0  0
   51.1779    1.9399   17.4952 C   0  0  0  0  0  0  0  0  0  0  0  0
   52.0684    0.8833   17.2749 N   0  0  0  0  0  0  0  0  0  0  0  0
   51.6441    3.1572   18.0025 C   0  0  0  0  0  0  0  0  0  0  0  0
   49.8677    1.8680   17.0114 C   0  0  0  0  0  0  0  0  0  0  0  0
   47.7087    6.7481   12.8557 C   0  0  0  0  0  0  0  0  0  0  0  0
   49.4807    7.8580   14.0755 C   0  0  0  0  0  0  0  0  0  0  0  0
   49.6825    8.7143   12.9892 C   0  0  0  0  0  0  0  0  0  0  0  0
   47.9134    7.6066   11.7742 C   0  0  0  0  0  0  0  0  0  0  0  0
   48.8979    8.5903   11.8431 C   0  0  0  0  0  0  0  0  0  0  0  0
   48.9598    7.3113   16.5763 H   0  0  0  0  0  0  0  0  0  0  0  0
   47.9806    2.8789   16.7581 H   0  0  0  0  0  0  0  0  0  0  0  0
   51.1669    5.1862   18.5407 H   0  0  0  0  0  0  0  0  0  0  0  0
   51.6176   -0.0240   17.2038 H   0  0  0  0  0  0  0  0  0  0  0  0
   52.8582    0.8702   17.9125 H   0  0  0  0  0  0  0  0  0  0  0  0
   52.6785    3.2544   18.3222 H   0  0  0  0  0  0  0  0  0  0  0  0
   49.5040    0.9553   16.5461 H   0  0  0  0  0  0  0  0  0  0  0  0
   46.9360    5.9834   12.7904 H   0  0  0  0  0  0  0  0  0  0  0  0
   50.1336    7.9617   14.9364 H   0  0  0  0  0  0  0  0  0  0  0  0
   50.4589    9.4751   13.0319 H   0  0  0  0  0  0  0  0  0  0  0  0
   47.3050    7.5060   10.8784 H   0  0  0  0  0  0  0  0  0  0  0  0
   49.0587    9.2571   10.9989 H   0  0  0  0  0  0  0  0  0  0  0  0
  2  1  1  0
  3  2  1  0
  4  1  1  0
  5  1  2  0
  6  1  2  0
  7  3  2  0
  8  3  1  0
  9  4  2  0
 10  4  1  0
 11 13  1  0
 12 11  1  0
 13 10  2  0
 14  9  1  0
 15  8  2  0
 16  8  1  0
 17 16  2  0
 18 15  1  0
 19 17  1  0
 11 14  2  0
 19 18  2  0
  2 20  1  0
  9 21  1  0
 10 22  1  0
 12 23  1  0
 12 24  1  0
 13 25  1  0
 14 26  1  0
 15 27  1  0
 16 28  1  0
 17 29  1  0
 18 30  1  0
 19 31  1  0
M  END
> <Uni-Dock RESULT> 
ENERGY=   -3.951  LOWER_BOUND=    5.815  UPPER_BOUND=    7.756
INTER + INTRA:          -3.951
INTER:                  -3.951
INTRA:                   0.000
UNBOUND:                 0.000

$$$$
