
     RDKit          3D

 67 67  0  0  0  0  0  0  0  0999 V2000
   45.7292    5.9852   11.7031 C   0  0  0  0  0  0  0  0  0  0  0  0
   45.8590    8.3553   12.4316 C   0  0  0  0  0  0  0  0  0  0  0  0
   45.1927    7.3437   11.8593 C   0  0  0  0  0  0  0  0  0  0  0  0
   46.6193    5.4511   12.3335 O   0  0  0  0  0  0  0  0  0  0  0  0
   45.0450    5.3397   10.7447 O   0  0  0  0  0  0  0  0  0  0  0  0
   47.2467    8.2869   12.8949 C   0  0  0  0  0  0  0  0  0  0  0  0
   47.6427    8.6890   13.9722 O   0  0  0  0  0  0  0  0  0  0  0  0
   48.0722    7.8410   11.9376 O   0  0  0  0  0  0  0  0  0  0  0  0
   44.9357    6.7845   12.3061 C   0  0  0  0  0  0  0  0  0  0  0  0
   45.9769    7.5550   12.8599 C   0  0  0  0  0  0  0  0  0  0  0  0
   43.8353    7.4570   11.5616 C   0  0  0  0  0  0  0  0  0  0  0  0
   46.0054    9.0250   12.6105 C   0  0  0  0  0  0  0  0  0  0  0  0
   43.8806    8.9049   11.3561 C   0  0  0  0  0  0  0  0  0  0  0  0
   44.9163    9.6676   11.8606 C   0  0  0  0  0  0  0  0  0  0  0  0
   44.9365    5.3783   12.4509 C   0  0  0  0  0  0  0  0  0  0  0  0
   47.0198    6.9393   13.6024 C   0  0  0  0  0  0  0  0  0  0  0  0
   42.8684    6.8366   11.1273 O   0  0  0  0  0  0  0  0  0  0  0  0
   46.9392    9.7252   12.9948 O   0  0  0  0  0  0  0  0  0  0  0  0
   42.8643   10.8916   10.4287 N   0  0  0  0  0  0  0  0  0  0  0  0
   46.9675    5.5512   13.7788 C   0  0  0  0  0  0  0  0  0  0  0  0
   45.9573    4.7843   13.1990 C   0  0  0  0  0  0  0  0  0  0  0  0
   42.8795    9.5540   10.6501 C   0  0  0  0  0  0  0  0  0  0  0  0
   43.9590    4.5464   11.8585 N   0  0  0  0  0  0  0  0  0  0  0  0
   48.0075    7.7013   14.2634 N   0  0  0  0  0  0  0  0  0  0  0  0
   44.9310   11.0492   11.6502 C   0  0  0  0  0  0  0  0  0  0  0  0
   51.7165    7.7610   14.9499 N   0  0  0  0  0  0  0  0  0  0  0  0
   45.7900    5.3095    9.4177 N   0  0  0  0  0  0  0  0  0  0  0  0
   43.8898   11.6097   10.9337 C   0  0  0  0  0  0  0  0  0  0  0  0
   44.4591    3.6453   10.8066 C   0  0  0  0  0  0  0  0  0  0  0  0
   49.3752    7.1752   14.2930 C   0  0  0  0  0  0  0  0  0  0  0  0
   44.6759    4.3516    9.4460 C   0  0  0  0  0  0  0  0  0  0  0  0
   50.3378    8.2458   14.8451 C   0  0  0  0  0  0  0  0  0  0  0  0
   47.5731    7.5838   12.4045 C   0  0  0  0  0  0  0  0  0  0  0  0
   45.1420    7.7609   11.9349 C   0  0  0  0  0  0  0  0  0  0  0  0
   46.2675    8.2539   12.4685 C   0  0  0  0  0  0  0  0  0  0  0  0
   47.9501    6.7469   11.6093 O   0  0  0  0  0  0  0  0  0  0  0  0
   48.3741    8.0672   13.3678 O   0  0  0  0  0  0  0  0  0  0  0  0
   45.0242    6.4470   11.2987 C   0  0  0  0  0  0  0  0  0  0  0  0
   44.4797    6.2347   10.2321 O   0  0  0  0  0  0  0  0  0  0  0  0
   45.4796    5.4654   12.0902 O   0  0  0  0  0  0  0  0  0  0  0  0
   45.3748    9.3093   12.6015 H   0  0  0  0  0  0  0  0  0  0  0  0
   44.1756    7.4897   11.5144 H   0  0  0  0  0  0  0  0  0  0  0  0
   45.4670    4.4556   10.7149 H   0  0  0  0  0  0  0  0  0  0  0  0
   48.9480    7.8086   12.3743 H   0  0  0  0  0  0  0  0  0  0  0  0
   47.7036    5.0392   14.3920 H   0  0  0  0  0  0  0  0  0  0  0  0
   45.9512    3.7092   13.3638 H   0  0  0  0  0  0  0  0  0  0  0  0
   42.0366    9.0107   10.2290 H   0  0  0  0  0  0  0  0  0  0  0  0
   43.2085    5.1400   11.4732 H   0  0  0  0  0  0  0  0  0  0  0  0
   47.9859    8.6688   13.9058 H   0  0  0  0  0  0  0  0  0  0  0  0
   45.7324   11.6732   12.0333 H   0  0  0  0  0  0  0  0  0  0  0  0
   52.3019    8.5128   15.3143 H   0  0  0  0  0  0  0  0  0  0  0  0
   51.7587    7.0149   15.6439 H   0  0  0  0  0  0  0  0  0  0  0  0
   46.6425    4.8455    9.7296 H   0  0  0  0  0  0  0  0  0  0  0  0
   45.9514    5.6039    8.4555 H   0  0  0  0  0  0  0  0  0  0  0  0
   43.8500   12.6785   10.7406 H   0  0  0  0  0  0  0  0  0  0  0  0
   43.6952    2.8724   10.6614 H   0  0  0  0  0  0  0  0  0  0  0  0
   45.3693    3.1179   11.1155 H   0  0  0  0  0  0  0  0  0  0  0  0
   49.4276    6.2923   14.9402 H   0  0  0  0  0  0  0  0  0  0  0  0
   49.6928    6.8868   13.2831 H   0  0  0  0  0  0  0  0  0  0  0  0
   43.7599    4.8752    9.1505 H   0  0  0  0  0  0  0  0  0  0  0  0
   44.8697    3.5826    8.6892 H   0  0  0  0  0  0  0  0  0  0  0  0
   49.9986    8.5777   15.8333 H   0  0  0  0  0  0  0  0  0  0  0  0
   50.3224    9.1239   14.1893 H   0  0  0  0  0  0  0  0  0  0  0  0
   44.2297    8.3451   11.9330 H   0  0  0  0  0  0  0  0  0  0  0  0
   46.2602    9.2246   12.9507 H   0  0  0  0  0  0  0  0  0  0  0  0
   49.2092    7.5689   13.2458 H   0  0  0  0  0  0  0  0  0  0  0  0
   45.3827    4.6568   11.5467 H   0  0  0  0  0  0  0  0  0  0  0  0
  1  3  1  0
  3  2  2  0
  4  1  2  0
  5  1  1  0
  2  6  1  0
  6  7  2  0
  6  8  1  0
 24 16  1  0
 25 14  1  0
 26 32  1  0
 27 31  1  0
 28 25  2  0
 29 23  1  0
 30 24  1  0
 31 29  1  0
 32 30  1  0
 16 20  2  0
 14 13  2  0
 19 28  1  0
 10  9  2  0
 11  9  1  0
 12 10  1  0
 13 11  1  0
 14 12  1  0
 15  9  1  0
 16 10  1  0
 17 11  2  0
 18 12  2  0
 19 22  2  0
 20 21  1  0
 21 15  2  0
 22 13  1  0
 23 15  1  0
 33 35  1  0
 35 34  2  0
 36 33  2  0
 37 33  1  0
 34 38  1  0
 38 39  2  0
 38 40  1  0
  2 41  1  0
  3 42  1  0
  5 43  1  0
  8 44  1  0
 20 45  1  0
 21 46  1  0
 22 47  1  0
 23 48  1  0
 24 49  1  0
 25 50  1  0
 26 51  1  0
 26 52  1  0
 27 53  1  0
 27 54  1  0
 28 55  1  0
 29 56  1  0
 29 57  1  0
 30 58  1  0
 30 59  1  0
 31 60  1  0
 31 61  1  0
 32 62  1  0
 32 63  1  0
 34 64  1  0
 35 65  1  0
 37 66  1  0
 40 67  1  0
M  END
> <Uni-Dock RESULT> 
ENERGY=   -7.163  LOWER_BOUND=    0.000  UPPER_BOUND=    0.000
INTER + INTRA:          -7.163
INTER:                  -7.163
INTRA:                   0.000
UNBOUND:                 0.000

$$$$

     RDKit          3D

 67 67  0  0  0  0  0  0  0  0999 V2000
   48.3715   10.5606   12.7640 C   0  0  0  0  0  0  0  0  0  0  0  0
   46.1376    9.6626   12.1574 C   0  0  0  0  0  0  0  0  0  0  0  0
   47.0466   10.6464   12.1353 C   0  0  0  0  0  0  0  0  0  0  0  0
   49.0014    9.5648   13.0578 O   0  0  0  0  0  0  0  0  0  0  0  0
   48.8608   11.7973   12.9504 O   0  0  0  0  0  0  0  0  0  0  0  0
   46.2865    8.4022   12.8884 C   0  0  0  0  0  0  0  0  0  0  0  0
   46.0530    7.2995   12.4318 O   0  0  0  0  0  0  0  0  0  0  0  0
   46.5922    8.6050   14.1777 O   0  0  0  0  0  0  0  0  0  0  0  0
   47.6638   10.5554   11.7004 C   0  0  0  0  0  0  0  0  0  0  0  0
   46.9937    9.3626   12.0358 C   0  0  0  0  0  0  0  0  0  0  0  0
   46.8781   11.7596   11.3129 C   0  0  0  0  0  0  0  0  0  0  0  0
   45.5033    9.3552   12.0854 C   0  0  0  0  0  0  0  0  0  0  0  0
   45.4162   11.7113   11.3480 C   0  0  0  0  0  0  0  0  0  0  0  0
   44.7465   10.5592   11.7127 C   0  0  0  0  0  0  0  0  0  0  0  0
   49.0758   10.6126   11.7360 C   0  0  0  0  0  0  0  0  0  0  0  0
   47.7225    8.1917   12.3765 C   0  0  0  0  0  0  0  0  0  0  0  0
   47.4183   12.7976   10.9396 O   0  0  0  0  0  0  0  0  0  0  0  0
   44.8765    8.3668   12.4598 O   0  0  0  0  0  0  0  0  0  0  0  0
   43.3046   12.8402   11.0219 N   0  0  0  0  0  0  0  0  0  0  0  0
   49.1208    8.2591   12.3500 C   0  0  0  0  0  0  0  0  0  0  0  0
   49.7837    9.4499   12.0545 C   0  0  0  0  0  0  0  0  0  0  0  0
   44.6603   12.8235   11.0110 C   0  0  0  0  0  0  0  0  0  0  0  0
   49.8015   11.7984   11.4791 N   0  0  0  0  0  0  0  0  0  0  0  0
   47.0762    6.9569   12.6019 N   0  0  0  0  0  0  0  0  0  0  0  0
   43.3491   10.5428   11.7344 C   0  0  0  0  0  0  0  0  0  0  0  0
   47.1525    3.9652   14.8988 N   0  0  0  0  0  0  0  0  0  0  0  0
   48.6997   12.2768   14.3859 N   0  0  0  0  0  0  0  0  0  0  0  0
   42.6789   11.6998   11.3828 C   0  0  0  0  0  0  0  0  0  0  0  0
   50.5402   12.3413   12.6315 C   0  0  0  0  0  0  0  0  0  0  0  0
   47.6130    6.0818   13.6480 C   0  0  0  0  0  0  0  0  0  0  0  0
   49.6412   13.1129   13.6281 C   0  0  0  0  0  0  0  0  0  0  0  0
   46.6452    4.9077   13.8983 C   0  0  0  0  0  0  0  0  0  0  0  0
   46.9116    8.6260   13.5214 C   0  0  0  0  0  0  0  0  0  0  0  0
   46.6449   10.5761   12.0088 C   0  0  0  0  0  0  0  0  0  0  0  0
   46.2469    9.3741   12.4461 C   0  0  0  0  0  0  0  0  0  0  0  0
   47.6242    9.0553   14.4061 O   0  0  0  0  0  0  0  0  0  0  0  0
   46.5843    7.3266   13.4337 O   0  0  0  0  0  0  0  0  0  0  0  0
   47.8483   11.2753   12.4648 C   0  0  0  0  0  0  0  0  0  0  0  0
   47.8945   12.4473   12.7864 O   0  0  0  0  0  0  0  0  0  0  0  0
   48.9409   10.5041   12.3704 O   0  0  0  0  0  0  0  0  0  0  0  0
   45.2152    9.7504   11.5961 H   0  0  0  0  0  0  0  0  0  0  0  0
   46.8418   11.5628   11.5942 H   0  0  0  0  0  0  0  0  0  0  0  0
   49.7343   11.6399   13.3661 H   0  0  0  0  0  0  0  0  0  0  0  0
   46.6972    7.7023   14.5424 H   0  0  0  0  0  0  0  0  0  0  0  0
   49.7249    7.3763   12.5387 H   0  0  0  0  0  0  0  0  0  0  0  0
   50.8713    9.4583   12.0408 H   0  0  0  0  0  0  0  0  0  0  0  0
   45.1272   13.7598   10.7140 H   0  0  0  0  0  0  0  0  0  0  0  0
   49.1504   12.5140   11.1212 H   0  0  0  0  0  0  0  0  0  0  0  0
   46.0661    7.1211   12.7328 H   0  0  0  0  0  0  0  0  0  0  0  0
   42.7963    9.6527   12.0183 H   0  0  0  0  0  0  0  0  0  0  0  0
   46.4687    3.2185   15.0226 H   0  0  0  0  0  0  0  0  0  0  0  0
   47.9940    3.5145   14.5399 H   0  0  0  0  0  0  0  0  0  0  0  0
   49.2126   11.5317   14.8562 H   0  0  0  0  0  0  0  0  0  0  0  0
   48.2668   12.8409   15.1159 H   0  0  0  0  0  0  0  0  0  0  0  0
   41.5930   11.7436   11.3818 H   0  0  0  0  0  0  0  0  0  0  0  0
   51.2761   13.0490   12.2318 H   0  0  0  0  0  0  0  0  0  0  0  0
   51.1159   11.5672   13.1525 H   0  0  0  0  0  0  0  0  0  0  0  0
   48.5829    5.6745   13.3404 H   0  0  0  0  0  0  0  0  0  0  0  0
   47.7507    6.6445   14.5799 H   0  0  0  0  0  0  0  0  0  0  0  0
   49.0712   13.8814   13.0943 H   0  0  0  0  0  0  0  0  0  0  0  0
   50.2906   13.6285   14.3451 H   0  0  0  0  0  0  0  0  0  0  0  0
   46.4613    4.3704   12.9606 H   0  0  0  0  0  0  0  0  0  0  0  0
   45.6792    5.2971   14.2394 H   0  0  0  0  0  0  0  0  0  0  0  0
   46.0588   11.1195   11.2774 H   0  0  0  0  0  0  0  0  0  0  0  0
   45.3589    8.9117   12.0309 H   0  0  0  0  0  0  0  0  0  0  0  0
   47.0663    6.9158   14.1816 H   0  0  0  0  0  0  0  0  0  0  0  0
   49.6586   11.0622   12.7337 H   0  0  0  0  0  0  0  0  0  0  0  0
  1  3  1  0
  3  2  2  0
  4  1  2  0
  5  1  1  0
  2  6  1  0
  6  7  2  0
  6  8  1  0
 24 16  1  0
 25 14  1  0
 26 32  1  0
 27 31  1  0
 28 25  2  0
 29 23  1  0
 30 24  1  0
 31 29  1  0
 32 30  1  0
 16 20  2  0
 14 13  2  0
 19 28  1  0
 10  9  2  0
 11  9  1  0
 12 10  1  0
 13 11  1  0
 14 12  1  0
 15  9  1  0
 16 10  1  0
 17 11  2  0
 18 12  2  0
 19 22  2  0
 20 21  1  0
 21 15  2  0
 22 13  1  0
 23 15  1  0
 33 35  1  0
 35 34  2  0
 36 33  2  0
 37 33  1  0
 34 38  1  0
 38 39  2  0
 38 40  1  0
  2 41  1  0
  3 42  1  0
  5 43  1  0
  8 44  1  0
 20 45  1  0
 21 46  1  0
 22 47  1  0
 23 48  1  0
 24 49  1  0
 25 50  1  0
 26 51  1  0
 26 52  1  0
 27 53  1  0
 27 54  1  0
 28 55  1  0
 29 56  1  0
 29 57  1  0
 30 58  1  0
 30 59  1  0
 31 60  1  0
 31 61  1  0
 32 62  1  0
 32 63  1  0
 34 64  1  0
 35 65  1  0
 37 66  1  0
 40 67  1  0
M  END
> <Uni-Dock RESULT> 
ENERGY=   -5.787  LOWER_BOUND=    2.444  UPPER_BOUND=    5.071
INTER + INTRA:          -5.787
INTER:                  -5.787
INTRA:                   0.000
UNBOUND:                 0.000

$$$$

     RDKit          3D

 67 67  0  0  0  0  0  0  0  0999 V2000
   43.3639   11.7548   10.9851 C   0  0  0  0  0  0  0  0  0  0  0  0
   45.6945   11.1045   11.5421 C   0  0  0  0  0  0  0  0  0  0  0  0
   44.4208   10.7793   11.2836 C   0  0  0  0  0  0  0  0  0  0  0  0
   43.4835   12.8893   10.5687 O   0  0  0  0  0  0  0  0  0  0  0  0
   42.1624   11.1943   11.1988 O   0  0  0  0  0  0  0  0  0  0  0  0
   46.2004   12.4736   11.6624 C   0  0  0  0  0  0  0  0  0  0  0  0
   47.2116   12.8925   11.1323 O   0  0  0  0  0  0  0  0  0  0  0  0
   45.4861   13.1956   12.5373 O   0  0  0  0  0  0  0  0  0  0  0  0
   44.1689   10.8538   10.5699 C   0  0  0  0  0  0  0  0  0  0  0  0
   45.3207   11.6057   10.8736 C   0  0  0  0  0  0  0  0  0  0  0  0
   44.0504    9.4534   11.0624 C   0  0  0  0  0  0  0  0  0  0  0  0
   46.3618   11.0140   11.7626 C   0  0  0  0  0  0  0  0  0  0  0  0
   45.1020    8.8943   11.9122 C   0  0  0  0  0  0  0  0  0  0  0  0
   46.2188    9.6343   12.2498 C   0  0  0  0  0  0  0  0  0  0  0  0
   43.1265   11.4261    9.8056 C   0  0  0  0  0  0  0  0  0  0  0  0
   45.4710   12.9319   10.3872 C   0  0  0  0  0  0  0  0  0  0  0  0
   43.1015    8.7346   10.7600 O   0  0  0  0  0  0  0  0  0  0  0  0
   47.3391   11.6621   12.1293 O   0  0  0  0  0  0  0  0  0  0  0  0
   45.9493    7.0258   13.1892 N   0  0  0  0  0  0  0  0  0  0  0  0
   44.4494   13.4559    9.5858 C   0  0  0  0  0  0  0  0  0  0  0  0
   43.2925   12.7252    9.3163 C   0  0  0  0  0  0  0  0  0  0  0  0
   45.0079    7.6001   12.4004 C   0  0  0  0  0  0  0  0  0  0  0  0
   41.9177   10.7474    9.5285 N   0  0  0  0  0  0  0  0  0  0  0  0
   46.6647   13.6605   10.5808 N   0  0  0  0  0  0  0  0  0  0  0  0
   47.2080    9.0722   13.0614 C   0  0  0  0  0  0  0  0  0  0  0  0
   47.9010   17.1152   11.4575 N   0  0  0  0  0  0  0  0  0  0  0  0
   41.5555   11.6089   12.5317 N   0  0  0  0  0  0  0  0  0  0  0  0
   47.0285    7.7740   13.5020 C   0  0  0  0  0  0  0  0  0  0  0  0
   40.7162   11.3329   10.1465 C   0  0  0  0  0  0  0  0  0  0  0  0
   46.5572   15.1008   10.8308 C   0  0  0  0  0  0  0  0  0  0  0  0
   40.5645   10.9811   11.6466 C   0  0  0  0  0  0  0  0  0  0  0  0
   47.9309   15.6659   11.2447 C   0  0  0  0  0  0  0  0  0  0  0  0
   45.4342   12.9397   11.8553 C   0  0  0  0  0  0  0  0  0  0  0  0
   44.7856   10.5879   11.3962 C   0  0  0  0  0  0  0  0  0  0  0  0
   45.7227   11.5187   11.6200 C   0  0  0  0  0  0  0  0  0  0  0  0
   44.4012   13.4414   12.2502 O   0  0  0  0  0  0  0  0  0  0  0  0
   46.5343   13.6687   11.6071 O   0  0  0  0  0  0  0  0  0  0  0  0
   43.3534   10.8603   11.2566 C   0  0  0  0  0  0  0  0  0  0  0  0
   42.4677   10.2368   11.8096 O   0  0  0  0  0  0  0  0  0  0  0  0
   43.1115   11.8086   10.3404 O   0  0  0  0  0  0  0  0  0  0  0  0
   46.4473   10.3349   11.6627 H   0  0  0  0  0  0  0  0  0  0  0  0
   44.1238    9.7377   11.2439 H   0  0  0  0  0  0  0  0  0  0  0  0
   41.5307   11.9093   10.9744 H   0  0  0  0  0  0  0  0  0  0  0  0
   45.8948   14.0847   12.5023 H   0  0  0  0  0  0  0  0  0  0  0  0
   44.5436   14.4398    9.1353 H   0  0  0  0  0  0  0  0  0  0  0  0
   42.5245   13.1676    8.6859 H   0  0  0  0  0  0  0  0  0  0  0  0
   44.1549    6.9659   12.1698 H   0  0  0  0  0  0  0  0  0  0  0  0
   42.0134    9.7650    9.8283 H   0  0  0  0  0  0  0  0  0  0  0  0
   47.2326   13.1958   11.3060 H   0  0  0  0  0  0  0  0  0  0  0  0
   48.0951    9.6303   13.3441 H   0  0  0  0  0  0  0  0  0  0  0  0
   48.8329   17.4258   11.7325 H   0  0  0  0  0  0  0  0  0  0  0  0
   47.7031   17.5811   10.5721 H   0  0  0  0  0  0  0  0  0  0  0  0
   41.5443   12.6183   12.3892 H   0  0  0  0  0  0  0  0  0  0  0  0
   41.2862   11.4465   13.5010 H   0  0  0  0  0  0  0  0  0  0  0  0
   47.7657    7.2870   14.1350 H   0  0  0  0  0  0  0  0  0  0  0  0
   39.8515   10.9140    9.6183 H   0  0  0  0  0  0  0  0  0  0  0  0
   40.6652   12.4181    9.9989 H   0  0  0  0  0  0  0  0  0  0  0  0
   46.2260   15.6191    9.9238 H   0  0  0  0  0  0  0  0  0  0  0  0
   45.8292   15.2942   11.6287 H   0  0  0  0  0  0  0  0  0  0  0  0
   40.6188    9.8948   11.7796 H   0  0  0  0  0  0  0  0  0  0  0  0
   39.5676   11.2995   11.9729 H   0  0  0  0  0  0  0  0  0  0  0  0
   48.6768   15.4319   10.4760 H   0  0  0  0  0  0  0  0  0  0  0  0
   48.2615   15.1810   12.1703 H   0  0  0  0  0  0  0  0  0  0  0  0
   45.0538    9.5409   11.3226 H   0  0  0  0  0  0  0  0  0  0  0  0
   46.7672   11.2351   11.6776 H   0  0  0  0  0  0  0  0  0  0  0  0
   46.2486   14.5881   11.7906 H   0  0  0  0  0  0  0  0  0  0  0  0
   42.1396   11.9236   10.3673 H   0  0  0  0  0  0  0  0  0  0  0  0
  1  3  1  0
  3  2  2  0
  4  1  2  0
  5  1  1  0
  2  6  1  0
  6  7  2  0
  6  8  1  0
 24 16  1  0
 25 14  1  0
 26 32  1  0
 27 31  1  0
 28 25  2  0
 29 23  1  0
 30 24  1  0
 31 29  1  0
 32 30  1  0
 16 20  2  0
 14 13  2  0
 19 28  1  0
 10  9  2  0
 11  9  1  0
 12 10  1  0
 13 11  1  0
 14 12  1  0
 15  9  1  0
 16 10  1  0
 17 11  2  0
 18 12  2  0
 19 22  2  0
 20 21  1  0
 21 15  2  0
 22 13  1  0
 23 15  1  0
 33 35  1  0
 35 34  2  0
 36 33  2  0
 37 33  1  0
 34 38  1  0
 38 39  2  0
 38 40  1  0
  2 41  1  0
  3 42  1  0
  5 43  1  0
  8 44  1  0
 20 45  1  0
 21 46  1  0
 22 47  1  0
 23 48  1  0
 24 49  1  0
 25 50  1  0
 26 51  1  0
 26 52  1  0
 27 53  1  0
 27 54  1  0
 28 55  1  0
 29 56  1  0
 29 57  1  0
 30 58  1  0
 30 59  1  0
 31 60  1  0
 31 61  1  0
 32 62  1  0
 32 63  1  0
 34 64  1  0
 35 65  1  0
 37 66  1  0
 40 67  1  0
M  END
> <Uni-Dock RESULT> 
ENERGY=   -5.359  LOWER_BOUND=    3.008  UPPER_BOUND=    6.099
INTER + INTRA:          -5.359
INTER:                  -5.359
INTRA:                   0.000
UNBOUND:                 0.000

$$$$

     RDKit          3D

 67 67  0  0  0  0  0  0  0  0999 V2000
   44.9366   12.0287   10.7455 C   0  0  0  0  0  0  0  0  0  0  0  0
   43.8611    9.8616   11.3042 C   0  0  0  0  0  0  0  0  0  0  0  0
   44.9314   10.6673   11.2974 C   0  0  0  0  0  0  0  0  0  0  0  0
   43.9917   12.7690   10.5613 O   0  0  0  0  0  0  0  0  0  0  0  0
   46.2002   12.4049   10.4904 O   0  0  0  0  0  0  0  0  0  0  0  0
   42.5738   10.1755   10.6803 C   0  0  0  0  0  0  0  0  0  0  0  0
   41.4882   10.0246   11.2074 O   0  0  0  0  0  0  0  0  0  0  0  0
   42.7145   10.5347    9.3966 O   0  0  0  0  0  0  0  0  0  0  0  0
   44.9348   11.2639   11.7689 C   0  0  0  0  0  0  0  0  0  0  0  0
   43.6592   10.7344   11.4919 C   0  0  0  0  0  0  0  0  0  0  0  0
   46.0773   10.3430   12.0225 C   0  0  0  0  0  0  0  0  0  0  0  0
   43.4966    9.2573   11.3670 C   0  0  0  0  0  0  0  0  0  0  0  0
   45.8781    8.8974   11.9167 C   0  0  0  0  0  0  0  0  0  0  0  0
   44.6408    8.3659   11.6073 C   0  0  0  0  0  0  0  0  0  0  0  0
   45.1328   12.6633   11.8012 C   0  0  0  0  0  0  0  0  0  0  0  0
   42.5474   11.5927   11.2794 C   0  0  0  0  0  0  0  0  0  0  0  0
   47.1887   10.7564   12.3425 O   0  0  0  0  0  0  0  0  0  0  0  0
   42.4256    8.7531   11.0378 O   0  0  0  0  0  0  0  0  0  0  0  0
   46.8065    6.6701   12.0472 N   0  0  0  0  0  0  0  0  0  0  0  0
   42.7585   12.9739   11.3721 C   0  0  0  0  0  0  0  0  0  0  0  0
   44.0285   13.4988   11.6091 C   0  0  0  0  0  0  0  0  0  0  0  0
   46.9287    8.0180   12.1286 C   0  0  0  0  0  0  0  0  0  0  0  0
   46.4015   13.2533   12.0033 N   0  0  0  0  0  0  0  0  0  0  0  0
   41.2404   11.0845   11.1164 N   0  0  0  0  0  0  0  0  0  0  0  0
   44.4807    6.9806   11.5157 C   0  0  0  0  0  0  0  0  0  0  0  0
   38.1165   11.5870    9.0619 N   0  0  0  0  0  0  0  0  0  0  0  0
   46.5577   12.2819    9.0160 N   0  0  0  0  0  0  0  0  0  0  0  0
   45.5856    6.1811   11.7431 C   0  0  0  0  0  0  0  0  0  0  0  0
   46.9336   14.0016   10.8521 C   0  0  0  0  0  0  0  0  0  0  0  0
   40.3524   11.7646   10.1691 C   0  0  0  0  0  0  0  0  0  0  0  0
   47.5369   13.0912    9.7547 C   0  0  0  0  0  0  0  0  0  0  0  0
   39.0711   10.9324    9.9603 C   0  0  0  0  0  0  0  0  0  0  0  0
   42.8145   10.8117   10.0648 C   0  0  0  0  0  0  0  0  0  0  0  0
   44.8298   10.2677   11.4082 C   0  0  0  0  0  0  0  0  0  0  0  0
   43.5655   10.0153   11.0444 C   0  0  0  0  0  0  0  0  0  0  0  0
   43.2502   11.5293    9.1873 O   0  0  0  0  0  0  0  0  0  0  0  0
   41.4981   10.6083   10.2348 O   0  0  0  0  0  0  0  0  0  0  0  0
   45.6136   11.4216   10.9621 C   0  0  0  0  0  0  0  0  0  0  0  0
   46.7585   11.3717   10.5546 O   0  0  0  0  0  0  0  0  0  0  0  0
   44.9663   12.5769   11.1708 O   0  0  0  0  0  0  0  0  0  0  0  0
   43.8942    8.9039   11.8093 H   0  0  0  0  0  0  0  0  0  0  0  0
   45.8583   10.3426   11.7557 H   0  0  0  0  0  0  0  0  0  0  0  0
   46.1035   13.3124   10.1331 H   0  0  0  0  0  0  0  0  0  0  0  0
   41.8037   10.7486    9.1078 H   0  0  0  0  0  0  0  0  0  0  0  0
   41.9306   13.6714   11.2825 H   0  0  0  0  0  0  0  0  0  0  0  0
   44.1486   14.5777   11.6776 H   0  0  0  0  0  0  0  0  0  0  0  0
   47.9263    8.3731   12.3765 H   0  0  0  0  0  0  0  0  0  0  0  0
   47.0708   12.5156   12.2717 H   0  0  0  0  0  0  0  0  0  0  0  0
   41.2912   10.0726   10.9220 H   0  0  0  0  0  0  0  0  0  0  0  0
   43.5211    6.5349   11.2728 H   0  0  0  0  0  0  0  0  0  0  0  0
   37.2971   10.9879    8.9609 H   0  0  0  0  0  0  0  0  0  0  0  0
   37.7804   12.4461    9.4968 H   0  0  0  0  0  0  0  0  0  0  0  0
   45.8372   12.8917    8.6308 H   0  0  0  0  0  0  0  0  0  0  0  0
   47.0216   11.8392    8.2239 H   0  0  0  0  0  0  0  0  0  0  0  0
   45.5185    5.0979   11.6853 H   0  0  0  0  0  0  0  0  0  0  0  0
   47.7391   14.6401   11.2335 H   0  0  0  0  0  0  0  0  0  0  0  0
   46.1871   14.6795   10.4218 H   0  0  0  0  0  0  0  0  0  0  0  0
   40.0688   12.7500   10.5560 H   0  0  0  0  0  0  0  0  0  0  0  0
   40.8586   11.9008    9.2051 H   0  0  0  0  0  0  0  0  0  0  0  0
   48.2794   12.4186   10.1984 H   0  0  0  0  0  0  0  0  0  0  0  0
   48.0638   13.7279    9.0345 H   0  0  0  0  0  0  0  0  0  0  0  0
   38.5858   10.7474   10.9257 H   0  0  0  0  0  0  0  0  0  0  0  0
   39.3349    9.9545    9.5414 H   0  0  0  0  0  0  0  0  0  0  0  0
   45.3613    9.5895   12.0650 H   0  0  0  0  0  0  0  0  0  0  0  0
   43.0458    9.1540   11.4478 H   0  0  0  0  0  0  0  0  0  0  0  0
   41.0864   11.1711    9.5460 H   0  0  0  0  0  0  0  0  0  0  0  0
   45.5674   13.2566   10.8031 H   0  0  0  0  0  0  0  0  0  0  0  0
  1  3  1  0
  3  2  2  0
  4  1  2  0
  5  1  1  0
  2  6  1  0
  6  7  2  0
  6  8  1  0
 24 16  1  0
 25 14  1  0
 26 32  1  0
 27 31  1  0
 28 25  2  0
 29 23  1  0
 30 24  1  0
 31 29  1  0
 32 30  1  0
 16 20  2  0
 14 13  2  0
 19 28  1  0
 10  9  2  0
 11  9  1  0
 12 10  1  0
 13 11  1  0
 14 12  1  0
 15  9  1  0
 16 10  1  0
 17 11  2  0
 18 12  2  0
 19 22  2  0
 20 21  1  0
 21 15  2  0
 22 13  1  0
 23 15  1  0
 33 35  1  0
 35 34  2  0
 36 33  2  0
 37 33  1  0
 34 38  1  0
 38 39  2  0
 38 40  1  0
  2 41  1  0
  3 42  1  0
  5 43  1  0
  8 44  1  0
 20 45  1  0
 21 46  1  0
 22 47  1  0
 23 48  1  0
 24 49  1  0
 25 50  1  0
 26 51  1  0
 26 52  1  0
 27 53  1  0
 27 54  1  0
 28 55  1  0
 29 56  1  0
 29 57  1  0
 30 58  1  0
 30 59  1  0
 31 60  1  0
 31 61  1  0
 32 62  1  0
 32 63  1  0
 34 64  1  0
 35 65  1  0
 37 66  1  0
 40 67  1  0
M  END
> <Uni-Dock RESULT> 
ENERGY=   -5.290  LOWER_BOUND=    2.711  UPPER_BOUND=    7.026
INTER + INTRA:          -5.290
INTER:                  -5.290
INTRA:                   0.000
UNBOUND:                 0.000

$$$$

     RDKit          3D

 67 67  0  0  0  0  0  0  0  0999 V2000
   48.3830    9.5185   12.9614 C   0  0  0  0  0  0  0  0  0  0  0  0
   46.2112   10.2071   11.9747 C   0  0  0  0  0  0  0  0  0  0  0  0
   47.4908   10.4637   12.2771 C   0  0  0  0  0  0  0  0  0  0  0  0
   48.2848    8.3103   13.0349 O   0  0  0  0  0  0  0  0  0  0  0  0
   49.4176   10.1858   13.4979 O   0  0  0  0  0  0  0  0  0  0  0  0
   45.4863    8.9956   12.3641 C   0  0  0  0  0  0  0  0  0  0  0  0
   44.7892    8.3310   11.6215 O   0  0  0  0  0  0  0  0  0  0  0  0
   45.5725    8.7629   13.6814 O   0  0  0  0  0  0  0  0  0  0  0  0
   48.0322   10.1047   11.8818 C   0  0  0  0  0  0  0  0  0  0  0  0
   46.7652    9.4901   11.8453 C   0  0  0  0  0  0  0  0  0  0  0  0
   48.1385   11.5851   11.7601 C   0  0  0  0  0  0  0  0  0  0  0  0
   45.5446   10.3442   11.7775 C   0  0  0  0  0  0  0  0  0  0  0  0
   46.9217   12.3924   11.6699 C   0  0  0  0  0  0  0  0  0  0  0  0
   45.6710   11.8052   11.6723 C   0  0  0  0  0  0  0  0  0  0  0  0
   49.1987    9.3216   12.0385 C   0  0  0  0  0  0  0  0  0  0  0  0
   46.6410    8.0773   11.9263 C   0  0  0  0  0  0  0  0  0  0  0  0
   49.2235   12.1584   11.7101 O   0  0  0  0  0  0  0  0  0  0  0  0
   44.4165    9.8606   11.8347 O   0  0  0  0  0  0  0  0  0  0  0  0
   45.9007   14.5750   11.4867 N   0  0  0  0  0  0  0  0  0  0  0  0
   47.8151    7.3207   12.0248 C   0  0  0  0  0  0  0  0  0  0  0  0
   49.0668    7.9311   12.0986 C   0  0  0  0  0  0  0  0  0  0  0  0
   46.9909   13.7738   11.5753 C   0  0  0  0  0  0  0  0  0  0  0  0
   50.4902    9.8850   12.1531 N   0  0  0  0  0  0  0  0  0  0  0  0
   45.3935    7.4340   11.7748 N   0  0  0  0  0  0  0  0  0  0  0  0
   44.5267   12.6025   11.5823 C   0  0  0  0  0  0  0  0  0  0  0  0
   43.3299    4.6255   13.2191 N   0  0  0  0  0  0  0  0  0  0  0  0
   49.2469   10.4207   14.9919 N   0  0  0  0  0  0  0  0  0  0  0  0
   44.6929   13.9720   11.4918 C   0  0  0  0  0  0  0  0  0  0  0  0
   51.1423    9.6935   13.4595 C   0  0  0  0  0  0  0  0  0  0  0  0
   45.1271    6.2501   12.5969 C   0  0  0  0  0  0  0  0  0  0  0  0
   50.6271   10.6641   14.5502 C   0  0  0  0  0  0  0  0  0  0  0  0
   43.6474    5.8382   12.4606 C   0  0  0  0  0  0  0  0  0  0  0  0
   45.9811    8.7034   13.0792 C   0  0  0  0  0  0  0  0  0  0  0  0
   47.1539   10.6631   12.1064 C   0  0  0  0  0  0  0  0  0  0  0  0
   46.0805    9.8657   12.1864 C   0  0  0  0  0  0  0  0  0  0  0  0
   46.6061    8.4816   14.0966 O   0  0  0  0  0  0  0  0  0  0  0  0
   45.0224    7.8753   12.6339 O   0  0  0  0  0  0  0  0  0  0  0  0
   48.4147   10.4418   12.8181 C   0  0  0  0  0  0  0  0  0  0  0  0
   49.0267   11.2932   13.4343 O   0  0  0  0  0  0  0  0  0  0  0  0
   48.8959    9.2077   12.6112 O   0  0  0  0  0  0  0  0  0  0  0  0
   45.6315   10.9083   11.3866 H   0  0  0  0  0  0  0  0  0  0  0  0
   47.9418   11.4026   11.9773 H   0  0  0  0  0  0  0  0  0  0  0  0
   49.9504    9.4822   13.9241 H   0  0  0  0  0  0  0  0  0  0  0  0
   45.0855    7.9228   13.8073 H   0  0  0  0  0  0  0  0  0  0  0  0
   47.7801    6.2350   12.0243 H   0  0  0  0  0  0  0  0  0  0  0  0
   49.9544    7.3065   12.1706 H   0  0  0  0  0  0  0  0  0  0  0  0
   47.9448   14.2962   11.5670 H   0  0  0  0  0  0  0  0  0  0  0  0
   50.4313   10.8934   11.9438 H   0  0  0  0  0  0  0  0  0  0  0  0
   44.6384    8.1311   11.8663 H   0  0  0  0  0  0  0  0  0  0  0  0
   43.5314   12.1691   11.5835 H   0  0  0  0  0  0  0  0  0  0  0  0
   42.3410    4.4092   13.0931 H   0  0  0  0  0  0  0  0  0  0  0  0
   43.8395    3.8368   12.8211 H   0  0  0  0  0  0  0  0  0  0  0  0
   49.1541    9.4506   15.2914 H   0  0  0  0  0  0  0  0  0  0  0  0
   49.0516   10.9994   15.8077 H   0  0  0  0  0  0  0  0  0  0  0  0
   43.8384   14.6396   11.4193 H   0  0  0  0  0  0  0  0  0  0  0  0
   52.2101    9.8946   13.3137 H   0  0  0  0  0  0  0  0  0  0  0  0
   51.0736    8.6553   13.8050 H   0  0  0  0  0  0  0  0  0  0  0  0
   45.7536    5.4126   12.2693 H   0  0  0  0  0  0  0  0  0  0  0  0
   45.3501    6.4614   13.6503 H   0  0  0  0  0  0  0  0  0  0  0  0
   50.7001   11.6968   14.1914 H   0  0  0  0  0  0  0  0  0  0  0  0
   51.2839   10.5759   15.4235 H   0  0  0  0  0  0  0  0  0  0  0  0
   43.4021    5.6749   11.4046 H   0  0  0  0  0  0  0  0  0  0  0  0
   43.0071    6.6535   12.8161 H   0  0  0  0  0  0  0  0  0  0  0  0
   47.1321   11.5591   11.4980 H   0  0  0  0  0  0  0  0  0  0  0  0
   45.1961   10.0847   11.5994 H   0  0  0  0  0  0  0  0  0  0  0  0
   45.0292    7.1425   13.2847 H   0  0  0  0  0  0  0  0  0  0  0  0
   49.7060    9.1727   13.1600 H   0  0  0  0  0  0  0  0  0  0  0  0
  1  3  1  0
  3  2  2  0
  4  1  2  0
  5  1  1  0
  2  6  1  0
  6  7  2  0
  6  8  1  0
 24 16  1  0
 25 14  1  0
 26 32  1  0
 27 31  1  0
 28 25  2  0
 29 23  1  0
 30 24  1  0
 31 29  1  0
 32 30  1  0
 16 20  2  0
 14 13  2  0
 19 28  1  0
 10  9  2  0
 11  9  1  0
 12 10  1  0
 13 11  1  0
 14 12  1  0
 15  9  1  0
 16 10  1  0
 17 11  2  0
 18 12  2  0
 19 22  2  0
 20 21  1  0
 21 15  2  0
 22 13  1  0
 23 15  1  0
 33 35  1  0
 35 34  2  0
 36 33  2  0
 37 33  1  0
 34 38  1  0
 38 39  2  0
 38 40  1  0
  2 41  1  0
  3 42  1  0
  5 43  1  0
  8 44  1  0
 20 45  1  0
 21 46  1  0
 22 47  1  0
 23 48  1  0
 24 49  1  0
 25 50  1  0
 26 51  1  0
 26 52  1  0
 27 53  1  0
 27 54  1  0
 28 55  1  0
 29 56  1  0
 29 57  1  0
 30 58  1  0
 30 59  1  0
 31 60  1  0
 31 61  1  0
 32 62  1  0
 32 63  1  0
 34 64  1  0
 35 65  1  0
 37 66  1  0
 40 67  1  0
M  END
> <Uni-Dock RESULT> 
ENERGY=   -5.167  LOWER_BOUND=    2.232  UPPER_BOUND=    5.222
INTER + INTRA:          -5.167
INTER:                  -5.167
INTRA:                   0.000
UNBOUND:                 0.000

$$$$

     RDKit          3D

 67 67  0  0  0  0  0  0  0  0999 V2000
   46.1846   12.3045   10.5570 C   0  0  0  0  0  0  0  0  0  0  0  0
   45.5247   10.2887   11.8478 C   0  0  0  0  0  0  0  0  0  0  0  0
   46.4529   11.1688   11.4493 C   0  0  0  0  0  0  0  0  0  0  0  0
   45.1240   12.8531   10.3361 O   0  0  0  0  0  0  0  0  0  0  0  0
   47.3355   12.7251   10.0073 O   0  0  0  0  0  0  0  0  0  0  0  0
   44.1368   10.2676   11.3808 C   0  0  0  0  0  0  0  0  0  0  0  0
   43.1611   10.1592   12.0986 O   0  0  0  0  0  0  0  0  0  0  0  0
   44.0596   10.2530   10.0426 O   0  0  0  0  0  0  0  0  0  0  0  0
   46.4262   11.8730   11.7350 C   0  0  0  0  0  0  0  0  0  0  0  0
   45.2196   11.1514   11.8231 C   0  0  0  0  0  0  0  0  0  0  0  0
   47.7164   11.1941   12.0383 C   0  0  0  0  0  0  0  0  0  0  0  0
   45.2657    9.6927   12.1301 C   0  0  0  0  0  0  0  0  0  0  0  0
   47.7242    9.7670   12.3609 C   0  0  0  0  0  0  0  0  0  0  0  0
   46.5515    9.0382   12.4125 C   0  0  0  0  0  0  0  0  0  0  0  0
   46.4148   13.2347   11.3553 C   0  0  0  0  0  0  0  0  0  0  0  0
   43.9741   11.7860   11.5707 C   0  0  0  0  0  0  0  0  0  0  0  0
   48.7846   11.8000   12.0491 O   0  0  0  0  0  0  0  0  0  0  0  0
   44.2494    9.0021   12.1285 O   0  0  0  0  0  0  0  0  0  0  0  0
   48.9846    7.7868   12.9352 N   0  0  0  0  0  0  0  0  0  0  0  0
   43.9858   13.1492   11.2511 C   0  0  0  0  0  0  0  0  0  0  0  0
   45.1826   13.8544   11.1272 C   0  0  0  0  0  0  0  0  0  0  0  0
   48.9128    9.1055   12.6283 C   0  0  0  0  0  0  0  0  0  0  0  0
   47.5961   13.9916   11.1810 N   0  0  0  0  0  0  0  0  0  0  0  0
   42.7478   11.1142   11.7663 N   0  0  0  0  0  0  0  0  0  0  0  0
   46.5904    7.6768   12.7259 C   0  0  0  0  0  0  0  0  0  0  0  0
   39.3506   10.6599   10.1900 N   0  0  0  0  0  0  0  0  0  0  0  0
   47.5191   12.2201    8.5832 N   0  0  0  0  0  0  0  0  0  0  0  0
   47.8222    7.1017   12.9776 C   0  0  0  0  0  0  0  0  0  0  0  0
   47.8611   14.4276    9.7997 C   0  0  0  0  0  0  0  0  0  0  0  0
   41.6560   11.3908   10.8283 C   0  0  0  0  0  0  0  0  0  0  0  0
   48.4511   13.3095    8.9060 C   0  0  0  0  0  0  0  0  0  0  0  0
   40.4978   10.4004   11.0638 C   0  0  0  0  0  0  0  0  0  0  0  0
   44.2002   10.7206   10.5856 C   0  0  0  0  0  0  0  0  0  0  0  0
   46.4270   10.8098   11.6790 C   0  0  0  0  0  0  0  0  0  0  0  0
   45.1791   10.3278   11.6079 C   0  0  0  0  0  0  0  0  0  0  0  0
   44.4096   11.1963    9.4881 O   0  0  0  0  0  0  0  0  0  0  0  0
   42.9610   10.4340   11.0164 O   0  0  0  0  0  0  0  0  0  0  0  0
   46.9668   11.8629   10.8162 C   0  0  0  0  0  0  0  0  0  0  0  0
   48.0457   11.8214   10.2564 O   0  0  0  0  0  0  0  0  0  0  0  0
   46.1852   12.9521   10.8076 O   0  0  0  0  0  0  0  0  0  0  0  0
   45.7641    9.5276   12.5805 H   0  0  0  0  0  0  0  0  0  0  0  0
   47.4681   11.0928   11.8209 H   0  0  0  0  0  0  0  0  0  0  0  0
   47.0598   13.4744    9.4388 H   0  0  0  0  0  0  0  0  0  0  0  0
   43.0979   10.2743    9.8592 H   0  0  0  0  0  0  0  0  0  0  0  0
   43.0582   13.6972   11.1126 H   0  0  0  0  0  0  0  0  0  0  0  0
   45.1474   14.9134   10.8812 H   0  0  0  0  0  0  0  0  0  0  0  0
   49.8692    9.6228   12.6051 H   0  0  0  0  0  0  0  0  0  0  0  0
   48.3966   13.4400   11.5259 H   0  0  0  0  0  0  0  0  0  0  0  0
   42.9247   10.1009   11.8469 H   0  0  0  0  0  0  0  0  0  0  0  0
   45.6855    7.0789   12.7722 H   0  0  0  0  0  0  0  0  0  0  0  0
   38.6241    9.9722   10.3895 H   0  0  0  0  0  0  0  0  0  0  0  0
   38.9470   11.5664   10.4253 H   0  0  0  0  0  0  0  0  0  0  0  0
   46.6727   12.6108    8.1704 H   0  0  0  0  0  0  0  0  0  0  0  0
   47.9406   11.6201    7.8756 H   0  0  0  0  0  0  0  0  0  0  0  0
   47.9114    6.0474   13.2264 H   0  0  0  0  0  0  0  0  0  0  0  0
   48.6034   15.2324    9.8578 H   0  0  0  0  0  0  0  0  0  0  0  0
   46.9733   14.8672    9.3298 H   0  0  0  0  0  0  0  0  0  0  0  0
   41.2790   12.4093   10.9755 H   0  0  0  0  0  0  0  0  0  0  0  0
   42.0108   11.2962    9.7943 H   0  0  0  0  0  0  0  0  0  0  0  0
   49.3358   12.8785    9.3877 H   0  0  0  0  0  0  0  0  0  0  0  0
   48.7819   13.7636    7.9647 H   0  0  0  0  0  0  0  0  0  0  0  0
   40.1710   10.4513   12.1089 H   0  0  0  0  0  0  0  0  0  0  0  0
   40.8503    9.3777   10.8875 H   0  0  0  0  0  0  0  0  0  0  0  0
   47.1323   10.4123   12.3988 H   0  0  0  0  0  0  0  0  0  0  0  0
   44.8492    9.5691   12.3081 H   0  0  0  0  0  0  0  0  0  0  0  0
   42.3863   10.7255   10.2778 H   0  0  0  0  0  0  0  0  0  0  0  0
   46.6266   13.5572   10.1771 H   0  0  0  0  0  0  0  0  0  0  0  0
  1  3  1  0
  3  2  2  0
  4  1  2  0
  5  1  1  0
  2  6  1  0
  6  7  2  0
  6  8  1  0
 24 16  1  0
 25 14  1  0
 26 32  1  0
 27 31  1  0
 28 25  2  0
 29 23  1  0
 30 24  1  0
 31 29  1  0
 32 30  1  0
 16 20  2  0
 14 13  2  0
 19 28  1  0
 10  9  2  0
 11  9  1  0
 12 10  1  0
 13 11  1  0
 14 12  1  0
 15  9  1  0
 16 10  1  0
 17 11  2  0
 18 12  2  0
 19 22  2  0
 20 21  1  0
 21 15  2  0
 22 13  1  0
 23 15  1  0
 33 35  1  0
 35 34  2  0
 36 33  2  0
 37 33  1  0
 34 38  1  0
 38 39  2  0
 38 40  1  0
  2 41  1  0
  3 42  1  0
  5 43  1  0
  8 44  1  0
 20 45  1  0
 21 46  1  0
 22 47  1  0
 23 48  1  0
 24 49  1  0
 25 50  1  0
 26 51  1  0
 26 52  1  0
 27 53  1  0
 27 54  1  0
 28 55  1  0
 29 56  1  0
 29 57  1  0
 30 58  1  0
 30 59  1  0
 31 60  1  0
 31 61  1  0
 32 62  1  0
 32 63  1  0
 34 64  1  0
 35 65  1  0
 37 66  1  0
 40 67  1  0
M  END
> <Uni-Dock RESULT> 
ENERGY=   -5.159  LOWER_BOUND=    2.928  UPPER_BOUND=    6.876
INTER + INTRA:          -5.159
INTER:                  -5.159
INTRA:                   0.000
UNBOUND:                 0.000

$$$$

     RDKit          3D

 67 67  0  0  0  0  0  0  0  0999 V2000
   46.1839   12.3018   10.5584 C   0  0  0  0  0  0  0  0  0  0  0  0
   45.5260   10.2855   11.8492 C   0  0  0  0  0  0  0  0  0  0  0  0
   46.4533   11.1663   11.4505 C   0  0  0  0  0  0  0  0  0  0  0  0
   45.1228   12.8497   10.3380 O   0  0  0  0  0  0  0  0  0  0  0  0
   47.3343   12.7234   10.0084 O   0  0  0  0  0  0  0  0  0  0  0  0
   44.1379   10.2633   11.3827 C   0  0  0  0  0  0  0  0  0  0  0  0
   43.1625   10.1541   12.1009 O   0  0  0  0  0  0  0  0  0  0  0  0
   44.0602   10.2489   10.0446 O   0  0  0  0  0  0  0  0  0  0  0  0
   46.4262   11.8705   11.7363 C   0  0  0  0  0  0  0  0  0  0  0  0
   45.2202   11.1479   11.8247 C   0  0  0  0  0  0  0  0  0  0  0  0
   47.7170   11.1924   12.0391 C   0  0  0  0  0  0  0  0  0  0  0  0
   45.2675    9.6892   12.1316 C   0  0  0  0  0  0  0  0  0  0  0  0
   47.7260    9.7653   12.3615 C   0  0  0  0  0  0  0  0  0  0  0  0
   46.5539    9.0357   12.4135 C   0  0  0  0  0  0  0  0  0  0  0  0
   46.4137   13.2322   11.3567 C   0  0  0  0  0  0  0  0  0  0  0  0
   43.9741   11.7816   11.5728 C   0  0  0  0  0  0  0  0  0  0  0  0
   48.7848   11.7992   12.0496 O   0  0  0  0  0  0  0  0  0  0  0  0
   44.2517    8.9979   12.1302 O   0  0  0  0  0  0  0  0  0  0  0  0
   48.9881    7.7860   12.9352 N   0  0  0  0  0  0  0  0  0  0  0  0
   43.9848   13.1449   11.2534 C   0  0  0  0  0  0  0  0  0  0  0  0
   45.1809   13.8510   11.1292 C   0  0  0  0  0  0  0  0  0  0  0  0
   48.9152    9.1047   12.6284 C   0  0  0  0  0  0  0  0  0  0  0  0
   47.5943   13.9899   11.1821 N   0  0  0  0  0  0  0  0  0  0  0  0
   42.7485   11.1088   11.7688 N   0  0  0  0  0  0  0  0  0  0  0  0
   46.5939    7.6742   12.7267 C   0  0  0  0  0  0  0  0  0  0  0  0
   39.3510   10.6522   10.1936 N   0  0  0  0  0  0  0  0  0  0  0  0
   47.5177   12.2187    8.5842 N   0  0  0  0  0  0  0  0  0  0  0  0
   47.8263    7.1000   12.9779 C   0  0  0  0  0  0  0  0  0  0  0  0
   47.8585   14.4263    9.8007 C   0  0  0  0  0  0  0  0  0  0  0  0
   41.6561   11.3848   10.8313 C   0  0  0  0  0  0  0  0  0  0  0  0
   48.4491   13.3087    8.9067 C   0  0  0  0  0  0  0  0  0  0  0  0
   40.4987   10.3935   11.0670 C   0  0  0  0  0  0  0  0  0  0  0  0
   44.2007   10.7164   10.5876 C   0  0  0  0  0  0  0  0  0  0  0  0
   46.4278   10.8072   11.6802 C   0  0  0  0  0  0  0  0  0  0  0  0
   45.1802   10.3243   11.6095 C   0  0  0  0  0  0  0  0  0  0  0  0
   44.4094   11.1925    9.4900 O   0  0  0  0  0  0  0  0  0  0  0  0
   42.9619   10.4289   11.0187 O   0  0  0  0  0  0  0  0  0  0  0  0
   46.9665   11.8608   10.8173 C   0  0  0  0  0  0  0  0  0  0  0  0
   48.0453   11.8202   10.2571 O   0  0  0  0  0  0  0  0  0  0  0  0
   46.1841   12.9495   10.8091 O   0  0  0  0  0  0  0  0  0  0  0  0
   45.7662    9.5244   12.5817 H   0  0  0  0  0  0  0  0  0  0  0  0
   47.4688   11.0910   11.8217 H   0  0  0  0  0  0  0  0  0  0  0  0
   47.0578   13.4725    9.4401 H   0  0  0  0  0  0  0  0  0  0  0  0
   43.0985   10.2695    9.8615 H   0  0  0  0  0  0  0  0  0  0  0  0
   43.0567   13.6922   11.1153 H   0  0  0  0  0  0  0  0  0  0  0  0
   45.1448   14.9099   10.8833 H   0  0  0  0  0  0  0  0  0  0  0  0
   49.8713    9.6227   12.6050 H   0  0  0  0  0  0  0  0  0  0  0  0
   48.3954   13.4389   11.5267 H   0  0  0  0  0  0  0  0  0  0  0  0
   42.9261   10.0957   11.8492 H   0  0  0  0  0  0  0  0  0  0  0  0
   45.6895    7.0757   12.7732 H   0  0  0  0  0  0  0  0  0  0  0  0
   38.6251    9.9639   10.3933 H   0  0  0  0  0  0  0  0  0  0  0  0
   38.9468   11.5584   10.4292 H   0  0  0  0  0  0  0  0  0  0  0  0
   46.6709   12.6088    8.1717 H   0  0  0  0  0  0  0  0  0  0  0  0
   47.9395   11.6191    7.8763 H   0  0  0  0  0  0  0  0  0  0  0  0
   47.9163    6.0458   13.2265 H   0  0  0  0  0  0  0  0  0  0  0  0
   48.6002   15.2316    9.8587 H   0  0  0  0  0  0  0  0  0  0  0  0
   46.9703   14.8653    9.3313 H   0  0  0  0  0  0  0  0  0  0  0  0
   41.2784   12.4030   10.9787 H   0  0  0  0  0  0  0  0  0  0  0  0
   42.0106   11.2905    9.7971 H   0  0  0  0  0  0  0  0  0  0  0  0
   49.3342   12.8783    9.3881 H   0  0  0  0  0  0  0  0  0  0  0  0
   48.7792   13.7632    7.9654 H   0  0  0  0  0  0  0  0  0  0  0  0
   40.1722   10.4440   12.1123 H   0  0  0  0  0  0  0  0  0  0  0  0
   40.8519    9.3711   10.8905 H   0  0  0  0  0  0  0  0  0  0  0  0
   47.1337   10.4102   12.3997 H   0  0  0  0  0  0  0  0  0  0  0  0
   44.8511    9.5653   12.3097 H   0  0  0  0  0  0  0  0  0  0  0  0
   42.3867   10.7200   10.2804 H   0  0  0  0  0  0  0  0  0  0  0  0
   46.6248   13.5550   10.1785 H   0  0  0  0  0  0  0  0  0  0  0  0
  1  3  1  0
  3  2  2  0
  4  1  2  0
  5  1  1  0
  2  6  1  0
  6  7  2  0
  6  8  1  0
 24 16  1  0
 25 14  1  0
 26 32  1  0
 27 31  1  0
 28 25  2  0
 29 23  1  0
 30 24  1  0
 31 29  1  0
 32 30  1  0
 16 20  2  0
 14 13  2  0
 19 28  1  0
 10  9  2  0
 11  9  1  0
 12 10  1  0
 13 11  1  0
 14 12  1  0
 15  9  1  0
 16 10  1  0
 17 11  2  0
 18 12  2  0
 19 22  2  0
 20 21  1  0
 21 15  2  0
 22 13  1  0
 23 15  1  0
 33 35  1  0
 35 34  2  0
 36 33  2  0
 37 33  1  0
 34 38  1  0
 38 39  2  0
 38 40  1  0
  2 41  1  0
  3 42  1  0
  5 43  1  0
  8 44  1  0
 20 45  1  0
 21 46  1  0
 22 47  1  0
 23 48  1  0
 24 49  1  0
 25 50  1  0
 26 51  1  0
 26 52  1  0
 27 53  1  0
 27 54  1  0
 28 55  1  0
 29 56  1  0
 29 57  1  0
 30 58  1  0
 30 59  1  0
 31 60  1  0
 31 61  1  0
 32 62  1  0
 32 63  1  0
 34 64  1  0
 35 65  1  0
 37 66  1  0
 40 67  1  0
M  END
> <Uni-Dock RESULT> 
ENERGY=   -5.157  LOWER_BOUND=    2.927  UPPER_BOUND=    6.874
INTER + INTRA:          -5.157
INTER:                  -5.157
INTRA:                   0.000
UNBOUND:                 0.000

$$$$

     RDKit          3D

 67 67  0  0  0  0  0  0  0  0999 V2000
   48.7932   10.7392   21.5797 C   0  0  0  0  0  0  0  0  0  0  0  0
   47.8196    8.5965   20.7885 C   0  0  0  0  0  0  0  0  0  0  0  0
   48.1351    9.4412   21.7794 C   0  0  0  0  0  0  0  0  0  0  0  0
   48.8283   11.4175   20.5730 O   0  0  0  0  0  0  0  0  0  0  0  0
   49.3545   11.1399   22.7320 O   0  0  0  0  0  0  0  0  0  0  0  0
   48.1679    8.7926   19.3796 C   0  0  0  0  0  0  0  0  0  0  0  0
   47.4019    8.6505   18.4456 O   0  0  0  0  0  0  0  0  0  0  0  0
   49.4776    9.0266   19.2160 O   0  0  0  0  0  0  0  0  0  0  0  0
   47.7310   10.0817   21.8477 C   0  0  0  0  0  0  0  0  0  0  0  0
   47.6701    9.4747   20.5780 C   0  0  0  0  0  0  0  0  0  0  0  0
   47.6562    9.2391   23.0732 C   0  0  0  0  0  0  0  0  0  0  0  0
   47.6241    7.9870   20.4848 C   0  0  0  0  0  0  0  0  0  0  0  0
   47.5864    7.7832   22.9465 C   0  0  0  0  0  0  0  0  0  0  0  0
   47.5652    7.1725   21.7073 C   0  0  0  0  0  0  0  0  0  0  0  0
   47.8680   11.4843   21.9601 C   0  0  0  0  0  0  0  0  0  0  0  0
   47.7062   10.2605   19.3951 C   0  0  0  0  0  0  0  0  0  0  0  0
   47.6287    9.7282   24.1994 O   0  0  0  0  0  0  0  0  0  0  0  0
   47.6614    7.4083   19.4015 O   0  0  0  0  0  0  0  0  0  0  0  0
   47.4675    5.6206   24.0185 N   0  0  0  0  0  0  0  0  0  0  0  0
   47.7858   11.6515   19.5345 C   0  0  0  0  0  0  0  0  0  0  0  0
   47.8839   12.2498   20.7903 C   0  0  0  0  0  0  0  0  0  0  0  0
   47.5354    6.9737   24.0709 C   0  0  0  0  0  0  0  0  0  0  0  0
   48.0054   12.1436   23.2030 N   0  0  0  0  0  0  0  0  0  0  0  0
   47.5295    9.6848   18.1182 N   0  0  0  0  0  0  0  0  0  0  0  0
   47.4956    5.7795   21.6181 C   0  0  0  0  0  0  0  0  0  0  0  0
   48.8765    9.8485   14.5982 N   0  0  0  0  0  0  0  0  0  0  0  0
   50.8545   10.8844   22.7684 N   0  0  0  0  0  0  0  0  0  0  0  0
   47.4487    5.0533   22.7937 C   0  0  0  0  0  0  0  0  0  0  0  0
   49.3078   12.7939   23.4251 C   0  0  0  0  0  0  0  0  0  0  0  0
   48.3129   10.2288   17.0053 C   0  0  0  0  0  0  0  0  0  0  0  0
   50.4263   11.8037   23.8319 C   0  0  0  0  0  0  0  0  0  0  0  0
   48.1577    9.3275   15.7638 C   0  0  0  0  0  0  0  0  0  0  0  0
   48.8755    9.3731   19.4409 C   0  0  0  0  0  0  0  0  0  0  0  0
   47.9695    9.0508   21.7294 C   0  0  0  0  0  0  0  0  0  0  0  0
   48.0200    8.7110   20.4346 C   0  0  0  0  0  0  0  0  0  0  0  0
   49.8879   10.0164   19.6303 O   0  0  0  0  0  0  0  0  0  0  0  0
   48.4004    9.1335   18.2080 O   0  0  0  0  0  0  0  0  0  0  0  0
   48.6790   10.1855   22.3242 C   0  0  0  0  0  0  0  0  0  0  0  0
   49.3241   10.1425   23.3543 O   0  0  0  0  0  0  0  0  0  0  0  0
   48.4355   11.3281   21.6666 O   0  0  0  0  0  0  0  0  0  0  0  0
   47.2514    7.6966   20.9901 H   0  0  0  0  0  0  0  0  0  0  0  0
   47.8668    9.2028   22.8021 H   0  0  0  0  0  0  0  0  0  0  0  0
   49.7607   12.0022   22.5036 H   0  0  0  0  0  0  0  0  0  0  0  0
   49.5751    9.1724   18.2526 H   0  0  0  0  0  0  0  0  0  0  0  0
   47.7511   12.3016   18.6649 H   0  0  0  0  0  0  0  0  0  0  0  0
   47.9398   13.3341   20.8547 H   0  0  0  0  0  0  0  0  0  0  0  0
   47.5474    7.3930   25.0745 H   0  0  0  0  0  0  0  0  0  0  0  0
   47.8276   11.4650   23.9592 H   0  0  0  0  0  0  0  0  0  0  0  0
   47.6397    8.6614   18.1888 H   0  0  0  0  0  0  0  0  0  0  0  0
   47.4790    5.2723   20.6585 H   0  0  0  0  0  0  0  0  0  0  0  0
   48.7397    9.2088   13.8154 H   0  0  0  0  0  0  0  0  0  0  0  0
   48.4560   10.7322   14.3112 H   0  0  0  0  0  0  0  0  0  0  0  0
   51.1230   11.4221   21.9449 H   0  0  0  0  0  0  0  0  0  0  0  0
   51.6873   10.3840   23.0763 H   0  0  0  0  0  0  0  0  0  0  0  0
   47.3937    3.9680   22.7836 H   0  0  0  0  0  0  0  0  0  0  0  0
   49.1728   13.5003   24.2525 H   0  0  0  0  0  0  0  0  0  0  0  0
   49.6204   13.3937   22.5622 H   0  0  0  0  0  0  0  0  0  0  0  0
   47.9619   11.2355   16.7513 H   0  0  0  0  0  0  0  0  0  0  0  0
   49.3733   10.2884   17.2810 H   0  0  0  0  0  0  0  0  0  0  0  0
   50.1003   11.2104   24.6935 H   0  0  0  0  0  0  0  0  0  0  0  0
   51.2991   12.3861   24.1493 H   0  0  0  0  0  0  0  0  0  0  0  0
   47.0962    9.2204   15.5117 H   0  0  0  0  0  0  0  0  0  0  0  0
   48.5360    8.3243   15.9911 H   0  0  0  0  0  0  0  0  0  0  0  0
   47.3893    8.4647   22.4319 H   0  0  0  0  0  0  0  0  0  0  0  0
   47.4365    7.8737   20.0696 H   0  0  0  0  0  0  0  0  0  0  0  0
   49.0280    9.6067   17.6224 H   0  0  0  0  0  0  0  0  0  0  0  0
   48.9862   11.9918   22.1300 H   0  0  0  0  0  0  0  0  0  0  0  0
  1  3  1  0
  3  2  2  0
  4  1  2  0
  5  1  1  0
  2  6  1  0
  6  7  2  0
  6  8  1  0
 24 16  1  0
 25 14  1  0
 26 32  1  0
 27 31  1  0
 28 25  2  0
 29 23  1  0
 30 24  1  0
 31 29  1  0
 32 30  1  0
 16 20  2  0
 14 13  2  0
 19 28  1  0
 10  9  2  0
 11  9  1  0
 12 10  1  0
 13 11  1  0
 14 12  1  0
 15  9  1  0
 16 10  1  0
 17 11  2  0
 18 12  2  0
 19 22  2  0
 20 21  1  0
 21 15  2  0
 22 13  1  0
 23 15  1  0
 33 35  1  0
 35 34  2  0
 36 33  2  0
 37 33  1  0
 34 38  1  0
 38 39  2  0
 38 40  1  0
  2 41  1  0
  3 42  1  0
  5 43  1  0
  8 44  1  0
 20 45  1  0
 21 46  1  0
 22 47  1  0
 23 48  1  0
 24 49  1  0
 25 50  1  0
 26 51  1  0
 26 52  1  0
 27 53  1  0
 27 54  1  0
 28 55  1  0
 29 56  1  0
 29 57  1  0
 30 58  1  0
 30 59  1  0
 31 60  1  0
 31 61  1  0
 32 62  1  0
 32 63  1  0
 34 64  1  0
 35 65  1  0
 37 66  1  0
 40 67  1  0
M  END
> <Uni-Dock RESULT> 
ENERGY=   -4.962  LOWER_BOUND=    7.376  UPPER_BOUND=   10.795
INTER + INTRA:          -4.962
INTER:                  -4.962
INTRA:                   0.000
UNBOUND:                 0.000

$$$$

     RDKit          3D

 67 67  0  0  0  0  0  0  0  0999 V2000
   49.6413   10.9842   12.4131 C   0  0  0  0  0  0  0  0  0  0  0  0
   49.2097    8.5869   11.9319 C   0  0  0  0  0  0  0  0  0  0  0  0
   48.7672    9.8264   12.1825 C   0  0  0  0  0  0  0  0  0  0  0  0
   50.7985   11.1318   12.0756 O   0  0  0  0  0  0  0  0  0  0  0  0
   48.9527   11.9475   13.0466 O   0  0  0  0  0  0  0  0  0  0  0  0
   50.6171    8.1820   11.9473 C   0  0  0  0  0  0  0  0  0  0  0  0
   51.1588    7.5102   11.0905 O   0  0  0  0  0  0  0  0  0  0  0  0
   51.2251    8.5302   13.0901 O   0  0  0  0  0  0  0  0  0  0  0  0
   48.8454   10.3523   11.6388 C   0  0  0  0  0  0  0  0  0  0  0  0
   49.6977    9.2379   11.5125 C   0  0  0  0  0  0  0  0  0  0  0  0
   47.4209   10.1525   12.0241 C   0  0  0  0  0  0  0  0  0  0  0  0
   49.1787    7.8830   11.8574 C   0  0  0  0  0  0  0  0  0  0  0  0
   46.9370    8.8064   12.3316 C   0  0  0  0  0  0  0  0  0  0  0  0
   47.7725    7.7091   12.2494 C   0  0  0  0  0  0  0  0  0  0  0  0
   49.3398   11.6562   11.4065 C   0  0  0  0  0  0  0  0  0  0  0  0
   51.0514    9.4007   11.1141 C   0  0  0  0  0  0  0  0  0  0  0  0
   46.6222   11.0843   12.0726 O   0  0  0  0  0  0  0  0  0  0  0  0
   49.9073    6.8936   11.8505 O   0  0  0  0  0  0  0  0  0  0  0  0
   45.1131    7.3720   13.0067 N   0  0  0  0  0  0  0  0  0  0  0  0
   51.5014   10.6972   10.8358 C   0  0  0  0  0  0  0  0  0  0  0  0
   50.6683   11.8038   10.9971 C   0  0  0  0  0  0  0  0  0  0  0  0
   45.6208    8.5941   12.7117 C   0  0  0  0  0  0  0  0  0  0  0  0
   48.5534   12.8172   11.5859 N   0  0  0  0  0  0  0  0  0  0  0  0
   51.8894    8.2913   10.8686 N   0  0  0  0  0  0  0  0  0  0  0  0
   47.2808    6.4351   12.5470 C   0  0  0  0  0  0  0  0  0  0  0  0
   55.4126    7.0726   11.4464 N   0  0  0  0  0  0  0  0  0  0  0  0
   49.2470   11.9876   14.5394 N   0  0  0  0  0  0  0  0  0  0  0  0
   45.9539    6.3196   12.9176 C   0  0  0  0  0  0  0  0  0  0  0  0
   48.9867   13.7031   12.6795 C   0  0  0  0  0  0  0  0  0  0  0  0
   53.2994    8.3971   11.2547 C   0  0  0  0  0  0  0  0  0  0  0  0
   48.5589   13.2023   14.0806 C   0  0  0  0  0  0  0  0  0  0  0  0
   53.9841    7.0215   11.1247 C   0  0  0  0  0  0  0  0  0  0  0  0
   50.9941    8.8360   12.4686 C   0  0  0  0  0  0  0  0  0  0  0  0
   48.6096    9.4339   12.1232 C   0  0  0  0  0  0  0  0  0  0  0  0
   49.6211    8.5611   12.0246 C   0  0  0  0  0  0  0  0  0  0  0  0
   51.3707    9.6532   13.2842 O   0  0  0  0  0  0  0  0  0  0  0  0
   51.8413    7.9920   11.8578 O   0  0  0  0  0  0  0  0  0  0  0  0
   48.7399   10.8148   12.5937 C   0  0  0  0  0  0  0  0  0  0  0  0
   48.0066   11.3475   13.4046 O   0  0  0  0  0  0  0  0  0  0  0  0
   49.6961   11.4809   11.9308 O   0  0  0  0  0  0  0  0  0  0  0  0
   48.5166    7.7941   11.6779 H   0  0  0  0  0  0  0  0  0  0  0  0
   47.7034   10.0334   12.1828 H   0  0  0  0  0  0  0  0  0  0  0  0
   49.6082   12.6684   13.1529 H   0  0  0  0  0  0  0  0  0  0  0  0
   52.1520    8.2405   12.9646 H   0  0  0  0  0  0  0  0  0  0  0  0
   52.5078   10.8703   10.4654 H   0  0  0  0  0  0  0  0  0  0  0  0
   51.0560   12.7935   10.7662 H   0  0  0  0  0  0  0  0  0  0  0  0
   44.9130    9.4158   12.7939 H   0  0  0  0  0  0  0  0  0  0  0  0
   47.5742   12.5329   11.7426 H   0  0  0  0  0  0  0  0  0  0  0  0
   51.4552    7.4434   11.2646 H   0  0  0  0  0  0  0  0  0  0  0  0
   47.9143    5.5552   12.4925 H   0  0  0  0  0  0  0  0  0  0  0  0
   55.8049    6.1362   11.3471 H   0  0  0  0  0  0  0  0  0  0  0  0
   55.8924    7.6493   10.7555 H   0  0  0  0  0  0  0  0  0  0  0  0
   50.2551   12.1330   14.4943 H   0  0  0  0  0  0  0  0  0  0  0  0
   49.0176   11.8249   15.5189 H   0  0  0  0  0  0  0  0  0  0  0  0
   45.5186    5.3536   13.1596 H   0  0  0  0  0  0  0  0  0  0  0  0
   48.5042   14.6732   12.5121 H   0  0  0  0  0  0  0  0  0  0  0  0
   50.0663   13.8925   12.6519 H   0  0  0  0  0  0  0  0  0  0  0  0
   53.8187    9.1080   10.6019 H   0  0  0  0  0  0  0  0  0  0  0  0
   53.3840    8.7488   12.2906 H   0  0  0  0  0  0  0  0  0  0  0  0
   47.4793   13.0159   14.0935 H   0  0  0  0  0  0  0  0  0  0  0  0
   48.7599   14.0006   14.8046 H   0  0  0  0  0  0  0  0  0  0  0  0
   53.8598    6.6386   10.1050 H   0  0  0  0  0  0  0  0  0  0  0  0
   53.4972    6.3062   11.7973 H   0  0  0  0  0  0  0  0  0  0  0  0
   47.5995    9.1401   11.8648 H   0  0  0  0  0  0  0  0  0  0  0  0
   49.4434    7.5656   11.6345 H   0  0  0  0  0  0  0  0  0  0  0  0
   52.7183    8.2473   12.2133 H   0  0  0  0  0  0  0  0  0  0  0  0
   49.7100   12.3630   12.3555 H   0  0  0  0  0  0  0  0  0  0  0  0
  1  3  1  0
  3  2  2  0
  4  1  2  0
  5  1  1  0
  2  6  1  0
  6  7  2  0
  6  8  1  0
 24 16  1  0
 25 14  1  0
 26 32  1  0
 27 31  1  0
 28 25  2  0
 29 23  1  0
 30 24  1  0
 31 29  1  0
 32 30  1  0
 16 20  2  0
 14 13  2  0
 19 28  1  0
 10  9  2  0
 11  9  1  0
 12 10  1  0
 13 11  1  0
 14 12  1  0
 15  9  1  0
 16 10  1  0
 17 11  2  0
 18 12  2  0
 19 22  2  0
 20 21  1  0
 21 15  2  0
 22 13  1  0
 23 15  1  0
 33 35  1  0
 35 34  2  0
 36 33  2  0
 37 33  1  0
 34 38  1  0
 38 39  2  0
 38 40  1  0
  2 41  1  0
  3 42  1  0
  5 43  1  0
  8 44  1  0
 20 45  1  0
 21 46  1  0
 22 47  1  0
 23 48  1  0
 24 49  1  0
 25 50  1  0
 26 51  1  0
 26 52  1  0
 27 53  1  0
 27 54  1  0
 28 55  1  0
 29 56  1  0
 29 57  1  0
 30 58  1  0
 30 59  1  0
 31 60  1  0
 31 61  1  0
 32 62  1  0
 32 63  1  0
 34 64  1  0
 35 65  1  0
 37 66  1  0
 40 67  1  0
M  END
> <Uni-Dock RESULT> 
ENERGY=   -4.612  LOWER_BOUND=    3.409  UPPER_BOUND=    6.000
INTER + INTRA:          -4.612
INTER:                  -4.612
INTRA:                   0.000
UNBOUND:                 0.000

$$$$
