
     RDKit          3D

 67 67  0  0  0  0  0  0  0  0999 V2000
   47.0824    8.2835   12.5815 C   0  0  0  0  0  0  0  0  0  0  0  0
   45.9046    6.1412   12.0589 C   0  0  0  0  0  0  0  0  0  0  0  0
   46.9784    6.8254   12.4760 C   0  0  0  0  0  0  0  0  0  0  0  0
   48.0922    8.9238   12.3546 O   0  0  0  0  0  0  0  0  0  0  0  0
   45.9752    8.8499   13.0834 O   0  0  0  0  0  0  0  0  0  0  0  0
   44.6607    6.7213   11.5445 C   0  0  0  0  0  0  0  0  0  0  0  0
   43.5512    6.2585   11.7335 O   0  0  0  0  0  0  0  0  0  0  0  0
   44.8708    7.7603   10.7232 O   0  0  0  0  0  0  0  0  0  0  0  0
   45.9800    8.2221   12.6261 C   0  0  0  0  0  0  0  0  0  0  0  0
   44.9665    7.2846   12.3392 C   0  0  0  0  0  0  0  0  0  0  0  0
   45.8140    9.6318   12.1716 C   0  0  0  0  0  0  0  0  0  0  0  0
   43.7523    7.7245   11.5967 C   0  0  0  0  0  0  0  0  0  0  0  0
   44.5403   10.0623   11.5940 C   0  0  0  0  0  0  0  0  0  0  0  0
   43.5405    9.1504   11.3129 C   0  0  0  0  0  0  0  0  0  0  0  0
   47.1600    7.8325   13.3108 C   0  0  0  0  0  0  0  0  0  0  0  0
   45.1068    5.9312   12.7301 C   0  0  0  0  0  0  0  0  0  0  0  0
   46.7262   10.4491   12.2545 O   0  0  0  0  0  0  0  0  0  0  0  0
   42.9161    6.9161   11.2001 O   0  0  0  0  0  0  0  0  0  0  0  0
   43.1533   11.8481   10.7476 N   0  0  0  0  0  0  0  0  0  0  0  0
   46.2603    5.5685   13.4323 C   0  0  0  0  0  0  0  0  0  0  0  0
   47.2609    6.4989   13.7206 C   0  0  0  0  0  0  0  0  0  0  0  0
   44.3082   11.3951   11.2937 C   0  0  0  0  0  0  0  0  0  0  0  0
   48.1359    8.7693   13.6884 N   0  0  0  0  0  0  0  0  0  0  0  0
   44.0981    4.9699   12.5133 N   0  0  0  0  0  0  0  0  0  0  0  0
   42.3409    9.5831   10.7428 C   0  0  0  0  0  0  0  0  0  0  0  0
   43.7274    4.5046    9.5838 N   0  0  0  0  0  0  0  0  0  0  0  0
   51.5471    7.9042   12.2563 N   0  0  0  0  0  0  0  0  0  0  0  0
   42.1960   10.9333   10.4826 C   0  0  0  0  0  0  0  0  0  0  0  0
   49.5550    8.4114   13.6999 C   0  0  0  0  0  0  0  0  0  0  0  0
   44.4902    3.7122   11.8583 C   0  0  0  0  0  0  0  0  0  0  0  0
   50.1035    8.1550   12.2815 C   0  0  0  0  0  0  0  0  0  0  0  0
   44.8179    3.9044   10.3615 C   0  0  0  0  0  0  0  0  0  0  0  0
   46.5070    8.5562   12.9090 C   0  0  0  0  0  0  0  0  0  0  0  0
   46.4875    6.2988   11.8330 C   0  0  0  0  0  0  0  0  0  0  0  0
   47.0850    7.2569   12.5545 C   0  0  0  0  0  0  0  0  0  0  0  0
   47.1381    9.5932   12.9968 O   0  0  0  0  0  0  0  0  0  0  0  0
   45.2151    8.4749   13.2591 O   0  0  0  0  0  0  0  0  0  0  0  0
   45.1770    6.4002   11.1851 C   0  0  0  0  0  0  0  0  0  0  0  0
   44.3831    5.4834   11.0821 O   0  0  0  0  0  0  0  0  0  0  0  0
   44.9795    7.5862   10.5914 O   0  0  0  0  0  0  0  0  0  0  0  0
   45.9065    5.0575   12.0873 H   0  0  0  0  0  0  0  0  0  0  0  0
   47.8782    6.2973   12.7708 H   0  0  0  0  0  0  0  0  0  0  0  0
   46.1970    9.8029   13.1226 H   0  0  0  0  0  0  0  0  0  0  0  0
   43.9703    8.0205   10.4398 H   0  0  0  0  0  0  0  0  0  0  0  0
   46.3754    4.5565   13.8137 H   0  0  0  0  0  0  0  0  0  0  0  0
   48.1066    6.1601   14.3124 H   0  0  0  0  0  0  0  0  0  0  0  0
   45.0561   12.1613   11.4847 H   0  0  0  0  0  0  0  0  0  0  0  0
   47.9815    9.6691   13.2083 H   0  0  0  0  0  0  0  0  0  0  0  0
   43.3043    5.3926   12.0138 H   0  0  0  0  0  0  0  0  0  0  0  0
   41.5409    8.8890   10.5052 H   0  0  0  0  0  0  0  0  0  0  0  0
   42.8729    3.9661    9.7238 H   0  0  0  0  0  0  0  0  0  0  0  0
   43.5113    5.4311    9.9696 H   0  0  0  0  0  0  0  0  0  0  0  0
   51.7723    7.1185   12.8653 H   0  0  0  0  0  0  0  0  0  0  0  0
   52.0417    8.7112   12.6361 H   0  0  0  0  0  0  0  0  0  0  0  0
   41.2846   11.3275   10.0407 H   0  0  0  0  0  0  0  0  0  0  0  0
   50.0979    9.2572   14.1396 H   0  0  0  0  0  0  0  0  0  0  0  0
   49.7513    7.5576   14.3572 H   0  0  0  0  0  0  0  0  0  0  0  0
   45.3309    3.2298   12.3679 H   0  0  0  0  0  0  0  0  0  0  0  0
   43.6439    3.0203   11.9474 H   0  0  0  0  0  0  0  0  0  0  0  0
   49.8877    9.0168   11.6396 H   0  0  0  0  0  0  0  0  0  0  0  0
   49.5975    7.2943   11.8307 H   0  0  0  0  0  0  0  0  0  0  0  0
   45.7082    4.5328   10.2490 H   0  0  0  0  0  0  0  0  0  0  0  0
   45.0587    2.9294    9.9241 H   0  0  0  0  0  0  0  0  0  0  0  0
   46.9771    5.3423   11.6892 H   0  0  0  0  0  0  0  0  0  0  0  0
   48.0903    7.1051   12.9311 H   0  0  0  0  0  0  0  0  0  0  0  0
   44.9778    9.3955   13.4942 H   0  0  0  0  0  0  0  0  0  0  0  0
   44.0932    7.4991   10.1841 H   0  0  0  0  0  0  0  0  0  0  0  0
  1  3  1  0
  3  2  2  0
  4  1  2  0
  5  1  1  0
  2  6  1  0
  6  7  2  0
  6  8  1  0
 24 16  1  0
 25 14  1  0
 26 32  1  0
 27 31  1  0
 28 25  2  0
 29 23  1  0
 30 24  1  0
 31 29  1  0
 32 30  1  0
 16 20  2  0
 14 13  2  0
 19 28  1  0
 10  9  2  0
 11  9  1  0
 12 10  1  0
 13 11  1  0
 14 12  1  0
 15  9  1  0
 16 10  1  0
 17 11  2  0
 18 12  2  0
 19 22  2  0
 20 21  1  0
 21 15  2  0
 22 13  1  0
 23 15  1  0
 33 35  1  0
 35 34  2  0
 36 33  2  0
 37 33  1  0
 34 38  1  0
 38 39  2  0
 38 40  1  0
  2 41  1  0
  3 42  1  0
  5 43  1  0
  8 44  1  0
 20 45  1  0
 21 46  1  0
 22 47  1  0
 23 48  1  0
 24 49  1  0
 25 50  1  0
 26 51  1  0
 26 52  1  0
 27 53  1  0
 27 54  1  0
 28 55  1  0
 29 56  1  0
 29 57  1  0
 30 58  1  0
 30 59  1  0
 31 60  1  0
 31 61  1  0
 32 62  1  0
 32 63  1  0
 34 64  1  0
 35 65  1  0
 37 66  1  0
 40 67  1  0
M  END
> <Uni-Dock RESULT> 
ENERGY=   -6.498  LOWER_BOUND=    0.000  UPPER_BOUND=    0.000
INTER + INTRA:          -6.498
INTER:                  -6.498
INTRA:                   0.000
UNBOUND:                 0.000

$$$$

     RDKit          3D

 67 67  0  0  0  0  0  0  0  0999 V2000
   45.7478    5.2182   12.2351 C   0  0  0  0  0  0  0  0  0  0  0  0
   46.8184    7.4757   12.1512 C   0  0  0  0  0  0  0  0  0  0  0  0
   46.0081    6.5352   11.6472 C   0  0  0  0  0  0  0  0  0  0  0  0
   45.5671    4.1983   11.5962 O   0  0  0  0  0  0  0  0  0  0  0  0
   45.5983    5.2626   13.5671 O   0  0  0  0  0  0  0  0  0  0  0  0
   47.6670    7.3349   13.3379 C   0  0  0  0  0  0  0  0  0  0  0  0
   47.9013    8.2276   14.1312 O   0  0  0  0  0  0  0  0  0  0  0  0
   48.2772    6.1427   13.4037 O   0  0  0  0  0  0  0  0  0  0  0  0
   46.0803    5.7181   13.1628 C   0  0  0  0  0  0  0  0  0  0  0  0
   46.7702    6.8897   13.5369 C   0  0  0  0  0  0  0  0  0  0  0  0
   46.4399    4.4257   13.8123 C   0  0  0  0  0  0  0  0  0  0  0  0
   47.8352    6.8111   14.5756 C   0  0  0  0  0  0  0  0  0  0  0  0
   47.3710    4.4159   14.9412 C   0  0  0  0  0  0  0  0  0  0  0  0
   48.0485    5.5605   15.3165 C   0  0  0  0  0  0  0  0  0  0  0  0
   45.0766    5.7524   12.1606 C   0  0  0  0  0  0  0  0  0  0  0  0
   46.4738    8.1277   12.9176 C   0  0  0  0  0  0  0  0  0  0  0  0
   45.9859    3.3557   13.4175 O   0  0  0  0  0  0  0  0  0  0  0  0
   48.5573    7.7731   14.8265 O   0  0  0  0  0  0  0  0  0  0  0  0
   48.4745    3.1828   16.6994 N   0  0  0  0  0  0  0  0  0  0  0  0
   45.4603    8.1525   11.9546 C   0  0  0  0  0  0  0  0  0  0  0  0
   44.7741    6.9926   11.5888 C   0  0  0  0  0  0  0  0  0  0  0  0
   47.6148    3.2526   15.6538 C   0  0  0  0  0  0  0  0  0  0  0  0
   44.3143    4.6165   11.8423 N   0  0  0  0  0  0  0  0  0  0  0  0
   47.0983    9.3343   13.2956 N   0  0  0  0  0  0  0  0  0  0  0  0
   48.9475    5.5211   16.3849 C   0  0  0  0  0  0  0  0  0  0  0  0
   50.0116    9.2412   12.6319 N   0  0  0  0  0  0  0  0  0  0  0  0
   44.5912    3.7212    8.1602 N   0  0  0  0  0  0  0  0  0  0  0  0
   49.1230    4.3168   17.0412 C   0  0  0  0  0  0  0  0  0  0  0  0
   43.8596    4.3778   10.4718 C   0  0  0  0  0  0  0  0  0  0  0  0
   47.6908   10.1542   12.2273 C   0  0  0  0  0  0  0  0  0  0  0  0
   45.0291    4.0732    9.5136 C   0  0  0  0  0  0  0  0  0  0  0  0
   48.9689    9.5194   11.6371 C   0  0  0  0  0  0  0  0  0  0  0  0
   45.6095    5.2754   12.9353 C   0  0  0  0  0  0  0  0  0  0  0  0
   46.8214    7.0547   11.6630 C   0  0  0  0  0  0  0  0  0  0  0  0
   45.8613    6.1261   11.7688 C   0  0  0  0  0  0  0  0  0  0  0  0
   45.2258    4.1216   12.8801 O   0  0  0  0  0  0  0  0  0  0  0  0
   45.7205    5.9360   14.0970 O   0  0  0  0  0  0  0  0  0  0  0  0
   47.8593    7.3371   12.6583 C   0  0  0  0  0  0  0  0  0  0  0  0
   48.3013    8.4446   12.9023 O   0  0  0  0  0  0  0  0  0  0  0  0
   48.3796    6.2255   13.1984 O   0  0  0  0  0  0  0  0  0  0  0  0
   46.8851    8.4472   11.6747 H   0  0  0  0  0  0  0  0  0  0  0  0
   45.4761    6.7165   10.7201 H   0  0  0  0  0  0  0  0  0  0  0  0
   45.4046    4.3344   13.8119 H   0  0  0  0  0  0  0  0  0  0  0  0
   48.8220    6.2030   14.2152 H   0  0  0  0  0  0  0  0  0  0  0  0
   45.1517    9.0941   11.5065 H   0  0  0  0  0  0  0  0  0  0  0  0
   43.9650    7.0928   10.8707 H   0  0  0  0  0  0  0  0  0  0  0  0
   47.1187    2.3171   15.4053 H   0  0  0  0  0  0  0  0  0  0  0  0
   44.7384    3.7683   12.2481 H   0  0  0  0  0  0  0  0  0  0  0  0
   47.7961    9.1594   14.0310 H   0  0  0  0  0  0  0  0  0  0  0  0
   49.4985    6.4025   16.6978 H   0  0  0  0  0  0  0  0  0  0  0  0
   50.2129   10.0897   13.1603 H   0  0  0  0  0  0  0  0  0  0  0  0
   49.6415    8.5870   13.3311 H   0  0  0  0  0  0  0  0  0  0  0  0
   44.0126    4.4685    7.7786 H   0  0  0  0  0  0  0  0  0  0  0  0
   43.9992    2.8915    8.1966 H   0  0  0  0  0  0  0  0  0  0  0  0
   49.8085    4.2267   17.8798 H   0  0  0  0  0  0  0  0  0  0  0  0
   43.1919    3.5079   10.4999 H   0  0  0  0  0  0  0  0  0  0  0  0
   43.2512    5.2081   10.0974 H   0  0  0  0  0  0  0  0  0  0  0  0
   46.9731   10.3660   11.4277 H   0  0  0  0  0  0  0  0  0  0  0  0
   47.9506   11.1248   12.6669 H   0  0  0  0  0  0  0  0  0  0  0  0
   45.6288    3.2470    9.9124 H   0  0  0  0  0  0  0  0  0  0  0  0
   45.6961    4.9394    9.4445 H   0  0  0  0  0  0  0  0  0  0  0  0
   48.7219    8.5827   11.1254 H   0  0  0  0  0  0  0  0  0  0  0  0
   49.3833   10.1956   10.8815 H   0  0  0  0  0  0  0  0  0  0  0  0
   46.8755    7.6819   10.7803 H   0  0  0  0  0  0  0  0  0  0  0  0
   45.1846    5.9487   10.9405 H   0  0  0  0  0  0  0  0  0  0  0  0
   45.4994    5.2617   14.7718 H   0  0  0  0  0  0  0  0  0  0  0  0
   49.0660    6.5620   13.8104 H   0  0  0  0  0  0  0  0  0  0  0  0
  1  3  1  0
  3  2  2  0
  4  1  2  0
  5  1  1  0
  2  6  1  0
  6  7  2  0
  6  8  1  0
 24 16  1  0
 25 14  1  0
 26 32  1  0
 27 31  1  0
 28 25  2  0
 29 23  1  0
 30 24  1  0
 31 29  1  0
 32 30  1  0
 16 20  2  0
 14 13  2  0
 19 28  1  0
 10  9  2  0
 11  9  1  0
 12 10  1  0
 13 11  1  0
 14 12  1  0
 15  9  1  0
 16 10  1  0
 17 11  2  0
 18 12  2  0
 19 22  2  0
 20 21  1  0
 21 15  2  0
 22 13  1  0
 23 15  1  0
 33 35  1  0
 35 34  2  0
 36 33  2  0
 37 33  1  0
 34 38  1  0
 38 39  2  0
 38 40  1  0
  2 41  1  0
  3 42  1  0
  5 43  1  0
  8 44  1  0
 20 45  1  0
 21 46  1  0
 22 47  1  0
 23 48  1  0
 24 49  1  0
 25 50  1  0
 26 51  1  0
 26 52  1  0
 27 53  1  0
 27 54  1  0
 28 55  1  0
 29 56  1  0
 29 57  1  0
 30 58  1  0
 30 59  1  0
 31 60  1  0
 31 61  1  0
 32 62  1  0
 32 63  1  0
 34 64  1  0
 35 65  1  0
 37 66  1  0
 40 67  1  0
M  END
> <Uni-Dock RESULT> 
ENERGY=   -5.868  LOWER_BOUND=    2.184  UPPER_BOUND=    5.979
INTER + INTRA:          -5.868
INTER:                  -5.868
INTRA:                   0.000
UNBOUND:                 0.000

$$$$

     RDKit          3D

 67 67  0  0  0  0  0  0  0  0999 V2000
   46.4823   10.0401   11.9276 C   0  0  0  0  0  0  0  0  0  0  0  0
   48.9410    9.5971   12.0184 C   0  0  0  0  0  0  0  0  0  0  0  0
   47.8953   10.4009   11.7824 C   0  0  0  0  0  0  0  0  0  0  0  0
   45.5878   10.4409   11.2063 O   0  0  0  0  0  0  0  0  0  0  0  0
   46.2408    9.3124   13.0279 O   0  0  0  0  0  0  0  0  0  0  0  0
   48.8718    8.1786   12.3807 C   0  0  0  0  0  0  0  0  0  0  0  0
   49.6377    7.6212   13.1447 O   0  0  0  0  0  0  0  0  0  0  0  0
   47.9453    7.5068   11.6818 O   0  0  0  0  0  0  0  0  0  0  0  0
   46.8902    9.2677   12.6043 C   0  0  0  0  0  0  0  0  0  0  0  0
   48.1354    8.6702   12.8890 C   0  0  0  0  0  0  0  0  0  0  0  0
   45.6875    8.4008   12.4523 C   0  0  0  0  0  0  0  0  0  0  0  0
   48.2194    7.1904   13.0383 C   0  0  0  0  0  0  0  0  0  0  0  0
   45.7767    6.9748   12.7687 C   0  0  0  0  0  0  0  0  0  0  0  0
   46.9926    6.3821   13.0521 C   0  0  0  0  0  0  0  0  0  0  0  0
   46.7782   10.6716   12.4326 C   0  0  0  0  0  0  0  0  0  0  0  0
   49.3025    9.4623   13.0095 C   0  0  0  0  0  0  0  0  0  0  0  0
   44.6158    8.8466   12.0525 O   0  0  0  0  0  0  0  0  0  0  0  0
   49.3016    6.6175   13.1414 O   0  0  0  0  0  0  0  0  0  0  0  0
   44.6713    4.8465   13.0472 N   0  0  0  0  0  0  0  0  0  0  0  0
   49.1715   10.8474   12.8696 C   0  0  0  0  0  0  0  0  0  0  0  0
   47.9370   11.4384   12.5931 C   0  0  0  0  0  0  0  0  0  0  0  0
   44.6459    6.1737   12.7732 C   0  0  0  0  0  0  0  0  0  0  0  0
   45.5332   11.2935   12.2430 N   0  0  0  0  0  0  0  0  0  0  0  0
   50.5588    8.9169   13.3459 N   0  0  0  0  0  0  0  0  0  0  0  0
   47.0548    5.0148   13.3312 C   0  0  0  0  0  0  0  0  0  0  0  0
   51.5205    7.1154   11.1629 N   0  0  0  0  0  0  0  0  0  0  0  0
   45.4381   13.3002    9.0181 N   0  0  0  0  0  0  0  0  0  0  0  0
   45.8739    4.2957   13.3185 C   0  0  0  0  0  0  0  0  0  0  0  0
   45.4076   12.4769   11.3911 C   0  0  0  0  0  0  0  0  0  0  0  0
   51.6999    9.2616   12.4838 C   0  0  0  0  0  0  0  0  0  0  0  0
   45.6669   12.1563    9.9050 C   0  0  0  0  0  0  0  0  0  0  0  0
   51.6217    8.5784   11.1011 C   0  0  0  0  0  0  0  0  0  0  0  0
   46.3678    9.7077   12.5514 C   0  0  0  0  0  0  0  0  0  0  0  0
   48.6362    9.8464   11.5079 C   0  0  0  0  0  0  0  0  0  0  0  0
   47.4461   10.3777   11.8191 C   0  0  0  0  0  0  0  0  0  0  0  0
   45.1808    9.8724   12.3385 O   0  0  0  0  0  0  0  0  0  0  0  0
   46.8132    8.9770   13.5837 O   0  0  0  0  0  0  0  0  0  0  0  0
   49.0552    8.4653   11.7619 C   0  0  0  0  0  0  0  0  0  0  0  0
   50.1844    8.1297   12.0678 O   0  0  0  0  0  0  0  0  0  0  0  0
   48.0913    7.5713   11.4975 O   0  0  0  0  0  0  0  0  0  0  0  0
   49.9508    9.9856   11.9502 H   0  0  0  0  0  0  0  0  0  0  0  0
   48.0577   11.4197   11.4490 H   0  0  0  0  0  0  0  0  0  0  0  0
   45.2716    9.1738   13.0087 H   0  0  0  0  0  0  0  0  0  0  0  0
   48.0324    6.5857   12.0026 H   0  0  0  0  0  0  0  0  0  0  0  0
   50.0286   11.4984   13.0256 H   0  0  0  0  0  0  0  0  0  0  0  0
   47.8984   12.5232   12.5466 H   0  0  0  0  0  0  0  0  0  0  0  0
   43.6603    6.5772   12.5526 H   0  0  0  0  0  0  0  0  0  0  0  0
   44.8076   10.5948   12.0211 H   0  0  0  0  0  0  0  0  0  0  0  0
   50.4892    7.8951   13.4434 H   0  0  0  0  0  0  0  0  0  0  0  0
   47.9963    4.5212   13.5508 H   0  0  0  0  0  0  0  0  0  0  0  0
   52.2815    6.7453   11.7316 H   0  0  0  0  0  0  0  0  0  0  0  0
   50.6697    6.8599   11.6774 H   0  0  0  0  0  0  0  0  0  0  0  0
   46.0161   14.0866    9.3119 H   0  0  0  0  0  0  0  0  0  0  0  0
   44.4700   13.6101    9.1016 H   0  0  0  0  0  0  0  0  0  0  0  0
   45.8612    3.2295   13.5290 H   0  0  0  0  0  0  0  0  0  0  0  0
   44.3793   12.8439   11.4978 H   0  0  0  0  0  0  0  0  0  0  0  0
   46.0521   13.2929   11.7351 H   0  0  0  0  0  0  0  0  0  0  0  0
   51.8088   10.3445   12.3619 H   0  0  0  0  0  0  0  0  0  0  0  0
   52.6091    8.9207   12.9939 H   0  0  0  0  0  0  0  0  0  0  0  0
   45.0190   11.3319    9.5856 H   0  0  0  0  0  0  0  0  0  0  0  0
   46.6987   11.8154    9.7667 H   0  0  0  0  0  0  0  0  0  0  0  0
   50.7611    8.9602   10.5410 H   0  0  0  0  0  0  0  0  0  0  0  0
   52.5171    8.8392   10.5264 H   0  0  0  0  0  0  0  0  0  0  0  0
   49.3931   10.4546   11.0257 H   0  0  0  0  0  0  0  0  0  0  0  0
   47.2108   11.3932   11.5211 H   0  0  0  0  0  0  0  0  0  0  0  0
   45.9957    8.6211   13.9887 H   0  0  0  0  0  0  0  0  0  0  0  0
   48.5161    6.7082   11.6811 H   0  0  0  0  0  0  0  0  0  0  0  0
  1  3  1  0
  3  2  2  0
  4  1  2  0
  5  1  1  0
  2  6  1  0
  6  7  2  0
  6  8  1  0
 24 16  1  0
 25 14  1  0
 26 32  1  0
 27 31  1  0
 28 25  2  0
 29 23  1  0
 30 24  1  0
 31 29  1  0
 32 30  1  0
 16 20  2  0
 14 13  2  0
 19 28  1  0
 10  9  2  0
 11  9  1  0
 12 10  1  0
 13 11  1  0
 14 12  1  0
 15  9  1  0
 16 10  1  0
 17 11  2  0
 18 12  2  0
 19 22  2  0
 20 21  1  0
 21 15  2  0
 22 13  1  0
 23 15  1  0
 33 35  1  0
 35 34  2  0
 36 33  2  0
 37 33  1  0
 34 38  1  0
 38 39  2  0
 38 40  1  0
  2 41  1  0
  3 42  1  0
  5 43  1  0
  8 44  1  0
 20 45  1  0
 21 46  1  0
 22 47  1  0
 23 48  1  0
 24 49  1  0
 25 50  1  0
 26 51  1  0
 26 52  1  0
 27 53  1  0
 27 54  1  0
 28 55  1  0
 29 56  1  0
 29 57  1  0
 30 58  1  0
 30 59  1  0
 31 60  1  0
 31 61  1  0
 32 62  1  0
 32 63  1  0
 34 64  1  0
 35 65  1  0
 37 66  1  0
 40 67  1  0
M  END
> <Uni-Dock RESULT> 
ENERGY=   -5.724  LOWER_BOUND=    1.945  UPPER_BOUND=    5.268
INTER + INTRA:          -5.724
INTER:                  -5.724
INTRA:                   0.000
UNBOUND:                 0.000

$$$$

     RDKit          3D

 67 67  0  0  0  0  0  0  0  0999 V2000
   46.6907    6.3207   13.3336 C   0  0  0  0  0  0  0  0  0  0  0  0
   48.2048    8.2983   13.5486 C   0  0  0  0  0  0  0  0  0  0  0  0
   47.9029    7.0134   13.7793 C   0  0  0  0  0  0  0  0  0  0  0  0
   46.1118    5.4597   13.9698 O   0  0  0  0  0  0  0  0  0  0  0  0
   46.3406    6.6384   12.0786 O   0  0  0  0  0  0  0  0  0  0  0  0
   47.3421    9.2794   12.8842 C   0  0  0  0  0  0  0  0  0  0  0  0
   47.7392   10.1672   12.1526 O   0  0  0  0  0  0  0  0  0  0  0  0
   46.0593    9.1868   13.2636 O   0  0  0  0  0  0  0  0  0  0  0  0
   46.6688    7.1305   12.5821 C   0  0  0  0  0  0  0  0  0  0  0  0
   47.2597    8.3950   12.3810 C   0  0  0  0  0  0  0  0  0  0  0  0
   45.2059    6.9678   12.3481 C   0  0  0  0  0  0  0  0  0  0  0  0
   46.4121    9.5353   11.9334 C   0  0  0  0  0  0  0  0  0  0  0  0
   44.4406    8.0634   11.7520 C   0  0  0  0  0  0  0  0  0  0  0  0
   45.0131    9.3048   11.5484 C   0  0  0  0  0  0  0  0  0  0  0  0
   47.4417    6.0283   13.0304 C   0  0  0  0  0  0  0  0  0  0  0  0
   48.6407    8.5904   12.6235 C   0  0  0  0  0  0  0  0  0  0  0  0
   44.6129    5.9378   12.6555 O   0  0  0  0  0  0  0  0  0  0  0  0
   46.8532   10.6813   11.8862 O   0  0  0  0  0  0  0  0  0  0  0  0
   42.3538    8.8747   10.8485 N   0  0  0  0  0  0  0  0  0  0  0  0
   49.3961    7.4878   13.0341 C   0  0  0  0  0  0  0  0  0  0  0  0
   48.8110    6.2348   13.2276 C   0  0  0  0  0  0  0  0  0  0  0  0
   43.1131    7.8927   11.3930 C   0  0  0  0  0  0  0  0  0  0  0  0
   46.8917    4.7411   13.1451 N   0  0  0  0  0  0  0  0  0  0  0  0
   49.2864    9.8213   12.3856 N   0  0  0  0  0  0  0  0  0  0  0  0
   44.2561   10.3408   10.9964 C   0  0  0  0  0  0  0  0  0  0  0  0
   48.2512   11.9093   14.2576 N   0  0  0  0  0  0  0  0  0  0  0  0
   47.2577    3.3620   16.6665 N   0  0  0  0  0  0  0  0  0  0  0  0
   42.9403   10.0768   10.6635 C   0  0  0  0  0  0  0  0  0  0  0  0
   47.3342    3.8272   14.1992 C   0  0  0  0  0  0  0  0  0  0  0  0
   50.1031   10.3796   13.4746 C   0  0  0  0  0  0  0  0  0  0  0  0
   46.9242    4.3144   15.6039 C   0  0  0  0  0  0  0  0  0  0  0  0
   49.2446   10.9017   14.6472 C   0  0  0  0  0  0  0  0  0  0  0  0
   46.5597    6.4568   12.6430 C   0  0  0  0  0  0  0  0  0  0  0  0
   48.0100    7.9353   14.0446 C   0  0  0  0  0  0  0  0  0  0  0  0
   47.5736    6.7262   13.6664 C   0  0  0  0  0  0  0  0  0  0  0  0
   45.7527    5.5470   12.6914 O   0  0  0  0  0  0  0  0  0  0  0  0
   46.6854    7.2429   11.5638 O   0  0  0  0  0  0  0  0  0  0  0  0
   47.4948    9.2232   13.5715 C   0  0  0  0  0  0  0  0  0  0  0  0
   48.1753   10.2153   13.3874 O   0  0  0  0  0  0  0  0  0  0  0  0
   46.1573    9.2470   13.4786 O   0  0  0  0  0  0  0  0  0  0  0  0
   49.1641    8.6952   13.8609 H   0  0  0  0  0  0  0  0  0  0  0  0
   48.5844    6.3884   14.3452 H   0  0  0  0  0  0  0  0  0  0  0  0
   45.5476    6.0891   11.9107 H   0  0  0  0  0  0  0  0  0  0  0  0
   45.6168    9.9085   12.7712 H   0  0  0  0  0  0  0  0  0  0  0  0
   50.4725    7.5767   13.1621 H   0  0  0  0  0  0  0  0  0  0  0  0
   49.4655    5.4111   13.4989 H   0  0  0  0  0  0  0  0  0  0  0  0
   42.6023    6.9427   11.5327 H   0  0  0  0  0  0  0  0  0  0  0  0
   45.8624    4.7791   13.0917 H   0  0  0  0  0  0  0  0  0  0  0  0
   48.6077   10.5231   12.0613 H   0  0  0  0  0  0  0  0  0  0  0  0
   44.6771   11.3276   10.8312 H   0  0  0  0  0  0  0  0  0  0  0  0
   48.7132   12.6657   13.7534 H   0  0  0  0  0  0  0  0  0  0  0  0
   47.6094   11.4987   13.5696 H   0  0  0  0  0  0  0  0  0  0  0  0
   48.2557    3.1562   16.6457 H   0  0  0  0  0  0  0  0  0  0  0  0
   46.7798    2.4773   16.4960 H   0  0  0  0  0  0  0  0  0  0  0  0
   42.3039   10.8438   10.2300 H   0  0  0  0  0  0  0  0  0  0  0  0
   46.8555    2.8587   14.0089 H   0  0  0  0  0  0  0  0  0  0  0  0
   48.4124    3.6417   14.1470 H   0  0  0  0  0  0  0  0  0  0  0  0
   50.8429    9.6605   13.8418 H   0  0  0  0  0  0  0  0  0  0  0  0
   50.6752   11.2171   13.0570 H   0  0  0  0  0  0  0  0  0  0  0  0
   45.8447    4.5026   15.6300 H   0  0  0  0  0  0  0  0  0  0  0  0
   47.4138    5.2676   15.8308 H   0  0  0  0  0  0  0  0  0  0  0  0
   48.7205   10.0692   15.1295 H   0  0  0  0  0  0  0  0  0  0  0  0
   49.9061   11.3416   15.4015 H   0  0  0  0  0  0  0  0  0  0  0  0
   48.8183    8.0211   14.7619 H   0  0  0  0  0  0  0  0  0  0  0  0
   47.9755    5.8340   14.1332 H   0  0  0  0  0  0  0  0  0  0  0  0
   45.9745    6.9342   10.9652 H   0  0  0  0  0  0  0  0  0  0  0  0
   45.9596   10.1602   13.1853 H   0  0  0  0  0  0  0  0  0  0  0  0
  1  3  1  0
  3  2  2  0
  4  1  2  0
  5  1  1  0
  2  6  1  0
  6  7  2  0
  6  8  1  0
 24 16  1  0
 25 14  1  0
 26 32  1  0
 27 31  1  0
 28 25  2  0
 29 23  1  0
 30 24  1  0
 31 29  1  0
 32 30  1  0
 16 20  2  0
 14 13  2  0
 19 28  1  0
 10  9  2  0
 11  9  1  0
 12 10  1  0
 13 11  1  0
 14 12  1  0
 15  9  1  0
 16 10  1  0
 17 11  2  0
 18 12  2  0
 19 22  2  0
 20 21  1  0
 21 15  2  0
 22 13  1  0
 23 15  1  0
 33 35  1  0
 35 34  2  0
 36 33  2  0
 37 33  1  0
 34 38  1  0
 38 39  2  0
 38 40  1  0
  2 41  1  0
  3 42  1  0
  5 43  1  0
  8 44  1  0
 20 45  1  0
 21 46  1  0
 22 47  1  0
 23 48  1  0
 24 49  1  0
 25 50  1  0
 26 51  1  0
 26 52  1  0
 27 53  1  0
 27 54  1  0
 28 55  1  0
 29 56  1  0
 29 57  1  0
 30 58  1  0
 30 59  1  0
 31 60  1  0
 31 61  1  0
 32 62  1  0
 32 63  1  0
 34 64  1  0
 35 65  1  0
 37 66  1  0
 40 67  1  0
M  END
> <Uni-Dock RESULT> 
ENERGY=   -5.071  LOWER_BOUND=    1.817  UPPER_BOUND=    4.540
INTER + INTRA:          -5.071
INTER:                  -5.071
INTRA:                   0.000
UNBOUND:                 0.000

$$$$

     RDKit          3D

 67 67  0  0  0  0  0  0  0  0999 V2000
   48.1105    8.7196   19.2098 C   0  0  0  0  0  0  0  0  0  0  0  0
   48.3581    7.8168   21.5278 C   0  0  0  0  0  0  0  0  0  0  0  0
   48.2537    8.8355   20.6638 C   0  0  0  0  0  0  0  0  0  0  0  0
   48.6013    9.4868   18.4025 O   0  0  0  0  0  0  0  0  0  0  0  0
   47.2667    7.7430   18.8455 O   0  0  0  0  0  0  0  0  0  0  0  0
   48.4385    6.3958   21.1777 C   0  0  0  0  0  0  0  0  0  0  0  0
   47.9442    5.4937   21.8280 O   0  0  0  0  0  0  0  0  0  0  0  0
   49.2305    6.1635   20.1208 O   0  0  0  0  0  0  0  0  0  0  0  0
   47.7352    7.7120   19.4642 C   0  0  0  0  0  0  0  0  0  0  0  0
   47.7471    6.8327   20.5666 C   0  0  0  0  0  0  0  0  0  0  0  0
   48.0448    7.1786   18.1074 C   0  0  0  0  0  0  0  0  0  0  0  0
   48.0607    5.3926   20.3499 C   0  0  0  0  0  0  0  0  0  0  0  0
   48.1838    5.7353   17.9100 C   0  0  0  0  0  0  0  0  0  0  0  0
   48.1931    4.8663   18.9846 C   0  0  0  0  0  0  0  0  0  0  0  0
   47.4635    9.0937   19.6375 C   0  0  0  0  0  0  0  0  0  0  0  0
   47.4872    7.3130   21.8727 C   0  0  0  0  0  0  0  0  0  0  0  0
   48.2022    7.9202   17.1419 O   0  0  0  0  0  0  0  0  0  0  0  0
   48.2243    4.6236   21.2943 O   0  0  0  0  0  0  0  0  0  0  0  0
   48.4748    3.8745   16.3993 N   0  0  0  0  0  0  0  0  0  0  0  0
   47.1896    8.6707   22.0242 C   0  0  0  0  0  0  0  0  0  0  0  0
   47.1728    9.5395   20.9311 C   0  0  0  0  0  0  0  0  0  0  0  0
   48.3306    5.2006   16.6399 C   0  0  0  0  0  0  0  0  0  0  0  0
   47.3540    9.9659   18.5422 N   0  0  0  0  0  0  0  0  0  0  0  0
   47.4351    6.4638   22.9974 N   0  0  0  0  0  0  0  0  0  0  0  0
   48.3476    3.4944   18.7720 C   0  0  0  0  0  0  0  0  0  0  0  0
   50.1321    5.2900   23.5309 N   0  0  0  0  0  0  0  0  0  0  0  0
   49.8000   12.8621   18.7981 N   0  0  0  0  0  0  0  0  0  0  0  0
   48.4818    3.0508   17.4693 C   0  0  0  0  0  0  0  0  0  0  0  0
   47.7939   11.3580   18.6446 C   0  0  0  0  0  0  0  0  0  0  0  0
   48.2419    6.8404   24.1686 C   0  0  0  0  0  0  0  0  0  0  0  0
   49.3232   11.4764   18.8054 C   0  0  0  0  0  0  0  0  0  0  0  0
   49.7555    6.6521   23.9270 C   0  0  0  0  0  0  0  0  0  0  0  0
   47.6097    8.2363   19.0415 C   0  0  0  0  0  0  0  0  0  0  0  0
   48.7425    8.2661   21.2708 C   0  0  0  0  0  0  0  0  0  0  0  0
   48.1894    8.8868   20.2200 C   0  0  0  0  0  0  0  0  0  0  0  0
   47.6656    8.6794   17.9093 O   0  0  0  0  0  0  0  0  0  0  0  0
   46.8872    7.1490   19.3478 O   0  0  0  0  0  0  0  0  0  0  0  0
   48.9541    6.8221   21.4042 C   0  0  0  0  0  0  0  0  0  0  0  0
   48.8569    6.2017   22.4467 O   0  0  0  0  0  0  0  0  0  0  0  0
   49.3979    6.2539   20.2735 O   0  0  0  0  0  0  0  0  0  0  0  0
   48.3871    8.0101   22.5941 H   0  0  0  0  0  0  0  0  0  0  0  0
   48.2746    9.8578   21.0241 H   0  0  0  0  0  0  0  0  0  0  0  0
   47.2483    7.8021   17.8682 H   0  0  0  0  0  0  0  0  0  0  0  0
   49.2123    5.1892   20.0243 H   0  0  0  0  0  0  0  0  0  0  0  0
   46.9137    9.0669   22.9987 H   0  0  0  0  0  0  0  0  0  0  0  0
   46.8850   10.5711   21.1136 H   0  0  0  0  0  0  0  0  0  0  0  0
   48.3377    5.8306   15.7533 H   0  0  0  0  0  0  0  0  0  0  0  0
   47.7176    9.5214   17.6853 H   0  0  0  0  0  0  0  0  0  0  0  0
   47.6467    5.4952   22.7228 H   0  0  0  0  0  0  0  0  0  0  0  0
   48.3652    2.7891   19.5970 H   0  0  0  0  0  0  0  0  0  0  0  0
   49.7660    4.6242   24.2110 H   0  0  0  0  0  0  0  0  0  0  0  0
   49.6520    5.0507   22.6557 H   0  0  0  0  0  0  0  0  0  0  0  0
   49.3296   13.3935   19.5297 H   0  0  0  0  0  0  0  0  0  0  0  0
   49.5482   13.3063   17.9153 H   0  0  0  0  0  0  0  0  0  0  0  0
   48.6041    1.9948   17.2433 H   0  0  0  0  0  0  0  0  0  0  0  0
   47.4979   11.8595   17.7148 H   0  0  0  0  0  0  0  0  0  0  0  0
   47.2722   11.8888   19.4481 H   0  0  0  0  0  0  0  0  0  0  0  0
   48.0382    7.8661   24.4937 H   0  0  0  0  0  0  0  0  0  0  0  0
   47.9347    6.1924   24.9985 H   0  0  0  0  0  0  0  0  0  0  0  0
   49.8238   10.9308   17.9973 H   0  0  0  0  0  0  0  0  0  0  0  0
   49.6416   11.0085   19.7433 H   0  0  0  0  0  0  0  0  0  0  0  0
   50.1017    7.3448   23.1521 H   0  0  0  0  0  0  0  0  0  0  0  0
   50.2947    6.9067   24.8460 H   0  0  0  0  0  0  0  0  0  0  0  0
   49.0774    8.8411   22.1267 H   0  0  0  0  0  0  0  0  0  0  0  0
   48.1454    9.9697   20.1911 H   0  0  0  0  0  0  0  0  0  0  0  0
   46.5442    6.8444   18.4826 H   0  0  0  0  0  0  0  0  0  0  0  0
   49.5196    5.3131   20.5168 H   0  0  0  0  0  0  0  0  0  0  0  0
  1  3  1  0
  3  2  2  0
  4  1  2  0
  5  1  1  0
  2  6  1  0
  6  7  2  0
  6  8  1  0
 24 16  1  0
 25 14  1  0
 26 32  1  0
 27 31  1  0
 28 25  2  0
 29 23  1  0
 30 24  1  0
 31 29  1  0
 32 30  1  0
 16 20  2  0
 14 13  2  0
 19 28  1  0
 10  9  2  0
 11  9  1  0
 12 10  1  0
 13 11  1  0
 14 12  1  0
 15  9  1  0
 16 10  1  0
 17 11  2  0
 18 12  2  0
 19 22  2  0
 20 21  1  0
 21 15  2  0
 22 13  1  0
 23 15  1  0
 33 35  1  0
 35 34  2  0
 36 33  2  0
 37 33  1  0
 34 38  1  0
 38 39  2  0
 38 40  1  0
  2 41  1  0
  3 42  1  0
  5 43  1  0
  8 44  1  0
 20 45  1  0
 21 46  1  0
 22 47  1  0
 23 48  1  0
 24 49  1  0
 25 50  1  0
 26 51  1  0
 26 52  1  0
 27 53  1  0
 27 54  1  0
 28 55  1  0
 29 56  1  0
 29 57  1  0
 30 58  1  0
 30 59  1  0
 31 60  1  0
 31 61  1  0
 32 62  1  0
 32 63  1  0
 34 64  1  0
 35 65  1  0
 37 66  1  0
 40 67  1  0
M  END
> <Uni-Dock RESULT> 
ENERGY=   -4.996  LOWER_BOUND=    7.215  UPPER_BOUND=    9.487
INTER + INTRA:          -4.996
INTER:                  -4.996
INTRA:                   0.000
UNBOUND:                 0.000

$$$$

     RDKit          3D

 67 67  0  0  0  0  0  0  0  0999 V2000
   48.0928   11.5886   18.8361 C   0  0  0  0  0  0  0  0  0  0  0  0
   48.7727   12.0977   21.1873 C   0  0  0  0  0  0  0  0  0  0  0  0
   48.5736   12.4592   19.9126 C   0  0  0  0  0  0  0  0  0  0  0  0
   48.4590   11.6538   17.6773 O   0  0  0  0  0  0  0  0  0  0  0  0
   47.0978   10.7785   19.2262 O   0  0  0  0  0  0  0  0  0  0  0  0
   48.6334   10.7432   21.7298 C   0  0  0  0  0  0  0  0  0  0  0  0
   48.2151   10.4830   22.8426 O   0  0  0  0  0  0  0  0  0  0  0  0
   49.1378    9.8024   20.9183 O   0  0  0  0  0  0  0  0  0  0  0  0
   47.6895   10.9985   19.6787 C   0  0  0  0  0  0  0  0  0  0  0  0
   47.8667   10.9009   21.0743 C   0  0  0  0  0  0  0  0  0  0  0  0
   47.6291    9.7505   18.8661 C   0  0  0  0  0  0  0  0  0  0  0  0
   47.9818    9.5561   21.7046 C   0  0  0  0  0  0  0  0  0  0  0  0
   47.5792    8.4505   19.5362 C   0  0  0  0  0  0  0  0  0  0  0  0
   47.7485    8.3465   20.9039 C   0  0  0  0  0  0  0  0  0  0  0  0
   47.5995   12.2634   19.0426 C   0  0  0  0  0  0  0  0  0  0  0  0
   47.9586   12.0675   21.8710 C   0  0  0  0  0  0  0  0  0  0  0  0
   47.6337    9.7776   17.6388 O   0  0  0  0  0  0  0  0  0  0  0  0
   48.2808    9.4276   22.8895 O   0  0  0  0  0  0  0  0  0  0  0  0
   47.3372    6.0533   19.3811 N   0  0  0  0  0  0  0  0  0  0  0  0
   47.8361   13.3066   21.2348 C   0  0  0  0  0  0  0  0  0  0  0  0
   47.6553   13.4018   19.8534 C   0  0  0  0  0  0  0  0  0  0  0  0
   47.3806    7.2841   18.8148 C   0  0  0  0  0  0  0  0  0  0  0  0
   47.3286   12.3798   17.6693 N   0  0  0  0  0  0  0  0  0  0  0  0
   48.0818   12.0201   23.2750 N   0  0  0  0  0  0  0  0  0  0  0  0
   47.7170    7.0923   21.5180 C   0  0  0  0  0  0  0  0  0  0  0  0
   50.7027   10.8037   24.0412 N   0  0  0  0  0  0  0  0  0  0  0  0
   50.0373   14.3359   15.8603 N   0  0  0  0  0  0  0  0  0  0  0  0
   47.5077    5.9836   20.7187 C   0  0  0  0  0  0  0  0  0  0  0  0
   47.9129   13.4637   16.8784 C   0  0  0  0  0  0  0  0  0  0  0  0
   49.1665   12.8035   23.8869 C   0  0  0  0  0  0  0  0  0  0  0  0
   49.4428   13.3258   16.7400 C   0  0  0  0  0  0  0  0  0  0  0  0
   50.5599   12.1988   23.6083 C   0  0  0  0  0  0  0  0  0  0  0  0
   47.5225   11.2119   19.0495 C   0  0  0  0  0  0  0  0  0  0  0  0
   49.1302   12.2353   20.6687 C   0  0  0  0  0  0  0  0  0  0  0  0
   48.4153   12.2675   19.5358 C   0  0  0  0  0  0  0  0  0  0  0  0
   47.3619   10.9277   17.8770 O   0  0  0  0  0  0  0  0  0  0  0  0
   46.7868   10.6597   20.0252 O   0  0  0  0  0  0  0  0  0  0  0  0
   49.2258   11.1032   21.5944 C   0  0  0  0  0  0  0  0  0  0  0  0
   49.3088   11.2037   22.8045 O   0  0  0  0  0  0  0  0  0  0  0  0
   49.3435    9.9246   20.9658 O   0  0  0  0  0  0  0  0  0  0  0  0
   49.0621   12.8393   21.9231 H   0  0  0  0  0  0  0  0  0  0  0  0
   48.7748   13.4773   19.5989 H   0  0  0  0  0  0  0  0  0  0  0  0
   46.8633   10.2871   18.4123 H   0  0  0  0  0  0  0  0  0  0  0  0
   49.0039    8.9688   21.4145 H   0  0  0  0  0  0  0  0  0  0  0  0
   47.8289   14.2247   21.8177 H   0  0  0  0  0  0  0  0  0  0  0  0
   47.5178   14.3937   19.4319 H   0  0  0  0  0  0  0  0  0  0  0  0
   47.2468    7.2969   17.7356 H   0  0  0  0  0  0  0  0  0  0  0  0
   47.4429   11.4697   17.1976 H   0  0  0  0  0  0  0  0  0  0  0  0
   48.1305   11.0439   23.5959 H   0  0  0  0  0  0  0  0  0  0  0  0
   47.8534    6.9795   22.5890 H   0  0  0  0  0  0  0  0  0  0  0  0
   50.4383   10.7231   25.0227 H   0  0  0  0  0  0  0  0  0  0  0  0
   50.0152   10.2263   23.5435 H   0  0  0  0  0  0  0  0  0  0  0  0
   49.7994   15.2689   16.1948 H   0  0  0  0  0  0  0  0  0  0  0  0
   49.6354   14.2560   14.9264 H   0  0  0  0  0  0  0  0  0  0  0  0
   47.4726    4.9828   21.1412 H   0  0  0  0  0  0  0  0  0  0  0  0
   47.4632   13.4131   15.8791 H   0  0  0  0  0  0  0  0  0  0  0  0
   47.6417   14.4470   17.2775 H   0  0  0  0  0  0  0  0  0  0  0  0
   49.1424   13.8520   23.5720 H   0  0  0  0  0  0  0  0  0  0  0  0
   48.9949   12.8080   24.9701 H   0  0  0  0  0  0  0  0  0  0  0  0
   49.6911   12.3326   16.3488 H   0  0  0  0  0  0  0  0  0  0  0  0
   49.9194   13.4033   17.7232 H   0  0  0  0  0  0  0  0  0  0  0  0
   50.7860   12.2525   22.5377 H   0  0  0  0  0  0  0  0  0  0  0  0
   51.3161   12.8003   24.1244 H   0  0  0  0  0  0  0  0  0  0  0  0
   49.7052   13.1026   20.9729 H   0  0  0  0  0  0  0  0  0  0  0  0
   48.4710   13.1318   18.8837 H   0  0  0  0  0  0  0  0  0  0  0  0
   46.2281   10.0065   19.5560 H   0  0  0  0  0  0  0  0  0  0  0  0
   49.4257    9.2773   21.6960 H   0  0  0  0  0  0  0  0  0  0  0  0
  1  3  1  0
  3  2  2  0
  4  1  2  0
  5  1  1  0
  2  6  1  0
  6  7  2  0
  6  8  1  0
 24 16  1  0
 25 14  1  0
 26 32  1  0
 27 31  1  0
 28 25  2  0
 29 23  1  0
 30 24  1  0
 31 29  1  0
 32 30  1  0
 16 20  2  0
 14 13  2  0
 19 28  1  0
 10  9  2  0
 11  9  1  0
 12 10  1  0
 13 11  1  0
 14 12  1  0
 15  9  1  0
 16 10  1  0
 17 11  2  0
 18 12  2  0
 19 22  2  0
 20 21  1  0
 21 15  2  0
 22 13  1  0
 23 15  1  0
 33 35  1  0
 35 34  2  0
 36 33  2  0
 37 33  1  0
 34 38  1  0
 38 39  2  0
 38 40  1  0
  2 41  1  0
  3 42  1  0
  5 43  1  0
  8 44  1  0
 20 45  1  0
 21 46  1  0
 22 47  1  0
 23 48  1  0
 24 49  1  0
 25 50  1  0
 26 51  1  0
 26 52  1  0
 27 53  1  0
 27 54  1  0
 28 55  1  0
 29 56  1  0
 29 57  1  0
 30 58  1  0
 30 59  1  0
 31 60  1  0
 31 61  1  0
 32 62  1  0
 32 63  1  0
 34 64  1  0
 35 65  1  0
 37 66  1  0
 40 67  1  0
M  END
> <Uni-Dock RESULT> 
ENERGY=   -4.915  LOWER_BOUND=    7.778  UPPER_BOUND=   10.448
INTER + INTRA:          -4.915
INTER:                  -4.915
INTRA:                   0.000
UNBOUND:                 0.000

$$$$

     RDKit          3D

 67 67  0  0  0  0  0  0  0  0999 V2000
   48.6075    8.9290   17.9940 C   0  0  0  0  0  0  0  0  0  0  0  0
   48.3320   10.8679   19.5480 C   0  0  0  0  0  0  0  0  0  0  0  0
   48.6161   10.3521   18.3444 C   0  0  0  0  0  0  0  0  0  0  0  0
   49.3812    8.4030   17.2158 O   0  0  0  0  0  0  0  0  0  0  0  0
   47.5676    8.2683   18.5237 O   0  0  0  0  0  0  0  0  0  0  0  0
   48.0455   10.1044   20.7658 C   0  0  0  0  0  0  0  0  0  0  0  0
   47.2476   10.4398   21.6214 O   0  0  0  0  0  0  0  0  0  0  0  0
   48.8511    9.0432   20.9174 O   0  0  0  0  0  0  0  0  0  0  0  0
   47.9369    8.8577   18.8693 C   0  0  0  0  0  0  0  0  0  0  0  0
   47.5777    9.6410   19.9856 C   0  0  0  0  0  0  0  0  0  0  0  0
   48.2308    7.4096   19.0635 C   0  0  0  0  0  0  0  0  0  0  0  0
   47.4932    9.0035   21.3294 C   0  0  0  0  0  0  0  0  0  0  0  0
   47.9770    6.7859   20.3628 C   0  0  0  0  0  0  0  0  0  0  0  0
   47.6213    7.5459   21.4610 C   0  0  0  0  0  0  0  0  0  0  0  0
   48.0496    9.4370   17.5791 C   0  0  0  0  0  0  0  0  0  0  0  0
   47.3217   11.0257   19.8404 C   0  0  0  0  0  0  0  0  0  0  0  0
   48.6972    6.7183   18.1626 O   0  0  0  0  0  0  0  0  0  0  0  0
   47.3273    9.6729   22.3465 O   0  0  0  0  0  0  0  0  0  0  0  0
   47.8948    4.7877   21.7154 N   0  0  0  0  0  0  0  0  0  0  0  0
   47.4054   11.5763   18.5579 C   0  0  0  0  0  0  0  0  0  0  0  0
   47.7558   10.7986   17.4523 C   0  0  0  0  0  0  0  0  0  0  0  0
   48.1059    5.4167   20.5335 C   0  0  0  0  0  0  0  0  0  0  0  0
   48.3129    8.6563   16.4416 N   0  0  0  0  0  0  0  0  0  0  0  0
   46.9077   11.8381   20.9162 N   0  0  0  0  0  0  0  0  0  0  0  0
   47.4041    6.9298   22.6957 C   0  0  0  0  0  0  0  0  0  0  0  0
   49.0865   12.0444   22.9525 N   0  0  0  0  0  0  0  0  0  0  0  0
   51.4342    9.8293   14.6202 N   0  0  0  0  0  0  0  0  0  0  0  0
   47.5504    5.5569   22.7704 C   0  0  0  0  0  0  0  0  0  0  0  0
   49.1144    9.1856   15.3374 C   0  0  0  0  0  0  0  0  0  0  0  0
   47.6535   13.0844   21.1503 C   0  0  0  0  0  0  0  0  0  0  0  0
   50.5872    9.4057   15.7385 C   0  0  0  0  0  0  0  0  0  0  0  0
   49.0691   12.8278   21.7115 C   0  0  0  0  0  0  0  0  0  0  0  0
   48.0122    8.6118   18.2343 C   0  0  0  0  0  0  0  0  0  0  0  0
   48.8537   10.7673   19.1827 C   0  0  0  0  0  0  0  0  0  0  0  0
   48.6184    9.9436   18.1524 C   0  0  0  0  0  0  0  0  0  0  0  0
   48.3158    7.6690   17.5270 O   0  0  0  0  0  0  0  0  0  0  0  0
   46.9825    8.5586   19.0916 O   0  0  0  0  0  0  0  0  0  0  0  0
   48.6323   10.4600   20.5984 C   0  0  0  0  0  0  0  0  0  0  0  0
   48.2491   11.2627   21.4292 O   0  0  0  0  0  0  0  0  0  0  0  0
   49.0193    9.2195   20.9292 O   0  0  0  0  0  0  0  0  0  0  0  0
   48.2965   11.9429   19.6834 H   0  0  0  0  0  0  0  0  0  0  0  0
   48.8853   11.0063   17.5229 H   0  0  0  0  0  0  0  0  0  0  0  0
   47.6747    7.3549   18.1872 H   0  0  0  0  0  0  0  0  0  0  0  0
   48.5689    8.6549   21.7709 H   0  0  0  0  0  0  0  0  0  0  0  0
   47.1468   12.6193   18.3903 H   0  0  0  0  0  0  0  0  0  0  0  0
   47.7532   11.2800   16.4783 H   0  0  0  0  0  0  0  0  0  0  0  0
   48.3888    4.7637   19.7110 H   0  0  0  0  0  0  0  0  0  0  0  0
   48.6282    7.7125   16.7131 H   0  0  0  0  0  0  0  0  0  0  0  0
   46.8656   11.2866   21.7837 H   0  0  0  0  0  0  0  0  0  0  0  0
   47.1302    7.5017   23.5767 H   0  0  0  0  0  0  0  0  0  0  0  0
   48.4743   12.4826   23.6403 H   0  0  0  0  0  0  0  0  0  0  0  0
   48.6580   11.1283   22.7765 H   0  0  0  0  0  0  0  0  0  0  0  0
   51.0555   10.6780   14.2017 H   0  0  0  0  0  0  0  0  0  0  0  0
   51.4174    9.1182   13.8893 H   0  0  0  0  0  0  0  0  0  0  0  0
   47.3932    5.0234   23.7042 H   0  0  0  0  0  0  0  0  0  0  0  0
   49.0769    8.4463   14.5277 H   0  0  0  0  0  0  0  0  0  0  0  0
   48.6787   10.1017   14.9243 H   0  0  0  0  0  0  0  0  0  0  0  0
   47.7136   13.7015   20.2476 H   0  0  0  0  0  0  0  0  0  0  0  0
   47.0859   13.6719   21.8821 H   0  0  0  0  0  0  0  0  0  0  0  0
   50.9991    8.4804   16.1574 H   0  0  0  0  0  0  0  0  0  0  0  0
   50.6547   10.1634   16.5267 H   0  0  0  0  0  0  0  0  0  0  0  0
   49.6804   12.3070   20.9664 H   0  0  0  0  0  0  0  0  0  0  0  0
   49.5534   13.7914   21.9039 H   0  0  0  0  0  0  0  0  0  0  0  0
   49.2409   11.7640   19.0038 H   0  0  0  0  0  0  0  0  0  0  0  0
   48.8859   10.2442   17.1457 H   0  0  0  0  0  0  0  0  0  0  0  0
   46.6651    7.6351   19.0194 H   0  0  0  0  0  0  0  0  0  0  0  0
   48.8424    9.1679   21.8910 H   0  0  0  0  0  0  0  0  0  0  0  0
  1  3  1  0
  3  2  2  0
  4  1  2  0
  5  1  1  0
  2  6  1  0
  6  7  2  0
  6  8  1  0
 24 16  1  0
 25 14  1  0
 26 32  1  0
 27 31  1  0
 28 25  2  0
 29 23  1  0
 30 24  1  0
 31 29  1  0
 32 30  1  0
 16 20  2  0
 14 13  2  0
 19 28  1  0
 10  9  2  0
 11  9  1  0
 12 10  1  0
 13 11  1  0
 14 12  1  0
 15  9  1  0
 16 10  1  0
 17 11  2  0
 18 12  2  0
 19 22  2  0
 20 21  1  0
 21 15  2  0
 22 13  1  0
 23 15  1  0
 33 35  1  0
 35 34  2  0
 36 33  2  0
 37 33  1  0
 34 38  1  0
 38 39  2  0
 38 40  1  0
  2 41  1  0
  3 42  1  0
  5 43  1  0
  8 44  1  0
 20 45  1  0
 21 46  1  0
 22 47  1  0
 23 48  1  0
 24 49  1  0
 25 50  1  0
 26 51  1  0
 26 52  1  0
 27 53  1  0
 27 54  1  0
 28 55  1  0
 29 56  1  0
 29 57  1  0
 30 58  1  0
 30 59  1  0
 31 60  1  0
 31 61  1  0
 32 62  1  0
 32 63  1  0
 34 64  1  0
 35 65  1  0
 37 66  1  0
 40 67  1  0
M  END
> <Uni-Dock RESULT> 
ENERGY=   -4.865  LOWER_BOUND=    6.804  UPPER_BOUND=    9.551
INTER + INTRA:          -4.865
INTER:                  -4.865
INTRA:                   0.000
UNBOUND:                 0.000

$$$$

     RDKit          3D

 67 67  0  0  0  0  0  0  0  0999 V2000
   47.9679   10.0066   19.7785 C   0  0  0  0  0  0  0  0  0  0  0  0
   48.4509    7.8611   20.9673 C   0  0  0  0  0  0  0  0  0  0  0  0
   48.1830    9.1739   20.9653 C   0  0  0  0  0  0  0  0  0  0  0  0
   48.3219   11.1662   19.6731 O   0  0  0  0  0  0  0  0  0  0  0  0
   47.2178    9.4011   18.8462 O   0  0  0  0  0  0  0  0  0  0  0  0
   48.6678    7.0249   19.7833 C   0  0  0  0  0  0  0  0  0  0  0  0
   48.3162    5.8643   19.6817 O   0  0  0  0  0  0  0  0  0  0  0  0
   49.4169    7.6286   18.8491 O   0  0  0  0  0  0  0  0  0  0  0  0
   47.7226    9.0363   19.3103 C   0  0  0  0  0  0  0  0  0  0  0  0
   47.8973    7.6635   19.5816 C   0  0  0  0  0  0  0  0  0  0  0  0
   48.0088    9.5470   17.9397 C   0  0  0  0  0  0  0  0  0  0  0  0
   48.3556    6.7555   18.4932 C   0  0  0  0  0  0  0  0  0  0  0  0
   48.2954    8.6028   16.8590 C   0  0  0  0  0  0  0  0  0  0  0  0
   48.4647    7.2554   17.1159 C   0  0  0  0  0  0  0  0  0  0  0  0
   47.3099    9.9334   20.3290 C   0  0  0  0  0  0  0  0  0  0  0  0
   47.6633    7.1516   20.8805 C   0  0  0  0  0  0  0  0  0  0  0  0
   48.0254   10.7485   17.6881 O   0  0  0  0  0  0  0  0  0  0  0  0
   48.6591    5.5866   18.7196 O   0  0  0  0  0  0  0  0  0  0  0  0
   48.7015    8.2091   14.5118 N   0  0  0  0  0  0  0  0  0  0  0  0
   47.2262    8.0415   21.8665 C   0  0  0  0  0  0  0  0  0  0  0  0
   47.0484    9.3997   21.5952 C   0  0  0  0  0  0  0  0  0  0  0  0
   48.4254    9.0366   15.5493 C   0  0  0  0  0  0  0  0  0  0  0  0
   47.0395   11.2843   20.0558 N   0  0  0  0  0  0  0  0  0  0  0  0
   47.7725    5.7793   21.1867 N   0  0  0  0  0  0  0  0  0  0  0  0
   48.7578    6.3767   16.0704 C   0  0  0  0  0  0  0  0  0  0  0  0
   50.6099    4.8813   20.9066 N   0  0  0  0  0  0  0  0  0  0  0  0
   49.1594   13.6044   22.1909 N   0  0  0  0  0  0  0  0  0  0  0  0
   48.8632    6.8987   14.7944 C   0  0  0  0  0  0  0  0  0  0  0  0
   47.3274   12.3224   21.0465 C   0  0  0  0  0  0  0  0  0  0  0  0
   48.6002    5.4072   22.3446 C   0  0  0  0  0  0  0  0  0  0  0  0
   48.8408   12.4959   21.2870 C   0  0  0  0  0  0  0  0  0  0  0  0
   50.1084    5.6070   22.0797 C   0  0  0  0  0  0  0  0  0  0  0  0
   47.5149    9.6890   19.3241 C   0  0  0  0  0  0  0  0  0  0  0  0
   48.7671    8.4130   21.0726 C   0  0  0  0  0  0  0  0  0  0  0  0
   48.0874    9.4909   20.6586 C   0  0  0  0  0  0  0  0  0  0  0  0
   47.4541   10.7603   18.7496 O   0  0  0  0  0  0  0  0  0  0  0  0
   46.9370    8.5825   18.8343 O   0  0  0  0  0  0  0  0  0  0  0  0
   49.1453    7.2638   20.2456 C   0  0  0  0  0  0  0  0  0  0  0  0
   49.1795    6.1115   20.6360 O   0  0  0  0  0  0  0  0  0  0  0  0
   49.5819    7.6189   19.0284 O   0  0  0  0  0  0  0  0  0  0  0  0
   48.5212    7.3228   21.9057 H   0  0  0  0  0  0  0  0  0  0  0  0
   48.1115    9.7152   21.9019 H   0  0  0  0  0  0  0  0  0  0  0  0
   47.1353   10.0737   18.1393 H   0  0  0  0  0  0  0  0  0  0  0  0
   49.5013    6.9537   18.1446 H   0  0  0  0  0  0  0  0  0  0  0  0
   46.9660    7.6779   22.8579 H   0  0  0  0  0  0  0  0  0  0  0  0
   46.6590   10.0248   22.3940 H   0  0  0  0  0  0  0  0  0  0  0  0
   48.3100   10.0844   15.2816 H   0  0  0  0  0  0  0  0  0  0  0  0
   47.3989   11.5463   19.1251 H   0  0  0  0  0  0  0  0  0  0  0  0
   48.0737    5.2517   20.3564 H   0  0  0  0  0  0  0  0  0  0  0  0
   48.9023    5.3148   16.2431 H   0  0  0  0  0  0  0  0  0  0  0  0
   50.3609    3.8955   20.9842 H   0  0  0  0  0  0  0  0  0  0  0  0
   50.1085    5.2063   20.0719 H   0  0  0  0  0  0  0  0  0  0  0  0
   48.6770   13.4757   23.0795 H   0  0  0  0  0  0  0  0  0  0  0  0
   48.8081   14.4779   21.7989 H   0  0  0  0  0  0  0  0  0  0  0  0
   49.0885    6.2628   13.9422 H   0  0  0  0  0  0  0  0  0  0  0  0
   46.9231   13.2639   20.6545 H   0  0  0  0  0  0  0  0  0  0  0  0
   46.7984   12.1404   21.9881 H   0  0  0  0  0  0  0  0  0  0  0  0
   48.3034    5.9462   23.2504 H   0  0  0  0  0  0  0  0  0  0  0  0
   48.4165    4.3454   22.5493 H   0  0  0  0  0  0  0  0  0  0  0  0
   49.3503   12.6670   20.3317 H   0  0  0  0  0  0  0  0  0  0  0  0
   49.2641   11.5773   21.7075 H   0  0  0  0  0  0  0  0  0  0  0  0
   50.3291    6.6718   21.9467 H   0  0  0  0  0  0  0  0  0  0  0  0
   50.6694    5.2727   22.9591 H   0  0  0  0  0  0  0  0  0  0  0  0
   49.0861    8.3359   22.1059 H   0  0  0  0  0  0  0  0  0  0  0  0
   47.9217   10.3209   21.3361 H   0  0  0  0  0  0  0  0  0  0  0  0
   46.5794    8.8686   17.9687 H   0  0  0  0  0  0  0  0  0  0  0  0
   49.8216    6.7673   18.6084 H   0  0  0  0  0  0  0  0  0  0  0  0
  1  3  1  0
  3  2  2  0
  4  1  2  0
  5  1  1  0
  2  6  1  0
  6  7  2  0
  6  8  1  0
 24 16  1  0
 25 14  1  0
 26 32  1  0
 27 31  1  0
 28 25  2  0
 29 23  1  0
 30 24  1  0
 31 29  1  0
 32 30  1  0
 16 20  2  0
 14 13  2  0
 19 28  1  0
 10  9  2  0
 11  9  1  0
 12 10  1  0
 13 11  1  0
 14 12  1  0
 15  9  1  0
 16 10  1  0
 17 11  2  0
 18 12  2  0
 19 22  2  0
 20 21  1  0
 21 15  2  0
 22 13  1  0
 23 15  1  0
 33 35  1  0
 35 34  2  0
 36 33  2  0
 37 33  1  0
 34 38  1  0
 38 39  2  0
 38 40  1  0
  2 41  1  0
  3 42  1  0
  5 43  1  0
  8 44  1  0
 20 45  1  0
 21 46  1  0
 22 47  1  0
 23 48  1  0
 24 49  1  0
 25 50  1  0
 26 51  1  0
 26 52  1  0
 27 53  1  0
 27 54  1  0
 28 55  1  0
 29 56  1  0
 29 57  1  0
 30 58  1  0
 30 59  1  0
 31 60  1  0
 31 61  1  0
 32 62  1  0
 32 63  1  0
 34 64  1  0
 35 65  1  0
 37 66  1  0
 40 67  1  0
M  END
> <Uni-Dock RESULT> 
ENERGY=   -4.808  LOWER_BOUND=    6.738  UPPER_BOUND=    8.750
INTER + INTRA:          -4.808
INTER:                  -4.808
INTRA:                   0.000
UNBOUND:                 0.000

$$$$

     RDKit          3D

 67 67  0  0  0  0  0  0  0  0999 V2000
   47.5235    7.0925   13.8194 C   0  0  0  0  0  0  0  0  0  0  0  0
   46.2806    8.9436   12.6888 C   0  0  0  0  0  0  0  0  0  0  0  0
   47.2495    8.4961   13.4988 C   0  0  0  0  0  0  0  0  0  0  0  0
   47.9060    6.6918   14.9030 O   0  0  0  0  0  0  0  0  0  0  0  0
   47.4336    6.2869   12.7510 O   0  0  0  0  0  0  0  0  0  0  0  0
   45.2546    8.1231   12.0389 C   0  0  0  0  0  0  0  0  0  0  0  0
   44.8043    8.3301   10.9274 O   0  0  0  0  0  0  0  0  0  0  0  0
   44.7548    7.1769   12.8471 O   0  0  0  0  0  0  0  0  0  0  0  0
   46.9897    6.9133   12.8686 C   0  0  0  0  0  0  0  0  0  0  0  0
   46.1402    7.6174   11.9906 C   0  0  0  0  0  0  0  0  0  0  0  0
   46.6429    5.5141   13.2471 C   0  0  0  0  0  0  0  0  0  0  0  0
   44.9222    6.9464   11.4564 C   0  0  0  0  0  0  0  0  0  0  0  0
   45.5342    4.8348   12.5757 C   0  0  0  0  0  0  0  0  0  0  0  0
   44.6990    5.5167   11.7111 C   0  0  0  0  0  0  0  0  0  0  0  0
   48.1453    7.5294   13.4145 C   0  0  0  0  0  0  0  0  0  0  0  0
   46.4246    8.9579   11.6351 C   0  0  0  0  0  0  0  0  0  0  0  0
   47.2555    4.9109   14.1234 O   0  0  0  0  0  0  0  0  0  0  0  0
   44.0818    7.5658   10.8083 O   0  0  0  0  0  0  0  0  0  0  0  0
   44.2593    2.8157   12.2190 N   0  0  0  0  0  0  0  0  0  0  0  0
   47.5839    9.5416   12.1552 C   0  0  0  0  0  0  0  0  0  0  0  0
   48.4272    8.8415   13.0204 C   0  0  0  0  0  0  0  0  0  0  0  0
   45.2780    3.4921   12.8037 C   0  0  0  0  0  0  0  0  0  0  0  0
   49.0527    6.8153   14.2140 N   0  0  0  0  0  0  0  0  0  0  0  0
   45.6353    9.6844   10.7198 N   0  0  0  0  0  0  0  0  0  0  0  0
   43.6350    4.8512   11.0978 C   0  0  0  0  0  0  0  0  0  0  0  0
   42.9036   10.1391   11.8455 N   0  0  0  0  0  0  0  0  0  0  0  0
   49.5059    8.4355   17.6207 N   0  0  0  0  0  0  0  0  0  0  0  0
   43.4595    3.5092   11.3808 C   0  0  0  0  0  0  0  0  0  0  0  0
   49.7595    7.4706   15.3153 C   0  0  0  0  0  0  0  0  0  0  0  0
   45.1652   11.0146   11.1370 C   0  0  0  0  0  0  0  0  0  0  0  0
   48.8082    7.8784   16.4587 C   0  0  0  0  0  0  0  0  0  0  0  0
   44.0736   10.9390   12.2268 C   0  0  0  0  0  0  0  0  0  0  0  0
   47.5317    6.6931   13.2251 C   0  0  0  0  0  0  0  0  0  0  0  0
   46.4015    8.9218   13.3217 C   0  0  0  0  0  0  0  0  0  0  0  0
   47.4099    8.0958   13.6320 C   0  0  0  0  0  0  0  0  0  0  0  0
   48.0238    5.8148   13.9091 O   0  0  0  0  0  0  0  0  0  0  0  0
   47.1594    6.4839   11.9540 O   0  0  0  0  0  0  0  0  0  0  0  0
   45.1844    8.5579   12.5910 C   0  0  0  0  0  0  0  0  0  0  0  0
   44.6065    9.2841   11.8037 O   0  0  0  0  0  0  0  0  0  0  0  0
   44.6826    7.3739   12.9714 O   0  0  0  0  0  0  0  0  0  0  0  0
   46.2087   10.0010   12.4607 H   0  0  0  0  0  0  0  0  0  0  0  0
   47.9160    9.1977   13.9877 H   0  0  0  0  0  0  0  0  0  0  0  0
   47.6664    5.4035   13.1037 H   0  0  0  0  0  0  0  0  0  0  0  0
   44.0736    6.7364   12.2986 H   0  0  0  0  0  0  0  0  0  0  0  0
   47.8778   10.5437   11.8514 H   0  0  0  0  0  0  0  0  0  0  0  0
   49.3364    9.3385   13.3472 H   0  0  0  0  0  0  0  0  0  0  0  0
   45.8939    2.9005   13.4772 H   0  0  0  0  0  0  0  0  0  0  0  0
   48.6444    5.9170   14.5143 H   0  0  0  0  0  0  0  0  0  0  0  0
   44.8391    9.1142   10.4047 H   0  0  0  0  0  0  0  0  0  0  0  0
   42.9591    5.3625   10.4196 H   0  0  0  0  0  0  0  0  0  0  0  0
   42.5358   10.4764   10.9562 H   0  0  0  0  0  0  0  0  0  0  0  0
   43.2047    9.1776   11.6488 H   0  0  0  0  0  0  0  0  0  0  0  0
   50.0709    9.2342   17.3347 H   0  0  0  0  0  0  0  0  0  0  0  0
   50.1564    7.7441   17.9935 H   0  0  0  0  0  0  0  0  0  0  0  0
   42.6495    2.9399   10.9323 H   0  0  0  0  0  0  0  0  0  0  0  0
   50.4894    6.7502   15.7048 H   0  0  0  0  0  0  0  0  0  0  0  0
   50.3448    8.3283   14.9666 H   0  0  0  0  0  0  0  0  0  0  0  0
   45.9887   11.6529   11.4741 H   0  0  0  0  0  0  0  0  0  0  0  0
   44.7444   11.5048   10.2507 H   0  0  0  0  0  0  0  0  0  0  0  0
   48.2268    7.0083   16.7847 H   0  0  0  0  0  0  0  0  0  0  0  0
   48.0865    8.6216   16.1025 H   0  0  0  0  0  0  0  0  0  0  0  0
   44.4914   10.5209   13.1492 H   0  0  0  0  0  0  0  0  0  0  0  0
   43.7368   11.9546   12.4612 H   0  0  0  0  0  0  0  0  0  0  0  0
   46.4446    9.9651   13.6134 H   0  0  0  0  0  0  0  0  0  0  0  0
   48.2341    8.4507   14.2404 H   0  0  0  0  0  0  0  0  0  0  0  0
   47.3206    5.5278   11.8171 H   0  0  0  0  0  0  0  0  0  0  0  0
   43.8719    7.2789   12.4304 H   0  0  0  0  0  0  0  0  0  0  0  0
  1  3  1  0
  3  2  2  0
  4  1  2  0
  5  1  1  0
  2  6  1  0
  6  7  2  0
  6  8  1  0
 24 16  1  0
 25 14  1  0
 26 32  1  0
 27 31  1  0
 28 25  2  0
 29 23  1  0
 30 24  1  0
 31 29  1  0
 32 30  1  0
 16 20  2  0
 14 13  2  0
 19 28  1  0
 10  9  2  0
 11  9  1  0
 12 10  1  0
 13 11  1  0
 14 12  1  0
 15  9  1  0
 16 10  1  0
 17 11  2  0
 18 12  2  0
 19 22  2  0
 20 21  1  0
 21 15  2  0
 22 13  1  0
 23 15  1  0
 33 35  1  0
 35 34  2  0
 36 33  2  0
 37 33  1  0
 34 38  1  0
 38 39  2  0
 38 40  1  0
  2 41  1  0
  3 42  1  0
  5 43  1  0
  8 44  1  0
 20 45  1  0
 21 46  1  0
 22 47  1  0
 23 48  1  0
 24 49  1  0
 25 50  1  0
 26 51  1  0
 26 52  1  0
 27 53  1  0
 27 54  1  0
 28 55  1  0
 29 56  1  0
 29 57  1  0
 30 58  1  0
 30 59  1  0
 31 60  1  0
 31 61  1  0
 32 62  1  0
 32 63  1  0
 34 64  1  0
 35 65  1  0
 37 66  1  0
 40 67  1  0
M  END
> <Uni-Dock RESULT> 
ENERGY=   -4.787  LOWER_BOUND=    1.864  UPPER_BOUND=    4.272
INTER + INTRA:          -4.787
INTER:                  -4.787
INTRA:                   0.000
UNBOUND:                 0.000

$$$$
