
     RDKit          3D

 67 67  0  0  0  0  0  0  0  0999 V2000
   47.4932    7.5648   12.7855 C   0  0  0  0  0  0  0  0  0  0  0  0
   45.4800    8.9897   12.9778 C   0  0  0  0  0  0  0  0  0  0  0  0
   46.6179    8.5059   13.4912 C   0  0  0  0  0  0  0  0  0  0  0  0
   47.7567    7.5457   11.6005 O   0  0  0  0  0  0  0  0  0  0  0  0
   48.0456    6.7136   13.6633 O   0  0  0  0  0  0  0  0  0  0  0  0
   44.8955    8.5265   11.7152 C   0  0  0  0  0  0  0  0  0  0  0  0
   44.8812    7.3940   11.2778 O   0  0  0  0  0  0  0  0  0  0  0  0
   44.2934    9.5504   11.0913 O   0  0  0  0  0  0  0  0  0  0  0  0
   45.3301    8.0693   12.1050 C   0  0  0  0  0  0  0  0  0  0  0  0
   46.3988    7.4755   12.8082 C   0  0  0  0  0  0  0  0  0  0  0  0
   44.2683    7.1976   11.5283 C   0  0  0  0  0  0  0  0  0  0  0  0
   46.4361    5.9923   12.9598 C   0  0  0  0  0  0  0  0  0  0  0  0
   44.2289    5.7778   11.8795 C   0  0  0  0  0  0  0  0  0  0  0  0
   45.2696    5.1874   12.5712 C   0  0  0  0  0  0  0  0  0  0  0  0
   45.2718    9.4734   11.9191 C   0  0  0  0  0  0  0  0  0  0  0  0
   47.4438    8.2689   13.3446 C   0  0  0  0  0  0  0  0  0  0  0  0
   43.4268    7.6340   10.7485 O   0  0  0  0  0  0  0  0  0  0  0  0
   47.4293    5.4134   13.3919 O   0  0  0  0  0  0  0  0  0  0  0  0
   43.0788    3.6571   11.7941 N   0  0  0  0  0  0  0  0  0  0  0  0
   47.3484    9.6557   13.1889 C   0  0  0  0  0  0  0  0  0  0  0  0
   46.2881   10.2435   12.4933 C   0  0  0  0  0  0  0  0  0  0  0  0
   43.1592    4.9796   11.5075 C   0  0  0  0  0  0  0  0  0  0  0  0
   44.1591   10.0909   11.3164 N   0  0  0  0  0  0  0  0  0  0  0  0
   48.4621    7.7066   14.1402 N   0  0  0  0  0  0  0  0  0  0  0  0
   45.2219    3.8253   12.8756 C   0  0  0  0  0  0  0  0  0  0  0  0
   52.1573    7.9575   14.8553 N   0  0  0  0  0  0  0  0  0  0  0  0
   43.1877   12.9077    8.9874 N   0  0  0  0  0  0  0  0  0  0  0  0
   44.1112    3.1087   12.4702 C   0  0  0  0  0  0  0  0  0  0  0  0
   44.3625   11.3090   10.5324 C   0  0  0  0  0  0  0  0  0  0  0  0
   49.8039    8.2927   14.0792 C   0  0  0  0  0  0  0  0  0  0  0  0
   43.0642   11.6872    9.7886 C   0  0  0  0  0  0  0  0  0  0  0  0
   50.8048    7.3951   14.8341 C   0  0  0  0  0  0  0  0  0  0  0  0
   45.0438    9.3282   11.9480 C   0  0  0  0  0  0  0  0  0  0  0  0
   45.9469    7.1320   12.6843 C   0  0  0  0  0  0  0  0  0  0  0  0
   44.9711    7.8799   12.1522 C   0  0  0  0  0  0  0  0  0  0  0  0
   44.1663   10.1184   12.2392 O   0  0  0  0  0  0  0  0  0  0  0  0
   46.1486    9.6843   11.2774 O   0  0  0  0  0  0  0  0  0  0  0  0
   47.1968    7.6752   13.2323 C   0  0  0  0  0  0  0  0  0  0  0  0
   47.4112    8.7969   13.6451 O   0  0  0  0  0  0  0  0  0  0  0  0
   48.1289    6.7093   13.2676 O   0  0  0  0  0  0  0  0  0  0  0  0
   44.9089    9.7395   13.5120 H   0  0  0  0  0  0  0  0  0  0  0  0
   46.9662    8.8309   14.4642 H   0  0  0  0  0  0  0  0  0  0  0  0
   48.5907    6.1256   13.0993 H   0  0  0  0  0  0  0  0  0  0  0  0
   43.9543    9.1468   10.2649 H   0  0  0  0  0  0  0  0  0  0  0  0
   48.0812   10.3177   13.6425 H   0  0  0  0  0  0  0  0  0  0  0  0
   46.2579   11.3289   12.4479 H   0  0  0  0  0  0  0  0  0  0  0  0
   42.3127    5.3818   10.9554 H   0  0  0  0  0  0  0  0  0  0  0  0
   43.6061    9.3899   10.7993 H   0  0  0  0  0  0  0  0  0  0  0  0
   48.4887    6.6858   13.9934 H   0  0  0  0  0  0  0  0  0  0  0  0
   46.0283    3.3347   13.4118 H   0  0  0  0  0  0  0  0  0  0  0  0
   52.1549    8.8215   15.3972 H   0  0  0  0  0  0  0  0  0  0  0  0
   52.7719    7.3164   15.3573 H   0  0  0  0  0  0  0  0  0  0  0  0
   43.9445   12.8029    8.3128 H   0  0  0  0  0  0  0  0  0  0  0  0
   43.4435   13.6889    9.5901 H   0  0  0  0  0  0  0  0  0  0  0  0
   44.0185    2.0464   12.6805 H   0  0  0  0  0  0  0  0  0  0  0  0
   45.1668   11.1567    9.8019 H   0  0  0  0  0  0  0  0  0  0  0  0
   44.6415   12.1413   11.1885 H   0  0  0  0  0  0  0  0  0  0  0  0
   50.1253    8.3975   13.0355 H   0  0  0  0  0  0  0  0  0  0  0  0
   49.8040    9.2843   14.5458 H   0  0  0  0  0  0  0  0  0  0  0  0
   42.2504   11.8213   10.5108 H   0  0  0  0  0  0  0  0  0  0  0  0
   42.7643   10.8657    9.1278 H   0  0  0  0  0  0  0  0  0  0  0  0
   50.8411    6.4086   14.3580 H   0  0  0  0  0  0  0  0  0  0  0  0
   50.4637    7.2417   15.8646 H   0  0  0  0  0  0  0  0  0  0  0  0
   45.8242    6.0585   12.7687 H   0  0  0  0  0  0  0  0  0  0  0  0
   44.0333    7.4299   11.8496 H   0  0  0  0  0  0  0  0  0  0  0  0
   46.0979   10.6612   11.2361 H   0  0  0  0  0  0  0  0  0  0  0  0
   48.9147    7.1593   13.6427 H   0  0  0  0  0  0  0  0  0  0  0  0
  1  3  1  0
  3  2  2  0
  4  1  2  0
  5  1  1  0
  2  6  1  0
  6  7  2  0
  6  8  1  0
 24 16  1  0
 25 14  1  0
 26 32  1  0
 27 31  1  0
 28 25  2  0
 29 23  1  0
 30 24  1  0
 31 29  1  0
 32 30  1  0
 16 20  2  0
 14 13  2  0
 19 28  1  0
 10  9  2  0
 11  9  1  0
 12 10  1  0
 13 11  1  0
 14 12  1  0
 15  9  1  0
 16 10  1  0
 17 11  2  0
 18 12  2  0
 19 22  2  0
 20 21  1  0
 21 15  2  0
 22 13  1  0
 23 15  1  0
 33 35  1  0
 35 34  2  0
 36 33  2  0
 37 33  1  0
 34 38  1  0
 38 39  2  0
 38 40  1  0
  2 41  1  0
  3 42  1  0
  5 43  1  0
  8 44  1  0
 20 45  1  0
 21 46  1  0
 22 47  1  0
 23 48  1  0
 24 49  1  0
 25 50  1  0
 26 51  1  0
 26 52  1  0
 27 53  1  0
 27 54  1  0
 28 55  1  0
 29 56  1  0
 29 57  1  0
 30 58  1  0
 30 59  1  0
 31 60  1  0
 31 61  1  0
 32 62  1  0
 32 63  1  0
 34 64  1  0
 35 65  1  0
 37 66  1  0
 40 67  1  0
M  END
> <Uni-Dock RESULT> 
ENERGY=   -6.603  LOWER_BOUND=    0.000  UPPER_BOUND=    0.000
INTER + INTRA:          -6.603
INTER:                  -6.603
INTRA:                   0.000
UNBOUND:                 0.000

$$$$

     RDKit          3D

 67 67  0  0  0  0  0  0  0  0999 V2000
   45.6370    8.8192   12.5603 C   0  0  0  0  0  0  0  0  0  0  0  0
   47.8675    7.7645   12.7425 C   0  0  0  0  0  0  0  0  0  0  0  0
   47.0366    8.6392   12.1619 C   0  0  0  0  0  0  0  0  0  0  0  0
   45.1774    8.7859   13.6835 O   0  0  0  0  0  0  0  0  0  0  0  0
   44.8905    9.0984   11.4810 O   0  0  0  0  0  0  0  0  0  0  0  0
   47.4428    6.7793   13.7422 C   0  0  0  0  0  0  0  0  0  0  0  0
   46.3990    6.1600   13.7740 O   0  0  0  0  0  0  0  0  0  0  0  0
   48.4237    6.5897   14.6376 O   0  0  0  0  0  0  0  0  0  0  0  0
   46.9515    7.0311   13.2471 C   0  0  0  0  0  0  0  0  0  0  0  0
   46.1144    7.8365   12.4473 C   0  0  0  0  0  0  0  0  0  0  0  0
   46.6080    5.5940   13.4380 C   0  0  0  0  0  0  0  0  0  0  0  0
   44.9106    7.2284   11.8106 C   0  0  0  0  0  0  0  0  0  0  0  0
   45.5476    4.9908   12.6304 C   0  0  0  0  0  0  0  0  0  0  0  0
   44.7241    5.7710   11.8410 C   0  0  0  0  0  0  0  0  0  0  0  0
   48.0913    7.5780   13.8885 C   0  0  0  0  0  0  0  0  0  0  0  0
   46.3909    9.2151   12.2672 C   0  0  0  0  0  0  0  0  0  0  0  0
   47.1818    4.8975   14.2701 O   0  0  0  0  0  0  0  0  0  0  0  0
   44.0518    7.9175   11.2665 O   0  0  0  0  0  0  0  0  0  0  0  0
   44.3461    3.0155   11.9363 N   0  0  0  0  0  0  0  0  0  0  0  0
   47.5428    9.7284   12.8722 C   0  0  0  0  0  0  0  0  0  0  0  0
   48.3728    8.9291   13.6634 C   0  0  0  0  0  0  0  0  0  0  0  0
   45.3228    3.6238   12.6529 C   0  0  0  0  0  0  0  0  0  0  0  0
   48.9965    6.7666   14.5992 N   0  0  0  0  0  0  0  0  0  0  0  0
   45.6291   10.0108   11.3881 N   0  0  0  0  0  0  0  0  0  0  0  0
   43.7030    5.1769   11.0962 C   0  0  0  0  0  0  0  0  0  0  0  0
   44.1848   13.4747   11.0081 N   0  0  0  0  0  0  0  0  0  0  0  0
   51.1924    6.7070   17.6775 N   0  0  0  0  0  0  0  0  0  0  0  0
   43.5573    3.8043   11.1751 C   0  0  0  0  0  0  0  0  0  0  0  0
   49.6945    7.3280   15.7556 C   0  0  0  0  0  0  0  0  0  0  0  0
   45.4290   11.4248   11.7174 C   0  0  0  0  0  0  0  0  0  0  0  0
   50.4572    6.2174   16.5085 C   0  0  0  0  0  0  0  0  0  0  0  0
   44.3883   12.0447   10.7635 C   0  0  0  0  0  0  0  0  0  0  0  0
   48.0926    7.3209   13.7998 C   0  0  0  0  0  0  0  0  0  0  0  0
   46.0230    7.2633   12.4234 C   0  0  0  0  0  0  0  0  0  0  0  0
   46.9863    6.6446   13.1191 C   0  0  0  0  0  0  0  0  0  0  0  0
   49.2592    6.9821   13.7407 O   0  0  0  0  0  0  0  0  0  0  0  0
   47.6595    8.2955   14.6121 O   0  0  0  0  0  0  0  0  0  0  0  0
   45.9938    8.7081   12.1602 C   0  0  0  0  0  0  0  0  0  0  0  0
   46.9225    9.4905   12.1594 O   0  0  0  0  0  0  0  0  0  0  0  0
   44.7410    9.0841   11.8565 O   0  0  0  0  0  0  0  0  0  0  0  0
   48.9122    7.7243   12.4585 H   0  0  0  0  0  0  0  0  0  0  0  0
   47.3883    9.2955   11.3750 H   0  0  0  0  0  0  0  0  0  0  0  0
   43.9844    9.1830   11.8456 H   0  0  0  0  0  0  0  0  0  0  0  0
   48.0411    5.9369   15.2609 H   0  0  0  0  0  0  0  0  0  0  0  0
   47.8443   10.7595   12.7084 H   0  0  0  0  0  0  0  0  0  0  0  0
   49.2724    9.3856   14.0674 H   0  0  0  0  0  0  0  0  0  0  0  0
   45.9309    2.9560   13.2589 H   0  0  0  0  0  0  0  0  0  0  0  0
   48.5564    5.8599   14.8198 H   0  0  0  0  0  0  0  0  0  0  0  0
   44.7339    9.5396   11.1862 H   0  0  0  0  0  0  0  0  0  0  0  0
   43.0377    5.7664   10.4731 H   0  0  0  0  0  0  0  0  0  0  0  0
   45.0427   13.9801   10.7873 H   0  0  0  0  0  0  0  0  0  0  0  0
   43.4817   13.8228   10.3561 H   0  0  0  0  0  0  0  0  0  0  0  0
   50.5509    7.1704   18.3198 H   0  0  0  0  0  0  0  0  0  0  0  0
   51.8693    7.4113   17.3864 H   0  0  0  0  0  0  0  0  0  0  0  0
   42.7815    3.2871   10.6166 H   0  0  0  0  0  0  0  0  0  0  0  0
   48.9754    7.7991   16.4373 H   0  0  0  0  0  0  0  0  0  0  0  0
   50.4162    8.0868   15.4328 H   0  0  0  0  0  0  0  0  0  0  0  0
   45.0800   11.5278   12.7524 H   0  0  0  0  0  0  0  0  0  0  0  0
   46.3711   11.9742   11.6102 H   0  0  0  0  0  0  0  0  0  0  0  0
   51.1638    5.7281   15.8281 H   0  0  0  0  0  0  0  0  0  0  0  0
   49.7536    5.4444   16.8384 H   0  0  0  0  0  0  0  0  0  0  0  0
   43.4296   11.5272   10.8834 H   0  0  0  0  0  0  0  0  0  0  0  0
   44.7033   11.8998    9.7235 H   0  0  0  0  0  0  0  0  0  0  0  0
   45.2196    6.6882   11.9780 H   0  0  0  0  0  0  0  0  0  0  0  0
   47.0017    5.5645   13.2002 H   0  0  0  0  0  0  0  0  0  0  0  0
   48.4808    8.6859   14.9750 H   0  0  0  0  0  0  0  0  0  0  0  0
   44.8204   10.0481   11.6985 H   0  0  0  0  0  0  0  0  0  0  0  0
  1  3  1  0
  3  2  2  0
  4  1  2  0
  5  1  1  0
  2  6  1  0
  6  7  2  0
  6  8  1  0
 24 16  1  0
 25 14  1  0
 26 32  1  0
 27 31  1  0
 28 25  2  0
 29 23  1  0
 30 24  1  0
 31 29  1  0
 32 30  1  0
 16 20  2  0
 14 13  2  0
 19 28  1  0
 10  9  2  0
 11  9  1  0
 12 10  1  0
 13 11  1  0
 14 12  1  0
 15  9  1  0
 16 10  1  0
 17 11  2  0
 18 12  2  0
 19 22  2  0
 20 21  1  0
 21 15  2  0
 22 13  1  0
 23 15  1  0
 33 35  1  0
 35 34  2  0
 36 33  2  0
 37 33  1  0
 34 38  1  0
 38 39  2  0
 38 40  1  0
  2 41  1  0
  3 42  1  0
  5 43  1  0
  8 44  1  0
 20 45  1  0
 21 46  1  0
 22 47  1  0
 23 48  1  0
 24 49  1  0
 25 50  1  0
 26 51  1  0
 26 52  1  0
 27 53  1  0
 27 54  1  0
 28 55  1  0
 29 56  1  0
 29 57  1  0
 30 58  1  0
 30 59  1  0
 31 60  1  0
 31 61  1  0
 32 62  1  0
 32 63  1  0
 34 64  1  0
 35 65  1  0
 37 66  1  0
 40 67  1  0
M  END
> <Uni-Dock RESULT> 
ENERGY=   -6.370  LOWER_BOUND=    1.234  UPPER_BOUND=    5.021
INTER + INTRA:          -6.370
INTER:                  -6.370
INTRA:                   0.000
UNBOUND:                 0.000

$$$$

     RDKit          3D

 67 67  0  0  0  0  0  0  0  0999 V2000
   45.6043    6.7096   11.8870 C   0  0  0  0  0  0  0  0  0  0  0  0
   47.0530    7.6821   13.6409 C   0  0  0  0  0  0  0  0  0  0  0  0
   46.0752    6.8467   13.2689 C   0  0  0  0  0  0  0  0  0  0  0  0
   46.2699    6.7410   10.8721 O   0  0  0  0  0  0  0  0  0  0  0  0
   44.2835    6.4743   11.8792 O   0  0  0  0  0  0  0  0  0  0  0  0
   47.6683    8.6654   12.7437 C   0  0  0  0  0  0  0  0  0  0  0  0
   47.1237    9.3205   11.8786 O   0  0  0  0  0  0  0  0  0  0  0  0
   48.9676    8.8059   13.0471 O   0  0  0  0  0  0  0  0  0  0  0  0
   46.9739    8.4390   12.6151 C   0  0  0  0  0  0  0  0  0  0  0  0
   45.8144    7.6765   12.3636 C   0  0  0  0  0  0  0  0  0  0  0  0
   46.9843    9.8841   12.2525 C   0  0  0  0  0  0  0  0  0  0  0  0
   44.6284    8.3368   11.7458 C   0  0  0  0  0  0  0  0  0  0  0  0
   45.7385   10.5372   11.8496 C   0  0  0  0  0  0  0  0  0  0  0  0
   44.5962    9.7992   11.6040 C   0  0  0  0  0  0  0  0  0  0  0  0
   48.1295    7.8422   13.1788 C   0  0  0  0  0  0  0  0  0  0  0  0
   45.7769    6.2922   12.6661 C   0  0  0  0  0  0  0  0  0  0  0  0
   48.0176   10.5465   12.2668 O   0  0  0  0  0  0  0  0  0  0  0  0
   43.6709    7.6873   11.3337 O   0  0  0  0  0  0  0  0  0  0  0  0
   44.5520   12.5645   11.2933 N   0  0  0  0  0  0  0  0  0  0  0  0
   46.9106    5.7291   13.2611 C   0  0  0  0  0  0  0  0  0  0  0  0
   48.0589    6.4857   13.5115 C   0  0  0  0  0  0  0  0  0  0  0  0
   45.6752   11.9107   11.6789 C   0  0  0  0  0  0  0  0  0  0  0  0
   49.2545    8.6096   13.5370 N   0  0  0  0  0  0  0  0  0  0  0  0
   44.5951    5.5380   12.5219 N   0  0  0  0  0  0  0  0  0  0  0  0
   43.4242   10.4408   11.1976 C   0  0  0  0  0  0  0  0  0  0  0  0
   43.3489    2.1337   11.4796 N   0  0  0  0  0  0  0  0  0  0  0  0
   53.0352    8.5424   13.5998 N   0  0  0  0  0  0  0  0  0  0  0  0
   43.4522   11.8162   11.0601 C   0  0  0  0  0  0  0  0  0  0  0  0
   50.5835    8.0055   13.4444 C   0  0  0  0  0  0  0  0  0  0  0  0
   44.7059    4.1269   12.1422 C   0  0  0  0  0  0  0  0  0  0  0  0
   51.6724    9.0763   13.6673 C   0  0  0  0  0  0  0  0  0  0  0  0
   43.3103    3.5594   11.8142 C   0  0  0  0  0  0  0  0  0  0  0  0
   48.0659    8.1004   13.2352 C   0  0  0  0  0  0  0  0  0  0  0  0
   45.7620    8.2529   12.3133 C   0  0  0  0  0  0  0  0  0  0  0  0
   46.9011    8.8261   12.7240 C   0  0  0  0  0  0  0  0  0  0  0  0
   48.6893    8.3988   14.2360 O   0  0  0  0  0  0  0  0  0  0  0  0
   48.4569    7.1287   12.3985 O   0  0  0  0  0  0  0  0  0  0  0  0
   45.4807    6.8145   12.4099 C   0  0  0  0  0  0  0  0  0  0  0  0
   45.9802    6.0001   13.1595 O   0  0  0  0  0  0  0  0  0  0  0  0
   44.5084    6.4878   11.5434 O   0  0  0  0  0  0  0  0  0  0  0  0
   47.4124    7.6901   14.6629 H   0  0  0  0  0  0  0  0  0  0  0  0
   45.6048    6.1912   13.9918 H   0  0  0  0  0  0  0  0  0  0  0  0
   44.0676    6.4157   10.9247 H   0  0  0  0  0  0  0  0  0  0  0  0
   49.2857    9.4617   12.3915 H   0  0  0  0  0  0  0  0  0  0  0  0
   46.9123    4.6908   13.5818 H   0  0  0  0  0  0  0  0  0  0  0  0
   48.8860    5.9915   14.0138 H   0  0  0  0  0  0  0  0  0  0  0  0
   46.5409   12.5468   11.8490 H   0  0  0  0  0  0  0  0  0  0  0  0
   49.2170    9.5276   13.0674 H   0  0  0  0  0  0  0  0  0  0  0  0
   43.9374    6.0437   11.9087 H   0  0  0  0  0  0  0  0  0  0  0  0
   42.5147    9.8852   10.9916 H   0  0  0  0  0  0  0  0  0  0  0  0
   43.6363    1.6021   12.3011 H   0  0  0  0  0  0  0  0  0  0  0  0
   42.4022    1.8211   11.2637 H   0  0  0  0  0  0  0  0  0  0  0  0
   53.1852    8.0914   12.6981 H   0  0  0  0  0  0  0  0  0  0  0  0
   53.1556    7.8195   14.3083 H   0  0  0  0  0  0  0  0  0  0  0  0
   42.5700   12.3693   10.7485 H   0  0  0  0  0  0  0  0  0  0  0  0
   50.7217    7.5490   12.4564 H   0  0  0  0  0  0  0  0  0  0  0  0
   50.7013    7.2270   14.2067 H   0  0  0  0  0  0  0  0  0  0  0  0
   45.3570    4.0195   11.2657 H   0  0  0  0  0  0  0  0  0  0  0  0
   45.1331    3.5465   12.9678 H   0  0  0  0  0  0  0  0  0  0  0  0
   51.5288    9.5513   14.6448 H   0  0  0  0  0  0  0  0  0  0  0  0
   51.5711    9.8682   12.9163 H   0  0  0  0  0  0  0  0  0  0  0  0
   42.8831    4.1083   10.9673 H   0  0  0  0  0  0  0  0  0  0  0  0
   42.6373    3.7099   12.6664 H   0  0  0  0  0  0  0  0  0  0  0  0
   44.9592    8.8631   11.9160 H   0  0  0  0  0  0  0  0  0  0  0  0
   47.0125    9.9036   12.7121 H   0  0  0  0  0  0  0  0  0  0  0  0
   49.2081    6.7039   12.8612 H   0  0  0  0  0  0  0  0  0  0  0  0
   44.3913    5.5242   11.6792 H   0  0  0  0  0  0  0  0  0  0  0  0
  1  3  1  0
  3  2  2  0
  4  1  2  0
  5  1  1  0
  2  6  1  0
  6  7  2  0
  6  8  1  0
 24 16  1  0
 25 14  1  0
 26 32  1  0
 27 31  1  0
 28 25  2  0
 29 23  1  0
 30 24  1  0
 31 29  1  0
 32 30  1  0
 16 20  2  0
 14 13  2  0
 19 28  1  0
 10  9  2  0
 11  9  1  0
 12 10  1  0
 13 11  1  0
 14 12  1  0
 15  9  1  0
 16 10  1  0
 17 11  2  0
 18 12  2  0
 19 22  2  0
 20 21  1  0
 21 15  2  0
 22 13  1  0
 23 15  1  0
 33 35  1  0
 35 34  2  0
 36 33  2  0
 37 33  1  0
 34 38  1  0
 38 39  2  0
 38 40  1  0
  2 41  1  0
  3 42  1  0
  5 43  1  0
  8 44  1  0
 20 45  1  0
 21 46  1  0
 22 47  1  0
 23 48  1  0
 24 49  1  0
 25 50  1  0
 26 51  1  0
 26 52  1  0
 27 53  1  0
 27 54  1  0
 28 55  1  0
 29 56  1  0
 29 57  1  0
 30 58  1  0
 30 59  1  0
 31 60  1  0
 31 61  1  0
 32 62  1  0
 32 63  1  0
 34 64  1  0
 35 65  1  0
 37 66  1  0
 40 67  1  0
M  END
> <Uni-Dock RESULT> 
ENERGY=   -6.288  LOWER_BOUND=    1.305  UPPER_BOUND=    5.509
INTER + INTRA:          -6.288
INTER:                  -6.288
INTRA:                   0.000
UNBOUND:                 0.000

$$$$

     RDKit          3D

 67 67  0  0  0  0  0  0  0  0999 V2000
   47.7562    8.7510   13.6653 C   0  0  0  0  0  0  0  0  0  0  0  0
   47.0690    7.0836   11.9717 C   0  0  0  0  0  0  0  0  0  0  0  0
   48.0204    7.8075   12.5743 C   0  0  0  0  0  0  0  0  0  0  0  0
   46.9601    8.6275   14.5736 O   0  0  0  0  0  0  0  0  0  0  0  0
   48.5861    9.8007   13.5682 O   0  0  0  0  0  0  0  0  0  0  0  0
   45.6346    7.2531   12.2249 C   0  0  0  0  0  0  0  0  0  0  0  0
   45.0372    8.2896   12.4325 O   0  0  0  0  0  0  0  0  0  0  0  0
   45.0151    6.0662   12.1385 O   0  0  0  0  0  0  0  0  0  0  0  0
   46.0938    7.8255   12.3323 C   0  0  0  0  0  0  0  0  0  0  0  0
   47.1332    8.6754   12.7638 C   0  0  0  0  0  0  0  0  0  0  0  0
   44.8461    8.4268   11.7832 C   0  0  0  0  0  0  0  0  0  0  0  0
   46.9584   10.1526   12.6556 C   0  0  0  0  0  0  0  0  0  0  0  0
   44.8000    9.8611   11.4977 C   0  0  0  0  0  0  0  0  0  0  0  0
   45.8150   10.7017   11.9134 C   0  0  0  0  0  0  0  0  0  0  0  0
   46.2125    6.4171   12.4412 C   0  0  0  0  0  0  0  0  0  0  0  0
   48.3226    8.1418   13.3205 C   0  0  0  0  0  0  0  0  0  0  0  0
   43.8414    7.7531   11.5751 O   0  0  0  0  0  0  0  0  0  0  0  0
   47.7427   10.9350   13.1858 O   0  0  0  0  0  0  0  0  0  0  0  0
   43.6261   11.7440   10.5469 N   0  0  0  0  0  0  0  0  0  0  0  0
   48.4406    6.7494   13.3810 C   0  0  0  0  0  0  0  0  0  0  0  0
   47.4107    5.9076   12.9516 C   0  0  0  0  0  0  0  0  0  0  0  0
   43.7262   10.4209   10.8244 C   0  0  0  0  0  0  0  0  0  0  0  0
   45.2330    5.5526   11.9158 N   0  0  0  0  0  0  0  0  0  0  0  0
   49.4136    8.9677   13.6581 N   0  0  0  0  0  0  0  0  0  0  0  0
   45.7392   12.0713   11.6508 C   0  0  0  0  0  0  0  0  0  0  0  0
   52.1351    9.3935   16.2351 N   0  0  0  0  0  0  0  0  0  0  0  0
   43.4311    2.2972   12.5917 N   0  0  0  0  0  0  0  0  0  0  0  0
   44.6330   12.5400   10.9666 C   0  0  0  0  0  0  0  0  0  0  0  0
   44.9855    4.2738   12.5813 C   0  0  0  0  0  0  0  0  0  0  0  0
   50.2525    8.5896   14.7987 C   0  0  0  0  0  0  0  0  0  0  0  0
   43.7373    3.5932   11.9806 C   0  0  0  0  0  0  0  0  0  0  0  0
   51.2297    9.7339   15.1349 C   0  0  0  0  0  0  0  0  0  0  0  0
   46.0749    6.5286   12.2349 C   0  0  0  0  0  0  0  0  0  0  0  0
   46.7047    8.9232   12.4597 C   0  0  0  0  0  0  0  0  0  0  0  0
   45.8869    7.9631   12.0079 C   0  0  0  0  0  0  0  0  0  0  0  0
   45.9764    5.6686   11.3806 O   0  0  0  0  0  0  0  0  0  0  0  0
   46.2458    6.2457   13.5341 O   0  0  0  0  0  0  0  0  0  0  0  0
   47.9664    8.6667   13.1668 C   0  0  0  0  0  0  0  0  0  0  0  0
   48.6555    7.6674   13.1353 O   0  0  0  0  0  0  0  0  0  0  0  0
   48.3180    9.7568   13.8677 O   0  0  0  0  0  0  0  0  0  0  0  0
   47.3290    6.3468   11.2211 H   0  0  0  0  0  0  0  0  0  0  0  0
   49.0609    7.6926   12.2955 H   0  0  0  0  0  0  0  0  0  0  0  0
   48.3221   10.3710   14.3206 H   0  0  0  0  0  0  0  0  0  0  0  0
   44.0795    6.2819   12.3361 H   0  0  0  0  0  0  0  0  0  0  0  0
   49.3587    6.2839   13.7294 H   0  0  0  0  0  0  0  0  0  0  0  0
   47.5890    4.8363   12.9900 H   0  0  0  0  0  0  0  0  0  0  0  0
   42.8923    9.8149   10.4774 H   0  0  0  0  0  0  0  0  0  0  0  0
   44.3583    6.0738   11.7488 H   0  0  0  0  0  0  0  0  0  0  0  0
   49.0942    9.9459   13.7318 H   0  0  0  0  0  0  0  0  0  0  0  0
   46.5189   12.7551   11.9716 H   0  0  0  0  0  0  0  0  0  0  0  0
   52.7487    8.6327   15.9437 H   0  0  0  0  0  0  0  0  0  0  0  0
   52.7465   10.1898   16.4160 H   0  0  0  0  0  0  0  0  0  0  0  0
   43.3027    2.4107   13.5964 H   0  0  0  0  0  0  0  0  0  0  0  0
   44.2222    1.6658   12.4708 H   0  0  0  0  0  0  0  0  0  0  0  0
   44.5209   13.5955   10.7327 H   0  0  0  0  0  0  0  0  0  0  0  0
   44.8294    4.4323   13.6556 H   0  0  0  0  0  0  0  0  0  0  0  0
   45.8429    3.6042   12.4494 H   0  0  0  0  0  0  0  0  0  0  0  0
   49.6281    8.3758   15.6750 H   0  0  0  0  0  0  0  0  0  0  0  0
   50.8351    7.6932   14.5578 H   0  0  0  0  0  0  0  0  0  0  0  0
   43.8774    3.4496   10.9029 H   0  0  0  0  0  0  0  0  0  0  0  0
   42.8664    4.2482   12.0987 H   0  0  0  0  0  0  0  0  0  0  0  0
   50.6615   10.6296   15.4110 H   0  0  0  0  0  0  0  0  0  0  0  0
   51.8222    9.9903   14.2488 H   0  0  0  0  0  0  0  0  0  0  0  0
   46.4730    9.9657   12.2751 H   0  0  0  0  0  0  0  0  0  0  0  0
   45.0175    8.2137   11.4122 H   0  0  0  0  0  0  0  0  0  0  0  0
   46.3925    5.2777   13.5499 H   0  0  0  0  0  0  0  0  0  0  0  0
   49.1586    9.4943   14.2980 H   0  0  0  0  0  0  0  0  0  0  0  0
  1  3  1  0
  3  2  2  0
  4  1  2  0
  5  1  1  0
  2  6  1  0
  6  7  2  0
  6  8  1  0
 24 16  1  0
 25 14  1  0
 26 32  1  0
 27 31  1  0
 28 25  2  0
 29 23  1  0
 30 24  1  0
 31 29  1  0
 32 30  1  0
 16 20  2  0
 14 13  2  0
 19 28  1  0
 10  9  2  0
 11  9  1  0
 12 10  1  0
 13 11  1  0
 14 12  1  0
 15  9  1  0
 16 10  1  0
 17 11  2  0
 18 12  2  0
 19 22  2  0
 20 21  1  0
 21 15  2  0
 22 13  1  0
 23 15  1  0
 33 35  1  0
 35 34  2  0
 36 33  2  0
 37 33  1  0
 34 38  1  0
 38 39  2  0
 38 40  1  0
  2 41  1  0
  3 42  1  0
  5 43  1  0
  8 44  1  0
 20 45  1  0
 21 46  1  0
 22 47  1  0
 23 48  1  0
 24 49  1  0
 25 50  1  0
 26 51  1  0
 26 52  1  0
 27 53  1  0
 27 54  1  0
 28 55  1  0
 29 56  1  0
 29 57  1  0
 30 58  1  0
 30 59  1  0
 31 60  1  0
 31 61  1  0
 32 62  1  0
 32 63  1  0
 34 64  1  0
 35 65  1  0
 37 66  1  0
 40 67  1  0
M  END
> <Uni-Dock RESULT> 
ENERGY=   -5.878  LOWER_BOUND=    1.323  UPPER_BOUND=    4.495
INTER + INTRA:          -5.878
INTER:                  -5.878
INTRA:                   0.000
UNBOUND:                 0.000

$$$$

     RDKit          3D

 67 67  0  0  0  0  0  0  0  0999 V2000
   46.7565    9.1685   12.3186 C   0  0  0  0  0  0  0  0  0  0  0  0
   45.2179    7.2981   12.8233 C   0  0  0  0  0  0  0  0  0  0  0  0
   45.4578    8.6101   12.7080 C   0  0  0  0  0  0  0  0  0  0  0  0
   47.5368    8.7258   11.5006 O   0  0  0  0  0  0  0  0  0  0  0  0
   46.9668   10.3235   12.9681 O   0  0  0  0  0  0  0  0  0  0  0  0
   46.2573    6.2688   12.7203 C   0  0  0  0  0  0  0  0  0  0  0  0
   47.4010    6.3291   13.1234 O   0  0  0  0  0  0  0  0  0  0  0  0
   45.7499    5.1674   12.1463 O   0  0  0  0  0  0  0  0  0  0  0  0
   46.4419    6.9524   12.9405 C   0  0  0  0  0  0  0  0  0  0  0  0
   46.6402    8.3455   13.0365 C   0  0  0  0  0  0  0  0  0  0  0  0
   47.3042    6.0402   13.7431 C   0  0  0  0  0  0  0  0  0  0  0  0
   47.7041    8.8690   13.9411 C   0  0  0  0  0  0  0  0  0  0  0  0
   48.1848    6.5962   14.7708 C   0  0  0  0  0  0  0  0  0  0  0  0
   48.3832    7.9599   14.8751 C   0  0  0  0  0  0  0  0  0  0  0  0
   45.4571    6.4153   12.0738 C   0  0  0  0  0  0  0  0  0  0  0  0
   45.8607    9.2439   12.2655 C   0  0  0  0  0  0  0  0  0  0  0  0
   47.3103    4.8269   13.5571 O   0  0  0  0  0  0  0  0  0  0  0  0
   48.0448   10.0487   13.9203 O   0  0  0  0  0  0  0  0  0  0  0  0
   49.7019    6.2318   16.6127 N   0  0  0  0  0  0  0  0  0  0  0  0
   44.8651    8.6991   11.4479 C   0  0  0  0  0  0  0  0  0  0  0  0
   44.6680    7.3185   11.3546 C   0  0  0  0  0  0  0  0  0  0  0  0
   48.8637    5.7706   15.6524 C   0  0  0  0  0  0  0  0  0  0  0  0
   45.1720    5.0366   12.0476 N   0  0  0  0  0  0  0  0  0  0  0  0
   45.9703   10.6397   12.4262 N   0  0  0  0  0  0  0  0  0  0  0  0
   49.2464    8.4677   15.8484 C   0  0  0  0  0  0  0  0  0  0  0  0
   45.9180   13.8701   10.4792 N   0  0  0  0  0  0  0  0  0  0  0  0
   44.2580    2.2062    9.7120 N   0  0  0  0  0  0  0  0  0  0  0  0
   49.8759    7.5688   16.6893 C   0  0  0  0  0  0  0  0  0  0  0  0
   44.7381    4.4261   10.7911 C   0  0  0  0  0  0  0  0  0  0  0  0
   45.7633   11.4984   11.2568 C   0  0  0  0  0  0  0  0  0  0  0  0
   44.6958    2.8898   10.9318 C   0  0  0  0  0  0  0  0  0  0  0  0
   46.1551   12.9508   11.5949 C   0  0  0  0  0  0  0  0  0  0  0  0
   45.5163    6.2922   12.3088 C   0  0  0  0  0  0  0  0  0  0  0  0
   46.9116    8.0168   13.4313 C   0  0  0  0  0  0  0  0  0  0  0  0
   46.5037    6.7487   13.2893 C   0  0  0  0  0  0  0  0  0  0  0  0
   44.5877    5.5448   12.5504 O   0  0  0  0  0  0  0  0  0  0  0  0
   45.8232    6.6915   11.0665 O   0  0  0  0  0  0  0  0  0  0  0  0
   46.3512    9.1519   12.6863 C   0  0  0  0  0  0  0  0  0  0  0  0
   45.2623    9.2382   12.1557 O   0  0  0  0  0  0  0  0  0  0  0  0
   47.2251   10.1713   12.6967 O   0  0  0  0  0  0  0  0  0  0  0  0
   44.2202    6.9370   13.0422 H   0  0  0  0  0  0  0  0  0  0  0  0
   44.6656    9.3319   12.8666 H   0  0  0  0  0  0  0  0  0  0  0  0
   47.8532   10.6028   12.6562 H   0  0  0  0  0  0  0  0  0  0  0  0
   46.5151    4.5556   12.1099 H   0  0  0  0  0  0  0  0  0  0  0  0
   44.1892    9.3427   10.8913 H   0  0  0  0  0  0  0  0  0  0  0  0
   43.8490    6.9693   10.7315 H   0  0  0  0  0  0  0  0  0  0  0  0
   48.7564    4.6888   15.6177 H   0  0  0  0  0  0  0  0  0  0  0  0
   45.9452    4.5101   12.4829 H   0  0  0  0  0  0  0  0  0  0  0  0
   46.8562   10.8619   12.9059 H   0  0  0  0  0  0  0  0  0  0  0  0
   49.4256    9.5336   15.9482 H   0  0  0  0  0  0  0  0  0  0  0  0
   44.9161   13.9287   10.2976 H   0  0  0  0  0  0  0  0  0  0  0  0
   46.2048   14.8081   10.7596 H   0  0  0  0  0  0  0  0  0  0  0  0
   44.8703    2.4572    8.9367 H   0  0  0  0  0  0  0  0  0  0  0  0
   43.3237    2.5244    9.4573 H   0  0  0  0  0  0  0  0  0  0  0  0
   50.5569    7.9061   17.4663 H   0  0  0  0  0  0  0  0  0  0  0  0
   45.4288    4.6966    9.9828 H   0  0  0  0  0  0  0  0  0  0  0  0
   43.7351    4.7778   10.5239 H   0  0  0  0  0  0  0  0  0  0  0  0
   46.3703   11.1451   10.4140 H   0  0  0  0  0  0  0  0  0  0  0  0
   44.7088   11.4822   10.9587 H   0  0  0  0  0  0  0  0  0  0  0  0
   44.0228    2.6123   11.7513 H   0  0  0  0  0  0  0  0  0  0  0  0
   45.6899    2.5160   11.2026 H   0  0  0  0  0  0  0  0  0  0  0  0
   47.2171   12.9892   11.8629 H   0  0  0  0  0  0  0  0  0  0  0  0
   45.5908   13.2949   12.4696 H   0  0  0  0  0  0  0  0  0  0  0  0
   47.6736    8.2640   14.1613 H   0  0  0  0  0  0  0  0  0  0  0  0
   46.8908    5.9688   13.9339 H   0  0  0  0  0  0  0  0  0  0  0  0
   45.0826    6.3584   10.5193 H   0  0  0  0  0  0  0  0  0  0  0  0
   46.7700   10.8719   12.1841 H   0  0  0  0  0  0  0  0  0  0  0  0
  1  3  1  0
  3  2  2  0
  4  1  2  0
  5  1  1  0
  2  6  1  0
  6  7  2  0
  6  8  1  0
 24 16  1  0
 25 14  1  0
 26 32  1  0
 27 31  1  0
 28 25  2  0
 29 23  1  0
 30 24  1  0
 31 29  1  0
 32 30  1  0
 16 20  2  0
 14 13  2  0
 19 28  1  0
 10  9  2  0
 11  9  1  0
 12 10  1  0
 13 11  1  0
 14 12  1  0
 15  9  1  0
 16 10  1  0
 17 11  2  0
 18 12  2  0
 19 22  2  0
 20 21  1  0
 21 15  2  0
 22 13  1  0
 23 15  1  0
 33 35  1  0
 35 34  2  0
 36 33  2  0
 37 33  1  0
 34 38  1  0
 38 39  2  0
 38 40  1  0
  2 41  1  0
  3 42  1  0
  5 43  1  0
  8 44  1  0
 20 45  1  0
 21 46  1  0
 22 47  1  0
 23 48  1  0
 24 49  1  0
 25 50  1  0
 26 51  1  0
 26 52  1  0
 27 53  1  0
 27 54  1  0
 28 55  1  0
 29 56  1  0
 29 57  1  0
 30 58  1  0
 30 59  1  0
 31 60  1  0
 31 61  1  0
 32 62  1  0
 32 63  1  0
 34 64  1  0
 35 65  1  0
 37 66  1  0
 40 67  1  0
M  END
> <Uni-Dock RESULT> 
ENERGY=   -5.700  LOWER_BOUND=    1.659  UPPER_BOUND=    5.064
INTER + INTRA:          -5.700
INTER:                  -5.700
INTRA:                   0.000
UNBOUND:                 0.000

$$$$

     RDKit          3D

 67 67  0  0  0  0  0  0  0  0999 V2000
   48.7333   10.7563   12.6998 C   0  0  0  0  0  0  0  0  0  0  0  0
   48.2166    8.4494   11.9706 C   0  0  0  0  0  0  0  0  0  0  0  0
   48.9495    9.5654   11.8720 C   0  0  0  0  0  0  0  0  0  0  0  0
   48.4228   10.7955   13.8728 O   0  0  0  0  0  0  0  0  0  0  0  0
   48.9900   11.8603   11.9819 O   0  0  0  0  0  0  0  0  0  0  0  0
   47.0193    8.3337   12.8093 C   0  0  0  0  0  0  0  0  0  0  0  0
   46.1747    9.1815   13.0144 O   0  0  0  0  0  0  0  0  0  0  0  0
   46.9315    7.0905   13.3060 O   0  0  0  0  0  0  0  0  0  0  0  0
   47.2208    8.9992   12.5517 C   0  0  0  0  0  0  0  0  0  0  0  0
   47.9190   10.1833   12.2361 C   0  0  0  0  0  0  0  0  0  0  0  0
   45.7314    9.0042   12.5155 C   0  0  0  0  0  0  0  0  0  0  0  0
   47.1492   11.4073   11.8708 C   0  0  0  0  0  0  0  0  0  0  0  0
   45.0259   10.1543   11.9496 C   0  0  0  0  0  0  0  0  0  0  0  0
   45.7016   11.3179   11.6342 C   0  0  0  0  0  0  0  0  0  0  0  0
   47.9161    7.8222   12.9270 C   0  0  0  0  0  0  0  0  0  0  0  0
   49.3349   10.2265   12.2894 C   0  0  0  0  0  0  0  0  0  0  0  0
   45.0711    8.0715   12.9636 O   0  0  0  0  0  0  0  0  0  0  0  0
   47.6918   12.5049   11.7736 O   0  0  0  0  0  0  0  0  0  0  0  0
   42.9527   11.1595   11.2297 N   0  0  0  0  0  0  0  0  0  0  0  0
   50.0062    9.0449   12.6200 C   0  0  0  0  0  0  0  0  0  0  0  0
   49.3136    7.8713   12.9310 C   0  0  0  0  0  0  0  0  0  0  0  0
   43.6572   10.1186   11.7371 C   0  0  0  0  0  0  0  0  0  0  0  0
   47.2417    6.6043   13.1381 N   0  0  0  0  0  0  0  0  0  0  0  0
   50.0535   11.3661   11.8756 N   0  0  0  0  0  0  0  0  0  0  0  0
   45.0045   12.4119   11.1170 C   0  0  0  0  0  0  0  0  0  0  0  0
   53.0978   13.4288   12.7160 N   0  0  0  0  0  0  0  0  0  0  0  0
   47.2326    3.5208   15.3276 N   0  0  0  0  0  0  0  0  0  0  0  0
   43.6404   12.2830   10.9319 C   0  0  0  0  0  0  0  0  0  0  0  0
   47.7689    5.6641   14.1270 C   0  0  0  0  0  0  0  0  0  0  0  0
   51.3140   11.6839   12.5522 C   0  0  0  0  0  0  0  0  0  0  0  0
   46.7674    4.5120   14.3540 C   0  0  0  0  0  0  0  0  0  0  0  0
   51.8098   13.0764   12.1136 C   0  0  0  0  0  0  0  0  0  0  0  0
   47.6831    7.8066   12.7877 C   0  0  0  0  0  0  0  0  0  0  0  0
   47.3508   10.1770   12.1152 C   0  0  0  0  0  0  0  0  0  0  0  0
   46.8773    8.9436   12.3374 C   0  0  0  0  0  0  0  0  0  0  0  0
   47.6407    6.6891   12.3098 O   0  0  0  0  0  0  0  0  0  0  0  0
   48.3937    8.1006   13.8858 O   0  0  0  0  0  0  0  0  0  0  0  0
   48.7711   10.5425   12.1972 C   0  0  0  0  0  0  0  0  0  0  0  0
   49.7404    9.8188   12.0910 O   0  0  0  0  0  0  0  0  0  0  0  0
   48.8841   11.8690   12.3721 O   0  0  0  0  0  0  0  0  0  0  0  0
   48.4664    7.5721   11.3860 H   0  0  0  0  0  0  0  0  0  0  0  0
   49.7817    9.6197   11.1806 H   0  0  0  0  0  0  0  0  0  0  0  0
   48.8031   12.5896   12.6098 H   0  0  0  0  0  0  0  0  0  0  0  0
   46.1203    7.1208   13.8555 H   0  0  0  0  0  0  0  0  0  0  0  0
   51.0919    8.9994   12.6045 H   0  0  0  0  0  0  0  0  0  0  0  0
   49.9017    6.9812   13.1378 H   0  0  0  0  0  0  0  0  0  0  0  0
   43.0668    9.2356   11.9714 H   0  0  0  0  0  0  0  0  0  0  0  0
   46.2343    6.7801   13.2751 H   0  0  0  0  0  0  0  0  0  0  0  0
   49.4215   12.1811   11.8520 H   0  0  0  0  0  0  0  0  0  0  0  0
   45.5089   13.3400   10.8668 H   0  0  0  0  0  0  0  0  0  0  0  0
   53.8180   12.7972   12.3657 H   0  0  0  0  0  0  0  0  0  0  0  0
   53.3660   14.3600   12.3971 H   0  0  0  0  0  0  0  0  0  0  0  0
   47.4294    3.9768   16.2176 H   0  0  0  0  0  0  0  0  0  0  0  0
   48.1119    3.1148   15.0099 H   0  0  0  0  0  0  0  0  0  0  0  0
   43.0465   13.1004   10.5313 H   0  0  0  0  0  0  0  0  0  0  0  0
   47.9489    6.1799   15.0784 H   0  0  0  0  0  0  0  0  0  0  0  0
   48.7160    5.2369   13.7784 H   0  0  0  0  0  0  0  0  0  0  0  0
   51.1740   11.6741   13.6403 H   0  0  0  0  0  0  0  0  0  0  0  0
   52.0790   10.9436   12.2920 H   0  0  0  0  0  0  0  0  0  0  0  0
   46.5668    4.0042   13.4035 H   0  0  0  0  0  0  0  0  0  0  0  0
   45.8099    4.9177   14.7006 H   0  0  0  0  0  0  0  0  0  0  0  0
   51.0697   13.8333   12.3975 H   0  0  0  0  0  0  0  0  0  0  0  0
   51.9025   13.1120   11.0218 H   0  0  0  0  0  0  0  0  0  0  0  0
   46.6777   10.9716   11.8151 H   0  0  0  0  0  0  0  0  0  0  0  0
   45.8316    8.7154   12.1706 H   0  0  0  0  0  0  0  0  0  0  0  0
   48.9063    7.2854   14.0633 H   0  0  0  0  0  0  0  0  0  0  0  0
   49.8523   12.0155   12.4137 H   0  0  0  0  0  0  0  0  0  0  0  0
  1  3  1  0
  3  2  2  0
  4  1  2  0
  5  1  1  0
  2  6  1  0
  6  7  2  0
  6  8  1  0
 24 16  1  0
 25 14  1  0
 26 32  1  0
 27 31  1  0
 28 25  2  0
 29 23  1  0
 30 24  1  0
 31 29  1  0
 32 30  1  0
 16 20  2  0
 14 13  2  0
 19 28  1  0
 10  9  2  0
 11  9  1  0
 12 10  1  0
 13 11  1  0
 14 12  1  0
 15  9  1  0
 16 10  1  0
 17 11  2  0
 18 12  2  0
 19 22  2  0
 20 21  1  0
 21 15  2  0
 22 13  1  0
 23 15  1  0
 33 35  1  0
 35 34  2  0
 36 33  2  0
 37 33  1  0
 34 38  1  0
 38 39  2  0
 38 40  1  0
  2 41  1  0
  3 42  1  0
  5 43  1  0
  8 44  1  0
 20 45  1  0
 21 46  1  0
 22 47  1  0
 23 48  1  0
 24 49  1  0
 25 50  1  0
 26 51  1  0
 26 52  1  0
 27 53  1  0
 27 54  1  0
 28 55  1  0
 29 56  1  0
 29 57  1  0
 30 58  1  0
 30 59  1  0
 31 60  1  0
 31 61  1  0
 32 62  1  0
 32 63  1  0
 34 64  1  0
 35 65  1  0
 37 66  1  0
 40 67  1  0
M  END
> <Uni-Dock RESULT> 
ENERGY=   -5.152  LOWER_BOUND=    2.444  UPPER_BOUND=    5.259
INTER + INTRA:          -5.152
INTER:                  -5.152
INTRA:                   0.000
UNBOUND:                 0.000

$$$$

     RDKit          3D

 67 67  0  0  0  0  0  0  0  0999 V2000
   48.9495    7.3842   13.1396 C   0  0  0  0  0  0  0  0  0  0  0  0
   46.5778    6.8018   13.5354 C   0  0  0  0  0  0  0  0  0  0  0  0
   47.5268    7.7107   13.2791 C   0  0  0  0  0  0  0  0  0  0  0  0
   49.4353    6.4007   12.6192 O   0  0  0  0  0  0  0  0  0  0  0  0
   49.6950    8.3851   13.6320 O   0  0  0  0  0  0  0  0  0  0  0  0
   46.8601    5.3987   13.8544 C   0  0  0  0  0  0  0  0  0  0  0  0
   47.7813    4.9602   14.5126 O   0  0  0  0  0  0  0  0  0  0  0  0
   45.8929    4.6158   13.3527 O   0  0  0  0  0  0  0  0  0  0  0  0
   47.3700    5.9160   14.0036 C   0  0  0  0  0  0  0  0  0  0  0  0
   48.3055    6.9686   13.9264 C   0  0  0  0  0  0  0  0  0  0  0  0
   47.4658    4.9416   15.1267 C   0  0  0  0  0  0  0  0  0  0  0  0
   49.3629    7.0813   14.9721 C   0  0  0  0  0  0  0  0  0  0  0  0
   48.3770    5.2090   16.2398 C   0  0  0  0  0  0  0  0  0  0  0  0
   49.2951    6.2399   16.1751 C   0  0  0  0  0  0  0  0  0  0  0  0
   46.3652    5.7612   13.0158 C   0  0  0  0  0  0  0  0  0  0  0  0
   48.2659    7.8971   12.8561 C   0  0  0  0  0  0  0  0  0  0  0  0
   46.8094    3.9045   15.1401 O   0  0  0  0  0  0  0  0  0  0  0  0
   50.3086    7.8556   14.8516 O   0  0  0  0  0  0  0  0  0  0  0  0
   49.1933    4.6158   18.4327 N   0  0  0  0  0  0  0  0  0  0  0  0
   47.2420    7.7548   11.9138 C   0  0  0  0  0  0  0  0  0  0  0  0
   46.3142    6.7124   11.9919 C   0  0  0  0  0  0  0  0  0  0  0  0
   48.3623    4.4213   17.3796 C   0  0  0  0  0  0  0  0  0  0  0  0
   45.3584    4.7840   13.1361 N   0  0  0  0  0  0  0  0  0  0  0  0
   49.1228    9.0153   12.8183 N   0  0  0  0  0  0  0  0  0  0  0  0
   50.1713    6.4626   17.2395 C   0  0  0  0  0  0  0  0  0  0  0  0
   51.1311   11.1435   10.4379 N   0  0  0  0  0  0  0  0  0  0  0  0
   43.2939    2.3399   11.1198 N   0  0  0  0  0  0  0  0  0  0  0  0
   50.0798    5.6304   18.3397 C   0  0  0  0  0  0  0  0  0  0  0  0
   44.8089    4.1791   11.9230 C   0  0  0  0  0  0  0  0  0  0  0  0
   49.5762    9.5075   11.5145 C   0  0  0  0  0  0  0  0  0  0  0  0
   43.8921    2.9923   12.2874 C   0  0  0  0  0  0  0  0  0  0  0  0
   50.6746   10.5722   11.7073 C   0  0  0  0  0  0  0  0  0  0  0  0
   46.3163    5.6933   13.2744 C   0  0  0  0  0  0  0  0  0  0  0  0
   48.2954    6.6662   14.4223 C   0  0  0  0  0  0  0  0  0  0  0  0
   47.2643    5.8117   14.3843 C   0  0  0  0  0  0  0  0  0  0  0  0
   45.1073    5.6345   13.3933 O   0  0  0  0  0  0  0  0  0  0  0  0
   46.9396    5.5259   12.0995 O   0  0  0  0  0  0  0  0  0  0  0  0
   48.5651    7.6797   13.3939 C   0  0  0  0  0  0  0  0  0  0  0  0
   47.7865    8.1745   12.6043 O   0  0  0  0  0  0  0  0  0  0  0  0
   49.8527    8.0549   13.4600 O   0  0  0  0  0  0  0  0  0  0  0  0
   45.5327    7.0864   13.5551 H   0  0  0  0  0  0  0  0  0  0  0  0
   47.2669    8.7506   13.1223 H   0  0  0  0  0  0  0  0  0  0  0  0
   50.6142    8.0673   13.5087 H   0  0  0  0  0  0  0  0  0  0  0  0
   46.1781    3.7118   13.6023 H   0  0  0  0  0  0  0  0  0  0  0  0
   47.1181    8.4800   11.1139 H   0  0  0  0  0  0  0  0  0  0  0  0
   45.5218    6.6889   11.2486 H   0  0  0  0  0  0  0  0  0  0  0  0
   47.6692    3.5903   17.4893 H   0  0  0  0  0  0  0  0  0  0  0  0
   45.6423    4.0709   13.8256 H   0  0  0  0  0  0  0  0  0  0  0  0
   49.9153    8.8628   13.4610 H   0  0  0  0  0  0  0  0  0  0  0  0
   50.9066    7.2608   17.2123 H   0  0  0  0  0  0  0  0  0  0  0  0
   50.3665   11.6638   10.0079 H   0  0  0  0  0  0  0  0  0  0  0  0
   51.8607   11.8301   10.6300 H   0  0  0  0  0  0  0  0  0  0  0  0
   44.0280    2.0180   10.4902 H   0  0  0  0  0  0  0  0  0  0  0  0
   42.7395    3.0160   10.5959 H   0  0  0  0  0  0  0  0  0  0  0  0
   50.7344    5.7572   19.1980 H   0  0  0  0  0  0  0  0  0  0  0  0
   45.6220    3.8235   11.2780 H   0  0  0  0  0  0  0  0  0  0  0  0
   44.2187    4.9148   11.3649 H   0  0  0  0  0  0  0  0  0  0  0  0
   49.9735    8.6802   10.9136 H   0  0  0  0  0  0  0  0  0  0  0  0
   48.7402    9.9633   10.9718 H   0  0  0  0  0  0  0  0  0  0  0  0
   43.0881    3.3360   12.9486 H   0  0  0  0  0  0  0  0  0  0  0  0
   44.4622    2.2442   12.8502 H   0  0  0  0  0  0  0  0  0  0  0  0
   51.5327   10.1225   12.2197 H   0  0  0  0  0  0  0  0  0  0  0  0
   50.3032   11.3784   12.3507 H   0  0  0  0  0  0  0  0  0  0  0  0
   48.9710    6.6652   15.2697 H   0  0  0  0  0  0  0  0  0  0  0  0
   47.0649    5.1497   15.2183 H   0  0  0  0  0  0  0  0  0  0  0  0
   46.2114    5.4949   11.4456 H   0  0  0  0  0  0  0  0  0  0  0  0
   49.9361    8.7231   12.7478 H   0  0  0  0  0  0  0  0  0  0  0  0
  1  3  1  0
  3  2  2  0
  4  1  2  0
  5  1  1  0
  2  6  1  0
  6  7  2  0
  6  8  1  0
 24 16  1  0
 25 14  1  0
 26 32  1  0
 27 31  1  0
 28 25  2  0
 29 23  1  0
 30 24  1  0
 31 29  1  0
 32 30  1  0
 16 20  2  0
 14 13  2  0
 19 28  1  0
 10  9  2  0
 11  9  1  0
 12 10  1  0
 13 11  1  0
 14 12  1  0
 15  9  1  0
 16 10  1  0
 17 11  2  0
 18 12  2  0
 19 22  2  0
 20 21  1  0
 21 15  2  0
 22 13  1  0
 23 15  1  0
 33 35  1  0
 35 34  2  0
 36 33  2  0
 37 33  1  0
 34 38  1  0
 38 39  2  0
 38 40  1  0
  2 41  1  0
  3 42  1  0
  5 43  1  0
  8 44  1  0
 20 45  1  0
 21 46  1  0
 22 47  1  0
 23 48  1  0
 24 49  1  0
 25 50  1  0
 26 51  1  0
 26 52  1  0
 27 53  1  0
 27 54  1  0
 28 55  1  0
 29 56  1  0
 29 57  1  0
 30 58  1  0
 30 59  1  0
 31 60  1  0
 31 61  1  0
 32 62  1  0
 32 63  1  0
 34 64  1  0
 35 65  1  0
 37 66  1  0
 40 67  1  0
M  END
> <Uni-Dock RESULT> 
ENERGY=   -5.067  LOWER_BOUND=    2.787  UPPER_BOUND=    5.065
INTER + INTRA:          -5.067
INTER:                  -5.067
INTRA:                   0.000
UNBOUND:                 0.000

$$$$

     RDKit          3D

 67 67  0  0  0  0  0  0  0  0999 V2000
   42.7143   10.8531   11.1831 C   0  0  0  0  0  0  0  0  0  0  0  0
   45.0709   11.3277   10.5986 C   0  0  0  0  0  0  0  0  0  0  0  0
   43.7731   11.2980   10.2714 C   0  0  0  0  0  0  0  0  0  0  0  0
   42.6390   11.0456   12.3794 O   0  0  0  0  0  0  0  0  0  0  0  0
   41.7546   10.2216   10.4900 O   0  0  0  0  0  0  0  0  0  0  0  0
   45.6073   10.7818   11.8495 C   0  0  0  0  0  0  0  0  0  0  0  0
   45.2458    9.7819   12.4357 O   0  0  0  0  0  0  0  0  0  0  0  0
   46.6422   11.5285   12.2636 O   0  0  0  0  0  0  0  0  0  0  0  0
   44.9781   10.5050   11.5713 C   0  0  0  0  0  0  0  0  0  0  0  0
   43.6732   10.3306   11.0654 C   0  0  0  0  0  0  0  0  0  0  0  0
   45.6916    9.3349   12.1557 C   0  0  0  0  0  0  0  0  0  0  0  0
   43.0436    8.9800   11.1248 C   0  0  0  0  0  0  0  0  0  0  0  0
   45.1274    7.9937   12.0020 C   0  0  0  0  0  0  0  0  0  0  0  0
   43.8510    7.8122   11.5043 C   0  0  0  0  0  0  0  0  0  0  0  0
   45.6012   11.7782   11.5546 C   0  0  0  0  0  0  0  0  0  0  0  0
   42.9506   11.4262   10.5298 C   0  0  0  0  0  0  0  0  0  0  0  0
   46.7399    9.4638   12.7812 O   0  0  0  0  0  0  0  0  0  0  0  0
   41.8524    8.8127   10.8766 O   0  0  0  0  0  0  0  0  0  0  0  0
   45.3670    5.6063   12.2663 N   0  0  0  0  0  0  0  0  0  0  0  0
   43.5964   12.6660   10.4822 C   0  0  0  0  0  0  0  0  0  0  0  0
   44.8903   12.8377   10.9822 C   0  0  0  0  0  0  0  0  0  0  0  0
   45.8468    6.8695   12.3738 C   0  0  0  0  0  0  0  0  0  0  0  0
   46.9409   11.9477   11.9538 N   0  0  0  0  0  0  0  0  0  0  0  0
   41.6902   11.2521    9.9236 N   0  0  0  0  0  0  0  0  0  0  0  0
   43.3233    6.5244   11.3880 C   0  0  0  0  0  0  0  0  0  0  0  0
   38.3183   12.9007    9.5476 N   0  0  0  0  0  0  0  0  0  0  0  0
   49.2530   14.3308   13.7641 N   0  0  0  0  0  0  0  0  0  0  0  0
   44.1165    5.4611   11.7773 C   0  0  0  0  0  0  0  0  0  0  0  0
   47.3405   13.2088   12.5780 C   0  0  0  0  0  0  0  0  0  0  0  0
   40.7039   12.3303   10.0347 C   0  0  0  0  0  0  0  0  0  0  0  0
   48.7771   13.0980   13.1311 C   0  0  0  0  0  0  0  0  0  0  0  0
   39.3356   11.8472    9.5133 C   0  0  0  0  0  0  0  0  0  0  0  0
   45.7486   11.5518   11.5238 C   0  0  0  0  0  0  0  0  0  0  0  0
   43.9698    9.8471   11.1906 C   0  0  0  0  0  0  0  0  0  0  0  0
   45.2250   10.1841   11.5157 C   0  0  0  0  0  0  0  0  0  0  0  0
   46.8111   11.8946   11.0412 O   0  0  0  0  0  0  0  0  0  0  0  0
   44.9774   12.3786   12.2440 O   0  0  0  0  0  0  0  0  0  0  0  0
   42.9622   10.7956   10.6983 C   0  0  0  0  0  0  0  0  0  0  0  0
   43.1408   11.8681   10.1576 O   0  0  0  0  0  0  0  0  0  0  0  0
   41.7346   10.2858   10.8887 O   0  0  0  0  0  0  0  0  0  0  0  0
   45.8035   11.7352    9.9123 H   0  0  0  0  0  0  0  0  0  0  0  0
   43.4404   11.6485    9.3018 H   0  0  0  0  0  0  0  0  0  0  0  0
   41.1127    9.9537   11.1807 H   0  0  0  0  0  0  0  0  0  0  0  0
   46.9149   11.0971   13.1005 H   0  0  0  0  0  0  0  0  0  0  0  0
   43.1192   13.5237   10.0157 H   0  0  0  0  0  0  0  0  0  0  0  0
   45.3442   13.8191   10.8739 H   0  0  0  0  0  0  0  0  0  0  0  0
   46.8534    6.9451   12.7790 H   0  0  0  0  0  0  0  0  0  0  0  0
   47.2484   11.1321   12.5059 H   0  0  0  0  0  0  0  0  0  0  0  0
   41.2925   10.3450   10.2121 H   0  0  0  0  0  0  0  0  0  0  0  0
   42.3214    6.3535   11.0066 H   0  0  0  0  0  0  0  0  0  0  0  0
   38.5761   13.6398    8.8939 H   0  0  0  0  0  0  0  0  0  0  0  0
   37.4378   12.5187    9.2020 H   0  0  0  0  0  0  0  0  0  0  0  0
   48.6212   14.5982   14.5178 H   0  0  0  0  0  0  0  0  0  0  0  0
   49.2347   15.0927   13.0873 H   0  0  0  0  0  0  0  0  0  0  0  0
   43.7595    4.4369   11.7078 H   0  0  0  0  0  0  0  0  0  0  0  0
   46.6552   13.4569   13.3980 H   0  0  0  0  0  0  0  0  0  0  0  0
   47.3132   14.0219   11.8438 H   0  0  0  0  0  0  0  0  0  0  0  0
   40.6031   12.6465   11.0804 H   0  0  0  0  0  0  0  0  0  0  0  0
   41.0195   13.1934    9.4378 H   0  0  0  0  0  0  0  0  0  0  0  0
   49.4653   12.8304   12.3208 H   0  0  0  0  0  0  0  0  0  0  0  0
   48.8284   12.2868   13.8664 H   0  0  0  0  0  0  0  0  0  0  0  0
   38.9900   11.0041   10.1224 H   0  0  0  0  0  0  0  0  0  0  0  0
   39.4373   11.4799    8.4854 H   0  0  0  0  0  0  0  0  0  0  0  0
   43.6541    8.8116   11.2438 H   0  0  0  0  0  0  0  0  0  0  0  0
   45.9489    9.4242   11.7839 H   0  0  0  0  0  0  0  0  0  0  0  0
   45.4075   13.2527   12.1448 H   0  0  0  0  0  0  0  0  0  0  0  0
   41.1386   10.9784   10.5341 H   0  0  0  0  0  0  0  0  0  0  0  0
  1  3  1  0
  3  2  2  0
  4  1  2  0
  5  1  1  0
  2  6  1  0
  6  7  2  0
  6  8  1  0
 24 16  1  0
 25 14  1  0
 26 32  1  0
 27 31  1  0
 28 25  2  0
 29 23  1  0
 30 24  1  0
 31 29  1  0
 32 30  1  0
 16 20  2  0
 14 13  2  0
 19 28  1  0
 10  9  2  0
 11  9  1  0
 12 10  1  0
 13 11  1  0
 14 12  1  0
 15  9  1  0
 16 10  1  0
 17 11  2  0
 18 12  2  0
 19 22  2  0
 20 21  1  0
 21 15  2  0
 22 13  1  0
 23 15  1  0
 33 35  1  0
 35 34  2  0
 36 33  2  0
 37 33  1  0
 34 38  1  0
 38 39  2  0
 38 40  1  0
  2 41  1  0
  3 42  1  0
  5 43  1  0
  8 44  1  0
 20 45  1  0
 21 46  1  0
 22 47  1  0
 23 48  1  0
 24 49  1  0
 25 50  1  0
 26 51  1  0
 26 52  1  0
 27 53  1  0
 27 54  1  0
 28 55  1  0
 29 56  1  0
 29 57  1  0
 30 58  1  0
 30 59  1  0
 31 60  1  0
 31 61  1  0
 32 62  1  0
 32 63  1  0
 34 64  1  0
 35 65  1  0
 37 66  1  0
 40 67  1  0
M  END
> <Uni-Dock RESULT> 
ENERGY=   -5.053  LOWER_BOUND=    2.485  UPPER_BOUND=    5.901
INTER + INTRA:          -5.053
INTER:                  -5.053
INTRA:                   0.000
UNBOUND:                 0.000

$$$$

     RDKit          3D

 67 67  0  0  0  0  0  0  0  0999 V2000
   46.8016    7.9672   12.4851 C   0  0  0  0  0  0  0  0  0  0  0  0
   47.5215   10.1239   13.4600 C   0  0  0  0  0  0  0  0  0  0  0  0
   47.1185    8.8558   13.6075 C   0  0  0  0  0  0  0  0  0  0  0  0
   47.3674    7.8987   11.4131 O   0  0  0  0  0  0  0  0  0  0  0  0
   45.7911    7.1519   12.8232 O   0  0  0  0  0  0  0  0  0  0  0  0
   47.5524   10.8232   12.1714 C   0  0  0  0  0  0  0  0  0  0  0  0
   46.7581   10.7273   11.2582 O   0  0  0  0  0  0  0  0  0  0  0  0
   48.5899   11.6733   12.1412 O   0  0  0  0  0  0  0  0  0  0  0  0
   47.0756   10.2641   12.2713 C   0  0  0  0  0  0  0  0  0  0  0  0
   46.4777    9.0153   12.5397 C   0  0  0  0  0  0  0  0  0  0  0  0
   46.3439   11.2525   11.4300 C   0  0  0  0  0  0  0  0  0  0  0  0
   45.1283    8.7182   11.9785 C   0  0  0  0  0  0  0  0  0  0  0  0
   44.9445   11.0080   11.0798 C   0  0  0  0  0  0  0  0  0  0  0  0
   44.3487    9.7888   11.3415 C   0  0  0  0  0  0  0  0  0  0  0  0
   48.3669   10.5746   12.7669 C   0  0  0  0  0  0  0  0  0  0  0  0
   47.1555    8.0373   13.3101 C   0  0  0  0  0  0  0  0  0  0  0  0
   46.8879   12.2674   11.0049 O   0  0  0  0  0  0  0  0  0  0  0  0
   44.6474    7.5888   12.0200 O   0  0  0  0  0  0  0  0  0  0  0  0
   42.8895   11.8041   10.0949 N   0  0  0  0  0  0  0  0  0  0  0  0
   48.4104    8.3762   13.8267 C   0  0  0  0  0  0  0  0  0  0  0  0
   49.0015    9.6148   13.5617 C   0  0  0  0  0  0  0  0  0  0  0  0
   44.1844   11.9827   10.4538 C   0  0  0  0  0  0  0  0  0  0  0  0
   48.9313   11.8540   12.6013 N   0  0  0  0  0  0  0  0  0  0  0  0
   46.5332    6.8276   13.6781 N   0  0  0  0  0  0  0  0  0  0  0  0
   43.0185    9.5691   10.9774 C   0  0  0  0  0  0  0  0  0  0  0  0
   47.2316    3.1532   14.1680 N   0  0  0  0  0  0  0  0  0  0  0  0
   52.2049   13.6246   11.9304 N   0  0  0  0  0  0  0  0  0  0  0  0
   42.3353   10.6021   10.3630 C   0  0  0  0  0  0  0  0  0  0  0  0
   50.3825   11.9763   12.4645 C   0  0  0  0  0  0  0  0  0  0  0  0
   47.3597    5.6240   13.8042 C   0  0  0  0  0  0  0  0  0  0  0  0
   50.7612   13.4211   12.0757 C   0  0  0  0  0  0  0  0  0  0  0  0
   46.4600    4.3843   13.9811 C   0  0  0  0  0  0  0  0  0  0  0  0
   48.1786   10.7689   12.7405 C   0  0  0  0  0  0  0  0  0  0  0  0
   46.1364    9.4206   12.3016 C   0  0  0  0  0  0  0  0  0  0  0  0
   46.8124   10.5761   12.2496 C   0  0  0  0  0  0  0  0  0  0  0  0
   48.5475   11.7024   13.4273 O   0  0  0  0  0  0  0  0  0  0  0  0
   49.0241    9.8577   12.2385 O   0  0  0  0  0  0  0  0  0  0  0  0
   46.6356    8.2014   12.9512 C   0  0  0  0  0  0  0  0  0  0  0  0
   47.4746    8.1047   13.8237 O   0  0  0  0  0  0  0  0  0  0  0  0
   45.9807    7.1340   12.4665 O   0  0  0  0  0  0  0  0  0  0  0  0
   47.8137   10.7134   14.3208 H   0  0  0  0  0  0  0  0  0  0  0  0
   47.0448    8.4113   14.5927 H   0  0  0  0  0  0  0  0  0  0  0  0
   45.6472    6.6184   12.0135 H   0  0  0  0  0  0  0  0  0  0  0  0
   48.5321   12.0727   11.2478 H   0  0  0  0  0  0  0  0  0  0  0  0
   48.9432    7.6948   14.4845 H   0  0  0  0  0  0  0  0  0  0  0  0
   49.9593    9.8245   14.0304 H   0  0  0  0  0  0  0  0  0  0  0  0
   44.5964   12.9603   10.2139 H   0  0  0  0  0  0  0  0  0  0  0  0
   48.4315   12.3643   11.8568 H   0  0  0  0  0  0  0  0  0  0  0  0
   45.7160    6.6627   13.0703 H   0  0  0  0  0  0  0  0  0  0  0  0
   42.5278    8.6191   11.1650 H   0  0  0  0  0  0  0  0  0  0  0  0
   47.7424    3.2057   15.0492 H   0  0  0  0  0  0  0  0  0  0  0  0
   46.5839    2.3715   14.2685 H   0  0  0  0  0  0  0  0  0  0  0  0
   52.5762   12.9796   11.2340 H   0  0  0  0  0  0  0  0  0  0  0  0
   52.6725   13.4026   12.8085 H   0  0  0  0  0  0  0  0  0  0  0  0
   41.2979   10.4892   10.0591 H   0  0  0  0  0  0  0  0  0  0  0  0
   50.7476   11.2866   11.6933 H   0  0  0  0  0  0  0  0  0  0  0  0
   50.8758   11.7314   13.4119 H   0  0  0  0  0  0  0  0  0  0  0  0
   47.9831    5.4960   12.9106 H   0  0  0  0  0  0  0  0  0  0  0  0
   48.0154    5.7065   14.6785 H   0  0  0  0  0  0  0  0  0  0  0  0
   50.3821   14.1185   12.8317 H   0  0  0  0  0  0  0  0  0  0  0  0
   50.2750   13.6890   11.1306 H   0  0  0  0  0  0  0  0  0  0  0  0
   45.8208    4.2686   13.0984 H   0  0  0  0  0  0  0  0  0  0  0  0
   45.7959    4.5258   14.8418 H   0  0  0  0  0  0  0  0  0  0  0  0
   45.1386    9.3555   11.8835 H   0  0  0  0  0  0  0  0  0  0  0  0
   46.3528   11.4665   11.8381 H   0  0  0  0  0  0  0  0  0  0  0  0
   49.8814   10.0695   12.6615 H   0  0  0  0  0  0  0  0  0  0  0  0
   46.3754    6.3798   12.9524 H   0  0  0  0  0  0  0  0  0  0  0  0
  1  3  1  0
  3  2  2  0
  4  1  2  0
  5  1  1  0
  2  6  1  0
  6  7  2  0
  6  8  1  0
 24 16  1  0
 25 14  1  0
 26 32  1  0
 27 31  1  0
 28 25  2  0
 29 23  1  0
 30 24  1  0
 31 29  1  0
 32 30  1  0
 16 20  2  0
 14 13  2  0
 19 28  1  0
 10  9  2  0
 11  9  1  0
 12 10  1  0
 13 11  1  0
 14 12  1  0
 15  9  1  0
 16 10  1  0
 17 11  2  0
 18 12  2  0
 19 22  2  0
 20 21  1  0
 21 15  2  0
 22 13  1  0
 23 15  1  0
 33 35  1  0
 35 34  2  0
 36 33  2  0
 37 33  1  0
 34 38  1  0
 38 39  2  0
 38 40  1  0
  2 41  1  0
  3 42  1  0
  5 43  1  0
  8 44  1  0
 20 45  1  0
 21 46  1  0
 22 47  1  0
 23 48  1  0
 24 49  1  0
 25 50  1  0
 26 51  1  0
 26 52  1  0
 27 53  1  0
 27 54  1  0
 28 55  1  0
 29 56  1  0
 29 57  1  0
 30 58  1  0
 30 59  1  0
 31 60  1  0
 31 61  1  0
 32 62  1  0
 32 63  1  0
 34 64  1  0
 35 65  1  0
 37 66  1  0
 40 67  1  0
M  END
> <Uni-Dock RESULT> 
ENERGY=   -5.039  LOWER_BOUND=    2.268  UPPER_BOUND=    4.590
INTER + INTRA:          -5.039
INTER:                  -5.039
INTRA:                   0.000
UNBOUND:                 0.000

$$$$
