
     RDKit          3D

 67 67  0  0  0  0  0  0  0  0999 V2000
   46.5591    7.4725   13.0890 C   0  0  0  0  0  0  0  0  0  0  0  0
   44.9934    9.3006   12.4110 C   0  0  0  0  0  0  0  0  0  0  0  0
   45.9917    8.8216   13.1656 C   0  0  0  0  0  0  0  0  0  0  0  0
   47.7334    7.2049   13.2647 O   0  0  0  0  0  0  0  0  0  0  0  0
   45.6264    6.5223   12.9297 O   0  0  0  0  0  0  0  0  0  0  0  0
   44.3369    8.5985   11.3047 C   0  0  0  0  0  0  0  0  0  0  0  0
   43.1538    8.6872   11.0337 O   0  0  0  0  0  0  0  0  0  0  0  0
   45.2008    7.9345   10.5230 O   0  0  0  0  0  0  0  0  0  0  0  0
   46.0707    7.5266   12.4956 C   0  0  0  0  0  0  0  0  0  0  0  0
   44.8208    7.8554   11.9308 C   0  0  0  0  0  0  0  0  0  0  0  0
   46.3393    6.1158   12.8911 C   0  0  0  0  0  0  0  0  0  0  0  0
   43.8009    6.7833   11.7453 C   0  0  0  0  0  0  0  0  0  0  0  0
   45.4002    5.0640   12.5007 C   0  0  0  0  0  0  0  0  0  0  0  0
   44.1737    5.3759   11.9459 C   0  0  0  0  0  0  0  0  0  0  0  0
   47.0557    8.5227   12.7130 C   0  0  0  0  0  0  0  0  0  0  0  0
   44.5187    9.1912   11.5661 C   0  0  0  0  0  0  0  0  0  0  0  0
   47.3262    5.8077   13.5523 O   0  0  0  0  0  0  0  0  0  0  0  0
   42.6402    7.0439   11.4404 O   0  0  0  0  0  0  0  0  0  0  0  0
   44.8662    2.7138   12.3677 N   0  0  0  0  0  0  0  0  0  0  0  0
   45.5187   10.1528   11.7453 C   0  0  0  0  0  0  0  0  0  0  0  0
   46.7572    9.8264   12.3047 C   0  0  0  0  0  0  0  0  0  0  0  0
   45.7041    3.7267   12.6981 C   0  0  0  0  0  0  0  0  0  0  0  0
   48.3465    8.1953   13.1741 N   0  0  0  0  0  0  0  0  0  0  0  0
   43.3196    9.5209   10.9028 N   0  0  0  0  0  0  0  0  0  0  0  0
   43.2833    4.3565   11.6018 C   0  0  0  0  0  0  0  0  0  0  0  0
   40.6737   12.2013   10.7018 N   0  0  0  0  0  0  0  0  0  0  0  0
   51.1916    7.9682   13.5170 N   0  0  0  0  0  0  0  0  0  0  0  0
   43.6746    3.0500   11.8283 C   0  0  0  0  0  0  0  0  0  0  0  0
   49.0477    9.1546   14.0380 C   0  0  0  0  0  0  0  0  0  0  0  0
   42.7119   10.8290   11.1620 C   0  0  0  0  0  0  0  0  0  0  0  0
   50.3441    8.5178   14.5835 C   0  0  0  0  0  0  0  0  0  0  0  0
   41.3091   10.8934   10.5256 C   0  0  0  0  0  0  0  0  0  0  0  0
   46.6939    7.8763   13.1165 C   0  0  0  0  0  0  0  0  0  0  0  0
   44.5374    7.2813   11.9999 C   0  0  0  0  0  0  0  0  0  0  0  0
   45.5695    6.9900   12.8032 C   0  0  0  0  0  0  0  0  0  0  0  0
   47.2536    7.9288   14.1960 O   0  0  0  0  0  0  0  0  0  0  0  0
   47.1426    8.5476   12.0460 O   0  0  0  0  0  0  0  0  0  0  0  0
   44.2888    8.5715   11.3504 C   0  0  0  0  0  0  0  0  0  0  0  0
   43.8051    8.7064   10.2419 O   0  0  0  0  0  0  0  0  0  0  0  0
   44.5295    9.6156   12.1568 O   0  0  0  0  0  0  0  0  0  0  0  0
   44.5988   10.2926   12.5989 H   0  0  0  0  0  0  0  0  0  0  0  0
   46.4569    9.4528   13.9143 H   0  0  0  0  0  0  0  0  0  0  0  0
   46.1404    5.6887   12.9254 H   0  0  0  0  0  0  0  0  0  0  0  0
   44.6343    7.5487    9.8236 H   0  0  0  0  0  0  0  0  0  0  0  0
   45.3701   11.1775   11.4152 H   0  0  0  0  0  0  0  0  0  0  0  0
   47.4999   10.6164   12.3752 H   0  0  0  0  0  0  0  0  0  0  0  0
   46.6495    3.4155   13.1370 H   0  0  0  0  0  0  0  0  0  0  0  0
   48.3357    7.2544   13.5984 H   0  0  0  0  0  0  0  0  0  0  0  0
   42.6376    8.7566   11.0252 H   0  0  0  0  0  0  0  0  0  0  0  0
   42.3107    4.5732   11.1710 H   0  0  0  0  0  0  0  0  0  0  0  0
   41.2006   12.9045   10.1839 H   0  0  0  0  0  0  0  0  0  0  0  0
   39.7474   12.1777   10.2749 H   0  0  0  0  0  0  0  0  0  0  0  0
   51.4532    8.7238   12.8838 H   0  0  0  0  0  0  0  0  0  0  0  0
   50.5892    7.3710   12.9408 H   0  0  0  0  0  0  0  0  0  0  0  0
   43.0242    2.2158   11.5787 H   0  0  0  0  0  0  0  0  0  0  0  0
   48.4113    9.4490   14.8808 H   0  0  0  0  0  0  0  0  0  0  0  0
   49.3171   10.0524   13.4703 H   0  0  0  0  0  0  0  0  0  0  0  0
   43.3284   11.6240   10.7278 H   0  0  0  0  0  0  0  0  0  0  0  0
   42.6292   11.0016   12.2422 H   0  0  0  0  0  0  0  0  0  0  0  0
   50.0897    7.7025   15.2701 H   0  0  0  0  0  0  0  0  0  0  0  0
   50.9113    9.2612   15.1531 H   0  0  0  0  0  0  0  0  0  0  0  0
   41.3750   10.6676    9.4549 H   0  0  0  0  0  0  0  0  0  0  0  0
   40.6685   10.1266   10.9761 H   0  0  0  0  0  0  0  0  0  0  0  0
   43.7925    6.5258   11.7773 H   0  0  0  0  0  0  0  0  0  0  0  0
   45.6207    6.0238   13.2923 H   0  0  0  0  0  0  0  0  0  0  0  0
   47.8980    9.0647   12.3938 H   0  0  0  0  0  0  0  0  0  0  0  0
   44.2945   10.3930   11.6096 H   0  0  0  0  0  0  0  0  0  0  0  0
  1  3  1  0
  3  2  2  0
  4  1  2  0
  5  1  1  0
  2  6  1  0
  6  7  2  0
  6  8  1  0
 24 16  1  0
 25 14  1  0
 26 32  1  0
 27 31  1  0
 28 25  2  0
 29 23  1  0
 30 24  1  0
 31 29  1  0
 32 30  1  0
 16 20  2  0
 14 13  2  0
 19 28  1  0
 10  9  2  0
 11  9  1  0
 12 10  1  0
 13 11  1  0
 14 12  1  0
 15  9  1  0
 16 10  1  0
 17 11  2  0
 18 12  2  0
 19 22  2  0
 20 21  1  0
 21 15  2  0
 22 13  1  0
 23 15  1  0
 33 35  1  0
 35 34  2  0
 36 33  2  0
 37 33  1  0
 34 38  1  0
 38 39  2  0
 38 40  1  0
  2 41  1  0
  3 42  1  0
  5 43  1  0
  8 44  1  0
 20 45  1  0
 21 46  1  0
 22 47  1  0
 23 48  1  0
 24 49  1  0
 25 50  1  0
 26 51  1  0
 26 52  1  0
 27 53  1  0
 27 54  1  0
 28 55  1  0
 29 56  1  0
 29 57  1  0
 30 58  1  0
 30 59  1  0
 31 60  1  0
 31 61  1  0
 32 62  1  0
 32 63  1  0
 34 64  1  0
 35 65  1  0
 37 66  1  0
 40 67  1  0
M  END
> <Uni-Dock RESULT> 
ENERGY=   -6.254  LOWER_BOUND=    0.000  UPPER_BOUND=    0.000
INTER + INTRA:          -6.254
INTER:                  -6.254
INTRA:                   0.000
UNBOUND:                 0.000

$$$$

     RDKit          3D

 67 67  0  0  0  0  0  0  0  0999 V2000
   45.2050    6.7904   12.3939 C   0  0  0  0  0  0  0  0  0  0  0  0
   47.3166    7.0819   13.7013 C   0  0  0  0  0  0  0  0  0  0  0  0
   46.1736    6.4353   13.4348 C   0  0  0  0  0  0  0  0  0  0  0  0
   44.5557    5.9871   11.7501 O   0  0  0  0  0  0  0  0  0  0  0  0
   45.0008    8.1124   12.3001 O   0  0  0  0  0  0  0  0  0  0  0  0
   47.8619    8.2137   12.9466 C   0  0  0  0  0  0  0  0  0  0  0  0
   48.4691    9.1461   13.4397 O   0  0  0  0  0  0  0  0  0  0  0  0
   47.7398    8.0626   11.6198 O   0  0  0  0  0  0  0  0  0  0  0  0
   45.8107    7.2532   12.2810 C   0  0  0  0  0  0  0  0  0  0  0  0
   46.7993    8.1517   12.7334 C   0  0  0  0  0  0  0  0  0  0  0  0
   44.5563    7.7941   11.6869 C   0  0  0  0  0  0  0  0  0  0  0  0
   46.5632    9.6186   12.6063 C   0  0  0  0  0  0  0  0  0  0  0  0
   44.4548    9.2229   11.3887 C   0  0  0  0  0  0  0  0  0  0  0  0
   45.4187   10.1109   11.8268 C   0  0  0  0  0  0  0  0  0  0  0  0
   45.9866    5.8524   12.4095 C   0  0  0  0  0  0  0  0  0  0  0  0
   47.9945    7.6754   13.3279 C   0  0  0  0  0  0  0  0  0  0  0  0
   43.5913    7.0737   11.4505 O   0  0  0  0  0  0  0  0  0  0  0  0
   47.2963   10.4389   13.1521 O   0  0  0  0  0  0  0  0  0  0  0  0
   43.2274   11.0442   10.3875 N   0  0  0  0  0  0  0  0  0  0  0  0
   48.1714    6.2899   13.4050 C   0  0  0  0  0  0  0  0  0  0  0  0
   47.1915    5.4001   12.9563 C   0  0  0  0  0  0  0  0  0  0  0  0
   43.3777    9.7291   10.6794 C   0  0  0  0  0  0  0  0  0  0  0  0
   45.0605    4.9398   11.8659 N   0  0  0  0  0  0  0  0  0  0  0  0
   49.0387    8.5512   13.6871 N   0  0  0  0  0  0  0  0  0  0  0  0
   45.2899   11.4738   11.5504 C   0  0  0  0  0  0  0  0  0  0  0  0
   51.6743    9.1101   16.3268 N   0  0  0  0  0  0  0  0  0  0  0  0
   43.8123    2.7622   10.4645 N   0  0  0  0  0  0  0  0  0  0  0  0
   44.1850   11.8876   10.8297 C   0  0  0  0  0  0  0  0  0  0  0  0
   44.8373    3.6665   12.5639 C   0  0  0  0  0  0  0  0  0  0  0  0
   49.8632    8.2185   14.8521 C   0  0  0  0  0  0  0  0  0  0  0  0
   43.6538    2.9151   11.9169 C   0  0  0  0  0  0  0  0  0  0  0  0
   50.7823    9.4055   15.2031 C   0  0  0  0  0  0  0  0  0  0  0  0
   45.3997    6.4427   12.5461 C   0  0  0  0  0  0  0  0  0  0  0  0
   46.4732    8.6988   12.6390 C   0  0  0  0  0  0  0  0  0  0  0  0
   45.4037    7.9069   12.4830 C   0  0  0  0  0  0  0  0  0  0  0  0
   44.4927    5.7722   13.0037 O   0  0  0  0  0  0  0  0  0  0  0  0
   46.4524    5.8912   11.9251 O   0  0  0  0  0  0  0  0  0  0  0  0
   47.8267    8.2591   12.9895 C   0  0  0  0  0  0  0  0  0  0  0  0
   48.8498    8.7651   12.5671 O   0  0  0  0  0  0  0  0  0  0  0  0
   47.8373    7.3105   13.9373 O   0  0  0  0  0  0  0  0  0  0  0  0
   47.9281    6.7787   14.5436 H   0  0  0  0  0  0  0  0  0  0  0  0
   45.8968    5.5615   14.0139 H   0  0  0  0  0  0  0  0  0  0  0  0
   44.3222    8.1949   11.5988 H   0  0  0  0  0  0  0  0  0  0  0  0
   48.1670    8.8639   11.2530 H   0  0  0  0  0  0  0  0  0  0  0  0
   49.0990    5.8681   13.7828 H   0  0  0  0  0  0  0  0  0  0  0  0
   47.4155    4.3382   13.0100 H   0  0  0  0  0  0  0  0  0  0  0  0
   42.5821    9.0840   10.3133 H   0  0  0  0  0  0  0  0  0  0  0  0
   44.1666    5.4213   11.6795 H   0  0  0  0  0  0  0  0  0  0  0  0
   48.6749    9.5148   13.7446 H   0  0  0  0  0  0  0  0  0  0  0  0
   46.0284   12.1941   11.8883 H   0  0  0  0  0  0  0  0  0  0  0  0
   52.3288    8.3771   16.0537 H   0  0  0  0  0  0  0  0  0  0  0  0
   52.2442    9.9338   16.5204 H   0  0  0  0  0  0  0  0  0  0  0  0
   44.6626    2.2292   10.2817 H   0  0  0  0  0  0  0  0  0  0  0  0
   44.0288    3.6929   10.0926 H   0  0  0  0  0  0  0  0  0  0  0  0
   44.0331   12.9352   10.5834 H   0  0  0  0  0  0  0  0  0  0  0  0
   44.6136    3.8429   13.6226 H   0  0  0  0  0  0  0  0  0  0  0  0
   45.7280    3.0322   12.4936 H   0  0  0  0  0  0  0  0  0  0  0  0
   50.4889    7.3457   14.6346 H   0  0  0  0  0  0  0  0  0  0  0  0
   49.2257    7.9853   15.7140 H   0  0  0  0  0  0  0  0  0  0  0  0
   42.7256    3.4675   12.1015 H   0  0  0  0  0  0  0  0  0  0  0  0
   43.5449    1.9278   12.3776 H   0  0  0  0  0  0  0  0  0  0  0  0
   51.3844    9.6814   14.3297 H   0  0  0  0  0  0  0  0  0  0  0  0
   50.1700   10.2780   15.4589 H   0  0  0  0  0  0  0  0  0  0  0  0
   46.3803    9.7700   12.5014 H   0  0  0  0  0  0  0  0  0  0  0  0
   44.4288    8.3423   12.2944 H   0  0  0  0  0  0  0  0  0  0  0  0
   46.3022    4.9282   12.0204 H   0  0  0  0  0  0  0  0  0  0  0  0
   48.7900    7.1414   14.0886 H   0  0  0  0  0  0  0  0  0  0  0  0
  1  3  1  0
  3  2  2  0
  4  1  2  0
  5  1  1  0
  2  6  1  0
  6  7  2  0
  6  8  1  0
 24 16  1  0
 25 14  1  0
 26 32  1  0
 27 31  1  0
 28 25  2  0
 29 23  1  0
 30 24  1  0
 31 29  1  0
 32 30  1  0
 16 20  2  0
 14 13  2  0
 19 28  1  0
 10  9  2  0
 11  9  1  0
 12 10  1  0
 13 11  1  0
 14 12  1  0
 15  9  1  0
 16 10  1  0
 17 11  2  0
 18 12  2  0
 19 22  2  0
 20 21  1  0
 21 15  2  0
 22 13  1  0
 23 15  1  0
 33 35  1  0
 35 34  2  0
 36 33  2  0
 37 33  1  0
 34 38  1  0
 38 39  2  0
 38 40  1  0
  2 41  1  0
  3 42  1  0
  5 43  1  0
  8 44  1  0
 20 45  1  0
 21 46  1  0
 22 47  1  0
 23 48  1  0
 24 49  1  0
 25 50  1  0
 26 51  1  0
 26 52  1  0
 27 53  1  0
 27 54  1  0
 28 55  1  0
 29 56  1  0
 29 57  1  0
 30 58  1  0
 30 59  1  0
 31 60  1  0
 31 61  1  0
 32 62  1  0
 32 63  1  0
 34 64  1  0
 35 65  1  0
 37 66  1  0
 40 67  1  0
M  END
> <Uni-Dock RESULT> 
ENERGY=   -5.948  LOWER_BOUND=    1.306  UPPER_BOUND=    5.665
INTER + INTRA:          -5.948
INTER:                  -5.948
INTRA:                   0.000
UNBOUND:                 0.000

$$$$

     RDKit          3D

 67 67  0  0  0  0  0  0  0  0999 V2000
   47.4531    8.4661   12.6803 C   0  0  0  0  0  0  0  0  0  0  0  0
   46.5383    6.1518   12.4349 C   0  0  0  0  0  0  0  0  0  0  0  0
   47.5602    7.0167   12.4919 C   0  0  0  0  0  0  0  0  0  0  0  0
   48.2478    9.1429   13.3062 O   0  0  0  0  0  0  0  0  0  0  0  0
   46.4479    9.0106   11.9795 O   0  0  0  0  0  0  0  0  0  0  0  0
   45.1236    6.4757   12.6387 C   0  0  0  0  0  0  0  0  0  0  0  0
   44.2010    5.9539   12.0406 O   0  0  0  0  0  0  0  0  0  0  0  0
   44.9250    7.3263   13.6562 O   0  0  0  0  0  0  0  0  0  0  0  0
   46.7401    8.1906   12.7773 C   0  0  0  0  0  0  0  0  0  0  0  0
   45.6431    7.3949   12.3865 C   0  0  0  0  0  0  0  0  0  0  0  0
   46.7529    9.6358   12.4166 C   0  0  0  0  0  0  0  0  0  0  0  0
   44.5257    8.0202   11.6220 C   0  0  0  0  0  0  0  0  0  0  0  0
   45.5501   10.2518   11.8558 C   0  0  0  0  0  0  0  0  0  0  0  0
   44.4698    9.4809   11.4707 C   0  0  0  0  0  0  0  0  0  0  0  0
   47.8339    7.6269   13.4812 C   0  0  0  0  0  0  0  0  0  0  0  0
   45.6072    6.0106   12.6886 C   0  0  0  0  0  0  0  0  0  0  0  0
   47.7549   10.3289   12.5638 O   0  0  0  0  0  0  0  0  0  0  0  0
   43.6471    7.3428   11.0953 O   0  0  0  0  0  0  0  0  0  0  0  0
   44.3857   12.2435   11.1461 N   0  0  0  0  0  0  0  0  0  0  0  0
   46.6732    5.4809   13.4234 C   0  0  0  0  0  0  0  0  0  0  0  0
   47.7598    6.2699   13.8107 C   0  0  0  0  0  0  0  0  0  0  0  0
   45.4694   11.6229   11.6730 C   0  0  0  0  0  0  0  0  0  0  0  0
   48.8849    8.4262   13.9736 N   0  0  0  0  0  0  0  0  0  0  0  0
   44.4741    5.2230   12.4022 N   0  0  0  0  0  0  0  0  0  0  0  0
   43.3409   10.0880   10.9165 C   0  0  0  0  0  0  0  0  0  0  0  0
   43.4637    1.7790   11.2427 N   0  0  0  0  0  0  0  0  0  0  0  0
   50.8827    9.6658   15.6276 N   0  0  0  0  0  0  0  0  0  0  0  0
   43.3463   11.4637   10.7784 C   0  0  0  0  0  0  0  0  0  0  0  0
   50.2381    7.8561   14.0199 C   0  0  0  0  0  0  0  0  0  0  0  0
   44.6706    3.8142   12.0496 C   0  0  0  0  0  0  0  0  0  0  0  0
   51.2561    8.9535   14.3984 C   0  0  0  0  0  0  0  0  0  0  0  0
   43.3433    3.2048   11.5557 C   0  0  0  0  0  0  0  0  0  0  0  0
   47.6840    8.1394   12.8283 C   0  0  0  0  0  0  0  0  0  0  0  0
   45.3317    7.8370   12.0371 C   0  0  0  0  0  0  0  0  0  0  0  0
   46.4675    8.5432   12.1177 C   0  0  0  0  0  0  0  0  0  0  0  0
   48.8166    8.3846   12.4559 O   0  0  0  0  0  0  0  0  0  0  0  0
   47.4299    7.5735   14.0170 O   0  0  0  0  0  0  0  0  0  0  0  0
   45.1164    6.4882   12.5685 C   0  0  0  0  0  0  0  0  0  0  0  0
   44.0704    6.0922   13.0483 O   0  0  0  0  0  0  0  0  0  0  0  0
   46.1597    5.6725   12.3575 O   0  0  0  0  0  0  0  0  0  0  0  0
   46.7239    5.1058   12.2187 H   0  0  0  0  0  0  0  0  0  0  0  0
   48.5794    6.6593   12.3974 H   0  0  0  0  0  0  0  0  0  0  0  0
   46.5168    9.9674   12.1767 H   0  0  0  0  0  0  0  0  0  0  0  0
   43.9513    7.4239   13.6927 H   0  0  0  0  0  0  0  0  0  0  0  0
   46.6638    4.4436   13.7474 H   0  0  0  0  0  0  0  0  0  0  0  0
   48.5312    5.8000   14.4148 H   0  0  0  0  0  0  0  0  0  0  0  0
   46.2880   12.2840   11.9487 H   0  0  0  0  0  0  0  0  0  0  0  0
   48.8840    9.3381   13.4900 H   0  0  0  0  0  0  0  0  0  0  0  0
   43.8850    5.7076   11.7078 H   0  0  0  0  0  0  0  0  0  0  0  0
   42.4812    9.5061   10.5990 H   0  0  0  0  0  0  0  0  0  0  0  0
   43.6571    1.2611   12.0998 H   0  0  0  0  0  0  0  0  0  0  0  0
   42.5621    1.4377   10.9090 H   0  0  0  0  0  0  0  0  0  0  0  0
   50.8410    8.9955   16.3953 H   0  0  0  0  0  0  0  0  0  0  0  0
   49.9069    9.9591   15.5129 H   0  0  0  0  0  0  0  0  0  0  0  0
   42.4950   11.9908   10.3556 H   0  0  0  0  0  0  0  0  0  0  0  0
   50.5112    7.4353   13.0450 H   0  0  0  0  0  0  0  0  0  0  0  0
   50.2915    7.0620   14.7731 H   0  0  0  0  0  0  0  0  0  0  0  0
   45.0086    3.2496   12.9257 H   0  0  0  0  0  0  0  0  0  0  0  0
   45.4281    3.7224   11.2613 H   0  0  0  0  0  0  0  0  0  0  0  0
   51.3214    9.6869   13.5867 H   0  0  0  0  0  0  0  0  0  0  0  0
   52.2501    8.5110   14.5211 H   0  0  0  0  0  0  0  0  0  0  0  0
   42.5652    3.3411   12.3158 H   0  0  0  0  0  0  0  0  0  0  0  0
   43.0099    3.7362   10.6568 H   0  0  0  0  0  0  0  0  0  0  0  0
   44.4631    8.2601   11.5454 H   0  0  0  0  0  0  0  0  0  0  0  0
   46.5439    9.5063   11.6257 H   0  0  0  0  0  0  0  0  0  0  0  0
   48.3192    7.3877   14.3826 H   0  0  0  0  0  0  0  0  0  0  0  0
   45.8659    4.8157   12.7300 H   0  0  0  0  0  0  0  0  0  0  0  0
  1  3  1  0
  3  2  2  0
  4  1  2  0
  5  1  1  0
  2  6  1  0
  6  7  2  0
  6  8  1  0
 24 16  1  0
 25 14  1  0
 26 32  1  0
 27 31  1  0
 28 25  2  0
 29 23  1  0
 30 24  1  0
 31 29  1  0
 32 30  1  0
 16 20  2  0
 14 13  2  0
 19 28  1  0
 10  9  2  0
 11  9  1  0
 12 10  1  0
 13 11  1  0
 14 12  1  0
 15  9  1  0
 16 10  1  0
 17 11  2  0
 18 12  2  0
 19 22  2  0
 20 21  1  0
 21 15  2  0
 22 13  1  0
 23 15  1  0
 33 35  1  0
 35 34  2  0
 36 33  2  0
 37 33  1  0
 34 38  1  0
 38 39  2  0
 38 40  1  0
  2 41  1  0
  3 42  1  0
  5 43  1  0
  8 44  1  0
 20 45  1  0
 21 46  1  0
 22 47  1  0
 23 48  1  0
 24 49  1  0
 25 50  1  0
 26 51  1  0
 26 52  1  0
 27 53  1  0
 27 54  1  0
 28 55  1  0
 29 56  1  0
 29 57  1  0
 30 58  1  0
 30 59  1  0
 31 60  1  0
 31 61  1  0
 32 62  1  0
 32 63  1  0
 34 64  1  0
 35 65  1  0
 37 66  1  0
 40 67  1  0
M  END
> <Uni-Dock RESULT> 
ENERGY=   -5.717  LOWER_BOUND=    1.382  UPPER_BOUND=    4.434
INTER + INTRA:          -5.717
INTER:                  -5.717
INTRA:                   0.000
UNBOUND:                 0.000

$$$$

     RDKit          3D

 67 67  0  0  0  0  0  0  0  0999 V2000
   47.4446    8.4696   12.6708 C   0  0  0  0  0  0  0  0  0  0  0  0
   46.5301    6.1552   12.4251 C   0  0  0  0  0  0  0  0  0  0  0  0
   47.5518    7.0204   12.4807 C   0  0  0  0  0  0  0  0  0  0  0  0
   48.2404    9.1461   13.2957 O   0  0  0  0  0  0  0  0  0  0  0  0
   46.4376    9.0145   11.9729 O   0  0  0  0  0  0  0  0  0  0  0  0
   45.1158    6.4784   12.6325 C   0  0  0  0  0  0  0  0  0  0  0  0
   44.1920    5.9568   12.0359 O   0  0  0  0  0  0  0  0  0  0  0  0
   44.9192    7.3279   13.6513 O   0  0  0  0  0  0  0  0  0  0  0  0
   46.7320    8.1937   12.7692 C   0  0  0  0  0  0  0  0  0  0  0  0
   45.6344    7.3980   12.3800 C   0  0  0  0  0  0  0  0  0  0  0  0
   46.7434    9.6393   12.4100 C   0  0  0  0  0  0  0  0  0  0  0  0
   44.5150    8.0237   11.6187 C   0  0  0  0  0  0  0  0  0  0  0  0
   45.5391   10.2555   11.8526 C   0  0  0  0  0  0  0  0  0  0  0  0
   44.4583    9.4846   11.4691 C   0  0  0  0  0  0  0  0  0  0  0  0
   47.8275    7.6297   13.4701 C   0  0  0  0  0  0  0  0  0  0  0  0
   45.5997    6.0134   12.6808 C   0  0  0  0  0  0  0  0  0  0  0  0
   47.7455   10.3326   12.5556 O   0  0  0  0  0  0  0  0  0  0  0  0
   43.6355    7.3465   11.0933 O   0  0  0  0  0  0  0  0  0  0  0  0
   44.3724   12.2475   11.1475 N   0  0  0  0  0  0  0  0  0  0  0  0
   46.6675    5.4833   13.4126 C   0  0  0  0  0  0  0  0  0  0  0  0
   47.7547    6.2724   13.7983 C   0  0  0  0  0  0  0  0  0  0  0  0
   45.4575   11.6267   11.6714 C   0  0  0  0  0  0  0  0  0  0  0  0
   48.8794    8.4289   13.9609 N   0  0  0  0  0  0  0  0  0  0  0  0
   44.4662    5.2256   12.3962 N   0  0  0  0  0  0  0  0  0  0  0  0
   43.3278   10.0918   10.9180 C   0  0  0  0  0  0  0  0  0  0  0  0
   43.4545    1.7825   11.2354 N   0  0  0  0  0  0  0  0  0  0  0  0
   50.8805    9.6675   15.6117 N   0  0  0  0  0  0  0  0  0  0  0  0
   43.3325   11.4676   10.7814 C   0  0  0  0  0  0  0  0  0  0  0  0
   50.2329    7.8592   14.0036 C   0  0  0  0  0  0  0  0  0  0  0  0
   44.6624    3.8173   12.0416 C   0  0  0  0  0  0  0  0  0  0  0  0
   51.2513    8.9566   14.3808 C   0  0  0  0  0  0  0  0  0  0  0  0
   43.3342    3.2080   11.5501 C   0  0  0  0  0  0  0  0  0  0  0  0
   47.6760    8.1428   12.8180 C   0  0  0  0  0  0  0  0  0  0  0  0
   45.3220    7.8404   12.0318 C   0  0  0  0  0  0  0  0  0  0  0  0
   46.4577    8.5469   12.1105 C   0  0  0  0  0  0  0  0  0  0  0  0
   48.8076    8.3889   12.4433 O   0  0  0  0  0  0  0  0  0  0  0  0
   47.4248    7.5756   14.0067 O   0  0  0  0  0  0  0  0  0  0  0  0
   45.1084    6.4909   12.5623 C   0  0  0  0  0  0  0  0  0  0  0  0
   44.0637    6.0941   13.0440 O   0  0  0  0  0  0  0  0  0  0  0  0
   46.1515    5.6758   12.3481 O   0  0  0  0  0  0  0  0  0  0  0  0
   46.7156    5.1095   12.2074 H   0  0  0  0  0  0  0  0  0  0  0  0
   48.5710    6.6635   12.3835 H   0  0  0  0  0  0  0  0  0  0  0  0
   46.5067    9.9711   12.1710 H   0  0  0  0  0  0  0  0  0  0  0  0
   43.9455    7.4250   13.6901 H   0  0  0  0  0  0  0  0  0  0  0  0
   46.6592    4.4457   13.7356 H   0  0  0  0  0  0  0  0  0  0  0  0
   48.5276    5.8021   14.4002 H   0  0  0  0  0  0  0  0  0  0  0  0
   46.2765   12.2879   11.9459 H   0  0  0  0  0  0  0  0  0  0  0  0
   48.8770    9.3413   13.4782 H   0  0  0  0  0  0  0  0  0  0  0  0
   43.8753    5.7108   11.7036 H   0  0  0  0  0  0  0  0  0  0  0  0
   42.4677    9.5099   10.6019 H   0  0  0  0  0  0  0  0  0  0  0  0
   43.6500    1.2638   12.0915 H   0  0  0  0  0  0  0  0  0  0  0  0
   42.5522    1.4412   10.9033 H   0  0  0  0  0  0  0  0  0  0  0  0
   50.8408    8.9964   16.3788 H   0  0  0  0  0  0  0  0  0  0  0  0
   49.9043    9.9605   15.4995 H   0  0  0  0  0  0  0  0  0  0  0  0
   42.4800   11.9949   10.3611 H   0  0  0  0  0  0  0  0  0  0  0  0
   50.5039    7.4395   13.0276 H   0  0  0  0  0  0  0  0  0  0  0  0
   50.2882    7.0643   14.7558 H   0  0  0  0  0  0  0  0  0  0  0  0
   45.0026    3.2519   12.9163 H   0  0  0  0  0  0  0  0  0  0  0  0
   45.4181    3.7267   11.2515 H   0  0  0  0  0  0  0  0  0  0  0  0
   51.3145    9.6908   13.5698 H   0  0  0  0  0  0  0  0  0  0  0  0
   52.2457    8.5143   14.5009 H   0  0  0  0  0  0  0  0  0  0  0  0
   42.5578    3.3432   12.3120 H   0  0  0  0  0  0  0  0  0  0  0  0
   42.9986    3.7402   10.6525 H   0  0  0  0  0  0  0  0  0  0  0  0
   44.4521    8.2637   11.5425 H   0  0  0  0  0  0  0  0  0  0  0  0
   46.5327    9.5106   11.6195 H   0  0  0  0  0  0  0  0  0  0  0  0
   48.3150    7.3897   14.3701 H   0  0  0  0  0  0  0  0  0  0  0  0
   45.8589    4.8186   12.7203 H   0  0  0  0  0  0  0  0  0  0  0  0
  1  3  1  0
  3  2  2  0
  4  1  2  0
  5  1  1  0
  2  6  1  0
  6  7  2  0
  6  8  1  0
 24 16  1  0
 25 14  1  0
 26 32  1  0
 27 31  1  0
 28 25  2  0
 29 23  1  0
 30 24  1  0
 31 29  1  0
 32 30  1  0
 16 20  2  0
 14 13  2  0
 19 28  1  0
 10  9  2  0
 11  9  1  0
 12 10  1  0
 13 11  1  0
 14 12  1  0
 15  9  1  0
 16 10  1  0
 17 11  2  0
 18 12  2  0
 19 22  2  0
 20 21  1  0
 21 15  2  0
 22 13  1  0
 23 15  1  0
 33 35  1  0
 35 34  2  0
 36 33  2  0
 37 33  1  0
 34 38  1  0
 38 39  2  0
 38 40  1  0
  2 41  1  0
  3 42  1  0
  5 43  1  0
  8 44  1  0
 20 45  1  0
 21 46  1  0
 22 47  1  0
 23 48  1  0
 24 49  1  0
 25 50  1  0
 26 51  1  0
 26 52  1  0
 27 53  1  0
 27 54  1  0
 28 55  1  0
 29 56  1  0
 29 57  1  0
 30 58  1  0
 30 59  1  0
 31 60  1  0
 31 61  1  0
 32 62  1  0
 32 63  1  0
 34 64  1  0
 35 65  1  0
 37 66  1  0
 40 67  1  0
M  END
> <Uni-Dock RESULT> 
ENERGY=   -5.716  LOWER_BOUND=    1.381  UPPER_BOUND=    4.432
INTER + INTRA:          -5.716
INTER:                  -5.716
INTRA:                   0.000
UNBOUND:                 0.000

$$$$

     RDKit          3D

 67 67  0  0  0  0  0  0  0  0999 V2000
   47.1768    8.6534   12.5600 C   0  0  0  0  0  0  0  0  0  0  0  0
   46.3762    6.2936   12.3524 C   0  0  0  0  0  0  0  0  0  0  0  0
   47.3545    7.2083   12.3930 C   0  0  0  0  0  0  0  0  0  0  0  0
   47.9389    9.3778   13.1731 O   0  0  0  0  0  0  0  0  0  0  0  0
   46.1442    9.1374   11.8547 O   0  0  0  0  0  0  0  0  0  0  0  0
   44.9478    6.5507   12.5562 C   0  0  0  0  0  0  0  0  0  0  0  0
   44.0504    5.9752   11.9691 O   0  0  0  0  0  0  0  0  0  0  0  0
   44.7104    7.4058   13.5615 O   0  0  0  0  0  0  0  0  0  0  0  0
   46.4785    8.3448   12.6636 C   0  0  0  0  0  0  0  0  0  0  0  0
   45.4208    7.4904   12.2885 C   0  0  0  0  0  0  0  0  0  0  0  0
   46.4193    9.7833   12.2813 C   0  0  0  0  0  0  0  0  0  0  0  0
   44.2721    8.0484   11.5186 C   0  0  0  0  0  0  0  0  0  0  0  0
   45.1862   10.3310   11.7155 C   0  0  0  0  0  0  0  0  0  0  0  0
   44.1441    9.5023   11.3457 C   0  0  0  0  0  0  0  0  0  0  0  0
   47.6005    7.8461   13.3722 C   0  0  0  0  0  0  0  0  0  0  0  0
   45.4538    6.1107   12.6114 C   0  0  0  0  0  0  0  0  0  0  0  0
   47.3864   10.5268   12.4147 O   0  0  0  0  0  0  0  0  0  0  0  0
   43.4264    7.3209   11.0050 O   0  0  0  0  0  0  0  0  0  0  0  0
   43.9235   12.2522   10.9801 N   0  0  0  0  0  0  0  0  0  0  0  0
   46.5465    5.6450   13.3503 C   0  0  0  0  0  0  0  0  0  0  0  0
   47.5941    6.4923   13.7221 C   0  0  0  0  0  0  0  0  0  0  0  0
   45.0378   11.6935   11.5126 C   0  0  0  0  0  0  0  0  0  0  0  0
   48.6123    8.7033   13.8489 N   0  0  0  0  0  0  0  0  0  0  0  0
   44.3600    5.2642   12.3406 N   0  0  0  0  0  0  0  0  0  0  0  0
   42.9851   10.0448   10.7863 C   0  0  0  0  0  0  0  0  0  0  0  0
   43.5169    1.7576   11.2361 N   0  0  0  0  0  0  0  0  0  0  0  0
   50.5512   10.0644   15.4774 N   0  0  0  0  0  0  0  0  0  0  0  0
   42.9226   11.4168   10.6277 C   0  0  0  0  0  0  0  0  0  0  0  0
   49.9920    8.2011   13.8991 C   0  0  0  0  0  0  0  0  0  0  0  0
   44.6245    3.8616   12.0084 C   0  0  0  0  0  0  0  0  0  0  0  0
   50.9558    9.3528   14.2577 C   0  0  0  0  0  0  0  0  0  0  0  0
   43.3274    3.1804   11.5282 C   0  0  0  0  0  0  0  0  0  0  0  0
   47.4239    8.3407   12.7121 C   0  0  0  0  0  0  0  0  0  0  0  0
   45.0871    7.9114   11.9336 C   0  0  0  0  0  0  0  0  0  0  0  0
   46.1871    8.6735   11.9997 C   0  0  0  0  0  0  0  0  0  0  0  0
   48.5420    8.6356   12.3323 O   0  0  0  0  0  0  0  0  0  0  0  0
   47.2011    7.7810   13.9101 O   0  0  0  0  0  0  0  0  0  0  0  0
   44.9398    6.5617   12.4858 C   0  0  0  0  0  0  0  0  0  0  0  0
   43.9159    6.1222   12.9750 O   0  0  0  0  0  0  0  0  0  0  0  0
   46.0214    5.7951   12.2835 O   0  0  0  0  0  0  0  0  0  0  0  0
   46.6123    5.2548   12.1512 H   0  0  0  0  0  0  0  0  0  0  0  0
   48.3898    6.9000   12.3003 H   0  0  0  0  0  0  0  0  0  0  0  0
   46.1666   10.0992   12.0374 H   0  0  0  0  0  0  0  0  0  0  0  0
   43.7332    7.4560   13.5998 H   0  0  0  0  0  0  0  0  0  0  0  0
   46.5890    4.6136   13.6898 H   0  0  0  0  0  0  0  0  0  0  0  0
   48.3892    6.0699   14.3305 H   0  0  0  0  0  0  0  0  0  0  0  0
   45.8236   12.3981   11.7755 H   0  0  0  0  0  0  0  0  0  0  0  0
   48.5653    9.6067   13.3517 H   0  0  0  0  0  0  0  0  0  0  0  0
   43.7459    5.7088   11.6411 H   0  0  0  0  0  0  0  0  0  0  0  0
   42.1543    9.4166   10.4804 H   0  0  0  0  0  0  0  0  0  0  0  0
   43.7378    1.2628   12.1002 H   0  0  0  0  0  0  0  0  0  0  0  0
   42.6323    1.3675   10.9106 H   0  0  0  0  0  0  0  0  0  0  0  0
   50.5446    9.4045   16.2552 H   0  0  0  0  0  0  0  0  0  0  0  0
   49.5619   10.3076   15.3617 H   0  0  0  0  0  0  0  0  0  0  0  0
   42.0454   11.8951   10.2000 H   0  0  0  0  0  0  0  0  0  0  0  0
   50.2828    7.7796   12.9297 H   0  0  0  0  0  0  0  0  0  0  0  0
   50.0863    7.4220   14.6639 H   0  0  0  0  0  0  0  0  0  0  0  0
   44.9922    3.3275   12.8916 H   0  0  0  0  0  0  0  0  0  0  0  0
   45.3835    3.7952   11.2190 H   0  0  0  0  0  0  0  0  0  0  0  0
   50.9828   10.0761   13.4350 H   0  0  0  0  0  0  0  0  0  0  0  0
   51.9707    8.9614   14.3837 H   0  0  0  0  0  0  0  0  0  0  0  0
   42.5456    3.2898   12.2888 H   0  0  0  0  0  0  0  0  0  0  0  0
   42.9659    3.6812   10.6226 H   0  0  0  0  0  0  0  0  0  0  0  0
   44.1975    8.2839   11.4386 H   0  0  0  0  0  0  0  0  0  0  0  0
   46.2148    9.6318   11.4932 H   0  0  0  0  0  0  0  0  0  0  0  0
   48.0994    7.6446   14.2753 H   0  0  0  0  0  0  0  0  0  0  0  0
   45.7711    4.9307   12.6696 H   0  0  0  0  0  0  0  0  0  0  0  0
  1  3  1  0
  3  2  2  0
  4  1  2  0
  5  1  1  0
  2  6  1  0
  6  7  2  0
  6  8  1  0
 24 16  1  0
 25 14  1  0
 26 32  1  0
 27 31  1  0
 28 25  2  0
 29 23  1  0
 30 24  1  0
 31 29  1  0
 32 30  1  0
 16 20  2  0
 14 13  2  0
 19 28  1  0
 10  9  2  0
 11  9  1  0
 12 10  1  0
 13 11  1  0
 14 12  1  0
 15  9  1  0
 16 10  1  0
 17 11  2  0
 18 12  2  0
 19 22  2  0
 20 21  1  0
 21 15  2  0
 22 13  1  0
 23 15  1  0
 33 35  1  0
 35 34  2  0
 36 33  2  0
 37 33  1  0
 34 38  1  0
 38 39  2  0
 38 40  1  0
  2 41  1  0
  3 42  1  0
  5 43  1  0
  8 44  1  0
 20 45  1  0
 21 46  1  0
 22 47  1  0
 23 48  1  0
 24 49  1  0
 25 50  1  0
 26 51  1  0
 26 52  1  0
 27 53  1  0
 27 54  1  0
 28 55  1  0
 29 56  1  0
 29 57  1  0
 30 58  1  0
 30 59  1  0
 31 60  1  0
 31 61  1  0
 32 62  1  0
 32 63  1  0
 34 64  1  0
 35 65  1  0
 37 66  1  0
 40 67  1  0
M  END
> <Uni-Dock RESULT> 
ENERGY=   -5.602  LOWER_BOUND=    1.336  UPPER_BOUND=    4.412
INTER + INTRA:          -5.602
INTER:                  -5.602
INTRA:                   0.000
UNBOUND:                 0.000

$$$$

     RDKit          3D

 67 67  0  0  0  0  0  0  0  0999 V2000
   46.7695    5.8430   13.4351 C   0  0  0  0  0  0  0  0  0  0  0  0
   48.2752    7.7360   12.8008 C   0  0  0  0  0  0  0  0  0  0  0  0
   47.4142    6.7578   12.4889 C   0  0  0  0  0  0  0  0  0  0  0  0
   45.6373    5.4117   13.3182 O   0  0  0  0  0  0  0  0  0  0  0  0
   47.6011    5.4143   14.3957 O   0  0  0  0  0  0  0  0  0  0  0  0
   48.6692    8.1373   14.1542 C   0  0  0  0  0  0  0  0  0  0  0  0
   49.7820    8.5182   14.4666 O   0  0  0  0  0  0  0  0  0  0  0  0
   47.6370    8.1692   15.0097 O   0  0  0  0  0  0  0  0  0  0  0  0
   47.1381    6.3635   13.8675 C   0  0  0  0  0  0  0  0  0  0  0  0
   48.2735    7.1279   14.2076 C   0  0  0  0  0  0  0  0  0  0  0  0
   46.8727    5.0936   14.5995 C   0  0  0  0  0  0  0  0  0  0  0  0
   49.1789    6.6450   15.2898 C   0  0  0  0  0  0  0  0  0  0  0  0
   47.6610    4.7655   15.7876 C   0  0  0  0  0  0  0  0  0  0  0  0
   48.7746    5.5088   16.1297 C   0  0  0  0  0  0  0  0  0  0  0  0
   46.2687    6.7754   12.8262 C   0  0  0  0  0  0  0  0  0  0  0  0
   48.5734    8.3282   13.5161 C   0  0  0  0  0  0  0  0  0  0  0  0
   46.0146    4.3001   14.2252 O   0  0  0  0  0  0  0  0  0  0  0  0
   50.2728    7.1645   15.4943 O   0  0  0  0  0  0  0  0  0  0  0  0
   48.0301    3.3300   17.6927 N   0  0  0  0  0  0  0  0  0  0  0  0
   47.6801    8.7431   12.5228 C   0  0  0  0  0  0  0  0  0  0  0  0
   46.5549    7.9853   12.1863 C   0  0  0  0  0  0  0  0  0  0  0  0
   47.3274    3.6861   16.5897 C   0  0  0  0  0  0  0  0  0  0  0  0
   45.0735    6.0833   12.5461 N   0  0  0  0  0  0  0  0  0  0  0  0
   49.6403    9.1598   13.9118 N   0  0  0  0  0  0  0  0  0  0  0  0
   49.5258    5.1637   17.2553 C   0  0  0  0  0  0  0  0  0  0  0  0
   52.3424   11.3932   12.5200 N   0  0  0  0  0  0  0  0  0  0  0  0
   42.3378    5.3834   12.0076 N   0  0  0  0  0  0  0  0  0  0  0  0
   49.1136    4.0748   18.0009 C   0  0  0  0  0  0  0  0  0  0  0  0
   44.6035    6.0282   11.1553 C   0  0  0  0  0  0  0  0  0  0  0  0
   50.3571    9.9178   12.8826 C   0  0  0  0  0  0  0  0  0  0  0  0
   43.4019    5.0648   11.0464 C   0  0  0  0  0  0  0  0  0  0  0  0
   51.6142   10.5718   13.4899 C   0  0  0  0  0  0  0  0  0  0  0  0
   46.6648    6.0818   13.0975 C   0  0  0  0  0  0  0  0  0  0  0  0
   48.5329    6.7191   14.6321 C   0  0  0  0  0  0  0  0  0  0  0  0
   47.6585    5.8286   14.1446 C   0  0  0  0  0  0  0  0  0  0  0  0
   46.3248    5.2712   12.2556 O   0  0  0  0  0  0  0  0  0  0  0  0
   46.0577    7.2699   13.2312 O   0  0  0  0  0  0  0  0  0  0  0  0
   48.7236    8.0907   14.1521 C   0  0  0  0  0  0  0  0  0  0  0  0
   48.9937    9.0412   14.8625 O   0  0  0  0  0  0  0  0  0  0  0  0
   48.6987    8.1828   12.8144 O   0  0  0  0  0  0  0  0  0  0  0  0
   48.7521    8.3104   12.0148 H   0  0  0  0  0  0  0  0  0  0  0  0
   47.1356    6.5895   11.4547 H   0  0  0  0  0  0  0  0  0  0  0  0
   47.0508    4.8006   14.9245 H   0  0  0  0  0  0  0  0  0  0  0  0
   48.0378    8.4779   15.8481 H   0  0  0  0  0  0  0  0  0  0  0  0
   47.8191    9.6918   12.0113 H   0  0  0  0  0  0  0  0  0  0  0  0
   45.8838    8.3904   11.4338 H   0  0  0  0  0  0  0  0  0  0  0  0
   46.4674    3.0572   16.3707 H   0  0  0  0  0  0  0  0  0  0  0  0
   45.1133    5.1390   12.9610 H   0  0  0  0  0  0  0  0  0  0  0  0
   50.2901    8.6250   14.5083 H   0  0  0  0  0  0  0  0  0  0  0  0
   50.4087    5.7258   17.5430 H   0  0  0  0  0  0  0  0  0  0  0  0
   51.7658   12.1913   12.2542 H   0  0  0  0  0  0  0  0  0  0  0  0
   53.1676   11.7852   12.9741 H   0  0  0  0  0  0  0  0  0  0  0  0
   42.0022    6.3289   11.8237 H   0  0  0  0  0  0  0  0  0  0  0  0
   42.7856    5.4631   12.9265 H   0  0  0  0  0  0  0  0  0  0  0  0
   49.6578    3.7610   18.8879 H   0  0  0  0  0  0  0  0  0  0  0  0
   45.4041    5.6783   10.4930 H   0  0  0  0  0  0  0  0  0  0  0  0
   44.2805    7.0210   10.8226 H   0  0  0  0  0  0  0  0  0  0  0  0
   49.7137   10.7077   12.4791 H   0  0  0  0  0  0  0  0  0  0  0  0
   50.6535    9.2548   12.0604 H   0  0  0  0  0  0  0  0  0  0  0  0
   43.7373    4.0392   11.2378 H   0  0  0  0  0  0  0  0  0  0  0  0
   42.9954    5.0924   10.0301 H   0  0  0  0  0  0  0  0  0  0  0  0
   51.3332   11.1937   14.3478 H   0  0  0  0  0  0  0  0  0  0  0  0
   52.2860    9.7915   13.8660 H   0  0  0  0  0  0  0  0  0  0  0  0
   49.1791    6.4485   15.4594 H   0  0  0  0  0  0  0  0  0  0  0  0
   47.6485    4.8134   14.5250 H   0  0  0  0  0  0  0  0  0  0  0  0
   45.4120    7.2869   12.4951 H   0  0  0  0  0  0  0  0  0  0  0  0
   48.8674    9.1319   12.6420 H   0  0  0  0  0  0  0  0  0  0  0  0
  1  3  1  0
  3  2  2  0
  4  1  2  0
  5  1  1  0
  2  6  1  0
  6  7  2  0
  6  8  1  0
 24 16  1  0
 25 14  1  0
 26 32  1  0
 27 31  1  0
 28 25  2  0
 29 23  1  0
 30 24  1  0
 31 29  1  0
 32 30  1  0
 16 20  2  0
 14 13  2  0
 19 28  1  0
 10  9  2  0
 11  9  1  0
 12 10  1  0
 13 11  1  0
 14 12  1  0
 15  9  1  0
 16 10  1  0
 17 11  2  0
 18 12  2  0
 19 22  2  0
 20 21  1  0
 21 15  2  0
 22 13  1  0
 23 15  1  0
 33 35  1  0
 35 34  2  0
 36 33  2  0
 37 33  1  0
 34 38  1  0
 38 39  2  0
 38 40  1  0
  2 41  1  0
  3 42  1  0
  5 43  1  0
  8 44  1  0
 20 45  1  0
 21 46  1  0
 22 47  1  0
 23 48  1  0
 24 49  1  0
 25 50  1  0
 26 51  1  0
 26 52  1  0
 27 53  1  0
 27 54  1  0
 28 55  1  0
 29 56  1  0
 29 57  1  0
 30 58  1  0
 30 59  1  0
 31 60  1  0
 31 61  1  0
 32 62  1  0
 32 63  1  0
 34 64  1  0
 35 65  1  0
 37 66  1  0
 40 67  1  0
M  END
> <Uni-Dock RESULT> 
ENERGY=   -5.481  LOWER_BOUND=    2.648  UPPER_BOUND=    5.715
INTER + INTRA:          -5.481
INTER:                  -5.481
INTRA:                   0.000
UNBOUND:                 0.000

$$$$

     RDKit          3D

 67 67  0  0  0  0  0  0  0  0999 V2000
   44.0785    9.1024   11.1723 C   0  0  0  0  0  0  0  0  0  0  0  0
   46.4072    9.8533   11.6883 C   0  0  0  0  0  0  0  0  0  0  0  0
   45.2683    9.9378   10.9874 C   0  0  0  0  0  0  0  0  0  0  0  0
   42.9329    9.4903   11.0358 O   0  0  0  0  0  0  0  0  0  0  0  0
   44.3746    7.8123   11.3864 O   0  0  0  0  0  0  0  0  0  0  0  0
   46.6505    8.9708   12.8328 C   0  0  0  0  0  0  0  0  0  0  0  0
   47.7141    8.4321   13.0775 O   0  0  0  0  0  0  0  0  0  0  0  0
   45.6088    8.9103   13.6751 O   0  0  0  0  0  0  0  0  0  0  0  0
   44.5522    8.9208   11.7523 C   0  0  0  0  0  0  0  0  0  0  0  0
   45.8147    8.5655   12.2711 C   0  0  0  0  0  0  0  0  0  0  0  0
   43.5578    7.8492   11.4663 C   0  0  0  0  0  0  0  0  0  0  0  0
   46.1216    7.1274   12.5188 C   0  0  0  0  0  0  0  0  0  0  0  0
   43.8179    6.4821   11.9181 C   0  0  0  0  0  0  0  0  0  0  0  0
   45.0512    6.1245   12.4286 C   0  0  0  0  0  0  0  0  0  0  0  0
   44.2329   10.2745   11.4778 C   0  0  0  0  0  0  0  0  0  0  0  0
   46.7961    9.5544   12.5313 C   0  0  0  0  0  0  0  0  0  0  0  0
   42.5240    8.0771   10.8456 O   0  0  0  0  0  0  0  0  0  0  0  0
   47.2589    6.7478   12.7849 O   0  0  0  0  0  0  0  0  0  0  0  0
   43.0348    4.2184   12.2156 N   0  0  0  0  0  0  0  0  0  0  0  0
   46.4479   10.8889   12.2978 C   0  0  0  0  0  0  0  0  0  0  0  0
   45.1965   11.2404   11.7839 C   0  0  0  0  0  0  0  0  0  0  0  0
   42.8430    5.5021   11.8248 C   0  0  0  0  0  0  0  0  0  0  0  0
   42.9419   10.6583   11.0629 N   0  0  0  0  0  0  0  0  0  0  0  0
   48.0212    9.2322   13.1491 N   0  0  0  0  0  0  0  0  0  0  0  0
   45.2847    4.8082   12.8326 C   0  0  0  0  0  0  0  0  0  0  0  0
   51.6906   10.1044   13.1092 N   0  0  0  0  0  0  0  0  0  0  0  0
   40.3935   11.9587   10.7835 N   0  0  0  0  0  0  0  0  0  0  0  0
   44.2504    3.8990   12.7095 C   0  0  0  0  0  0  0  0  0  0  0  0
   42.8095   11.7952   10.1420 C   0  0  0  0  0  0  0  0  0  0  0  0
   49.2140   10.0016   12.7844 C   0  0  0  0  0  0  0  0  0  0  0  0
   41.3458   11.9158    9.6658 C   0  0  0  0  0  0  0  0  0  0  0  0
   50.4700    9.3454   13.3917 C   0  0  0  0  0  0  0  0  0  0  0  0
   44.1763    9.5140   11.1173 C   0  0  0  0  0  0  0  0  0  0  0  0
   45.7476    7.9260   12.2400 C   0  0  0  0  0  0  0  0  0  0  0  0
   44.6769    8.1843   11.4771 C   0  0  0  0  0  0  0  0  0  0  0  0
   43.6729    9.7973   10.0460 O   0  0  0  0  0  0  0  0  0  0  0  0
   44.2076   10.3778   12.1425 O   0  0  0  0  0  0  0  0  0  0  0  0
   46.6746    8.9200   12.7884 C   0  0  0  0  0  0  0  0  0  0  0  0
   47.2142    8.8370   13.8760 O   0  0  0  0  0  0  0  0  0  0  0  0
   46.9802    9.8871   11.9111 O   0  0  0  0  0  0  0  0  0  0  0  0
   47.2560   10.4725   11.4215 H   0  0  0  0  0  0  0  0  0  0  0  0
   45.1685   10.6781   10.2016 H   0  0  0  0  0  0  0  0  0  0  0  0
   43.4987    7.3805   11.4604 H   0  0  0  0  0  0  0  0  0  0  0  0
   45.9217    8.3211   14.3919 H   0  0  0  0  0  0  0  0  0  0  0  0
   47.1329   11.6943   12.5489 H   0  0  0  0  0  0  0  0  0  0  0  0
   44.9813   12.2992   11.6672 H   0  0  0  0  0  0  0  0  0  0  0  0
   41.8544    5.7173   11.4254 H   0  0  0  0  0  0  0  0  0  0  0  0
   42.4312    9.8340   10.7091 H   0  0  0  0  0  0  0  0  0  0  0  0
   48.1885    8.2171   13.0725 H   0  0  0  0  0  0  0  0  0  0  0  0
   46.2459    4.4982   13.2306 H   0  0  0  0  0  0  0  0  0  0  0  0
   51.6432   11.0068   13.5821 H   0  0  0  0  0  0  0  0  0  0  0  0
   52.4853    9.6156   13.5218 H   0  0  0  0  0  0  0  0  0  0  0  0
   40.6048   12.7708   11.3633 H   0  0  0  0  0  0  0  0  0  0  0  0
   40.6185   11.1650   11.3924 H   0  0  0  0  0  0  0  0  0  0  0  0
   44.3735    2.8617   13.0095 H   0  0  0  0  0  0  0  0  0  0  0  0
   43.4598   11.6607    9.2696 H   0  0  0  0  0  0  0  0  0  0  0  0
   43.0859   12.7281   10.6461 H   0  0  0  0  0  0  0  0  0  0  0  0
   49.1349   11.0247   13.1685 H   0  0  0  0  0  0  0  0  0  0  0  0
   49.3183   10.0453   11.6932 H   0  0  0  0  0  0  0  0  0  0  0  0
   41.0939   11.0542    9.0372 H   0  0  0  0  0  0  0  0  0  0  0  0
   41.2282   12.8149    9.0521 H   0  0  0  0  0  0  0  0  0  0  0  0
   50.3513    9.2473   14.4770 H   0  0  0  0  0  0  0  0  0  0  0  0
   50.5835    8.3324   12.9887 H   0  0  0  0  0  0  0  0  0  0  0  0
   45.9909    6.9035   12.5057 H   0  0  0  0  0  0  0  0  0  0  0  0
   44.0968    7.3681   11.0615 H   0  0  0  0  0  0  0  0  0  0  0  0
   43.8227   11.1974   11.7696 H   0  0  0  0  0  0  0  0  0  0  0  0
   47.6192   10.4492   12.3957 H   0  0  0  0  0  0  0  0  0  0  0  0
  1  3  1  0
  3  2  2  0
  4  1  2  0
  5  1  1  0
  2  6  1  0
  6  7  2  0
  6  8  1  0
 24 16  1  0
 25 14  1  0
 26 32  1  0
 27 31  1  0
 28 25  2  0
 29 23  1  0
 30 24  1  0
 31 29  1  0
 32 30  1  0
 16 20  2  0
 14 13  2  0
 19 28  1  0
 10  9  2  0
 11  9  1  0
 12 10  1  0
 13 11  1  0
 14 12  1  0
 15  9  1  0
 16 10  1  0
 17 11  2  0
 18 12  2  0
 19 22  2  0
 20 21  1  0
 21 15  2  0
 22 13  1  0
 23 15  1  0
 33 35  1  0
 35 34  2  0
 36 33  2  0
 37 33  1  0
 34 38  1  0
 38 39  2  0
 38 40  1  0
  2 41  1  0
  3 42  1  0
  5 43  1  0
  8 44  1  0
 20 45  1  0
 21 46  1  0
 22 47  1  0
 23 48  1  0
 24 49  1  0
 25 50  1  0
 26 51  1  0
 26 52  1  0
 27 53  1  0
 27 54  1  0
 28 55  1  0
 29 56  1  0
 29 57  1  0
 30 58  1  0
 30 59  1  0
 31 60  1  0
 31 61  1  0
 32 62  1  0
 32 63  1  0
 34 64  1  0
 35 65  1  0
 37 66  1  0
 40 67  1  0
M  END
> <Uni-Dock RESULT> 
ENERGY=   -5.413  LOWER_BOUND=    1.113  UPPER_BOUND=    5.013
INTER + INTRA:          -5.413
INTER:                  -5.413
INTRA:                   0.000
UNBOUND:                 0.000

$$$$

     RDKit          3D

 67 67  0  0  0  0  0  0  0  0999 V2000
   49.2340    7.2393   14.7256 C   0  0  0  0  0  0  0  0  0  0  0  0
   47.0984    6.9547   13.4562 C   0  0  0  0  0  0  0  0  0  0  0  0
   48.1171    7.7044   13.8985 C   0  0  0  0  0  0  0  0  0  0  0  0
   50.3767    7.6493   14.6388 O   0  0  0  0  0  0  0  0  0  0  0  0
   48.8503    6.3944   15.6935 O   0  0  0  0  0  0  0  0  0  0  0  0
   46.9511    5.5080   13.6389 C   0  0  0  0  0  0  0  0  0  0  0  0
   45.8911    4.9375   13.8182 O   0  0  0  0  0  0  0  0  0  0  0  0
   48.1002    4.8403   13.4597 O   0  0  0  0  0  0  0  0  0  0  0  0
   48.8408    6.6056   14.5318 C   0  0  0  0  0  0  0  0  0  0  0  0
   47.6458    5.8699   14.3904 C   0  0  0  0  0  0  0  0  0  0  0  0
   49.6693    6.4154   15.7551 C   0  0  0  0  0  0  0  0  0  0  0  0
   47.2423    4.9222   15.4688 C   0  0  0  0  0  0  0  0  0  0  0  0
   49.3504    5.3299   16.6828 C   0  0  0  0  0  0  0  0  0  0  0  0
   48.1826    4.6028   16.5521 C   0  0  0  0  0  0  0  0  0  0  0  0
   49.2441    7.5361   13.5412 C   0  0  0  0  0  0  0  0  0  0  0  0
   46.8180    6.0429   13.2530 C   0  0  0  0  0  0  0  0  0  0  0  0
   50.6112    7.1567   16.0183 O   0  0  0  0  0  0  0  0  0  0  0  0
   46.1287    4.4047   15.4883 O   0  0  0  0  0  0  0  0  0  0  0  0
   49.9456    4.0303   18.6278 N   0  0  0  0  0  0  0  0  0  0  0  0
   47.2543    6.9311   12.2643 C   0  0  0  0  0  0  0  0  0  0  0  0
   48.4388    7.6596   12.4048 C   0  0  0  0  0  0  0  0  0  0  0  0
   50.1986    5.0159   17.7324 C   0  0  0  0  0  0  0  0  0  0  0  0
   50.4861    8.1982   13.6132 N   0  0  0  0  0  0  0  0  0  0  0  0
   45.6784    5.2409   13.0421 N   0  0  0  0  0  0  0  0  0  0  0  0
   47.8874    3.5860   17.4627 C   0  0  0  0  0  0  0  0  0  0  0  0
   42.1504    5.3792   11.7154 N   0  0  0  0  0  0  0  0  0  0  0  0
   53.0746    9.3040   13.0299 N   0  0  0  0  0  0  0  0  0  0  0  0
   48.7963    3.3379   18.4747 C   0  0  0  0  0  0  0  0  0  0  0  0
   50.5840    9.5662   13.0865 C   0  0  0  0  0  0  0  0  0  0  0  0
   44.5243    5.8292   12.3569 C   0  0  0  0  0  0  0  0  0  0  0  0
   51.9605   10.1675   13.4433 C   0  0  0  0  0  0  0  0  0  0  0  0
   43.3200    4.8698   12.4351 C   0  0  0  0  0  0  0  0  0  0  0  0
   49.1694    7.4803   14.3796 C   0  0  0  0  0  0  0  0  0  0  0  0
   47.6445    5.5889   14.9697 C   0  0  0  0  0  0  0  0  0  0  0  0
   48.6036    6.4716   15.2798 C   0  0  0  0  0  0  0  0  0  0  0  0
   49.5253    8.5925   14.7228 O   0  0  0  0  0  0  0  0  0  0  0  0
   49.3824    7.0129   13.1409 O   0  0  0  0  0  0  0  0  0  0  0  0
   46.9156    5.5194   13.7000 C   0  0  0  0  0  0  0  0  0  0  0  0
   46.5462    4.4883   13.1697 O   0  0  0  0  0  0  0  0  0  0  0  0
   46.5732    6.7275   13.2292 O   0  0  0  0  0  0  0  0  0  0  0  0
   46.2829    7.4148   12.9099 H   0  0  0  0  0  0  0  0  0  0  0  0
   48.1653    8.7576   13.6459 H   0  0  0  0  0  0  0  0  0  0  0  0
   49.6807    6.1958   16.1732 H   0  0  0  0  0  0  0  0  0  0  0  0
   47.8466    3.9022   13.5800 H   0  0  0  0  0  0  0  0  0  0  0  0
   46.6985    7.0482   11.3377 H   0  0  0  0  0  0  0  0  0  0  0  0
   48.7354    8.2994   11.5781 H   0  0  0  0  0  0  0  0  0  0  0  0
   51.1293    5.5552   17.8944 H   0  0  0  0  0  0  0  0  0  0  0  0
   50.8526    8.1455   14.5767 H   0  0  0  0  0  0  0  0  0  0  0  0
   45.4030    4.7944   13.9303 H   0  0  0  0  0  0  0  0  0  0  0  0
   46.9742    3.0039   17.3879 H   0  0  0  0  0  0  0  0  0  0  0  0
   42.3585    5.4163   10.7177 H   0  0  0  0  0  0  0  0  0  0  0  0
   41.3856    4.7114   11.8153 H   0  0  0  0  0  0  0  0  0  0  0  0
   53.0364    9.1812   12.0180 H   0  0  0  0  0  0  0  0  0  0  0  0
   52.8707    8.3668   13.3923 H   0  0  0  0  0  0  0  0  0  0  0  0
   48.6207    2.5579   19.2108 H   0  0  0  0  0  0  0  0  0  0  0  0
   49.7959   10.1988   13.5117 H   0  0  0  0  0  0  0  0  0  0  0  0
   50.4818    9.5626   11.9955 H   0  0  0  0  0  0  0  0  0  0  0  0
   44.7616    6.0054   11.3017 H   0  0  0  0  0  0  0  0  0  0  0  0
   44.2563    6.7873   12.8193 H   0  0  0  0  0  0  0  0  0  0  0  0
   52.0263   10.3117   14.5277 H   0  0  0  0  0  0  0  0  0  0  0  0
   52.0684   11.1511   12.9746 H   0  0  0  0  0  0  0  0  0  0  0  0
   43.5960    3.8914   12.0249 H   0  0  0  0  0  0  0  0  0  0  0  0
   43.0469    4.7118   13.4848 H   0  0  0  0  0  0  0  0  0  0  0  0
   47.3469    4.8353   15.6898 H   0  0  0  0  0  0  0  0  0  0  0  0
   49.0295    6.4825   16.2767 H   0  0  0  0  0  0  0  0  0  0  0  0
   49.7828    7.7724   12.6699 H   0  0  0  0  0  0  0  0  0  0  0  0
   46.0752    6.5269   12.4101 H   0  0  0  0  0  0  0  0  0  0  0  0
  1  3  1  0
  3  2  2  0
  4  1  2  0
  5  1  1  0
  2  6  1  0
  6  7  2  0
  6  8  1  0
 24 16  1  0
 25 14  1  0
 26 32  1  0
 27 31  1  0
 28 25  2  0
 29 23  1  0
 30 24  1  0
 31 29  1  0
 32 30  1  0
 16 20  2  0
 14 13  2  0
 19 28  1  0
 10  9  2  0
 11  9  1  0
 12 10  1  0
 13 11  1  0
 14 12  1  0
 15  9  1  0
 16 10  1  0
 17 11  2  0
 18 12  2  0
 19 22  2  0
 20 21  1  0
 21 15  2  0
 22 13  1  0
 23 15  1  0
 33 35  1  0
 35 34  2  0
 36 33  2  0
 37 33  1  0
 34 38  1  0
 38 39  2  0
 38 40  1  0
  2 41  1  0
  3 42  1  0
  5 43  1  0
  8 44  1  0
 20 45  1  0
 21 46  1  0
 22 47  1  0
 23 48  1  0
 24 49  1  0
 25 50  1  0
 26 51  1  0
 26 52  1  0
 27 53  1  0
 27 54  1  0
 28 55  1  0
 29 56  1  0
 29 57  1  0
 30 58  1  0
 30 59  1  0
 31 60  1  0
 31 61  1  0
 32 62  1  0
 32 63  1  0
 34 64  1  0
 35 65  1  0
 37 66  1  0
 40 67  1  0
M  END
> <Uni-Dock RESULT> 
ENERGY=   -5.221  LOWER_BOUND=    2.951  UPPER_BOUND=    4.805
INTER + INTRA:          -5.221
INTER:                  -5.221
INTRA:                   0.000
UNBOUND:                 0.000

$$$$

     RDKit          3D

 67 67  0  0  0  0  0  0  0  0999 V2000
   48.9865    7.9271   14.5058 C   0  0  0  0  0  0  0  0  0  0  0  0
   48.3222   10.2094   13.7292 C   0  0  0  0  0  0  0  0  0  0  0  0
   48.9665    9.3910   14.5722 C   0  0  0  0  0  0  0  0  0  0  0  0
   49.9420    7.2342   14.8028 O   0  0  0  0  0  0  0  0  0  0  0  0
   47.7905    7.4020   14.2029 O   0  0  0  0  0  0  0  0  0  0  0  0
   47.5877    9.8034   12.5277 C   0  0  0  0  0  0  0  0  0  0  0  0
   46.5679   10.3338   12.1278 O   0  0  0  0  0  0  0  0  0  0  0  0
   48.2239    8.8564   11.8229 O   0  0  0  0  0  0  0  0  0  0  0  0
   48.6302    8.1595   13.8634 C   0  0  0  0  0  0  0  0  0  0  0  0
   47.6754    8.9356   13.1740 C   0  0  0  0  0  0  0  0  0  0  0  0
   48.2958    6.7548   14.2290 C   0  0  0  0  0  0  0  0  0  0  0  0
   46.3563    8.3307   12.8302 C   0  0  0  0  0  0  0  0  0  0  0  0
   47.0833    6.1368   13.6920 C   0  0  0  0  0  0  0  0  0  0  0  0
   46.1423    6.8885   13.0145 C   0  0  0  0  0  0  0  0  0  0  0  0
   49.8847    8.7076   14.2317 C   0  0  0  0  0  0  0  0  0  0  0  0
   47.9471   10.2840   12.8320 C   0  0  0  0  0  0  0  0  0  0  0  0
   49.0054    6.0983   14.9851 O   0  0  0  0  0  0  0  0  0  0  0  0
   45.4262    9.0114   12.4063 O   0  0  0  0  0  0  0  0  0  0  0  0
   45.7207    4.1654   13.4036 N   0  0  0  0  0  0  0  0  0  0  0  0
   49.2069   10.7942   13.1627 C   0  0  0  0  0  0  0  0  0  0  0  0
   50.1528   10.0245   13.8456 C   0  0  0  0  0  0  0  0  0  0  0  0
   46.8329    4.7855   13.8680 C   0  0  0  0  0  0  0  0  0  0  0  0
   50.8902    7.9166   14.8228 N   0  0  0  0  0  0  0  0  0  0  0  0
   47.0510   11.0410   12.0507 N   0  0  0  0  0  0  0  0  0  0  0  0
   44.9811    6.2822   12.5302 C   0  0  0  0  0  0  0  0  0  0  0  0
   45.6599   14.5250   11.6595 N   0  0  0  0  0  0  0  0  0  0  0  0
   53.3744    6.6268   15.4774 N   0  0  0  0  0  0  0  0  0  0  0  0
   44.8191    4.9263   12.7463 C   0  0  0  0  0  0  0  0  0  0  0  0
   51.7922    8.5422   15.7991 C   0  0  0  0  0  0  0  0  0  0  0  0
   46.9565   12.4833   12.2921 C   0  0  0  0  0  0  0  0  0  0  0  0
   52.6756    7.4634   16.4622 C   0  0  0  0  0  0  0  0  0  0  0  0
   45.7700   13.0727   11.5035 C   0  0  0  0  0  0  0  0  0  0  0  0
   49.2596    8.2495   14.5648 C   0  0  0  0  0  0  0  0  0  0  0  0
   47.1900    8.5128   13.1870 C   0  0  0  0  0  0  0  0  0  0  0  0
   47.9302    7.8555   14.0899 C   0  0  0  0  0  0  0  0  0  0  0  0
   49.6630    8.0914   15.7022 O   0  0  0  0  0  0  0  0  0  0  0  0
   50.0544    8.6938   13.5805 O   0  0  0  0  0  0  0  0  0  0  0  0
   47.5278    9.7970   12.5666 C   0  0  0  0  0  0  0  0  0  0  0  0
   47.2685   10.0994   11.4166 O   0  0  0  0  0  0  0  0  0  0  0  0
   48.0462   10.6757   13.4369 O   0  0  0  0  0  0  0  0  0  0  0  0
   48.3124   11.2780   13.9112 H   0  0  0  0  0  0  0  0  0  0  0  0
   49.5418    9.8022   15.3940 H   0  0  0  0  0  0  0  0  0  0  0  0
   47.9476    6.4355   14.2232 H   0  0  0  0  0  0  0  0  0  0  0  0
   47.6425    8.7111   11.0485 H   0  0  0  0  0  0  0  0  0  0  0  0
   49.4977   11.7965   12.8599 H   0  0  0  0  0  0  0  0  0  0  0  0
   51.1247   10.4733   14.0322 H   0  0  0  0  0  0  0  0  0  0  0  0
   47.5301    4.1408   14.3985 H   0  0  0  0  0  0  0  0  0  0  0  0
   50.4734    7.0529   15.2045 H   0  0  0  0  0  0  0  0  0  0  0  0
   46.1214   10.5941   12.0635 H   0  0  0  0  0  0  0  0  0  0  0  0
   44.2223    6.8500   12.0008 H   0  0  0  0  0  0  0  0  0  0  0  0
   46.4718   14.9720   11.2340 H   0  0  0  0  0  0  0  0  0  0  0  0
   44.8522   14.8529   11.1294 H   0  0  0  0  0  0  0  0  0  0  0  0
   53.9766    7.2227   14.9093 H   0  0  0  0  0  0  0  0  0  0  0  0
   52.6653    6.3003   14.8127 H   0  0  0  0  0  0  0  0  0  0  0  0
   43.9369    4.4006   12.3906 H   0  0  0  0  0  0  0  0  0  0  0  0
   51.2177    9.0611   16.5754 H   0  0  0  0  0  0  0  0  0  0  0  0
   52.4474    9.2669   15.3029 H   0  0  0  0  0  0  0  0  0  0  0  0
   47.8753   12.9818   11.9636 H   0  0  0  0  0  0  0  0  0  0  0  0
   46.8155   12.6806   13.3621 H   0  0  0  0  0  0  0  0  0  0  0  0
   52.0512    6.8098   17.0816 H   0  0  0  0  0  0  0  0  0  0  0  0
   53.4086    7.9385   17.1224 H   0  0  0  0  0  0  0  0  0  0  0  0
   45.8742   12.8327   10.4390 H   0  0  0  0  0  0  0  0  0  0  0  0
   44.8377   12.6095   11.8467 H   0  0  0  0  0  0  0  0  0  0  0  0
   46.2475    8.0960   12.8506 H   0  0  0  0  0  0  0  0  0  0  0  0
   47.5530    6.9451   14.5419 H   0  0  0  0  0  0  0  0  0  0  0  0
   50.9013    8.8869   14.0327 H   0  0  0  0  0  0  0  0  0  0  0  0
   48.1903   11.4810   12.8986 H   0  0  0  0  0  0  0  0  0  0  0  0
  1  3  1  0
  3  2  2  0
  4  1  2  0
  5  1  1  0
  2  6  1  0
  6  7  2  0
  6  8  1  0
 24 16  1  0
 25 14  1  0
 26 32  1  0
 27 31  1  0
 28 25  2  0
 29 23  1  0
 30 24  1  0
 31 29  1  0
 32 30  1  0
 16 20  2  0
 14 13  2  0
 19 28  1  0
 10  9  2  0
 11  9  1  0
 12 10  1  0
 13 11  1  0
 14 12  1  0
 15  9  1  0
 16 10  1  0
 17 11  2  0
 18 12  2  0
 19 22  2  0
 20 21  1  0
 21 15  2  0
 22 13  1  0
 23 15  1  0
 33 35  1  0
 35 34  2  0
 36 33  2  0
 37 33  1  0
 34 38  1  0
 38 39  2  0
 38 40  1  0
  2 41  1  0
  3 42  1  0
  5 43  1  0
  8 44  1  0
 20 45  1  0
 21 46  1  0
 22 47  1  0
 23 48  1  0
 24 49  1  0
 25 50  1  0
 26 51  1  0
 26 52  1  0
 27 53  1  0
 27 54  1  0
 28 55  1  0
 29 56  1  0
 29 57  1  0
 30 58  1  0
 30 59  1  0
 31 60  1  0
 31 61  1  0
 32 62  1  0
 32 63  1  0
 34 64  1  0
 35 65  1  0
 37 66  1  0
 40 67  1  0
M  END
> <Uni-Dock RESULT> 
ENERGY=   -4.609  LOWER_BOUND=    2.241  UPPER_BOUND=    3.378
INTER + INTRA:          -4.609
INTER:                  -4.609
INTRA:                   0.000
UNBOUND:                 0.000

$$$$
