
     RDKit          3D

 67 67  0  0  0  0  0  0  0  0999 V2000
   47.3519    5.8497   19.3506 C   0  0  0  0  0  0  0  0  0  0  0  0
   49.4427    6.8370   20.2284 C   0  0  0  0  0  0  0  0  0  0  0  0
   48.8108    5.9276   19.4760 C   0  0  0  0  0  0  0  0  0  0  0  0
   46.5241    6.0428   20.2173 O   0  0  0  0  0  0  0  0  0  0  0  0
   47.0231    5.4613   18.1093 O   0  0  0  0  0  0  0  0  0  0  0  0
   48.7646    7.9536   20.8947 C   0  0  0  0  0  0  0  0  0  0  0  0
   47.8394    8.6156   20.4706 O   0  0  0  0  0  0  0  0  0  0  0  0
   49.3585    8.2093   22.0702 O   0  0  0  0  0  0  0  0  0  0  0  0
   47.7204    7.2678   20.8801 C   0  0  0  0  0  0  0  0  0  0  0  0
   48.0311    6.5993   19.6789 C   0  0  0  0  0  0  0  0  0  0  0  0
   47.3948    8.7200   20.8516 C   0  0  0  0  0  0  0  0  0  0  0  0
   48.0064    7.3680   18.4032 C   0  0  0  0  0  0  0  0  0  0  0  0
   47.6142    9.4780   19.6203 C   0  0  0  0  0  0  0  0  0  0  0  0
   47.9125    8.8348   18.4347 C   0  0  0  0  0  0  0  0  0  0  0  0
   47.7488    6.5759   22.1111 C   0  0  0  0  0  0  0  0  0  0  0  0
   48.3447    5.2155   19.6771 C   0  0  0  0  0  0  0  0  0  0  0  0
   46.9401    9.3060   21.8306 O   0  0  0  0  0  0  0  0  0  0  0  0
   48.0449    6.8134   17.3097 O   0  0  0  0  0  0  0  0  0  0  0  0
   47.6888   11.6104   18.4888 N   0  0  0  0  0  0  0  0  0  0  0  0
   48.3698    4.5534   20.9124 C   0  0  0  0  0  0  0  0  0  0  0  0
   48.0685    5.2161   22.1027 C   0  0  0  0  0  0  0  0  0  0  0  0
   47.5079   10.8595   19.6032 C   0  0  0  0  0  0  0  0  0  0  0  0
   47.5214    7.2116   23.3532 N   0  0  0  0  0  0  0  0  0  0  0  0
   48.7716    4.5548   18.5118 N   0  0  0  0  0  0  0  0  0  0  0  0
   48.0965    9.5769   17.2658 C   0  0  0  0  0  0  0  0  0  0  0  0
   48.0095    3.4815   15.9114 N   0  0  0  0  0  0  0  0  0  0  0  0
   50.3699    8.2763   22.5565 N   0  0  0  0  0  0  0  0  0  0  0  0
   47.9774   10.9524   17.3449 C   0  0  0  0  0  0  0  0  0  0  0  0
   48.7047    7.3161   24.2241 C   0  0  0  0  0  0  0  0  0  0  0  0
   48.4783    3.1304   18.3463 C   0  0  0  0  0  0  0  0  0  0  0  0
   49.6621    8.4674   23.8295 C   0  0  0  0  0  0  0  0  0  0  0  0
   48.7625    2.6954   16.8929 C   0  0  0  0  0  0  0  0  0  0  0  0
   48.1124    5.9371   18.7852 C   0  0  0  0  0  0  0  0  0  0  0  0
   47.9514    7.9766   20.2221 C   0  0  0  0  0  0  0  0  0  0  0  0
   47.7626    7.3332   19.0621 C   0  0  0  0  0  0  0  0  0  0  0  0
   48.5198    5.5250   17.7151 O   0  0  0  0  0  0  0  0  0  0  0  0
   47.8180    5.1140   19.8021 O   0  0  0  0  0  0  0  0  0  0  0  0
   48.6237    7.4357   21.4067 C   0  0  0  0  0  0  0  0  0  0  0  0
   48.3030    7.6776   22.5555 O   0  0  0  0  0  0  0  0  0  0  0  0
   49.7269    6.7350   21.1056 O   0  0  0  0  0  0  0  0  0  0  0  0
   50.5191    6.8041   20.3462 H   0  0  0  0  0  0  0  0  0  0  0  0
   49.3690    5.1663   18.9446 H   0  0  0  0  0  0  0  0  0  0  0  0
   46.0429    5.4555   18.1234 H   0  0  0  0  0  0  0  0  0  0  0  0
   48.8303    8.9489   22.4372 H   0  0  0  0  0  0  0  0  0  0  0  0
   48.6507    3.5062   20.9772 H   0  0  0  0  0  0  0  0  0  0  0  0
   48.0893    4.6602   23.0374 H   0  0  0  0  0  0  0  0  0  0  0  0
   47.2692   11.4220   20.5026 H   0  0  0  0  0  0  0  0  0  0  0  0
   47.1391    8.1538   23.1759 H   0  0  0  0  0  0  0  0  0  0  0  0
   48.4985    5.0755   17.6595 H   0  0  0  0  0  0  0  0  0  0  0  0
   48.3247    9.0954   16.3199 H   0  0  0  0  0  0  0  0  0  0  0  0
   48.1617    3.1056   14.9774 H   0  0  0  0  0  0  0  0  0  0  0  0
   47.0107    3.4211   16.1015 H   0  0  0  0  0  0  0  0  0  0  0  0
   51.0936    8.9879   22.4663 H   0  0  0  0  0  0  0  0  0  0  0  0
   50.8446    7.3738   22.5640 H   0  0  0  0  0  0  0  0  0  0  0  0
   48.1115   11.5798   16.4677 H   0  0  0  0  0  0  0  0  0  0  0  0
   48.3359    7.5234   25.2359 H   0  0  0  0  0  0  0  0  0  0  0  0
   49.2511    6.3673   24.2885 H   0  0  0  0  0  0  0  0  0  0  0  0
   49.1056    2.5299   19.0133 H   0  0  0  0  0  0  0  0  0  0  0  0
   47.4257    2.9296   18.5809 H   0  0  0  0  0  0  0  0  0  0  0  0
   49.1058    9.4100   23.7797 H   0  0  0  0  0  0  0  0  0  0  0  0
   50.4120    8.5742   24.6214 H   0  0  0  0  0  0  0  0  0  0  0  0
   49.8310    2.8103   16.6796 H   0  0  0  0  0  0  0  0  0  0  0  0
   48.5120    1.6351   16.7780 H   0  0  0  0  0  0  0  0  0  0  0  0
   47.5896    8.9910   20.3457 H   0  0  0  0  0  0  0  0  0  0  0  0
   47.3163    7.8506   18.2204 H   0  0  0  0  0  0  0  0  0  0  0  0
   48.0740    4.2295   19.4691 H   0  0  0  0  0  0  0  0  0  0  0  0
   50.0787    6.4659   21.9789 H   0  0  0  0  0  0  0  0  0  0  0  0
  1  3  1  0
  3  2  2  0
  4  1  2  0
  5  1  1  0
  2  6  1  0
  6  7  2  0
  6  8  1  0
 24 16  1  0
 25 14  1  0
 26 32  1  0
 27 31  1  0
 28 25  2  0
 29 23  1  0
 30 24  1  0
 31 29  1  0
 32 30  1  0
 16 20  2  0
 14 13  2  0
 19 28  1  0
 10  9  2  0
 11  9  1  0
 12 10  1  0
 13 11  1  0
 14 12  1  0
 15  9  1  0
 16 10  1  0
 17 11  2  0
 18 12  2  0
 19 22  2  0
 20 21  1  0
 21 15  2  0
 22 13  1  0
 23 15  1  0
 33 35  1  0
 35 34  2  0
 36 33  2  0
 37 33  1  0
 34 38  1  0
 38 39  2  0
 38 40  1  0
  2 41  1  0
  3 42  1  0
  5 43  1  0
  8 44  1  0
 20 45  1  0
 21 46  1  0
 22 47  1  0
 23 48  1  0
 24 49  1  0
 25 50  1  0
 26 51  1  0
 26 52  1  0
 27 53  1  0
 27 54  1  0
 28 55  1  0
 29 56  1  0
 29 57  1  0
 30 58  1  0
 30 59  1  0
 31 60  1  0
 31 61  1  0
 32 62  1  0
 32 63  1  0
 34 64  1  0
 35 65  1  0
 37 66  1  0
 40 67  1  0
M  END
> <Uni-Dock RESULT> 
ENERGY=   -4.814  LOWER_BOUND=    0.000  UPPER_BOUND=    0.000
INTER + INTRA:          -4.814
INTER:                  -4.814
INTRA:                   0.000
UNBOUND:                 0.000

$$$$

     RDKit          3D

 67 67  0  0  0  0  0  0  0  0999 V2000
   47.1592    9.5043   19.5667 C   0  0  0  0  0  0  0  0  0  0  0  0
   49.4353    8.5835   19.8641 C   0  0  0  0  0  0  0  0  0  0  0  0
   48.6003    9.6285   19.8073 C   0  0  0  0  0  0  0  0  0  0  0  0
   46.5982    8.7242   18.8248 O   0  0  0  0  0  0  0  0  0  0  0  0
   46.5006   10.4463   20.2586 O   0  0  0  0  0  0  0  0  0  0  0  0
   48.9910    7.1861   19.8437 C   0  0  0  0  0  0  0  0  0  0  0  0
   48.0052    6.7161   20.3742 O   0  0  0  0  0  0  0  0  0  0  0  0
   49.8837    6.4353   19.1810 O   0  0  0  0  0  0  0  0  0  0  0  0
   47.9618    7.5702   19.2487 C   0  0  0  0  0  0  0  0  0  0  0  0
   47.9221    8.8313   19.8766 C   0  0  0  0  0  0  0  0  0  0  0  0
   47.6814    6.3430   20.0430 C   0  0  0  0  0  0  0  0  0  0  0  0
   47.5799    8.9011   21.3246 C   0  0  0  0  0  0  0  0  0  0  0  0
   47.5858    6.4400   21.4992 C   0  0  0  0  0  0  0  0  0  0  0  0
   47.5391    7.6698   22.1268 C   0  0  0  0  0  0  0  0  0  0  0  0
   48.2979    7.4630   17.8810 C   0  0  0  0  0  0  0  0  0  0  0  0
   48.1849   10.0172   19.1431 C   0  0  0  0  0  0  0  0  0  0  0  0
   47.5207    5.2461   19.5143 O   0  0  0  0  0  0  0  0  0  0  0  0
   47.3099    9.9622   21.8779 O   0  0  0  0  0  0  0  0  0  0  0  0
   47.4161    5.3347   23.6399 N   0  0  0  0  0  0  0  0  0  0  0  0
   48.5197    9.8827   17.7887 C   0  0  0  0  0  0  0  0  0  0  0  0
   48.5654    8.6339   17.1679 C   0  0  0  0  0  0  0  0  0  0  0  0
   47.5178    5.3029   22.2881 C   0  0  0  0  0  0  0  0  0  0  0  0
   48.4278    6.2208   17.2187 N   0  0  0  0  0  0  0  0  0  0  0  0
   48.2669   11.2727   19.7707 N   0  0  0  0  0  0  0  0  0  0  0  0
   47.4256    7.7393   23.5171 C   0  0  0  0  0  0  0  0  0  0  0  0
   46.8093   13.4451   21.0556 N   0  0  0  0  0  0  0  0  0  0  0  0
   50.9896    6.2912   19.0392 N   0  0  0  0  0  0  0  0  0  0  0  0
   47.3707    6.5519   24.2239 C   0  0  0  0  0  0  0  0  0  0  0  0
   49.8029    5.8647   16.8289 C   0  0  0  0  0  0  0  0  0  0  0  0
   47.9001   12.4749   19.0207 C   0  0  0  0  0  0  0  0  0  0  0  0
   50.6525    5.3104   17.9988 C   0  0  0  0  0  0  0  0  0  0  0  0
   47.7743   13.6796   19.9775 C   0  0  0  0  0  0  0  0  0  0  0  0
   47.7436    9.8778   20.2183 C   0  0  0  0  0  0  0  0  0  0  0  0
   48.0289    7.3941   20.2250 C   0  0  0  0  0  0  0  0  0  0  0  0
   47.5197    8.5242   20.7337 C   0  0  0  0  0  0  0  0  0  0  0  0
   47.8393   10.8746   20.9099 O   0  0  0  0  0  0  0  0  0  0  0  0
   47.7079    9.9386   18.8792 O   0  0  0  0  0  0  0  0  0  0  0  0
   48.9772    7.3024   19.1113 C   0  0  0  0  0  0  0  0  0  0  0  0
   48.9813    6.4167   18.2768 O   0  0  0  0  0  0  0  0  0  0  0  0
   49.9401    8.2343   19.1684 O   0  0  0  0  0  0  0  0  0  0  0  0
   50.5027    8.7351   19.9695 H   0  0  0  0  0  0  0  0  0  0  0  0
   48.9750   10.6406   19.9015 H   0  0  0  0  0  0  0  0  0  0  0  0
   45.5599   10.2708   20.0460 H   0  0  0  0  0  0  0  0  0  0  0  0
   49.4935    5.5367   19.2103 H   0  0  0  0  0  0  0  0  0  0  0  0
   48.7782   10.7514   17.1900 H   0  0  0  0  0  0  0  0  0  0  0  0
   48.8189    8.5774   16.1117 H   0  0  0  0  0  0  0  0  0  0  0  0
   47.5434    4.3070   21.8525 H   0  0  0  0  0  0  0  0  0  0  0  0
   48.0388    5.4818   17.8252 H   0  0  0  0  0  0  0  0  0  0  0  0
   47.7913   11.2684   20.6903 H   0  0  0  0  0  0  0  0  0  0  0  0
   47.3798    8.6928   24.0342 H   0  0  0  0  0  0  0  0  0  0  0  0
   46.6964   14.2925   21.6087 H   0  0  0  0  0  0  0  0  0  0  0  0
   45.8961   13.2140   20.6684 H   0  0  0  0  0  0  0  0  0  0  0  0
   51.6828    5.8872   19.6674 H   0  0  0  0  0  0  0  0  0  0  0  0
   51.4235    7.1074   18.6087 H   0  0  0  0  0  0  0  0  0  0  0  0
   47.2837    6.5457   25.3072 H   0  0  0  0  0  0  0  0  0  0  0  0
   49.7231    5.0741   16.0731 H   0  0  0  0  0  0  0  0  0  0  0  0
   50.3197    6.7001   16.3411 H   0  0  0  0  0  0  0  0  0  0  0  0
   48.6654   12.7088   18.2732 H   0  0  0  0  0  0  0  0  0  0  0  0
   46.9430   12.3246   18.5064 H   0  0  0  0  0  0  0  0  0  0  0  0
   50.1297    4.4704   18.4695 H   0  0  0  0  0  0  0  0  0  0  0  0
   51.5890    4.9197   17.5853 H   0  0  0  0  0  0  0  0  0  0  0  0
   48.7501   13.8912   20.4286 H   0  0  0  0  0  0  0  0  0  0  0  0
   47.4725   14.5642   19.4062 H   0  0  0  0  0  0  0  0  0  0  0  0
   47.7419    6.4344   20.6392 H   0  0  0  0  0  0  0  0  0  0  0  0
   46.8800    8.4862   21.6082 H   0  0  0  0  0  0  0  0  0  0  0  0
   47.8409   10.8889   18.6843 H   0  0  0  0  0  0  0  0  0  0  0  0
   50.5042    8.0356   18.3931 H   0  0  0  0  0  0  0  0  0  0  0  0
  1  3  1  0
  3  2  2  0
  4  1  2  0
  5  1  1  0
  2  6  1  0
  6  7  2  0
  6  8  1  0
 24 16  1  0
 25 14  1  0
 26 32  1  0
 27 31  1  0
 28 25  2  0
 29 23  1  0
 30 24  1  0
 31 29  1  0
 32 30  1  0
 16 20  2  0
 14 13  2  0
 19 28  1  0
 10  9  2  0
 11  9  1  0
 12 10  1  0
 13 11  1  0
 14 12  1  0
 15  9  1  0
 16 10  1  0
 17 11  2  0
 18 12  2  0
 19 22  2  0
 20 21  1  0
 21 15  2  0
 22 13  1  0
 23 15  1  0
 33 35  1  0
 35 34  2  0
 36 33  2  0
 37 33  1  0
 34 38  1  0
 38 39  2  0
 38 40  1  0
  2 41  1  0
  3 42  1  0
  5 43  1  0
  8 44  1  0
 20 45  1  0
 21 46  1  0
 22 47  1  0
 23 48  1  0
 24 49  1  0
 25 50  1  0
 26 51  1  0
 26 52  1  0
 27 53  1  0
 27 54  1  0
 28 55  1  0
 29 56  1  0
 29 57  1  0
 30 58  1  0
 30 59  1  0
 31 60  1  0
 31 61  1  0
 32 62  1  0
 32 63  1  0
 34 64  1  0
 35 65  1  0
 37 66  1  0
 40 67  1  0
M  END
> <Uni-Dock RESULT> 
ENERGY=   -4.729  LOWER_BOUND=    1.693  UPPER_BOUND=    5.464
INTER + INTRA:          -4.729
INTER:                  -4.729
INTRA:                   0.000
UNBOUND:                 0.000

$$$$

     RDKit          3D

 67 67  0  0  0  0  0  0  0  0999 V2000
   46.3127    8.3894   13.3159 C   0  0  0  0  0  0  0  0  0  0  0  0
   48.3121    8.2698   11.8651 C   0  0  0  0  0  0  0  0  0  0  0  0
   47.0700    7.8746   12.1706 C   0  0  0  0  0  0  0  0  0  0  0  0
   46.7388    8.6724   14.4169 O   0  0  0  0  0  0  0  0  0  0  0  0
   45.0099    8.4602   13.0038 O   0  0  0  0  0  0  0  0  0  0  0  0
   49.0056    9.3689   12.5444 C   0  0  0  0  0  0  0  0  0  0  0  0
   48.5276   10.4129   12.9390 O   0  0  0  0  0  0  0  0  0  0  0  0
   50.3159    9.0942   12.6317 O   0  0  0  0  0  0  0  0  0  0  0  0
   48.2748    9.1563   13.5352 C   0  0  0  0  0  0  0  0  0  0  0  0
   47.1673    8.7239   12.7785 C   0  0  0  0  0  0  0  0  0  0  0  0
   48.6880   10.5854   13.4851 C   0  0  0  0  0  0  0  0  0  0  0  0
   46.4254    9.7218   11.9582 C   0  0  0  0  0  0  0  0  0  0  0  0
   48.0826   11.4705   12.4906 C   0  0  0  0  0  0  0  0  0  0  0  0
   46.9924   11.0617   11.7471 C   0  0  0  0  0  0  0  0  0  0  0  0
   49.0124    8.2363   14.3126 C   0  0  0  0  0  0  0  0  0  0  0  0
   46.7514    7.3676   12.8081 C   0  0  0  0  0  0  0  0  0  0  0  0
   49.5207   11.0514   14.2584 O   0  0  0  0  0  0  0  0  0  0  0  0
   45.3340    9.4693   11.4585 O   0  0  0  0  0  0  0  0  0  0  0  0
   48.0409   13.6160   11.3824 N   0  0  0  0  0  0  0  0  0  0  0  0
   47.5029    6.4745   13.5843 C   0  0  0  0  0  0  0  0  0  0  0  0
   48.6034    6.9007   14.3287 C   0  0  0  0  0  0  0  0  0  0  0  0
   48.5709   12.7503   12.2815 C   0  0  0  0  0  0  0  0  0  0  0  0
   50.1758    8.5980   15.0296 N   0  0  0  0  0  0  0  0  0  0  0  0
   45.7259    6.8895   11.9736 N   0  0  0  0  0  0  0  0  0  0  0  0
   46.4160   11.9312   10.8184 C   0  0  0  0  0  0  0  0  0  0  0  0
   42.8622    6.8334   11.4339 N   0  0  0  0  0  0  0  0  0  0  0  0
   51.1703    8.6547   12.0481 N   0  0  0  0  0  0  0  0  0  0  0  0
   46.9746   13.1878   10.6722 C   0  0  0  0  0  0  0  0  0  0  0  0
   51.4311    8.0359   14.5026 C   0  0  0  0  0  0  0  0  0  0  0  0
   44.9012    5.7665   12.4219 C   0  0  0  0  0  0  0  0  0  0  0  0
   51.9770    8.7943   13.2679 C   0  0  0  0  0  0  0  0  0  0  0  0
   43.6700    5.6124   11.5037 C   0  0  0  0  0  0  0  0  0  0  0  0
   46.2138    8.3118   12.3726 C   0  0  0  0  0  0  0  0  0  0  0  0
   48.1204    9.8576   12.8474 C   0  0  0  0  0  0  0  0  0  0  0  0
   46.8424    9.6279   12.5170 C   0  0  0  0  0  0  0  0  0  0  0  0
   45.3557    8.0409   11.5532 O   0  0  0  0  0  0  0  0  0  0  0  0
   46.5873    7.4477   13.3277 O   0  0  0  0  0  0  0  0  0  0  0  0
   49.1558    8.8386   13.0408 C   0  0  0  0  0  0  0  0  0  0  0  0
   50.0474    8.9057   13.8664 O   0  0  0  0  0  0  0  0  0  0  0  0
   49.1057    7.8635   12.1214 O   0  0  0  0  0  0  0  0  0  0  0  0
   48.8555    7.8032   11.0524 H   0  0  0  0  0  0  0  0  0  0  0  0
   46.5755    7.1069   11.5878 H   0  0  0  0  0  0  0  0  0  0  0  0
   44.5994    8.8245   13.8161 H   0  0  0  0  0  0  0  0  0  0  0  0
   50.6810    9.8699   13.1068 H   0  0  0  0  0  0  0  0  0  0  0  0
   47.2606    5.4159   13.6063 H   0  0  0  0  0  0  0  0  0  0  0  0
   49.1509    6.1751   14.9260 H   0  0  0  0  0  0  0  0  0  0  0  0
   49.4221   13.1318   12.8402 H   0  0  0  0  0  0  0  0  0  0  0  0
   50.2418    9.6278   15.0526 H   0  0  0  0  0  0  0  0  0  0  0  0
   45.1232    7.6601   11.6345 H   0  0  0  0  0  0  0  0  0  0  0  0
   45.5547   11.6371   10.2265 H   0  0  0  0  0  0  0  0  0  0  0  0
   42.0198    6.6598   10.8888 H   0  0  0  0  0  0  0  0  0  0  0  0
   42.5651    7.1145   12.3667 H   0  0  0  0  0  0  0  0  0  0  0  0
   51.6890    9.0370   11.2588 H   0  0  0  0  0  0  0  0  0  0  0  0
   51.0218    7.6654   11.8505 H   0  0  0  0  0  0  0  0  0  0  0  0
   46.5684   13.9049    9.9638 H   0  0  0  0  0  0  0  0  0  0  0  0
   52.1771    8.1226   15.3018 H   0  0  0  0  0  0  0  0  0  0  0  0
   51.3411    6.9644   14.2863 H   0  0  0  0  0  0  0  0  0  0  0  0
   45.4733    4.8334   12.3883 H   0  0  0  0  0  0  0  0  0  0  0  0
   44.5615    5.9319   13.4517 H   0  0  0  0  0  0  0  0  0  0  0  0
   52.0720    9.8605   13.5014 H   0  0  0  0  0  0  0  0  0  0  0  0
   52.9834    8.4176   13.0535 H   0  0  0  0  0  0  0  0  0  0  0  0
   43.9998    5.3591   10.4901 H   0  0  0  0  0  0  0  0  0  0  0  0
   43.0491    4.7867   11.8682 H   0  0  0  0  0  0  0  0  0  0  0  0
   48.4680   10.8731   12.9991 H   0  0  0  0  0  0  0  0  0  0  0  0
   46.1729   10.4590   12.3261 H   0  0  0  0  0  0  0  0  0  0  0  0
   46.0757    6.6381   13.1240 H   0  0  0  0  0  0  0  0  0  0  0  0
   49.8589    7.2829   12.3549 H   0  0  0  0  0  0  0  0  0  0  0  0
  1  3  1  0
  3  2  2  0
  4  1  2  0
  5  1  1  0
  2  6  1  0
  6  7  2  0
  6  8  1  0
 24 16  1  0
 25 14  1  0
 26 32  1  0
 27 31  1  0
 28 25  2  0
 29 23  1  0
 30 24  1  0
 31 29  1  0
 32 30  1  0
 16 20  2  0
 14 13  2  0
 19 28  1  0
 10  9  2  0
 11  9  1  0
 12 10  1  0
 13 11  1  0
 14 12  1  0
 15  9  1  0
 16 10  1  0
 17 11  2  0
 18 12  2  0
 19 22  2  0
 20 21  1  0
 21 15  2  0
 22 13  1  0
 23 15  1  0
 33 35  1  0
 35 34  2  0
 36 33  2  0
 37 33  1  0
 34 38  1  0
 38 39  2  0
 38 40  1  0
  2 41  1  0
  3 42  1  0
  5 43  1  0
  8 44  1  0
 20 45  1  0
 21 46  1  0
 22 47  1  0
 23 48  1  0
 24 49  1  0
 25 50  1  0
 26 51  1  0
 26 52  1  0
 27 53  1  0
 27 54  1  0
 28 55  1  0
 29 56  1  0
 29 57  1  0
 30 58  1  0
 30 59  1  0
 31 60  1  0
 31 61  1  0
 32 62  1  0
 32 63  1  0
 34 64  1  0
 35 65  1  0
 37 66  1  0
 40 67  1  0
M  END
> <Uni-Dock RESULT> 
ENERGY=   -4.700  LOWER_BOUND=    6.361  UPPER_BOUND=    7.927
INTER + INTRA:          -4.700
INTER:                  -4.700
INTRA:                   0.000
UNBOUND:                 0.000

$$$$

     RDKit          3D

 67 67  0  0  0  0  0  0  0  0999 V2000
   48.5198    8.0975   15.2866 C   0  0  0  0  0  0  0  0  0  0  0  0
   49.3313    8.2994   12.9590 C   0  0  0  0  0  0  0  0  0  0  0  0
   49.4776    7.8377   14.2072 C   0  0  0  0  0  0  0  0  0  0  0  0
   47.8987    9.1198   15.4935 O   0  0  0  0  0  0  0  0  0  0  0  0
   48.4503    7.0315   16.0981 O   0  0  0  0  0  0  0  0  0  0  0  0
   48.1279    8.9894   12.4835 C   0  0  0  0  0  0  0  0  0  0  0  0
   46.9737    8.7449   12.7701 O   0  0  0  0  0  0  0  0  0  0  0  0
   48.4684    9.9393   11.5994 O   0  0  0  0  0  0  0  0  0  0  0  0
   47.9035    9.3169   13.6682 C   0  0  0  0  0  0  0  0  0  0  0  0
   48.4787    8.1573   14.2256 C   0  0  0  0  0  0  0  0  0  0  0  0
   46.6312    9.2127   12.9027 C   0  0  0  0  0  0  0  0  0  0  0  0
   47.7812    6.8535   14.0465 C   0  0  0  0  0  0  0  0  0  0  0  0
   46.1132    7.8904   12.5531 C   0  0  0  0  0  0  0  0  0  0  0  0
   46.6633    6.7462   13.0977 C   0  0  0  0  0  0  0  0  0  0  0  0
   48.5440   10.5685   13.8037 C   0  0  0  0  0  0  0  0  0  0  0  0
   49.6907    8.2280   14.9602 C   0  0  0  0  0  0  0  0  0  0  0  0
   45.9944   10.2045   12.5574 O   0  0  0  0  0  0  0  0  0  0  0  0
   48.0983    5.8542   14.6834 O   0  0  0  0  0  0  0  0  0  0  0  0
   44.5159    6.5496   11.3350 N   0  0  0  0  0  0  0  0  0  0  0  0
   50.3077    9.4812   15.0765 C   0  0  0  0  0  0  0  0  0  0  0  0
   49.7420   10.6287   14.5194 C   0  0  0  0  0  0  0  0  0  0  0  0
   45.0435    7.7490   11.6838 C   0  0  0  0  0  0  0  0  0  0  0  0
   48.0536   11.7497   13.2013 N   0  0  0  0  0  0  0  0  0  0  0  0
   50.3436    7.0724   15.4239 N   0  0  0  0  0  0  0  0  0  0  0  0
   46.1387    5.4947   12.7670 C   0  0  0  0  0  0  0  0  0  0  0  0
   50.3347    4.8865   17.3518 N   0  0  0  0  0  0  0  0  0  0  0  0
   49.1628   10.1413   10.7386 N   0  0  0  0  0  0  0  0  0  0  0  0
   45.0741    5.4496   11.8856 C   0  0  0  0  0  0  0  0  0  0  0  0
   48.8773   12.2734   12.0983 C   0  0  0  0  0  0  0  0  0  0  0  0
   51.1517    7.1450   16.6421 C   0  0  0  0  0  0  0  0  0  0  0  0
   48.6661   11.5237   10.7600 C   0  0  0  0  0  0  0  0  0  0  0  0
   51.5155    5.7241   17.1230 C   0  0  0  0  0  0  0  0  0  0  0  0
   48.9226    7.3510   14.8552 C   0  0  0  0  0  0  0  0  0  0  0  0
   47.4861    8.5479   13.1958 C   0  0  0  0  0  0  0  0  0  0  0  0
   47.7045    7.5524   14.0657 C   0  0  0  0  0  0  0  0  0  0  0  0
   49.3926    6.2644   15.1373 O   0  0  0  0  0  0  0  0  0  0  0  0
   49.4146    8.4935   15.3560 O   0  0  0  0  0  0  0  0  0  0  0  0
   48.4551    9.5742   12.8014 C   0  0  0  0  0  0  0  0  0  0  0  0
   48.1751   10.7330   12.5566 O   0  0  0  0  0  0  0  0  0  0  0  0
   49.6872    9.0810   12.6081 O   0  0  0  0  0  0  0  0  0  0  0  0
   50.1057    8.1419   12.2180 H   0  0  0  0  0  0  0  0  0  0  0  0
   50.3563    7.2688   14.4861 H   0  0  0  0  0  0  0  0  0  0  0  0
   47.7830    7.2954   16.7660 H   0  0  0  0  0  0  0  0  0  0  0  0
   47.6096   10.3450   11.3575 H   0  0  0  0  0  0  0  0  0  0  0  0
   51.2613    9.5873   15.5856 H   0  0  0  0  0  0  0  0  0  0  0  0
   50.2498   11.5825   14.6439 H   0  0  0  0  0  0  0  0  0  0  0  0
   44.5640    8.6120   11.2281 H   0  0  0  0  0  0  0  0  0  0  0  0
   47.0949   11.5731   12.8623 H   0  0  0  0  0  0  0  0  0  0  0  0
   49.6963    6.2659   15.4741 H   0  0  0  0  0  0  0  0  0  0  0  0
   46.5480    4.5807   13.1863 H   0  0  0  0  0  0  0  0  0  0  0  0
   50.6170    3.9918   17.7475 H   0  0  0  0  0  0  0  0  0  0  0  0
   49.7114    5.3303   18.0240 H   0  0  0  0  0  0  0  0  0  0  0  0
   49.1381    9.7920    9.7818 H   0  0  0  0  0  0  0  0  0  0  0  0
   50.1395   10.1269   11.0316 H   0  0  0  0  0  0  0  0  0  0  0  0
   44.6268    4.5036   11.5918 H   0  0  0  0  0  0  0  0  0  0  0  0
   48.5756   13.3166   11.9454 H   0  0  0  0  0  0  0  0  0  0  0  0
   49.9423   12.3005   12.3593 H   0  0  0  0  0  0  0  0  0  0  0  0
   52.0813    7.6920   16.4533 H   0  0  0  0  0  0  0  0  0  0  0  0
   50.5971    7.6606   17.4356 H   0  0  0  0  0  0  0  0  0  0  0  0
   47.6002   11.5138   10.5062 H   0  0  0  0  0  0  0  0  0  0  0  0
   49.1827   12.0816    9.9710 H   0  0  0  0  0  0  0  0  0  0  0  0
   52.1450    5.2343   16.3719 H   0  0  0  0  0  0  0  0  0  0  0  0
   52.0958    5.7944   18.0495 H   0  0  0  0  0  0  0  0  0  0  0  0
   46.5194    8.6471   12.7155 H   0  0  0  0  0  0  0  0  0  0  0  0
   46.9416    6.8005   14.2332 H   0  0  0  0  0  0  0  0  0  0  0  0
   50.1943    8.2057   15.8737 H   0  0  0  0  0  0  0  0  0  0  0  0
   50.2095    9.8600   12.3266 H   0  0  0  0  0  0  0  0  0  0  0  0
  1  3  1  0
  3  2  2  0
  4  1  2  0
  5  1  1  0
  2  6  1  0
  6  7  2  0
  6  8  1  0
 24 16  1  0
 25 14  1  0
 26 32  1  0
 27 31  1  0
 28 25  2  0
 29 23  1  0
 30 24  1  0
 31 29  1  0
 32 30  1  0
 16 20  2  0
 14 13  2  0
 19 28  1  0
 10  9  2  0
 11  9  1  0
 12 10  1  0
 13 11  1  0
 14 12  1  0
 15  9  1  0
 16 10  1  0
 17 11  2  0
 18 12  2  0
 19 22  2  0
 20 21  1  0
 21 15  2  0
 22 13  1  0
 23 15  1  0
 33 35  1  0
 35 34  2  0
 36 33  2  0
 37 33  1  0
 34 38  1  0
 38 39  2  0
 38 40  1  0
  2 41  1  0
  3 42  1  0
  5 43  1  0
  8 44  1  0
 20 45  1  0
 21 46  1  0
 22 47  1  0
 23 48  1  0
 24 49  1  0
 25 50  1  0
 26 51  1  0
 26 52  1  0
 27 53  1  0
 27 54  1  0
 28 55  1  0
 29 56  1  0
 29 57  1  0
 30 58  1  0
 30 59  1  0
 31 60  1  0
 31 61  1  0
 32 62  1  0
 32 63  1  0
 34 64  1  0
 35 65  1  0
 37 66  1  0
 40 67  1  0
M  END
> <Uni-Dock RESULT> 
ENERGY=   -4.305  LOWER_BOUND=    4.873  UPPER_BOUND=    7.733
INTER + INTRA:          -4.305
INTER:                  -4.305
INTRA:                   0.000
UNBOUND:                 0.000

$$$$

     RDKit          3D

 67 67  0  0  0  0  0  0  0  0999 V2000
   48.0738    6.3009   13.0441 C   0  0  0  0  0  0  0  0  0  0  0  0
   47.7101    8.2750   14.4890 C   0  0  0  0  0  0  0  0  0  0  0  0
   47.2428    7.3529   13.6382 C   0  0  0  0  0  0  0  0  0  0  0  0
   49.2258    6.3907   12.6722 O   0  0  0  0  0  0  0  0  0  0  0  0
   47.3515    5.1798   12.8987 O   0  0  0  0  0  0  0  0  0  0  0  0
   49.0669    8.2544   15.0451 C   0  0  0  0  0  0  0  0  0  0  0  0
   49.7102    7.2838   15.3890 O   0  0  0  0  0  0  0  0  0  0  0  0
   49.5168    9.5098   15.1915 O   0  0  0  0  0  0  0  0  0  0  0  0
   49.4184    7.5979   14.0419 C   0  0  0  0  0  0  0  0  0  0  0  0
   48.1787    6.9470   13.8823 C   0  0  0  0  0  0  0  0  0  0  0  0
   50.2778    7.2687   15.2119 C   0  0  0  0  0  0  0  0  0  0  0  0
   47.7696    5.9268   14.8876 C   0  0  0  0  0  0  0  0  0  0  0  0
   49.7331    6.4435   16.2895 C   0  0  0  0  0  0  0  0  0  0  0  0
   48.5224    5.7945   16.1435 C   0  0  0  0  0  0  0  0  0  0  0  0
   49.8331    8.5823   13.1177 C   0  0  0  0  0  0  0  0  0  0  0  0
   47.3401    7.2414   12.7762 C   0  0  0  0  0  0  0  0  0  0  0  0
   51.4373    7.6635   15.3014 O   0  0  0  0  0  0  0  0  0  0  0  0
   46.8237    5.1695   14.6967 O   0  0  0  0  0  0  0  0  0  0  0  0
   49.9732    5.5094   18.5038 N   0  0  0  0  0  0  0  0  0  0  0  0
   47.7732    8.2247   11.8761 C   0  0  0  0  0  0  0  0  0  0  0  0
   48.9976    8.8742   12.0370 C   0  0  0  0  0  0  0  0  0  0  0  0
   50.4251    6.2721   17.4777 C   0  0  0  0  0  0  0  0  0  0  0  0
   51.0289    9.3209   13.2695 N   0  0  0  0  0  0  0  0  0  0  0  0
   46.0506    6.6935   12.6586 N   0  0  0  0  0  0  0  0  0  0  0  0
   48.0313    4.9936   17.1771 C   0  0  0  0  0  0  0  0  0  0  0  0
   44.4657    4.3130   12.0958 N   0  0  0  0  0  0  0  0  0  0  0  0
   49.1902   10.5371   15.5105 N   0  0  0  0  0  0  0  0  0  0  0  0
   48.7874    4.8861   18.3300 C   0  0  0  0  0  0  0  0  0  0  0  0
   50.8429   10.7472   13.5868 C   0  0  0  0  0  0  0  0  0  0  0  0
   45.4860    6.4672   11.3273 C   0  0  0  0  0  0  0  0  0  0  0  0
   50.5115   11.0103   15.0763 C   0  0  0  0  0  0  0  0  0  0  0  0
   44.2166    5.5950   11.4304 C   0  0  0  0  0  0  0  0  0  0  0  0
   47.2776    6.3743   13.5602 C   0  0  0  0  0  0  0  0  0  0  0  0
   49.1931    7.2127   14.9305 C   0  0  0  0  0  0  0  0  0  0  0  0
   48.3129    6.2612   14.5913 C   0  0  0  0  0  0  0  0  0  0  0  0
   46.1728    5.8689   13.6305 O   0  0  0  0  0  0  0  0  0  0  0  0
   47.7102    6.9937   12.4522 O   0  0  0  0  0  0  0  0  0  0  0  0
   49.2326    8.5777   14.3984 C   0  0  0  0  0  0  0  0  0  0  0  0
   50.2512    9.2102   14.1898 O   0  0  0  0  0  0  0  0  0  0  0  0
   48.0144    9.1256   14.2779 O   0  0  0  0  0  0  0  0  0  0  0  0
   47.0709    9.0759   14.8406 H   0  0  0  0  0  0  0  0  0  0  0  0
   46.2088    7.3726   13.3157 H   0  0  0  0  0  0  0  0  0  0  0  0
   47.9910    4.5436   12.5151 H   0  0  0  0  0  0  0  0  0  0  0  0
   50.4213    9.3883   15.5490 H   0  0  0  0  0  0  0  0  0  0  0  0
   47.1507    8.5258   11.0384 H   0  0  0  0  0  0  0  0  0  0  0  0
   49.2989    9.6229   11.3079 H   0  0  0  0  0  0  0  0  0  0  0  0
   51.3857    6.7515   17.6498 H   0  0  0  0  0  0  0  0  0  0  0  0
   51.6003    8.8755   14.0047 H   0  0  0  0  0  0  0  0  0  0  0  0
   45.9464    5.8420   13.2385 H   0  0  0  0  0  0  0  0  0  0  0  0
   47.0862    4.4673   17.0850 H   0  0  0  0  0  0  0  0  0  0  0  0
   43.6255    3.7387   12.0651 H   0  0  0  0  0  0  0  0  0  0  0  0
   45.1996    3.7998   11.6108 H   0  0  0  0  0  0  0  0  0  0  0  0
   48.9938   10.9018   16.4414 H   0  0  0  0  0  0  0  0  0  0  0  0
   48.4739   10.9139   14.8901 H   0  0  0  0  0  0  0  0  0  0  0  0
   48.4539    4.2780   19.1667 H   0  0  0  0  0  0  0  0  0  0  0  0
   51.7931   11.2476   13.3649 H   0  0  0  0  0  0  0  0  0  0  0  0
   50.0936   11.2169   12.9379 H   0  0  0  0  0  0  0  0  0  0  0  0
   45.2115    7.4189   10.8606 H   0  0  0  0  0  0  0  0  0  0  0  0
   46.2173    5.9607   10.6856 H   0  0  0  0  0  0  0  0  0  0  0  0
   51.2731   10.5453   15.7121 H   0  0  0  0  0  0  0  0  0  0  0  0
   50.5584   12.0911   15.2507 H   0  0  0  0  0  0  0  0  0  0  0  0
   43.4485    6.1335   11.9966 H   0  0  0  0  0  0  0  0  0  0  0  0
   43.8222    5.4116   10.4250 H   0  0  0  0  0  0  0  0  0  0  0  0
   49.9677    7.0013   15.6588 H   0  0  0  0  0  0  0  0  0  0  0  0
   48.3257    5.3035   15.0993 H   0  0  0  0  0  0  0  0  0  0  0  0
   46.9360    6.9701   11.8533 H   0  0  0  0  0  0  0  0  0  0  0  0
   48.1959   10.0286   13.9456 H   0  0  0  0  0  0  0  0  0  0  0  0
  1  3  1  0
  3  2  2  0
  4  1  2  0
  5  1  1  0
  2  6  1  0
  6  7  2  0
  6  8  1  0
 24 16  1  0
 25 14  1  0
 26 32  1  0
 27 31  1  0
 28 25  2  0
 29 23  1  0
 30 24  1  0
 31 29  1  0
 32 30  1  0
 16 20  2  0
 14 13  2  0
 19 28  1  0
 10  9  2  0
 11  9  1  0
 12 10  1  0
 13 11  1  0
 14 12  1  0
 15  9  1  0
 16 10  1  0
 17 11  2  0
 18 12  2  0
 19 22  2  0
 20 21  1  0
 21 15  2  0
 22 13  1  0
 23 15  1  0
 33 35  1  0
 35 34  2  0
 36 33  2  0
 37 33  1  0
 34 38  1  0
 38 39  2  0
 38 40  1  0
  2 41  1  0
  3 42  1  0
  5 43  1  0
  8 44  1  0
 20 45  1  0
 21 46  1  0
 22 47  1  0
 23 48  1  0
 24 49  1  0
 25 50  1  0
 26 51  1  0
 26 52  1  0
 27 53  1  0
 27 54  1  0
 28 55  1  0
 29 56  1  0
 29 57  1  0
 30 58  1  0
 30 59  1  0
 31 60  1  0
 31 61  1  0
 32 62  1  0
 32 63  1  0
 34 64  1  0
 35 65  1  0
 37 66  1  0
 40 67  1  0
M  END
> <Uni-Dock RESULT> 
ENERGY=   -4.115  LOWER_BOUND=    4.332  UPPER_BOUND=    7.072
INTER + INTRA:          -4.115
INTER:                  -4.115
INTRA:                   0.000
UNBOUND:                 0.000

$$$$

     RDKit          3D

 67 67  0  0  0  0  0  0  0  0999 V2000
   51.2667    4.8086   17.5682 C   0  0  0  0  0  0  0  0  0  0  0  0
   52.1968    4.4262   19.8278 C   0  0  0  0  0  0  0  0  0  0  0  0
   51.1474    4.5996   19.0146 C   0  0  0  0  0  0  0  0  0  0  0  0
   52.1172    5.4454   16.9810 O   0  0  0  0  0  0  0  0  0  0  0  0
   50.2338    4.2282   16.9389 O   0  0  0  0  0  0  0  0  0  0  0  0
   53.5760    4.2737   19.3535 C   0  0  0  0  0  0  0  0  0  0  0  0
   53.9564    3.6803   18.3649 O   0  0  0  0  0  0  0  0  0  0  0  0
   54.4211    4.8506   20.2212 O   0  0  0  0  0  0  0  0  0  0  0  0
   53.2428    4.8999   18.3250 C   0  0  0  0  0  0  0  0  0  0  0  0
   51.9149    4.4279   18.3205 C   0  0  0  0  0  0  0  0  0  0  0  0
   54.3591    3.9608   18.0288 C   0  0  0  0  0  0  0  0  0  0  0  0
   51.6640    2.9953   17.9988 C   0  0  0  0  0  0  0  0  0  0  0  0
   54.0858    2.5260   17.9544 C   0  0  0  0  0  0  0  0  0  0  0  0
   52.7888    2.0505   17.9421 C   0  0  0  0  0  0  0  0  0  0  0  0
   53.5211    6.2481   18.6409 C   0  0  0  0  0  0  0  0  0  0  0  0
   50.8319    5.3014   18.5990 C   0  0  0  0  0  0  0  0  0  0  0  0
   55.5075    4.3520   17.8379 O   0  0  0  0  0  0  0  0  0  0  0  0
   50.5383    2.5709   17.7588 O   0  0  0  0  0  0  0  0  0  0  0  0
   54.9219    0.2662   17.7890 N   0  0  0  0  0  0  0  0  0  0  0  0
   51.1356    6.6333   18.9131 C   0  0  0  0  0  0  0  0  0  0  0  0
   52.4506    7.0997   18.9240 C   0  0  0  0  0  0  0  0  0  0  0  0
   55.1181    1.6054   17.8723 C   0  0  0  0  0  0  0  0  0  0  0  0
   54.8365    6.7575   18.7356 N   0  0  0  0  0  0  0  0  0  0  0  0
   49.5123    4.8304   18.7160 N   0  0  0  0  0  0  0  0  0  0  0  0
   52.5503    0.6775   17.8483 C   0  0  0  0  0  0  0  0  0  0  0  0
   47.1687    3.8011   17.3220 N   0  0  0  0  0  0  0  0  0  0  0  0
   54.6064    4.9854   21.3218 N   0  0  0  0  0  0  0  0  0  0  0  0
   53.6427   -0.1676   17.7772 C   0  0  0  0  0  0  0  0  0  0  0  0
   55.2680    7.1159   20.0975 C   0  0  0  0  0  0  0  0  0  0  0  0
   48.4008    5.7157   18.3652 C   0  0  0  0  0  0  0  0  0  0  0  0
   55.6971    5.8967   20.9503 C   0  0  0  0  0  0  0  0  0  0  0  0
   47.0875    4.9095   18.2776 C   0  0  0  0  0  0  0  0  0  0  0  0
   50.8312    4.2127   18.1689 C   0  0  0  0  0  0  0  0  0  0  0  0
   53.3019    3.9103   18.4011 C   0  0  0  0  0  0  0  0  0  0  0  0
   52.1076    3.5359   17.9228 C   0  0  0  0  0  0  0  0  0  0  0  0
   49.7610    3.6471   18.2948 O   0  0  0  0  0  0  0  0  0  0  0  0
   50.9308    5.5490   18.1170 O   0  0  0  0  0  0  0  0  0  0  0  0
   53.5482    5.0146   19.3326 C   0  0  0  0  0  0  0  0  0  0  0  0
   54.5276    5.7365   19.3069 O   0  0  0  0  0  0  0  0  0  0  0  0
   52.6384    5.0800   20.3158 O   0  0  0  0  0  0  0  0  0  0  0  0
   52.0580    4.3509   20.8995 H   0  0  0  0  0  0  0  0  0  0  0  0
   50.1401    4.6318   19.4121 H   0  0  0  0  0  0  0  0  0  0  0  0
   50.4121    4.4084   15.9920 H   0  0  0  0  0  0  0  0  0  0  0  0
   55.3006    4.7092   19.8122 H   0  0  0  0  0  0  0  0  0  0  0  0
   50.3512    7.3347   19.1823 H   0  0  0  0  0  0  0  0  0  0  0  0
   52.6393    8.1440   19.1625 H   0  0  0  0  0  0  0  0  0  0  0  0
   56.1595    1.9182   17.8710 H   0  0  0  0  0  0  0  0  0  0  0  0
   55.4883    6.0625   18.3388 H   0  0  0  0  0  0  0  0  0  0  0  0
   49.3954    3.9120   18.2524 H   0  0  0  0  0  0  0  0  0  0  0  0
   51.5409    0.2784   17.8297 H   0  0  0  0  0  0  0  0  0  0  0  0
   46.2587    3.3528   17.2345 H   0  0  0  0  0  0  0  0  0  0  0  0
   47.4238    4.1481   16.3991 H   0  0  0  0  0  0  0  0  0  0  0  0
   54.9477    4.3204   22.0144 H   0  0  0  0  0  0  0  0  0  0  0  0
   53.8579    5.5155   21.7674 H   0  0  0  0  0  0  0  0  0  0  0  0
   53.5168   -1.2446   17.7042 H   0  0  0  0  0  0  0  0  0  0  0  0
   56.1416    7.7702   19.9910 H   0  0  0  0  0  0  0  0  0  0  0  0
   54.5092    7.7060   20.6257 H   0  0  0  0  0  0  0  0  0  0  0  0
   48.2759    6.4937   19.1255 H   0  0  0  0  0  0  0  0  0  0  0  0
   48.5900    6.1981   17.3985 H   0  0  0  0  0  0  0  0  0  0  0  0
   56.4624    5.3229   20.4159 H   0  0  0  0  0  0  0  0  0  0  0  0
   56.1558    6.2699   21.8728 H   0  0  0  0  0  0  0  0  0  0  0  0
   46.8455    4.4973   19.2635 H   0  0  0  0  0  0  0  0  0  0  0  0
   46.2712    5.5799   17.9874 H   0  0  0  0  0  0  0  0  0  0  0  0
   54.1982    3.3807   18.0990 H   0  0  0  0  0  0  0  0  0  0  0  0
   52.0258    2.6566   17.2939 H   0  0  0  0  0  0  0  0  0  0  0  0
   50.0140    5.8582   18.2677 H   0  0  0  0  0  0  0  0  0  0  0  0
   52.9416    5.8316   20.8654 H   0  0  0  0  0  0  0  0  0  0  0  0
  1  3  1  0
  3  2  2  0
  4  1  2  0
  5  1  1  0
  2  6  1  0
  6  7  2  0
  6  8  1  0
 24 16  1  0
 25 14  1  0
 26 32  1  0
 27 31  1  0
 28 25  2  0
 29 23  1  0
 30 24  1  0
 31 29  1  0
 32 30  1  0
 16 20  2  0
 14 13  2  0
 19 28  1  0
 10  9  2  0
 11  9  1  0
 12 10  1  0
 13 11  1  0
 14 12  1  0
 15  9  1  0
 16 10  1  0
 17 11  2  0
 18 12  2  0
 19 22  2  0
 20 21  1  0
 21 15  2  0
 22 13  1  0
 23 15  1  0
 33 35  1  0
 35 34  2  0
 36 33  2  0
 37 33  1  0
 34 38  1  0
 38 39  2  0
 38 40  1  0
  2 41  1  0
  3 42  1  0
  5 43  1  0
  8 44  1  0
 20 45  1  0
 21 46  1  0
 22 47  1  0
 23 48  1  0
 24 49  1  0
 25 50  1  0
 26 51  1  0
 26 52  1  0
 27 53  1  0
 27 54  1  0
 28 55  1  0
 29 56  1  0
 29 57  1  0
 30 58  1  0
 30 59  1  0
 31 60  1  0
 31 61  1  0
 32 62  1  0
 32 63  1  0
 34 64  1  0
 35 65  1  0
 37 66  1  0
 40 67  1  0
M  END
> <Uni-Dock RESULT> 
ENERGY=   -4.034  LOWER_BOUND=    4.410  UPPER_BOUND=    6.804
INTER + INTRA:          -4.034
INTER:                  -4.034
INTRA:                   0.000
UNBOUND:                 0.000

$$$$

     RDKit          3D

 67 67  0  0  0  0  0  0  0  0999 V2000
   47.5372    8.4089   18.8899 C   0  0  0  0  0  0  0  0  0  0  0  0
   49.8074    7.8811   19.7172 C   0  0  0  0  0  0  0  0  0  0  0  0
   48.9159    8.7607   19.2438 C   0  0  0  0  0  0  0  0  0  0  0  0
   47.1464    7.3853   18.3672 O   0  0  0  0  0  0  0  0  0  0  0  0
   46.7197    9.4336   19.1752 O   0  0  0  0  0  0  0  0  0  0  0  0
   49.4727    6.5003   20.0804 C   0  0  0  0  0  0  0  0  0  0  0  0
   48.4575    6.1016   20.6137 O   0  0  0  0  0  0  0  0  0  0  0  0
   50.5033    5.6919   19.7901 O   0  0  0  0  0  0  0  0  0  0  0  0
   48.5147    6.5713   19.2816 C   0  0  0  0  0  0  0  0  0  0  0  0
   48.2942    7.9492   19.4786 C   0  0  0  0  0  0  0  0  0  0  0  0
   48.2123    5.6128   20.3797 C   0  0  0  0  0  0  0  0  0  0  0  0
   47.7433    8.4080   20.7842 C   0  0  0  0  0  0  0  0  0  0  0  0
   47.9018    6.1277   21.7129 C   0  0  0  0  0  0  0  0  0  0  0  0
   47.6767    7.4751   21.9185 C   0  0  0  0  0  0  0  0  0  0  0  0
   49.0507    6.1002   18.0627 C   0  0  0  0  0  0  0  0  0  0  0  0
   48.5733    8.8846   18.4487 C   0  0  0  0  0  0  0  0  0  0  0  0
   48.2090    4.3975   20.2025 O   0  0  0  0  0  0  0  0  0  0  0  0
   47.3207    9.5482   20.9464 O   0  0  0  0  0  0  0  0  0  0  0  0
   47.5064    5.6983   24.0564 N   0  0  0  0  0  0  0  0  0  0  0  0
   49.1081    8.3915   17.2506 C   0  0  0  0  0  0  0  0  0  0  0  0
   49.3326    7.0280   17.0572 C   0  0  0  0  0  0  0  0  0  0  0  0
   47.8033    5.2770   22.8022 C   0  0  0  0  0  0  0  0  0  0  0  0
   49.3638    4.7400   17.8378 N   0  0  0  0  0  0  0  0  0  0  0  0
   48.4734   10.2709   18.6611 N   0  0  0  0  0  0  0  0  0  0  0  0
   47.3598    7.9422   23.1960 C   0  0  0  0  0  0  0  0  0  0  0  0
   46.6932   12.5485   19.0328 N   0  0  0  0  0  0  0  0  0  0  0  0
   51.6255    5.6377   19.8280 N   0  0  0  0  0  0  0  0  0  0  0  0
   47.2897    7.0209   24.2250 C   0  0  0  0  0  0  0  0  0  0  0  0
   50.8027    4.4414   17.7381 C   0  0  0  0  0  0  0  0  0  0  0  0
   48.1324   11.1458   17.5384 C   0  0  0  0  0  0  0  0  0  0  0  0
   51.5131    4.3601   19.1115 C   0  0  0  0  0  0  0  0  0  0  0  0
   47.7836   12.5585   18.0534 C   0  0  0  0  0  0  0  0  0  0  0  0
   47.9933    9.0228   19.4561 C   0  0  0  0  0  0  0  0  0  0  0  0
   48.4533    6.7026   20.2653 C   0  0  0  0  0  0  0  0  0  0  0  0
   47.7960    7.8680   20.3366 C   0  0  0  0  0  0  0  0  0  0  0  0
   47.9164   10.1845   19.8106 O   0  0  0  0  0  0  0  0  0  0  0  0
   48.1461    8.6777   18.1693 O   0  0  0  0  0  0  0  0  0  0  0  0
   49.5559    6.3909   19.3515 C   0  0  0  0  0  0  0  0  0  0  0  0
   49.7439    5.3032   18.8391 O   0  0  0  0  0  0  0  0  0  0  0  0
   50.4307    7.3999   19.2269 O   0  0  0  0  0  0  0  0  0  0  0  0
   50.8348    8.1766   19.8922 H   0  0  0  0  0  0  0  0  0  0  0  0
   49.1991    9.7905   19.0618 H   0  0  0  0  0  0  0  0  0  0  0  0
   45.8345    9.0979   18.9210 H   0  0  0  0  0  0  0  0  0  0  0  0
   50.1787    4.8048   20.0518 H   0  0  0  0  0  0  0  0  0  0  0  0
   49.3865    9.0658   16.4459 H   0  0  0  0  0  0  0  0  0  0  0  0
   49.7387    6.6884   16.1071 H   0  0  0  0  0  0  0  0  0  0  0  0
   47.9631    4.2060   22.7029 H   0  0  0  0  0  0  0  0  0  0  0  0
   48.9460    4.1763   18.5947 H   0  0  0  0  0  0  0  0  0  0  0  0
   47.8721   10.4870   19.4757 H   0  0  0  0  0  0  0  0  0  0  0  0
   47.1715    8.9949   23.3831 H   0  0  0  0  0  0  0  0  0  0  0  0
   46.4411   13.5038   19.2791 H   0  0  0  0  0  0  0  0  0  0  0  0
   45.8642   12.1112   18.6343 H   0  0  0  0  0  0  0  0  0  0  0  0
   52.2486    5.5199   20.6256 H   0  0  0  0  0  0  0  0  0  0  0  0
   52.0567    6.3321   19.2183 H   0  0  0  0  0  0  0  0  0  0  0  0
   47.0486    7.3278   25.2393 H   0  0  0  0  0  0  0  0  0  0  0  0
   50.8897    3.4579   17.2608 H   0  0  0  0  0  0  0  0  0  0  0  0
   51.3226    5.1463   17.0779 H   0  0  0  0  0  0  0  0  0  0  0  0
   48.9782   11.2312   16.8482 H   0  0  0  0  0  0  0  0  0  0  0  0
   47.2725   10.7422   16.9899 H   0  0  0  0  0  0  0  0  0  0  0  0
   50.9902    3.6451   19.7563 H   0  0  0  0  0  0  0  0  0  0  0  0
   52.5251    3.9722   18.9499 H   0  0  0  0  0  0  0  0  0  0  0  0
   48.6666   13.0034   18.5254 H   0  0  0  0  0  0  0  0  0  0  0  0
   47.5040   13.1929   17.2052 H   0  0  0  0  0  0  0  0  0  0  0  0
   48.1798    5.8838   20.9209 H   0  0  0  0  0  0  0  0  0  0  0  0
   47.0417    8.0202   21.1002 H   0  0  0  0  0  0  0  0  0  0  0  0
   48.2367    9.5355   17.7060 H   0  0  0  0  0  0  0  0  0  0  0  0
   51.1133    7.0442   18.6216 H   0  0  0  0  0  0  0  0  0  0  0  0
  1  3  1  0
  3  2  2  0
  4  1  2  0
  5  1  1  0
  2  6  1  0
  6  7  2  0
  6  8  1  0
 24 16  1  0
 25 14  1  0
 26 32  1  0
 27 31  1  0
 28 25  2  0
 29 23  1  0
 30 24  1  0
 31 29  1  0
 32 30  1  0
 16 20  2  0
 14 13  2  0
 19 28  1  0
 10  9  2  0
 11  9  1  0
 12 10  1  0
 13 11  1  0
 14 12  1  0
 15  9  1  0
 16 10  1  0
 17 11  2  0
 18 12  2  0
 19 22  2  0
 20 21  1  0
 21 15  2  0
 22 13  1  0
 23 15  1  0
 33 35  1  0
 35 34  2  0
 36 33  2  0
 37 33  1  0
 34 38  1  0
 38 39  2  0
 38 40  1  0
  2 41  1  0
  3 42  1  0
  5 43  1  0
  8 44  1  0
 20 45  1  0
 21 46  1  0
 22 47  1  0
 23 48  1  0
 24 49  1  0
 25 50  1  0
 26 51  1  0
 26 52  1  0
 27 53  1  0
 27 54  1  0
 28 55  1  0
 29 56  1  0
 29 57  1  0
 30 58  1  0
 30 59  1  0
 31 60  1  0
 31 61  1  0
 32 62  1  0
 32 63  1  0
 34 64  1  0
 35 65  1  0
 37 66  1  0
 40 67  1  0
M  END
> <Uni-Dock RESULT> 
ENERGY=   -3.976  LOWER_BOUND=    1.606  UPPER_BOUND=    4.994
INTER + INTRA:          -3.976
INTER:                  -3.976
INTRA:                   0.000
UNBOUND:                 0.000

$$$$

     RDKit          3D

 67 67  0  0  0  0  0  0  0  0999 V2000
   44.3793   11.2576   10.2763 C   0  0  0  0  0  0  0  0  0  0  0  0
   45.2762   12.7668   12.0183 C   0  0  0  0  0  0  0  0  0  0  0  0
   44.2465   12.1285   11.4485 C   0  0  0  0  0  0  0  0  0  0  0  0
   45.1086   11.4135    9.3184 O   0  0  0  0  0  0  0  0  0  0  0  0
   43.5086   10.2409   10.3651 O   0  0  0  0  0  0  0  0  0  0  0  0
   46.6760   12.5553   11.6356 C   0  0  0  0  0  0  0  0  0  0  0  0
   47.2060   11.5096   11.3197 O   0  0  0  0  0  0  0  0  0  0  0  0
   47.3539   13.7085   11.7375 O   0  0  0  0  0  0  0  0  0  0  0  0
   46.2659   12.1908   10.5131 C   0  0  0  0  0  0  0  0  0  0  0  0
   45.0599   11.6445   10.9961 C   0  0  0  0  0  0  0  0  0  0  0  0
   47.5577   11.5277   10.8404 C   0  0  0  0  0  0  0  0  0  0  0  0
   45.1124   10.3990   11.8114 C   0  0  0  0  0  0  0  0  0  0  0  0
   47.5790   10.4535   11.8327 C   0  0  0  0  0  0  0  0  0  0  0  0
   46.4043    9.9045   12.3092 C   0  0  0  0  0  0  0  0  0  0  0  0
   46.2572   13.3794    9.7502 C   0  0  0  0  0  0  0  0  0  0  0  0
   43.8143   12.2559   10.6989 C   0  0  0  0  0  0  0  0  0  0  0  0
   48.6119   11.8495   10.2986 O   0  0  0  0  0  0  0  0  0  0  0  0
   44.1043    9.7507   12.0729 O   0  0  0  0  0  0  0  0  0  0  0  0
   48.8544    8.9393   13.2159 N   0  0  0  0  0  0  0  0  0  0  0  0
   43.8339   13.4364    9.9434 C   0  0  0  0  0  0  0  0  0  0  0  0
   45.0281   13.9813    9.4703 C   0  0  0  0  0  0  0  0  0  0  0  0
   48.7764    9.9419   12.3062 C   0  0  0  0  0  0  0  0  0  0  0  0
   47.4399   14.0134    9.3053 N   0  0  0  0  0  0  0  0  0  0  0  0
   42.6115   11.7984   11.2652 N   0  0  0  0  0  0  0  0  0  0  0  0
   46.4480    8.8643   13.2402 C   0  0  0  0  0  0  0  0  0  0  0  0
   40.5773    9.7112   11.2874 N   0  0  0  0  0  0  0  0  0  0  0  0
   47.4647   14.6171   12.3902 N   0  0  0  0  0  0  0  0  0  0  0  0
   47.6888    8.4219   13.6612 C   0  0  0  0  0  0  0  0  0  0  0  0
   47.7368   15.3017    9.9545 C   0  0  0  0  0  0  0  0  0  0  0  0
   41.3607   11.9637   10.5232 C   0  0  0  0  0  0  0  0  0  0  0  0
   48.3658   15.1537   11.3616 C   0  0  0  0  0  0  0  0  0  0  0  0
   40.2389   11.1334   11.1823 C   0  0  0  0  0  0  0  0  0  0  0  0
   44.0477   11.2086   11.1669 C   0  0  0  0  0  0  0  0  0  0  0  0
   46.5178   11.5823   11.2581 C   0  0  0  0  0  0  0  0  0  0  0  0
   45.4421   10.7864   11.3256 C   0  0  0  0  0  0  0  0  0  0  0  0
   43.1075   10.7350   11.7774 O   0  0  0  0  0  0  0  0  0  0  0  0
   43.8810   12.0966   10.1759 O   0  0  0  0  0  0  0  0  0  0  0  0
   46.5019   13.0394   11.1012 C   0  0  0  0  0  0  0  0  0  0  0  0
   47.3181   13.6756   10.4608 O   0  0  0  0  0  0  0  0  0  0  0  0
   45.5589   13.6337   11.8470 O   0  0  0  0  0  0  0  0  0  0  0  0
   45.1127   13.4577   12.8365 H   0  0  0  0  0  0  0  0  0  0  0  0
   43.2380   12.2656   11.8196 H   0  0  0  0  0  0  0  0  0  0  0  0
   43.6850    9.7170    9.5556 H   0  0  0  0  0  0  0  0  0  0  0  0
   48.2595   13.4675   11.4501 H   0  0  0  0  0  0  0  0  0  0  0  0
   42.9154   13.9741    9.7267 H   0  0  0  0  0  0  0  0  0  0  0  0
   44.9954   14.8930    8.8780 H   0  0  0  0  0  0  0  0  0  0  0  0
   49.7338   10.3278   11.9645 H   0  0  0  0  0  0  0  0  0  0  0  0
   48.2323   13.3666    9.4434 H   0  0  0  0  0  0  0  0  0  0  0  0
   42.6984   10.8236   11.6029 H   0  0  0  0  0  0  0  0  0  0  0  0
   45.5398    8.4108   13.6252 H   0  0  0  0  0  0  0  0  0  0  0  0
   39.7791    9.1917   11.6475 H   0  0  0  0  0  0  0  0  0  0  0  0
   40.7947    9.3307   10.3680 H   0  0  0  0  0  0  0  0  0  0  0  0
   47.9038   14.7167   13.3043 H   0  0  0  0  0  0  0  0  0  0  0  0
   46.6084   15.1704   12.4137 H   0  0  0  0  0  0  0  0  0  0  0  0
   47.7830    7.6166   14.3849 H   0  0  0  0  0  0  0  0  0  0  0  0
   48.4661   15.8167    9.3175 H   0  0  0  0  0  0  0  0  0  0  0  0
   46.8552   15.9531    9.9945 H   0  0  0  0  0  0  0  0  0  0  0  0
   41.0532   13.0146   10.5197 H   0  0  0  0  0  0  0  0  0  0  0  0
   41.4884   11.6330    9.4851 H   0  0  0  0  0  0  0  0  0  0  0  0
   49.2508   14.5102   11.3050 H   0  0  0  0  0  0  0  0  0  0  0  0
   48.7040   16.1429   11.6901 H   0  0  0  0  0  0  0  0  0  0  0  0
   40.0449   11.5167   12.1902 H   0  0  0  0  0  0  0  0  0  0  0  0
   39.3176   11.2453   10.6002 H   0  0  0  0  0  0  0  0  0  0  0  0
   47.5130   11.1566   11.3175 H   0  0  0  0  0  0  0  0  0  0  0  0
   45.5622    9.7259   11.5161 H   0  0  0  0  0  0  0  0  0  0  0  0
   42.9158   12.2609   10.1686 H   0  0  0  0  0  0  0  0  0  0  0  0
   45.6841   14.5877   11.6657 H   0  0  0  0  0  0  0  0  0  0  0  0
  1  3  1  0
  3  2  2  0
  4  1  2  0
  5  1  1  0
  2  6  1  0
  6  7  2  0
  6  8  1  0
 24 16  1  0
 25 14  1  0
 26 32  1  0
 27 31  1  0
 28 25  2  0
 29 23  1  0
 30 24  1  0
 31 29  1  0
 32 30  1  0
 16 20  2  0
 14 13  2  0
 19 28  1  0
 10  9  2  0
 11  9  1  0
 12 10  1  0
 13 11  1  0
 14 12  1  0
 15  9  1  0
 16 10  1  0
 17 11  2  0
 18 12  2  0
 19 22  2  0
 20 21  1  0
 21 15  2  0
 22 13  1  0
 23 15  1  0
 33 35  1  0
 35 34  2  0
 36 33  2  0
 37 33  1  0
 34 38  1  0
 38 39  2  0
 38 40  1  0
  2 41  1  0
  3 42  1  0
  5 43  1  0
  8 44  1  0
 20 45  1  0
 21 46  1  0
 22 47  1  0
 23 48  1  0
 24 49  1  0
 25 50  1  0
 26 51  1  0
 26 52  1  0
 27 53  1  0
 27 54  1  0
 28 55  1  0
 29 56  1  0
 29 57  1  0
 30 58  1  0
 30 59  1  0
 31 60  1  0
 31 61  1  0
 32 62  1  0
 32 63  1  0
 34 64  1  0
 35 65  1  0
 37 66  1  0
 40 67  1  0
M  END
> <Uni-Dock RESULT> 
ENERGY=   -3.960  LOWER_BOUND=    7.905  UPPER_BOUND=   11.293
INTER + INTRA:          -3.960
INTER:                  -3.960
INTRA:                   0.000
UNBOUND:                 0.000

$$$$
