
     RDKit          3D

 67 67  0  0  0  0  0  0  0  0999 V2000
   45.7111    6.2901   12.7702 C   0  0  0  0  0  0  0  0  0  0  0  0
   46.7955    8.4433   12.1799 C   0  0  0  0  0  0  0  0  0  0  0  0
   45.8097    7.5498   12.0213 C   0  0  0  0  0  0  0  0  0  0  0  0
   46.5988    5.6746   13.3248 O   0  0  0  0  0  0  0  0  0  0  0  0
   44.4457    5.8430   12.7334 O   0  0  0  0  0  0  0  0  0  0  0  0
   47.8573    8.3451   13.1841 C   0  0  0  0  0  0  0  0  0  0  0  0
   49.0418    8.5141   12.9665 O   0  0  0  0  0  0  0  0  0  0  0  0
   47.3628    8.1682   14.4178 O   0  0  0  0  0  0  0  0  0  0  0  0
   45.7852    7.3276   12.3610 C   0  0  0  0  0  0  0  0  0  0  0  0
   46.7126    8.2002   12.9675 C   0  0  0  0  0  0  0  0  0  0  0  0
   44.6394    7.8988   11.5977 C   0  0  0  0  0  0  0  0  0  0  0  0
   46.6009    9.6686   12.7268 C   0  0  0  0  0  0  0  0  0  0  0  0
   44.5494    9.3443   11.3913 C   0  0  0  0  0  0  0  0  0  0  0  0
   45.4853   10.2036   11.9336 C   0  0  0  0  0  0  0  0  0  0  0  0
   45.9019    5.9221   12.5134 C   0  0  0  0  0  0  0  0  0  0  0  0
   47.7755    7.6916   13.7571 C   0  0  0  0  0  0  0  0  0  0  0  0
   43.7400    7.1889   11.1562 O   0  0  0  0  0  0  0  0  0  0  0  0
   47.4411   10.4566   13.1537 O   0  0  0  0  0  0  0  0  0  0  0  0
   43.3760   11.2238   10.4286 N   0  0  0  0  0  0  0  0  0  0  0  0
   47.8640    6.3043   13.9116 C   0  0  0  0  0  0  0  0  0  0  0  0
   46.9670    5.4393   13.2802 C   0  0  0  0  0  0  0  0  0  0  0  0
   43.5145    9.8938   10.6500 C   0  0  0  0  0  0  0  0  0  0  0  0
   45.0649    5.0320   11.8132 N   0  0  0  0  0  0  0  0  0  0  0  0
   48.6361    8.5457   14.4760 N   0  0  0  0  0  0  0  0  0  0  0  0
   45.3717   11.5805   11.7232 C   0  0  0  0  0  0  0  0  0  0  0  0
   52.2513    8.9796   15.4618 N   0  0  0  0  0  0  0  0  0  0  0  0
   43.1794    1.7739   12.1728 N   0  0  0  0  0  0  0  0  0  0  0  0
   44.3070   12.0380   10.9690 C   0  0  0  0  0  0  0  0  0  0  0  0
   44.6873    3.7677   12.4447 C   0  0  0  0  0  0  0  0  0  0  0  0
   50.0413    8.1574   14.6280 C   0  0  0  0  0  0  0  0  0  0  0  0
   43.5999    3.0594   11.6095 C   0  0  0  0  0  0  0  0  0  0  0  0
   50.8468    9.3257   15.2313 C   0  0  0  0  0  0  0  0  0  0  0  0
   47.7939    7.8942   13.1000 C   0  0  0  0  0  0  0  0  0  0  0  0
   45.3407    7.8996   12.7222 C   0  0  0  0  0  0  0  0  0  0  0  0
   46.4580    8.5027   13.1490 C   0  0  0  0  0  0  0  0  0  0  0  0
   48.1823    6.9903   12.3884 O   0  0  0  0  0  0  0  0  0  0  0  0
   48.6059    8.5234   13.9645 O   0  0  0  0  0  0  0  0  0  0  0  0
   45.2710    6.5202   12.2353 C   0  0  0  0  0  0  0  0  0  0  0  0
   44.7078    6.1671   11.2170 O   0  0  0  0  0  0  0  0  0  0  0  0
   45.7995    5.6542   13.1116 O   0  0  0  0  0  0  0  0  0  0  0  0
   46.8657    9.3094   11.5331 H   0  0  0  0  0  0  0  0  0  0  0  0
   45.0419    7.7144   11.2742 H   0  0  0  0  0  0  0  0  0  0  0  0
   44.4795    5.0113   13.2507 H   0  0  0  0  0  0  0  0  0  0  0  0
   48.1575    8.0812   14.9829 H   0  0  0  0  0  0  0  0  0  0  0  0
   48.6374    5.8617   14.5336 H   0  0  0  0  0  0  0  0  0  0  0  0
   47.1292    4.3717   13.4005 H   0  0  0  0  0  0  0  0  0  0  0  0
   42.7443    9.2725   10.1983 H   0  0  0  0  0  0  0  0  0  0  0  0
   44.2447    5.5370   11.4441 H   0  0  0  0  0  0  0  0  0  0  0  0
   48.5478    9.5077   14.1143 H   0  0  0  0  0  0  0  0  0  0  0  0
   46.0928   12.2797   12.1352 H   0  0  0  0  0  0  0  0  0  0  0  0
   52.7305    9.7918   15.8507 H   0  0  0  0  0  0  0  0  0  0  0  0
   52.3068    8.2550   16.1774 H   0  0  0  0  0  0  0  0  0  0  0  0
   42.8401    1.9085   13.1246 H   0  0  0  0  0  0  0  0  0  0  0  0
   43.9825    1.1495   12.2378 H   0  0  0  0  0  0  0  0  0  0  0  0
   44.1692   13.0981   10.7734 H   0  0  0  0  0  0  0  0  0  0  0  0
   44.3041    3.9515   13.4561 H   0  0  0  0  0  0  0  0  0  0  0  0
   45.5566    3.1044   12.5169 H   0  0  0  0  0  0  0  0  0  0  0  0
   50.4679    7.8856   13.6542 H   0  0  0  0  0  0  0  0  0  0  0  0
   50.1236    7.2942   15.2982 H   0  0  0  0  0  0  0  0  0  0  0  0
   42.7197    3.7071   11.5240 H   0  0  0  0  0  0  0  0  0  0  0  0
   43.9668    2.8933   10.5900 H   0  0  0  0  0  0  0  0  0  0  0  0
   50.8027   10.1871   14.5552 H   0  0  0  0  0  0  0  0  0  0  0  0
   50.3947    9.6388   16.1796 H   0  0  0  0  0  0  0  0  0  0  0  0
   44.3985    8.4331   12.6995 H   0  0  0  0  0  0  0  0  0  0  0  0
   46.4174    9.5184   13.5249 H   0  0  0  0  0  0  0  0  0  0  0  0
   49.4608    8.0534   13.8650 H   0  0  0  0  0  0  0  0  0  0  0  0
   45.7316    4.7877   12.6613 H   0  0  0  0  0  0  0  0  0  0  0  0
  1  3  1  0
  3  2  2  0
  4  1  2  0
  5  1  1  0
  2  6  1  0
  6  7  2  0
  6  8  1  0
 24 16  1  0
 25 14  1  0
 26 32  1  0
 27 31  1  0
 28 25  2  0
 29 23  1  0
 30 24  1  0
 31 29  1  0
 32 30  1  0
 16 20  2  0
 14 13  2  0
 19 28  1  0
 10  9  2  0
 11  9  1  0
 12 10  1  0
 13 11  1  0
 14 12  1  0
 15  9  1  0
 16 10  1  0
 17 11  2  0
 18 12  2  0
 19 22  2  0
 20 21  1  0
 21 15  2  0
 22 13  1  0
 23 15  1  0
 33 35  1  0
 35 34  2  0
 36 33  2  0
 37 33  1  0
 34 38  1  0
 38 39  2  0
 38 40  1  0
  2 41  1  0
  3 42  1  0
  5 43  1  0
  8 44  1  0
 20 45  1  0
 21 46  1  0
 22 47  1  0
 23 48  1  0
 24 49  1  0
 25 50  1  0
 26 51  1  0
 26 52  1  0
 27 53  1  0
 27 54  1  0
 28 55  1  0
 29 56  1  0
 29 57  1  0
 30 58  1  0
 30 59  1  0
 31 60  1  0
 31 61  1  0
 32 62  1  0
 32 63  1  0
 34 64  1  0
 35 65  1  0
 37 66  1  0
 40 67  1  0
M  END
> <Uni-Dock RESULT> 
ENERGY=   -6.728  LOWER_BOUND=    0.000  UPPER_BOUND=    0.000
INTER + INTRA:          -6.728
INTER:                  -6.728
INTRA:                   0.000
UNBOUND:                 0.000

$$$$

     RDKit          3D

 67 67  0  0  0  0  0  0  0  0999 V2000
   47.6466    7.3638   13.2198 C   0  0  0  0  0  0  0  0  0  0  0  0
   45.2135    7.4288   12.7342 C   0  0  0  0  0  0  0  0  0  0  0  0
   46.3601    8.0498   13.0421 C   0  0  0  0  0  0  0  0  0  0  0  0
   47.8444    6.1975   13.4938 O   0  0  0  0  0  0  0  0  0  0  0  0
   48.6495    8.2448   13.0762 O   0  0  0  0  0  0  0  0  0  0  0  0
   45.0925    6.0003   12.4339 C   0  0  0  0  0  0  0  0  0  0  0  0
   44.2494    5.2579   12.8999 O   0  0  0  0  0  0  0  0  0  0  0  0
   45.9495    5.6171   11.4766 O   0  0  0  0  0  0  0  0  0  0  0  0
   46.6680    7.8134   12.9210 C   0  0  0  0  0  0  0  0  0  0  0  0
   45.7348    6.9711   12.2813 C   0  0  0  0  0  0  0  0  0  0  0  0
   46.5645    9.2886   12.7351 C   0  0  0  0  0  0  0  0  0  0  0  0
   44.5911    7.5771   11.5387 C   0  0  0  0  0  0  0  0  0  0  0  0
   45.4393    9.8521   11.9889 C   0  0  0  0  0  0  0  0  0  0  0  0
   44.4878    9.0373   11.4065 C   0  0  0  0  0  0  0  0  0  0  0  0
   47.7284    7.2712   13.6915 C   0  0  0  0  0  0  0  0  0  0  0  0
   45.8449    5.5606   12.3820 C   0  0  0  0  0  0  0  0  0  0  0  0
   47.4204   10.0553   13.1678 O   0  0  0  0  0  0  0  0  0  0  0  0
   43.7021    6.8849   11.0495 O   0  0  0  0  0  0  0  0  0  0  0  0
   44.2840   11.8032   11.1554 N   0  0  0  0  0  0  0  0  0  0  0  0
   46.9074    5.0436   13.1305 C   0  0  0  0  0  0  0  0  0  0  0  0
   47.8093    5.8789   13.7940 C   0  0  0  0  0  0  0  0  0  0  0  0
   45.3011   11.2235   11.8384 C   0  0  0  0  0  0  0  0  0  0  0  0
   48.5917    8.0938   14.4406 N   0  0  0  0  0  0  0  0  0  0  0  0
   45.0032    4.6996   11.6492 N   0  0  0  0  0  0  0  0  0  0  0  0
   43.4259    9.6034   10.6961 C   0  0  0  0  0  0  0  0  0  0  0  0
   43.1050    1.4516   11.9271 N   0  0  0  0  0  0  0  0  0  0  0  0
   52.2063    8.4947   15.4767 N   0  0  0  0  0  0  0  0  0  0  0  0
   43.3686   10.9815   10.5997 C   0  0  0  0  0  0  0  0  0  0  0  0
   49.9874    7.6900   14.6094 C   0  0  0  0  0  0  0  0  0  0  0  0
   44.6021    3.4277   12.2574 C   0  0  0  0  0  0  0  0  0  0  0  0
   50.7967    8.8313   15.2607 C   0  0  0  0  0  0  0  0  0  0  0  0
   43.5086    2.7577   11.4011 C   0  0  0  0  0  0  0  0  0  0  0  0
   45.4373    5.9815   12.7425 C   0  0  0  0  0  0  0  0  0  0  0  0
   46.6060    8.0935   12.1640 C   0  0  0  0  0  0  0  0  0  0  0  0
   45.7089    7.1399   11.8812 C   0  0  0  0  0  0  0  0  0  0  0  0
   45.6508    5.8629   13.9318 O   0  0  0  0  0  0  0  0  0  0  0  0
   44.8464    5.0150   12.0219 O   0  0  0  0  0  0  0  0  0  0  0  0
   47.5091    8.0741   13.3168 C   0  0  0  0  0  0  0  0  0  0  0  0
   47.7002    9.0098   14.0695 O   0  0  0  0  0  0  0  0  0  0  0  0
   48.2086    6.9324   13.3837 O   0  0  0  0  0  0  0  0  0  0  0  0
   44.2786    7.9754   12.7083 H   0  0  0  0  0  0  0  0  0  0  0  0
   46.3688    9.1192   13.2184 H   0  0  0  0  0  0  0  0  0  0  0  0
   49.4545    7.7023   13.2111 H   0  0  0  0  0  0  0  0  0  0  0  0
   45.8000    4.6531   11.3948 H   0  0  0  0  0  0  0  0  0  0  0  0
   47.0602    3.9709   13.2128 H   0  0  0  0  0  0  0  0  0  0  0  0
   48.5771    5.4077   14.4015 H   0  0  0  0  0  0  0  0  0  0  0  0
   46.0169   11.9194   12.2702 H   0  0  0  0  0  0  0  0  0  0  0  0
   48.5105    9.0715   14.1219 H   0  0  0  0  0  0  0  0  0  0  0  0
   44.1863    5.2271   11.3049 H   0  0  0  0  0  0  0  0  0  0  0  0
   42.6625    8.9886   10.2295 H   0  0  0  0  0  0  0  0  0  0  0  0
   42.3768    1.0658   11.3259 H   0  0  0  0  0  0  0  0  0  0  0  0
   43.8908    0.8046   11.8621 H   0  0  0  0  0  0  0  0  0  0  0  0
   52.6392    8.2367   14.5907 H   0  0  0  0  0  0  0  0  0  0  0  0
   52.2742    7.6765   16.0808 H   0  0  0  0  0  0  0  0  0  0  0  0
   42.5655   11.4758   10.0596 H   0  0  0  0  0  0  0  0  0  0  0  0
   50.4287    7.4438   13.6355 H   0  0  0  0  0  0  0  0  0  0  0  0
   50.0522    6.8065   15.2544 H   0  0  0  0  0  0  0  0  0  0  0  0
   44.2183    3.5958   13.2716 H   0  0  0  0  0  0  0  0  0  0  0  0
   45.4618    2.7506   12.3173 H   0  0  0  0  0  0  0  0  0  0  0  0
   50.7447    9.7269   14.6309 H   0  0  0  0  0  0  0  0  0  0  0  0
   50.3477    9.0993   16.2242 H   0  0  0  0  0  0  0  0  0  0  0  0
   42.6277    3.4082   11.3597 H   0  0  0  0  0  0  0  0  0  0  0  0
   43.8652    2.6348   10.3719 H   0  0  0  0  0  0  0  0  0  0  0  0
   46.6972    8.9708   11.5356 H   0  0  0  0  0  0  0  0  0  0  0  0
   45.0997    7.2149   10.9879 H   0  0  0  0  0  0  0  0  0  0  0  0
   44.7084    4.2926   12.6705 H   0  0  0  0  0  0  0  0  0  0  0  0
   48.7350    7.0228   14.2040 H   0  0  0  0  0  0  0  0  0  0  0  0
  1  3  1  0
  3  2  2  0
  4  1  2  0
  5  1  1  0
  2  6  1  0
  6  7  2  0
  6  8  1  0
 24 16  1  0
 25 14  1  0
 26 32  1  0
 27 31  1  0
 28 25  2  0
 29 23  1  0
 30 24  1  0
 31 29  1  0
 32 30  1  0
 16 20  2  0
 14 13  2  0
 19 28  1  0
 10  9  2  0
 11  9  1  0
 12 10  1  0
 13 11  1  0
 14 12  1  0
 15  9  1  0
 16 10  1  0
 17 11  2  0
 18 12  2  0
 19 22  2  0
 20 21  1  0
 21 15  2  0
 22 13  1  0
 23 15  1  0
 33 35  1  0
 35 34  2  0
 36 33  2  0
 37 33  1  0
 34 38  1  0
 38 39  2  0
 38 40  1  0
  2 41  1  0
  3 42  1  0
  5 43  1  0
  8 44  1  0
 20 45  1  0
 21 46  1  0
 22 47  1  0
 23 48  1  0
 24 49  1  0
 25 50  1  0
 26 51  1  0
 26 52  1  0
 27 53  1  0
 27 54  1  0
 28 55  1  0
 29 56  1  0
 29 57  1  0
 30 58  1  0
 30 59  1  0
 31 60  1  0
 31 61  1  0
 32 62  1  0
 32 63  1  0
 34 64  1  0
 35 65  1  0
 37 66  1  0
 40 67  1  0
M  END
> <Uni-Dock RESULT> 
ENERGY=   -6.587  LOWER_BOUND=    0.644  UPPER_BOUND=    4.975
INTER + INTRA:          -6.587
INTER:                  -6.587
INTRA:                   0.000
UNBOUND:                 0.000

$$$$

     RDKit          3D

 67 67  0  0  0  0  0  0  0  0999 V2000
   44.9441    9.2997   11.9660 C   0  0  0  0  0  0  0  0  0  0  0  0
   46.4803    7.3695   12.2389 C   0  0  0  0  0  0  0  0  0  0  0  0
   46.2629    8.6904   12.1821 C   0  0  0  0  0  0  0  0  0  0  0  0
   43.9624    8.8032   11.4520 O   0  0  0  0  0  0  0  0  0  0  0  0
   44.9612   10.5722   12.3938 O   0  0  0  0  0  0  0  0  0  0  0  0
   45.4313    6.3482   12.1941 C   0  0  0  0  0  0  0  0  0  0  0  0
   45.4576    5.3504   11.4993 O   0  0  0  0  0  0  0  0  0  0  0  0
   44.4780    6.5714   13.1102 O   0  0  0  0  0  0  0  0  0  0  0  0
   45.8723    8.7578   12.2726 C   0  0  0  0  0  0  0  0  0  0  0  0
   45.7449    7.3965   12.6194 C   0  0  0  0  0  0  0  0  0  0  0  0
   47.0404    9.5323   12.7799 C   0  0  0  0  0  0  0  0  0  0  0  0
   46.8432    6.7290   13.3776 C   0  0  0  0  0  0  0  0  0  0  0  0
   48.0940    8.8524   13.5335 C   0  0  0  0  0  0  0  0  0  0  0  0
   48.0062    7.5059   13.8294 C   0  0  0  0  0  0  0  0  0  0  0  0
   44.8789    9.4061   11.4946 C   0  0  0  0  0  0  0  0  0  0  0  0
   44.6116    6.6484   12.2101 C   0  0  0  0  0  0  0  0  0  0  0  0
   47.1339   10.7448   12.6098 O   0  0  0  0  0  0  0  0  0  0  0  0
   46.8205    5.5243   13.6166 O   0  0  0  0  0  0  0  0  0  0  0  0
   50.2143    8.9711   14.6852 N   0  0  0  0  0  0  0  0  0  0  0  0
   43.6335    7.3088   11.4594 C   0  0  0  0  0  0  0  0  0  0  0  0
   43.7783    8.6468   11.0851 C   0  0  0  0  0  0  0  0  0  0  0  0
   49.2092    9.5449   13.9797 C   0  0  0  0  0  0  0  0  0  0  0  0
   45.0490   10.7249   11.0311 N   0  0  0  0  0  0  0  0  0  0  0  0
   44.4005    5.3263   12.6510 N   0  0  0  0  0  0  0  0  0  0  0  0
   49.0261    6.8837   14.5544 C   0  0  0  0  0  0  0  0  0  0  0  0
   43.1636    1.9621   11.4755 N   0  0  0  0  0  0  0  0  0  0  0  0
   43.1846   13.9601   10.4339 N   0  0  0  0  0  0  0  0  0  0  0  0
   50.1016    7.6537   14.9569 C   0  0  0  0  0  0  0  0  0  0  0  0
   43.8749   11.5870   10.8976 C   0  0  0  0  0  0  0  0  0  0  0  0
   43.7596    4.3770   11.7364 C   0  0  0  0  0  0  0  0  0  0  0  0
   44.3104   13.0367   10.5967 C   0  0  0  0  0  0  0  0  0  0  0  0
   43.8391    2.9514   12.3184 C   0  0  0  0  0  0  0  0  0  0  0  0
   45.2355    6.6667   11.9208 C   0  0  0  0  0  0  0  0  0  0  0  0
   46.0330    8.7198   13.0651 C   0  0  0  0  0  0  0  0  0  0  0  0
   45.8413    7.3943   13.0437 C   0  0  0  0  0  0  0  0  0  0  0  0
   45.1543    7.0102   10.7591 O   0  0  0  0  0  0  0  0  0  0  0  0
   44.7861    5.4757   12.3477 O   0  0  0  0  0  0  0  0  0  0  0  0
   45.5849    9.6447   12.0217 C   0  0  0  0  0  0  0  0  0  0  0  0
   46.2687   10.5171   11.5217 O   0  0  0  0  0  0  0  0  0  0  0  0
   44.2780    9.5043   11.7579 O   0  0  0  0  0  0  0  0  0  0  0  0
   47.4880    6.9777   12.3068 H   0  0  0  0  0  0  0  0  0  0  0  0
   47.0944    9.3818   12.2555 H   0  0  0  0  0  0  0  0  0  0  0  0
   44.0525   10.8900   12.2098 H   0  0  0  0  0  0  0  0  0  0  0  0
   43.8278    5.8557   12.9568 H   0  0  0  0  0  0  0  0  0  0  0  0
   42.7285    6.7940   11.1486 H   0  0  0  0  0  0  0  0  0  0  0  0
   43.0052    9.0791   10.4559 H   0  0  0  0  0  0  0  0  0  0  0  0
   49.3378   10.6068   13.7821 H   0  0  0  0  0  0  0  0  0  0  0  0
   45.8074   11.1872   11.5558 H   0  0  0  0  0  0  0  0  0  0  0  0
   45.2798    4.9461   13.0336 H   0  0  0  0  0  0  0  0  0  0  0  0
   48.9854    5.8270   14.8000 H   0  0  0  0  0  0  0  0  0  0  0  0
   43.2588    1.0426   11.9069 H   0  0  0  0  0  0  0  0  0  0  0  0
   42.1630    2.1595   11.4599 H   0  0  0  0  0  0  0  0  0  0  0  0
   42.6048   13.9488   11.2722 H   0  0  0  0  0  0  0  0  0  0  0  0
   42.5910   13.6446    9.6676 H   0  0  0  0  0  0  0  0  0  0  0  0
   50.9230    7.2226   15.5229 H   0  0  0  0  0  0  0  0  0  0  0  0
   43.2882   11.5707   11.8245 H   0  0  0  0  0  0  0  0  0  0  0  0
   43.2386   11.2381   10.0764 H   0  0  0  0  0  0  0  0  0  0  0  0
   44.2552    4.3988   10.7576 H   0  0  0  0  0  0  0  0  0  0  0  0
   42.7043    4.6394   11.5992 H   0  0  0  0  0  0  0  0  0  0  0  0
   44.9497   13.4059   11.4070 H   0  0  0  0  0  0  0  0  0  0  0  0
   44.9175   13.0582    9.6841 H   0  0  0  0  0  0  0  0  0  0  0  0
   44.8898    2.6605   12.4297 H   0  0  0  0  0  0  0  0  0  0  0  0
   43.3934    2.9329   13.3198 H   0  0  0  0  0  0  0  0  0  0  0  0
   46.5676    9.1881   13.8823 H   0  0  0  0  0  0  0  0  0  0  0  0
   46.1768    6.7834   13.8737 H   0  0  0  0  0  0  0  0  0  0  0  0
   44.4019    5.0696   11.5421 H   0  0  0  0  0  0  0  0  0  0  0  0
   44.1124   10.1364   11.0292 H   0  0  0  0  0  0  0  0  0  0  0  0
  1  3  1  0
  3  2  2  0
  4  1  2  0
  5  1  1  0
  2  6  1  0
  6  7  2  0
  6  8  1  0
 24 16  1  0
 25 14  1  0
 26 32  1  0
 27 31  1  0
 28 25  2  0
 29 23  1  0
 30 24  1  0
 31 29  1  0
 32 30  1  0
 16 20  2  0
 14 13  2  0
 19 28  1  0
 10  9  2  0
 11  9  1  0
 12 10  1  0
 13 11  1  0
 14 12  1  0
 15  9  1  0
 16 10  1  0
 17 11  2  0
 18 12  2  0
 19 22  2  0
 20 21  1  0
 21 15  2  0
 22 13  1  0
 23 15  1  0
 33 35  1  0
 35 34  2  0
 36 33  2  0
 37 33  1  0
 34 38  1  0
 38 39  2  0
 38 40  1  0
  2 41  1  0
  3 42  1  0
  5 43  1  0
  8 44  1  0
 20 45  1  0
 21 46  1  0
 22 47  1  0
 23 48  1  0
 24 49  1  0
 25 50  1  0
 26 51  1  0
 26 52  1  0
 27 53  1  0
 27 54  1  0
 28 55  1  0
 29 56  1  0
 29 57  1  0
 30 58  1  0
 30 59  1  0
 31 60  1  0
 31 61  1  0
 32 62  1  0
 32 63  1  0
 34 64  1  0
 35 65  1  0
 37 66  1  0
 40 67  1  0
M  END
> <Uni-Dock RESULT> 
ENERGY=   -6.541  LOWER_BOUND=    1.322  UPPER_BOUND=    5.717
INTER + INTRA:          -6.541
INTER:                  -6.541
INTRA:                   0.000
UNBOUND:                 0.000

$$$$

     RDKit          3D

 67 67  0  0  0  0  0  0  0  0999 V2000
   44.9145    8.9755   11.4388 C   0  0  0  0  0  0  0  0  0  0  0  0
   45.6265    7.1338   12.9427 C   0  0  0  0  0  0  0  0  0  0  0  0
   44.7161    7.6995   12.1386 C   0  0  0  0  0  0  0  0  0  0  0  0
   45.6786    9.8760   11.7210 O   0  0  0  0  0  0  0  0  0  0  0  0
   44.0647    9.0568   10.4025 O   0  0  0  0  0  0  0  0  0  0  0  0
   46.9800    7.6484   13.1630 C   0  0  0  0  0  0  0  0  0  0  0  0
   47.5099    7.7762   14.2502 O   0  0  0  0  0  0  0  0  0  0  0  0
   47.6312    7.8508   12.0086 O   0  0  0  0  0  0  0  0  0  0  0  0
   44.9107    7.9507   11.8850 C   0  0  0  0  0  0  0  0  0  0  0  0
   46.1363    7.4497   12.3712 C   0  0  0  0  0  0  0  0  0  0  0  0
   43.8273    6.9949   11.5186 C   0  0  0  0  0  0  0  0  0  0  0  0
   46.2779    5.9868   12.6289 C   0  0  0  0  0  0  0  0  0  0  0  0
   44.0018    5.5643   11.7697 C   0  0  0  0  0  0  0  0  0  0  0  0
   45.1778    5.0695   12.2994 C   0  0  0  0  0  0  0  0  0  0  0  0
   44.7192    9.3431   11.6928 C   0  0  0  0  0  0  0  0  0  0  0  0
   47.2114    8.3271   12.6650 C   0  0  0  0  0  0  0  0  0  0  0  0
   42.7909    7.3705   10.9777 O   0  0  0  0  0  0  0  0  0  0  0  0
   47.2908    5.5188   13.1427 O   0  0  0  0  0  0  0  0  0  0  0  0
   43.0961    3.3264   11.6806 N   0  0  0  0  0  0  0  0  0  0  0  0
   47.0107    9.6948   12.4519 C   0  0  0  0  0  0  0  0  0  0  0  0
   45.7845   10.1933   12.0056 C   0  0  0  0  0  0  0  0  0  0  0  0
   42.9913    4.6620   11.4746 C   0  0  0  0  0  0  0  0  0  0  0  0
   43.4653    9.8724   11.3317 N   0  0  0  0  0  0  0  0  0  0  0  0
   48.4835    7.8410   13.0287 N   0  0  0  0  0  0  0  0  0  0  0  0
   45.3177    3.6975   12.5249 C   0  0  0  0  0  0  0  0  0  0  0  0
   51.3796    8.5319   15.3450 N   0  0  0  0  0  0  0  0  0  0  0  0
   41.8317   12.5214    9.1836 N   0  0  0  0  0  0  0  0  0  0  0  0
   44.2559    2.8731   12.2014 C   0  0  0  0  0  0  0  0  0  0  0  0
   43.4153   11.0619   10.4818 C   0  0  0  0  0  0  0  0  0  0  0  0
   49.2778    8.6094   13.9914 C   0  0  0  0  0  0  0  0  0  0  0  0
   41.9649   11.3323   10.0292 C   0  0  0  0  0  0  0  0  0  0  0  0
   50.5125    7.7933   14.4241 C   0  0  0  0  0  0  0  0  0  0  0  0
   46.7578    8.0501   13.1018 C   0  0  0  0  0  0  0  0  0  0  0  0
   45.1025    7.3345   11.3963 C   0  0  0  0  0  0  0  0  0  0  0  0
   46.2193    7.1173   12.1031 C   0  0  0  0  0  0  0  0  0  0  0  0
   46.1700    8.9203   13.7111 O   0  0  0  0  0  0  0  0  0  0  0  0
   48.0576    7.7850   13.3088 O   0  0  0  0  0  0  0  0  0  0  0  0
   44.3106    8.5655   11.4446 C   0  0  0  0  0  0  0  0  0  0  0  0
   43.1014    8.6134   11.5638 O   0  0  0  0  0  0  0  0  0  0  0  0
   45.0623    9.6519   11.2163 O   0  0  0  0  0  0  0  0  0  0  0  0
   45.3874    6.2393   13.5050 H   0  0  0  0  0  0  0  0  0  0  0  0
   43.7459    7.2352   12.0047 H   0  0  0  0  0  0  0  0  0  0  0  0
   44.2686    9.9290   10.0046 H   0  0  0  0  0  0  0  0  0  0  0  0
   48.4936    8.2237   12.2836 H   0  0  0  0  0  0  0  0  0  0  0  0
   47.8109   10.4087   12.6272 H   0  0  0  0  0  0  0  0  0  0  0  0
   45.6833   11.2713   11.9148 H   0  0  0  0  0  0  0  0  0  0  0  0
   42.0421    4.9864   11.0538 H   0  0  0  0  0  0  0  0  0  0  0  0
   42.8551    9.1205   10.9761 H   0  0  0  0  0  0  0  0  0  0  0  0
   48.4071    6.8509   13.3080 H   0  0  0  0  0  0  0  0  0  0  0  0
   46.2292    3.2802   12.9416 H   0  0  0  0  0  0  0  0  0  0  0  0
   52.1691    7.9387   15.6003 H   0  0  0  0  0  0  0  0  0  0  0  0
   51.7804    9.3346   14.8598 H   0  0  0  0  0  0  0  0  0  0  0  0
   42.4300   12.4304    8.3634 H   0  0  0  0  0  0  0  0  0  0  0  0
   42.1607   13.3415    9.6918 H   0  0  0  0  0  0  0  0  0  0  0  0
   44.3092    1.7987   12.3555 H   0  0  0  0  0  0  0  0  0  0  0  0
   44.0495   10.9202    9.5978 H   0  0  0  0  0  0  0  0  0  0  0  0
   43.7762   11.9379   11.0325 H   0  0  0  0  0  0  0  0  0  0  0  0
   48.6737    8.8518   14.8749 H   0  0  0  0  0  0  0  0  0  0  0  0
   49.6206    9.5454   13.5356 H   0  0  0  0  0  0  0  0  0  0  0  0
   41.5833   10.4665    9.4758 H   0  0  0  0  0  0  0  0  0  0  0  0
   41.3200   11.4517   10.9077 H   0  0  0  0  0  0  0  0  0  0  0  0
   50.1858    6.8686   14.9132 H   0  0  0  0  0  0  0  0  0  0  0  0
   51.0934    7.5012   13.5415 H   0  0  0  0  0  0  0  0  0  0  0  0
   44.7054    6.5694   10.7407 H   0  0  0  0  0  0  0  0  0  0  0  0
   46.7651    6.1885   11.9846 H   0  0  0  0  0  0  0  0  0  0  0  0
   48.3269    8.4495   13.9778 H   0  0  0  0  0  0  0  0  0  0  0  0
   44.4378   10.3991   11.3144 H   0  0  0  0  0  0  0  0  0  0  0  0
  1  3  1  0
  3  2  2  0
  4  1  2  0
  5  1  1  0
  2  6  1  0
  6  7  2  0
  6  8  1  0
 24 16  1  0
 25 14  1  0
 26 32  1  0
 27 31  1  0
 28 25  2  0
 29 23  1  0
 30 24  1  0
 31 29  1  0
 32 30  1  0
 16 20  2  0
 14 13  2  0
 19 28  1  0
 10  9  2  0
 11  9  1  0
 12 10  1  0
 13 11  1  0
 14 12  1  0
 15  9  1  0
 16 10  1  0
 17 11  2  0
 18 12  2  0
 19 22  2  0
 20 21  1  0
 21 15  2  0
 22 13  1  0
 23 15  1  0
 33 35  1  0
 35 34  2  0
 36 33  2  0
 37 33  1  0
 34 38  1  0
 38 39  2  0
 38 40  1  0
  2 41  1  0
  3 42  1  0
  5 43  1  0
  8 44  1  0
 20 45  1  0
 21 46  1  0
 22 47  1  0
 23 48  1  0
 24 49  1  0
 25 50  1  0
 26 51  1  0
 26 52  1  0
 27 53  1  0
 27 54  1  0
 28 55  1  0
 29 56  1  0
 29 57  1  0
 30 58  1  0
 30 59  1  0
 31 60  1  0
 31 61  1  0
 32 62  1  0
 32 63  1  0
 34 64  1  0
 35 65  1  0
 37 66  1  0
 40 67  1  0
M  END
> <Uni-Dock RESULT> 
ENERGY=   -6.465  LOWER_BOUND=    1.255  UPPER_BOUND=    4.439
INTER + INTRA:          -6.465
INTER:                  -6.465
INTRA:                   0.000
UNBOUND:                 0.000

$$$$

     RDKit          3D

 67 67  0  0  0  0  0  0  0  0999 V2000
   44.9122    8.9727   11.4371 C   0  0  0  0  0  0  0  0  0  0  0  0
   45.6246    7.1325   12.9425 C   0  0  0  0  0  0  0  0  0  0  0  0
   44.7146    7.6967   12.1370 C   0  0  0  0  0  0  0  0  0  0  0  0
   45.6748    9.8744   11.7200 O   0  0  0  0  0  0  0  0  0  0  0  0
   44.0638    9.0526   10.3996 O   0  0  0  0  0  0  0  0  0  0  0  0
   46.9771    7.6490   13.1646 C   0  0  0  0  0  0  0  0  0  0  0  0
   47.5053    7.7779   14.2524 O   0  0  0  0  0  0  0  0  0  0  0  0
   47.6296    7.8519   12.0109 O   0  0  0  0  0  0  0  0  0  0  0  0
   44.9092    7.9481   11.8836 C   0  0  0  0  0  0  0  0  0  0  0  0
   46.1348    7.4489   12.3717 C   0  0  0  0  0  0  0  0  0  0  0  0
   43.8276    6.9908   11.5161 C   0  0  0  0  0  0  0  0  0  0  0  0
   46.2780    5.9863   12.6301 C   0  0  0  0  0  0  0  0  0  0  0  0
   44.0036    5.5604   11.7678 C   0  0  0  0  0  0  0  0  0  0  0  0
   45.1796    5.0674   12.2993 C   0  0  0  0  0  0  0  0  0  0  0  0
   44.7161    9.3402   11.6907 C   0  0  0  0  0  0  0  0  0  0  0  0
   47.2083    8.3278   12.6666 C   0  0  0  0  0  0  0  0  0  0  0  0
   42.7915    7.3648   10.9736 O   0  0  0  0  0  0  0  0  0  0  0  0
   47.2908    5.5198   13.1454 O   0  0  0  0  0  0  0  0  0  0  0  0
   43.1011    3.3213   11.6782 N   0  0  0  0  0  0  0  0  0  0  0  0
   47.0061    9.6952   12.4528 C   0  0  0  0  0  0  0  0  0  0  0  0
   45.7798   10.1919   12.0046 C   0  0  0  0  0  0  0  0  0  0  0  0
   42.9947    4.6567   11.4716 C   0  0  0  0  0  0  0  0  0  0  0  0
   43.4619    9.8677   11.3276 N   0  0  0  0  0  0  0  0  0  0  0  0
   48.4805    7.8436   13.0322 N   0  0  0  0  0  0  0  0  0  0  0  0
   45.3211    3.6956   12.5254 C   0  0  0  0  0  0  0  0  0  0  0  0
   51.3725    8.5392   15.3523 N   0  0  0  0  0  0  0  0  0  0  0  0
   41.8278   12.5138    9.1764 N   0  0  0  0  0  0  0  0  0  0  0  0
   44.2608    2.8697   12.2008 C   0  0  0  0  0  0  0  0  0  0  0  0
   43.4116   11.0569   10.4773 C   0  0  0  0  0  0  0  0  0  0  0  0
   49.2725    8.6134   13.9958 C   0  0  0  0  0  0  0  0  0  0  0  0
   41.9614   11.3252   10.0226 C   0  0  0  0  0  0  0  0  0  0  0  0
   50.5076    7.7991   14.4305 C   0  0  0  0  0  0  0  0  0  0  0  0
   46.7545    8.0504   13.1029 C   0  0  0  0  0  0  0  0  0  0  0  0
   45.1025    7.3320   11.3953 C   0  0  0  0  0  0  0  0  0  0  0  0
   46.2186    7.1165   12.1038 C   0  0  0  0  0  0  0  0  0  0  0  0
   46.1646    8.9200   13.7111 O   0  0  0  0  0  0  0  0  0  0  0  0
   48.0544    7.7871   13.3118 O   0  0  0  0  0  0  0  0  0  0  0  0
   44.3089    8.5620   11.4422 C   0  0  0  0  0  0  0  0  0  0  0  0
   43.0994    8.6082   11.5596 O   0  0  0  0  0  0  0  0  0  0  0  0
   45.0594    9.6492   11.2145 O   0  0  0  0  0  0  0  0  0  0  0  0
   45.3859    6.2379   13.5048 H   0  0  0  0  0  0  0  0  0  0  0  0
   43.7452    7.2311   12.0019 H   0  0  0  0  0  0  0  0  0  0  0  0
   44.2670    9.9249   10.0017 H   0  0  0  0  0  0  0  0  0  0  0  0
   48.4911    8.2261   12.2870 H   0  0  0  0  0  0  0  0  0  0  0  0
   47.8051   10.4103   12.6290 H   0  0  0  0  0  0  0  0  0  0  0  0
   45.6773   11.2698   11.9134 H   0  0  0  0  0  0  0  0  0  0  0  0
   42.0458    4.9797   11.0494 H   0  0  0  0  0  0  0  0  0  0  0  0
   42.8533    9.1148   10.9715 H   0  0  0  0  0  0  0  0  0  0  0  0
   48.4051    6.8535   13.3118 H   0  0  0  0  0  0  0  0  0  0  0  0
   46.2325    3.2797   12.9435 H   0  0  0  0  0  0  0  0  0  0  0  0
   52.1625    7.9471   15.6090 H   0  0  0  0  0  0  0  0  0  0  0  0
   51.7729    9.3423   14.8674 H   0  0  0  0  0  0  0  0  0  0  0  0
   42.4274   12.4233    8.3570 H   0  0  0  0  0  0  0  0  0  0  0  0
   42.1549   13.3345    9.6848 H   0  0  0  0  0  0  0  0  0  0  0  0
   44.3153    1.7955   12.3553 H   0  0  0  0  0  0  0  0  0  0  0  0
   44.0472   10.9157    9.5942 H   0  0  0  0  0  0  0  0  0  0  0  0
   43.7705   11.9335   11.0282 H   0  0  0  0  0  0  0  0  0  0  0  0
   48.6669    8.8552   14.8784 H   0  0  0  0  0  0  0  0  0  0  0  0
   49.6147    9.5497   13.5402 H   0  0  0  0  0  0  0  0  0  0  0  0
   41.5817   10.4587    9.4689 H   0  0  0  0  0  0  0  0  0  0  0  0
   41.3151   11.4439   10.9001 H   0  0  0  0  0  0  0  0  0  0  0  0
   50.1815    6.8741   14.9195 H   0  0  0  0  0  0  0  0  0  0  0  0
   51.0902    7.5075   13.5488 H   0  0  0  0  0  0  0  0  0  0  0  0
   44.7073    6.5662   10.7394 H   0  0  0  0  0  0  0  0  0  0  0  0
   46.7659    6.1884   11.9864 H   0  0  0  0  0  0  0  0  0  0  0  0
   48.3219    8.4522   13.9809 H   0  0  0  0  0  0  0  0  0  0  0  0
   44.4337   10.3957   11.3115 H   0  0  0  0  0  0  0  0  0  0  0  0
  1  3  1  0
  3  2  2  0
  4  1  2  0
  5  1  1  0
  2  6  1  0
  6  7  2  0
  6  8  1  0
 24 16  1  0
 25 14  1  0
 26 32  1  0
 27 31  1  0
 28 25  2  0
 29 23  1  0
 30 24  1  0
 31 29  1  0
 32 30  1  0
 16 20  2  0
 14 13  2  0
 19 28  1  0
 10  9  2  0
 11  9  1  0
 12 10  1  0
 13 11  1  0
 14 12  1  0
 15  9  1  0
 16 10  1  0
 17 11  2  0
 18 12  2  0
 19 22  2  0
 20 21  1  0
 21 15  2  0
 22 13  1  0
 23 15  1  0
 33 35  1  0
 35 34  2  0
 36 33  2  0
 37 33  1  0
 34 38  1  0
 38 39  2  0
 38 40  1  0
  2 41  1  0
  3 42  1  0
  5 43  1  0
  8 44  1  0
 20 45  1  0
 21 46  1  0
 22 47  1  0
 23 48  1  0
 24 49  1  0
 25 50  1  0
 26 51  1  0
 26 52  1  0
 27 53  1  0
 27 54  1  0
 28 55  1  0
 29 56  1  0
 29 57  1  0
 30 58  1  0
 30 59  1  0
 31 60  1  0
 31 61  1  0
 32 62  1  0
 32 63  1  0
 34 64  1  0
 35 65  1  0
 37 66  1  0
 40 67  1  0
M  END
> <Uni-Dock RESULT> 
ENERGY=   -6.458  LOWER_BOUND=    1.254  UPPER_BOUND=    4.439
INTER + INTRA:          -6.458
INTER:                  -6.458
INTRA:                   0.000
UNBOUND:                 0.000

$$$$

     RDKit          3D

 67 67  0  0  0  0  0  0  0  0999 V2000
   47.3646    7.8076   13.6775 C   0  0  0  0  0  0  0  0  0  0  0  0
   45.7458    7.3100   11.8631 C   0  0  0  0  0  0  0  0  0  0  0  0
   46.6842    6.9122   12.7328 C   0  0  0  0  0  0  0  0  0  0  0  0
   47.5027    9.0118   13.6044 O   0  0  0  0  0  0  0  0  0  0  0  0
   47.8905    7.0871   14.6809 O   0  0  0  0  0  0  0  0  0  0  0  0
   45.1928    8.6645   11.7935 C   0  0  0  0  0  0  0  0  0  0  0  0
   45.0439    9.3061   10.7712 O   0  0  0  0  0  0  0  0  0  0  0  0
   44.7442    9.0824   12.9860 O   0  0  0  0  0  0  0  0  0  0  0  0
   46.6959    7.1813   13.0375 C   0  0  0  0  0  0  0  0  0  0  0  0
   45.5456    7.7976   12.5022 C   0  0  0  0  0  0  0  0  0  0  0  0
   46.7313    5.6972   13.1716 C   0  0  0  0  0  0  0  0  0  0  0  0
   44.4432    6.9476   11.9648 C   0  0  0  0  0  0  0  0  0  0  0  0
   45.6279    4.8916   12.6482 C   0  0  0  0  0  0  0  0  0  0  0  0
   44.5218    5.4837   12.0700 C   0  0  0  0  0  0  0  0  0  0  0  0
   47.7911    7.9582   13.4950 C   0  0  0  0  0  0  0  0  0  0  0  0
   45.4520    9.2107   12.4234 C   0  0  0  0  0  0  0  0  0  0  0  0
   47.6544    5.1225   13.7418 O   0  0  0  0  0  0  0  0  0  0  0  0
   43.4678    7.4384   11.4022 O   0  0  0  0  0  0  0  0  0  0  0  0
   44.6659    2.7094   12.2628 N   0  0  0  0  0  0  0  0  0  0  0  0
   46.5336    9.9610   12.8962 C   0  0  0  0  0  0  0  0  0  0  0  0
   47.6873    9.3489   13.3918 C   0  0  0  0  0  0  0  0  0  0  0  0
   45.6588    3.5076   12.7255 C   0  0  0  0  0  0  0  0  0  0  0  0
   48.9960    7.3609   13.9124 N   0  0  0  0  0  0  0  0  0  0  0  0
   44.2652    9.8508   12.0127 N   0  0  0  0  0  0  0  0  0  0  0  0
   43.4809    4.6890   11.5821 C   0  0  0  0  0  0  0  0  0  0  0  0
   43.0124   12.7679    9.9754 N   0  0  0  0  0  0  0  0  0  0  0  0
   51.7510    7.6425   16.4873 N   0  0  0  0  0  0  0  0  0  0  0  0
   43.5993    3.3166   11.7010 C   0  0  0  0  0  0  0  0  0  0  0  0
   49.7705    7.9956   14.9787 C   0  0  0  0  0  0  0  0  0  0  0  0
   44.3701   11.0966   11.2477 C   0  0  0  0  0  0  0  0  0  0  0  0
   50.9184    7.0670   15.4280 C   0  0  0  0  0  0  0  0  0  0  0  0
   42.9843   11.4969   10.7029 C   0  0  0  0  0  0  0  0  0  0  0  0
   45.6244    8.7681   11.9257 C   0  0  0  0  0  0  0  0  0  0  0  0
   46.0681    6.8216   13.4005 C   0  0  0  0  0  0  0  0  0  0  0  0
   45.2207    7.5882   12.7018 C   0  0  0  0  0  0  0  0  0  0  0  0
   46.7222    9.0359   11.4817 O   0  0  0  0  0  0  0  0  0  0  0  0
   44.5559    9.5528   11.7132 O   0  0  0  0  0  0  0  0  0  0  0  0
   47.4963    7.0976   13.5708 C   0  0  0  0  0  0  0  0  0  0  0  0
   48.3870    6.2830   13.4238 O   0  0  0  0  0  0  0  0  0  0  0  0
   47.7134    8.3368   14.0342 O   0  0  0  0  0  0  0  0  0  0  0  0
   45.3470    6.6222   11.1273 H   0  0  0  0  0  0  0  0  0  0  0  0
   47.0159    5.8803   12.7403 H   0  0  0  0  0  0  0  0  0  0  0  0
   48.3177    7.7610   15.2500 H   0  0  0  0  0  0  0  0  0  0  0  0
   44.4398    9.9977   12.8187 H   0  0  0  0  0  0  0  0  0  0  0  0
   46.5018   11.0472   12.8921 H   0  0  0  0  0  0  0  0  0  0  0  0
   48.5093    9.9935   13.6908 H   0  0  0  0  0  0  0  0  0  0  0  0
   46.4994    2.9800   13.1708 H   0  0  0  0  0  0  0  0  0  0  0  0
   48.8470    6.3560   14.0918 H   0  0  0  0  0  0  0  0  0  0  0  0
   43.6517    9.1690   11.5405 H   0  0  0  0  0  0  0  0  0  0  0  0
   42.6005    5.1258   11.1213 H   0  0  0  0  0  0  0  0  0  0  0  0
   42.0732   12.9721    9.6337 H   0  0  0  0  0  0  0  0  0  0  0  0
   43.2427   13.5218   10.6227 H   0  0  0  0  0  0  0  0  0  0  0  0
   51.1717    7.8772   17.2926 H   0  0  0  0  0  0  0  0  0  0  0  0
   52.1625    8.5167   16.1626 H   0  0  0  0  0  0  0  0  0  0  0  0
   42.8208    2.6503   11.3391 H   0  0  0  0  0  0  0  0  0  0  0  0
   49.1227    8.2113   15.8375 H   0  0  0  0  0  0  0  0  0  0  0  0
   50.2043    8.9375   14.6245 H   0  0  0  0  0  0  0  0  0  0  0  0
   45.0680   10.9707   10.4103 H   0  0  0  0  0  0  0  0  0  0  0  0
   44.7386   11.9041   11.8907 H   0  0  0  0  0  0  0  0  0  0  0  0
   50.5059    6.1167   15.7863 H   0  0  0  0  0  0  0  0  0  0  0  0
   51.5572    6.8276   14.5698 H   0  0  0  0  0  0  0  0  0  0  0  0
   42.6165   10.7141   10.0299 H   0  0  0  0  0  0  0  0  0  0  0  0
   42.2674   11.5726   11.5287 H   0  0  0  0  0  0  0  0  0  0  0  0
   45.7254    5.9121   13.8784 H   0  0  0  0  0  0  0  0  0  0  0  0
   44.1693    7.3297   12.6520 H   0  0  0  0  0  0  0  0  0  0  0  0
   44.9181   10.3046   11.1982 H   0  0  0  0  0  0  0  0  0  0  0  0
   48.6888    8.4124   14.0655 H   0  0  0  0  0  0  0  0  0  0  0  0
  1  3  1  0
  3  2  2  0
  4  1  2  0
  5  1  1  0
  2  6  1  0
  6  7  2  0
  6  8  1  0
 24 16  1  0
 25 14  1  0
 26 32  1  0
 27 31  1  0
 28 25  2  0
 29 23  1  0
 30 24  1  0
 31 29  1  0
 32 30  1  0
 16 20  2  0
 14 13  2  0
 19 28  1  0
 10  9  2  0
 11  9  1  0
 12 10  1  0
 13 11  1  0
 14 12  1  0
 15  9  1  0
 16 10  1  0
 17 11  2  0
 18 12  2  0
 19 22  2  0
 20 21  1  0
 21 15  2  0
 22 13  1  0
 23 15  1  0
 33 35  1  0
 35 34  2  0
 36 33  2  0
 37 33  1  0
 34 38  1  0
 38 39  2  0
 38 40  1  0
  2 41  1  0
  3 42  1  0
  5 43  1  0
  8 44  1  0
 20 45  1  0
 21 46  1  0
 22 47  1  0
 23 48  1  0
 24 49  1  0
 25 50  1  0
 26 51  1  0
 26 52  1  0
 27 53  1  0
 27 54  1  0
 28 55  1  0
 29 56  1  0
 29 57  1  0
 30 58  1  0
 30 59  1  0
 31 60  1  0
 31 61  1  0
 32 62  1  0
 32 63  1  0
 34 64  1  0
 35 65  1  0
 37 66  1  0
 40 67  1  0
M  END
> <Uni-Dock RESULT> 
ENERGY=   -5.608  LOWER_BOUND=    1.335  UPPER_BOUND=    5.415
INTER + INTRA:          -5.608
INTER:                  -5.608
INTRA:                   0.000
UNBOUND:                 0.000

$$$$

     RDKit          3D

 67 67  0  0  0  0  0  0  0  0999 V2000
   45.2120    7.0594   12.0113 C   0  0  0  0  0  0  0  0  0  0  0  0
   46.1882    9.0814   13.0691 C   0  0  0  0  0  0  0  0  0  0  0  0
   46.0650    7.7497   12.9877 C   0  0  0  0  0  0  0  0  0  0  0  0
   44.2479    7.4953   11.4155 O   0  0  0  0  0  0  0  0  0  0  0  0
   45.6229    5.7886   11.8743 O   0  0  0  0  0  0  0  0  0  0  0  0
   45.5743   10.0346   12.1419 C   0  0  0  0  0  0  0  0  0  0  0  0
   44.9660   11.0352   12.4704 O   0  0  0  0  0  0  0  0  0  0  0  0
   45.8664    9.7478   10.8651 O   0  0  0  0  0  0  0  0  0  0  0  0
   45.9409    7.6573   12.6116 C   0  0  0  0  0  0  0  0  0  0  0  0
   46.1310    9.0063   12.2461 C   0  0  0  0  0  0  0  0  0  0  0  0
   47.0043    6.9557   13.3853 C   0  0  0  0  0  0  0  0  0  0  0  0
   47.3302    9.7384   12.7487 C   0  0  0  0  0  0  0  0  0  0  0  0
   48.1760    7.6974   13.8516 C   0  0  0  0  0  0  0  0  0  0  0  0
   48.3436    9.0344   13.5472 C   0  0  0  0  0  0  0  0  0  0  0  0
   44.7789    6.9512   12.2075 C   0  0  0  0  0  0  0  0  0  0  0  0
   45.1700    9.6834   11.4524 C   0  0  0  0  0  0  0  0  0  0  0  0
   46.9431    5.7524   13.6216 O   0  0  0  0  0  0  0  0  0  0  0  0
   47.4873   10.9382   12.5373 O   0  0  0  0  0  0  0  0  0  0  0  0
   50.2658    7.7075   15.0636 N   0  0  0  0  0  0  0  0  0  0  0  0
   44.0396    8.9660   11.0477 C   0  0  0  0  0  0  0  0  0  0  0  0
   43.8345    7.6414   11.4412 C   0  0  0  0  0  0  0  0  0  0  0  0
   49.1573    7.0746   14.6076 C   0  0  0  0  0  0  0  0  0  0  0  0
   44.5102    5.6478   12.6679 N   0  0  0  0  0  0  0  0  0  0  0  0
   45.3980   10.9876   10.9686 N   0  0  0  0  0  0  0  0  0  0  0  0
   49.4750    9.7164   14.0029 C   0  0  0  0  0  0  0  0  0  0  0  0
   43.6532   14.2724   10.3394 N   0  0  0  0  0  0  0  0  0  0  0  0
   43.1243    2.3041   11.5728 N   0  0  0  0  0  0  0  0  0  0  0  0
   50.4006    9.0139   14.7522 C   0  0  0  0  0  0  0  0  0  0  0  0
   43.8103    4.7139   11.7860 C   0  0  0  0  0  0  0  0  0  0  0  0
   44.2563   11.8986   10.8464 C   0  0  0  0  0  0  0  0  0  0  0  0
   43.8223    3.2959   12.3950 C   0  0  0  0  0  0  0  0  0  0  0  0
   44.7529   13.3239   10.5307 C   0  0  0  0  0  0  0  0  0  0  0  0
   45.2484    9.7057   12.1355 C   0  0  0  0  0  0  0  0  0  0  0  0
   46.6998    7.7019   12.3332 C   0  0  0  0  0  0  0  0  0  0  0  0
   46.5431    9.0128   12.1069 C   0  0  0  0  0  0  0  0  0  0  0  0
   44.2247    9.3629   12.6911 O   0  0  0  0  0  0  0  0  0  0  0  0
   45.3442   10.8641   11.4635 O   0  0  0  0  0  0  0  0  0  0  0  0
   45.6031    6.7552   12.5474 C   0  0  0  0  0  0  0  0  0  0  0  0
   45.5576    5.9299   13.4392 O   0  0  0  0  0  0  0  0  0  0  0  0
   44.6937    6.8141   11.5640 O   0  0  0  0  0  0  0  0  0  0  0  0
   46.7591    9.5356   13.8699 H   0  0  0  0  0  0  0  0  0  0  0  0
   46.5805    7.1117   13.6962 H   0  0  0  0  0  0  0  0  0  0  0  0
   45.0022    5.4151   11.2142 H   0  0  0  0  0  0  0  0  0  0  0  0
   45.3763   10.4218   10.3513 H   0  0  0  0  0  0  0  0  0  0  0  0
   43.2884    9.4241   10.4102 H   0  0  0  0  0  0  0  0  0  0  0  0
   42.9077    7.1640   11.1350 H   0  0  0  0  0  0  0  0  0  0  0  0
   49.0865    6.0238   14.8796 H   0  0  0  0  0  0  0  0  0  0  0  0
   45.3661    5.2319   13.0661 H   0  0  0  0  0  0  0  0  0  0  0  0
   46.1711   11.4207   11.4968 H   0  0  0  0  0  0  0  0  0  0  0  0
   49.6327   10.7673   13.7810 H   0  0  0  0  0  0  0  0  0  0  0  0
   44.0442   15.1940   10.1441 H   0  0  0  0  0  0  0  0  0  0  0  0
   43.1249   14.0123    9.5066 H   0  0  0  0  0  0  0  0  0  0  0  0
   43.5377    2.2753   10.6415 H   0  0  0  0  0  0  0  0  0  0  0  0
   42.1523    2.5850   11.4491 H   0  0  0  0  0  0  0  0  0  0  0  0
   51.2986    9.4934   15.1324 H   0  0  0  0  0  0  0  0  0  0  0  0
   44.2955    4.6892   10.8023 H   0  0  0  0  0  0  0  0  0  0  0  0
   42.7682    5.0257   11.6525 H   0  0  0  0  0  0  0  0  0  0  0  0
   43.6795   11.9124   11.7798 H   0  0  0  0  0  0  0  0  0  0  0  0
   43.5976   11.5708   10.0340 H   0  0  0  0  0  0  0  0  0  0  0  0
   44.8573    2.9642   12.5377 H   0  0  0  0  0  0  0  0  0  0  0  0
   43.3601    3.3167   13.3888 H   0  0  0  0  0  0  0  0  0  0  0  0
   45.3862   13.6799   11.3512 H   0  0  0  0  0  0  0  0  0  0  0  0
   45.3749   13.3099    9.6283 H   0  0  0  0  0  0  0  0  0  0  0  0
   47.6890    7.2646   12.3888 H   0  0  0  0  0  0  0  0  0  0  0  0
   47.4083    9.6399   11.9257 H   0  0  0  0  0  0  0  0  0  0  0  0
   44.4449   11.2488   11.5334 H   0  0  0  0  0  0  0  0  0  0  0  0
   44.0040    6.1760   11.8384 H   0  0  0  0  0  0  0  0  0  0  0  0
  1  3  1  0
  3  2  2  0
  4  1  2  0
  5  1  1  0
  2  6  1  0
  6  7  2  0
  6  8  1  0
 24 16  1  0
 25 14  1  0
 26 32  1  0
 27 31  1  0
 28 25  2  0
 29 23  1  0
 30 24  1  0
 31 29  1  0
 32 30  1  0
 16 20  2  0
 14 13  2  0
 19 28  1  0
 10  9  2  0
 11  9  1  0
 12 10  1  0
 13 11  1  0
 14 12  1  0
 15  9  1  0
 16 10  1  0
 17 11  2  0
 18 12  2  0
 19 22  2  0
 20 21  1  0
 21 15  2  0
 22 13  1  0
 23 15  1  0
 33 35  1  0
 35 34  2  0
 36 33  2  0
 37 33  1  0
 34 38  1  0
 38 39  2  0
 38 40  1  0
  2 41  1  0
  3 42  1  0
  5 43  1  0
  8 44  1  0
 20 45  1  0
 21 46  1  0
 22 47  1  0
 23 48  1  0
 24 49  1  0
 25 50  1  0
 26 51  1  0
 26 52  1  0
 27 53  1  0
 27 54  1  0
 28 55  1  0
 29 56  1  0
 29 57  1  0
 30 58  1  0
 30 59  1  0
 31 60  1  0
 31 61  1  0
 32 62  1  0
 32 63  1  0
 34 64  1  0
 35 65  1  0
 37 66  1  0
 40 67  1  0
M  END
> <Uni-Dock RESULT> 
ENERGY=   -5.451  LOWER_BOUND=    1.346  UPPER_BOUND=    4.445
INTER + INTRA:          -5.451
INTER:                  -5.451
INTRA:                   0.000
UNBOUND:                 0.000

$$$$

     RDKit          3D

 67 67  0  0  0  0  0  0  0  0999 V2000
   46.3564    7.6666   13.0892 C   0  0  0  0  0  0  0  0  0  0  0  0
   48.3436    9.1357   12.8586 C   0  0  0  0  0  0  0  0  0  0  0  0
   47.0848    8.8135   12.5314 C   0  0  0  0  0  0  0  0  0  0  0  0
   46.8124    6.6587   13.5900 O   0  0  0  0  0  0  0  0  0  0  0  0
   45.0361    7.8533   12.9332 O   0  0  0  0  0  0  0  0  0  0  0  0
   49.1387    8.4578   13.8850 C   0  0  0  0  0  0  0  0  0  0  0  0
   50.2893    8.0892   13.7464 O   0  0  0  0  0  0  0  0  0  0  0  0
   48.4920    8.3967   15.0580 O   0  0  0  0  0  0  0  0  0  0  0  0
   46.9284    8.5924   12.8347 C   0  0  0  0  0  0  0  0  0  0  0  0
   48.0794    8.8754   13.5994 C   0  0  0  0  0  0  0  0  0  0  0  0
   46.2450    9.7011   12.1098 C   0  0  0  0  0  0  0  0  0  0  0  0
   48.6614   10.2490   13.5643 C   0  0  0  0  0  0  0  0  0  0  0  0
   46.8325   11.0409   12.1063 C   0  0  0  0  0  0  0  0  0  0  0  0
   47.9917   11.3151   12.8060 C   0  0  0  0  0  0  0  0  0  0  0  0
   46.3881    7.2815   12.7916 C   0  0  0  0  0  0  0  0  0  0  0  0
   48.7143    7.8572   14.3555 C   0  0  0  0  0  0  0  0  0  0  0  0
   45.1746    9.5316   11.5326 O   0  0  0  0  0  0  0  0  0  0  0  0
   49.7157   10.5161   14.1353 O   0  0  0  0  0  0  0  0  0  0  0  0
   46.7299   13.3389   11.3682 N   0  0  0  0  0  0  0  0  0  0  0  0
   48.1570    6.5750   14.3158 C   0  0  0  0  0  0  0  0  0  0  0  0
   47.0391    6.2875   13.5290 C   0  0  0  0  0  0  0  0  0  0  0  0
   46.2356   12.0774   11.4050 C   0  0  0  0  0  0  0  0  0  0  0  0
   45.3195    6.9517   11.9359 N   0  0  0  0  0  0  0  0  0  0  0  0
   49.7860    8.1424   15.2256 N   0  0  0  0  0  0  0  0  0  0  0  0
   48.5280   12.6055   12.7878 C   0  0  0  0  0  0  0  0  0  0  0  0
   53.0896    6.7704   16.4229 N   0  0  0  0  0  0  0  0  0  0  0  0
   42.1507    4.8967   11.7463 N   0  0  0  0  0  0  0  0  0  0  0  0
   47.8649   13.5757   12.0594 C   0  0  0  0  0  0  0  0  0  0  0  0
   44.3533    5.9405   12.3646 C   0  0  0  0  0  0  0  0  0  0  0  0
   50.8452    7.1417   15.3835 C   0  0  0  0  0  0  0  0  0  0  0  0
   43.1574    5.8999   11.3900 C   0  0  0  0  0  0  0  0  0  0  0  0
   52.0203    7.7418   16.1814 C   0  0  0  0  0  0  0  0  0  0  0  0
   48.8896    8.0973   13.7352 C   0  0  0  0  0  0  0  0  0  0  0  0
   46.7516    9.2625   13.2532 C   0  0  0  0  0  0  0  0  0  0  0  0
   47.9695    9.2397   13.8103 C   0  0  0  0  0  0  0  0  0  0  0  0
   48.9047    7.1970   12.9207 O   0  0  0  0  0  0  0  0  0  0  0  0
   49.8023    8.1907   14.7153 O   0  0  0  0  0  0  0  0  0  0  0  0
   46.1238    8.1274   12.5732 C   0  0  0  0  0  0  0  0  0  0  0  0
   45.5715    8.1806   11.4911 O   0  0  0  0  0  0  0  0  0  0  0  0
   46.1152    7.0283   13.3407 O   0  0  0  0  0  0  0  0  0  0  0  0
   48.8603    9.9372   12.3447 H   0  0  0  0  0  0  0  0  0  0  0  0
   46.5539    9.3887   11.7817 H   0  0  0  0  0  0  0  0  0  0  0  0
   44.6407    7.0485   13.3285 H   0  0  0  0  0  0  0  0  0  0  0  0
   49.1004    7.8971   15.6399 H   0  0  0  0  0  0  0  0  0  0  0  0
   48.5816    5.7650   14.9026 H   0  0  0  0  0  0  0  0  0  0  0  0
   46.6935    5.2576   13.5041 H   0  0  0  0  0  0  0  0  0  0  0  0
   45.3206   11.9282   10.8360 H   0  0  0  0  0  0  0  0  0  0  0  0
   44.8548    7.8115   11.6059 H   0  0  0  0  0  0  0  0  0  0  0  0
   50.1750    9.0709   15.0002 H   0  0  0  0  0  0  0  0  0  0  0  0
   49.4383   12.8501   13.3262 H   0  0  0  0  0  0  0  0  0  0  0  0
   53.8379    7.2277   16.9438 H   0  0  0  0  0  0  0  0  0  0  0  0
   52.7407    6.0291   17.0304 H   0  0  0  0  0  0  0  0  0  0  0  0
   41.8104    5.0698   12.6915 H   0  0  0  0  0  0  0  0  0  0  0  0
   42.5785    3.9716   11.7579 H   0  0  0  0  0  0  0  0  0  0  0  0
   48.2365   14.5957   12.0098 H   0  0  0  0  0  0  0  0  0  0  0  0
   43.9898    6.1708   13.3738 H   0  0  0  0  0  0  0  0  0  0  0  0
   44.8218    4.9499   12.3808 H   0  0  0  0  0  0  0  0  0  0  0  0
   51.2041    6.8100   14.4010 H   0  0  0  0  0  0  0  0  0  0  0  0
   50.4629    6.2706   15.9278 H   0  0  0  0  0  0  0  0  0  0  0  0
   42.6737    6.8830   11.3579 H   0  0  0  0  0  0  0  0  0  0  0  0
   43.5152    5.6936   10.3745 H   0  0  0  0  0  0  0  0  0  0  0  0
   52.4364    8.5945   15.6328 H   0  0  0  0  0  0  0  0  0  0  0  0
   51.6600    8.1245   17.1434 H   0  0  0  0  0  0  0  0  0  0  0  0
   46.1552   10.1664   13.2643 H   0  0  0  0  0  0  0  0  0  0  0  0
   48.3482   10.1157   14.3241 H   0  0  0  0  0  0  0  0  0  0  0  0
   50.3623    7.3958   14.5885 H   0  0  0  0  0  0  0  0  0  0  0  0
   45.7146    6.3416   12.7697 H   0  0  0  0  0  0  0  0  0  0  0  0
  1  3  1  0
  3  2  2  0
  4  1  2  0
  5  1  1  0
  2  6  1  0
  6  7  2  0
  6  8  1  0
 24 16  1  0
 25 14  1  0
 26 32  1  0
 27 31  1  0
 28 25  2  0
 29 23  1  0
 30 24  1  0
 31 29  1  0
 32 30  1  0
 16 20  2  0
 14 13  2  0
 19 28  1  0
 10  9  2  0
 11  9  1  0
 12 10  1  0
 13 11  1  0
 14 12  1  0
 15  9  1  0
 16 10  1  0
 17 11  2  0
 18 12  2  0
 19 22  2  0
 20 21  1  0
 21 15  2  0
 22 13  1  0
 23 15  1  0
 33 35  1  0
 35 34  2  0
 36 33  2  0
 37 33  1  0
 34 38  1  0
 38 39  2  0
 38 40  1  0
  2 41  1  0
  3 42  1  0
  5 43  1  0
  8 44  1  0
 20 45  1  0
 21 46  1  0
 22 47  1  0
 23 48  1  0
 24 49  1  0
 25 50  1  0
 26 51  1  0
 26 52  1  0
 27 53  1  0
 27 54  1  0
 28 55  1  0
 29 56  1  0
 29 57  1  0
 30 58  1  0
 30 59  1  0
 31 60  1  0
 31 61  1  0
 32 62  1  0
 32 63  1  0
 34 64  1  0
 35 65  1  0
 37 66  1  0
 40 67  1  0
M  END
> <Uni-Dock RESULT> 
ENERGY=   -5.425  LOWER_BOUND=    1.793  UPPER_BOUND=    2.219
INTER + INTRA:          -5.425
INTER:                  -5.425
INTRA:                   0.000
UNBOUND:                 0.000

$$$$
