
     RDKit          3D

 67 67  0  0  0  0  0  0  0  0999 V2000
   46.8859    7.2769   13.0217 C   0  0  0  0  0  0  0  0  0  0  0  0
   45.6183    5.2259   12.4316 C   0  0  0  0  0  0  0  0  0  0  0  0
   46.4252    5.9026   13.2596 C   0  0  0  0  0  0  0  0  0  0  0  0
   46.9598    7.8720   11.9657 O   0  0  0  0  0  0  0  0  0  0  0  0
   47.2852    7.8241   14.1813 O   0  0  0  0  0  0  0  0  0  0  0  0
   44.9996    5.7822   11.2263 C   0  0  0  0  0  0  0  0  0  0  0  0
   44.9742    5.2357   10.1400 O   0  0  0  0  0  0  0  0  0  0  0  0
   44.3419    6.9220   11.4819 O   0  0  0  0  0  0  0  0  0  0  0  0
   46.0673    6.9891   12.7888 C   0  0  0  0  0  0  0  0  0  0  0  0
   44.9458    6.3408   12.2309 C   0  0  0  0  0  0  0  0  0  0  0  0
   46.1698    8.4726   12.6980 C   0  0  0  0  0  0  0  0  0  0  0  0
   43.9069    7.1520   11.5288 C   0  0  0  0  0  0  0  0  0  0  0  0
   45.2111    9.2182   11.8837 C   0  0  0  0  0  0  0  0  0  0  0  0
   44.1188    8.5910   11.3168 C   0  0  0  0  0  0  0  0  0  0  0  0
   47.0750    6.2525   13.4641 C   0  0  0  0  0  0  0  0  0  0  0  0
   44.8197    4.9311   12.3093 C   0  0  0  0  0  0  0  0  0  0  0  0
   47.0343    9.0987   13.3052 O   0  0  0  0  0  0  0  0  0  0  0  0
   42.8647    6.6557   11.1097 O   0  0  0  0  0  0  0  0  0  0  0  0
   44.5031   11.3232   10.9336 N   0  0  0  0  0  0  0  0  0  0  0  0
   45.8083    4.2223   13.0003 C   0  0  0  0  0  0  0  0  0  0  0  0
   46.9223    4.8648   13.5435 C   0  0  0  0  0  0  0  0  0  0  0  0
   45.3632   10.5796   11.6716 C   0  0  0  0  0  0  0  0  0  0  0  0
   48.2568    6.8673   13.9244 N   0  0  0  0  0  0  0  0  0  0  0  0
   43.6964    4.2506   11.7972 N   0  0  0  0  0  0  0  0  0  0  0  0
   43.2102    9.3296   10.5545 C   0  0  0  0  0  0  0  0  0  0  0  0
   44.0112    4.3243    8.8741 N   0  0  0  0  0  0  0  0  0  0  0  0
   50.6626    6.9016   16.8425 N   0  0  0  0  0  0  0  0  0  0  0  0
   43.4453   10.6824   10.3919 C   0  0  0  0  0  0  0  0  0  0  0  0
   48.8656    6.3793   15.1624 C   0  0  0  0  0  0  0  0  0  0  0  0
   43.9133    3.0195   11.0265 C   0  0  0  0  0  0  0  0  0  0  0  0
   49.9999    7.3271   15.6071 C   0  0  0  0  0  0  0  0  0  0  0  0
   44.6349    3.2737    9.6845 C   0  0  0  0  0  0  0  0  0  0  0  0
   44.8486    5.7141   11.4101 C   0  0  0  0  0  0  0  0  0  0  0  0
   45.6712    7.0778   13.3193 C   0  0  0  0  0  0  0  0  0  0  0  0
   44.6828    6.4564   12.6618 C   0  0  0  0  0  0  0  0  0  0  0  0
   44.1274    5.8187   10.4363 O   0  0  0  0  0  0  0  0  0  0  0  0
   45.8223    4.7969   11.4982 O   0  0  0  0  0  0  0  0  0  0  0  0
   47.0498    7.1873   12.8245 C   0  0  0  0  0  0  0  0  0  0  0  0
   47.4460    7.1048   11.6797 O   0  0  0  0  0  0  0  0  0  0  0  0
   47.8755    7.4508   13.8501 O   0  0  0  0  0  0  0  0  0  0  0  0
   45.3892    4.1831   12.6147 H   0  0  0  0  0  0  0  0  0  0  0  0
   46.8145    5.4231   14.1502 H   0  0  0  0  0  0  0  0  0  0  0  0
   47.5719    8.7259   13.9256 H   0  0  0  0  0  0  0  0  0  0  0  0
   44.0079    7.2057   10.6061 H   0  0  0  0  0  0  0  0  0  0  0  0
   45.7258    3.1470   13.1336 H   0  0  0  0  0  0  0  0  0  0  0  0
   47.6784    4.2466   14.0192 H   0  0  0  0  0  0  0  0  0  0  0  0
   46.1988   11.1322   12.0954 H   0  0  0  0  0  0  0  0  0  0  0  0
   48.1314    7.8913   13.9413 H   0  0  0  0  0  0  0  0  0  0  0  0
   43.1366    4.9086   11.2297 H   0  0  0  0  0  0  0  0  0  0  0  0
   42.3416    8.8633   10.0997 H   0  0  0  0  0  0  0  0  0  0  0  0
   44.4142    4.3222    7.9390 H   0  0  0  0  0  0  0  0  0  0  0  0
   43.0146    4.1403    8.7683 H   0  0  0  0  0  0  0  0  0  0  0  0
   49.9776    6.8321   17.5941 H   0  0  0  0  0  0  0  0  0  0  0  0
   51.0516    5.9679   16.7184 H   0  0  0  0  0  0  0  0  0  0  0  0
   42.7719   11.3044    9.8082 H   0  0  0  0  0  0  0  0  0  0  0  0
   48.1105    6.3208   15.9561 H   0  0  0  0  0  0  0  0  0  0  0  0
   49.2880    5.3793   15.0104 H   0  0  0  0  0  0  0  0  0  0  0  0
   44.4474    2.2605   11.6074 H   0  0  0  0  0  0  0  0  0  0  0  0
   42.9246    2.5945   10.8145 H   0  0  0  0  0  0  0  0  0  0  0  0
   49.6007    8.3372   15.7559 H   0  0  0  0  0  0  0  0  0  0  0  0
   50.7520    7.4013   14.8132 H   0  0  0  0  0  0  0  0  0  0  0  0
   45.6769    3.5553    9.8696 H   0  0  0  0  0  0  0  0  0  0  0  0
   44.6476    2.3403    9.1107 H   0  0  0  0  0  0  0  0  0  0  0  0
   45.4687    7.5775   14.2596 H   0  0  0  0  0  0  0  0  0  0  0  0
   43.6658    6.4892   13.0340 H   0  0  0  0  0  0  0  0  0  0  0  0
   45.8574    4.3997   10.6037 H   0  0  0  0  0  0  0  0  0  0  0  0
   48.7581    7.5059   13.4276 H   0  0  0  0  0  0  0  0  0  0  0  0
  1  3  1  0
  3  2  2  0
  4  1  2  0
  5  1  1  0
  2  6  1  0
  6  7  2  0
  6  8  1  0
 24 16  1  0
 25 14  1  0
 26 32  1  0
 27 31  1  0
 28 25  2  0
 29 23  1  0
 30 24  1  0
 31 29  1  0
 32 30  1  0
 16 20  2  0
 14 13  2  0
 19 28  1  0
 10  9  2  0
 11  9  1  0
 12 10  1  0
 13 11  1  0
 14 12  1  0
 15  9  1  0
 16 10  1  0
 17 11  2  0
 18 12  2  0
 19 22  2  0
 20 21  1  0
 21 15  2  0
 22 13  1  0
 23 15  1  0
 33 35  1  0
 35 34  2  0
 36 33  2  0
 37 33  1  0
 34 38  1  0
 38 39  2  0
 38 40  1  0
  2 41  1  0
  3 42  1  0
  5 43  1  0
  8 44  1  0
 20 45  1  0
 21 46  1  0
 22 47  1  0
 23 48  1  0
 24 49  1  0
 25 50  1  0
 26 51  1  0
 26 52  1  0
 27 53  1  0
 27 54  1  0
 28 55  1  0
 29 56  1  0
 29 57  1  0
 30 58  1  0
 30 59  1  0
 31 60  1  0
 31 61  1  0
 32 62  1  0
 32 63  1  0
 34 64  1  0
 35 65  1  0
 37 66  1  0
 40 67  1  0
M  END
> <Uni-Dock RESULT> 
ENERGY=   -6.962  LOWER_BOUND=    0.000  UPPER_BOUND=    0.000
INTER + INTRA:          -6.962
INTER:                  -6.962
INTRA:                   0.000
UNBOUND:                 0.000

$$$$

     RDKit          3D

 67 67  0  0  0  0  0  0  0  0999 V2000
   45.1798    6.7340   12.3021 C   0  0  0  0  0  0  0  0  0  0  0  0
   47.4115    6.9838   13.3600 C   0  0  0  0  0  0  0  0  0  0  0  0
   46.5174    6.2566   12.6772 C   0  0  0  0  0  0  0  0  0  0  0  0
   44.5276    7.6204   12.8155 O   0  0  0  0  0  0  0  0  0  0  0  0
   44.7094    5.9974   11.2826 O   0  0  0  0  0  0  0  0  0  0  0  0
   47.2306    8.3850   13.7458 C   0  0  0  0  0  0  0  0  0  0  0  0
   47.4600    8.8392   14.8506 O   0  0  0  0  0  0  0  0  0  0  0  0
   46.8993    9.1537   12.6987 O   0  0  0  0  0  0  0  0  0  0  0  0
   45.9013    7.2690   12.3226 C   0  0  0  0  0  0  0  0  0  0  0  0
   47.0325    8.0380   12.6667 C   0  0  0  0  0  0  0  0  0  0  0  0
   44.7519    7.9295   11.6428 C   0  0  0  0  0  0  0  0  0  0  0  0
   47.0361    9.5030   12.3768 C   0  0  0  0  0  0  0  0  0  0  0  0
   44.7298    9.3849   11.5032 C   0  0  0  0  0  0  0  0  0  0  0  0
   45.8246   10.1507   11.8538 C   0  0  0  0  0  0  0  0  0  0  0  0
   45.8608    5.8742   12.5816 C   0  0  0  0  0  0  0  0  0  0  0  0
   48.1428    7.4334   13.3078 C   0  0  0  0  0  0  0  0  0  0  0  0
   43.8187    7.2821   11.1761 O   0  0  0  0  0  0  0  0  0  0  0  0
   48.0275   10.2029   12.5648 O   0  0  0  0  0  0  0  0  0  0  0  0
   43.5398   11.3796   10.8396 N   0  0  0  0  0  0  0  0  0  0  0  0
   48.0978    6.0534   13.5329 C   0  0  0  0  0  0  0  0  0  0  0  0
   46.9735    5.2957   13.2002 C   0  0  0  0  0  0  0  0  0  0  0  0
   43.6144   10.0355   10.9990 C   0  0  0  0  0  0  0  0  0  0  0  0
   44.6968    5.1134   12.3521 N   0  0  0  0  0  0  0  0  0  0  0  0
   49.3059    8.1602   13.6336 N   0  0  0  0  0  0  0  0  0  0  0  0
   45.7823   11.5384   11.6973 C   0  0  0  0  0  0  0  0  0  0  0  0
   48.5554    9.8353   15.9314 N   0  0  0  0  0  0  0  0  0  0  0  0
   43.5294    1.7686   11.0277 N   0  0  0  0  0  0  0  0  0  0  0  0
   44.6252   12.1014   11.1914 C   0  0  0  0  0  0  0  0  0  0  0  0
   44.8407    3.7286   11.9015 C   0  0  0  0  0  0  0  0  0  0  0  0
   49.9152    7.9539   14.9537 C   0  0  0  0  0  0  0  0  0  0  0  0
   43.4672    3.1577   11.4892 C   0  0  0  0  0  0  0  0  0  0  0  0
   49.0223    8.4570   16.1095 C   0  0  0  0  0  0  0  0  0  0  0  0
   47.4120    8.3342   13.5855 C   0  0  0  0  0  0  0  0  0  0  0  0
   46.1935    7.2255   11.7235 C   0  0  0  0  0  0  0  0  0  0  0  0
   47.1987    7.9851   12.1791 C   0  0  0  0  0  0  0  0  0  0  0  0
   47.6631    9.4510   13.9967 O   0  0  0  0  0  0  0  0  0  0  0  0
   47.4267    7.2494   14.3730 O   0  0  0  0  0  0  0  0  0  0  0  0
   45.1007    6.7141   12.5613 C   0  0  0  0  0  0  0  0  0  0  0  0
   44.7022    7.1473   13.6233 O   0  0  0  0  0  0  0  0  0  0  0  0
   44.5234    5.6644   11.9549 O   0  0  0  0  0  0  0  0  0  0  0  0
   48.3454    6.5437   13.6881 H   0  0  0  0  0  0  0  0  0  0  0  0
   46.7461    5.2333   12.4028 H   0  0  0  0  0  0  0  0  0  0  0  0
   43.8257    6.3833   11.1061 H   0  0  0  0  0  0  0  0  0  0  0  0
   46.7763   10.0444   13.0865 H   0  0  0  0  0  0  0  0  0  0  0  0
   48.9476    5.5373   13.9713 H   0  0  0  0  0  0  0  0  0  0  0  0
   46.9849    4.2392   13.4527 H   0  0  0  0  0  0  0  0  0  0  0  0
   42.7231    9.4887   10.6995 H   0  0  0  0  0  0  0  0  0  0  0  0
   44.0492    5.6434   11.7485 H   0  0  0  0  0  0  0  0  0  0  0  0
   49.1179    9.1683   13.5037 H   0  0  0  0  0  0  0  0  0  0  0  0
   46.6289   12.1645   11.9621 H   0  0  0  0  0  0  0  0  0  0  0  0
   48.1295   10.1683   16.7942 H   0  0  0  0  0  0  0  0  0  0  0  0
   49.3438   10.4497   15.7331 H   0  0  0  0  0  0  0  0  0  0  0  0
   44.1670    1.6974   10.2357 H   0  0  0  0  0  0  0  0  0  0  0  0
   43.9161    1.1800   11.7643 H   0  0  0  0  0  0  0  0  0  0  0  0
   44.5372   13.1754   11.0500 H   0  0  0  0  0  0  0  0  0  0  0  0
   45.5249    3.6802   11.0452 H   0  0  0  0  0  0  0  0  0  0  0  0
   45.2479    3.1066   12.7070 H   0  0  0  0  0  0  0  0  0  0  0  0
   50.1954    6.9081   15.1173 H   0  0  0  0  0  0  0  0  0  0  0  0
   50.8537    8.5215   14.9669 H   0  0  0  0  0  0  0  0  0  0  0  0
   43.0366    3.7716   10.6894 H   0  0  0  0  0  0  0  0  0  0  0  0
   42.7738    3.2153   12.3361 H   0  0  0  0  0  0  0  0  0  0  0  0
   48.1464    7.8079   16.2129 H   0  0  0  0  0  0  0  0  0  0  0  0
   49.5887    8.3899   17.0451 H   0  0  0  0  0  0  0  0  0  0  0  0
   46.1275    6.9864   10.6683 H   0  0  0  0  0  0  0  0  0  0  0  0
   47.9244    8.4090   11.4954 H   0  0  0  0  0  0  0  0  0  0  0  0
   47.5398    7.6117   15.2758 H   0  0  0  0  0  0  0  0  0  0  0  0
   43.8170    5.3968   12.5793 H   0  0  0  0  0  0  0  0  0  0  0  0
  1  3  1  0
  3  2  2  0
  4  1  2  0
  5  1  1  0
  2  6  1  0
  6  7  2  0
  6  8  1  0
 24 16  1  0
 25 14  1  0
 26 32  1  0
 27 31  1  0
 28 25  2  0
 29 23  1  0
 30 24  1  0
 31 29  1  0
 32 30  1  0
 16 20  2  0
 14 13  2  0
 19 28  1  0
 10  9  2  0
 11  9  1  0
 12 10  1  0
 13 11  1  0
 14 12  1  0
 15  9  1  0
 16 10  1  0
 17 11  2  0
 18 12  2  0
 19 22  2  0
 20 21  1  0
 21 15  2  0
 22 13  1  0
 23 15  1  0
 33 35  1  0
 35 34  2  0
 36 33  2  0
 37 33  1  0
 34 38  1  0
 38 39  2  0
 38 40  1  0
  2 41  1  0
  3 42  1  0
  5 43  1  0
  8 44  1  0
 20 45  1  0
 21 46  1  0
 22 47  1  0
 23 48  1  0
 24 49  1  0
 25 50  1  0
 26 51  1  0
 26 52  1  0
 27 53  1  0
 27 54  1  0
 28 55  1  0
 29 56  1  0
 29 57  1  0
 30 58  1  0
 30 59  1  0
 31 60  1  0
 31 61  1  0
 32 62  1  0
 32 63  1  0
 34 64  1  0
 35 65  1  0
 37 66  1  0
 40 67  1  0
M  END
> <Uni-Dock RESULT> 
ENERGY=   -5.542  LOWER_BOUND=    1.371  UPPER_BOUND=    4.811
INTER + INTRA:          -5.542
INTER:                  -5.542
INTRA:                   0.000
UNBOUND:                 0.000

$$$$

     RDKit          3D

 67 67  0  0  0  0  0  0  0  0999 V2000
   45.6079    8.2099   12.5054 C   0  0  0  0  0  0  0  0  0  0  0  0
   47.8786    7.9598   13.4768 C   0  0  0  0  0  0  0  0  0  0  0  0
   46.8154    7.4454   12.8445 C   0  0  0  0  0  0  0  0  0  0  0  0
   45.1962    9.2303   13.0193 O   0  0  0  0  0  0  0  0  0  0  0  0
   44.9412    7.5841   11.5219 O   0  0  0  0  0  0  0  0  0  0  0  0
   48.0375    9.3713   13.8336 C   0  0  0  0  0  0  0  0  0  0  0  0
   48.4087    9.7788   14.9178 O   0  0  0  0  0  0  0  0  0  0  0  0
   47.8482   10.1783   12.7800 O   0  0  0  0  0  0  0  0  0  0  0  0
   46.4326    8.5660   12.4869 C   0  0  0  0  0  0  0  0  0  0  0  0
   47.7223    9.0614   12.7712 C   0  0  0  0  0  0  0  0  0  0  0  0
   45.4376    9.4609   11.8320 C   0  0  0  0  0  0  0  0  0  0  0  0
   48.0480   10.4818   12.4448 C   0  0  0  0  0  0  0  0  0  0  0  0
   45.7422   10.8803   11.6569 C   0  0  0  0  0  0  0  0  0  0  0  0
   46.9960   11.3808   11.9492 C   0  0  0  0  0  0  0  0  0  0  0  0
   46.0857    7.2219   12.7818 C   0  0  0  0  0  0  0  0  0  0  0  0
   48.6903    8.2293   13.3874 C   0  0  0  0  0  0  0  0  0  0  0  0
   44.3633    9.0366   11.4151 O   0  0  0  0  0  0  0  0  0  0  0  0
   49.1796   10.9393   12.5800 O   0  0  0  0  0  0  0  0  0  0  0  0
   45.0124   13.0832   10.9864 N   0  0  0  0  0  0  0  0  0  0  0  0
   48.3411    6.9000   13.6484 C   0  0  0  0  0  0  0  0  0  0  0  0
   47.0612    6.4143   13.3748 C   0  0  0  0  0  0  0  0  0  0  0  0
   44.7851   11.7605   11.1766 C   0  0  0  0  0  0  0  0  0  0  0  0
   44.7706    6.7438   12.6129 N   0  0  0  0  0  0  0  0  0  0  0  0
   50.0007    8.6760   13.6533 N   0  0  0  0  0  0  0  0  0  0  0  0
   47.2648   12.7388   11.7597 C   0  0  0  0  0  0  0  0  0  0  0  0
   49.7450   10.5154   15.9338 N   0  0  0  0  0  0  0  0  0  0  0  0
   42.8191    3.7338   11.4148 N   0  0  0  0  0  0  0  0  0  0  0  0
   46.2471   13.5432   11.2813 C   0  0  0  0  0  0  0  0  0  0  0  0
   44.5769    5.3557   12.1923 C   0  0  0  0  0  0  0  0  0  0  0  0
   50.5996    8.3572   14.9557 C   0  0  0  0  0  0  0  0  0  0  0  0
   43.0938    5.1075   11.8434 C   0  0  0  0  0  0  0  0  0  0  0  0
   49.8922    9.0698   16.1296 C   0  0  0  0  0  0  0  0  0  0  0  0
   48.1959    9.2778   13.6682 C   0  0  0  0  0  0  0  0  0  0  0  0
   46.6828    8.4471   11.8790 C   0  0  0  0  0  0  0  0  0  0  0  0
   47.8522    8.9639   12.2795 C   0  0  0  0  0  0  0  0  0  0  0  0
   48.7114   10.3140   14.0422 O   0  0  0  0  0  0  0  0  0  0  0  0
   47.9947    8.2313   14.4816 O   0  0  0  0  0  0  0  0  0  0  0  0
   45.5369    8.2129   12.7676 C   0  0  0  0  0  0  0  0  0  0  0  0
   45.2907    8.7429   13.8319 O   0  0  0  0  0  0  0  0  0  0  0  0
   44.7115    7.3134   12.2085 O   0  0  0  0  0  0  0  0  0  0  0  0
   48.7000    7.3232   13.7823 H   0  0  0  0  0  0  0  0  0  0  0  0
   46.7936    6.3927   12.5878 H   0  0  0  0  0  0  0  0  0  0  0  0
   44.1624    8.1589   11.3673 H   0  0  0  0  0  0  0  0  0  0  0  0
   47.9473   11.0797   13.1496 H   0  0  0  0  0  0  0  0  0  0  0  0
   49.0679    6.2104   14.0690 H   0  0  0  0  0  0  0  0  0  0  0  0
   46.8417    5.3874   13.6531 H   0  0  0  0  0  0  0  0  0  0  0  0
   43.7812   11.4273   10.9227 H   0  0  0  0  0  0  0  0  0  0  0  0
   44.2371    7.3981   12.0196 H   0  0  0  0  0  0  0  0  0  0  0  0
   50.0423    9.6981   13.5051 H   0  0  0  0  0  0  0  0  0  0  0  0
   48.2418   13.1588   11.9785 H   0  0  0  0  0  0  0  0  0  0  0  0
   49.4413   10.9509   16.8026 H   0  0  0  0  0  0  0  0  0  0  0  0
   50.6441   10.9298   15.6924 H   0  0  0  0  0  0  0  0  0  0  0  0
   43.3913    3.5058   10.6027 H   0  0  0  0  0  0  0  0  0  0  0  0
   43.0908    3.0844   12.1517 H   0  0  0  0  0  0  0  0  0  0  0  0
   46.4005   14.6064   11.1163 H   0  0  0  0  0  0  0  0  0  0  0  0
   45.1969    5.1383   11.3137 H   0  0  0  0  0  0  0  0  0  0  0  0
   44.8636    4.6702   12.9981 H   0  0  0  0  0  0  0  0  0  0  0  0
   50.6404    7.2778   15.1354 H   0  0  0  0  0  0  0  0  0  0  0  0
   51.6425    8.6953   14.9214 H   0  0  0  0  0  0  0  0  0  0  0  0
   42.7827    5.7906   11.0444 H   0  0  0  0  0  0  0  0  0  0  0  0
   42.4665    5.3359   12.7127 H   0  0  0  0  0  0  0  0  0  0  0  0
   48.8963    8.6401   16.2802 H   0  0  0  0  0  0  0  0  0  0  0  0
   50.4657    8.8902   17.0458 H   0  0  0  0  0  0  0  0  0  0  0  0
   46.5215    8.2124   10.8331 H   0  0  0  0  0  0  0  0  0  0  0  0
   48.6273    9.1995   11.5600 H   0  0  0  0  0  0  0  0  0  0  0  0
   48.2237    8.5726   15.3705 H   0  0  0  0  0  0  0  0  0  0  0  0
   43.9885    7.2246   12.8641 H   0  0  0  0  0  0  0  0  0  0  0  0
  1  3  1  0
  3  2  2  0
  4  1  2  0
  5  1  1  0
  2  6  1  0
  6  7  2  0
  6  8  1  0
 24 16  1  0
 25 14  1  0
 26 32  1  0
 27 31  1  0
 28 25  2  0
 29 23  1  0
 30 24  1  0
 31 29  1  0
 32 30  1  0
 16 20  2  0
 14 13  2  0
 19 28  1  0
 10  9  2  0
 11  9  1  0
 12 10  1  0
 13 11  1  0
 14 12  1  0
 15  9  1  0
 16 10  1  0
 17 11  2  0
 18 12  2  0
 19 22  2  0
 20 21  1  0
 21 15  2  0
 22 13  1  0
 23 15  1  0
 33 35  1  0
 35 34  2  0
 36 33  2  0
 37 33  1  0
 34 38  1  0
 38 39  2  0
 38 40  1  0
  2 41  1  0
  3 42  1  0
  5 43  1  0
  8 44  1  0
 20 45  1  0
 21 46  1  0
 22 47  1  0
 23 48  1  0
 24 49  1  0
 25 50  1  0
 26 51  1  0
 26 52  1  0
 27 53  1  0
 27 54  1  0
 28 55  1  0
 29 56  1  0
 29 57  1  0
 30 58  1  0
 30 59  1  0
 31 60  1  0
 31 61  1  0
 32 62  1  0
 32 63  1  0
 34 64  1  0
 35 65  1  0
 37 66  1  0
 40 67  1  0
M  END
> <Uni-Dock RESULT> 
ENERGY=   -5.361  LOWER_BOUND=    1.838  UPPER_BOUND=    5.309
INTER + INTRA:          -5.361
INTER:                  -5.361
INTRA:                   0.000
UNBOUND:                 0.000

$$$$

     RDKit          3D

 67 67  0  0  0  0  0  0  0  0999 V2000
   48.5561    8.1590   18.3324 C   0  0  0  0  0  0  0  0  0  0  0  0
   47.8485   10.4025   19.1247 C   0  0  0  0  0  0  0  0  0  0  0  0
   47.9737    9.4947   18.1475 C   0  0  0  0  0  0  0  0  0  0  0  0
   49.3229    7.7873   19.1976 O   0  0  0  0  0  0  0  0  0  0  0  0
   48.1495    7.3502   17.3405 O   0  0  0  0  0  0  0  0  0  0  0  0
   48.1786   10.1676   20.5321 C   0  0  0  0  0  0  0  0  0  0  0  0
   48.8246   10.9238   21.2323 O   0  0  0  0  0  0  0  0  0  0  0  0
   47.5754    9.0704   21.0113 O   0  0  0  0  0  0  0  0  0  0  0  0
   48.0625    8.5678   18.9619 C   0  0  0  0  0  0  0  0  0  0  0  0
   47.5250    9.4241   19.9455 C   0  0  0  0  0  0  0  0  0  0  0  0
   48.2826    7.1313   19.2896 C   0  0  0  0  0  0  0  0  0  0  0  0
   47.2253    8.8800   21.3036 C   0  0  0  0  0  0  0  0  0  0  0  0
   48.1125    6.6661   20.6654 C   0  0  0  0  0  0  0  0  0  0  0  0
   47.6043    7.5006   21.6416 C   0  0  0  0  0  0  0  0  0  0  0  0
   48.3598    9.0479   17.6599 C   0  0  0  0  0  0  0  0  0  0  0  0
   47.2989   10.7936   19.6581 C   0  0  0  0  0  0  0  0  0  0  0  0
   48.5905    6.3122   18.4281 O   0  0  0  0  0  0  0  0  0  0  0  0
   46.6681    9.5520   22.1673 O   0  0  0  0  0  0  0  0  0  0  0  0
   48.2978    4.8795   22.2807 N   0  0  0  0  0  0  0  0  0  0  0  0
   47.5731   11.2453   18.3627 C   0  0  0  0  0  0  0  0  0  0  0  0
   48.1139   10.3984   17.3936 C   0  0  0  0  0  0  0  0  0  0  0  0
   48.4415    5.3682   21.0245 C   0  0  0  0  0  0  0  0  0  0  0  0
   49.0041    8.2382   16.7029 N   0  0  0  0  0  0  0  0  0  0  0  0
   46.7289   11.6721   20.6018 N   0  0  0  0  0  0  0  0  0  0  0  0
   47.4388    7.0266   22.9455 C   0  0  0  0  0  0  0  0  0  0  0  0
   48.8474   12.1648   22.5812 N   0  0  0  0  0  0  0  0  0  0  0  0
   48.9777    7.3718   13.0215 N   0  0  0  0  0  0  0  0  0  0  0  0
   47.7991    5.7188   23.2133 C   0  0  0  0  0  0  0  0  0  0  0  0
   48.6493    8.4009   15.2926 C   0  0  0  0  0  0  0  0  0  0  0  0
   47.3196   13.0067   20.7641 C   0  0  0  0  0  0  0  0  0  0  0  0
   49.2860    7.2748   14.4504 C   0  0  0  0  0  0  0  0  0  0  0  0
   48.7464   12.9611   21.3544 C   0  0  0  0  0  0  0  0  0  0  0  0
   47.9414   10.2114   20.4771 C   0  0  0  0  0  0  0  0  0  0  0  0
   47.4242    8.4126   18.8406 C   0  0  0  0  0  0  0  0  0  0  0  0
   47.0540    9.2497   19.8191 C   0  0  0  0  0  0  0  0  0  0  0  0
   48.0192   10.3795   21.6793 O   0  0  0  0  0  0  0  0  0  0  0  0
   48.5788   10.9903   19.5916 O   0  0  0  0  0  0  0  0  0  0  0  0
   48.8030    8.2703   18.3545 C   0  0  0  0  0  0  0  0  0  0  0  0
   49.8353    8.5447   18.9318 O   0  0  0  0  0  0  0  0  0  0  0  0
   48.7926    7.7228   17.1284 O   0  0  0  0  0  0  0  0  0  0  0  0
   47.4971   11.4036   18.9059 H   0  0  0  0  0  0  0  0  0  0  0  0
   47.6740    9.7417   17.1357 H   0  0  0  0  0  0  0  0  0  0  0  0
   48.5835    6.4955   17.5454 H   0  0  0  0  0  0  0  0  0  0  0  0
   47.8969    9.0057   21.9340 H   0  0  0  0  0  0  0  0  0  0  0  0
   47.3640   12.2736   18.0805 H   0  0  0  0  0  0  0  0  0  0  0  0
   48.3531   10.8287   16.4252 H   0  0  0  0  0  0  0  0  0  0  0  0
   48.8407    4.6609   20.3009 H   0  0  0  0  0  0  0  0  0  0  0  0
   48.9549    7.2498   16.9949 H   0  0  0  0  0  0  0  0  0  0  0  0
   46.7010   11.2023   21.5221 H   0  0  0  0  0  0  0  0  0  0  0  0
   47.0391    7.6595   23.7319 H   0  0  0  0  0  0  0  0  0  0  0  0
   49.7551   12.3176   23.0166 H   0  0  0  0  0  0  0  0  0  0  0  0
   48.1419   12.4643   23.2527 H   0  0  0  0  0  0  0  0  0  0  0  0
   47.9677    7.3541   12.8855 H   0  0  0  0  0  0  0  0  0  0  0  0
   49.3025    8.2679   12.6611 H   0  0  0  0  0  0  0  0  0  0  0  0
   47.6926    5.2987   24.2099 H   0  0  0  0  0  0  0  0  0  0  0  0
   47.5592    8.3709   15.1724 H   0  0  0  0  0  0  0  0  0  0  0  0
   49.0139    9.3640   14.9170 H   0  0  0  0  0  0  0  0  0  0  0  0
   47.3134   13.5747   19.8281 H   0  0  0  0  0  0  0  0  0  0  0  0
   46.6746   13.5618   21.4562 H   0  0  0  0  0  0  0  0  0  0  0  0
   48.9418    6.3002   14.8158 H   0  0  0  0  0  0  0  0  0  0  0  0
   50.3747    7.2898   14.5762 H   0  0  0  0  0  0  0  0  0  0  0  0
   49.4414   12.5459   20.6169 H   0  0  0  0  0  0  0  0  0  0  0  0
   49.0713   13.9859   21.5661 H   0  0  0  0  0  0  0  0  0  0  0  0
   46.6947    7.7543   18.3831 H   0  0  0  0  0  0  0  0  0  0  0  0
   46.0388    9.2426   20.1974 H   0  0  0  0  0  0  0  0  0  0  0  0
   49.1566   11.5560   20.1441 H   0  0  0  0  0  0  0  0  0  0  0  0
   49.7422    7.6678   16.8921 H   0  0  0  0  0  0  0  0  0  0  0  0
  1  3  1  0
  3  2  2  0
  4  1  2  0
  5  1  1  0
  2  6  1  0
  6  7  2  0
  6  8  1  0
 24 16  1  0
 25 14  1  0
 26 32  1  0
 27 31  1  0
 28 25  2  0
 29 23  1  0
 30 24  1  0
 31 29  1  0
 32 30  1  0
 16 20  2  0
 14 13  2  0
 19 28  1  0
 10  9  2  0
 11  9  1  0
 12 10  1  0
 13 11  1  0
 14 12  1  0
 15  9  1  0
 16 10  1  0
 17 11  2  0
 18 12  2  0
 19 22  2  0
 20 21  1  0
 21 15  2  0
 22 13  1  0
 23 15  1  0
 33 35  1  0
 35 34  2  0
 36 33  2  0
 37 33  1  0
 34 38  1  0
 38 39  2  0
 38 40  1  0
  2 41  1  0
  3 42  1  0
  5 43  1  0
  8 44  1  0
 20 45  1  0
 21 46  1  0
 22 47  1  0
 23 48  1  0
 24 49  1  0
 25 50  1  0
 26 51  1  0
 26 52  1  0
 27 53  1  0
 27 54  1  0
 28 55  1  0
 29 56  1  0
 29 57  1  0
 30 58  1  0
 30 59  1  0
 31 60  1  0
 31 61  1  0
 32 62  1  0
 32 63  1  0
 34 64  1  0
 35 65  1  0
 37 66  1  0
 40 67  1  0
M  END
> <Uni-Dock RESULT> 
ENERGY=   -5.193  LOWER_BOUND=    5.687  UPPER_BOUND=    9.642
INTER + INTRA:          -5.193
INTER:                  -5.193
INTRA:                   0.000
UNBOUND:                 0.000

$$$$

     RDKit          3D

 67 67  0  0  0  0  0  0  0  0999 V2000
   45.1885    8.4577   11.9340 C   0  0  0  0  0  0  0  0  0  0  0  0
   47.3478    9.5944   12.3894 C   0  0  0  0  0  0  0  0  0  0  0  0
   46.0157    9.6291   12.2521 C   0  0  0  0  0  0  0  0  0  0  0  0
   45.5266    7.4241   11.3934 O   0  0  0  0  0  0  0  0  0  0  0  0
   43.9169    8.6940   12.2952 O   0  0  0  0  0  0  0  0  0  0  0  0
   48.1623    8.3781   12.3418 C   0  0  0  0  0  0  0  0  0  0  0  0
   49.1926    8.2534   11.7077 O   0  0  0  0  0  0  0  0  0  0  0  0
   47.7112    7.4403   13.1870 O   0  0  0  0  0  0  0  0  0  0  0  0
   45.9207    8.4122   12.4526 C   0  0  0  0  0  0  0  0  0  0  0  0
   47.2203    8.4342   13.0004 C   0  0  0  0  0  0  0  0  0  0  0  0
   45.1210    7.1574   12.5271 C   0  0  0  0  0  0  0  0  0  0  0  0
   47.7789    7.1892   13.6074 C   0  0  0  0  0  0  0  0  0  0  0  0
   45.7484    5.9234   12.9982 C   0  0  0  0  0  0  0  0  0  0  0  0
   47.0274    5.9290   13.5198 C   0  0  0  0  0  0  0  0  0  0  0  0
   45.3555    9.5752   11.8679 C   0  0  0  0  0  0  0  0  0  0  0  0
   48.0002    9.6167   12.9494 C   0  0  0  0  0  0  0  0  0  0  0  0
   43.9332    7.1291   12.2170 O   0  0  0  0  0  0  0  0  0  0  0  0
   48.8629    7.1741   14.1842 O   0  0  0  0  0  0  0  0  0  0  0  0
   45.5971    3.5428   13.3787 N   0  0  0  0  0  0  0  0  0  0  0  0
   47.4192   10.7613   12.3927 C   0  0  0  0  0  0  0  0  0  0  0  0
   46.1364   10.7348   11.8427 C   0  0  0  0  0  0  0  0  0  0  0  0
   45.0700    4.7155   12.9495 C   0  0  0  0  0  0  0  0  0  0  0  0
   44.1077    9.5414   11.2131 N   0  0  0  0  0  0  0  0  0  0  0  0
   49.2878    9.6892   13.5184 N   0  0  0  0  0  0  0  0  0  0  0  0
   47.5983    4.7380   13.9758 C   0  0  0  0  0  0  0  0  0  0  0  0
   51.0229    8.1515   11.7090 N   0  0  0  0  0  0  0  0  0  0  0  0
   40.9172   11.5221   10.7645 N   0  0  0  0  0  0  0  0  0  0  0  0
   46.8491    3.5797   13.8830 C   0  0  0  0  0  0  0  0  0  0  0  0
   43.2396   10.7164   11.2959 C   0  0  0  0  0  0  0  0  0  0  0  0
   50.3568   10.3445   12.7539 C   0  0  0  0  0  0  0  0  0  0  0  0
   41.8455   10.3896   10.7193 C   0  0  0  0  0  0  0  0  0  0  0  0
   50.7365    9.5698   11.4726 C   0  0  0  0  0  0  0  0  0  0  0  0
   48.1552    8.5014   12.5562 C   0  0  0  0  0  0  0  0  0  0  0  0
   45.7248    8.5401   13.0783 C   0  0  0  0  0  0  0  0  0  0  0  0
   47.0071    8.5136   13.4656 C   0  0  0  0  0  0  0  0  0  0  0  0
   49.1148    7.7605   12.6541 O   0  0  0  0  0  0  0  0  0  0  0  0
   48.0948    9.4980   11.6616 O   0  0  0  0  0  0  0  0  0  0  0  0
   45.2837    8.4603   11.6795 C   0  0  0  0  0  0  0  0  0  0  0  0
   45.8834    8.0039   10.7275 O   0  0  0  0  0  0  0  0  0  0  0  0
   44.0358    8.9446   11.5738 O   0  0  0  0  0  0  0  0  0  0  0  0
   47.9117   10.5083   12.5317 H   0  0  0  0  0  0  0  0  0  0  0  0
   45.4860   10.5711   12.3342 H   0  0  0  0  0  0  0  0  0  0  0  0
   43.4482    7.8698   12.0465 H   0  0  0  0  0  0  0  0  0  0  0  0
   48.3092    6.6790   13.0392 H   0  0  0  0  0  0  0  0  0  0  0  0
   47.9583   11.7046   12.3816 H   0  0  0  0  0  0  0  0  0  0  0  0
   45.7683   11.6453   11.3782 H   0  0  0  0  0  0  0  0  0  0  0  0
   44.0585    4.6459   12.5555 H   0  0  0  0  0  0  0  0  0  0  0  0
   43.6040    8.6785   11.4706 H   0  0  0  0  0  0  0  0  0  0  0  0
   49.5940    8.7360   13.7757 H   0  0  0  0  0  0  0  0  0  0  0  0
   48.6004    4.7135   14.3929 H   0  0  0  0  0  0  0  0  0  0  0  0
   51.4364    7.7404   10.8742 H   0  0  0  0  0  0  0  0  0  0  0  0
   51.7060    8.0520   12.4585 H   0  0  0  0  0  0  0  0  0  0  0  0
   40.8094   11.8405   11.7268 H   0  0  0  0  0  0  0  0  0  0  0  0
   41.3073   12.3057   10.2426 H   0  0  0  0  0  0  0  0  0  0  0  0
   47.2440    2.6255   14.2215 H   0  0  0  0  0  0  0  0  0  0  0  0
   43.1339   11.0340   12.3407 H   0  0  0  0  0  0  0  0  0  0  0  0
   43.6670   11.5467   10.7220 H   0  0  0  0  0  0  0  0  0  0  0  0
   50.1099   11.3832   12.5111 H   0  0  0  0  0  0  0  0  0  0  0  0
   51.2373   10.3900   13.4065 H   0  0  0  0  0  0  0  0  0  0  0  0
   41.4027    9.5538   11.2737 H   0  0  0  0  0  0  0  0  0  0  0  0
   41.9443   10.0583    9.6792 H   0  0  0  0  0  0  0  0  0  0  0  0
   49.9245    9.6392   10.7411 H   0  0  0  0  0  0  0  0  0  0  0  0
   51.6181   10.0424   11.0252 H   0  0  0  0  0  0  0  0  0  0  0  0
   44.9339    8.5818   13.8183 H   0  0  0  0  0  0  0  0  0  0  0  0
   47.2660    8.4823   14.5172 H   0  0  0  0  0  0  0  0  0  0  0  0
   48.8856    9.3627   11.1001 H   0  0  0  0  0  0  0  0  0  0  0  0
   43.8316    8.8502   10.6199 H   0  0  0  0  0  0  0  0  0  0  0  0
  1  3  1  0
  3  2  2  0
  4  1  2  0
  5  1  1  0
  2  6  1  0
  6  7  2  0
  6  8  1  0
 24 16  1  0
 25 14  1  0
 26 32  1  0
 27 31  1  0
 28 25  2  0
 29 23  1  0
 30 24  1  0
 31 29  1  0
 32 30  1  0
 16 20  2  0
 14 13  2  0
 19 28  1  0
 10  9  2  0
 11  9  1  0
 12 10  1  0
 13 11  1  0
 14 12  1  0
 15  9  1  0
 16 10  1  0
 17 11  2  0
 18 12  2  0
 19 22  2  0
 20 21  1  0
 21 15  2  0
 22 13  1  0
 23 15  1  0
 33 35  1  0
 35 34  2  0
 36 33  2  0
 37 33  1  0
 34 38  1  0
 38 39  2  0
 38 40  1  0
  2 41  1  0
  3 42  1  0
  5 43  1  0
  8 44  1  0
 20 45  1  0
 21 46  1  0
 22 47  1  0
 23 48  1  0
 24 49  1  0
 25 50  1  0
 26 51  1  0
 26 52  1  0
 27 53  1  0
 27 54  1  0
 28 55  1  0
 29 56  1  0
 29 57  1  0
 30 58  1  0
 30 59  1  0
 31 60  1  0
 31 61  1  0
 32 62  1  0
 32 63  1  0
 34 64  1  0
 35 65  1  0
 37 66  1  0
 40 67  1  0
M  END
> <Uni-Dock RESULT> 
ENERGY=   -4.693  LOWER_BOUND=    1.958  UPPER_BOUND=    5.922
INTER + INTRA:          -4.693
INTER:                  -4.693
INTRA:                   0.000
UNBOUND:                 0.000

$$$$

     RDKit          3D

 67 67  0  0  0  0  0  0  0  0999 V2000
   47.8926    8.6416   19.1324 C   0  0  0  0  0  0  0  0  0  0  0  0
   48.5431    6.6385   17.8184 C   0  0  0  0  0  0  0  0  0  0  0  0
   48.5828    7.9609   18.0288 C   0  0  0  0  0  0  0  0  0  0  0  0
   46.9310    8.2579   19.7671 O   0  0  0  0  0  0  0  0  0  0  0  0
   48.4592    9.8403   19.3455 O   0  0  0  0  0  0  0  0  0  0  0  0
   47.8941    5.6696   18.7044 C   0  0  0  0  0  0  0  0  0  0  0  0
   47.1564    4.7747   18.3379 O   0  0  0  0  0  0  0  0  0  0  0  0
   48.3066    5.7973   19.9736 O   0  0  0  0  0  0  0  0  0  0  0  0
   48.2579    7.8249   19.2146 C   0  0  0  0  0  0  0  0  0  0  0  0
   48.6148    6.4635   19.1222 C   0  0  0  0  0  0  0  0  0  0  0  0
   47.8822    8.3901   20.5409 C   0  0  0  0  0  0  0  0  0  0  0  0
   48.5705    5.6114   20.3479 C   0  0  0  0  0  0  0  0  0  0  0  0
   47.7127    7.4993   21.6881 C   0  0  0  0  0  0  0  0  0  0  0  0
   48.0414    6.1604   21.6046 C   0  0  0  0  0  0  0  0  0  0  0  0
   48.2882    8.6664   18.0723 C   0  0  0  0  0  0  0  0  0  0  0  0
   48.9832    5.9017   17.8740 C   0  0  0  0  0  0  0  0  0  0  0  0
   47.7239    9.5963   20.7075 O   0  0  0  0  0  0  0  0  0  0  0  0
   48.9618    4.4474   20.3478 O   0  0  0  0  0  0  0  0  0  0  0  0
   47.0627    7.2021   23.9955 N   0  0  0  0  0  0  0  0  0  0  0  0
   49.0326    6.7501   16.7627 C   0  0  0  0  0  0  0  0  0  0  0  0
   48.6700    8.0951   16.8544 C   0  0  0  0  0  0  0  0  0  0  0  0
   47.2327    7.9782   22.8971 C   0  0  0  0  0  0  0  0  0  0  0  0
   47.8244    9.9965   18.1216 N   0  0  0  0  0  0  0  0  0  0  0  0
   49.3819    4.5556   17.7477 N   0  0  0  0  0  0  0  0  0  0  0  0
   47.8830    5.3339   22.7200 C   0  0  0  0  0  0  0  0  0  0  0  0
   46.9104    2.9856   18.0235 N   0  0  0  0  0  0  0  0  0  0  0  0
   48.6162   13.4819   16.8852 N   0  0  0  0  0  0  0  0  0  0  0  0
   47.3921    5.8976   23.8833 C   0  0  0  0  0  0  0  0  0  0  0  0
   48.4935   11.0042   17.2982 C   0  0  0  0  0  0  0  0  0  0  0  0
   48.8533    3.7698   16.6253 C   0  0  0  0  0  0  0  0  0  0  0  0
   47.9921   12.4154   17.6721 C   0  0  0  0  0  0  0  0  0  0  0  0
   47.3309    3.5293   16.7284 C   0  0  0  0  0  0  0  0  0  0  0  0
   48.1398    5.6542   18.6803 C   0  0  0  0  0  0  0  0  0  0  0  0
   48.8964    7.9136   19.3899 C   0  0  0  0  0  0  0  0  0  0  0  0
   49.0904    6.5924   19.2815 C   0  0  0  0  0  0  0  0  0  0  0  0
   47.8069    4.5904   19.1671 O   0  0  0  0  0  0  0  0  0  0  0  0
   47.7648    6.0407   17.4526 O   0  0  0  0  0  0  0  0  0  0  0  0
   47.6544    8.5990   19.0089 C   0  0  0  0  0  0  0  0  0  0  0  0
   46.5383    8.1312   18.9089 O   0  0  0  0  0  0  0  0  0  0  0  0
   47.9036    9.9036   18.8119 O   0  0  0  0  0  0  0  0  0  0  0  0
   48.9954    6.2068   16.9338 H   0  0  0  0  0  0  0  0  0  0  0  0
   49.1149    8.6046   17.3380 H   0  0  0  0  0  0  0  0  0  0  0  0
   47.9386   10.2144   20.0871 H   0  0  0  0  0  0  0  0  0  0  0  0
   47.7844    5.1283   20.4621 H   0  0  0  0  0  0  0  0  0  0  0  0
   49.3623    6.3767   15.7970 H   0  0  0  0  0  0  0  0  0  0  0  0
   48.6794    8.6831   15.9410 H   0  0  0  0  0  0  0  0  0  0  0  0
   46.9618    9.0234   23.0286 H   0  0  0  0  0  0  0  0  0  0  0  0
   47.7463   10.3005   19.1045 H   0  0  0  0  0  0  0  0  0  0  0  0
   49.1751    4.0610   18.6314 H   0  0  0  0  0  0  0  0  0  0  0  0
   48.1358    4.2787   22.6837 H   0  0  0  0  0  0  0  0  0  0  0  0
   45.9397    2.6826   17.9704 H   0  0  0  0  0  0  0  0  0  0  0  0
   47.4658    2.1634   18.2555 H   0  0  0  0  0  0  0  0  0  0  0  0
   49.6281   13.4498   17.0034 H   0  0  0  0  0  0  0  0  0  0  0  0
   48.4356   13.3269   15.8943 H   0  0  0  0  0  0  0  0  0  0  0  0
   47.2479    5.3012   24.7803 H   0  0  0  0  0  0  0  0  0  0  0  0
   49.5790   10.9538   17.4491 H   0  0  0  0  0  0  0  0  0  0  0  0
   48.2819   10.8303   16.2368 H   0  0  0  0  0  0  0  0  0  0  0  0
   49.1027    4.2174   15.6576 H   0  0  0  0  0  0  0  0  0  0  0  0
   49.3610    2.7977   16.6460 H   0  0  0  0  0  0  0  0  0  0  0  0
   48.1855   12.6071   18.7341 H   0  0  0  0  0  0  0  0  0  0  0  0
   46.9057   12.4694   17.5369 H   0  0  0  0  0  0  0  0  0  0  0  0
   46.7933    4.4683   16.5589 H   0  0  0  0  0  0  0  0  0  0  0  0
   47.0308    2.8353   15.9354 H   0  0  0  0  0  0  0  0  0  0  0  0
   49.6674    8.5431   19.8190 H   0  0  0  0  0  0  0  0  0  0  0  0
   49.9935    6.1333   19.6656 H   0  0  0  0  0  0  0  0  0  0  0  0
   47.1146    5.3621   17.1772 H   0  0  0  0  0  0  0  0  0  0  0  0
   47.0290   10.2713   18.5663 H   0  0  0  0  0  0  0  0  0  0  0  0
  1  3  1  0
  3  2  2  0
  4  1  2  0
  5  1  1  0
  2  6  1  0
  6  7  2  0
  6  8  1  0
 24 16  1  0
 25 14  1  0
 26 32  1  0
 27 31  1  0
 28 25  2  0
 29 23  1  0
 30 24  1  0
 31 29  1  0
 32 30  1  0
 16 20  2  0
 14 13  2  0
 19 28  1  0
 10  9  2  0
 11  9  1  0
 12 10  1  0
 13 11  1  0
 14 12  1  0
 15  9  1  0
 16 10  1  0
 17 11  2  0
 18 12  2  0
 19 22  2  0
 20 21  1  0
 21 15  2  0
 22 13  1  0
 23 15  1  0
 33 35  1  0
 35 34  2  0
 36 33  2  0
 37 33  1  0
 34 38  1  0
 38 39  2  0
 38 40  1  0
  2 41  1  0
  3 42  1  0
  5 43  1  0
  8 44  1  0
 20 45  1  0
 21 46  1  0
 22 47  1  0
 23 48  1  0
 24 49  1  0
 25 50  1  0
 26 51  1  0
 26 52  1  0
 27 53  1  0
 27 54  1  0
 28 55  1  0
 29 56  1  0
 29 57  1  0
 30 58  1  0
 30 59  1  0
 31 60  1  0
 31 61  1  0
 32 62  1  0
 32 63  1  0
 34 64  1  0
 35 65  1  0
 37 66  1  0
 40 67  1  0
M  END
> <Uni-Dock RESULT> 
ENERGY=   -4.610  LOWER_BOUND=    5.993  UPPER_BOUND=    8.415
INTER + INTRA:          -4.610
INTER:                  -4.610
INTRA:                   0.000
UNBOUND:                 0.000

$$$$

     RDKit          3D

 67 67  0  0  0  0  0  0  0  0999 V2000
   48.2356    8.4616   20.3750 C   0  0  0  0  0  0  0  0  0  0  0  0
   48.8018    7.5850   18.1226 C   0  0  0  0  0  0  0  0  0  0  0  0
   48.2754    7.4170   19.3431 C   0  0  0  0  0  0  0  0  0  0  0  0
   48.9434    9.4430   20.4777 O   0  0  0  0  0  0  0  0  0  0  0  0
   47.2893    8.1635   21.2799 O   0  0  0  0  0  0  0  0  0  0  0  0
   49.3223    8.8515   17.6032 C   0  0  0  0  0  0  0  0  0  0  0  0
   50.3824    8.9835   17.0217 O   0  0  0  0  0  0  0  0  0  0  0  0
   48.4327    9.8468   17.7271 O   0  0  0  0  0  0  0  0  0  0  0  0
   48.1401    8.6367   19.4990 C   0  0  0  0  0  0  0  0  0  0  0  0
   48.2885    8.7982   18.1057 C   0  0  0  0  0  0  0  0  0  0  0  0
   47.7768    9.8162   20.3335 C   0  0  0  0  0  0  0  0  0  0  0  0
   48.1163   10.1545   17.5046 C   0  0  0  0  0  0  0  0  0  0  0  0
   47.7557   11.1502   19.7351 C   0  0  0  0  0  0  0  0  0  0  0  0
   47.9181   11.3229   18.3743 C   0  0  0  0  0  0  0  0  0  0  0  0
   48.2954    7.3637   20.1067 C   0  0  0  0  0  0  0  0  0  0  0  0
   48.6268    7.6914   17.2874 C   0  0  0  0  0  0  0  0  0  0  0  0
   47.4754    9.7009   21.5183 O   0  0  0  0  0  0  0  0  0  0  0  0
   48.1378   10.3376   16.2906 O   0  0  0  0  0  0  0  0  0  0  0  0
   47.5178   13.5376   20.0157 N   0  0  0  0  0  0  0  0  0  0  0  0
   48.7513    6.4388   17.8980 C   0  0  0  0  0  0  0  0  0  0  0  0
   48.6133    6.2828   19.2784 C   0  0  0  0  0  0  0  0  0  0  0  0
   47.5552   12.2781   20.5155 C   0  0  0  0  0  0  0  0  0  0  0  0
   48.2662    7.2045   21.5069 N   0  0  0  0  0  0  0  0  0  0  0  0
   48.7473    7.8048   15.8875 N   0  0  0  0  0  0  0  0  0  0  0  0
   47.8798   12.6075   17.8262 C   0  0  0  0  0  0  0  0  0  0  0  0
   51.2729    9.2438   15.4407 N   0  0  0  0  0  0  0  0  0  0  0  0
   46.9767    4.9122   24.2246 N   0  0  0  0  0  0  0  0  0  0  0  0
   47.6802   13.6747   18.6823 C   0  0  0  0  0  0  0  0  0  0  0  0
   47.6919    5.9786   22.0622 C   0  0  0  0  0  0  0  0  0  0  0  0
   49.8850    7.1528   15.2263 C   0  0  0  0  0  0  0  0  0  0  0  0
   47.5443    6.1062   23.5934 C   0  0  0  0  0  0  0  0  0  0  0  0
   51.2411    7.7874   15.6061 C   0  0  0  0  0  0  0  0  0  0  0  0
   49.1232    8.7565   17.4914 C   0  0  0  0  0  0  0  0  0  0  0  0
   47.4904    8.5732   19.3572 C   0  0  0  0  0  0  0  0  0  0  0  0
   47.7739    8.7606   18.0612 C   0  0  0  0  0  0  0  0  0  0  0  0
   49.5536    9.5847   16.7114 O   0  0  0  0  0  0  0  0  0  0  0  0
   49.8046    7.6523   17.8282 O   0  0  0  0  0  0  0  0  0  0  0  0
   48.5035    8.4348   20.4117 C   0  0  0  0  0  0  0  0  0  0  0  0
   49.6562    8.8163   20.4009 O   0  0  0  0  0  0  0  0  0  0  0  0
   47.9587    7.8340   21.4818 O   0  0  0  0  0  0  0  0  0  0  0  0
   48.8858    6.7494   17.4384 H   0  0  0  0  0  0  0  0  0  0  0  0
   47.8816    6.4507   19.6359 H   0  0  0  0  0  0  0  0  0  0  0  0
   47.3377    8.9051   21.9191 H   0  0  0  0  0  0  0  0  0  0  0  0
   48.9042   10.6321   17.3808 H   0  0  0  0  0  0  0  0  0  0  0  0
   48.9553    5.5524   17.3036 H   0  0  0  0  0  0  0  0  0  0  0  0
   48.7768    5.2918   19.6925 H   0  0  0  0  0  0  0  0  0  0  0  0
   47.4151   12.2084   21.5919 H   0  0  0  0  0  0  0  0  0  0  0  0
   47.8588    8.0460   21.9433 H   0  0  0  0  0  0  0  0  0  0  0  0
   48.7378    8.8061   15.6309 H   0  0  0  0  0  0  0  0  0  0  0  0
   48.0018   12.7724   16.7601 H   0  0  0  0  0  0  0  0  0  0  0  0
   52.2301    9.5793   15.5306 H   0  0  0  0  0  0  0  0  0  0  0  0
   50.9559    9.4975   14.5061 H   0  0  0  0  0  0  0  0  0  0  0  0
   46.0625    4.7113   23.8211 H   0  0  0  0  0  0  0  0  0  0  0  0
   47.5656    4.1053   24.0228 H   0  0  0  0  0  0  0  0  0  0  0  0
   47.6427   14.6952   18.3103 H   0  0  0  0  0  0  0  0  0  0  0  0
   46.7067    5.7892   21.6180 H   0  0  0  0  0  0  0  0  0  0  0  0
   48.3409    5.1221   21.8459 H   0  0  0  0  0  0  0  0  0  0  0  0
   49.9046    6.0740   15.4126 H   0  0  0  0  0  0  0  0  0  0  0  0
   49.7378    7.2680   14.1454 H   0  0  0  0  0  0  0  0  0  0  0  0
   46.9054    6.9642   23.8330 H   0  0  0  0  0  0  0  0  0  0  0  0
   48.5230    6.3092   24.0432 H   0  0  0  0  0  0  0  0  0  0  0  0
   51.4822    7.5545   16.6487 H   0  0  0  0  0  0  0  0  0  0  0  0
   52.0243    7.3402   14.9838 H   0  0  0  0  0  0  0  0  0  0  0  0
   46.4594    8.5576   19.6916 H   0  0  0  0  0  0  0  0  0  0  0  0
   46.9835    8.9486   17.3444 H   0  0  0  0  0  0  0  0  0  0  0  0
   50.6863    7.7831   17.4226 H   0  0  0  0  0  0  0  0  0  0  0  0
   48.6991    7.7875   22.1223 H   0  0  0  0  0  0  0  0  0  0  0  0
  1  3  1  0
  3  2  2  0
  4  1  2  0
  5  1  1  0
  2  6  1  0
  6  7  2  0
  6  8  1  0
 24 16  1  0
 25 14  1  0
 26 32  1  0
 27 31  1  0
 28 25  2  0
 29 23  1  0
 30 24  1  0
 31 29  1  0
 32 30  1  0
 16 20  2  0
 14 13  2  0
 19 28  1  0
 10  9  2  0
 11  9  1  0
 12 10  1  0
 13 11  1  0
 14 12  1  0
 15  9  1  0
 16 10  1  0
 17 11  2  0
 18 12  2  0
 19 22  2  0
 20 21  1  0
 21 15  2  0
 22 13  1  0
 23 15  1  0
 33 35  1  0
 35 34  2  0
 36 33  2  0
 37 33  1  0
 34 38  1  0
 38 39  2  0
 38 40  1  0
  2 41  1  0
  3 42  1  0
  5 43  1  0
  8 44  1  0
 20 45  1  0
 21 46  1  0
 22 47  1  0
 23 48  1  0
 24 49  1  0
 25 50  1  0
 26 51  1  0
 26 52  1  0
 27 53  1  0
 27 54  1  0
 28 55  1  0
 29 56  1  0
 29 57  1  0
 30 58  1  0
 30 59  1  0
 31 60  1  0
 31 61  1  0
 32 62  1  0
 32 63  1  0
 34 64  1  0
 35 65  1  0
 37 66  1  0
 40 67  1  0
M  END
> <Uni-Dock RESULT> 
ENERGY=   -4.485  LOWER_BOUND=    6.078  UPPER_BOUND=    8.121
INTER + INTRA:          -4.485
INTER:                  -4.485
INTRA:                   0.000
UNBOUND:                 0.000

$$$$

     RDKit          3D

 67 67  0  0  0  0  0  0  0  0999 V2000
   47.0665    7.4794   12.9349 C   0  0  0  0  0  0  0  0  0  0  0  0
   46.3975    9.7410   12.1605 C   0  0  0  0  0  0  0  0  0  0  0  0
   46.0809    8.5160   12.6008 C   0  0  0  0  0  0  0  0  0  0  0  0
   48.2127    7.3798   12.5461 O   0  0  0  0  0  0  0  0  0  0  0  0
   46.5022    6.5662   13.7417 O   0  0  0  0  0  0  0  0  0  0  0  0
   47.7617   10.2604   12.0412 C   0  0  0  0  0  0  0  0  0  0  0  0
   48.2003   10.8520   11.0733 O   0  0  0  0  0  0  0  0  0  0  0  0
   48.4510   10.1234   13.1829 O   0  0  0  0  0  0  0  0  0  0  0  0
   47.2066    8.3536   13.0873 C   0  0  0  0  0  0  0  0  0  0  0  0
   47.4060    9.7477   13.0081 C   0  0  0  0  0  0  0  0  0  0  0  0
   48.2262    7.5106   13.7724 C   0  0  0  0  0  0  0  0  0  0  0  0
   48.6522   10.3413   13.5783 C   0  0  0  0  0  0  0  0  0  0  0  0
   49.4955    8.1033   14.1915 C   0  0  0  0  0  0  0  0  0  0  0  0
   49.7097    9.4649   14.1019 C   0  0  0  0  0  0  0  0  0  0  0  0
   46.0350    7.7529   12.5576 C   0  0  0  0  0  0  0  0  0  0  0  0
   46.4486   10.5740   12.3681 C   0  0  0  0  0  0  0  0  0  0  0  0
   48.0261    6.3233   14.0136 O   0  0  0  0  0  0  0  0  0  0  0  0
   48.8348   11.5548   13.6248 O   0  0  0  0  0  0  0  0  0  0  0  0
   51.7070    7.8103   15.1182 N   0  0  0  0  0  0  0  0  0  0  0  0
   45.2875    9.9698   11.8739 C   0  0  0  0  0  0  0  0  0  0  0  0
   45.0964    8.5888   11.9449 C   0  0  0  0  0  0  0  0  0  0  0  0
   50.5138    7.3161   14.7065 C   0  0  0  0  0  0  0  0  0  0  0  0
   45.8730    6.3531   12.5235 N   0  0  0  0  0  0  0  0  0  0  0  0
   46.5938   11.9746   12.3015 N   0  0  0  0  0  0  0  0  0  0  0  0
   50.9268   10.0072   14.5224 C   0  0  0  0  0  0  0  0  0  0  0  0
   48.7127   12.4409   10.3161 N   0  0  0  0  0  0  0  0  0  0  0  0
   43.3000    3.6320   13.0519 N   0  0  0  0  0  0  0  0  0  0  0  0
   51.8872    9.1447   15.0179 C   0  0  0  0  0  0  0  0  0  0  0  0
   44.5317    5.7971   12.7057 C   0  0  0  0  0  0  0  0  0  0  0  0
   46.3061   12.6500   11.0296 C   0  0  0  0  0  0  0  0  0  0  0  0
   44.6088    4.2640   12.8675 C   0  0  0  0  0  0  0  0  0  0  0  0
   47.3113   12.2812    9.9162 C   0  0  0  0  0  0  0  0  0  0  0  0
   47.6124   10.3706   12.2048 C   0  0  0  0  0  0  0  0  0  0  0  0
   46.9549    8.4892   13.6910 C   0  0  0  0  0  0  0  0  0  0  0  0
   47.2188    9.7871   13.4893 C   0  0  0  0  0  0  0  0  0  0  0  0
   48.5313   11.1515   12.0457 O   0  0  0  0  0  0  0  0  0  0  0  0
   46.7572   10.0453   11.2251 O   0  0  0  0  0  0  0  0  0  0  0  0
   47.1196    7.4456   12.6706 C   0  0  0  0  0  0  0  0  0  0  0  0
   47.8234    7.4664   11.6813 O   0  0  0  0  0  0  0  0  0  0  0  0
   46.3841    6.3724   13.0029 O   0  0  0  0  0  0  0  0  0  0  0  0
   45.6244   10.4295   11.8417 H   0  0  0  0  0  0  0  0  0  0  0  0
   45.0412    8.2232   12.6897 H   0  0  0  0  0  0  0  0  0  0  0  0
   47.2246    5.9244   13.9067 H   0  0  0  0  0  0  0  0  0  0  0  0
   49.3406   10.4711   12.9671 H   0  0  0  0  0  0  0  0  0  0  0  0
   44.5009   10.5700   11.4247 H   0  0  0  0  0  0  0  0  0  0  0  0
   44.1969    8.1806   11.4926 H   0  0  0  0  0  0  0  0  0  0  0  0
   50.4048    6.2387   14.8081 H   0  0  0  0  0  0  0  0  0  0  0  0
   46.5569    5.9091   13.1557 H   0  0  0  0  0  0  0  0  0  0  0  0
   47.5482   12.2269   12.6080 H   0  0  0  0  0  0  0  0  0  0  0  0
   51.1213   11.0738   14.4660 H   0  0  0  0  0  0  0  0  0  0  0  0
   49.3149   12.3593    9.4990 H   0  0  0  0  0  0  0  0  0  0  0  0
   48.8628   13.3712   10.7038 H   0  0  0  0  0  0  0  0  0  0  0  0
   42.8394    4.0271   13.8709 H   0  0  0  0  0  0  0  0  0  0  0  0
   42.7023    3.8431   12.2539 H   0  0  0  0  0  0  0  0  0  0  0  0
   52.8517    9.5121   15.3580 H   0  0  0  0  0  0  0  0  0  0  0  0
   44.0613    6.2321   13.5963 H   0  0  0  0  0  0  0  0  0  0  0  0
   43.9044    6.0235   11.8358 H   0  0  0  0  0  0  0  0  0  0  0  0
   45.2807   12.4683   10.6915 H   0  0  0  0  0  0  0  0  0  0  0  0
   46.3740   13.7288   11.2159 H   0  0  0  0  0  0  0  0  0  0  0  0
   45.2405    4.0143   13.7280 H   0  0  0  0  0  0  0  0  0  0  0  0
   45.0903    3.8232   11.9871 H   0  0  0  0  0  0  0  0  0  0  0  0
   47.1586   11.2421    9.6059 H   0  0  0  0  0  0  0  0  0  0  0  0
   47.1149   12.9132    9.0429 H   0  0  0  0  0  0  0  0  0  0  0  0
   46.6364    8.1444   14.6681 H   0  0  0  0  0  0  0  0  0  0  0  0
   47.1666   10.4951   14.3078 H   0  0  0  0  0  0  0  0  0  0  0  0
   47.1421   10.4592   10.4253 H   0  0  0  0  0  0  0  0  0  0  0  0
   46.5569    5.7397   12.2746 H   0  0  0  0  0  0  0  0  0  0  0  0
  1  3  1  0
  3  2  2  0
  4  1  2  0
  5  1  1  0
  2  6  1  0
  6  7  2  0
  6  8  1  0
 24 16  1  0
 25 14  1  0
 26 32  1  0
 27 31  1  0
 28 25  2  0
 29 23  1  0
 30 24  1  0
 31 29  1  0
 32 30  1  0
 16 20  2  0
 14 13  2  0
 19 28  1  0
 10  9  2  0
 11  9  1  0
 12 10  1  0
 13 11  1  0
 14 12  1  0
 15  9  1  0
 16 10  1  0
 17 11  2  0
 18 12  2  0
 19 22  2  0
 20 21  1  0
 21 15  2  0
 22 13  1  0
 23 15  1  0
 33 35  1  0
 35 34  2  0
 36 33  2  0
 37 33  1  0
 34 38  1  0
 38 39  2  0
 38 40  1  0
  2 41  1  0
  3 42  1  0
  5 43  1  0
  8 44  1  0
 20 45  1  0
 21 46  1  0
 22 47  1  0
 23 48  1  0
 24 49  1  0
 25 50  1  0
 26 51  1  0
 26 52  1  0
 27 53  1  0
 27 54  1  0
 28 55  1  0
 29 56  1  0
 29 57  1  0
 30 58  1  0
 30 59  1  0
 31 60  1  0
 31 61  1  0
 32 62  1  0
 32 63  1  0
 34 64  1  0
 35 65  1  0
 37 66  1  0
 40 67  1  0
M  END
> <Uni-Dock RESULT> 
ENERGY=   -4.449  LOWER_BOUND=    2.047  UPPER_BOUND=    5.851
INTER + INTRA:          -4.449
INTER:                  -4.449
INTRA:                   0.000
UNBOUND:                 0.000

$$$$

     RDKit          3D

 67 67  0  0  0  0  0  0  0  0999 V2000
   48.2664    9.8625   18.4970 C   0  0  0  0  0  0  0  0  0  0  0  0
   47.7344    9.6995   20.9162 C   0  0  0  0  0  0  0  0  0  0  0  0
   47.6506   10.3396   19.7423 C   0  0  0  0  0  0  0  0  0  0  0  0
   49.2040    9.1018   18.3664 O   0  0  0  0  0  0  0  0  0  0  0  0
   47.6596   10.4381   17.4464 O   0  0  0  0  0  0  0  0  0  0  0  0
   48.3619    8.3909   21.1126 C   0  0  0  0  0  0  0  0  0  0  0  0
   49.1396    8.1178   22.0069 O   0  0  0  0  0  0  0  0  0  0  0  0
   47.8824    7.4731   20.2611 O   0  0  0  0  0  0  0  0  0  0  0  0
   47.9182    9.3088   19.1129 C   0  0  0  0  0  0  0  0  0  0  0  0
   47.6010    8.5614   20.2663 C   0  0  0  0  0  0  0  0  0  0  0  0
   48.2117    8.5927   17.8399 C   0  0  0  0  0  0  0  0  0  0  0  0
   47.6046    7.0697   20.1944 C   0  0  0  0  0  0  0  0  0  0  0  0
   48.3452    7.1366   17.8400 C   0  0  0  0  0  0  0  0  0  0  0  0
   48.0552    6.3950   18.9687 C   0  0  0  0  0  0  0  0  0  0  0  0
   47.9247   10.7277   19.1418 C   0  0  0  0  0  0  0  0  0  0  0  0
   47.3108    9.2175   21.4887 C   0  0  0  0  0  0  0  0  0  0  0  0
   48.3308    9.1917   16.7745 O   0  0  0  0  0  0  0  0  0  0  0  0
   47.2434    6.3702   21.1369 O   0  0  0  0  0  0  0  0  0  0  0  0
   48.8846    5.1106   16.6402 N   0  0  0  0  0  0  0  0  0  0  0  0
   47.2963   10.6164   21.4942 C   0  0  0  0  0  0  0  0  0  0  0  0
   47.6197   11.3543   20.3541 C   0  0  0  0  0  0  0  0  0  0  0  0
   48.7510    6.4582   16.7013 C   0  0  0  0  0  0  0  0  0  0  0  0
   48.3516   11.4875   18.0340 N   0  0  0  0  0  0  0  0  0  0  0  0
   46.9532    8.5073   22.6527 N   0  0  0  0  0  0  0  0  0  0  0  0
   48.1777    5.0035   18.9377 C   0  0  0  0  0  0  0  0  0  0  0  0
   49.4464    7.2707   23.6034 N   0  0  0  0  0  0  0  0  0  0  0  0
   47.5356   14.6108   16.0634 N   0  0  0  0  0  0  0  0  0  0  0  0
   48.5945    4.4129   17.7591 C   0  0  0  0  0  0  0  0  0  0  0  0
   47.6998   12.7707   17.7699 C   0  0  0  0  0  0  0  0  0  0  0  0
   47.5578    8.9049   23.9306 C   0  0  0  0  0  0  0  0  0  0  0  0
   48.1457   13.3217   16.3987 C   0  0  0  0  0  0  0  0  0  0  0  0
   49.0786    8.6388   23.9809 C   0  0  0  0  0  0  0  0  0  0  0  0
   48.1181    8.4067   21.1520 C   0  0  0  0  0  0  0  0  0  0  0  0
   47.2696    9.2398   18.9686 C   0  0  0  0  0  0  0  0  0  0  0  0
   47.1149    8.5255   20.0915 C   0  0  0  0  0  0  0  0  0  0  0  0
   48.4527    7.3645   21.6822 O   0  0  0  0  0  0  0  0  0  0  0  0
   48.5450    9.6059   21.5726 O   0  0  0  0  0  0  0  0  0  0  0  0
   48.5116    9.9285   18.5937 C   0  0  0  0  0  0  0  0  0  0  0  0
   49.6428    9.6951   18.9683 O   0  0  0  0  0  0  0  0  0  0  0  0
   48.2398   10.8858   17.6922 O   0  0  0  0  0  0  0  0  0  0  0  0
   47.3385   10.1488   21.8189 H   0  0  0  0  0  0  0  0  0  0  0  0
   47.1381   11.2925   19.6791 H   0  0  0  0  0  0  0  0  0  0  0  0
   48.1323   10.0653   16.6727 H   0  0  0  0  0  0  0  0  0  0  0  0
   48.3958    6.6653   20.4678 H   0  0  0  0  0  0  0  0  0  0  0  0
   47.0256   11.1625   22.3938 H   0  0  0  0  0  0  0  0  0  0  0  0
   47.6418   12.4367   20.4437 H   0  0  0  0  0  0  0  0  0  0  0  0
   48.9884    6.9841   15.7792 H   0  0  0  0  0  0  0  0  0  0  0  0
   48.3720   10.8918   17.1918 H   0  0  0  0  0  0  0  0  0  0  0  0
   47.1273    7.5004   22.4971 H   0  0  0  0  0  0  0  0  0  0  0  0
   47.9538    4.3956   19.8089 H   0  0  0  0  0  0  0  0  0  0  0  0
   50.4259    7.1041   23.8263 H   0  0  0  0  0  0  0  0  0  0  0  0
   48.9009    6.5996   24.1423 H   0  0  0  0  0  0  0  0  0  0  0  0
   46.5201   14.5226   16.0686 H   0  0  0  0  0  0  0  0  0  0  0  0
   47.7700   15.2972   16.7793 H   0  0  0  0  0  0  0  0  0  0  0  0
   48.7080    3.3350   17.6793 H   0  0  0  0  0  0  0  0  0  0  0  0
   46.6096   12.6474   17.7734 H   0  0  0  0  0  0  0  0  0  0  0  0
   47.9693   13.5007   18.5419 H   0  0  0  0  0  0  0  0  0  0  0  0
   47.3465    9.9508   24.1766 H   0  0  0  0  0  0  0  0  0  0  0  0
   47.0744    8.3088   24.7143 H   0  0  0  0  0  0  0  0  0  0  0  0
   47.8939   12.6017   15.6112 H   0  0  0  0  0  0  0  0  0  0  0  0
   49.2358   13.4348   16.3827 H   0  0  0  0  0  0  0  0  0  0  0  0
   49.6001    9.3319   23.3124 H   0  0  0  0  0  0  0  0  0  0  0  0
   49.4359    8.8371   24.9975 H   0  0  0  0  0  0  0  0  0  0  0  0
   46.4621    9.3024   18.2482 H   0  0  0  0  0  0  0  0  0  0  0  0
   46.2053    7.9638   20.2679 H   0  0  0  0  0  0  0  0  0  0  0  0
   49.2254    9.3946   22.2446 H   0  0  0  0  0  0  0  0  0  0  0  0
   49.1162   11.2827   17.5055 H   0  0  0  0  0  0  0  0  0  0  0  0
  1  3  1  0
  3  2  2  0
  4  1  2  0
  5  1  1  0
  2  6  1  0
  6  7  2  0
  6  8  1  0
 24 16  1  0
 25 14  1  0
 26 32  1  0
 27 31  1  0
 28 25  2  0
 29 23  1  0
 30 24  1  0
 31 29  1  0
 32 30  1  0
 16 20  2  0
 14 13  2  0
 19 28  1  0
 10  9  2  0
 11  9  1  0
 12 10  1  0
 13 11  1  0
 14 12  1  0
 15  9  1  0
 16 10  1  0
 17 11  2  0
 18 12  2  0
 19 22  2  0
 20 21  1  0
 21 15  2  0
 22 13  1  0
 23 15  1  0
 33 35  1  0
 35 34  2  0
 36 33  2  0
 37 33  1  0
 34 38  1  0
 38 39  2  0
 38 40  1  0
  2 41  1  0
  3 42  1  0
  5 43  1  0
  8 44  1  0
 20 45  1  0
 21 46  1  0
 22 47  1  0
 23 48  1  0
 24 49  1  0
 25 50  1  0
 26 51  1  0
 26 52  1  0
 27 53  1  0
 27 54  1  0
 28 55  1  0
 29 56  1  0
 29 57  1  0
 30 58  1  0
 30 59  1  0
 31 60  1  0
 31 61  1  0
 32 62  1  0
 32 63  1  0
 34 64  1  0
 35 65  1  0
 37 66  1  0
 40 67  1  0
M  END
> <Uni-Dock RESULT> 
ENERGY=   -4.440  LOWER_BOUND=    6.088  UPPER_BOUND=    9.465
INTER + INTRA:          -4.440
INTER:                  -4.440
INTRA:                   0.000
UNBOUND:                 0.000

$$$$
