
     RDKit          3D

 67 67  0  0  0  0  0  0  0  0999 V2000
   45.4031    7.3514   11.6968 C   0  0  0  0  0  0  0  0  0  0  0  0
   47.6846    7.1064   12.6439 C   0  0  0  0  0  0  0  0  0  0  0  0
   46.6160    6.5897   12.0229 C   0  0  0  0  0  0  0  0  0  0  0  0
   45.2828    8.5527   11.5665 O   0  0  0  0  0  0  0  0  0  0  0  0
   44.3793    6.5045   11.5031 O   0  0  0  0  0  0  0  0  0  0  0  0
   47.7657    8.4690   13.1748 C   0  0  0  0  0  0  0  0  0  0  0  0
   48.7022    9.2273   13.0096 O   0  0  0  0  0  0  0  0  0  0  0  0
   46.7346    8.7530   13.9830 O   0  0  0  0  0  0  0  0  0  0  0  0
   45.6270    7.5672   12.4753 C   0  0  0  0  0  0  0  0  0  0  0  0
   46.7379    8.3632   12.8231 C   0  0  0  0  0  0  0  0  0  0  0  0
   44.5039    8.1829   11.7143 C   0  0  0  0  0  0  0  0  0  0  0  0
   46.7576    9.7993   12.4237 C   0  0  0  0  0  0  0  0  0  0  0  0
   44.4635    9.6344   11.5337 C   0  0  0  0  0  0  0  0  0  0  0  0
   45.5459   10.4232   11.8745 C   0  0  0  0  0  0  0  0  0  0  0  0
   45.5819    6.1923   12.8166 C   0  0  0  0  0  0  0  0  0  0  0  0
   47.8397    7.8070   13.5203 C   0  0  0  0  0  0  0  0  0  0  0  0
   43.6116    7.5027   11.2165 O   0  0  0  0  0  0  0  0  0  0  0  0
   47.7735   10.4810   12.5283 O   0  0  0  0  0  0  0  0  0  0  0  0
   43.2657   11.5939   10.7912 N   0  0  0  0  0  0  0  0  0  0  0  0
   47.7596    6.4598   13.8873 C   0  0  0  0  0  0  0  0  0  0  0  0
   46.6574    5.6716   13.5436 C   0  0  0  0  0  0  0  0  0  0  0  0
   43.3497   10.2561   10.9930 C   0  0  0  0  0  0  0  0  0  0  0  0
   44.4357    5.4113   12.5751 N   0  0  0  0  0  0  0  0  0  0  0  0
   48.9082    8.6081   13.9707 N   0  0  0  0  0  0  0  0  0  0  0  0
   45.4954   11.8041   11.6724 C   0  0  0  0  0  0  0  0  0  0  0  0
   50.9573    9.8703   15.5409 N   0  0  0  0  0  0  0  0  0  0  0  0
   43.3274    1.9543   11.5160 N   0  0  0  0  0  0  0  0  0  0  0  0
   44.3393   12.3382   11.1341 C   0  0  0  0  0  0  0  0  0  0  0  0
   44.5954    3.9885   12.2752 C   0  0  0  0  0  0  0  0  0  0  0  0
   50.2577    8.0285   13.9937 C   0  0  0  0  0  0  0  0  0  0  0  0
   43.2474    3.3829   11.8299 C   0  0  0  0  0  0  0  0  0  0  0  0
   51.2932    9.1267   14.3191 C   0  0  0  0  0  0  0  0  0  0  0  0
   45.9864    6.5472   11.9724 C   0  0  0  0  0  0  0  0  0  0  0  0
   45.9851    8.7735   13.0705 C   0  0  0  0  0  0  0  0  0  0  0  0
   45.3446    7.7867   12.4298 C   0  0  0  0  0  0  0  0  0  0  0  0
   47.1624    6.3508   11.7417 O   0  0  0  0  0  0  0  0  0  0  0  0
   45.0525    5.6011   11.7835 O   0  0  0  0  0  0  0  0  0  0  0  0
   47.3858    8.7238   13.4953 C   0  0  0  0  0  0  0  0  0  0  0  0
   48.1980    9.6130   13.3258 O   0  0  0  0  0  0  0  0  0  0  0  0
   47.6509    7.6254   14.2166 O   0  0  0  0  0  0  0  0  0  0  0  0
   48.5855    6.5189   12.7735 H   0  0  0  0  0  0  0  0  0  0  0  0
   46.6272    5.5583   11.6896 H   0  0  0  0  0  0  0  0  0  0  0  0
   43.6263    7.0956   11.2931 H   0  0  0  0  0  0  0  0  0  0  0  0
   46.8834    9.6860   14.2403 H   0  0  0  0  0  0  0  0  0  0  0  0
   48.5380    6.0001   14.4901 H   0  0  0  0  0  0  0  0  0  0  0  0
   46.6437    4.6447   13.8987 H   0  0  0  0  0  0  0  0  0  0  0  0
   42.4686    9.6913   10.6971 H   0  0  0  0  0  0  0  0  0  0  0  0
   43.8276    5.8826   11.8878 H   0  0  0  0  0  0  0  0  0  0  0  0
   48.9018    9.5088   13.4658 H   0  0  0  0  0  0  0  0  0  0  0  0
   46.3333   12.4463   11.9252 H   0  0  0  0  0  0  0  0  0  0  0  0
   50.9385    9.2197   16.3262 H   0  0  0  0  0  0  0  0  0  0  0  0
   49.9786   10.1619   15.4482 H   0  0  0  0  0  0  0  0  0  0  0  0
   43.6481    1.4400   12.3355 H   0  0  0  0  0  0  0  0  0  0  0  0
   44.0214    1.7988   10.7860 H   0  0  0  0  0  0  0  0  0  0  0  0
   44.2418   13.4061   10.9561 H   0  0  0  0  0  0  0  0  0  0  0  0
   44.9416    3.4489   13.1641 H   0  0  0  0  0  0  0  0  0  0  0  0
   45.3346    3.8531   11.4758 H   0  0  0  0  0  0  0  0  0  0  0  0
   50.3257    7.2511   14.7628 H   0  0  0  0  0  0  0  0  0  0  0  0
   50.5015    7.5840   13.0216 H   0  0  0  0  0  0  0  0  0  0  0  0
   42.8780    3.9139   10.9450 H   0  0  0  0  0  0  0  0  0  0  0  0
   42.4991    3.5286   12.6176 H   0  0  0  0  0  0  0  0  0  0  0  0
   51.3412    9.8405   13.4890 H   0  0  0  0  0  0  0  0  0  0  0  0
   52.2871    8.6801   14.4256 H   0  0  0  0  0  0  0  0  0  0  0  0
   45.4784    9.7031   13.2998 H   0  0  0  0  0  0  0  0  0  0  0  0
   44.2949    7.8921   12.1806 H   0  0  0  0  0  0  0  0  0  0  0  0
   45.5681    4.8238   11.4821 H   0  0  0  0  0  0  0  0  0  0  0  0
   48.6090    7.6911   14.4075 H   0  0  0  0  0  0  0  0  0  0  0  0
  1  3  1  0
  3  2  2  0
  4  1  2  0
  5  1  1  0
  2  6  1  0
  6  7  2  0
  6  8  1  0
 24 16  1  0
 25 14  1  0
 26 32  1  0
 27 31  1  0
 28 25  2  0
 29 23  1  0
 30 24  1  0
 31 29  1  0
 32 30  1  0
 16 20  2  0
 14 13  2  0
 19 28  1  0
 10  9  2  0
 11  9  1  0
 12 10  1  0
 13 11  1  0
 14 12  1  0
 15  9  1  0
 16 10  1  0
 17 11  2  0
 18 12  2  0
 19 22  2  0
 20 21  1  0
 21 15  2  0
 22 13  1  0
 23 15  1  0
 33 35  1  0
 35 34  2  0
 36 33  2  0
 37 33  1  0
 34 38  1  0
 38 39  2  0
 38 40  1  0
  2 41  1  0
  3 42  1  0
  5 43  1  0
  8 44  1  0
 20 45  1  0
 21 46  1  0
 22 47  1  0
 23 48  1  0
 24 49  1  0
 25 50  1  0
 26 51  1  0
 26 52  1  0
 27 53  1  0
 27 54  1  0
 28 55  1  0
 29 56  1  0
 29 57  1  0
 30 58  1  0
 30 59  1  0
 31 60  1  0
 31 61  1  0
 32 62  1  0
 32 63  1  0
 34 64  1  0
 35 65  1  0
 37 66  1  0
 40 67  1  0
M  END
> <Uni-Dock RESULT> 
ENERGY=   -6.665  LOWER_BOUND=    0.000  UPPER_BOUND=    0.000
INTER + INTRA:          -6.665
INTER:                  -6.665
INTRA:                   0.000
UNBOUND:                 0.000

$$$$

     RDKit          3D

 67 67  0  0  0  0  0  0  0  0999 V2000
   44.3581    7.9756   12.0042 C   0  0  0  0  0  0  0  0  0  0  0  0
   46.2916    8.8974   13.2590 C   0  0  0  0  0  0  0  0  0  0  0  0
   45.0983    9.0551   12.6710 C   0  0  0  0  0  0  0  0  0  0  0  0
   44.4600    6.7777   12.1755 O   0  0  0  0  0  0  0  0  0  0  0  0
   43.4621    8.5034   11.1548 O   0  0  0  0  0  0  0  0  0  0  0  0
   47.0762    7.6608   13.2404 C   0  0  0  0  0  0  0  0  0  0  0  0
   47.6131    7.1608   14.2104 O   0  0  0  0  0  0  0  0  0  0  0  0
   47.2491    7.1969   11.9946 O   0  0  0  0  0  0  0  0  0  0  0  0
   45.1609    7.9017   11.7742 C   0  0  0  0  0  0  0  0  0  0  0  0
   46.2173    7.4605   12.5974 C   0  0  0  0  0  0  0  0  0  0  0  0
   44.0811    6.9441   11.4047 C   0  0  0  0  0  0  0  0  0  0  0  0
   46.2279    6.0477   13.0729 C   0  0  0  0  0  0  0  0  0  0  0  0
   44.2413    5.5219   11.7094 C   0  0  0  0  0  0  0  0  0  0  0  0
   45.2753    5.0793   12.5125 C   0  0  0  0  0  0  0  0  0  0  0  0
   45.1033    9.2436   11.3212 C   0  0  0  0  0  0  0  0  0  0  0  0
   47.2473    8.3493   12.9957 C   0  0  0  0  0  0  0  0  0  0  0  0
   43.0452    7.3167   10.8618 O   0  0  0  0  0  0  0  0  0  0  0  0
   47.0096    5.6679   13.9403 O   0  0  0  0  0  0  0  0  0  0  0  0
   43.4414    3.2557   11.4859 N   0  0  0  0  0  0  0  0  0  0  0  0
   47.1982    9.6579   12.5044 C   0  0  0  0  0  0  0  0  0  0  0  0
   46.1515   10.0944   11.6871 C   0  0  0  0  0  0  0  0  0  0  0  0
   43.3474    4.5820   11.2225 C   0  0  0  0  0  0  0  0  0  0  0  0
   44.1180    9.6715   10.4112 N   0  0  0  0  0  0  0  0  0  0  0  0
   48.3659    7.9019   13.7271 N   0  0  0  0  0  0  0  0  0  0  0  0
   45.3966    3.7203   12.8100 C   0  0  0  0  0  0  0  0  0  0  0  0
   51.0246    7.3753   14.6815 N   0  0  0  0  0  0  0  0  0  0  0  0
   41.8802   12.6010    9.5679 N   0  0  0  0  0  0  0  0  0  0  0  0
   44.4623    2.8538   12.2735 C   0  0  0  0  0  0  0  0  0  0  0  0
   43.6364   11.0509   10.4819 C   0  0  0  0  0  0  0  0  0  0  0  0
   48.9732    8.8129   14.7063 C   0  0  0  0  0  0  0  0  0  0  0  0
   42.4171   11.2381    9.5542 C   0  0  0  0  0  0  0  0  0  0  0  0
   50.0397    8.0595   15.5303 C   0  0  0  0  0  0  0  0  0  0  0  0
   44.7117    8.9269   12.1864 C   0  0  0  0  0  0  0  0  0  0  0  0
   46.1103    6.8938   11.9164 C   0  0  0  0  0  0  0  0  0  0  0  0
   45.0228    7.6129   11.6083 C   0  0  0  0  0  0  0  0  0  0  0  0
   45.1066    9.4000   13.2328 O   0  0  0  0  0  0  0  0  0  0  0  0
   43.8450    9.5738   11.3906 O   0  0  0  0  0  0  0  0  0  0  0  0
   47.1925    7.3479   12.7925 C   0  0  0  0  0  0  0  0  0  0  0  0
   47.6892    6.6893   13.6862 O   0  0  0  0  0  0  0  0  0  0  0  0
   47.6727    8.5416   12.4166 O   0  0  0  0  0  0  0  0  0  0  0  0
   46.7447    9.7092   13.8151 H   0  0  0  0  0  0  0  0  0  0  0  0
   44.5989   10.0166   12.7042 H   0  0  0  0  0  0  0  0  0  0  0  0
   43.0232    7.7189   10.7642 H   0  0  0  0  0  0  0  0  0  0  0  0
   47.7496    6.3644   12.1176 H   0  0  0  0  0  0  0  0  0  0  0  0
   48.0006   10.3606   12.7121 H   0  0  0  0  0  0  0  0  0  0  0  0
   46.2008   11.1114   11.3076 H   0  0  0  0  0  0  0  0  0  0  0  0
   42.5082    4.8663   10.5917 H   0  0  0  0  0  0  0  0  0  0  0  0
   43.3403    8.9939   10.3908 H   0  0  0  0  0  0  0  0  0  0  0  0
   48.1552    6.9865   14.1557 H   0  0  0  0  0  0  0  0  0  0  0  0
   46.1952    3.3463   13.4430 H   0  0  0  0  0  0  0  0  0  0  0  0
   51.5071    8.0711   14.1128 H   0  0  0  0  0  0  0  0  0  0  0  0
   50.4930    6.8310   13.9941 H   0  0  0  0  0  0  0  0  0  0  0  0
   42.6025   13.2576    9.2746 H   0  0  0  0  0  0  0  0  0  0  0  0
   41.6205   12.8610   10.5184 H   0  0  0  0  0  0  0  0  0  0  0  0
   44.5072    1.7855   12.4689 H   0  0  0  0  0  0  0  0  0  0  0  0
   44.4231   11.7452   10.1654 H   0  0  0  0  0  0  0  0  0  0  0  0
   43.3487   11.2968   11.5117 H   0  0  0  0  0  0  0  0  0  0  0  0
   49.4601    9.6515   14.1961 H   0  0  0  0  0  0  0  0  0  0  0  0
   48.2104    9.2097   15.3864 H   0  0  0  0  0  0  0  0  0  0  0  0
   41.6193   10.5465    9.8484 H   0  0  0  0  0  0  0  0  0  0  0  0
   42.6928   10.9789    8.5255 H   0  0  0  0  0  0  0  0  0  0  0  0
   49.5507    7.3063   16.1585 H   0  0  0  0  0  0  0  0  0  0  0  0
   50.5556    8.7580   16.1972 H   0  0  0  0  0  0  0  0  0  0  0  0
   46.2375    5.8909   11.5275 H   0  0  0  0  0  0  0  0  0  0  0  0
   44.2837    7.2138   10.9232 H   0  0  0  0  0  0  0  0  0  0  0  0
   43.6984   10.4259   11.8524 H   0  0  0  0  0  0  0  0  0  0  0  0
   48.3544    8.7468   13.0889 H   0  0  0  0  0  0  0  0  0  0  0  0
  1  3  1  0
  3  2  2  0
  4  1  2  0
  5  1  1  0
  2  6  1  0
  6  7  2  0
  6  8  1  0
 24 16  1  0
 25 14  1  0
 26 32  1  0
 27 31  1  0
 28 25  2  0
 29 23  1  0
 30 24  1  0
 31 29  1  0
 32 30  1  0
 16 20  2  0
 14 13  2  0
 19 28  1  0
 10  9  2  0
 11  9  1  0
 12 10  1  0
 13 11  1  0
 14 12  1  0
 15  9  1  0
 16 10  1  0
 17 11  2  0
 18 12  2  0
 19 22  2  0
 20 21  1  0
 21 15  2  0
 22 13  1  0
 23 15  1  0
 33 35  1  0
 35 34  2  0
 36 33  2  0
 37 33  1  0
 34 38  1  0
 38 39  2  0
 38 40  1  0
  2 41  1  0
  3 42  1  0
  5 43  1  0
  8 44  1  0
 20 45  1  0
 21 46  1  0
 22 47  1  0
 23 48  1  0
 24 49  1  0
 25 50  1  0
 26 51  1  0
 26 52  1  0
 27 53  1  0
 27 54  1  0
 28 55  1  0
 29 56  1  0
 29 57  1  0
 30 58  1  0
 30 59  1  0
 31 60  1  0
 31 61  1  0
 32 62  1  0
 32 63  1  0
 34 64  1  0
 35 65  1  0
 37 66  1  0
 40 67  1  0
M  END
> <Uni-Dock RESULT> 
ENERGY=   -5.780  LOWER_BOUND=    1.265  UPPER_BOUND=    4.414
INTER + INTRA:          -5.780
INTER:                  -5.780
INTRA:                   0.000
UNBOUND:                 0.000

$$$$

     RDKit          3D

 67 67  0  0  0  0  0  0  0  0999 V2000
   47.2414    6.5575   12.7839 C   0  0  0  0  0  0  0  0  0  0  0  0
   46.6073    8.8094   11.9537 C   0  0  0  0  0  0  0  0  0  0  0  0
   47.5255    7.9514   12.4177 C   0  0  0  0  0  0  0  0  0  0  0  0
   46.3258    5.8538   12.4084 O   0  0  0  0  0  0  0  0  0  0  0  0
   48.2017    6.1043   13.6057 O   0  0  0  0  0  0  0  0  0  0  0  0
   45.1764    8.5202   11.8360 C   0  0  0  0  0  0  0  0  0  0  0  0
   44.4935    8.7649   10.8597 O   0  0  0  0  0  0  0  0  0  0  0  0
   44.6620    8.0640   12.9867 O   0  0  0  0  0  0  0  0  0  0  0  0
   46.6150    7.0242   13.0883 C   0  0  0  0  0  0  0  0  0  0  0  0
   45.6027    7.6435   12.3266 C   0  0  0  0  0  0  0  0  0  0  0  0
   46.6705    5.5365   13.1471 C   0  0  0  0  0  0  0  0  0  0  0  0
   44.6133    6.7942   11.6040 C   0  0  0  0  0  0  0  0  0  0  0  0
   45.5610    4.7502   12.6070 C   0  0  0  0  0  0  0  0  0  0  0  0
   44.5625    5.3486   11.8621 C   0  0  0  0  0  0  0  0  0  0  0  0
   47.5879    7.7970   13.7704 C   0  0  0  0  0  0  0  0  0  0  0  0
   45.5345    9.0554   12.2212 C   0  0  0  0  0  0  0  0  0  0  0  0
   47.6338    4.9445   13.6249 O   0  0  0  0  0  0  0  0  0  0  0  0
   43.8393    7.2711   10.7786 O   0  0  0  0  0  0  0  0  0  0  0  0
   44.4962    2.6039   12.3153 N   0  0  0  0  0  0  0  0  0  0  0  0
   46.4758    9.8036   12.9356 C   0  0  0  0  0  0  0  0  0  0  0  0
   47.4783    9.1891   13.6917 C   0  0  0  0  0  0  0  0  0  0  0  0
   45.4931    3.3807   12.8053 C   0  0  0  0  0  0  0  0  0  0  0  0
   48.5366    7.2004   14.6225 N   0  0  0  0  0  0  0  0  0  0  0  0
   44.4696    9.6949   11.5554 N   0  0  0  0  0  0  0  0  0  0  0  0
   43.5248    4.5761   11.3360 C   0  0  0  0  0  0  0  0  0  0  0  0
   42.2811   11.4127   10.8366 N   0  0  0  0  0  0  0  0  0  0  0  0
   52.1471    7.4308   15.7237 N   0  0  0  0  0  0  0  0  0  0  0  0
   43.5350    3.2173   11.5915 C   0  0  0  0  0  0  0  0  0  0  0  0
   49.8597    7.8108   14.7511 C   0  0  0  0  0  0  0  0  0  0  0  0
   44.7425   10.9473   10.8378 C   0  0  0  0  0  0  0  0  0  0  0  0
   50.7999    6.8825   15.5489 C   0  0  0  0  0  0  0  0  0  0  0  0
   43.5009   11.3623   10.0192 C   0  0  0  0  0  0  0  0  0  0  0  0
   47.6804    7.4896   12.8221 C   0  0  0  0  0  0  0  0  0  0  0  0
   45.2396    7.0400   12.8747 C   0  0  0  0  0  0  0  0  0  0  0  0
   46.4976    6.6961   13.1810 C   0  0  0  0  0  0  0  0  0  0  0  0
   47.7937    8.3098   11.9337 O   0  0  0  0  0  0  0  0  0  0  0  0
   48.7078    7.1492   13.6169 O   0  0  0  0  0  0  0  0  0  0  0  0
   44.8495    8.2953   12.2291 C   0  0  0  0  0  0  0  0  0  0  0  0
   44.0779    8.3880   11.2935 O   0  0  0  0  0  0  0  0  0  0  0  0
   45.3442    9.3628   12.8714 O   0  0  0  0  0  0  0  0  0  0  0  0
   46.8962    9.7963   11.6130 H   0  0  0  0  0  0  0  0  0  0  0  0
   48.5615    8.2582   12.5039 H   0  0  0  0  0  0  0  0  0  0  0  0
   47.9307    5.1809   13.7916 H   0  0  0  0  0  0  0  0  0  0  0  0
   43.7249    7.8784   12.7719 H   0  0  0  0  0  0  0  0  0  0  0  0
   46.4248   10.8888   12.9555 H   0  0  0  0  0  0  0  0  0  0  0  0
   48.1487    9.8327   14.2548 H   0  0  0  0  0  0  0  0  0  0  0  0
   46.2513    2.8487   13.3755 H   0  0  0  0  0  0  0  0  0  0  0  0
   48.5976    6.1891   14.4273 H   0  0  0  0  0  0  0  0  0  0  0  0
   43.9869    9.0170   10.9442 H   0  0  0  0  0  0  0  0  0  0  0  0
   42.7313    5.0191   10.7424 H   0  0  0  0  0  0  0  0  0  0  0  0
   42.4099   12.1036   11.5758 H   0  0  0  0  0  0  0  0  0  0  0  0
   42.2309   10.5240   11.3455 H   0  0  0  0  0  0  0  0  0  0  0  0
   52.0939    8.3223   16.2147 H   0  0  0  0  0  0  0  0  0  0  0  0
   52.5622    7.6252   14.8135 H   0  0  0  0  0  0  0  0  0  0  0  0
   42.7526    2.5664   11.2096 H   0  0  0  0  0  0  0  0  0  0  0  0
   49.7871    8.7683   15.2792 H   0  0  0  0  0  0  0  0  0  0  0  0
   50.2884    7.9927   13.7577 H   0  0  0  0  0  0  0  0  0  0  0  0
   44.9729   11.7504   11.5467 H   0  0  0  0  0  0  0  0  0  0  0  0
   45.5937   10.8228   10.1582 H   0  0  0  0  0  0  0  0  0  0  0  0
   50.8809    5.9142   15.0418 H   0  0  0  0  0  0  0  0  0  0  0  0
   50.3702    6.6833   16.5375 H   0  0  0  0  0  0  0  0  0  0  0  0
   43.3388   10.6405    9.2107 H   0  0  0  0  0  0  0  0  0  0  0  0
   43.6708   12.3401    9.5568 H   0  0  0  0  0  0  0  0  0  0  0  0
   44.4167    6.3677   13.0847 H   0  0  0  0  0  0  0  0  0  0  0  0
   46.6964    5.7601   13.6903 H   0  0  0  0  0  0  0  0  0  0  0  0
   49.4405    7.7210   13.3057 H   0  0  0  0  0  0  0  0  0  0  0  0
   45.0470   10.1243   12.3322 H   0  0  0  0  0  0  0  0  0  0  0  0
  1  3  1  0
  3  2  2  0
  4  1  2  0
  5  1  1  0
  2  6  1  0
  6  7  2  0
  6  8  1  0
 24 16  1  0
 25 14  1  0
 26 32  1  0
 27 31  1  0
 28 25  2  0
 29 23  1  0
 30 24  1  0
 31 29  1  0
 32 30  1  0
 16 20  2  0
 14 13  2  0
 19 28  1  0
 10  9  2  0
 11  9  1  0
 12 10  1  0
 13 11  1  0
 14 12  1  0
 15  9  1  0
 16 10  1  0
 17 11  2  0
 18 12  2  0
 19 22  2  0
 20 21  1  0
 21 15  2  0
 22 13  1  0
 23 15  1  0
 33 35  1  0
 35 34  2  0
 36 33  2  0
 37 33  1  0
 34 38  1  0
 38 39  2  0
 38 40  1  0
  2 41  1  0
  3 42  1  0
  5 43  1  0
  8 44  1  0
 20 45  1  0
 21 46  1  0
 22 47  1  0
 23 48  1  0
 24 49  1  0
 25 50  1  0
 26 51  1  0
 26 52  1  0
 27 53  1  0
 27 54  1  0
 28 55  1  0
 29 56  1  0
 29 57  1  0
 30 58  1  0
 30 59  1  0
 31 60  1  0
 31 61  1  0
 32 62  1  0
 32 63  1  0
 34 64  1  0
 35 65  1  0
 37 66  1  0
 40 67  1  0
M  END
> <Uni-Dock RESULT> 
ENERGY=   -5.715  LOWER_BOUND=    1.331  UPPER_BOUND=    5.383
INTER + INTRA:          -5.715
INTER:                  -5.715
INTRA:                   0.000
UNBOUND:                 0.000

$$$$

     RDKit          3D

 67 67  0  0  0  0  0  0  0  0999 V2000
   46.2278    8.1385   12.8914 C   0  0  0  0  0  0  0  0  0  0  0  0
   47.9163    8.2572   14.7073 C   0  0  0  0  0  0  0  0  0  0  0  0
   47.0256    8.8484   13.9000 C   0  0  0  0  0  0  0  0  0  0  0  0
   45.9397    6.9594   12.8550 O   0  0  0  0  0  0  0  0  0  0  0  0
   45.7861    9.0118   11.9720 O   0  0  0  0  0  0  0  0  0  0  0  0
   48.2977    6.8447   14.6398 C   0  0  0  0  0  0  0  0  0  0  0  0
   48.3836    6.0990   15.5968 O   0  0  0  0  0  0  0  0  0  0  0  0
   48.6715    6.4861   13.4034 O   0  0  0  0  0  0  0  0  0  0  0  0
   47.0090    7.8381   12.8429 C   0  0  0  0  0  0  0  0  0  0  0  0
   47.6297    6.9982   13.7904 C   0  0  0  0  0  0  0  0  0  0  0  0
   45.8508    7.3192   12.0626 C   0  0  0  0  0  0  0  0  0  0  0  0
   47.1135    5.6131   13.9835 C   0  0  0  0  0  0  0  0  0  0  0  0
   45.5168    5.8960   12.1253 C   0  0  0  0  0  0  0  0  0  0  0  0
   46.1221    5.0641   13.0481 C   0  0  0  0  0  0  0  0  0  0  0  0
   47.4559    9.1689   12.6473 C   0  0  0  0  0  0  0  0  0  0  0  0
   48.7149    7.4650   14.5739 C   0  0  0  0  0  0  0  0  0  0  0  0
   45.1524    8.0580   11.3748 O   0  0  0  0  0  0  0  0  0  0  0  0
   47.4865    4.9137   14.9213 O   0  0  0  0  0  0  0  0  0  0  0  0
   44.2103    4.0398   11.3049 N   0  0  0  0  0  0  0  0  0  0  0  0
   49.1709    8.7658   14.3374 C   0  0  0  0  0  0  0  0  0  0  0  0
   48.5562    9.5976   13.3969 C   0  0  0  0  0  0  0  0  0  0  0  0
   44.5670    5.3473   11.2790 C   0  0  0  0  0  0  0  0  0  0  0  0
   46.9209    9.9830   11.6309 N   0  0  0  0  0  0  0  0  0  0  0  0
   49.4164    6.6093   15.4468 N   0  0  0  0  0  0  0  0  0  0  0  0
   45.7719    3.7135   13.1068 C   0  0  0  0  0  0  0  0  0  0  0  0
   51.4504    5.1650   16.8730 N   0  0  0  0  0  0  0  0  0  0  0  0
   45.9142   13.5449   10.8559 N   0  0  0  0  0  0  0  0  0  0  0  0
   44.8191    3.2521   12.2176 C   0  0  0  0  0  0  0  0  0  0  0  0
   46.8436   11.4280   11.8445 C   0  0  0  0  0  0  0  0  0  0  0  0
   49.9585    7.1693   16.6919 C   0  0  0  0  0  0  0  0  0  0  0  0
   46.0312   12.0917   10.7125 C   0  0  0  0  0  0  0  0  0  0  0  0
   50.5011    6.0319   17.5842 C   0  0  0  0  0  0  0  0  0  0  0  0
   46.7682    8.9025   13.3242 C   0  0  0  0  0  0  0  0  0  0  0  0
   47.5613    6.5713   13.0097 C   0  0  0  0  0  0  0  0  0  0  0  0
   46.8473    7.6277   12.5988 C   0  0  0  0  0  0  0  0  0  0  0  0
   46.9741    9.1105   14.5028 O   0  0  0  0  0  0  0  0  0  0  0  0
   46.3719    9.8730   12.4850 O   0  0  0  0  0  0  0  0  0  0  0  0
   48.4410    6.5609   14.1805 C   0  0  0  0  0  0  0  0  0  0  0  0
   48.4669    5.6867   15.0257 O   0  0  0  0  0  0  0  0  0  0  0  0
   49.3199    7.5728   14.1547 O   0  0  0  0  0  0  0  0  0  0  0  0
   48.4058    8.8181   15.4942 H   0  0  0  0  0  0  0  0  0  0  0  0
   46.8256    9.9094   13.9960 H   0  0  0  0  0  0  0  0  0  0  0  0
   45.2715    8.4543   11.3515 H   0  0  0  0  0  0  0  0  0  0  0  0
   48.8653    5.5295   13.4809 H   0  0  0  0  0  0  0  0  0  0  0  0
   50.0475    9.1502   14.8517 H   0  0  0  0  0  0  0  0  0  0  0  0
   48.9904   10.5805   13.2355 H   0  0  0  0  0  0  0  0  0  0  0  0
   44.0491    5.9496   10.5362 H   0  0  0  0  0  0  0  0  0  0  0  0
   46.0222    9.5944   11.3057 H   0  0  0  0  0  0  0  0  0  0  0  0
   48.8486    5.7681   15.6369 H   0  0  0  0  0  0  0  0  0  0  0  0
   46.2268    3.0393   13.8257 H   0  0  0  0  0  0  0  0  0  0  0  0
   52.2456    5.7278   16.5708 H   0  0  0  0  0  0  0  0  0  0  0  0
   50.9996    4.8950   15.9924 H   0  0  0  0  0  0  0  0  0  0  0  0
   46.8428   13.9649   10.8647 H   0  0  0  0  0  0  0  0  0  0  0  0
   45.4852   13.7706   11.7523 H   0  0  0  0  0  0  0  0  0  0  0  0
   44.5081    2.2105   12.2153 H   0  0  0  0  0  0  0  0  0  0  0  0
   47.8484   11.8656   11.8531 H   0  0  0  0  0  0  0  0  0  0  0  0
   46.3630   11.6409   12.8076 H   0  0  0  0  0  0  0  0  0  0  0  0
   50.7814    7.8589   16.4732 H   0  0  0  0  0  0  0  0  0  0  0  0
   49.1799    7.7129   17.2396 H   0  0  0  0  0  0  0  0  0  0  0  0
   45.0231   11.6626   10.6806 H   0  0  0  0  0  0  0  0  0  0  0  0
   46.4967   11.8700    9.7452 H   0  0  0  0  0  0  0  0  0  0  0  0
   49.6675    5.4108   17.9310 H   0  0  0  0  0  0  0  0  0  0  0  0
   50.9861    6.4543   18.4702 H   0  0  0  0  0  0  0  0  0  0  0  0
   47.5058    5.6278   12.4806 H   0  0  0  0  0  0  0  0  0  0  0  0
   46.2456    7.5604   11.6998 H   0  0  0  0  0  0  0  0  0  0  0  0
   46.3473   10.6728   13.0512 H   0  0  0  0  0  0  0  0  0  0  0  0
   49.8181    7.4772   14.9923 H   0  0  0  0  0  0  0  0  0  0  0  0
  1  3  1  0
  3  2  2  0
  4  1  2  0
  5  1  1  0
  2  6  1  0
  6  7  2  0
  6  8  1  0
 24 16  1  0
 25 14  1  0
 26 32  1  0
 27 31  1  0
 28 25  2  0
 29 23  1  0
 30 24  1  0
 31 29  1  0
 32 30  1  0
 16 20  2  0
 14 13  2  0
 19 28  1  0
 10  9  2  0
 11  9  1  0
 12 10  1  0
 13 11  1  0
 14 12  1  0
 15  9  1  0
 16 10  1  0
 17 11  2  0
 18 12  2  0
 19 22  2  0
 20 21  1  0
 21 15  2  0
 22 13  1  0
 23 15  1  0
 33 35  1  0
 35 34  2  0
 36 33  2  0
 37 33  1  0
 34 38  1  0
 38 39  2  0
 38 40  1  0
  2 41  1  0
  3 42  1  0
  5 43  1  0
  8 44  1  0
 20 45  1  0
 21 46  1  0
 22 47  1  0
 23 48  1  0
 24 49  1  0
 25 50  1  0
 26 51  1  0
 26 52  1  0
 27 53  1  0
 27 54  1  0
 28 55  1  0
 29 56  1  0
 29 57  1  0
 30 58  1  0
 30 59  1  0
 31 60  1  0
 31 61  1  0
 32 62  1  0
 32 63  1  0
 34 64  1  0
 35 65  1  0
 37 66  1  0
 40 67  1  0
M  END
> <Uni-Dock RESULT> 
ENERGY=   -5.613  LOWER_BOUND=    1.839  UPPER_BOUND=    4.761
INTER + INTRA:          -5.613
INTER:                  -5.613
INTRA:                   0.000
UNBOUND:                 0.000

$$$$

     RDKit          3D

 67 67  0  0  0  0  0  0  0  0999 V2000
   47.4682    7.3228   12.7831 C   0  0  0  0  0  0  0  0  0  0  0  0
   47.0673    9.5688   11.8048 C   0  0  0  0  0  0  0  0  0  0  0  0
   47.9008    8.6309   12.2740 C   0  0  0  0  0  0  0  0  0  0  0  0
   46.4391    6.7253   12.5409 O   0  0  0  0  0  0  0  0  0  0  0  0
   48.4273    6.8068   13.5685 O   0  0  0  0  0  0  0  0  0  0  0  0
   45.6060    9.4721   11.8199 C   0  0  0  0  0  0  0  0  0  0  0  0
   44.8801    9.7317   10.8791 O   0  0  0  0  0  0  0  0  0  0  0  0
   45.1364    9.1829   13.0418 O   0  0  0  0  0  0  0  0  0  0  0  0
   46.9371    7.8940   13.0904 C   0  0  0  0  0  0  0  0  0  0  0  0
   45.9536    8.5859   12.3538 C   0  0  0  0  0  0  0  0  0  0  0  0
   46.8011    6.4222   13.2774 C   0  0  0  0  0  0  0  0  0  0  0  0
   44.8028    7.8278   11.7853 C   0  0  0  0  0  0  0  0  0  0  0  0
   45.5556    5.7571   12.8934 C   0  0  0  0  0  0  0  0  0  0  0  0
   44.5844    6.4277   12.1744 C   0  0  0  0  0  0  0  0  0  0  0  0
   48.0581    8.5758   13.6267 C   0  0  0  0  0  0  0  0  0  0  0  0
   46.0630    9.9811   12.1282 C   0  0  0  0  0  0  0  0  0  0  0  0
   47.7154    5.7419   13.7332 O   0  0  0  0  0  0  0  0  0  0  0  0
   44.0305    8.3410   10.9804 O   0  0  0  0  0  0  0  0  0  0  0  0
   44.1965    3.7626   12.8743 N   0  0  0  0  0  0  0  0  0  0  0  0
   47.1524   10.6454   12.7011 C   0  0  0  0  0  0  0  0  0  0  0  0
   48.1263    9.9592   13.4325 C   0  0  0  0  0  0  0  0  0  0  0  0
   45.3253    4.4300   13.2176 C   0  0  0  0  0  0  0  0  0  0  0  0
   48.9894    7.9222   14.4558 N   0  0  0  0  0  0  0  0  0  0  0  0
   45.0385   10.7076   11.4889 N   0  0  0  0  0  0  0  0  0  0  0  0
   43.4129    5.7675   11.7978 C   0  0  0  0  0  0  0  0  0  0  0  0
   43.0417   12.6502   10.7842 N   0  0  0  0  0  0  0  0  0  0  0  0
   52.6797    7.7364   15.2609 N   0  0  0  0  0  0  0  0  0  0  0  0
   43.2659    4.4446   12.1720 C   0  0  0  0  0  0  0  0  0  0  0  0
   50.3875    8.3518   14.4308 C   0  0  0  0  0  0  0  0  0  0  0  0
   45.4115   11.8501   10.6442 C   0  0  0  0  0  0  0  0  0  0  0  0
   51.2621    7.3678   15.2363 C   0  0  0  0  0  0  0  0  0  0  0  0
   44.1697   12.3675    9.8863 C   0  0  0  0  0  0  0  0  0  0  0  0
   48.0277    8.1853   12.7053 C   0  0  0  0  0  0  0  0  0  0  0  0
   45.5625    8.0833   12.9789 C   0  0  0  0  0  0  0  0  0  0  0  0
   46.7859    7.5936   13.2204 C   0  0  0  0  0  0  0  0  0  0  0  0
   48.1715    8.9098   11.7414 O   0  0  0  0  0  0  0  0  0  0  0  0
   49.0656    7.7692   13.4489 O   0  0  0  0  0  0  0  0  0  0  0  0
   45.2872    9.3260   12.2547 C   0  0  0  0  0  0  0  0  0  0  0  0
   44.4572    9.4511   11.3745 O   0  0  0  0  0  0  0  0  0  0  0  0
   45.9713   10.3618   12.7607 O   0  0  0  0  0  0  0  0  0  0  0  0
   47.4533   10.4764   11.3569 H   0  0  0  0  0  0  0  0  0  0  0  0
   48.9718    8.7973   12.2553 H   0  0  0  0  0  0  0  0  0  0  0  0
   48.0540    5.9473   13.8556 H   0  0  0  0  0  0  0  0  0  0  0  0
   44.1682    9.1125   12.9146 H   0  0  0  0  0  0  0  0  0  0  0  0
   47.2466   11.7254   12.6279 H   0  0  0  0  0  0  0  0  0  0  0  0
   48.9213   10.5459   13.8846 H   0  0  0  0  0  0  0  0  0  0  0  0
   46.0528    3.8446   13.7751 H   0  0  0  0  0  0  0  0  0  0  0  0
   48.8999    6.9001   14.3476 H   0  0  0  0  0  0  0  0  0  0  0  0
   44.4202   10.0572   10.9782 H   0  0  0  0  0  0  0  0  0  0  0  0
   42.6367    6.2682   11.2276 H   0  0  0  0  0  0  0  0  0  0  0  0
   43.3232   13.3723   11.4473 H   0  0  0  0  0  0  0  0  0  0  0  0
   42.9188   11.8195   11.3728 H   0  0  0  0  0  0  0  0  0  0  0  0
   52.7867    8.6623   15.6730 H   0  0  0  0  0  0  0  0  0  0  0  0
   53.0373    7.7995   14.3087 H   0  0  0  0  0  0  0  0  0  0  0  0
   42.3749    3.8803   11.9089 H   0  0  0  0  0  0  0  0  0  0  0  0
   50.4871    9.3486   14.8754 H   0  0  0  0  0  0  0  0  0  0  0  0
   50.7496    8.3943   13.3961 H   0  0  0  0  0  0  0  0  0  0  0  0
   45.8054   12.6666   11.2595 H   0  0  0  0  0  0  0  0  0  0  0  0
   46.1774   11.5562    9.9170 H   0  0  0  0  0  0  0  0  0  0  0  0
   51.1713    6.3609   14.8129 H   0  0  0  0  0  0  0  0  0  0  0  0
   50.8962    7.3080   16.2678 H   0  0  0  0  0  0  0  0  0  0  0  0
   43.8454   11.6140    9.1597 H   0  0  0  0  0  0  0  0  0  0  0  0
   44.4266   13.2731    9.3272 H   0  0  0  0  0  0  0  0  0  0  0  0
   44.6793    7.5498   13.3086 H   0  0  0  0  0  0  0  0  0  0  0  0
   46.9026    6.6819   13.7950 H   0  0  0  0  0  0  0  0  0  0  0  0
   49.8379    8.2080   13.0344 H   0  0  0  0  0  0  0  0  0  0  0  0
   45.7318   11.1125   12.1793 H   0  0  0  0  0  0  0  0  0  0  0  0
  1  3  1  0
  3  2  2  0
  4  1  2  0
  5  1  1  0
  2  6  1  0
  6  7  2  0
  6  8  1  0
 24 16  1  0
 25 14  1  0
 26 32  1  0
 27 31  1  0
 28 25  2  0
 29 23  1  0
 30 24  1  0
 31 29  1  0
 32 30  1  0
 16 20  2  0
 14 13  2  0
 19 28  1  0
 10  9  2  0
 11  9  1  0
 12 10  1  0
 13 11  1  0
 14 12  1  0
 15  9  1  0
 16 10  1  0
 17 11  2  0
 18 12  2  0
 19 22  2  0
 20 21  1  0
 21 15  2  0
 22 13  1  0
 23 15  1  0
 33 35  1  0
 35 34  2  0
 36 33  2  0
 37 33  1  0
 34 38  1  0
 38 39  2  0
 38 40  1  0
  2 41  1  0
  3 42  1  0
  5 43  1  0
  8 44  1  0
 20 45  1  0
 21 46  1  0
 22 47  1  0
 23 48  1  0
 24 49  1  0
 25 50  1  0
 26 51  1  0
 26 52  1  0
 27 53  1  0
 27 54  1  0
 28 55  1  0
 29 56  1  0
 29 57  1  0
 30 58  1  0
 30 59  1  0
 31 60  1  0
 31 61  1  0
 32 62  1  0
 32 63  1  0
 34 64  1  0
 35 65  1  0
 37 66  1  0
 40 67  1  0
M  END
> <Uni-Dock RESULT> 
ENERGY=   -5.554  LOWER_BOUND=    1.309  UPPER_BOUND=    5.240
INTER + INTRA:          -5.554
INTER:                  -5.554
INTRA:                   0.000
UNBOUND:                 0.000

$$$$

     RDKit          3D

 67 67  0  0  0  0  0  0  0  0999 V2000
   46.5409    9.2810   12.7823 C   0  0  0  0  0  0  0  0  0  0  0  0
   48.9564    9.8533   12.7787 C   0  0  0  0  0  0  0  0  0  0  0  0
   47.6701   10.2167   12.8660 C   0  0  0  0  0  0  0  0  0  0  0  0
   46.5377    8.0862   12.9995 O   0  0  0  0  0  0  0  0  0  0  0  0
   45.4244    9.9522   12.4572 O   0  0  0  0  0  0  0  0  0  0  0  0
   49.4242    8.4956   12.4905 C   0  0  0  0  0  0  0  0  0  0  0  0
   50.3049    7.9176   13.0984 O   0  0  0  0  0  0  0  0  0  0  0  0
   48.8553    7.9948   11.3847 O   0  0  0  0  0  0  0  0  0  0  0  0
   47.0869    9.0614   12.1852 C   0  0  0  0  0  0  0  0  0  0  0  0
   48.3378    8.4462   12.3976 C   0  0  0  0  0  0  0  0  0  0  0  0
   45.8438    8.3097   12.5159 C   0  0  0  0  0  0  0  0  0  0  0  0
   48.3834    7.0597   12.9434 C   0  0  0  0  0  0  0  0  0  0  0  0
   45.9255    6.8853   12.8405 C   0  0  0  0  0  0  0  0  0  0  0  0
   47.1470    6.2726   13.0472 C   0  0  0  0  0  0  0  0  0  0  0  0
   47.0028   10.3868   11.6899 C   0  0  0  0  0  0  0  0  0  0  0  0
   49.5436    9.1394   12.1239 C   0  0  0  0  0  0  0  0  0  0  0  0
   44.7453    8.8568   12.5399 O   0  0  0  0  0  0  0  0  0  0  0  0
   49.4351    6.5548   13.3268 O   0  0  0  0  0  0  0  0  0  0  0  0
   44.7996    4.7977   13.2876 N   0  0  0  0  0  0  0  0  0  0  0  0
   49.4419   10.4301   11.5949 C   0  0  0  0  0  0  0  0  0  0  0  0
   48.2015   11.0390   11.3832 C   0  0  0  0  0  0  0  0  0  0  0  0
   44.7809    6.1164   12.9745 C   0  0  0  0  0  0  0  0  0  0  0  0
   45.7648   10.9752   11.3686 N   0  0  0  0  0  0  0  0  0  0  0  0
   50.7984    8.5059   12.2267 N   0  0  0  0  0  0  0  0  0  0  0  0
   47.2016    4.9172   13.3789 C   0  0  0  0  0  0  0  0  0  0  0  0
   53.4543    7.5198   11.7458 N   0  0  0  0  0  0  0  0  0  0  0  0
   43.8777   14.2503   11.4849 N   0  0  0  0  0  0  0  0  0  0  0  0
   46.0081    4.2272   13.4836 C   0  0  0  0  0  0  0  0  0  0  0  0
   45.6004   12.4194   11.5327 C   0  0  0  0  0  0  0  0  0  0  0  0
   51.9526    9.3032   12.6623 C   0  0  0  0  0  0  0  0  0  0  0  0
   44.1206   12.8130   11.3398 C   0  0  0  0  0  0  0  0  0  0  0  0
   53.1661    8.3791   12.9022 C   0  0  0  0  0  0  0  0  0  0  0  0
   47.0743   10.1550   12.6612 C   0  0  0  0  0  0  0  0  0  0  0  0
   47.8107    7.9007   11.9275 C   0  0  0  0  0  0  0  0  0  0  0  0
   46.8418    8.8003   12.1431 C   0  0  0  0  0  0  0  0  0  0  0  0
   48.0193   10.5605   13.3070 O   0  0  0  0  0  0  0  0  0  0  0  0
   46.0279   10.9387   12.3548 O   0  0  0  0  0  0  0  0  0  0  0  0
   49.2436    8.1620   12.0804 C   0  0  0  0  0  0  0  0  0  0  0  0
   50.0273    7.4344   12.6597 O   0  0  0  0  0  0  0  0  0  0  0  0
   49.6304    9.2458   11.3928 O   0  0  0  0  0  0  0  0  0  0  0  0
   49.7467   10.5762   12.9409 H   0  0  0  0  0  0  0  0  0  0  0  0
   47.4094   11.2527   13.0499 H   0  0  0  0  0  0  0  0  0  0  0  0
   44.7359    9.2553   12.4264 H   0  0  0  0  0  0  0  0  0  0  0  0
   49.2170    7.0872   11.3207 H   0  0  0  0  0  0  0  0  0  0  0  0
   50.3296   10.9791   11.2929 H   0  0  0  0  0  0  0  0  0  0  0  0
   48.1973   12.0264   10.9295 H   0  0  0  0  0  0  0  0  0  0  0  0
   43.7893    6.5402   12.8324 H   0  0  0  0  0  0  0  0  0  0  0  0
   44.9986   10.4484   11.8156 H   0  0  0  0  0  0  0  0  0  0  0  0
   50.7072    7.6480   12.7939 H   0  0  0  0  0  0  0  0  0  0  0  0
   48.1468    4.4124   13.5528 H   0  0  0  0  0  0  0  0  0  0  0  0
   53.6691    8.1113   10.9431 H   0  0  0  0  0  0  0  0  0  0  0  0
   52.5695    7.0727   11.4837 H   0  0  0  0  0  0  0  0  0  0  0  0
   44.4315   14.7630   10.7999 H   0  0  0  0  0  0  0  0  0  0  0  0
   44.1901   14.5630   12.4032 H   0  0  0  0  0  0  0  0  0  0  0  0
   45.9886    3.1704   13.7371 H   0  0  0  0  0  0  0  0  0  0  0  0
   46.2021   12.9574   10.7912 H   0  0  0  0  0  0  0  0  0  0  0  0
   45.9283   12.7241   12.5344 H   0  0  0  0  0  0  0  0  0  0  0  0
   52.2227   10.0350   11.8929 H   0  0  0  0  0  0  0  0  0  0  0  0
   51.7215    9.8381   13.5910 H   0  0  0  0  0  0  0  0  0  0  0  0
   43.4984   12.2793   12.0675 H   0  0  0  0  0  0  0  0  0  0  0  0
   43.7812   12.4973   10.3464 H   0  0  0  0  0  0  0  0  0  0  0  0
   52.9680    7.7330   13.7649 H   0  0  0  0  0  0  0  0  0  0  0  0
   54.0498    8.9805   13.1389 H   0  0  0  0  0  0  0  0  0  0  0  0
   47.5674    6.8871   11.6329 H   0  0  0  0  0  0  0  0  0  0  0  0
   45.8050    8.5334   11.9736 H   0  0  0  0  0  0  0  0  0  0  0  0
   46.2701   11.8082   12.7371 H   0  0  0  0  0  0  0  0  0  0  0  0
   50.5834    9.3322   11.6004 H   0  0  0  0  0  0  0  0  0  0  0  0
  1  3  1  0
  3  2  2  0
  4  1  2  0
  5  1  1  0
  2  6  1  0
  6  7  2  0
  6  8  1  0
 24 16  1  0
 25 14  1  0
 26 32  1  0
 27 31  1  0
 28 25  2  0
 29 23  1  0
 30 24  1  0
 31 29  1  0
 32 30  1  0
 16 20  2  0
 14 13  2  0
 19 28  1  0
 10  9  2  0
 11  9  1  0
 12 10  1  0
 13 11  1  0
 14 12  1  0
 15  9  1  0
 16 10  1  0
 17 11  2  0
 18 12  2  0
 19 22  2  0
 20 21  1  0
 21 15  2  0
 22 13  1  0
 23 15  1  0
 33 35  1  0
 35 34  2  0
 36 33  2  0
 37 33  1  0
 34 38  1  0
 38 39  2  0
 38 40  1  0
  2 41  1  0
  3 42  1  0
  5 43  1  0
  8 44  1  0
 20 45  1  0
 21 46  1  0
 22 47  1  0
 23 48  1  0
 24 49  1  0
 25 50  1  0
 26 51  1  0
 26 52  1  0
 27 53  1  0
 27 54  1  0
 28 55  1  0
 29 56  1  0
 29 57  1  0
 30 58  1  0
 30 59  1  0
 31 60  1  0
 31 61  1  0
 32 62  1  0
 32 63  1  0
 34 64  1  0
 35 65  1  0
 37 66  1  0
 40 67  1  0
M  END
> <Uni-Dock RESULT> 
ENERGY=   -5.103  LOWER_BOUND=    1.811  UPPER_BOUND=    4.828
INTER + INTRA:          -5.103
INTER:                  -5.103
INTRA:                   0.000
UNBOUND:                 0.000

$$$$

     RDKit          3D

 67 67  0  0  0  0  0  0  0  0999 V2000
   48.2115    6.8792   13.8587 C   0  0  0  0  0  0  0  0  0  0  0  0
   46.7317    6.0374   12.0520 C   0  0  0  0  0  0  0  0  0  0  0  0
   47.6184    6.9280   12.5157 C   0  0  0  0  0  0  0  0  0  0  0  0
   48.3260    5.9203   14.5949 O   0  0  0  0  0  0  0  0  0  0  0  0
   48.6851    8.0925   14.1850 O   0  0  0  0  0  0  0  0  0  0  0  0
   46.1504    4.9481   12.8399 C   0  0  0  0  0  0  0  0  0  0  0  0
   46.0490    3.7948   12.4670 O   0  0  0  0  0  0  0  0  0  0  0  0
   45.6172    5.3902   13.9876 O   0  0  0  0  0  0  0  0  0  0  0  0
   47.3947    6.7110   13.9445 C   0  0  0  0  0  0  0  0  0  0  0  0
   46.7520    5.5199   13.5486 C   0  0  0  0  0  0  0  0  0  0  0  0
   48.3912    6.6639   15.0510 C   0  0  0  0  0  0  0  0  0  0  0  0
   47.0835    4.2467   14.2496 C   0  0  0  0  0  0  0  0  0  0  0  0
   48.5256    5.4461   15.8510 C   0  0  0  0  0  0  0  0  0  0  0  0
   47.8970    4.2748   15.4730 C   0  0  0  0  0  0  0  0  0  0  0  0
   47.1236    7.9370   13.2868 C   0  0  0  0  0  0  0  0  0  0  0  0
   45.8206    5.5180   12.4801 C   0  0  0  0  0  0  0  0  0  0  0  0
   49.1202    7.6183   15.3047 O   0  0  0  0  0  0  0  0  0  0  0  0
   46.7039    3.1603   13.8215 O   0  0  0  0  0  0  0  0  0  0  0  0
   49.4761    4.3221   17.7637 N   0  0  0  0  0  0  0  0  0  0  0  0
   45.5325    6.7437   11.8710 C   0  0  0  0  0  0  0  0  0  0  0  0
   46.1688    7.9245   12.2648 C   0  0  0  0  0  0  0  0  0  0  0  0
   49.3063    5.4257   16.9953 C   0  0  0  0  0  0  0  0  0  0  0  0
   47.6719    9.1521   13.7398 N   0  0  0  0  0  0  0  0  0  0  0  0
   45.0891    4.3621   12.1410 N   0  0  0  0  0  0  0  0  0  0  0  0
   48.0572    3.1175   16.2380 C   0  0  0  0  0  0  0  0  0  0  0  0
   43.0124    2.4913   11.4741 N   0  0  0  0  0  0  0  0  0  0  0  0
   49.0946   12.4398   12.5285 N   0  0  0  0  0  0  0  0  0  0  0  0
   48.8492    3.1928   17.3687 C   0  0  0  0  0  0  0  0  0  0  0  0
   47.9714   10.2029   12.7674 C   0  0  0  0  0  0  0  0  0  0  0  0
   44.7486    4.1367   10.7300 C   0  0  0  0  0  0  0  0  0  0  0  0
   48.7612   11.3444   13.4422 C   0  0  0  0  0  0  0  0  0  0  0  0
   44.1360    2.7298   10.5581 C   0  0  0  0  0  0  0  0  0  0  0  0
   47.8266    7.2873   12.9936 C   0  0  0  0  0  0  0  0  0  0  0  0
   46.6871    5.6165   14.4334 C   0  0  0  0  0  0  0  0  0  0  0  0
   47.5019    6.6696   14.2862 C   0  0  0  0  0  0  0  0  0  0  0  0
   47.7617    6.7919   11.8868 O   0  0  0  0  0  0  0  0  0  0  0  0
   48.2765    8.5366   13.1932 O   0  0  0  0  0  0  0  0  0  0  0  0
   45.9267    4.9898   13.3500 C   0  0  0  0  0  0  0  0  0  0  0  0
   45.8561    3.7922   13.1495 O   0  0  0  0  0  0  0  0  0  0  0  0
   45.2006    5.8850   12.6657 O   0  0  0  0  0  0  0  0  0  0  0  0
   46.4009    6.0730   11.0211 H   0  0  0  0  0  0  0  0  0  0  0  0
   47.9739    7.7257   11.8736 H   0  0  0  0  0  0  0  0  0  0  0  0
   49.0565    7.9624   15.0827 H   0  0  0  0  0  0  0  0  0  0  0  0
   45.2985    4.5775   14.4310 H   0  0  0  0  0  0  0  0  0  0  0  0
   44.7701    6.8164   11.1002 H   0  0  0  0  0  0  0  0  0  0  0  0
   45.8644    8.8463   11.7766 H   0  0  0  0  0  0  0  0  0  0  0  0
   49.8331    6.3118   17.3421 H   0  0  0  0  0  0  0  0  0  0  0  0
   48.4729    8.9657   14.3627 H   0  0  0  0  0  0  0  0  0  0  0  0
   45.5478    3.5310   12.5474 H   0  0  0  0  0  0  0  0  0  0  0  0
   47.5801    2.1826   15.9608 H   0  0  0  0  0  0  0  0  0  0  0  0
   42.2800    3.1741   11.2796 H   0  0  0  0  0  0  0  0  0  0  0  0
   43.3373    2.7493   12.4118 H   0  0  0  0  0  0  0  0  0  0  0  0
   48.2393   12.8356   12.1404 H   0  0  0  0  0  0  0  0  0  0  0  0
   49.6321   12.0815   11.7403 H   0  0  0  0  0  0  0  0  0  0  0  0
   49.0087    2.3251   18.0037 H   0  0  0  0  0  0  0  0  0  0  0  0
   47.0434   10.6179   12.3578 H   0  0  0  0  0  0  0  0  0  0  0  0
   48.5641    9.7925   11.9403 H   0  0  0  0  0  0  0  0  0  0  0  0
   44.0145    4.8766   10.3921 H   0  0  0  0  0  0  0  0  0  0  0  0
   45.6434    4.2163   10.1015 H   0  0  0  0  0  0  0  0  0  0  0  0
   49.6915   10.9495   13.8666 H   0  0  0  0  0  0  0  0  0  0  0  0
   48.1817   11.7491   14.2800 H   0  0  0  0  0  0  0  0  0  0  0  0
   44.9022    1.9715   10.7551 H   0  0  0  0  0  0  0  0  0  0  0  0
   43.7993    2.5952    9.5250 H   0  0  0  0  0  0  0  0  0  0  0  0
   46.5600    5.1478   15.4016 H   0  0  0  0  0  0  0  0  0  0  0  0
   48.0025    7.0941   15.1489 H   0  0  0  0  0  0  0  0  0  0  0  0
   48.4657    8.8618   12.2881 H   0  0  0  0  0  0  0  0  0  0  0  0
   44.7734    5.3566   11.9606 H   0  0  0  0  0  0  0  0  0  0  0  0
  1  3  1  0
  3  2  2  0
  4  1  2  0
  5  1  1  0
  2  6  1  0
  6  7  2  0
  6  8  1  0
 24 16  1  0
 25 14  1  0
 26 32  1  0
 27 31  1  0
 28 25  2  0
 29 23  1  0
 30 24  1  0
 31 29  1  0
 32 30  1  0
 16 20  2  0
 14 13  2  0
 19 28  1  0
 10  9  2  0
 11  9  1  0
 12 10  1  0
 13 11  1  0
 14 12  1  0
 15  9  1  0
 16 10  1  0
 17 11  2  0
 18 12  2  0
 19 22  2  0
 20 21  1  0
 21 15  2  0
 22 13  1  0
 23 15  1  0
 33 35  1  0
 35 34  2  0
 36 33  2  0
 37 33  1  0
 34 38  1  0
 38 39  2  0
 38 40  1  0
  2 41  1  0
  3 42  1  0
  5 43  1  0
  8 44  1  0
 20 45  1  0
 21 46  1  0
 22 47  1  0
 23 48  1  0
 24 49  1  0
 25 50  1  0
 26 51  1  0
 26 52  1  0
 27 53  1  0
 27 54  1  0
 28 55  1  0
 29 56  1  0
 29 57  1  0
 30 58  1  0
 30 59  1  0
 31 60  1  0
 31 61  1  0
 32 62  1  0
 32 63  1  0
 34 64  1  0
 35 65  1  0
 37 66  1  0
 40 67  1  0
M  END
> <Uni-Dock RESULT> 
ENERGY=   -5.079  LOWER_BOUND=    2.143  UPPER_BOUND=    6.522
INTER + INTRA:          -5.079
INTER:                  -5.079
INTRA:                   0.000
UNBOUND:                 0.000

$$$$

     RDKit          3D

 67 67  0  0  0  0  0  0  0  0999 V2000
   47.8266    9.2480   13.3909 C   0  0  0  0  0  0  0  0  0  0  0  0
   46.9692    6.9356   13.6739 C   0  0  0  0  0  0  0  0  0  0  0  0
   47.8539    7.8975   13.9680 C   0  0  0  0  0  0  0  0  0  0  0  0
   46.8839    9.8371   12.9020 O   0  0  0  0  0  0  0  0  0  0  0  0
   49.0383    9.8134   13.5133 O   0  0  0  0  0  0  0  0  0  0  0  0
   45.9107    7.0520   12.6683 C   0  0  0  0  0  0  0  0  0  0  0  0
   44.7509    6.7265   12.8358 O   0  0  0  0  0  0  0  0  0  0  0  0
   46.3908    7.4449   11.4800 O   0  0  0  0  0  0  0  0  0  0  0  0
   47.6761    8.7104   12.7655 C   0  0  0  0  0  0  0  0  0  0  0  0
   46.4881    7.9738   12.5792 C   0  0  0  0  0  0  0  0  0  0  0  0
   47.6371   10.1941   12.6363 C   0  0  0  0  0  0  0  0  0  0  0  0
   45.2264    8.6983   12.2544 C   0  0  0  0  0  0  0  0  0  0  0  0
   46.4368   10.8419   12.1065 C   0  0  0  0  0  0  0  0  0  0  0  0
   45.2688   10.1279   11.9173 C   0  0  0  0  0  0  0  0  0  0  0  0
   48.8906    8.0598   13.0984 C   0  0  0  0  0  0  0  0  0  0  0  0
   46.4779    6.5637   12.7234 C   0  0  0  0  0  0  0  0  0  0  0  0
   48.5834   10.8972   12.9781 O   0  0  0  0  0  0  0  0  0  0  0  0
   44.1372    8.1316   12.2744 O   0  0  0  0  0  0  0  0  0  0  0  0
   45.3419   12.8456   11.3242 N   0  0  0  0  0  0  0  0  0  0  0  0
   47.6936    5.9340   13.0092 C   0  0  0  0  0  0  0  0  0  0  0  0
   48.8713    6.6645   13.1924 C   0  0  0  0  0  0  0  0  0  0  0  0
   46.4296   12.1937   11.8034 C   0  0  0  0  0  0  0  0  0  0  0  0
   50.1058    8.7663   13.1793 N   0  0  0  0  0  0  0  0  0  0  0  0
   45.3281    5.8011   12.4360 N   0  0  0  0  0  0  0  0  0  0  0  0
   44.1277   10.7705   11.4325 C   0  0  0  0  0  0  0  0  0  0  0  0
   43.4815    3.8337   11.4477 N   0  0  0  0  0  0  0  0  0  0  0  0
   53.3354    8.9693   15.1362 N   0  0  0  0  0  0  0  0  0  0  0  0
   44.2155   12.1210   11.1499 C   0  0  0  0  0  0  0  0  0  0  0  0
   51.1267    8.3182   14.1262 C   0  0  0  0  0  0  0  0  0  0  0  0
   45.0749    4.5894   13.2269 C   0  0  0  0  0  0  0  0  0  0  0  0
   52.2691    9.3528   14.2078 C   0  0  0  0  0  0  0  0  0  0  0  0
   43.6762    4.0283   12.8909 C   0  0  0  0  0  0  0  0  0  0  0  0
   48.2207    8.3749   13.7723 C   0  0  0  0  0  0  0  0  0  0  0  0
   46.6075    8.5304   11.8918 C   0  0  0  0  0  0  0  0  0  0  0  0
   47.6411    9.0222   12.5879 C   0  0  0  0  0  0  0  0  0  0  0  0
   47.6998    7.5731   14.5209 O   0  0  0  0  0  0  0  0  0  0  0  0
   49.4657    8.8364   13.9722 O   0  0  0  0  0  0  0  0  0  0  0  0
   45.9691    7.2368   12.1444 C   0  0  0  0  0  0  0  0  0  0  0  0
   44.7686    7.0516   12.2058 O   0  0  0  0  0  0  0  0  0  0  0  0
   46.8610    6.2366   12.1760 O   0  0  0  0  0  0  0  0  0  0  0  0
   46.9860    5.9898   14.2018 H   0  0  0  0  0  0  0  0  0  0  0  0
   48.6288    7.7165   14.7041 H   0  0  0  0  0  0  0  0  0  0  0  0
   48.9231   10.6981   13.1074 H   0  0  0  0  0  0  0  0  0  0  0  0
   45.5954    7.5172   10.9137 H   0  0  0  0  0  0  0  0  0  0  0  0
   47.7619    4.8504   13.0538 H   0  0  0  0  0  0  0  0  0  0  0  0
   49.7866    6.1061   13.3695 H   0  0  0  0  0  0  0  0  0  0  0  0
   47.3136   12.8129   11.9370 H   0  0  0  0  0  0  0  0  0  0  0  0
   49.9195    9.7774   13.2656 H   0  0  0  0  0  0  0  0  0  0  0  0
   44.4987    6.4159   12.4269 H   0  0  0  0  0  0  0  0  0  0  0  0
   43.1955   10.2353   11.2805 H   0  0  0  0  0  0  0  0  0  0  0  0
   44.1731    3.1640   11.1108 H   0  0  0  0  0  0  0  0  0  0  0  0
   43.7561    4.7108   10.9928 H   0  0  0  0  0  0  0  0  0  0  0  0
   53.7377    8.0783   14.8479 H   0  0  0  0  0  0  0  0  0  0  0  0
   52.9477    8.8248   16.0676 H   0  0  0  0  0  0  0  0  0  0  0  0
   43.3606   12.6736   10.7685 H   0  0  0  0  0  0  0  0  0  0  0  0
   51.5491    7.3594   13.8046 H   0  0  0  0  0  0  0  0  0  0  0  0
   50.6850    8.1875   15.1220 H   0  0  0  0  0  0  0  0  0  0  0  0
   45.8201    3.8203   12.9953 H   0  0  0  0  0  0  0  0  0  0  0  0
   45.1221    4.8136   14.2990 H   0  0  0  0  0  0  0  0  0  0  0  0
   51.8670   10.3233   14.5207 H   0  0  0  0  0  0  0  0  0  0  0  0
   52.7050    9.5005   13.2130 H   0  0  0  0  0  0  0  0  0  0  0  0
   42.9085    4.7248   13.2467 H   0  0  0  0  0  0  0  0  0  0  0  0
   43.5228    3.0773   13.4112 H   0  0  0  0  0  0  0  0  0  0  0  0
   46.1651    9.1000   11.0837 H   0  0  0  0  0  0  0  0  0  0  0  0
   48.0769    9.9758   12.3128 H   0  0  0  0  0  0  0  0  0  0  0  0
   49.7651    8.3557   14.7722 H   0  0  0  0  0  0  0  0  0  0  0  0
   46.3238    5.4445   12.3829 H   0  0  0  0  0  0  0  0  0  0  0  0
  1  3  1  0
  3  2  2  0
  4  1  2  0
  5  1  1  0
  2  6  1  0
  6  7  2  0
  6  8  1  0
 24 16  1  0
 25 14  1  0
 26 32  1  0
 27 31  1  0
 28 25  2  0
 29 23  1  0
 30 24  1  0
 31 29  1  0
 32 30  1  0
 16 20  2  0
 14 13  2  0
 19 28  1  0
 10  9  2  0
 11  9  1  0
 12 10  1  0
 13 11  1  0
 14 12  1  0
 15  9  1  0
 16 10  1  0
 17 11  2  0
 18 12  2  0
 19 22  2  0
 20 21  1  0
 21 15  2  0
 22 13  1  0
 23 15  1  0
 33 35  1  0
 35 34  2  0
 36 33  2  0
 37 33  1  0
 34 38  1  0
 38 39  2  0
 38 40  1  0
  2 41  1  0
  3 42  1  0
  5 43  1  0
  8 44  1  0
 20 45  1  0
 21 46  1  0
 22 47  1  0
 23 48  1  0
 24 49  1  0
 25 50  1  0
 26 51  1  0
 26 52  1  0
 27 53  1  0
 27 54  1  0
 28 55  1  0
 29 56  1  0
 29 57  1  0
 30 58  1  0
 30 59  1  0
 31 60  1  0
 31 61  1  0
 32 62  1  0
 32 63  1  0
 34 64  1  0
 35 65  1  0
 37 66  1  0
 40 67  1  0
M  END
> <Uni-Dock RESULT> 
ENERGY=   -4.848  LOWER_BOUND=    1.134  UPPER_BOUND=    4.961
INTER + INTRA:          -4.848
INTER:                  -4.848
INTRA:                   0.000
UNBOUND:                 0.000

$$$$

     RDKit          3D

 67 67  0  0  0  0  0  0  0  0999 V2000
   49.0188    9.2549   16.9532 C   0  0  0  0  0  0  0  0  0  0  0  0
   49.1705    7.1904   18.3232 C   0  0  0  0  0  0  0  0  0  0  0  0
   49.4834    7.8879   17.2232 C   0  0  0  0  0  0  0  0  0  0  0  0
   48.6395   10.0903   17.7487 O   0  0  0  0  0  0  0  0  0  0  0  0
   49.1084    9.5081   15.6376 O   0  0  0  0  0  0  0  0  0  0  0  0
   48.2469    7.6431   19.3659 C   0  0  0  0  0  0  0  0  0  0  0  0
   48.4615    7.5831   20.5616 O   0  0  0  0  0  0  0  0  0  0  0  0
   47.0655    8.0214   18.8578 O   0  0  0  0  0  0  0  0  0  0  0  0
   48.3634    8.8274   17.2541 C   0  0  0  0  0  0  0  0  0  0  0  0
   48.1950    8.4089   18.5901 C   0  0  0  0  0  0  0  0  0  0  0  0
   48.3557   10.2847   16.9443 C   0  0  0  0  0  0  0  0  0  0  0  0
   48.0101    9.4346   19.6560 C   0  0  0  0  0  0  0  0  0  0  0  0
   47.9568   11.2409   17.9776 C   0  0  0  0  0  0  0  0  0  0  0  0
   47.7861   10.8398   19.2891 C   0  0  0  0  0  0  0  0  0  0  0  0
   48.5652    7.8836   16.2161 C   0  0  0  0  0  0  0  0  0  0  0  0
   48.2266    7.0330   18.9294 C   0  0  0  0  0  0  0  0  0  0  0  0
   48.6915   10.7129   15.8441 O   0  0  0  0  0  0  0  0  0  0  0  0
   48.0542    9.1383   20.8468 O   0  0  0  0  0  0  0  0  0  0  0  0
   47.4082   13.5083   18.5969 N   0  0  0  0  0  0  0  0  0  0  0  0
   48.3832    6.1133   17.8874 C   0  0  0  0  0  0  0  0  0  0  0  0
   48.5486    6.5287   16.5629 C   0  0  0  0  0  0  0  0  0  0  0  0
   47.7635   12.5792   17.6760 C   0  0  0  0  0  0  0  0  0  0  0  0
   48.6246    8.2764   14.8654 N   0  0  0  0  0  0  0  0  0  0  0  0
   47.9532    6.5896   20.2390 N   0  0  0  0  0  0  0  0  0  0  0  0
   47.4278   11.7729   20.2643 C   0  0  0  0  0  0  0  0  0  0  0  0
   46.9309    5.2076   22.5416 N   0  0  0  0  0  0  0  0  0  0  0  0
   50.3815    7.5382   11.5991 N   0  0  0  0  0  0  0  0  0  0  0  0
   47.2488   13.0859   19.8698 C   0  0  0  0  0  0  0  0  0  0  0  0
   49.4656    7.5168   13.9406 C   0  0  0  0  0  0  0  0  0  0  0  0
   48.6595    5.4026   20.7390 C   0  0  0  0  0  0  0  0  0  0  0  0
   49.5565    8.2442   12.5824 C   0  0  0  0  0  0  0  0  0  0  0  0
   48.3696    5.2170   22.2442 C   0  0  0  0  0  0  0  0  0  0  0  0
   49.3034    8.2825   16.7621 C   0  0  0  0  0  0  0  0  0  0  0  0
   47.5480    8.9834   18.3714 C   0  0  0  0  0  0  0  0  0  0  0  0
   48.2138    9.1539   17.2215 C   0  0  0  0  0  0  0  0  0  0  0  0
   50.0174    7.5586   17.4261 O   0  0  0  0  0  0  0  0  0  0  0  0
   49.4597    8.4202   15.4356 O   0  0  0  0  0  0  0  0  0  0  0  0
   47.7368    7.8568   19.2879 C   0  0  0  0  0  0  0  0  0  0  0  0
   47.8596    7.9520   20.4942 O   0  0  0  0  0  0  0  0  0  0  0  0
   47.6316    6.6776   18.6591 O   0  0  0  0  0  0  0  0  0  0  0  0
   49.6191    6.2221   18.5093 H   0  0  0  0  0  0  0  0  0  0  0  0
   50.1518    7.4637   16.4826 H   0  0  0  0  0  0  0  0  0  0  0  0
   48.7825   10.4290   15.5563 H   0  0  0  0  0  0  0  0  0  0  0  0
   46.5587    8.3294   19.6368 H   0  0  0  0  0  0  0  0  0  0  0  0
   48.3368    5.0444   18.0770 H   0  0  0  0  0  0  0  0  0  0  0  0
   48.6219    5.7582   15.8001 H   0  0  0  0  0  0  0  0  0  0  0  0
   47.8895   12.9599   16.6651 H   0  0  0  0  0  0  0  0  0  0  0  0
   48.8029    9.2906   14.8018 H   0  0  0  0  0  0  0  0  0  0  0  0
   48.0460    7.3792   20.8978 H   0  0  0  0  0  0  0  0  0  0  0  0
   47.2933   11.4865   21.3027 H   0  0  0  0  0  0  0  0  0  0  0  0
   46.4982    4.4291   22.0445 H   0  0  0  0  0  0  0  0  0  0  0  0
   46.5308    6.0346   22.0860 H   0  0  0  0  0  0  0  0  0  0  0  0
   49.9980    6.6086   11.4332 H   0  0  0  0  0  0  0  0  0  0  0  0
   51.3212    7.4025   11.9694 H   0  0  0  0  0  0  0  0  0  0  0  0
   46.9680   13.8555   20.5842 H   0  0  0  0  0  0  0  0  0  0  0  0
   49.0423    6.5199   13.7728 H   0  0  0  0  0  0  0  0  0  0  0  0
   50.4740    7.4012   14.3574 H   0  0  0  0  0  0  0  0  0  0  0  0
   48.3202    4.5057   20.2089 H   0  0  0  0  0  0  0  0  0  0  0  0
   49.7408    5.5095   20.5936 H   0  0  0  0  0  0  0  0  0  0  0  0
   49.9709    9.2484   12.7281 H   0  0  0  0  0  0  0  0  0  0  0  0
   48.5509    8.3775   12.1671 H   0  0  0  0  0  0  0  0  0  0  0  0
   48.8280    6.0373   22.8080 H   0  0  0  0  0  0  0  0  0  0  0  0
   48.8211    4.2840   22.5969 H   0  0  0  0  0  0  0  0  0  0  0  0
   46.8178    9.7129   18.7000 H   0  0  0  0  0  0  0  0  0  0  0  0
   47.9884   10.0008   16.5835 H   0  0  0  0  0  0  0  0  0  0  0  0
   50.1981    7.8110   15.2251 H   0  0  0  0  0  0  0  0  0  0  0  0
   47.8084    6.0171   19.3600 H   0  0  0  0  0  0  0  0  0  0  0  0
  1  3  1  0
  3  2  2  0
  4  1  2  0
  5  1  1  0
  2  6  1  0
  6  7  2  0
  6  8  1  0
 24 16  1  0
 25 14  1  0
 26 32  1  0
 27 31  1  0
 28 25  2  0
 29 23  1  0
 30 24  1  0
 31 29  1  0
 32 30  1  0
 16 20  2  0
 14 13  2  0
 19 28  1  0
 10  9  2  0
 11  9  1  0
 12 10  1  0
 13 11  1  0
 14 12  1  0
 15  9  1  0
 16 10  1  0
 17 11  2  0
 18 12  2  0
 19 22  2  0
 20 21  1  0
 21 15  2  0
 22 13  1  0
 23 15  1  0
 33 35  1  0
 35 34  2  0
 36 33  2  0
 37 33  1  0
 34 38  1  0
 38 39  2  0
 38 40  1  0
  2 41  1  0
  3 42  1  0
  5 43  1  0
  8 44  1  0
 20 45  1  0
 21 46  1  0
 22 47  1  0
 23 48  1  0
 24 49  1  0
 25 50  1  0
 26 51  1  0
 26 52  1  0
 27 53  1  0
 27 54  1  0
 28 55  1  0
 29 56  1  0
 29 57  1  0
 30 58  1  0
 30 59  1  0
 31 60  1  0
 31 61  1  0
 32 62  1  0
 32 63  1  0
 34 64  1  0
 35 65  1  0
 37 66  1  0
 40 67  1  0
M  END
> <Uni-Dock RESULT> 
ENERGY=   -4.642  LOWER_BOUND=    5.101  UPPER_BOUND=    6.947
INTER + INTRA:          -4.642
INTER:                  -4.642
INTRA:                   0.000
UNBOUND:                 0.000

$$$$
