
     RDKit          3D

 67 67  0  0  0  0  0  0  0  0999 V2000
   49.4692    9.1309   18.8683 C   0  0  0  0  0  0  0  0  0  0  0  0
   47.5563    9.3615   20.4620 C   0  0  0  0  0  0  0  0  0  0  0  0
   48.6219    8.7039   19.9851 C   0  0  0  0  0  0  0  0  0  0  0  0
   50.6708    8.9487   18.8025 O   0  0  0  0  0  0  0  0  0  0  0  0
   48.7667    9.6386   17.8450 O   0  0  0  0  0  0  0  0  0  0  0  0
   47.0859   10.6765   20.0174 C   0  0  0  0  0  0  0  0  0  0  0  0
   45.9163   11.0057   19.9476 O   0  0  0  0  0  0  0  0  0  0  0  0
   48.0860   11.5455   19.8110 O   0  0  0  0  0  0  0  0  0  0  0  0
   47.7193   10.1770   20.4879 C   0  0  0  0  0  0  0  0  0  0  0  0
   47.7340    9.3022   19.3807 C   0  0  0  0  0  0  0  0  0  0  0  0
   47.6728    9.6060   21.8663 C   0  0  0  0  0  0  0  0  0  0  0  0
   47.7667    7.8296   19.6131 C   0  0  0  0  0  0  0  0  0  0  0  0
   47.5625    8.1581   22.0491 C   0  0  0  0  0  0  0  0  0  0  0  0
   47.6046    7.2953   20.9715 C   0  0  0  0  0  0  0  0  0  0  0  0
   47.7569   11.5817   20.2974 C   0  0  0  0  0  0  0  0  0  0  0  0
   47.7540    9.8070   18.0549 C   0  0  0  0  0  0  0  0  0  0  0  0
   47.7185   10.3101   22.8703 O   0  0  0  0  0  0  0  0  0  0  0  0
   47.9469    7.0359   18.6928 O   0  0  0  0  0  0  0  0  0  0  0  0
   47.3256    6.2765   23.5475 N   0  0  0  0  0  0  0  0  0  0  0  0
   47.7155   11.1946   17.8885 C   0  0  0  0  0  0  0  0  0  0  0  0
   47.7188   12.0609   18.9837 C   0  0  0  0  0  0  0  0  0  0  0  0
   47.4249    7.6087   23.3147 C   0  0  0  0  0  0  0  0  0  0  0  0
   47.6937   12.4796   21.3810 N   0  0  0  0  0  0  0  0  0  0  0  0
   47.6573    8.9524   16.9367 N   0  0  0  0  0  0  0  0  0  0  0  0
   47.5105    5.9163   21.1763 C   0  0  0  0  0  0  0  0  0  0  0  0
   48.9961    8.4815   13.4416 N   0  0  0  0  0  0  0  0  0  0  0  0
   50.3832   12.5661   22.5518 N   0  0  0  0  0  0  0  0  0  0  0  0
   47.3714    5.4597   22.4737 C   0  0  0  0  0  0  0  0  0  0  0  0
   48.4940   13.7093   21.3449 C   0  0  0  0  0  0  0  0  0  0  0  0
   48.3819    9.3193   15.7168 C   0  0  0  0  0  0  0  0  0  0  0  0
   50.0109   13.4324   21.4292 C   0  0  0  0  0  0  0  0  0  0  0  0
   48.3395    8.1528   14.7093 C   0  0  0  0  0  0  0  0  0  0  0  0
   48.1243    9.5197   18.1681 C   0  0  0  0  0  0  0  0  0  0  0  0
   47.8728    9.3395   20.6311 C   0  0  0  0  0  0  0  0  0  0  0  0
   47.8462    8.7875   19.4109 C   0  0  0  0  0  0  0  0  0  0  0  0
   48.0483   10.7149   17.9671 O   0  0  0  0  0  0  0  0  0  0  0  0
   48.4544    8.6506   17.1991 O   0  0  0  0  0  0  0  0  0  0  0  0
   48.2756   10.7185   20.9163 C   0  0  0  0  0  0  0  0  0  0  0  0
   47.6684   11.4879   21.6363 O   0  0  0  0  0  0  0  0  0  0  0  0
   49.4741   11.0079   20.3901 O   0  0  0  0  0  0  0  0  0  0  0  0
   46.9533    8.9206   21.2475 H   0  0  0  0  0  0  0  0  0  0  0  0
   48.9268    7.7660   20.4353 H   0  0  0  0  0  0  0  0  0  0  0  0
   49.4487    9.8480   17.1741 H   0  0  0  0  0  0  0  0  0  0  0  0
   47.6280   12.3718   19.5528 H   0  0  0  0  0  0  0  0  0  0  0  0
   47.6472   11.6346   16.8975 H   0  0  0  0  0  0  0  0  0  0  0  0
   47.6508   13.1265   18.7839 H   0  0  0  0  0  0  0  0  0  0  0  0
   47.3890    8.2330   24.2049 H   0  0  0  0  0  0  0  0  0  0  0  0
   47.9067   11.9668   22.2527 H   0  0  0  0  0  0  0  0  0  0  0  0
   47.8742    7.9863   17.2265 H   0  0  0  0  0  0  0  0  0  0  0  0
   47.5456    5.2157   20.3478 H   0  0  0  0  0  0  0  0  0  0  0  0
   48.4736    9.2223   12.9743 H   0  0  0  0  0  0  0  0  0  0  0  0
   48.9421    7.6712   12.8242 H   0  0  0  0  0  0  0  0  0  0  0  0
   51.3960   12.5528   22.6556 H   0  0  0  0  0  0  0  0  0  0  0  0
   50.0000   12.9331   23.4218 H   0  0  0  0  0  0  0  0  0  0  0  0
   47.2926    4.3980   22.6919 H   0  0  0  0  0  0  0  0  0  0  0  0
   48.2018   14.3091   22.2157 H   0  0  0  0  0  0  0  0  0  0  0  0
   48.2650   14.3244   20.4688 H   0  0  0  0  0  0  0  0  0  0  0  0
   47.9194   10.1977   15.2526 H   0  0  0  0  0  0  0  0  0  0  0  0
   49.4264    9.5582   15.9526 H   0  0  0  0  0  0  0  0  0  0  0  0
   50.5381   14.3882   21.5244 H   0  0  0  0  0  0  0  0  0  0  0  0
   50.3561   12.9615   20.5025 H   0  0  0  0  0  0  0  0  0  0  0  0
   47.2991    7.8694   14.5113 H   0  0  0  0  0  0  0  0  0  0  0  0
   48.8331    7.2763   15.1447 H   0  0  0  0  0  0  0  0  0  0  0  0
   47.5678    8.7708   21.5013 H   0  0  0  0  0  0  0  0  0  0  0  0
   47.5671    7.7470   19.2911 H   0  0  0  0  0  0  0  0  0  0  0  0
   48.6187    9.2232   16.4207 H   0  0  0  0  0  0  0  0  0  0  0  0
   49.6125   11.9504   20.6164 H   0  0  0  0  0  0  0  0  0  0  0  0
  1  3  1  0
  3  2  2  0
  4  1  2  0
  5  1  1  0
  2  6  1  0
  6  7  2  0
  6  8  1  0
 24 16  1  0
 25 14  1  0
 26 32  1  0
 27 31  1  0
 28 25  2  0
 29 23  1  0
 30 24  1  0
 31 29  1  0
 32 30  1  0
 16 20  2  0
 14 13  2  0
 19 28  1  0
 10  9  2  0
 11  9  1  0
 12 10  1  0
 13 11  1  0
 14 12  1  0
 15  9  1  0
 16 10  1  0
 17 11  2  0
 18 12  2  0
 19 22  2  0
 20 21  1  0
 21 15  2  0
 22 13  1  0
 23 15  1  0
 33 35  1  0
 35 34  2  0
 36 33  2  0
 37 33  1  0
 34 38  1  0
 38 39  2  0
 38 40  1  0
  2 41  1  0
  3 42  1  0
  5 43  1  0
  8 44  1  0
 20 45  1  0
 21 46  1  0
 22 47  1  0
 23 48  1  0
 24 49  1  0
 25 50  1  0
 26 51  1  0
 26 52  1  0
 27 53  1  0
 27 54  1  0
 28 55  1  0
 29 56  1  0
 29 57  1  0
 30 58  1  0
 30 59  1  0
 31 60  1  0
 31 61  1  0
 32 62  1  0
 32 63  1  0
 34 64  1  0
 35 65  1  0
 37 66  1  0
 40 67  1  0
M  END
> <Uni-Dock RESULT> 
ENERGY=   -5.342  LOWER_BOUND=    0.000  UPPER_BOUND=    0.000
INTER + INTRA:          -5.342
INTER:                  -5.342
INTRA:                   0.000
UNBOUND:                 0.000

$$$$

     RDKit          3D

 67 67  0  0  0  0  0  0  0  0999 V2000
   49.5113   11.2892   18.3413 C   0  0  0  0  0  0  0  0  0  0  0  0
   47.8076    9.5356   18.8656 C   0  0  0  0  0  0  0  0  0  0  0  0
   48.9120    9.9561   18.2339 C   0  0  0  0  0  0  0  0  0  0  0  0
   50.7071   11.5141   18.3154 O   0  0  0  0  0  0  0  0  0  0  0  0
   48.5994   12.2724   18.3429 O   0  0  0  0  0  0  0  0  0  0  0  0
   47.0371   10.2972   19.8527 C   0  0  0  0  0  0  0  0  0  0  0  0
   45.8265   10.2525   19.9696 O   0  0  0  0  0  0  0  0  0  0  0  0
   47.8140   10.9653   20.7177 O   0  0  0  0  0  0  0  0  0  0  0  0
   47.8102    9.8144   19.6495 C   0  0  0  0  0  0  0  0  0  0  0  0
   47.8551   10.5480   18.4448 C   0  0  0  0  0  0  0  0  0  0  0  0
   48.0510    8.3416   19.6144 C   0  0  0  0  0  0  0  0  0  0  0  0
   48.2037    9.8478   17.1752 C   0  0  0  0  0  0  0  0  0  0  0  0
   48.2495    7.6687   18.3299 C   0  0  0  0  0  0  0  0  0  0  0  0
   48.3224    8.3842   17.1508 C   0  0  0  0  0  0  0  0  0  0  0  0
   47.5485   10.4664   20.8813 C   0  0  0  0  0  0  0  0  0  0  0  0
   47.6082   11.9451   18.4342 C   0  0  0  0  0  0  0  0  0  0  0  0
   48.0852    7.6577   20.6327 O   0  0  0  0  0  0  0  0  0  0  0  0
   48.4174   10.4668   16.1357 O   0  0  0  0  0  0  0  0  0  0  0  0
   48.5761    5.6120   17.1032 N   0  0  0  0  0  0  0  0  0  0  0  0
   47.2788   12.5548   19.6484 C   0  0  0  0  0  0  0  0  0  0  0  0
   47.2516   11.8328   20.8434 C   0  0  0  0  0  0  0  0  0  0  0  0
   48.3831    6.2904   18.2615 C   0  0  0  0  0  0  0  0  0  0  0  0
   47.4490    9.7532   22.0920 N   0  0  0  0  0  0  0  0  0  0  0  0
   47.5393   12.6747   17.2289 N   0  0  0  0  0  0  0  0  0  0  0  0
   48.5260    7.7170   15.9400 C   0  0  0  0  0  0  0  0  0  0  0  0
   48.4909   15.9972   15.7169 N   0  0  0  0  0  0  0  0  0  0  0  0
   50.1960    9.2041   22.9660 N   0  0  0  0  0  0  0  0  0  0  0  0
   48.6440    6.3399   15.9684 C   0  0  0  0  0  0  0  0  0  0  0  0
   47.9828   10.3470   23.3235 C   0  0  0  0  0  0  0  0  0  0  0  0
   48.0181   14.0599   17.2266 C   0  0  0  0  0  0  0  0  0  0  0  0
   49.5227   10.4607   23.3080 C   0  0  0  0  0  0  0  0  0  0  0  0
   48.0770   14.5934   15.7810 C   0  0  0  0  0  0  0  0  0  0  0  0
   48.0388   11.8139   18.2612 C   0  0  0  0  0  0  0  0  0  0  0  0
   48.1411    9.4312   18.9500 C   0  0  0  0  0  0  0  0  0  0  0  0
   48.0685   10.3693   17.9965 C   0  0  0  0  0  0  0  0  0  0  0  0
   47.7061   12.3844   19.2803 O   0  0  0  0  0  0  0  0  0  0  0  0
   48.4067   12.4808   17.1554 O   0  0  0  0  0  0  0  0  0  0  0  0
   48.2998    9.7035   20.3804 C   0  0  0  0  0  0  0  0  0  0  0  0
   47.6503    9.1815   21.2662 O   0  0  0  0  0  0  0  0  0  0  0  0
   49.3424   10.5107   20.6227 O   0  0  0  0  0  0  0  0  0  0  0  0
   47.4066    8.5498   18.6595 H   0  0  0  0  0  0  0  0  0  0  0  0
   49.4486    9.2842   17.5737 H   0  0  0  0  0  0  0  0  0  0  0  0
   49.1369   13.0899   18.3878 H   0  0  0  0  0  0  0  0  0  0  0  0
   47.1747   11.3939   21.3232 H   0  0  0  0  0  0  0  0  0  0  0  0
   47.0011   13.6045   19.6868 H   0  0  0  0  0  0  0  0  0  0  0  0
   46.9522   12.3605   21.7445 H   0  0  0  0  0  0  0  0  0  0  0  0
   48.3390    5.6696   19.1537 H   0  0  0  0  0  0  0  0  0  0  0  0
   47.8666    8.8165   21.9634 H   0  0  0  0  0  0  0  0  0  0  0  0
   47.9756   12.1251   16.4725 H   0  0  0  0  0  0  0  0  0  0  0  0
   48.5919    8.2551   14.9995 H   0  0  0  0  0  0  0  0  0  0  0  0
   47.7790   16.5784   16.1591 H   0  0  0  0  0  0  0  0  0  0  0  0
   48.5184   16.2870   14.7392 H   0  0  0  0  0  0  0  0  0  0  0  0
   51.1968    9.2934   23.1310 H   0  0  0  0  0  0  0  0  0  0  0  0
   49.8618    8.4511   23.5659 H   0  0  0  0  0  0  0  0  0  0  0  0
   48.8022    5.7691   15.0573 H   0  0  0  0  0  0  0  0  0  0  0  0
   47.6918    9.6879   24.1509 H   0  0  0  0  0  0  0  0  0  0  0  0
   47.5290   11.3188   23.5427 H   0  0  0  0  0  0  0  0  0  0  0  0
   47.3381   14.6954   17.8050 H   0  0  0  0  0  0  0  0  0  0  0  0
   49.0172   14.1174   17.6762 H   0  0  0  0  0  0  0  0  0  0  0  0
   49.8609   10.7905   24.2966 H   0  0  0  0  0  0  0  0  0  0  0  0
   49.8330   11.2242   22.5866 H   0  0  0  0  0  0  0  0  0  0  0  0
   47.0954   14.4868   15.3045 H   0  0  0  0  0  0  0  0  0  0  0  0
   48.7832   13.9909   15.1982 H   0  0  0  0  0  0  0  0  0  0  0  0
   48.0657    8.3804   18.6978 H   0  0  0  0  0  0  0  0  0  0  0  0
   47.9850   10.0804   16.9552 H   0  0  0  0  0  0  0  0  0  0  0  0
   48.3562   13.4219   17.4249 H   0  0  0  0  0  0  0  0  0  0  0  0
   49.3217   10.6422   21.5927 H   0  0  0  0  0  0  0  0  0  0  0  0
  1  3  1  0
  3  2  2  0
  4  1  2  0
  5  1  1  0
  2  6  1  0
  6  7  2  0
  6  8  1  0
 24 16  1  0
 25 14  1  0
 26 32  1  0
 27 31  1  0
 28 25  2  0
 29 23  1  0
 30 24  1  0
 31 29  1  0
 32 30  1  0
 16 20  2  0
 14 13  2  0
 19 28  1  0
 10  9  2  0
 11  9  1  0
 12 10  1  0
 13 11  1  0
 14 12  1  0
 15  9  1  0
 16 10  1  0
 17 11  2  0
 18 12  2  0
 19 22  2  0
 20 21  1  0
 21 15  2  0
 22 13  1  0
 23 15  1  0
 33 35  1  0
 35 34  2  0
 36 33  2  0
 37 33  1  0
 34 38  1  0
 38 39  2  0
 38 40  1  0
  2 41  1  0
  3 42  1  0
  5 43  1  0
  8 44  1  0
 20 45  1  0
 21 46  1  0
 22 47  1  0
 23 48  1  0
 24 49  1  0
 25 50  1  0
 26 51  1  0
 26 52  1  0
 27 53  1  0
 27 54  1  0
 28 55  1  0
 29 56  1  0
 29 57  1  0
 30 58  1  0
 30 59  1  0
 31 60  1  0
 31 61  1  0
 32 62  1  0
 32 63  1  0
 34 64  1  0
 35 65  1  0
 37 66  1  0
 40 67  1  0
M  END
> <Uni-Dock RESULT> 
ENERGY=   -4.592  LOWER_BOUND=    2.103  UPPER_BOUND=    3.549
INTER + INTRA:          -4.592
INTER:                  -4.592
INTRA:                   0.000
UNBOUND:                 0.000

$$$$

     RDKit          3D

 67 67  0  0  0  0  0  0  0  0999 V2000
   49.0416    8.6239   12.2188 C   0  0  0  0  0  0  0  0  0  0  0  0
   47.9817    7.7162   14.2938 C   0  0  0  0  0  0  0  0  0  0  0  0
   48.3097    7.6214   12.9980 C   0  0  0  0  0  0  0  0  0  0  0  0
   49.8368    8.3668   11.3340 O   0  0  0  0  0  0  0  0  0  0  0  0
   48.6532    9.8789   12.4876 O   0  0  0  0  0  0  0  0  0  0  0  0
   48.3681    8.7988   15.2030 C   0  0  0  0  0  0  0  0  0  0  0  0
   47.6668    9.2351   16.0969 O   0  0  0  0  0  0  0  0  0  0  0  0
   49.6409    9.1878   15.0394 O   0  0  0  0  0  0  0  0  0  0  0  0
   48.6185    8.0394   14.7207 C   0  0  0  0  0  0  0  0  0  0  0  0
   47.9042    8.5912   13.6360 C   0  0  0  0  0  0  0  0  0  0  0  0
   48.4524    6.5907   15.0403 C   0  0  0  0  0  0  0  0  0  0  0  0
   47.0501    7.7032   12.7959 C   0  0  0  0  0  0  0  0  0  0  0  0
   47.4962    5.7845   14.2803 C   0  0  0  0  0  0  0  0  0  0  0  0
   46.8152    6.3110   13.2003 C   0  0  0  0  0  0  0  0  0  0  0  0
   49.4910    8.8463   15.4944 C   0  0  0  0  0  0  0  0  0  0  0  0
   48.0174    9.9687   13.3157 C   0  0  0  0  0  0  0  0  0  0  0  0
   49.0899    6.0380   15.9313 O   0  0  0  0  0  0  0  0  0  0  0  0
   46.5434    8.0990   11.7490 O   0  0  0  0  0  0  0  0  0  0  0  0
   46.3878    3.6629   13.9462 N   0  0  0  0  0  0  0  0  0  0  0  0
   48.8249   10.7613   14.1368 C   0  0  0  0  0  0  0  0  0  0  0  0
   49.5458   10.2126   15.1995 C   0  0  0  0  0  0  0  0  0  0  0  0
   47.2554    4.4611   14.6163 C   0  0  0  0  0  0  0  0  0  0  0  0
   50.1788    8.3349   16.6124 N   0  0  0  0  0  0  0  0  0  0  0  0
   47.2286   10.5607   12.3070 N   0  0  0  0  0  0  0  0  0  0  0  0
   45.9177    5.5145   12.4843 C   0  0  0  0  0  0  0  0  0  0  0  0
   47.3890   13.1136    9.5345 N   0  0  0  0  0  0  0  0  0  0  0  0
   52.4818    6.8466   15.5671 N   0  0  0  0  0  0  0  0  0  0  0  0
   45.7388    4.2066   12.8948 C   0  0  0  0  0  0  0  0  0  0  0  0
   51.5511    8.7813   16.8797 C   0  0  0  0  0  0  0  0  0  0  0  0
   47.8124   11.6480   11.5165 C   0  0  0  0  0  0  0  0  0  0  0  0
   52.5531    8.2902   15.8122 C   0  0  0  0  0  0  0  0  0  0  0  0
   46.8889   11.9896   10.3298 C   0  0  0  0  0  0  0  0  0  0  0  0
   48.1403    9.6670   12.9601 C   0  0  0  0  0  0  0  0  0  0  0  0
   48.2378    7.4990   14.1652 C   0  0  0  0  0  0  0  0  0  0  0  0
   47.6744    8.3057   13.2562 C   0  0  0  0  0  0  0  0  0  0  0  0
   48.7936   10.4080   13.6664 O   0  0  0  0  0  0  0  0  0  0  0  0
   47.6934   10.0415   11.7505 O   0  0  0  0  0  0  0  0  0  0  0  0
   49.4514    7.8122   14.9231 C   0  0  0  0  0  0  0  0  0  0  0  0
   49.5835    7.6603   16.1225 O   0  0  0  0  0  0  0  0  0  0  0  0
   50.4628    8.1724   14.1203 O   0  0  0  0  0  0  0  0  0  0  0  0
   47.3740    6.9476   14.7574 H   0  0  0  0  0  0  0  0  0  0  0  0
   48.0324    6.7399   12.4312 H   0  0  0  0  0  0  0  0  0  0  0  0
   49.1958   10.4262   11.8834 H   0  0  0  0  0  0  0  0  0  0  0  0
   49.7629    9.8808   15.7205 H   0  0  0  0  0  0  0  0  0  0  0  0
   48.8849   11.8359   13.9881 H   0  0  0  0  0  0  0  0  0  0  0  0
   50.1248   10.8910   15.8196 H   0  0  0  0  0  0  0  0  0  0  0  0
   47.7621    3.9855   15.4532 H   0  0  0  0  0  0  0  0  0  0  0  0
   50.1647    7.3023   16.5697 H   0  0  0  0  0  0  0  0  0  0  0  0
   46.8403    9.8218   11.7006 H   0  0  0  0  0  0  0  0  0  0  0  0
   45.3730    5.9015   11.6287 H   0  0  0  0  0  0  0  0  0  0  0  0
   47.3743   13.9605   10.1025 H   0  0  0  0  0  0  0  0  0  0  0  0
   46.7423   13.2842    8.7643 H   0  0  0  0  0  0  0  0  0  0  0  0
   53.2654    6.5568   14.9851 H   0  0  0  0  0  0  0  0  0  0  0  0
   52.5592    6.3360   16.4456 H   0  0  0  0  0  0  0  0  0  0  0  0
   45.0529    3.5421   12.3760 H   0  0  0  0  0  0  0  0  0  0  0  0
   51.8433    8.3602   17.8497 H   0  0  0  0  0  0  0  0  0  0  0  0
   51.6159    9.8680   16.9948 H   0  0  0  0  0  0  0  0  0  0  0  0
   47.9297   12.5443   12.1360 H   0  0  0  0  0  0  0  0  0  0  0  0
   48.7988   11.3543   11.1367 H   0  0  0  0  0  0  0  0  0  0  0  0
   53.5673    8.5486   16.1366 H   0  0  0  0  0  0  0  0  0  0  0  0
   52.3726    8.8090   14.8647 H   0  0  0  0  0  0  0  0  0  0  0  0
   45.8840   12.2290   10.6969 H   0  0  0  0  0  0  0  0  0  0  0  0
   46.7919   11.1131    9.6789 H   0  0  0  0  0  0  0  0  0  0  0  0
   47.7924    6.5411   14.4049 H   0  0  0  0  0  0  0  0  0  0  0  0
   46.7933    7.9821   12.7143 H   0  0  0  0  0  0  0  0  0  0  0  0
   48.0486   10.9487   11.6430 H   0  0  0  0  0  0  0  0  0  0  0  0
   51.1926    8.3854   14.7372 H   0  0  0  0  0  0  0  0  0  0  0  0
  1  3  1  0
  3  2  2  0
  4  1  2  0
  5  1  1  0
  2  6  1  0
  6  7  2  0
  6  8  1  0
 24 16  1  0
 25 14  1  0
 26 32  1  0
 27 31  1  0
 28 25  2  0
 29 23  1  0
 30 24  1  0
 31 29  1  0
 32 30  1  0
 16 20  2  0
 14 13  2  0
 19 28  1  0
 10  9  2  0
 11  9  1  0
 12 10  1  0
 13 11  1  0
 14 12  1  0
 15  9  1  0
 16 10  1  0
 17 11  2  0
 18 12  2  0
 19 22  2  0
 20 21  1  0
 21 15  2  0
 22 13  1  0
 23 15  1  0
 33 35  1  0
 35 34  2  0
 36 33  2  0
 37 33  1  0
 34 38  1  0
 38 39  2  0
 38 40  1  0
  2 41  1  0
  3 42  1  0
  5 43  1  0
  8 44  1  0
 20 45  1  0
 21 46  1  0
 22 47  1  0
 23 48  1  0
 24 49  1  0
 25 50  1  0
 26 51  1  0
 26 52  1  0
 27 53  1  0
 27 54  1  0
 28 55  1  0
 29 56  1  0
 29 57  1  0
 30 58  1  0
 30 59  1  0
 31 60  1  0
 31 61  1  0
 32 62  1  0
 32 63  1  0
 34 64  1  0
 35 65  1  0
 37 66  1  0
 40 67  1  0
M  END
> <Uni-Dock RESULT> 
ENERGY=   -4.579  LOWER_BOUND=    5.094  UPPER_BOUND=    6.809
INTER + INTRA:          -4.579
INTER:                  -4.579
INTRA:                   0.000
UNBOUND:                 0.000

$$$$

     RDKit          3D

 67 67  0  0  0  0  0  0  0  0999 V2000
   43.7700   10.8444    9.8366 C   0  0  0  0  0  0  0  0  0  0  0  0
   45.3319   11.6881   11.5975 C   0  0  0  0  0  0  0  0  0  0  0  0
   44.8834   10.7243   10.7818 C   0  0  0  0  0  0  0  0  0  0  0  0
   43.7246   10.3011    8.7484 O   0  0  0  0  0  0  0  0  0  0  0  0
   42.7269   11.5187   10.3423 O   0  0  0  0  0  0  0  0  0  0  0  0
   44.8542   13.0731   11.6387 C   0  0  0  0  0  0  0  0  0  0  0  0
   44.7615   13.7432   12.6503 O   0  0  0  0  0  0  0  0  0  0  0  0
   44.6440   13.5885   10.4188 O   0  0  0  0  0  0  0  0  0  0  0  0
   45.3435   12.4147   11.1924 C   0  0  0  0  0  0  0  0  0  0  0  0
   44.2547   11.5516   11.4391 C   0  0  0  0  0  0  0  0  0  0  0  0
   46.7325   11.9182   11.4214 C   0  0  0  0  0  0  0  0  0  0  0  0
   44.5175   10.1458   11.8614 C   0  0  0  0  0  0  0  0  0  0  0  0
   46.9432   10.5786   11.9719 C   0  0  0  0  0  0  0  0  0  0  0  0
   45.8841    9.7193   12.1890 C   0  0  0  0  0  0  0  0  0  0  0  0
   45.1249   13.7353   10.7243 C   0  0  0  0  0  0  0  0  0  0  0  0
   42.9193   11.9944   11.2559 C   0  0  0  0  0  0  0  0  0  0  0  0
   47.7225   12.5980   11.1688 O   0  0  0  0  0  0  0  0  0  0  0  0
   43.6161    9.3136   11.9271 O   0  0  0  0  0  0  0  0  0  0  0  0
   48.4762    8.8963   12.7851 N   0  0  0  0  0  0  0  0  0  0  0  0
   42.7241   13.3226   10.8657 C   0  0  0  0  0  0  0  0  0  0  0  0
   43.8014   14.1719   10.6043 C   0  0  0  0  0  0  0  0  0  0  0  0
   48.2177   10.1280   12.2802 C   0  0  0  0  0  0  0  0  0  0  0  0
   46.1890   14.6347   10.5164 N   0  0  0  0  0  0  0  0  0  0  0  0
   41.8175   11.1845   11.6024 N   0  0  0  0  0  0  0  0  0  0  0  0
   46.1156    8.4407   12.7032 C   0  0  0  0  0  0  0  0  0  0  0  0
   38.3516   10.2432   10.4484 N   0  0  0  0  0  0  0  0  0  0  0  0
   47.3950   13.9202    7.9383 N   0  0  0  0  0  0  0  0  0  0  0  0
   47.4200    8.0796   12.9847 C   0  0  0  0  0  0  0  0  0  0  0  0
   46.1390   15.5586    9.3771 C   0  0  0  0  0  0  0  0  0  0  0  0
   40.6005   11.2825   10.7917 C   0  0  0  0  0  0  0  0  0  0  0  0
   46.2499   14.8320    8.0190 C   0  0  0  0  0  0  0  0  0  0  0  0
   39.6165   10.1617   11.1830 C   0  0  0  0  0  0  0  0  0  0  0  0
   43.0435   11.6101   10.9925 C   0  0  0  0  0  0  0  0  0  0  0  0
   45.5059   11.5741   11.3043 C   0  0  0  0  0  0  0  0  0  0  0  0
   44.2969   11.0281   11.4904 C   0  0  0  0  0  0  0  0  0  0  0  0
   42.8170   12.7660   10.6967 O   0  0  0  0  0  0  0  0  0  0  0  0
   42.0970   10.6591   10.9382 O   0  0  0  0  0  0  0  0  0  0  0  0
   45.7685   12.7695   10.4998 C   0  0  0  0  0  0  0  0  0  0  0  0
   46.4641   13.7048   10.8465 O   0  0  0  0  0  0  0  0  0  0  0  0
   45.2531   12.6650    9.2666 O   0  0  0  0  0  0  0  0  0  0  0  0
   46.1178   11.4720   12.3122 H   0  0  0  0  0  0  0  0  0  0  0  0
   45.3568    9.7490   10.7825 H   0  0  0  0  0  0  0  0  0  0  0  0
   42.0614   11.4930    9.6243 H   0  0  0  0  0  0  0  0  0  0  0  0
   44.3627   14.5090   10.5993 H   0  0  0  0  0  0  0  0  0  0  0  0
   41.7234   13.7388   10.7887 H   0  0  0  0  0  0  0  0  0  0  0  0
   43.5789   15.2020   10.3407 H   0  0  0  0  0  0  0  0  0  0  0  0
   49.0944   10.7541   12.1291 H   0  0  0  0  0  0  0  0  0  0  0  0
   47.0739   14.1021   10.4771 H   0  0  0  0  0  0  0  0  0  0  0  0
   42.1299   10.2055   11.6944 H   0  0  0  0  0  0  0  0  0  0  0  0
   45.3021    7.7437   12.8790 H   0  0  0  0  0  0  0  0  0  0  0  0
   37.8621   11.0972   10.7151 H   0  0  0  0  0  0  0  0  0  0  0  0
   37.7501    9.4741   10.7441 H   0  0  0  0  0  0  0  0  0  0  0  0
   47.5131   13.5993    6.9792 H   0  0  0  0  0  0  0  0  0  0  0  0
   48.2520   14.4074    8.1964 H   0  0  0  0  0  0  0  0  0  0  0  0
   47.6587    7.0987   13.3870 H   0  0  0  0  0  0  0  0  0  0  0  0
   46.9933   16.2395    9.4772 H   0  0  0  0  0  0  0  0  0  0  0  0
   45.2474   16.1934    9.4003 H   0  0  0  0  0  0  0  0  0  0  0  0
   40.1121   12.2491   10.9591 H   0  0  0  0  0  0  0  0  0  0  0  0
   40.8459   11.1951    9.7260 H   0  0  0  0  0  0  0  0  0  0  0  0
   46.3329   15.5821    7.2246 H   0  0  0  0  0  0  0  0  0  0  0  0
   45.3379   14.2561    7.8285 H   0  0  0  0  0  0  0  0  0  0  0  0
   39.4099   10.2063   12.2587 H   0  0  0  0  0  0  0  0  0  0  0  0
   40.0765    9.1867   10.9852 H   0  0  0  0  0  0  0  0  0  0  0  0
   46.3831   11.1471   11.7750 H   0  0  0  0  0  0  0  0  0  0  0  0
   44.1944   10.1208   12.0745 H   0  0  0  0  0  0  0  0  0  0  0  0
   41.3094   11.1351   10.6008 H   0  0  0  0  0  0  0  0  0  0  0  0
   45.4621   13.5247    8.8472 H   0  0  0  0  0  0  0  0  0  0  0  0
  1  3  1  0
  3  2  2  0
  4  1  2  0
  5  1  1  0
  2  6  1  0
  6  7  2  0
  6  8  1  0
 24 16  1  0
 25 14  1  0
 26 32  1  0
 27 31  1  0
 28 25  2  0
 29 23  1  0
 30 24  1  0
 31 29  1  0
 32 30  1  0
 16 20  2  0
 14 13  2  0
 19 28  1  0
 10  9  2  0
 11  9  1  0
 12 10  1  0
 13 11  1  0
 14 12  1  0
 15  9  1  0
 16 10  1  0
 17 11  2  0
 18 12  2  0
 19 22  2  0
 20 21  1  0
 21 15  2  0
 22 13  1  0
 23 15  1  0
 33 35  1  0
 35 34  2  0
 36 33  2  0
 37 33  1  0
 34 38  1  0
 38 39  2  0
 38 40  1  0
  2 41  1  0
  3 42  1  0
  5 43  1  0
  8 44  1  0
 20 45  1  0
 21 46  1  0
 22 47  1  0
 23 48  1  0
 24 49  1  0
 25 50  1  0
 26 51  1  0
 26 52  1  0
 27 53  1  0
 27 54  1  0
 28 55  1  0
 29 56  1  0
 29 57  1  0
 30 58  1  0
 30 59  1  0
 31 60  1  0
 31 61  1  0
 32 62  1  0
 32 63  1  0
 34 64  1  0
 35 65  1  0
 37 66  1  0
 40 67  1  0
M  END
> <Uni-Dock RESULT> 
ENERGY=   -4.560  LOWER_BOUND=    7.947  UPPER_BOUND=   10.295
INTER + INTRA:          -4.560
INTER:                  -4.560
INTRA:                   0.000
UNBOUND:                 0.000

$$$$

     RDKit          3D

 67 67  0  0  0  0  0  0  0  0999 V2000
   47.6973    8.7719   14.5452 C   0  0  0  0  0  0  0  0  0  0  0  0
   47.8641    9.5815   12.1853 C   0  0  0  0  0  0  0  0  0  0  0  0
   47.2183    9.4802   13.3550 C   0  0  0  0  0  0  0  0  0  0  0  0
   47.4991    9.1317   15.6909 O   0  0  0  0  0  0  0  0  0  0  0  0
   48.2772    7.5980   14.2555 O   0  0  0  0  0  0  0  0  0  0  0  0
   49.2111    9.0799   11.8989 C   0  0  0  0  0  0  0  0  0  0  0  0
   49.5636    8.6145   10.8310 O   0  0  0  0  0  0  0  0  0  0  0  0
   50.0740    9.3016   12.9011 O   0  0  0  0  0  0  0  0  0  0  0  0
   48.6737    9.7149   12.3233 C   0  0  0  0  0  0  0  0  0  0  0  0
   47.8668    8.6352   12.7409 C   0  0  0  0  0  0  0  0  0  0  0  0
   48.0218   10.9460   11.7867 C   0  0  0  0  0  0  0  0  0  0  0  0
   46.3826    8.7718   12.6963 C   0  0  0  0  0  0  0  0  0  0  0  0
   46.5676   10.9866   11.6266 C   0  0  0  0  0  0  0  0  0  0  0  0
   45.7705    9.9450   12.0590 C   0  0  0  0  0  0  0  0  0  0  0  0
   50.0864    9.6382   12.4187 C   0  0  0  0  0  0  0  0  0  0  0  0
   48.4498    7.4395   13.2342 C   0  0  0  0  0  0  0  0  0  0  0  0
   48.6636   11.9408   11.4637 O   0  0  0  0  0  0  0  0  0  0  0  0
   45.6426    7.9307   13.2006 O   0  0  0  0  0  0  0  0  0  0  0  0
   44.6038   12.1794   10.8769 N   0  0  0  0  0  0  0  0  0  0  0  0
   49.8453    7.3568   13.2500 C   0  0  0  0  0  0  0  0  0  0  0  0
   50.6442    8.4313   12.8535 C   0  0  0  0  0  0  0  0  0  0  0  0
   45.9457   12.0811   11.0456 C   0  0  0  0  0  0  0  0  0  0  0  0
   50.9186   10.6800   11.9642 N   0  0  0  0  0  0  0  0  0  0  0  0
   47.6657    6.3106   13.5517 N   0  0  0  0  0  0  0  0  0  0  0  0
   44.3835   10.0161   11.9056 C   0  0  0  0  0  0  0  0  0  0  0  0
   47.3828    3.5094   16.0623 N   0  0  0  0  0  0  0  0  0  0  0  0
   50.8893   12.7431   14.0509 N   0  0  0  0  0  0  0  0  0  0  0  0
   43.8523   11.1456   11.3111 C   0  0  0  0  0  0  0  0  0  0  0  0
   52.1346   11.0107   12.7166 C   0  0  0  0  0  0  0  0  0  0  0  0
   48.0928    5.4585   14.6650 C   0  0  0  0  0  0  0  0  0  0  0  0
   51.8276   11.6179   14.1029 C   0  0  0  0  0  0  0  0  0  0  0  0
   46.9897    4.4328   14.9951 C   0  0  0  0  0  0  0  0  0  0  0  0
   48.1500    7.6603   13.5405 C   0  0  0  0  0  0  0  0  0  0  0  0
   47.8266    9.8515   12.4198 C   0  0  0  0  0  0  0  0  0  0  0  0
   47.3493    8.6717   12.8378 C   0  0  0  0  0  0  0  0  0  0  0  0
   49.3562    7.5199   13.5350 O   0  0  0  0  0  0  0  0  0  0  0  0
   47.3352    6.8230   14.2026 O   0  0  0  0  0  0  0  0  0  0  0  0
   49.1790   10.3475   12.6847 C   0  0  0  0  0  0  0  0  0  0  0  0
   49.9139   10.8471   11.8545 O   0  0  0  0  0  0  0  0  0  0  0  0
   49.4792   10.3069   13.9906 O   0  0  0  0  0  0  0  0  0  0  0  0
   47.3871   10.0684   11.3425 H   0  0  0  0  0  0  0  0  0  0  0  0
   46.2501    9.9508   13.4828 H   0  0  0  0  0  0  0  0  0  0  0  0
   48.5150    7.2318   15.1321 H   0  0  0  0  0  0  0  0  0  0  0  0
   50.9219    8.9477   12.5621 H   0  0  0  0  0  0  0  0  0  0  0  0
   50.3452    6.4369   13.5407 H   0  0  0  0  0  0  0  0  0  0  0  0
   51.7209    8.2870   12.8558 H   0  0  0  0  0  0  0  0  0  0  0  0
   46.5159   12.9357   10.6877 H   0  0  0  0  0  0  0  0  0  0  0  0
   50.3509   11.5364   11.8519 H   0  0  0  0  0  0  0  0  0  0  0  0
   46.6804    6.5985   13.6554 H   0  0  0  0  0  0  0  0  0  0  0  0
   43.7334    9.2140   12.2408 H   0  0  0  0  0  0  0  0  0  0  0  0
   48.1590    2.9323   15.7389 H   0  0  0  0  0  0  0  0  0  0  0  0
   46.6120    2.8649   16.2391 H   0  0  0  0  0  0  0  0  0  0  0  0
   50.8526   13.2034   14.9584 H   0  0  0  0  0  0  0  0  0  0  0  0
   51.2099   13.4380   13.3779 H   0  0  0  0  0  0  0  0  0  0  0  0
   42.7809   11.2544   11.1653 H   0  0  0  0  0  0  0  0  0  0  0  0
   52.6859   11.7535   12.1268 H   0  0  0  0  0  0  0  0  0  0  0  0
   52.8050   10.1509   12.8149 H   0  0  0  0  0  0  0  0  0  0  0  0
   49.0051    4.9144   14.3956 H   0  0  0  0  0  0  0  0  0  0  0  0
   48.2994    6.0687   15.5530 H   0  0  0  0  0  0  0  0  0  0  0  0
   52.7669   11.9555   14.5548 H   0  0  0  0  0  0  0  0  0  0  0  0
   51.4073   10.8501   14.7614 H   0  0  0  0  0  0  0  0  0  0  0  0
   46.7363    3.8566   14.0976 H   0  0  0  0  0  0  0  0  0  0  0  0
   46.0805    4.9614   15.3039 H   0  0  0  0  0  0  0  0  0  0  0  0
   47.2120   10.5165   11.8252 H   0  0  0  0  0  0  0  0  0  0  0  0
   46.3228    8.3951   12.6266 H   0  0  0  0  0  0  0  0  0  0  0  0
   47.9506    6.1930   14.6328 H   0  0  0  0  0  0  0  0  0  0  0  0
   50.4039   10.6259   14.0327 H   0  0  0  0  0  0  0  0  0  0  0  0
  1  3  1  0
  3  2  2  0
  4  1  2  0
  5  1  1  0
  2  6  1  0
  6  7  2  0
  6  8  1  0
 24 16  1  0
 25 14  1  0
 26 32  1  0
 27 31  1  0
 28 25  2  0
 29 23  1  0
 30 24  1  0
 31 29  1  0
 32 30  1  0
 16 20  2  0
 14 13  2  0
 19 28  1  0
 10  9  2  0
 11  9  1  0
 12 10  1  0
 13 11  1  0
 14 12  1  0
 15  9  1  0
 16 10  1  0
 17 11  2  0
 18 12  2  0
 19 22  2  0
 20 21  1  0
 21 15  2  0
 22 13  1  0
 23 15  1  0
 33 35  1  0
 35 34  2  0
 36 33  2  0
 37 33  1  0
 34 38  1  0
 38 39  2  0
 38 40  1  0
  2 41  1  0
  3 42  1  0
  5 43  1  0
  8 44  1  0
 20 45  1  0
 21 46  1  0
 22 47  1  0
 23 48  1  0
 24 49  1  0
 25 50  1  0
 26 51  1  0
 26 52  1  0
 27 53  1  0
 27 54  1  0
 28 55  1  0
 29 56  1  0
 29 57  1  0
 30 58  1  0
 30 59  1  0
 31 60  1  0
 31 61  1  0
 32 62  1  0
 32 63  1  0
 34 64  1  0
 35 65  1  0
 37 66  1  0
 40 67  1  0
M  END
> <Uni-Dock RESULT> 
ENERGY=   -4.530  LOWER_BOUND=    5.787  UPPER_BOUND=    8.239
INTER + INTRA:          -4.530
INTER:                  -4.530
INTRA:                   0.000
UNBOUND:                 0.000

$$$$

     RDKit          3D

 67 67  0  0  0  0  0  0  0  0999 V2000
   50.0147    8.0042   17.7172 C   0  0  0  0  0  0  0  0  0  0  0  0
   48.2562    9.5618   16.8605 C   0  0  0  0  0  0  0  0  0  0  0  0
   49.0284    9.0807   17.8442 C   0  0  0  0  0  0  0  0  0  0  0  0
   51.0703    7.9583   18.3215 O   0  0  0  0  0  0  0  0  0  0  0  0
   49.5834    6.9889   16.9549 O   0  0  0  0  0  0  0  0  0  0  0  0
   48.3114    9.1661   15.4504 C   0  0  0  0  0  0  0  0  0  0  0  0
   47.3441    9.0841   14.7164 O   0  0  0  0  0  0  0  0  0  0  0  0
   49.5655    9.0224   14.9980 O   0  0  0  0  0  0  0  0  0  0  0  0
   48.7025    9.6282   16.1614 C   0  0  0  0  0  0  0  0  0  0  0  0
   48.4413    8.4834   16.9441 C   0  0  0  0  0  0  0  0  0  0  0  0
   48.3998   10.9781   16.7224 C   0  0  0  0  0  0  0  0  0  0  0  0
   47.9294    8.6498   18.3347 C   0  0  0  0  0  0  0  0  0  0  0  0
   47.7656   11.0928   18.0364 C   0  0  0  0  0  0  0  0  0  0  0  0
   47.5332    9.9786   18.8187 C   0  0  0  0  0  0  0  0  0  0  0  0
   49.2536    9.5022   14.8610 C   0  0  0  0  0  0  0  0  0  0  0  0
   48.6933    7.1825   16.4369 C   0  0  0  0  0  0  0  0  0  0  0  0
   48.6594   12.0136   16.1172 O   0  0  0  0  0  0  0  0  0  0  0  0
   47.8446    7.6991   19.1082 O   0  0  0  0  0  0  0  0  0  0  0  0
   46.8063   12.4989   19.7523 N   0  0  0  0  0  0  0  0  0  0  0  0
   49.1665    7.0780   15.1255 C   0  0  0  0  0  0  0  0  0  0  0  0
   49.4418    8.2109   14.3569 C   0  0  0  0  0  0  0  0  0  0  0  0
   47.3902   12.3287   18.5403 C   0  0  0  0  0  0  0  0  0  0  0  0
   49.4790   10.6234   14.0385 N   0  0  0  0  0  0  0  0  0  0  0  0
   48.3361    6.0250   17.1598 N   0  0  0  0  0  0  0  0  0  0  0  0
   46.9381   10.1188   20.0752 C   0  0  0  0  0  0  0  0  0  0  0  0
   49.5453    2.5443   17.9677 N   0  0  0  0  0  0  0  0  0  0  0  0
   51.9704   11.8591   14.9750 N   0  0  0  0  0  0  0  0  0  0  0  0
   46.5938   11.3907   20.4933 C   0  0  0  0  0  0  0  0  0  0  0  0
   50.6712   10.6614   13.1835 C   0  0  0  0  0  0  0  0  0  0  0  0
   49.1903    4.8400   17.0408 C   0  0  0  0  0  0  0  0  0  0  0  0
   51.9803   10.7684   13.9955 C   0  0  0  0  0  0  0  0  0  0  0  0
   48.7665    3.7802   18.0775 C   0  0  0  0  0  0  0  0  0  0  0  0
   48.9297    7.2913   16.8428 C   0  0  0  0  0  0  0  0  0  0  0  0
   48.5365    9.7371   17.0018 C   0  0  0  0  0  0  0  0  0  0  0  0
   48.3582    8.4929   17.4651 C   0  0  0  0  0  0  0  0  0  0  0  0
   49.2996    7.1426   15.6958 O   0  0  0  0  0  0  0  0  0  0  0  0
   48.9591    6.2920   17.7394 O   0  0  0  0  0  0  0  0  0  0  0  0
   49.4004   10.0935   15.8740 C   0  0  0  0  0  0  0  0  0  0  0  0
   49.0864   10.8331   14.9611 O   0  0  0  0  0  0  0  0  0  0  0  0
   50.6415    9.6089   16.0227 O   0  0  0  0  0  0  0  0  0  0  0  0
   47.5050   10.3124   17.0781 H   0  0  0  0  0  0  0  0  0  0  0  0
   48.9555    9.4951   18.8433 H   0  0  0  0  0  0  0  0  0  0  0  0
   50.3199    6.3441   16.9853 H   0  0  0  0  0  0  0  0  0  0  0  0
   49.4483    8.7912   14.0536 H   0  0  0  0  0  0  0  0  0  0  0  0
   49.3001    6.1065   14.6578 H   0  0  0  0  0  0  0  0  0  0  0  0
   49.7722    8.0578   13.3335 H   0  0  0  0  0  0  0  0  0  0  0  0
   47.5491   13.2451   17.9760 H   0  0  0  0  0  0  0  0  0  0  0  0
   49.4583   11.4759   14.6226 H   0  0  0  0  0  0  0  0  0  0  0  0
   48.1771    6.2759   18.1478 H   0  0  0  0  0  0  0  0  0  0  0  0
   46.7485    9.2606   20.7124 H   0  0  0  0  0  0  0  0  0  0  0  0
   49.3449    2.0988   17.0724 H   0  0  0  0  0  0  0  0  0  0  0  0
   49.2250    1.8899   18.6817 H   0  0  0  0  0  0  0  0  0  0  0  0
   52.9048   11.9857   15.3592 H   0  0  0  0  0  0  0  0  0  0  0  0
   51.7134   12.7357   14.5232 H   0  0  0  0  0  0  0  0  0  0  0  0
   46.1274   11.5589   21.4603 H   0  0  0  0  0  0  0  0  0  0  0  0
   50.5832   11.5514   12.5481 H   0  0  0  0  0  0  0  0  0  0  0  0
   50.7141    9.8088   12.4981 H   0  0  0  0  0  0  0  0  0  0  0  0
   49.0955    4.4053   16.0393 H   0  0  0  0  0  0  0  0  0  0  0  0
   50.2406    5.1106   17.2061 H   0  0  0  0  0  0  0  0  0  0  0  0
   52.8139   10.9188   13.3006 H   0  0  0  0  0  0  0  0  0  0  0  0
   52.1664    9.8297   14.5284 H   0  0  0  0  0  0  0  0  0  0  0  0
   47.7025    3.5455   17.9565 H   0  0  0  0  0  0  0  0  0  0  0  0
   48.8920    4.1871   19.0875 H   0  0  0  0  0  0  0  0  0  0  0  0
   48.0134   10.5734   17.4495 H   0  0  0  0  0  0  0  0  0  0  0  0
   47.7258    8.3198   18.3282 H   0  0  0  0  0  0  0  0  0  0  0  0
   49.3492    5.5442   17.2399 H   0  0  0  0  0  0  0  0  0  0  0  0
   51.1032    9.8806   15.2032 H   0  0  0  0  0  0  0  0  0  0  0  0
  1  3  1  0
  3  2  2  0
  4  1  2  0
  5  1  1  0
  2  6  1  0
  6  7  2  0
  6  8  1  0
 24 16  1  0
 25 14  1  0
 26 32  1  0
 27 31  1  0
 28 25  2  0
 29 23  1  0
 30 24  1  0
 31 29  1  0
 32 30  1  0
 16 20  2  0
 14 13  2  0
 19 28  1  0
 10  9  2  0
 11  9  1  0
 12 10  1  0
 13 11  1  0
 14 12  1  0
 15  9  1  0
 16 10  1  0
 17 11  2  0
 18 12  2  0
 19 22  2  0
 20 21  1  0
 21 15  2  0
 22 13  1  0
 23 15  1  0
 33 35  1  0
 35 34  2  0
 36 33  2  0
 37 33  1  0
 34 38  1  0
 38 39  2  0
 38 40  1  0
  2 41  1  0
  3 42  1  0
  5 43  1  0
  8 44  1  0
 20 45  1  0
 21 46  1  0
 22 47  1  0
 23 48  1  0
 24 49  1  0
 25 50  1  0
 26 51  1  0
 26 52  1  0
 27 53  1  0
 27 54  1  0
 28 55  1  0
 29 56  1  0
 29 57  1  0
 30 58  1  0
 30 59  1  0
 31 60  1  0
 31 61  1  0
 32 62  1  0
 32 63  1  0
 34 64  1  0
 35 65  1  0
 37 66  1  0
 40 67  1  0
M  END
> <Uni-Dock RESULT> 
ENERGY=   -4.530  LOWER_BOUND=    2.779  UPPER_BOUND=    5.169
INTER + INTRA:          -4.530
INTER:                  -4.530
INTRA:                   0.000
UNBOUND:                 0.000

$$$$

     RDKit          3D

 67 67  0  0  0  0  0  0  0  0999 V2000
   51.9525    4.8351   20.6887 C   0  0  0  0  0  0  0  0  0  0  0  0
   52.3329    4.0535   18.3441 C   0  0  0  0  0  0  0  0  0  0  0  0
   52.3925    3.8767   19.6710 C   0  0  0  0  0  0  0  0  0  0  0  0
   51.4404    4.5308   21.7501 O   0  0  0  0  0  0  0  0  0  0  0  0
   52.2880    6.0996   20.3940 O   0  0  0  0  0  0  0  0  0  0  0  0
   51.7356    5.2002   17.6540 C   0  0  0  0  0  0  0  0  0  0  0  0
   52.1613    5.6853   16.6221 O   0  0  0  0  0  0  0  0  0  0  0  0
   50.5790    5.5959   18.2052 O   0  0  0  0  0  0  0  0  0  0  0  0
   51.6107    4.4139   18.1420 C   0  0  0  0  0  0  0  0  0  0  0  0
   52.6274    4.8811   19.0019 C   0  0  0  0  0  0  0  0  0  0  0  0
   51.6282    2.9877   17.7015 C   0  0  0  0  0  0  0  0  0  0  0  0
   53.6585    3.9264   19.5010 C   0  0  0  0  0  0  0  0  0  0  0  0
   52.7363    2.1184   18.0993 C   0  0  0  0  0  0  0  0  0  0  0  0
   53.7190    2.5612   18.9629 C   0  0  0  0  0  0  0  0  0  0  0  0
   50.5787    5.2835   17.7066 C   0  0  0  0  0  0  0  0  0  0  0  0
   52.6584    6.2354   19.4233 C   0  0  0  0  0  0  0  0  0  0  0  0
   50.7412    2.5054   17.0040 O   0  0  0  0  0  0  0  0  0  0  0  0
   54.4604    4.2435   20.3761 O   0  0  0  0  0  0  0  0  0  0  0  0
   53.8222   -0.0368   17.9673 N   0  0  0  0  0  0  0  0  0  0  0  0
   51.6743    7.0931   18.9229 C   0  0  0  0  0  0  0  0  0  0  0  0
   50.6578    6.6276   18.0861 C   0  0  0  0  0  0  0  0  0  0  0  0
   52.8246    0.8171   17.6289 C   0  0  0  0  0  0  0  0  0  0  0  0
   49.5791    4.8585   16.8097 N   0  0  0  0  0  0  0  0  0  0  0  0
   53.7256    6.7468   20.1912 N   0  0  0  0  0  0  0  0  0  0  0  0
   54.7584    1.7053   19.3365 C   0  0  0  0  0  0  0  0  0  0  0  0
   54.4631    9.1098   23.0376 N   0  0  0  0  0  0  0  0  0  0  0  0
   47.6305    3.3371   18.3907 N   0  0  0  0  0  0  0  0  0  0  0  0
   54.7664    0.4255   18.8139 C   0  0  0  0  0  0  0  0  0  0  0  0
   48.2040    5.3418   16.9821 C   0  0  0  0  0  0  0  0  0  0  0  0
   53.4334    7.7869   21.1815 C   0  0  0  0  0  0  0  0  0  0  0  0
   47.5394    4.7948   18.2642 C   0  0  0  0  0  0  0  0  0  0  0  0
   54.6727    8.0346   22.0650 C   0  0  0  0  0  0  0  0  0  0  0  0
   52.6341    5.9124   19.7804 C   0  0  0  0  0  0  0  0  0  0  0  0
   52.1181    3.8319   18.5286 C   0  0  0  0  0  0  0  0  0  0  0  0
   52.9479    4.5675   19.2801 C   0  0  0  0  0  0  0  0  0  0  0  0
   51.8290    6.7086   19.3415 O   0  0  0  0  0  0  0  0  0  0  0  0
   53.4253    6.1983   20.8270 O   0  0  0  0  0  0  0  0  0  0  0  0
   50.7479    4.2129   18.1784 C   0  0  0  0  0  0  0  0  0  0  0  0
   50.2680    4.1439   17.0630 O   0  0  0  0  0  0  0  0  0  0  0  0
   50.0259    4.5331   19.2617 O   0  0  0  0  0  0  0  0  0  0  0  0
   52.7536    3.3090   17.6780 H   0  0  0  0  0  0  0  0  0  0  0  0
   52.7927    2.9551   20.0782 H   0  0  0  0  0  0  0  0  0  0  0  0
   51.9629    6.6129   21.1620 H   0  0  0  0  0  0  0  0  0  0  0  0
   50.2877    6.3348   17.6323 H   0  0  0  0  0  0  0  0  0  0  0  0
   51.6961    8.1561   19.1467 H   0  0  0  0  0  0  0  0  0  0  0  0
   49.9468    7.3545   17.7040 H   0  0  0  0  0  0  0  0  0  0  0  0
   52.0810    0.4063   16.9494 H   0  0  0  0  0  0  0  0  0  0  0  0
   49.5703    3.8252   16.7843 H   0  0  0  0  0  0  0  0  0  0  0  0
   54.2483    5.9633   20.6123 H   0  0  0  0  0  0  0  0  0  0  0  0
   55.5409    2.0260   20.0172 H   0  0  0  0  0  0  0  0  0  0  0  0
   54.3406    9.9927   22.5419 H   0  0  0  0  0  0  0  0  0  0  0  0
   55.3111    9.2189   23.5942 H   0  0  0  0  0  0  0  0  0  0  0  0
   47.0405    3.0203   19.1578 H   0  0  0  0  0  0  0  0  0  0  0  0
   47.2841    2.8879   17.5441 H   0  0  0  0  0  0  0  0  0  0  0  0
   55.5507   -0.2822   19.0689 H   0  0  0  0  0  0  0  0  0  0  0  0
   47.6288    4.9911   16.1163 H   0  0  0  0  0  0  0  0  0  0  0  0
   48.1451    6.4346   16.9563 H   0  0  0  0  0  0  0  0  0  0  0  0
   53.1714    8.7245   20.6782 H   0  0  0  0  0  0  0  0  0  0  0  0
   52.5905    7.4829   21.8145 H   0  0  0  0  0  0  0  0  0  0  0  0
   46.4840    5.0891   18.2662 H   0  0  0  0  0  0  0  0  0  0  0  0
   48.0047    5.2461   19.1471 H   0  0  0  0  0  0  0  0  0  0  0  0
   55.5351    8.2835   21.4355 H   0  0  0  0  0  0  0  0  0  0  0  0
   54.9252    7.1150   22.6054 H   0  0  0  0  0  0  0  0  0  0  0  0
   52.4422    2.8858   18.1122 H   0  0  0  0  0  0  0  0  0  0  0  0
   53.9371    4.1954   19.5207 H   0  0  0  0  0  0  0  0  0  0  0  0
   53.1473    7.1013   21.0877 H   0  0  0  0  0  0  0  0  0  0  0  0
   49.1560    4.7977   18.8987 H   0  0  0  0  0  0  0  0  0  0  0  0
  1  3  1  0
  3  2  2  0
  4  1  2  0
  5  1  1  0
  2  6  1  0
  6  7  2  0
  6  8  1  0
 24 16  1  0
 25 14  1  0
 26 32  1  0
 27 31  1  0
 28 25  2  0
 29 23  1  0
 30 24  1  0
 31 29  1  0
 32 30  1  0
 16 20  2  0
 14 13  2  0
 19 28  1  0
 10  9  2  0
 11  9  1  0
 12 10  1  0
 13 11  1  0
 14 12  1  0
 15  9  1  0
 16 10  1  0
 17 11  2  0
 18 12  2  0
 19 22  2  0
 20 21  1  0
 21 15  2  0
 22 13  1  0
 23 15  1  0
 33 35  1  0
 35 34  2  0
 36 33  2  0
 37 33  1  0
 34 38  1  0
 38 39  2  0
 38 40  1  0
  2 41  1  0
  3 42  1  0
  5 43  1  0
  8 44  1  0
 20 45  1  0
 21 46  1  0
 22 47  1  0
 23 48  1  0
 24 49  1  0
 25 50  1  0
 26 51  1  0
 26 52  1  0
 27 53  1  0
 27 54  1  0
 28 55  1  0
 29 56  1  0
 29 57  1  0
 30 58  1  0
 30 59  1  0
 31 60  1  0
 31 61  1  0
 32 62  1  0
 32 63  1  0
 34 64  1  0
 35 65  1  0
 37 66  1  0
 40 67  1  0
M  END
> <Uni-Dock RESULT> 
ENERGY=   -4.308  LOWER_BOUND=    5.624  UPPER_BOUND=    7.949
INTER + INTRA:          -4.308
INTER:                  -4.308
INTRA:                   0.000
UNBOUND:                 0.000

$$$$

     RDKit          3D

 67 67  0  0  0  0  0  0  0  0999 V2000
   45.0732   13.3087   11.7064 C   0  0  0  0  0  0  0  0  0  0  0  0
   44.8520   10.9968   10.7797 C   0  0  0  0  0  0  0  0  0  0  0  0
   45.2891   11.8591   11.7075 C   0  0  0  0  0  0  0  0  0  0  0  0
   44.8993   13.9829   12.7046 O   0  0  0  0  0  0  0  0  0  0  0  0
   45.2142   13.8561   10.4904 O   0  0  0  0  0  0  0  0  0  0  0  0
   43.9996   11.3240    9.6333 C   0  0  0  0  0  0  0  0  0  0  0  0
   44.0846   10.8029    8.5367 O   0  0  0  0  0  0  0  0  0  0  0  0
   43.0127   12.1769    9.9441 O   0  0  0  0  0  0  0  0  0  0  0  0
   44.0762   11.1967   10.5552 C   0  0  0  0  0  0  0  0  0  0  0  0
   45.2509   11.9755   10.4841 C   0  0  0  0  0  0  0  0  0  0  0  0
   44.0832    9.9408   11.3621 C   0  0  0  0  0  0  0  0  0  0  0  0
   46.4511   11.5610   11.2659 C   0  0  0  0  0  0  0  0  0  0  0  0
   45.3227    9.4940   11.9993 C   0  0  0  0  0  0  0  0  0  0  0  0
   46.4676   10.2652   11.9570 C   0  0  0  0  0  0  0  0  0  0  0  0
   42.8993   11.6035    9.8768 C   0  0  0  0  0  0  0  0  0  0  0  0
   45.2906   13.1628    9.7084 C   0  0  0  0  0  0  0  0  0  0  0  0
   43.0788    9.2520   11.5128 O   0  0  0  0  0  0  0  0  0  0  0  0
   47.4359   12.2884   11.3686 O   0  0  0  0  0  0  0  0  0  0  0  0
   46.4954    7.8223   13.2922 N   0  0  0  0  0  0  0  0  0  0  0  0
   44.1426   13.5058    8.9881 C   0  0  0  0  0  0  0  0  0  0  0  0
   42.9744   12.7452    9.0720 C   0  0  0  0  0  0  0  0  0  0  0  0
   45.3794    8.2856   12.6766 C   0  0  0  0  0  0  0  0  0  0  0  0
   41.7275   10.8217    9.8895 N   0  0  0  0  0  0  0  0  0  0  0  0
   46.4848   13.8937    9.5359 N   0  0  0  0  0  0  0  0  0  0  0  0
   47.6335    9.8202   12.5855 C   0  0  0  0  0  0  0  0  0  0  0  0
   47.7914   17.4250    9.3061 N   0  0  0  0  0  0  0  0  0  0  0  0
   40.4162   11.3239   12.4662 N   0  0  0  0  0  0  0  0  0  0  0  0
   47.5973    8.5998   13.2339 C   0  0  0  0  0  0  0  0  0  0  0  0
   40.4199   11.4850    9.9550 C   0  0  0  0  0  0  0  0  0  0  0  0
   46.3966   15.3522    9.4211 C   0  0  0  0  0  0  0  0  0  0  0  0
   40.1798   12.1904   11.3076 C   0  0  0  0  0  0  0  0  0  0  0  0
   47.8081   15.9702    9.4778 C   0  0  0  0  0  0  0  0  0  0  0  0
   45.3912   13.2227   10.1762 C   0  0  0  0  0  0  0  0  0  0  0  0
   44.7145   11.0247   11.1107 C   0  0  0  0  0  0  0  0  0  0  0  0
   45.6592   11.9272   10.8148 C   0  0  0  0  0  0  0  0  0  0  0  0
   44.4364   13.5426    9.4974 O   0  0  0  0  0  0  0  0  0  0  0  0
   46.4156   14.0589   10.4095 O   0  0  0  0  0  0  0  0  0  0  0  0
   43.2754   11.2323   10.9342 C   0  0  0  0  0  0  0  0  0  0  0  0
   42.5134   10.4354   10.4210 O   0  0  0  0  0  0  0  0  0  0  0  0
   42.8576   12.3619   11.5230 O   0  0  0  0  0  0  0  0  0  0  0  0
   45.1297    9.9505   10.8376 H   0  0  0  0  0  0  0  0  0  0  0  0
   45.8571   11.4994   12.5580 H   0  0  0  0  0  0  0  0  0  0  0  0
   45.0745   14.8127   10.6468 H   0  0  0  0  0  0  0  0  0  0  0  0
   42.5176   12.2773    9.1050 H   0  0  0  0  0  0  0  0  0  0  0  0
   44.1420   14.3585    8.3148 H   0  0  0  0  0  0  0  0  0  0  0  0
   42.1309   13.0473    8.4579 H   0  0  0  0  0  0  0  0  0  0  0  0
   44.5118    7.6334   12.7502 H   0  0  0  0  0  0  0  0  0  0  0  0
   41.7931   10.1338   10.6581 H   0  0  0  0  0  0  0  0  0  0  0  0
   47.1631   13.6142   10.2612 H   0  0  0  0  0  0  0  0  0  0  0  0
   48.5458   10.4085   12.5717 H   0  0  0  0  0  0  0  0  0  0  0  0
   47.4681   17.6491    8.3652 H   0  0  0  0  0  0  0  0  0  0  0  0
   48.7488   17.7731    9.3614 H   0  0  0  0  0  0  0  0  0  0  0  0
   40.0875   11.7837   13.3132 H   0  0  0  0  0  0  0  0  0  0  0  0
   39.8861   10.4587   12.3728 H   0  0  0  0  0  0  0  0  0  0  0  0
   48.4745    8.2038   13.7387 H   0  0  0  0  0  0  0  0  0  0  0  0
   39.6575   10.7063    9.8296 H   0  0  0  0  0  0  0  0  0  0  0  0
   40.2707   12.1845    9.1263 H   0  0  0  0  0  0  0  0  0  0  0  0
   45.9332   15.6285    8.4673 H   0  0  0  0  0  0  0  0  0  0  0  0
   45.7876   15.7613   10.2368 H   0  0  0  0  0  0  0  0  0  0  0  0
   39.1463   12.5530   11.3365 H   0  0  0  0  0  0  0  0  0  0  0  0
   40.8338   13.0649   11.3933 H   0  0  0  0  0  0  0  0  0  0  0  0
   48.4411   15.5248    8.7013 H   0  0  0  0  0  0  0  0  0  0  0  0
   48.2712   15.7347   10.4429 H   0  0  0  0  0  0  0  0  0  0  0  0
   44.9844   10.0490   11.4961 H   0  0  0  0  0  0  0  0  0  0  0  0
   46.7023   11.7054   11.0082 H   0  0  0  0  0  0  0  0  0  0  0  0
   46.1503   14.8836    9.9508 H   0  0  0  0  0  0  0  0  0  0  0  0
   41.9033   12.4038   11.3082 H   0  0  0  0  0  0  0  0  0  0  0  0
  1  3  1  0
  3  2  2  0
  4  1  2  0
  5  1  1  0
  2  6  1  0
  6  7  2  0
  6  8  1  0
 24 16  1  0
 25 14  1  0
 26 32  1  0
 27 31  1  0
 28 25  2  0
 29 23  1  0
 30 24  1  0
 31 29  1  0
 32 30  1  0
 16 20  2  0
 14 13  2  0
 19 28  1  0
 10  9  2  0
 11  9  1  0
 12 10  1  0
 13 11  1  0
 14 12  1  0
 15  9  1  0
 16 10  1  0
 17 11  2  0
 18 12  2  0
 19 22  2  0
 20 21  1  0
 21 15  2  0
 22 13  1  0
 23 15  1  0
 33 35  1  0
 35 34  2  0
 36 33  2  0
 37 33  1  0
 34 38  1  0
 38 39  2  0
 38 40  1  0
  2 41  1  0
  3 42  1  0
  5 43  1  0
  8 44  1  0
 20 45  1  0
 21 46  1  0
 22 47  1  0
 23 48  1  0
 24 49  1  0
 25 50  1  0
 26 51  1  0
 26 52  1  0
 27 53  1  0
 27 54  1  0
 28 55  1  0
 29 56  1  0
 29 57  1  0
 30 58  1  0
 30 59  1  0
 31 60  1  0
 31 61  1  0
 32 62  1  0
 32 63  1  0
 34 64  1  0
 35 65  1  0
 37 66  1  0
 40 67  1  0
M  END
> <Uni-Dock RESULT> 
ENERGY=   -4.304  LOWER_BOUND=    7.782  UPPER_BOUND=   10.612
INTER + INTRA:          -4.304
INTER:                  -4.304
INTRA:                   0.000
UNBOUND:                 0.000

$$$$

     RDKit          3D

 67 67  0  0  0  0  0  0  0  0999 V2000
   48.6401    8.1873   15.4875 C   0  0  0  0  0  0  0  0  0  0  0  0
   48.5841    7.2869   13.1554 C   0  0  0  0  0  0  0  0  0  0  0  0
   48.0690    7.4065   14.3866 C   0  0  0  0  0  0  0  0  0  0  0  0
   47.9875    8.7913   16.3186 O   0  0  0  0  0  0  0  0  0  0  0  0
   49.9731    8.0697   15.5737 O   0  0  0  0  0  0  0  0  0  0  0  0
   49.7685    7.9837   12.6458 C   0  0  0  0  0  0  0  0  0  0  0  0
   50.5718    7.5043   11.8673 O   0  0  0  0  0  0  0  0  0  0  0  0
   49.8198    9.2693   13.0237 O   0  0  0  0  0  0  0  0  0  0  0  0
   48.8705    8.0247   12.8990 C   0  0  0  0  0  0  0  0  0  0  0  0
   49.2398    7.2738   14.0353 C   0  0  0  0  0  0  0  0  0  0  0  0
   47.6350    7.6509   12.1493 C   0  0  0  0  0  0  0  0  0  0  0  0
   48.3557    6.1657   14.4980 C   0  0  0  0  0  0  0  0  0  0  0  0
   46.8711    6.4692   12.5518 C   0  0  0  0  0  0  0  0  0  0  0  0
   47.2109    5.7469   13.6788 C   0  0  0  0  0  0  0  0  0  0  0  0
   49.6565    9.1269   12.4766 C   0  0  0  0  0  0  0  0  0  0  0  0
   50.4196    7.5834   14.7599 C   0  0  0  0  0  0  0  0  0  0  0  0
   47.2276    8.2994   11.1905 O   0  0  0  0  0  0  0  0  0  0  0  0
   48.5452    5.5947   15.5692 O   0  0  0  0  0  0  0  0  0  0  0  0
   45.0230    4.9658   12.1444 N   0  0  0  0  0  0  0  0  0  0  0  0
   51.2189    8.6265   14.2829 C   0  0  0  0  0  0  0  0  0  0  0  0
   50.8451    9.3812   13.1690 C   0  0  0  0  0  0  0  0  0  0  0  0
   45.7732    6.0472   11.8177 C   0  0  0  0  0  0  0  0  0  0  0  0
   49.3398    9.8639   11.3186 N   0  0  0  0  0  0  0  0  0  0  0  0
   50.8632    6.7778   15.8296 N   0  0  0  0  0  0  0  0  0  0  0  0
   46.4558    4.6303   14.0473 C   0  0  0  0  0  0  0  0  0  0  0  0
   52.4598    6.9959   19.2404 N   0  0  0  0  0  0  0  0  0  0  0  0
   47.1703   11.6950   12.0611 N   0  0  0  0  0  0  0  0  0  0  0  0
   45.3801    4.2818   13.2520 C   0  0  0  0  0  0  0  0  0  0  0  0
   49.5427   11.3174   11.3121 C   0  0  0  0  0  0  0  0  0  0  0  0
   51.5421    7.4278   16.9542 C   0  0  0  0  0  0  0  0  0  0  0  0
   48.5767   12.0554   12.2643 C   0  0  0  0  0  0  0  0  0  0  0  0
   51.7302    6.4215   18.1073 C   0  0  0  0  0  0  0  0  0  0  0  0
   50.0128    7.5993   15.0183 C   0  0  0  0  0  0  0  0  0  0  0  0
   48.2910    7.4795   13.2342 C   0  0  0  0  0  0  0  0  0  0  0  0
   48.9159    6.9457   14.2921 C   0  0  0  0  0  0  0  0  0  0  0  0
   50.7645    8.4669   14.6222 O   0  0  0  0  0  0  0  0  0  0  0  0
   50.1249    7.0598   16.2429 O   0  0  0  0  0  0  0  0  0  0  0  0
   48.5375    8.8241   12.7083 C   0  0  0  0  0  0  0  0  0  0  0  0
   48.6978    9.0952   11.5336 O   0  0  0  0  0  0  0  0  0  0  0  0
   48.4408    9.7597   13.6635 O   0  0  0  0  0  0  0  0  0  0  0  0
   48.1191    6.6240   12.4347 H   0  0  0  0  0  0  0  0  0  0  0  0
   47.1445    6.8999   14.6396 H   0  0  0  0  0  0  0  0  0  0  0  0
   50.2056    8.6101   16.3567 H   0  0  0  0  0  0  0  0  0  0  0  0
   50.6317    9.6073   12.5928 H   0  0  0  0  0  0  0  0  0  0  0  0
   52.1732    8.8547   14.7496 H   0  0  0  0  0  0  0  0  0  0  0  0
   51.5301   10.1531   12.8300 H   0  0  0  0  0  0  0  0  0  0  0  0
   45.4510    6.5743   10.9223 H   0  0  0  0  0  0  0  0  0  0  0  0
   48.3626    9.6608   11.0501 H   0  0  0  0  0  0  0  0  0  0  0  0
   50.0851    6.1828   16.1535 H   0  0  0  0  0  0  0  0  0  0  0  0
   46.6980    4.0477   14.9306 H   0  0  0  0  0  0  0  0  0  0  0  0
   53.4137    7.2120   18.9516 H   0  0  0  0  0  0  0  0  0  0  0  0
   52.5440    6.2875   19.9697 H   0  0  0  0  0  0  0  0  0  0  0  0
   46.5729   12.3246   12.5936 H   0  0  0  0  0  0  0  0  0  0  0  0
   46.9172   11.8038   11.0800 H   0  0  0  0  0  0  0  0  0  0  0  0
   44.7586    3.4226   13.4900 H   0  0  0  0  0  0  0  0  0  0  0  0
   49.3534   11.6641   10.2886 H   0  0  0  0  0  0  0  0  0  0  0  0
   50.5800   11.5896   11.5320 H   0  0  0  0  0  0  0  0  0  0  0  0
   52.5286    7.7886   16.6422 H   0  0  0  0  0  0  0  0  0  0  0  0
   50.9540    8.2828   17.3102 H   0  0  0  0  0  0  0  0  0  0  0  0
   48.6945   13.1348   12.1176 H   0  0  0  0  0  0  0  0  0  0  0  0
   48.8403   11.8379   13.3050 H   0  0  0  0  0  0  0  0  0  0  0  0
   52.2679    5.5371   17.7458 H   0  0  0  0  0  0  0  0  0  0  0  0
   50.7493    6.0795   18.4569 H   0  0  0  0  0  0  0  0  0  0  0  0
   47.5525    6.9095   12.6835 H   0  0  0  0  0  0  0  0  0  0  0  0
   48.6489    5.9537   14.6373 H   0  0  0  0  0  0  0  0  0  0  0  0
   50.8713    7.5516   16.6452 H   0  0  0  0  0  0  0  0  0  0  0  0
   48.6567   10.5955   13.2013 H   0  0  0  0  0  0  0  0  0  0  0  0
  1  3  1  0
  3  2  2  0
  4  1  2  0
  5  1  1  0
  2  6  1  0
  6  7  2  0
  6  8  1  0
 24 16  1  0
 25 14  1  0
 26 32  1  0
 27 31  1  0
 28 25  2  0
 29 23  1  0
 30 24  1  0
 31 29  1  0
 32 30  1  0
 16 20  2  0
 14 13  2  0
 19 28  1  0
 10  9  2  0
 11  9  1  0
 12 10  1  0
 13 11  1  0
 14 12  1  0
 15  9  1  0
 16 10  1  0
 17 11  2  0
 18 12  2  0
 19 22  2  0
 20 21  1  0
 21 15  2  0
 22 13  1  0
 23 15  1  0
 33 35  1  0
 35 34  2  0
 36 33  2  0
 37 33  1  0
 34 38  1  0
 38 39  2  0
 38 40  1  0
  2 41  1  0
  3 42  1  0
  5 43  1  0
  8 44  1  0
 20 45  1  0
 21 46  1  0
 22 47  1  0
 23 48  1  0
 24 49  1  0
 25 50  1  0
 26 51  1  0
 26 52  1  0
 27 53  1  0
 27 54  1  0
 28 55  1  0
 29 56  1  0
 29 57  1  0
 30 58  1  0
 30 59  1  0
 31 60  1  0
 31 61  1  0
 32 62  1  0
 32 63  1  0
 34 64  1  0
 35 65  1  0
 37 66  1  0
 40 67  1  0
M  END
> <Uni-Dock RESULT> 
ENERGY=   -4.239  LOWER_BOUND=    5.050  UPPER_BOUND=    7.696
INTER + INTRA:          -4.239
INTER:                  -4.239
INTRA:                   0.000
UNBOUND:                 0.000

$$$$
