
     RDKit          3D

 67 67  0  0  0  0  0  0  0  0999 V2000
   46.0340    4.9458   13.2217 C   0  0  0  0  0  0  0  0  0  0  0  0
   46.6583    7.3359   12.9379 C   0  0  0  0  0  0  0  0  0  0  0  0
   45.7602    6.3435   12.8807 C   0  0  0  0  0  0  0  0  0  0  0  0
   45.6949    3.9862   12.5556 O   0  0  0  0  0  0  0  0  0  0  0  0
   46.5976    4.8267   14.4322 O   0  0  0  0  0  0  0  0  0  0  0  0
   48.0792    7.1459   13.2582 C   0  0  0  0  0  0  0  0  0  0  0  0
   48.7457    6.1364   13.1503 O   0  0  0  0  0  0  0  0  0  0  0  0
   48.6056    8.3096   13.6732 O   0  0  0  0  0  0  0  0  0  0  0  0
   47.4148    6.7600   13.7492 C   0  0  0  0  0  0  0  0  0  0  0  0
   46.7799    5.5778   13.3135 C   0  0  0  0  0  0  0  0  0  0  0  0
   48.2754    6.7186   14.9650 C   0  0  0  0  0  0  0  0  0  0  0  0
   46.9584    4.3195   14.0981 C   0  0  0  0  0  0  0  0  0  0  0  0
   48.3319    5.5020   15.7747 C   0  0  0  0  0  0  0  0  0  0  0  0
   47.7016    4.3432   15.3660 C   0  0  0  0  0  0  0  0  0  0  0  0
   47.2720    7.9733   13.0270 C   0  0  0  0  0  0  0  0  0  0  0  0
   45.9579    5.5886   12.1587 C   0  0  0  0  0  0  0  0  0  0  0  0
   48.9570    7.6811   15.3071 O   0  0  0  0  0  0  0  0  0  0  0  0
   46.4984    3.2452   13.7221 O   0  0  0  0  0  0  0  0  0  0  0  0
   49.1262    4.3767   17.7595 N   0  0  0  0  0  0  0  0  0  0  0  0
   45.8470    6.7867   11.4453 C   0  0  0  0  0  0  0  0  0  0  0  0
   46.4702    7.9570   11.8820 C   0  0  0  0  0  0  0  0  0  0  0  0
   49.0330    5.4750   16.9705 C   0  0  0  0  0  0  0  0  0  0  0  0
   47.8166    9.1824   13.4948 N   0  0  0  0  0  0  0  0  0  0  0  0
   45.3402    4.4198   11.6701 N   0  0  0  0  0  0  0  0  0  0  0  0
   47.7817    3.1920   16.1539 C   0  0  0  0  0  0  0  0  0  0  0  0
   43.1214    3.8856   13.5234 N   0  0  0  0  0  0  0  0  0  0  0  0
   50.3369   10.6131   11.0371 N   0  0  0  0  0  0  0  0  0  0  0  0
   48.4993    3.2593   17.3337 C   0  0  0  0  0  0  0  0  0  0  0  0
   48.3899   10.1473   12.5542 C   0  0  0  0  0  0  0  0  0  0  0  0
   43.9443    4.4942   11.2217 C   0  0  0  0  0  0  0  0  0  0  0  0
   49.6759    9.6187   11.8866 C   0  0  0  0  0  0  0  0  0  0  0  0
   42.9600    4.7843   12.3762 C   0  0  0  0  0  0  0  0  0  0  0  0
   46.0424    4.9445   13.4396 C   0  0  0  0  0  0  0  0  0  0  0  0
   47.8611    6.5614   13.9459 C   0  0  0  0  0  0  0  0  0  0  0  0
   47.1624    5.4552   14.2331 C   0  0  0  0  0  0  0  0  0  0  0  0
   45.8989    3.7853   13.1008 O   0  0  0  0  0  0  0  0  0  0  0  0
   45.1100    5.8841   13.2285 O   0  0  0  0  0  0  0  0  0  0  0  0
   47.6655    7.3699   12.7352 C   0  0  0  0  0  0  0  0  0  0  0  0
   47.1748    7.0322   11.6770 O   0  0  0  0  0  0  0  0  0  0  0  0
   48.1655    8.6006   12.9315 O   0  0  0  0  0  0  0  0  0  0  0  0
   46.3620    8.3510   12.7003 H   0  0  0  0  0  0  0  0  0  0  0  0
   44.7471    6.5349   12.5485 H   0  0  0  0  0  0  0  0  0  0  0  0
   46.7608    3.8659   14.5258 H   0  0  0  0  0  0  0  0  0  0  0  0
   49.5416    8.0866   13.8594 H   0  0  0  0  0  0  0  0  0  0  0  0
   45.2728    6.8305   10.5238 H   0  0  0  0  0  0  0  0  0  0  0  0
   46.2971    8.8635   11.3093 H   0  0  0  0  0  0  0  0  0  0  0  0
   49.5544    6.3529   17.3450 H   0  0  0  0  0  0  0  0  0  0  0  0
   48.4626    9.0049   14.2794 H   0  0  0  0  0  0  0  0  0  0  0  0
   45.4279    3.6729   12.3788 H   0  0  0  0  0  0  0  0  0  0  0  0
   47.2979    2.2667   15.8563 H   0  0  0  0  0  0  0  0  0  0  0  0
   42.3377    4.0010   14.1630 H   0  0  0  0  0  0  0  0  0  0  0  0
   43.1115    2.9153   13.2128 H   0  0  0  0  0  0  0  0  0  0  0  0
   49.6899   10.9405   10.3211 H   0  0  0  0  0  0  0  0  0  0  0  0
   50.5846   11.4298   11.5952 H   0  0  0  0  0  0  0  0  0  0  0  0
   48.5934    2.3945   17.9851 H   0  0  0  0  0  0  0  0  0  0  0  0
   47.6591   10.4640   11.8022 H   0  0  0  0  0  0  0  0  0  0  0  0
   48.6366   11.0489   13.1284 H   0  0  0  0  0  0  0  0  0  0  0  0
   43.6932    3.5183   10.7883 H   0  0  0  0  0  0  0  0  0  0  0  0
   43.8115    5.2228   10.4151 H   0  0  0  0  0  0  0  0  0  0  0  0
   49.4494    8.7390   11.2747 H   0  0  0  0  0  0  0  0  0  0  0  0
   50.3844    9.2912   12.6561 H   0  0  0  0  0  0  0  0  0  0  0  0
   43.0884    5.8141   12.7260 H   0  0  0  0  0  0  0  0  0  0  0  0
   41.9368    4.6963   11.9942 H   0  0  0  0  0  0  0  0  0  0  0  0
   48.6558    6.8887   14.6063 H   0  0  0  0  0  0  0  0  0  0  0  0
   47.4153    4.8505   15.0955 H   0  0  0  0  0  0  0  0  0  0  0  0
   44.4434    5.4367   12.6678 H   0  0  0  0  0  0  0  0  0  0  0  0
   47.9919    9.0592   12.0826 H   0  0  0  0  0  0  0  0  0  0  0  0
  1  3  1  0
  3  2  2  0
  4  1  2  0
  5  1  1  0
  2  6  1  0
  6  7  2  0
  6  8  1  0
 24 16  1  0
 25 14  1  0
 26 32  1  0
 27 31  1  0
 28 25  2  0
 29 23  1  0
 30 24  1  0
 31 29  1  0
 32 30  1  0
 16 20  2  0
 14 13  2  0
 19 28  1  0
 10  9  2  0
 11  9  1  0
 12 10  1  0
 13 11  1  0
 14 12  1  0
 15  9  1  0
 16 10  1  0
 17 11  2  0
 18 12  2  0
 19 22  2  0
 20 21  1  0
 21 15  2  0
 22 13  1  0
 23 15  1  0
 33 35  1  0
 35 34  2  0
 36 33  2  0
 37 33  1  0
 34 38  1  0
 38 39  2  0
 38 40  1  0
  2 41  1  0
  3 42  1  0
  5 43  1  0
  8 44  1  0
 20 45  1  0
 21 46  1  0
 22 47  1  0
 23 48  1  0
 24 49  1  0
 25 50  1  0
 26 51  1  0
 26 52  1  0
 27 53  1  0
 27 54  1  0
 28 55  1  0
 29 56  1  0
 29 57  1  0
 30 58  1  0
 30 59  1  0
 31 60  1  0
 31 61  1  0
 32 62  1  0
 32 63  1  0
 34 64  1  0
 35 65  1  0
 37 66  1  0
 40 67  1  0
M  END
> <Uni-Dock RESULT> 
ENERGY=   -6.598  LOWER_BOUND=    0.000  UPPER_BOUND=    0.000
INTER + INTRA:          -6.598
INTER:                  -6.598
INTRA:                   0.000
UNBOUND:                 0.000

$$$$

     RDKit          3D

 67 67  0  0  0  0  0  0  0  0999 V2000
   44.4740    6.7198   11.5399 C   0  0  0  0  0  0  0  0  0  0  0  0
   46.7405    7.1748   12.4558 C   0  0  0  0  0  0  0  0  0  0  0  0
   45.8840    6.4014   11.7755 C   0  0  0  0  0  0  0  0  0  0  0  0
   43.5499    5.9421   11.6842 O   0  0  0  0  0  0  0  0  0  0  0  0
   44.3176    7.9441   11.0168 O   0  0  0  0  0  0  0  0  0  0  0  0
   46.3622    8.4125   13.1505 C   0  0  0  0  0  0  0  0  0  0  0  0
   45.2655    8.7430   13.5539 O   0  0  0  0  0  0  0  0  0  0  0  0
   47.4531    9.1723   13.3404 O   0  0  0  0  0  0  0  0  0  0  0  0
   46.0913    8.2312   12.2990 C   0  0  0  0  0  0  0  0  0  0  0  0
   44.9967    7.3768   12.0492 C   0  0  0  0  0  0  0  0  0  0  0  0
   45.9699    9.6818   11.9804 C   0  0  0  0  0  0  0  0  0  0  0  0
   43.7533    7.9387   11.4419 C   0  0  0  0  0  0  0  0  0  0  0  0
   44.7859   10.1755   11.2780 C   0  0  0  0  0  0  0  0  0  0  0  0
   43.7147    9.3446   11.0144 C   0  0  0  0  0  0  0  0  0  0  0  0
   47.2872    7.7340   12.8790 C   0  0  0  0  0  0  0  0  0  0  0  0
   45.0845    5.9933   12.3452 C   0  0  0  0  0  0  0  0  0  0  0  0
   46.8373   10.4889   12.3035 O   0  0  0  0  0  0  0  0  0  0  0  0
   42.7428    7.2610   11.2787 O   0  0  0  0  0  0  0  0  0  0  0  0
   43.6278   12.0132   10.2207 N   0  0  0  0  0  0  0  0  0  0  0  0
   46.2612    5.5240   12.9384 C   0  0  0  0  0  0  0  0  0  0  0  0
   47.3456    6.3697   13.1781 C   0  0  0  0  0  0  0  0  0  0  0  0
   44.7006   11.4974   10.8690 C   0  0  0  0  0  0  0  0  0  0  0  0
   48.4223    8.5468   13.0481 N   0  0  0  0  0  0  0  0  0  0  0  0
   43.9990    5.1164   12.1473 N   0  0  0  0  0  0  0  0  0  0  0  0
   42.5914    9.8458   10.3517 C   0  0  0  0  0  0  0  0  0  0  0  0
   43.8479    4.7173    9.2385 N   0  0  0  0  0  0  0  0  0  0  0  0
   49.3970    8.8268   16.7101 N   0  0  0  0  0  0  0  0  0  0  0  0
   42.5966   11.1765    9.9769 C   0  0  0  0  0  0  0  0  0  0  0  0
   49.2636    8.4026   14.2379 C   0  0  0  0  0  0  0  0  0  0  0  0
   44.2549    3.8004   11.5492 C   0  0  0  0  0  0  0  0  0  0  0  0
   48.5357    8.8427   15.5246 C   0  0  0  0  0  0  0  0  0  0  0  0
   44.7207    3.8920   10.0792 C   0  0  0  0  0  0  0  0  0  0  0  0
   44.4789    6.8740   11.3858 C   0  0  0  0  0  0  0  0  0  0  0  0
   45.8383    8.6741   12.4299 C   0  0  0  0  0  0  0  0  0  0  0  0
   44.8526    8.2710   11.6173 C   0  0  0  0  0  0  0  0  0  0  0  0
   43.3409    6.4453   11.3973 O   0  0  0  0  0  0  0  0  0  0  0  0
   45.5334    6.1270   11.0294 O   0  0  0  0  0  0  0  0  0  0  0  0
   46.6246    7.7734   13.2834 C   0  0  0  0  0  0  0  0  0  0  0  0
   46.3239    6.6688   13.6884 O   0  0  0  0  0  0  0  0  0  0  0  0
   47.7780    8.3707   13.6239 O   0  0  0  0  0  0  0  0  0  0  0  0
   47.7786    6.8793   12.5541 H   0  0  0  0  0  0  0  0  0  0  0  0
   46.2054    5.4528   11.3630 H   0  0  0  0  0  0  0  0  0  0  0  0
   43.3472    8.0490   10.9413 H   0  0  0  0  0  0  0  0  0  0  0  0
   47.1063    9.9629   13.8044 H   0  0  0  0  0  0  0  0  0  0  0  0
   46.3544    4.4824   13.2336 H   0  0  0  0  0  0  0  0  0  0  0  0
   48.2474    5.9273   13.5913 H   0  0  0  0  0  0  0  0  0  0  0  0
   45.5082   12.2030   11.0507 H   0  0  0  0  0  0  0  0  0  0  0  0
   48.1820    9.5367   12.8850 H   0  0  0  0  0  0  0  0  0  0  0  0
   43.2718    5.6019   11.5967 H   0  0  0  0  0  0  0  0  0  0  0  0
   41.7343    9.2161   10.1333 H   0  0  0  0  0  0  0  0  0  0  0  0
   44.0949    4.5907    8.2590 H   0  0  0  0  0  0  0  0  0  0  0  0
   42.8787    4.4204    9.3418 H   0  0  0  0  0  0  0  0  0  0  0  0
   49.7881    7.8949   16.8405 H   0  0  0  0  0  0  0  0  0  0  0  0
   50.1889    9.4529   16.5664 H   0  0  0  0  0  0  0  0  0  0  0  0
   41.7499   11.6183    9.4582 H   0  0  0  0  0  0  0  0  0  0  0  0
   49.6548    7.3843   14.3371 H   0  0  0  0  0  0  0  0  0  0  0  0
   50.1402    9.0458   14.0921 H   0  0  0  0  0  0  0  0  0  0  0  0
   43.3102    3.2437   11.5799 H   0  0  0  0  0  0  0  0  0  0  0  0
   44.9670    3.2139   12.1390 H   0  0  0  0  0  0  0  0  0  0  0  0
   47.6766    8.1902   15.7142 H   0  0  0  0  0  0  0  0  0  0  0  0
   48.1376    9.8558   15.3963 H   0  0  0  0  0  0  0  0  0  0  0  0
   45.7333    4.3068   10.0340 H   0  0  0  0  0  0  0  0  0  0  0  0
   44.7655    2.8797    9.6626 H   0  0  0  0  0  0  0  0  0  0  0  0
   46.0720    9.7287   12.5187 H   0  0  0  0  0  0  0  0  0  0  0  0
   44.2480    8.9930   11.0821 H   0  0  0  0  0  0  0  0  0  0  0  0
   45.1661    5.2239   10.9390 H   0  0  0  0  0  0  0  0  0  0  0  0
   48.2274    7.7039   14.1846 H   0  0  0  0  0  0  0  0  0  0  0  0
  1  3  1  0
  3  2  2  0
  4  1  2  0
  5  1  1  0
  2  6  1  0
  6  7  2  0
  6  8  1  0
 24 16  1  0
 25 14  1  0
 26 32  1  0
 27 31  1  0
 28 25  2  0
 29 23  1  0
 30 24  1  0
 31 29  1  0
 32 30  1  0
 16 20  2  0
 14 13  2  0
 19 28  1  0
 10  9  2  0
 11  9  1  0
 12 10  1  0
 13 11  1  0
 14 12  1  0
 15  9  1  0
 16 10  1  0
 17 11  2  0
 18 12  2  0
 19 22  2  0
 20 21  1  0
 21 15  2  0
 22 13  1  0
 23 15  1  0
 33 35  1  0
 35 34  2  0
 36 33  2  0
 37 33  1  0
 34 38  1  0
 38 39  2  0
 38 40  1  0
  2 41  1  0
  3 42  1  0
  5 43  1  0
  8 44  1  0
 20 45  1  0
 21 46  1  0
 22 47  1  0
 23 48  1  0
 24 49  1  0
 25 50  1  0
 26 51  1  0
 26 52  1  0
 27 53  1  0
 27 54  1  0
 28 55  1  0
 29 56  1  0
 29 57  1  0
 30 58  1  0
 30 59  1  0
 31 60  1  0
 31 61  1  0
 32 62  1  0
 32 63  1  0
 34 64  1  0
 35 65  1  0
 37 66  1  0
 40 67  1  0
M  END
> <Uni-Dock RESULT> 
ENERGY=   -6.548  LOWER_BOUND=    2.420  UPPER_BOUND=    4.940
INTER + INTRA:          -6.548
INTER:                  -6.548
INTRA:                   0.000
UNBOUND:                 0.000

$$$$

     RDKit          3D

 67 67  0  0  0  0  0  0  0  0999 V2000
   44.4739    6.7199   11.5400 C   0  0  0  0  0  0  0  0  0  0  0  0
   46.7405    7.1748   12.4558 C   0  0  0  0  0  0  0  0  0  0  0  0
   45.8839    6.4014   11.7755 C   0  0  0  0  0  0  0  0  0  0  0  0
   43.5499    5.9421   11.6842 O   0  0  0  0  0  0  0  0  0  0  0  0
   44.3177    7.9442   11.0169 O   0  0  0  0  0  0  0  0  0  0  0  0
   46.3622    8.4125   13.1505 C   0  0  0  0  0  0  0  0  0  0  0  0
   45.2655    8.7431   13.5539 O   0  0  0  0  0  0  0  0  0  0  0  0
   47.4532    9.1723   13.3405 O   0  0  0  0  0  0  0  0  0  0  0  0
   46.0913    8.2312   12.2990 C   0  0  0  0  0  0  0  0  0  0  0  0
   44.9967    7.3768   12.0492 C   0  0  0  0  0  0  0  0  0  0  0  0
   45.9700    9.6819   11.9805 C   0  0  0  0  0  0  0  0  0  0  0  0
   43.7533    7.9388   11.4419 C   0  0  0  0  0  0  0  0  0  0  0  0
   44.7860   10.1755   11.2781 C   0  0  0  0  0  0  0  0  0  0  0  0
   43.7148    9.3446   11.0144 C   0  0  0  0  0  0  0  0  0  0  0  0
   47.2872    7.7340   12.8791 C   0  0  0  0  0  0  0  0  0  0  0  0
   45.0844    5.9933   12.3452 C   0  0  0  0  0  0  0  0  0  0  0  0
   46.8373   10.4889   12.3035 O   0  0  0  0  0  0  0  0  0  0  0  0
   42.7428    7.2611   11.2787 O   0  0  0  0  0  0  0  0  0  0  0  0
   43.6279   12.0133   10.2207 N   0  0  0  0  0  0  0  0  0  0  0  0
   46.2611    5.5240   12.9384 C   0  0  0  0  0  0  0  0  0  0  0  0
   47.3456    6.3697   13.1781 C   0  0  0  0  0  0  0  0  0  0  0  0
   44.7007   11.4975   10.8690 C   0  0  0  0  0  0  0  0  0  0  0  0
   48.4223    8.5467   13.0481 N   0  0  0  0  0  0  0  0  0  0  0  0
   43.9989    5.1164   12.1473 N   0  0  0  0  0  0  0  0  0  0  0  0
   42.5914    9.8459   10.3517 C   0  0  0  0  0  0  0  0  0  0  0  0
   43.8478    4.7174    9.2385 N   0  0  0  0  0  0  0  0  0  0  0  0
   49.3970    8.8267   16.7101 N   0  0  0  0  0  0  0  0  0  0  0  0
   42.5967   11.1766    9.9770 C   0  0  0  0  0  0  0  0  0  0  0  0
   49.2636    8.4025   14.2379 C   0  0  0  0  0  0  0  0  0  0  0  0
   44.2548    3.8004   11.5492 C   0  0  0  0  0  0  0  0  0  0  0  0
   48.5358    8.8426   15.5246 C   0  0  0  0  0  0  0  0  0  0  0  0
   44.7206    3.8921   10.0793 C   0  0  0  0  0  0  0  0  0  0  0  0
   44.4789    6.8740   11.3859 C   0  0  0  0  0  0  0  0  0  0  0  0
   45.8383    8.6741   12.4300 C   0  0  0  0  0  0  0  0  0  0  0  0
   44.8526    8.2710   11.6173 C   0  0  0  0  0  0  0  0  0  0  0  0
   43.3409    6.4454   11.3973 O   0  0  0  0  0  0  0  0  0  0  0  0
   45.5333    6.1271   11.0294 O   0  0  0  0  0  0  0  0  0  0  0  0
   46.6246    7.7734   13.2834 C   0  0  0  0  0  0  0  0  0  0  0  0
   46.3238    6.6688   13.6884 O   0  0  0  0  0  0  0  0  0  0  0  0
   47.7781    8.3707   13.6239 O   0  0  0  0  0  0  0  0  0  0  0  0
   47.7786    6.8793   12.5542 H   0  0  0  0  0  0  0  0  0  0  0  0
   46.2053    5.4528   11.3630 H   0  0  0  0  0  0  0  0  0  0  0  0
   43.3472    8.0491   10.9413 H   0  0  0  0  0  0  0  0  0  0  0  0
   47.1063    9.9629   13.8044 H   0  0  0  0  0  0  0  0  0  0  0  0
   46.3543    4.4824   13.2336 H   0  0  0  0  0  0  0  0  0  0  0  0
   48.2474    5.9272   13.5913 H   0  0  0  0  0  0  0  0  0  0  0  0
   45.5083   12.2031   11.0507 H   0  0  0  0  0  0  0  0  0  0  0  0
   48.1820    9.5366   12.8850 H   0  0  0  0  0  0  0  0  0  0  0  0
   43.2717    5.6020   11.5968 H   0  0  0  0  0  0  0  0  0  0  0  0
   41.7343    9.2162   10.1333 H   0  0  0  0  0  0  0  0  0  0  0  0
   44.0948    4.5908    8.2590 H   0  0  0  0  0  0  0  0  0  0  0  0
   42.8786    4.4205    9.3418 H   0  0  0  0  0  0  0  0  0  0  0  0
   49.7881    7.8948   16.8405 H   0  0  0  0  0  0  0  0  0  0  0  0
   50.1889    9.4528   16.5664 H   0  0  0  0  0  0  0  0  0  0  0  0
   41.7500   11.6184    9.4583 H   0  0  0  0  0  0  0  0  0  0  0  0
   49.6548    7.3842   14.3372 H   0  0  0  0  0  0  0  0  0  0  0  0
   50.1402    9.0457   14.0921 H   0  0  0  0  0  0  0  0  0  0  0  0
   43.3101    3.2438   11.5800 H   0  0  0  0  0  0  0  0  0  0  0  0
   44.9669    3.2139   12.1391 H   0  0  0  0  0  0  0  0  0  0  0  0
   47.6767    8.1902   15.7143 H   0  0  0  0  0  0  0  0  0  0  0  0
   48.1377    9.8557   15.3963 H   0  0  0  0  0  0  0  0  0  0  0  0
   45.7332    4.3068   10.0340 H   0  0  0  0  0  0  0  0  0  0  0  0
   44.7654    2.8797    9.6626 H   0  0  0  0  0  0  0  0  0  0  0  0
   46.0721    9.7287   12.5187 H   0  0  0  0  0  0  0  0  0  0  0  0
   44.2481    8.9930   11.0821 H   0  0  0  0  0  0  0  0  0  0  0  0
   45.1660    5.2239   10.9390 H   0  0  0  0  0  0  0  0  0  0  0  0
   48.2274    7.7038   14.1846 H   0  0  0  0  0  0  0  0  0  0  0  0
  1  3  1  0
  3  2  2  0
  4  1  2  0
  5  1  1  0
  2  6  1  0
  6  7  2  0
  6  8  1  0
 24 16  1  0
 25 14  1  0
 26 32  1  0
 27 31  1  0
 28 25  2  0
 29 23  1  0
 30 24  1  0
 31 29  1  0
 32 30  1  0
 16 20  2  0
 14 13  2  0
 19 28  1  0
 10  9  2  0
 11  9  1  0
 12 10  1  0
 13 11  1  0
 14 12  1  0
 15  9  1  0
 16 10  1  0
 17 11  2  0
 18 12  2  0
 19 22  2  0
 20 21  1  0
 21 15  2  0
 22 13  1  0
 23 15  1  0
 33 35  1  0
 35 34  2  0
 36 33  2  0
 37 33  1  0
 34 38  1  0
 38 39  2  0
 38 40  1  0
  2 41  1  0
  3 42  1  0
  5 43  1  0
  8 44  1  0
 20 45  1  0
 21 46  1  0
 22 47  1  0
 23 48  1  0
 24 49  1  0
 25 50  1  0
 26 51  1  0
 26 52  1  0
 27 53  1  0
 27 54  1  0
 28 55  1  0
 29 56  1  0
 29 57  1  0
 30 58  1  0
 30 59  1  0
 31 60  1  0
 31 61  1  0
 32 62  1  0
 32 63  1  0
 34 64  1  0
 35 65  1  0
 37 66  1  0
 40 67  1  0
M  END
> <Uni-Dock RESULT> 
ENERGY=   -6.548  LOWER_BOUND=    2.420  UPPER_BOUND=    4.940
INTER + INTRA:          -6.548
INTER:                  -6.548
INTRA:                   0.000
UNBOUND:                 0.000

$$$$

     RDKit          3D

 67 67  0  0  0  0  0  0  0  0999 V2000
   46.9454    8.3125   12.9748 C   0  0  0  0  0  0  0  0  0  0  0  0
   45.6906    6.1685   12.8660 C   0  0  0  0  0  0  0  0  0  0  0  0
   46.5283    7.0067   13.4906 C   0  0  0  0  0  0  0  0  0  0  0  0
   48.0901    8.7235   12.9610 O   0  0  0  0  0  0  0  0  0  0  0  0
   45.8967    9.0726   12.6291 O   0  0  0  0  0  0  0  0  0  0  0  0
   45.1444    6.3969   11.5217 C   0  0  0  0  0  0  0  0  0  0  0  0
   45.5945    7.0954   10.6361 O   0  0  0  0  0  0  0  0  0  0  0  0
   44.0343    5.6593   11.3566 O   0  0  0  0  0  0  0  0  0  0  0  0
   45.1528    7.0483   12.1597 C   0  0  0  0  0  0  0  0  0  0  0  0
   46.3196    7.7973   12.4206 C   0  0  0  0  0  0  0  0  0  0  0  0
   43.9745    7.7254   11.5483 C   0  0  0  0  0  0  0  0  0  0  0  0
   46.3368    9.2577   12.1083 C   0  0  0  0  0  0  0  0  0  0  0  0
   43.9831    9.1765   11.3667 C   0  0  0  0  0  0  0  0  0  0  0  0
   45.1146    9.9221   11.6334 C   0  0  0  0  0  0  0  0  0  0  0  0
   45.1009    5.6578   12.4391 C   0  0  0  0  0  0  0  0  0  0  0  0
   47.4555    7.1775   12.9993 C   0  0  0  0  0  0  0  0  0  0  0  0
   42.9886    7.0951   11.1759 O   0  0  0  0  0  0  0  0  0  0  0  0
   47.3487    9.9407   12.2371 O   0  0  0  0  0  0  0  0  0  0  0  0
   42.8077   11.1836   10.7138 N   0  0  0  0  0  0  0  0  0  0  0  0
   47.3961    5.8019   13.2463 C   0  0  0  0  0  0  0  0  0  0  0  0
   46.2382    5.0641   12.9941 C   0  0  0  0  0  0  0  0  0  0  0  0
   42.8575    9.8430   10.9076 C   0  0  0  0  0  0  0  0  0  0  0  0
   43.9192    4.9130   12.2764 N   0  0  0  0  0  0  0  0  0  0  0  0
   48.6520    7.8833   13.2372 N   0  0  0  0  0  0  0  0  0  0  0  0
   45.0982   11.3059   11.4401 C   0  0  0  0  0  0  0  0  0  0  0  0
   48.0993    9.5750   15.5772 N   0  0  0  0  0  0  0  0  0  0  0  0
   44.3758    2.1204    9.7404 N   0  0  0  0  0  0  0  0  0  0  0  0
   43.9290   11.8855   10.9835 C   0  0  0  0  0  0  0  0  0  0  0  0
   43.9754    3.5385   11.7747 C   0  0  0  0  0  0  0  0  0  0  0  0
   49.3556    7.6712   14.5080 C   0  0  0  0  0  0  0  0  0  0  0  0
   44.4321    3.4724   10.3029 C   0  0  0  0  0  0  0  0  0  0  0  0
   48.5602    8.1910   15.7259 C   0  0  0  0  0  0  0  0  0  0  0  0
   46.7717    8.4404   13.0062 C   0  0  0  0  0  0  0  0  0  0  0  0
   44.9811    7.2884   11.7236 C   0  0  0  0  0  0  0  0  0  0  0  0
   45.5532    8.4043   12.1944 C   0  0  0  0  0  0  0  0  0  0  0  0
   47.7120    9.1887   12.8197 O   0  0  0  0  0  0  0  0  0  0  0  0
   46.6860    7.6325   14.0724 O   0  0  0  0  0  0  0  0  0  0  0  0
   45.5509    5.9426   11.8729 C   0  0  0  0  0  0  0  0  0  0  0  0
   46.7082    5.6344   12.0734 O   0  0  0  0  0  0  0  0  0  0  0  0
   44.5843    5.0251   11.7084 O   0  0  0  0  0  0  0  0  0  0  0  0
   45.4070    5.2339   13.3357 H   0  0  0  0  0  0  0  0  0  0  0  0
   46.9693    6.7380   14.4428 H   0  0  0  0  0  0  0  0  0  0  0  0
   46.3017    9.8897   12.2728 H   0  0  0  0  0  0  0  0  0  0  0  0
   43.7475    5.8742   10.4445 H   0  0  0  0  0  0  0  0  0  0  0  0
   48.2605    5.2726   13.6378 H   0  0  0  0  0  0  0  0  0  0  0  0
   46.2442    4.0110   13.2603 H   0  0  0  0  0  0  0  0  0  0  0  0
   41.9367    9.3126   10.6752 H   0  0  0  0  0  0  0  0  0  0  0  0
   43.2159    5.4645   11.7611 H   0  0  0  0  0  0  0  0  0  0  0  0
   48.4754    8.8938   13.1135 H   0  0  0  0  0  0  0  0  0  0  0  0
   45.9735   11.9165   11.6396 H   0  0  0  0  0  0  0  0  0  0  0  0
   47.7501    9.9183   16.4698 H   0  0  0  0  0  0  0  0  0  0  0  0
   48.8771   10.1768   15.3107 H   0  0  0  0  0  0  0  0  0  0  0  0
   44.9434    1.4882   10.3031 H   0  0  0  0  0  0  0  0  0  0  0  0
   43.4200    1.7687    9.7897 H   0  0  0  0  0  0  0  0  0  0  0  0
   43.8602   12.9571   10.8167 H   0  0  0  0  0  0  0  0  0  0  0  0
   44.6008    2.9006   12.4085 H   0  0  0  0  0  0  0  0  0  0  0  0
   42.9608    3.1277   11.8469 H   0  0  0  0  0  0  0  0  0  0  0  0
   50.3008    8.2247   14.4488 H   0  0  0  0  0  0  0  0  0  0  0  0
   49.6322    6.6217   14.6529 H   0  0  0  0  0  0  0  0  0  0  0  0
   45.4590    3.8418   10.2093 H   0  0  0  0  0  0  0  0  0  0  0  0
   43.8052    4.1310    9.6910 H   0  0  0  0  0  0  0  0  0  0  0  0
   47.6858    7.5548   15.8995 H   0  0  0  0  0  0  0  0  0  0  0  0
   49.1957    8.1193   16.6155 H   0  0  0  0  0  0  0  0  0  0  0  0
   44.0588    7.3481   11.1574 H   0  0  0  0  0  0  0  0  0  0  0  0
   45.1313    9.3771   11.9728 H   0  0  0  0  0  0  0  0  0  0  0  0
   47.5593    7.7180   14.5070 H   0  0  0  0  0  0  0  0  0  0  0  0
   45.0531    4.1718   11.8236 H   0  0  0  0  0  0  0  0  0  0  0  0
  1  3  1  0
  3  2  2  0
  4  1  2  0
  5  1  1  0
  2  6  1  0
  6  7  2  0
  6  8  1  0
 24 16  1  0
 25 14  1  0
 26 32  1  0
 27 31  1  0
 28 25  2  0
 29 23  1  0
 30 24  1  0
 31 29  1  0
 32 30  1  0
 16 20  2  0
 14 13  2  0
 19 28  1  0
 10  9  2  0
 11  9  1  0
 12 10  1  0
 13 11  1  0
 14 12  1  0
 15  9  1  0
 16 10  1  0
 17 11  2  0
 18 12  2  0
 19 22  2  0
 20 21  1  0
 21 15  2  0
 22 13  1  0
 23 15  1  0
 33 35  1  0
 35 34  2  0
 36 33  2  0
 37 33  1  0
 34 38  1  0
 38 39  2  0
 38 40  1  0
  2 41  1  0
  3 42  1  0
  5 43  1  0
  8 44  1  0
 20 45  1  0
 21 46  1  0
 22 47  1  0
 23 48  1  0
 24 49  1  0
 25 50  1  0
 26 51  1  0
 26 52  1  0
 27 53  1  0
 27 54  1  0
 28 55  1  0
 29 56  1  0
 29 57  1  0
 30 58  1  0
 30 59  1  0
 31 60  1  0
 31 61  1  0
 32 62  1  0
 32 63  1  0
 34 64  1  0
 35 65  1  0
 37 66  1  0
 40 67  1  0
M  END
> <Uni-Dock RESULT> 
ENERGY=   -6.073  LOWER_BOUND=    2.190  UPPER_BOUND=    6.091
INTER + INTRA:          -6.073
INTER:                  -6.073
INTRA:                   0.000
UNBOUND:                 0.000

$$$$

     RDKit          3D

 67 67  0  0  0  0  0  0  0  0999 V2000
   47.1016   10.6524   12.1908 C   0  0  0  0  0  0  0  0  0  0  0  0
   44.9847   10.8900   10.9082 C   0  0  0  0  0  0  0  0  0  0  0  0
   46.2687   11.2070   11.1214 C   0  0  0  0  0  0  0  0  0  0  0  0
   47.8289   11.3033   12.9168 O   0  0  0  0  0  0  0  0  0  0  0  0
   47.0745    9.3122   12.2029 O   0  0  0  0  0  0  0  0  0  0  0  0
   44.1958   10.0101   11.7807 C   0  0  0  0  0  0  0  0  0  0  0  0
   44.3861    9.7444   12.9503 O   0  0  0  0  0  0  0  0  0  0  0  0
   43.1405    9.5326   11.1011 O   0  0  0  0  0  0  0  0  0  0  0  0
   45.0367    9.7923   11.5036 C   0  0  0  0  0  0  0  0  0  0  0  0
   46.1755   10.3303   12.1394 C   0  0  0  0  0  0  0  0  0  0  0  0
   44.7509    8.3355   11.6329 C   0  0  0  0  0  0  0  0  0  0  0  0
   47.0857    9.4233   12.9005 C   0  0  0  0  0  0  0  0  0  0  0  0
   45.7241    7.4585   12.2828 C   0  0  0  0  0  0  0  0  0  0  0  0
   46.8503    7.9724   12.8952 C   0  0  0  0  0  0  0  0  0  0  0  0
   44.1467   10.6238   10.7754 C   0  0  0  0  0  0  0  0  0  0  0  0
   46.4695   11.7131   12.0346 C   0  0  0  0  0  0  0  0  0  0  0  0
   43.7056    7.8429   11.2172 O   0  0  0  0  0  0  0  0  0  0  0  0
   48.0436    9.8473   13.5408 O   0  0  0  0  0  0  0  0  0  0  0  0
   46.3982    5.2238   12.9061 N   0  0  0  0  0  0  0  0  0  0  0  0
   45.5694   12.5225   11.3334 C   0  0  0  0  0  0  0  0  0  0  0  0
   44.4471   11.9869   10.6990 C   0  0  0  0  0  0  0  0  0  0  0  0
   45.5353    6.0853   12.3140 C   0  0  0  0  0  0  0  0  0  0  0  0
   43.0604   10.0953   10.0556 N   0  0  0  0  0  0  0  0  0  0  0  0
   47.5746   12.2938   12.6885 N   0  0  0  0  0  0  0  0  0  0  0  0
   47.7578    7.1121   13.5186 C   0  0  0  0  0  0  0  0  0  0  0  0
   49.9240   11.4439   11.1391 N   0  0  0  0  0  0  0  0  0  0  0  0
   39.7521   11.4609   11.3321 N   0  0  0  0  0  0  0  0  0  0  0  0
   47.4899    5.7559   13.4959 C   0  0  0  0  0  0  0  0  0  0  0  0
   41.7860   10.8148   10.0070 C   0  0  0  0  0  0  0  0  0  0  0  0
   48.3938   13.2693   11.9588 C   0  0  0  0  0  0  0  0  0  0  0  0
   41.0863   10.8566   11.3810 C   0  0  0  0  0  0  0  0  0  0  0  0
   49.1588   12.6400   10.7736 C   0  0  0  0  0  0  0  0  0  0  0  0
   47.1482   10.4505   12.1231 C   0  0  0  0  0  0  0  0  0  0  0  0
   44.9055    9.4150   11.8467 C   0  0  0  0  0  0  0  0  0  0  0  0
   46.2085    9.3274   12.1450 C   0  0  0  0  0  0  0  0  0  0  0  0
   47.9509   10.7054   13.0005 O   0  0  0  0  0  0  0  0  0  0  0  0
   47.1155   11.1069   10.9548 O   0  0  0  0  0  0  0  0  0  0  0  0
   44.2100   10.6741   11.5484 C   0  0  0  0  0  0  0  0  0  0  0  0
   44.5307   11.8025   11.8622 O   0  0  0  0  0  0  0  0  0  0  0  0
   43.0761   10.4127   10.8781 O   0  0  0  0  0  0  0  0  0  0  0  0
   44.4503   11.3226   10.0704 H   0  0  0  0  0  0  0  0  0  0  0  0
   46.7689   11.9343   10.4936 H   0  0  0  0  0  0  0  0  0  0  0  0
   47.6312    9.0694   12.9707 H   0  0  0  0  0  0  0  0  0  0  0  0
   42.6810    8.9662   11.7558 H   0  0  0  0  0  0  0  0  0  0  0  0
   45.7232   13.5964   11.2725 H   0  0  0  0  0  0  0  0  0  0  0  0
   43.8207   12.6651   10.1269 H   0  0  0  0  0  0  0  0  0  0  0  0
   44.6668    5.6193   11.8543 H   0  0  0  0  0  0  0  0  0  0  0  0
   42.9144    9.1044   10.3030 H   0  0  0  0  0  0  0  0  0  0  0  0
   48.1851   11.5414   13.0475 H   0  0  0  0  0  0  0  0  0  0  0  0
   48.6502    7.4884   14.0093 H   0  0  0  0  0  0  0  0  0  0  0  0
   50.5450   11.1866   10.3744 H   0  0  0  0  0  0  0  0  0  0  0  0
   50.5125   11.6378   11.9479 H   0  0  0  0  0  0  0  0  0  0  0  0
   39.8139   12.4041   10.9512 H   0  0  0  0  0  0  0  0  0  0  0  0
   39.1598   10.9315   10.6930 H   0  0  0  0  0  0  0  0  0  0  0  0
   48.1621    5.0418   13.9642 H   0  0  0  0  0  0  0  0  0  0  0  0
   41.9050   11.8234    9.5965 H   0  0  0  0  0  0  0  0  0  0  0  0
   41.1407   10.2793    9.2998 H   0  0  0  0  0  0  0  0  0  0  0  0
   49.1256   13.6712   12.6702 H   0  0  0  0  0  0  0  0  0  0  0  0
   47.8040   14.1272   11.6196 H   0  0  0  0  0  0  0  0  0  0  0  0
   41.6938   11.4206   12.0970 H   0  0  0  0  0  0  0  0  0  0  0  0
   40.9943    9.8401   11.7804 H   0  0  0  0  0  0  0  0  0  0  0  0
   48.4565   12.3686    9.9782 H   0  0  0  0  0  0  0  0  0  0  0  0
   49.8428   13.3898   10.3609 H   0  0  0  0  0  0  0  0  0  0  0  0
   44.2854    8.5261   11.8550 H   0  0  0  0  0  0  0  0  0  0  0  0
   46.6439    8.3823   12.4458 H   0  0  0  0  0  0  0  0  0  0  0  0
   47.7507   11.8420   11.0766 H   0  0  0  0  0  0  0  0  0  0  0  0
   42.6872   11.2997   10.7265 H   0  0  0  0  0  0  0  0  0  0  0  0
  1  3  1  0
  3  2  2  0
  4  1  2  0
  5  1  1  0
  2  6  1  0
  6  7  2  0
  6  8  1  0
 24 16  1  0
 25 14  1  0
 26 32  1  0
 27 31  1  0
 28 25  2  0
 29 23  1  0
 30 24  1  0
 31 29  1  0
 32 30  1  0
 16 20  2  0
 14 13  2  0
 19 28  1  0
 10  9  2  0
 11  9  1  0
 12 10  1  0
 13 11  1  0
 14 12  1  0
 15  9  1  0
 16 10  1  0
 17 11  2  0
 18 12  2  0
 19 22  2  0
 20 21  1  0
 21 15  2  0
 22 13  1  0
 23 15  1  0
 33 35  1  0
 35 34  2  0
 36 33  2  0
 37 33  1  0
 34 38  1  0
 38 39  2  0
 38 40  1  0
  2 41  1  0
  3 42  1  0
  5 43  1  0
  8 44  1  0
 20 45  1  0
 21 46  1  0
 22 47  1  0
 23 48  1  0
 24 49  1  0
 25 50  1  0
 26 51  1  0
 26 52  1  0
 27 53  1  0
 27 54  1  0
 28 55  1  0
 29 56  1  0
 29 57  1  0
 30 58  1  0
 30 59  1  0
 31 60  1  0
 31 61  1  0
 32 62  1  0
 32 63  1  0
 34 64  1  0
 35 65  1  0
 37 66  1  0
 40 67  1  0
M  END
> <Uni-Dock RESULT> 
ENERGY=   -5.710  LOWER_BOUND=    3.427  UPPER_BOUND=    6.361
INTER + INTRA:          -5.710
INTER:                  -5.710
INTRA:                   0.000
UNBOUND:                 0.000

$$$$

     RDKit          3D

 67 67  0  0  0  0  0  0  0  0999 V2000
   44.5578    8.9546   11.5589 C   0  0  0  0  0  0  0  0  0  0  0  0
   46.5819    9.1714   12.9867 C   0  0  0  0  0  0  0  0  0  0  0  0
   45.4369    9.6612   12.4931 C   0  0  0  0  0  0  0  0  0  0  0  0
   44.0668    9.4426   10.5587 O   0  0  0  0  0  0  0  0  0  0  0  0
   44.2430    7.7277   11.9978 O   0  0  0  0  0  0  0  0  0  0  0  0
   47.1727    7.8884   12.5835 C   0  0  0  0  0  0  0  0  0  0  0  0
   46.9936    7.2686   11.5546 O   0  0  0  0  0  0  0  0  0  0  0  0
   48.0273    7.4699   13.5311 O   0  0  0  0  0  0  0  0  0  0  0  0
   46.2886    7.9725   12.7900 C   0  0  0  0  0  0  0  0  0  0  0  0
   45.3662    8.4797   11.8507 C   0  0  0  0  0  0  0  0  0  0  0  0
   46.2010    6.5416   13.1967 C   0  0  0  0  0  0  0  0  0  0  0  0
   44.3035    7.5806   11.3095 C   0  0  0  0  0  0  0  0  0  0  0  0
   45.0784    5.7232   12.7398 C   0  0  0  0  0  0  0  0  0  0  0  0
   44.1605    6.2143   11.8323 C   0  0  0  0  0  0  0  0  0  0  0  0
   47.3145    8.7957   13.3227 C   0  0  0  0  0  0  0  0  0  0  0  0
   45.4286    9.8364   11.4446 C   0  0  0  0  0  0  0  0  0  0  0  0
   47.0584    6.0169   13.9022 O   0  0  0  0  0  0  0  0  0  0  0  0
   43.5269    7.9434   10.4306 O   0  0  0  0  0  0  0  0  0  0  0  0
   43.8966    3.6171   12.8039 N   0  0  0  0  0  0  0  0  0  0  0  0
   46.4601   10.6276   11.9609 C   0  0  0  0  0  0  0  0  0  0  0  0
   47.3674   10.1257   12.8956 C   0  0  0  0  0  0  0  0  0  0  0  0
   44.9124    4.4245   13.1958 C   0  0  0  0  0  0  0  0  0  0  0  0
   48.1836    8.3386   14.3293 N   0  0  0  0  0  0  0  0  0  0  0  0
   44.5506   10.3686   10.4790 N   0  0  0  0  0  0  0  0  0  0  0  0
   43.1039    5.4063   11.4042 C   0  0  0  0  0  0  0  0  0  0  0  0
   41.9711   10.6627   11.8584 N   0  0  0  0  0  0  0  0  0  0  0  0
   51.8030    8.4027   13.1740 N   0  0  0  0  0  0  0  0  0  0  0  0
   43.0153    4.1252   11.9163 C   0  0  0  0  0  0  0  0  0  0  0  0
   49.5938    8.7328   14.3230 C   0  0  0  0  0  0  0  0  0  0  0  0
   43.9637   11.6937   10.7130 C   0  0  0  0  0  0  0  0  0  0  0  0
   50.3645    8.1259   13.1328 C   0  0  0  0  0  0  0  0  0  0  0  0
   42.9918   11.7137   11.9135 C   0  0  0  0  0  0  0  0  0  0  0  0
   44.4571    8.8056   11.6823 C   0  0  0  0  0  0  0  0  0  0  0  0
   46.3403    7.4784   12.6154 C   0  0  0  0  0  0  0  0  0  0  0  0
   45.0790    7.5744   12.1745 C   0  0  0  0  0  0  0  0  0  0  0  0
   43.8018    8.8963   10.6619 O   0  0  0  0  0  0  0  0  0  0  0  0
   44.5839    9.8137   12.5567 O   0  0  0  0  0  0  0  0  0  0  0  0
   47.3140    8.5776   12.5767 C   0  0  0  0  0  0  0  0  0  0  0  0
   47.3116    9.5590   11.8614 O   0  0  0  0  0  0  0  0  0  0  0  0
   48.3001    8.3350   13.4553 O   0  0  0  0  0  0  0  0  0  0  0  0
   47.1562    9.7489   13.7018 H   0  0  0  0  0  0  0  0  0  0  0  0
   45.1009   10.6553   12.7619 H   0  0  0  0  0  0  0  0  0  0  0  0
   43.6913    7.3524   11.2814 H   0  0  0  0  0  0  0  0  0  0  0  0
   48.3668    6.6211   13.1778 H   0  0  0  0  0  0  0  0  0  0  0  0
   46.5818   11.6578   11.6374 H   0  0  0  0  0  0  0  0  0  0  0  0
   48.1095   10.8109   13.2951 H   0  0  0  0  0  0  0  0  0  0  0  0
   45.6033    3.9780   13.9074 H   0  0  0  0  0  0  0  0  0  0  0  0
   48.0871    7.3186   14.4503 H   0  0  0  0  0  0  0  0  0  0  0  0
   43.7918    9.6891   10.3051 H   0  0  0  0  0  0  0  0  0  0  0  0
   42.3691    5.7654   10.6901 H   0  0  0  0  0  0  0  0  0  0  0  0
   41.2590   10.8382   12.5646 H   0  0  0  0  0  0  0  0  0  0  0  0
   41.5025   10.6761   10.9537 H   0  0  0  0  0  0  0  0  0  0  0  0
   51.9603    9.4090   13.2056 H   0  0  0  0  0  0  0  0  0  0  0  0
   52.2001    8.0229   14.0330 H   0  0  0  0  0  0  0  0  0  0  0  0
   42.2135    3.4546   11.6188 H   0  0  0  0  0  0  0  0  0  0  0  0
   49.7107    9.8215   14.3520 H   0  0  0  0  0  0  0  0  0  0  0  0
   50.0363    8.3605   15.2552 H   0  0  0  0  0  0  0  0  0  0  0  0
   43.4039   11.9620    9.8086 H   0  0  0  0  0  0  0  0  0  0  0  0
   44.7307   12.4664   10.8303 H   0  0  0  0  0  0  0  0  0  0  0  0
   49.9663    8.5127   12.1886 H   0  0  0  0  0  0  0  0  0  0  0  0
   50.2188    7.0398   13.1129 H   0  0  0  0  0  0  0  0  0  0  0  0
   43.5512   11.6005   12.8483 H   0  0  0  0  0  0  0  0  0  0  0  0
   42.4975   12.6909   11.9473 H   0  0  0  0  0  0  0  0  0  0  0  0
   46.7125    6.5339   12.9951 H   0  0  0  0  0  0  0  0  0  0  0  0
   44.4365    6.7029   12.1447 H   0  0  0  0  0  0  0  0  0  0  0  0
   44.1659   10.5752   12.1048 H   0  0  0  0  0  0  0  0  0  0  0  0
   48.8922    9.1103   13.3586 H   0  0  0  0  0  0  0  0  0  0  0  0
  1  3  1  0
  3  2  2  0
  4  1  2  0
  5  1  1  0
  2  6  1  0
  6  7  2  0
  6  8  1  0
 24 16  1  0
 25 14  1  0
 26 32  1  0
 27 31  1  0
 28 25  2  0
 29 23  1  0
 30 24  1  0
 31 29  1  0
 32 30  1  0
 16 20  2  0
 14 13  2  0
 19 28  1  0
 10  9  2  0
 11  9  1  0
 12 10  1  0
 13 11  1  0
 14 12  1  0
 15  9  1  0
 16 10  1  0
 17 11  2  0
 18 12  2  0
 19 22  2  0
 20 21  1  0
 21 15  2  0
 22 13  1  0
 23 15  1  0
 33 35  1  0
 35 34  2  0
 36 33  2  0
 37 33  1  0
 34 38  1  0
 38 39  2  0
 38 40  1  0
  2 41  1  0
  3 42  1  0
  5 43  1  0
  8 44  1  0
 20 45  1  0
 21 46  1  0
 22 47  1  0
 23 48  1  0
 24 49  1  0
 25 50  1  0
 26 51  1  0
 26 52  1  0
 27 53  1  0
 27 54  1  0
 28 55  1  0
 29 56  1  0
 29 57  1  0
 30 58  1  0
 30 59  1  0
 31 60  1  0
 31 61  1  0
 32 62  1  0
 32 63  1  0
 34 64  1  0
 35 65  1  0
 37 66  1  0
 40 67  1  0
M  END
> <Uni-Dock RESULT> 
ENERGY=   -5.429  LOWER_BOUND=    2.493  UPPER_BOUND=    4.462
INTER + INTRA:          -5.429
INTER:                  -5.429
INTRA:                   0.000
UNBOUND:                 0.000

$$$$

     RDKit          3D

 67 67  0  0  0  0  0  0  0  0999 V2000
   43.3691   10.3612   10.9682 C   0  0  0  0  0  0  0  0  0  0  0  0
   44.7981   12.2950   11.6018 C   0  0  0  0  0  0  0  0  0  0  0  0
   43.5944   11.7402   11.4072 C   0  0  0  0  0  0  0  0  0  0  0  0
   42.5890   10.0253   10.0976 O   0  0  0  0  0  0  0  0  0  0  0  0
   44.0327    9.4789   11.7286 O   0  0  0  0  0  0  0  0  0  0  0  0
   46.0725   11.6268   11.3069 C   0  0  0  0  0  0  0  0  0  0  0  0
   46.2798   10.7081   10.5402 O   0  0  0  0  0  0  0  0  0  0  0  0
   47.0601   12.2175   11.9991 O   0  0  0  0  0  0  0  0  0  0  0  0
   45.3999   11.2113   11.7613 C   0  0  0  0  0  0  0  0  0  0  0  0
   44.3031   10.6429   11.0799 C   0  0  0  0  0  0  0  0  0  0  0  0
   46.3645   10.3172   12.4619 C   0  0  0  0  0  0  0  0  0  0  0  0
   44.1154    9.1614   11.1029 C   0  0  0  0  0  0  0  0  0  0  0  0
   46.0855    8.8853   12.5652 C   0  0  0  0  0  0  0  0  0  0  0  0
   45.0060    8.3202   11.9151 C   0  0  0  0  0  0  0  0  0  0  0  0
   45.6132   12.6144   11.7579 C   0  0  0  0  0  0  0  0  0  0  0  0
   43.3720   11.4702   10.4033 C   0  0  0  0  0  0  0  0  0  0  0  0
   47.4056   10.7471   12.9512 O   0  0  0  0  0  0  0  0  0  0  0  0
   43.2283    8.6059   10.4611 O   0  0  0  0  0  0  0  0  0  0  0  0
   46.7028    6.7181   13.4361 N   0  0  0  0  0  0  0  0  0  0  0  0
   43.6099   12.8486   10.3895 C   0  0  0  0  0  0  0  0  0  0  0  0
   44.6918   13.4096   11.0704 C   0  0  0  0  0  0  0  0  0  0  0  0
   46.9069    8.0520   13.3089 C   0  0  0  0  0  0  0  0  0  0  0  0
   46.6432   13.2091   12.5082 N   0  0  0  0  0  0  0  0  0  0  0  0
   42.2873   10.9370    9.6784 N   0  0  0  0  0  0  0  0  0  0  0  0
   44.7697    6.9472   12.0219 C   0  0  0  0  0  0  0  0  0  0  0  0
   40.3618   10.0446   11.7129 N   0  0  0  0  0  0  0  0  0  0  0  0
   49.0858   15.0780   10.2766 N   0  0  0  0  0  0  0  0  0  0  0  0
   45.6394    6.1948   12.7894 C   0  0  0  0  0  0  0  0  0  0  0  0
   47.3796   14.3560   11.9729 C   0  0  0  0  0  0  0  0  0  0  0  0
   40.9712   11.5745    9.8067 C   0  0  0  0  0  0  0  0  0  0  0  0
   48.2435   13.9772   10.7525 C   0  0  0  0  0  0  0  0  0  0  0  0
   40.3703   11.4261   11.2220 C   0  0  0  0  0  0  0  0  0  0  0  0
   43.4113   10.2411   11.1453 C   0  0  0  0  0  0  0  0  0  0  0  0
   45.7631   10.8375   11.6857 C   0  0  0  0  0  0  0  0  0  0  0  0
   44.7534    9.9576   11.6584 C   0  0  0  0  0  0  0  0  0  0  0  0
   42.7867    9.5208   10.3903 O   0  0  0  0  0  0  0  0  0  0  0  0
   42.8838   11.3389   11.7052 O   0  0  0  0  0  0  0  0  0  0  0  0
   45.6961   12.1886   11.1130 C   0  0  0  0  0  0  0  0  0  0  0  0
   44.9502   12.6024   10.2486 O   0  0  0  0  0  0  0  0  0  0  0  0
   46.6498   12.9573   11.6631 O   0  0  0  0  0  0  0  0  0  0  0  0
   44.8745   13.3146   11.9615 H   0  0  0  0  0  0  0  0  0  0  0  0
   42.6901   12.3176   11.5566 H   0  0  0  0  0  0  0  0  0  0  0  0
   43.8323    8.6127   11.3186 H   0  0  0  0  0  0  0  0  0  0  0  0
   47.8585   11.7115   11.7402 H   0  0  0  0  0  0  0  0  0  0  0  0
   42.9547   13.5174    9.8381 H   0  0  0  0  0  0  0  0  0  0  0  0
   44.7853   14.4917   11.0625 H   0  0  0  0  0  0  0  0  0  0  0  0
   47.7752    8.4348   13.8405 H   0  0  0  0  0  0  0  0  0  0  0  0
   47.2911   12.4884   12.8621 H   0  0  0  0  0  0  0  0  0  0  0  0
   42.1985    9.9314    9.8992 H   0  0  0  0  0  0  0  0  0  0  0  0
   43.9302    6.4758   11.5201 H   0  0  0  0  0  0  0  0  0  0  0  0
   39.7945    9.9833   12.5561 H   0  0  0  0  0  0  0  0  0  0  0  0
   39.9350    9.4296   11.0217 H   0  0  0  0  0  0  0  0  0  0  0  0
   48.5048   15.8832   10.0474 H   0  0  0  0  0  0  0  0  0  0  0  0
   49.7109   15.3785   11.0239 H   0  0  0  0  0  0  0  0  0  0  0  0
   45.5024    5.1232   12.9076 H   0  0  0  0  0  0  0  0  0  0  0  0
   46.7125   15.1921   11.7370 H   0  0  0  0  0  0  0  0  0  0  0  0
   48.0388   14.7167   12.7721 H   0  0  0  0  0  0  0  0  0  0  0  0
   40.3026   11.0791    9.0920 H   0  0  0  0  0  0  0  0  0  0  0  0
   40.9963   12.6287    9.5116 H   0  0  0  0  0  0  0  0  0  0  0  0
   47.6050   13.6496    9.9251 H   0  0  0  0  0  0  0  0  0  0  0  0
   48.8891   13.1283   11.0054 H   0  0  0  0  0  0  0  0  0  0  0  0
   40.9341   12.0397   11.9328 H   0  0  0  0  0  0  0  0  0  0  0  0
   39.3431   11.8069   11.2077 H   0  0  0  0  0  0  0  0  0  0  0  0
   46.7177   10.5557   12.1146 H   0  0  0  0  0  0  0  0  0  0  0  0
   44.8938    8.9446   12.0154 H   0  0  0  0  0  0  0  0  0  0  0  0
   42.0164   11.4391   11.2621 H   0  0  0  0  0  0  0  0  0  0  0  0
   46.5285   13.8258   11.2250 H   0  0  0  0  0  0  0  0  0  0  0  0
  1  3  1  0
  3  2  2  0
  4  1  2  0
  5  1  1  0
  2  6  1  0
  6  7  2  0
  6  8  1  0
 24 16  1  0
 25 14  1  0
 26 32  1  0
 27 31  1  0
 28 25  2  0
 29 23  1  0
 30 24  1  0
 31 29  1  0
 32 30  1  0
 16 20  2  0
 14 13  2  0
 19 28  1  0
 10  9  2  0
 11  9  1  0
 12 10  1  0
 13 11  1  0
 14 12  1  0
 15  9  1  0
 16 10  1  0
 17 11  2  0
 18 12  2  0
 19 22  2  0
 20 21  1  0
 21 15  2  0
 22 13  1  0
 23 15  1  0
 33 35  1  0
 35 34  2  0
 36 33  2  0
 37 33  1  0
 34 38  1  0
 38 39  2  0
 38 40  1  0
  2 41  1  0
  3 42  1  0
  5 43  1  0
  8 44  1  0
 20 45  1  0
 21 46  1  0
 22 47  1  0
 23 48  1  0
 24 49  1  0
 25 50  1  0
 26 51  1  0
 26 52  1  0
 27 53  1  0
 27 54  1  0
 28 55  1  0
 29 56  1  0
 29 57  1  0
 30 58  1  0
 30 59  1  0
 31 60  1  0
 31 61  1  0
 32 62  1  0
 32 63  1  0
 34 64  1  0
 35 65  1  0
 37 66  1  0
 40 67  1  0
M  END
> <Uni-Dock RESULT> 
ENERGY=   -5.336  LOWER_BOUND=    4.332  UPPER_BOUND=    5.898
INTER + INTRA:          -5.336
INTER:                  -5.336
INTRA:                   0.000
UNBOUND:                 0.000

$$$$

     RDKit          3D

 67 67  0  0  0  0  0  0  0  0999 V2000
   46.5475    9.3756   12.5373 C   0  0  0  0  0  0  0  0  0  0  0  0
   48.2869   10.9584   11.7299 C   0  0  0  0  0  0  0  0  0  0  0  0
   47.9069    9.7378   12.1301 C   0  0  0  0  0  0  0  0  0  0  0  0
   46.2655    8.7270   13.5269 O   0  0  0  0  0  0  0  0  0  0  0  0
   45.6379    9.7323   11.6194 O   0  0  0  0  0  0  0  0  0  0  0  0
   47.4124   12.1386   11.7358 C   0  0  0  0  0  0  0  0  0  0  0  0
   46.4151   12.3319   12.4014 O   0  0  0  0  0  0  0  0  0  0  0  0
   47.8999   13.0631   10.8925 O   0  0  0  0  0  0  0  0  0  0  0  0
   47.1407   11.3344   11.4028 C   0  0  0  0  0  0  0  0  0  0  0  0
   46.6926   10.3057   12.2580 C   0  0  0  0  0  0  0  0  0  0  0  0
   46.1694   11.9920   10.4837 C   0  0  0  0  0  0  0  0  0  0  0  0
   45.2630    9.8771   12.2005 C   0  0  0  0  0  0  0  0  0  0  0  0
   44.8089   11.4681   10.3679 C   0  0  0  0  0  0  0  0  0  0  0  0
   44.3638   10.4509   11.1892 C   0  0  0  0  0  0  0  0  0  0  0  0
   48.4907   11.7713   11.4323 C   0  0  0  0  0  0  0  0  0  0  0  0
   47.5950    9.6651   13.1438 C   0  0  0  0  0  0  0  0  0  0  0  0
   46.4742   12.9797    9.8209 O   0  0  0  0  0  0  0  0  0  0  0  0
   44.7991    9.0464   12.9764 O   0  0  0  0  0  0  0  0  0  0  0  0
   42.6490   11.5491    9.2886 N   0  0  0  0  0  0  0  0  0  0  0  0
   48.9161   10.1238   13.1774 C   0  0  0  0  0  0  0  0  0  0  0  0
   49.3592   11.1369   12.3253 C   0  0  0  0  0  0  0  0  0  0  0  0
   43.9225   11.9888    9.4377 C   0  0  0  0  0  0  0  0  0  0  0  0
   48.9802   12.7267   10.5241 N   0  0  0  0  0  0  0  0  0  0  0  0
   47.1762    8.6621   14.0410 N   0  0  0  0  0  0  0  0  0  0  0  0
   43.0552    9.9773   11.0644 C   0  0  0  0  0  0  0  0  0  0  0  0
   46.7493    6.2717   12.3836 N   0  0  0  0  0  0  0  0  0  0  0  0
   50.2756   15.8146   12.3202 N   0  0  0  0  0  0  0  0  0  0  0  0
   42.2431   10.5537   10.1054 C   0  0  0  0  0  0  0  0  0  0  0  0
   49.9565   13.7275   10.9592 C   0  0  0  0  0  0  0  0  0  0  0  0
   48.0137    7.4675   14.2049 C   0  0  0  0  0  0  0  0  0  0  0  0
   49.3561   14.7298   11.9662 C   0  0  0  0  0  0  0  0  0  0  0  0
   48.0704    6.5975   12.9298 C   0  0  0  0  0  0  0  0  0  0  0  0
   46.4368    9.3638   12.3498 C   0  0  0  0  0  0  0  0  0  0  0  0
   46.7115   11.6391   11.3873 C   0  0  0  0  0  0  0  0  0  0  0  0
   45.9950   10.5220   11.5698 C   0  0  0  0  0  0  0  0  0  0  0  0
   45.7617    8.7814   13.1769 O   0  0  0  0  0  0  0  0  0  0  0  0
   47.6425    8.9281   11.9584 O   0  0  0  0  0  0  0  0  0  0  0  0
   48.0075   11.9020   12.0269 C   0  0  0  0  0  0  0  0  0  0  0  0
   48.4596   11.4082   13.0401 O   0  0  0  0  0  0  0  0  0  0  0  0
   48.6642   12.8493   11.3381 O   0  0  0  0  0  0  0  0  0  0  0  0
   49.3084   11.1323   11.4121 H   0  0  0  0  0  0  0  0  0  0  0  0
   48.6244    8.9284   12.1894 H   0  0  0  0  0  0  0  0  0  0  0  0
   44.7823    9.4729   12.0183 H   0  0  0  0  0  0  0  0  0  0  0  0
   47.2601   13.8020   10.9646 H   0  0  0  0  0  0  0  0  0  0  0  0
   49.6305    9.7012   13.8786 H   0  0  0  0  0  0  0  0  0  0  0  0
   50.4106   11.4060   12.3672 H   0  0  0  0  0  0  0  0  0  0  0  0
   44.2103   12.7937    8.7651 H   0  0  0  0  0  0  0  0  0  0  0  0
   48.2002   13.1704   10.0152 H   0  0  0  0  0  0  0  0  0  0  0  0
   46.2164    8.3703   13.7934 H   0  0  0  0  0  0  0  0  0  0  0  0
   42.6779    9.1804   11.6980 H   0  0  0  0  0  0  0  0  0  0  0  0
   46.8415    5.5550   11.6664 H   0  0  0  0  0  0  0  0  0  0  0  0
   46.1531    5.8862   13.1145 H   0  0  0  0  0  0  0  0  0  0  0  0
   51.1387   15.4263   12.6979 H   0  0  0  0  0  0  0  0  0  0  0  0
   50.5363   16.3302   11.4801 H   0  0  0  0  0  0  0  0  0  0  0  0
   41.2173   10.2236    9.9646 H   0  0  0  0  0  0  0  0  0  0  0  0
   50.8626   13.2621   11.3619 H   0  0  0  0  0  0  0  0  0  0  0  0
   50.2756   14.2763   10.0646 H   0  0  0  0  0  0  0  0  0  0  0  0
   47.5701    6.8719   15.0121 H   0  0  0  0  0  0  0  0  0  0  0  0
   49.0252    7.7193   14.5401 H   0  0  0  0  0  0  0  0  0  0  0  0
   49.0643   14.2117   12.8861 H   0  0  0  0  0  0  0  0  0  0  0  0
   48.4420   15.1691   11.5505 H   0  0  0  0  0  0  0  0  0  0  0  0
   48.6460    7.1117   12.1527 H   0  0  0  0  0  0  0  0  0  0  0  0
   48.5999    5.6673   13.1641 H   0  0  0  0  0  0  0  0  0  0  0  0
   46.3234   12.4379   10.7661 H   0  0  0  0  0  0  0  0  0  0  0  0
   45.0040   10.4257   11.1434 H   0  0  0  0  0  0  0  0  0  0  0  0
   47.8374    8.1868   12.5677 H   0  0  0  0  0  0  0  0  0  0  0  0
   49.5036   12.9555   11.8332 H   0  0  0  0  0  0  0  0  0  0  0  0
  1  3  1  0
  3  2  2  0
  4  1  2  0
  5  1  1  0
  2  6  1  0
  6  7  2  0
  6  8  1  0
 24 16  1  0
 25 14  1  0
 26 32  1  0
 27 31  1  0
 28 25  2  0
 29 23  1  0
 30 24  1  0
 31 29  1  0
 32 30  1  0
 16 20  2  0
 14 13  2  0
 19 28  1  0
 10  9  2  0
 11  9  1  0
 12 10  1  0
 13 11  1  0
 14 12  1  0
 15  9  1  0
 16 10  1  0
 17 11  2  0
 18 12  2  0
 19 22  2  0
 20 21  1  0
 21 15  2  0
 22 13  1  0
 23 15  1  0
 33 35  1  0
 35 34  2  0
 36 33  2  0
 37 33  1  0
 34 38  1  0
 38 39  2  0
 38 40  1  0
  2 41  1  0
  3 42  1  0
  5 43  1  0
  8 44  1  0
 20 45  1  0
 21 46  1  0
 22 47  1  0
 23 48  1  0
 24 49  1  0
 25 50  1  0
 26 51  1  0
 26 52  1  0
 27 53  1  0
 27 54  1  0
 28 55  1  0
 29 56  1  0
 29 57  1  0
 30 58  1  0
 30 59  1  0
 31 60  1  0
 31 61  1  0
 32 62  1  0
 32 63  1  0
 34 64  1  0
 35 65  1  0
 37 66  1  0
 40 67  1  0
M  END
> <Uni-Dock RESULT> 
ENERGY=   -4.847  LOWER_BOUND=    3.277  UPPER_BOUND=    6.345
INTER + INTRA:          -4.847
INTER:                  -4.847
INTRA:                   0.000
UNBOUND:                 0.000

$$$$

     RDKit          3D

 67 67  0  0  0  0  0  0  0  0999 V2000
   49.7520    8.4524   12.2793 C   0  0  0  0  0  0  0  0  0  0  0  0
   48.6080   10.5160   11.4944 C   0  0  0  0  0  0  0  0  0  0  0  0
   49.6125    9.6325   11.4231 C   0  0  0  0  0  0  0  0  0  0  0  0
   50.7795    8.1103   12.8330 O   0  0  0  0  0  0  0  0  0  0  0  0
   48.6395    7.7046   12.2866 O   0  0  0  0  0  0  0  0  0  0  0  0
   47.5492   10.4817   12.5119 C   0  0  0  0  0  0  0  0  0  0  0  0
   47.5775    9.9620   13.6091 O   0  0  0  0  0  0  0  0  0  0  0  0
   46.4855   11.1767   12.0768 O   0  0  0  0  0  0  0  0  0  0  0  0
   47.8084    9.7363   12.0553 C   0  0  0  0  0  0  0  0  0  0  0  0
   48.9631    9.0174   12.4299 C   0  0  0  0  0  0  0  0  0  0  0  0
   46.4694    9.1068   12.2329 C   0  0  0  0  0  0  0  0  0  0  0  0
   48.8201    7.6306   12.9656 C   0  0  0  0  0  0  0  0  0  0  0  0
   46.3730    7.7073   12.6465 C   0  0  0  0  0  0  0  0  0  0  0  0
   47.4982    6.9890   13.0007 C   0  0  0  0  0  0  0  0  0  0  0  0
   47.9047   11.0576   11.5467 C   0  0  0  0  0  0  0  0  0  0  0  0
   50.2488    9.5935   12.2738 C   0  0  0  0  0  0  0  0  0  0  0  0
   45.4306    9.7364   12.0529 O   0  0  0  0  0  0  0  0  0  0  0  0
   49.7806    6.9902   13.3833 O   0  0  0  0  0  0  0  0  0  0  0  0
   44.9929    5.7745   13.0893 N   0  0  0  0  0  0  0  0  0  0  0  0
   50.3247   10.9052   11.7936 C   0  0  0  0  0  0  0  0  0  0  0  0
   49.1814   11.6121   11.4169 C   0  0  0  0  0  0  0  0  0  0  0  0
   45.1453    7.0662   12.7077 C   0  0  0  0  0  0  0  0  0  0  0  0
   46.7771   11.7555   11.0788 N   0  0  0  0  0  0  0  0  0  0  0  0
   51.4220    8.9226   12.6738 N   0  0  0  0  0  0  0  0  0  0  0  0
   47.3755    5.6565   13.4031 C   0  0  0  0  0  0  0  0  0  0  0  0
   51.8557    6.8446   10.6399 N   0  0  0  0  0  0  0  0  0  0  0  0
   46.1965   14.9451   13.0608 N   0  0  0  0  0  0  0  0  0  0  0  0
   46.1109    5.0983   13.4292 C   0  0  0  0  0  0  0  0  0  0  0  0
   46.6476   13.1945   11.3167 C   0  0  0  0  0  0  0  0  0  0  0  0
   52.5933    8.9611   11.7897 C   0  0  0  0  0  0  0  0  0  0  0  0
   46.4541   13.5242   12.8110 C   0  0  0  0  0  0  0  0  0  0  0  0
   52.3642    8.2081   10.4606 C   0  0  0  0  0  0  0  0  0  0  0  0
   49.6044    8.3121   12.2014 C   0  0  0  0  0  0  0  0  0  0  0  0
   47.4666    9.5619   12.4160 C   0  0  0  0  0  0  0  0  0  0  0  0
   48.1600    8.4158   12.4203 C   0  0  0  0  0  0  0  0  0  0  0  0
   50.3677    7.6551   12.8832 O   0  0  0  0  0  0  0  0  0  0  0  0
   49.9847    8.9293   11.0739 O   0  0  0  0  0  0  0  0  0  0  0  0
   48.0737   10.8934   12.2873 C   0  0  0  0  0  0  0  0  0  0  0  0
   49.2159   11.2254   12.5319 O   0  0  0  0  0  0  0  0  0  0  0  0
   47.1444   11.7731   11.8802 O   0  0  0  0  0  0  0  0  0  0  0  0
   48.5634   11.3451   10.7977 H   0  0  0  0  0  0  0  0  0  0  0  0
   50.4138    9.7650   10.7064 H   0  0  0  0  0  0  0  0  0  0  0  0
   48.8438    6.9793   12.9116 H   0  0  0  0  0  0  0  0  0  0  0  0
   45.8421   11.0988   12.8120 H   0  0  0  0  0  0  0  0  0  0  0  0
   51.2840   11.4084   11.7088 H   0  0  0  0  0  0  0  0  0  0  0  0
   49.3182   12.6063   11.0015 H   0  0  0  0  0  0  0  0  0  0  0  0
   44.2219    7.5780   12.4462 H   0  0  0  0  0  0  0  0  0  0  0  0
   45.9125   11.2592   11.3445 H   0  0  0  0  0  0  0  0  0  0  0  0
   51.1898    7.9379   12.8842 H   0  0  0  0  0  0  0  0  0  0  0  0
   48.2424    5.0687   13.6890 H   0  0  0  0  0  0  0  0  0  0  0  0
   51.9012    6.3421    9.7556 H   0  0  0  0  0  0  0  0  0  0  0  0
   52.4409    6.3364   11.3014 H   0  0  0  0  0  0  0  0  0  0  0  0
   46.9589   15.5059   12.6830 H   0  0  0  0  0  0  0  0  0  0  0  0
   45.3544   15.2330   12.5632 H   0  0  0  0  0  0  0  0  0  0  0  0
   45.9578    4.0662   13.7330 H   0  0  0  0  0  0  0  0  0  0  0  0
   47.4920   13.7525   10.8979 H   0  0  0  0  0  0  0  0  0  0  0  0
   45.7626   13.5338   10.7642 H   0  0  0  0  0  0  0  0  0  0  0  0
   53.4176    8.4755   12.3263 H   0  0  0  0  0  0  0  0  0  0  0  0
   52.9258    9.9860   11.5949 H   0  0  0  0  0  0  0  0  0  0  0  0
   47.3422   13.2299   13.3806 H   0  0  0  0  0  0  0  0  0  0  0  0
   45.6169   12.9422   13.2129 H   0  0  0  0  0  0  0  0  0  0  0  0
   51.6534    8.7603    9.8366 H   0  0  0  0  0  0  0  0  0  0  0  0
   53.3127    8.1670    9.9137 H   0  0  0  0  0  0  0  0  0  0  0  0
   46.3916    9.5468   12.5533 H   0  0  0  0  0  0  0  0  0  0  0  0
   47.6650    7.4714   12.6109 H   0  0  0  0  0  0  0  0  0  0  0  0
   50.9576    8.8203   11.0590 H   0  0  0  0  0  0  0  0  0  0  0  0
   47.6357   12.6196   11.8246 H   0  0  0  0  0  0  0  0  0  0  0  0
  1  3  1  0
  3  2  2  0
  4  1  2  0
  5  1  1  0
  2  6  1  0
  6  7  2  0
  6  8  1  0
 24 16  1  0
 25 14  1  0
 26 32  1  0
 27 31  1  0
 28 25  2  0
 29 23  1  0
 30 24  1  0
 31 29  1  0
 32 30  1  0
 16 20  2  0
 14 13  2  0
 19 28  1  0
 10  9  2  0
 11  9  1  0
 12 10  1  0
 13 11  1  0
 14 12  1  0
 15  9  1  0
 16 10  1  0
 17 11  2  0
 18 12  2  0
 19 22  2  0
 20 21  1  0
 21 15  2  0
 22 13  1  0
 23 15  1  0
 33 35  1  0
 35 34  2  0
 36 33  2  0
 37 33  1  0
 34 38  1  0
 38 39  2  0
 38 40  1  0
  2 41  1  0
  3 42  1  0
  5 43  1  0
  8 44  1  0
 20 45  1  0
 21 46  1  0
 22 47  1  0
 23 48  1  0
 24 49  1  0
 25 50  1  0
 26 51  1  0
 26 52  1  0
 27 53  1  0
 27 54  1  0
 28 55  1  0
 29 56  1  0
 29 57  1  0
 30 58  1  0
 30 59  1  0
 31 60  1  0
 31 61  1  0
 32 62  1  0
 32 63  1  0
 34 64  1  0
 35 65  1  0
 37 66  1  0
 40 67  1  0
M  END
> <Uni-Dock RESULT> 
ENERGY=   -4.802  LOWER_BOUND=    2.696  UPPER_BOUND=    5.369
INTER + INTRA:          -4.802
INTER:                  -4.802
INTRA:                   0.000
UNBOUND:                 0.000

$$$$
