
     RDKit          3D

 42 44  0  0  0  0  0  0  0  0999 V2000
   -1.0219   -0.0864    0.6629 C   0  0  1  0  0  0  0  0  0  0  0  0
   -1.9051    1.1270    0.4767 C   0  0  0  0  0  0  0  0  0  0  0  0
   -2.1143   -0.0779   -0.3867 C   0  0  2  0  0  0  0  0  0  0  0  0
    0.4282   -0.0381    0.2418 C   0  0  0  0  0  0  0  0  0  0  0  0
   -3.3141   -0.8931   -0.2017 N   0  0  0  0  0  0  0  0  0  0  0  0
    1.3002    0.9455    0.7378 C   0  0  0  0  0  0  0  0  0  0  0  0
    0.9661   -0.9941   -0.6366 C   0  0  0  0  0  0  0  0  0  0  0  0
    2.3093   -0.9577   -1.0205 C   0  0  0  0  0  0  0  0  0  0  0  0
    2.6446    0.9869    0.3584 C   0  0  0  0  0  0  0  0  0  0  0  0
    3.1479    0.0363   -0.5244 C   0  0  0  0  0  0  0  0  0  0  0  0
   -1.0317   -0.0254   -0.6510 C   0  0  2  0  0  0  0  0  0  0  0  0
   -2.0046    1.0384   -0.1966 C   0  0  0  0  0  0  0  0  0  0  0  0
   -2.0905   -0.3374    0.3857 C   0  0  1  0  0  0  0  0  0  0  0  0
    0.4215    0.0536   -0.2459 C   0  0  0  0  0  0  0  0  0  0  0  0
   -3.2247   -1.1940    0.0396 N   0  0  0  0  0  0  0  0  0  0  0  0
    1.1941    1.1958   -0.5155 C   0  0  0  0  0  0  0  0  0  0  0  0
    1.0630   -1.0252    0.3851 C   0  0  0  0  0  0  0  0  0  0  0  0
    2.4114   -0.9620    0.7467 C   0  0  0  0  0  0  0  0  0  0  0  0
    2.5430    1.2654   -0.1570 C   0  0  0  0  0  0  0  0  0  0  0  0
    3.1510    0.1852    0.4763 C   0  0  0  0  0  0  0  0  0  0  0  0
   -1.2104   -0.6710    1.5605 H   0  0  0  0  0  0  0  0  0  0  0  0
   -1.4938    2.0109    0.0019 H   0  0  0  0  0  0  0  0  0  0  0  0
   -2.6330    1.3487    1.2481 H   0  0  0  0  0  0  0  0  0  0  0  0
   -1.8107    0.0277   -1.4271 H   0  0  0  0  0  0  0  0  0  0  0  0
   -3.1427   -1.8536   -0.4987 H   0  0  0  0  0  0  0  0  0  0  0  0
   -3.5866   -0.9465    0.7798 H   0  0  0  0  0  0  0  0  0  0  0  0
    0.9245    1.6931    1.4336 H   0  0  0  0  0  0  0  0  0  0  0  0
    0.3258   -1.7806   -1.0314 H   0  0  0  0  0  0  0  0  0  0  0  0
    2.6974   -1.7055   -1.7070 H   0  0  0  0  0  0  0  0  0  0  0  0
    3.2959    1.7612    0.7546 H   0  0  0  0  0  0  0  0  0  0  0  0
    4.1925    0.0672   -0.8220 H   0  0  0  0  0  0  0  0  0  0  0  0
   -1.1980   -0.4159   -1.6526 H   0  0  0  0  0  0  0  0  0  0  0  0
   -2.7702    1.3587   -0.8936 H   0  0  0  0  0  0  0  0  0  0  0  0
   -1.6521    1.8316    0.4536 H   0  0  0  0  0  0  0  0  0  0  0  0
   -1.7681   -0.4321    1.4210 H   0  0  0  0  0  0  0  0  0  0  0  0
   -3.5097   -1.0650   -0.9304 H   0  0  0  0  0  0  0  0  0  0  0  0
   -2.9689   -2.1777    0.1274 H   0  0  0  0  0  0  0  0  0  0  0  0
    0.7357    2.0479   -1.0125 H   0  0  0  0  0  0  0  0  0  0  0  0
    0.5014   -1.9316    0.5996 H   0  0  0  0  0  0  0  0  0  0  0  0
    2.8817   -1.8098    1.2376 H   0  0  0  0  0  0  0  0  0  0  0  0
    3.1160    2.1628   -0.3739 H   0  0  0  0  0  0  0  0  0  0  0  0
    4.1997    0.2368    0.7566 H   0  0  0  0  0  0  0  0  0  0  0  0
  2  1  1  0
  3  1  1  0
  1  4  1  0
  3  5  1  0
  6  4  2  0
  7  4  1  0
  8  7  2  0
  9  6  1  0
 10  9  2  0
  3  2  1  0
  8 10  1  0
 12 11  1  0
 13 11  1  0
 11 14  1  0
 13 15  1  0
 16 14  2  0
 17 14  1  0
 18 17  2  0
 19 16  1  0
 20 19  2  0
 13 12  1  0
 18 20  1  0
  1 21  1  1
  2 22  1  0
  2 23  1  0
  3 24  1  6
  5 25  1  0
  5 26  1  0
  6 27  1  0
  7 28  1  0
  8 29  1  0
  9 30  1  0
 10 31  1  0
 11 32  1  6
 12 33  1  0
 12 34  1  0
 13 35  1  1
 15 36  1  0
 15 37  1  0
 16 38  1  0
 17 39  1  0
 18 40  1  0
 19 41  1  0
 20 42  1  0
M  END
$$$$
