
     RDKit          3D

 42 44  0  0  0  0  0  0  0  0999 V2000
   -0.8075   -0.2913    0.8315 C   0  0  1  0  0  0  0  0  0  0  0  0
   -1.6890    0.9125    1.0766 C   0  0  0  0  0  0  0  0  0  0  0  0
   -2.1036   -0.1132    0.0682 C   0  0  2  0  0  0  0  0  0  0  0  0
    0.5145   -0.1309    0.1182 C   0  0  0  0  0  0  0  0  0  0  0  0
   -3.2413   -0.9881    0.3513 N   0  0  0  0  0  0  0  0  0  0  0  0
    1.4876    0.7751    0.5719 C   0  0  0  0  0  0  0  0  0  0  0  0
    0.8313   -0.9084   -1.0082 C   0  0  0  0  0  0  0  0  0  0  0  0
    2.0574   -0.7754   -1.6652 C   0  0  0  0  0  0  0  0  0  0  0  0
    2.7159    0.9129   -0.0803 C   0  0  0  0  0  0  0  0  0  0  0  0
    2.9994    0.1379   -1.2011 C   0  0  0  0  0  0  0  0  0  0  0  0
   -1.0450   -0.5737    0.2581 C   0  0  2  0  0  0  0  0  0  0  0  0
   -1.9738   -0.5981   -0.9345 C   0  0  0  0  0  0  0  0  0  0  0  0
   -2.0919    0.5047    0.0706 C   0  0  1  0  0  0  0  0  0  0  0  0
    0.4182   -0.2479    0.0703 C   0  0  0  0  0  0  0  0  0  0  0  0
   -3.2603    0.5525    0.9495 N   0  0  0  0  0  0  0  0  0  0  0  0
    1.2215   -0.9831   -0.8175 C   0  0  0  0  0  0  0  0  0  0  0  0
    1.0375    0.7799    0.8009 C   0  0  0  0  0  0  0  0  0  0  0  0
    2.3944    1.0735    0.6404 C   0  0  0  0  0  0  0  0  0  0  0  0
    2.5790   -0.6949   -0.9824 C   0  0  0  0  0  0  0  0  0  0  0  0
    3.1648    0.3358   -0.2535 C   0  0  0  0  0  0  0  0  0  0  0  0
   -0.8073   -1.0478    1.6136 H   0  0  0  0  0  0  0  0  0  0  0  0
   -1.3719    1.8790    0.7007 H   0  0  0  0  0  0  0  0  0  0  0  0
   -2.2133    0.9648    2.0231 H   0  0  0  0  0  0  0  0  0  0  0  0
   -2.0245    0.1801   -0.9773 H   0  0  0  0  0  0  0  0  0  0  0  0
   -4.1173   -0.5207    0.1192 H   0  0  0  0  0  0  0  0  0  0  0  0
   -3.3002   -1.2172    1.3425 H   0  0  0  0  0  0  0  0  0  0  0  0
    1.2850    1.3839    1.4505 H   0  0  0  0  0  0  0  0  0  0  0  0
    0.1070   -1.6317   -1.3790 H   0  0  0  0  0  0  0  0  0  0  0  0
    2.2743   -1.3879   -2.5362 H   0  0  0  0  0  0  0  0  0  0  0  0
    3.4496    1.6239    0.2898 H   0  0  0  0  0  0  0  0  0  0  0  0
    3.9539    0.2425   -1.7096 H   0  0  0  0  0  0  0  0  0  0  0  0
   -1.2443   -1.3200    1.0242 H   0  0  0  0  0  0  0  0  0  0  0  0
   -1.5835   -0.3374   -1.9121 H   0  0  0  0  0  0  0  0  0  0  0  0
   -2.7422   -1.3614   -0.9639 H   0  0  0  0  0  0  0  0  0  0  0  0
   -1.7514    1.4841   -0.2613 H   0  0  0  0  0  0  0  0  0  0  0  0
   -3.0348    1.0377    1.8174 H   0  0  0  0  0  0  0  0  0  0  0  0
   -3.5640   -0.3815    1.2211 H   0  0  0  0  0  0  0  0  0  0  0  0
    0.7810   -1.7957   -1.3914 H   0  0  0  0  0  0  0  0  0  0  0  0
    0.4517    1.3637    1.5078 H   0  0  0  0  0  0  0  0  0  0  0  0
    2.8471    1.8770    1.2153 H   0  0  0  0  0  0  0  0  0  0  0  0
    3.1762   -1.2772   -1.6790 H   0  0  0  0  0  0  0  0  0  0  0  0
    4.2201    0.5620   -0.3800 H   0  0  0  0  0  0  0  0  0  0  0  0
  2  1  1  0
  3  1  1  0
  1  4  1  0
  3  5  1  0
  6  4  2  0
  7  4  1  0
  8  7  2  0
  9  6  1  0
 10  9  2  0
  3  2  1  0
  8 10  1  0
 12 11  1  0
 13 11  1  0
 11 14  1  0
 13 15  1  0
 16 14  2  0
 17 14  1  0
 18 17  2  0
 19 16  1  0
 20 19  2  0
 13 12  1  0
 18 20  1  0
  1 21  1  1
  2 22  1  0
  2 23  1  0
  3 24  1  6
  5 25  1  0
  5 26  1  0
  6 27  1  0
  7 28  1  0
  8 29  1  0
  9 30  1  0
 10 31  1  0
 11 32  1  1
 12 33  1  0
 12 34  1  0
 13 35  1  6
 15 36  1  0
 15 37  1  0
 16 38  1  0
 17 39  1  0
 18 40  1  0
 19 41  1  0
 20 42  1  0
M  END
$$$$
