
     RDKit          3D

 42 44  0  0  0  0  0  0  0  0999 V2000
    0.9685    0.0013   -0.7754 C   0  0  1  0  0  0  0  0  0  0  0  0
    1.8535    1.1878   -0.4700 C   0  0  0  0  0  0  0  0  0  0  0  0
    2.1022   -0.1156    0.2210 C   0  0  2  0  0  0  0  0  0  0  0  0
   -0.4643   -0.0195   -0.2971 C   0  0  0  0  0  0  0  0  0  0  0  0
    3.2923   -0.8853   -0.1393 N   0  0  0  0  0  0  0  0  0  0  0  0
   -1.3576    1.0165   -0.6177 C   0  0  0  0  0  0  0  0  0  0  0  0
   -0.9648   -1.0913    0.4610 C   0  0  0  0  0  0  0  0  0  0  0  0
   -2.2929   -1.1201    0.8947 C   0  0  0  0  0  0  0  0  0  0  0  0
   -2.6868    0.9938   -0.1868 C   0  0  0  0  0  0  0  0  0  0  0  0
   -3.1536   -0.0752    0.5717 C   0  0  0  0  0  0  0  0  0  0  0  0
   -0.8863   -0.2554    0.7216 C   0  0  2  0  0  0  0  0  0  0  0  0
   -1.7419   -1.4067    0.2419 C   0  0  0  0  0  0  0  0  0  0  0  0
   -2.1538   -0.0009   -0.0676 C   0  0  1  0  0  0  0  0  0  0  0  0
    0.4624   -0.0036    0.0892 C   0  0  0  0  0  0  0  0  0  0  0  0
   -3.3271    0.5650    0.5972 N   0  0  0  0  0  0  0  0  0  0  0  0
    1.4509   -1.0020    0.0590 C   0  0  0  0  0  0  0  0  0  0  0  0
    0.7906    1.2461   -0.4623 C   0  0  0  0  0  0  0  0  0  0  0  0
    2.0437    1.4846   -1.0333 C   0  0  0  0  0  0  0  0  0  0  0  0
    2.7055   -0.7692   -0.5108 C   0  0  0  0  0  0  0  0  0  0  0  0
    3.0009    0.4755   -1.0583 C   0  0  0  0  0  0  0  0  0  0  0  0
    1.1299   -0.4689   -1.7442 H   0  0  0  0  0  0  0  0  0  0  0  0
    1.4556    2.0018    0.1250 H   0  0  0  0  0  0  0  0  0  0  0  0
    2.5464    1.5064   -1.2403 H   0  0  0  0  0  0  0  0  0  0  0  0
    1.8383   -0.1556    1.2766 H   0  0  0  0  0  0  0  0  0  0  0  0
    4.0924   -0.5912    0.4187 H   0  0  0  0  0  0  0  0  0  0  0  0
    3.1546   -1.8744    0.0623 H   0  0  0  0  0  0  0  0  0  0  0  0
   -1.0102    1.8563   -1.2154 H   0  0  0  0  0  0  0  0  0  0  0  0
   -0.3078   -1.9198    0.7151 H   0  0  0  0  0  0  0  0  0  0  0  0
   -2.6534   -1.9612    1.4814 H   0  0  0  0  0  0  0  0  0  0  0  0
   -3.3553    1.8102   -0.4474 H   0  0  0  0  0  0  0  0  0  0  0  0
   -4.1871   -0.0961    0.9062 H   0  0  0  0  0  0  0  0  0  0  0  0
   -0.9272   -0.0513    1.7902 H   0  0  0  0  0  0  0  0  0  0  0  0
   -2.3031   -1.9655    0.9821 H   0  0  0  0  0  0  0  0  0  0  0  0
   -1.3929   -2.0144   -0.5865 H   0  0  0  0  0  0  0  0  0  0  0  0
   -2.0455    0.3065   -1.1061 H   0  0  0  0  0  0  0  0  0  0  0  0
   -3.2240    1.5726    0.7054 H   0  0  0  0  0  0  0  0  0  0  0  0
   -3.4416    0.1919    1.5389 H   0  0  0  0  0  0  0  0  0  0  0  0
    1.2385   -1.9790    0.4868 H   0  0  0  0  0  0  0  0  0  0  0  0
    0.0562    2.0486   -0.4476 H   0  0  0  0  0  0  0  0  0  0  0  0
    2.2693    2.4592   -1.4577 H   0  0  0  0  0  0  0  0  0  0  0  0
    3.4498   -1.5609   -0.5244 H   0  0  0  0  0  0  0  0  0  0  0  0
    3.9756    0.6590   -1.5025 H   0  0  0  0  0  0  0  0  0  0  0  0
  2  1  1  0
  3  1  1  0
  1  4  1  0
  3  5  1  0
  6  4  2  0
  7  4  1  0
  8  7  2  0
  9  6  1  0
 10  9  2  0
  3  2  1  0
  8 10  1  0
 12 11  1  0
 13 11  1  0
 11 14  1  0
 13 15  1  0
 16 14  2  0
 17 14  1  0
 18 17  2  0
 19 16  1  0
 20 19  2  0
 13 12  1  0
 18 20  1  0
  1 21  1  6
  2 22  1  0
  2 23  1  0
  3 24  1  1
  5 25  1  0
  5 26  1  0
  6 27  1  0
  7 28  1  0
  8 29  1  0
  9 30  1  0
 10 31  1  0
 11 32  1  1
 12 33  1  0
 12 34  1  0
 13 35  1  6
 15 36  1  0
 15 37  1  0
 16 38  1  0
 17 39  1  0
 18 40  1  0
 19 41  1  0
 20 42  1  0
M  END
$$$$
