
     RDKit          3D

 42 44  0  0  0  0  0  0  0  0999 V2000
   -0.9277    0.2678    0.6373 C   0  0  1  0  0  0  0  0  0  0  0  0
   -2.0785    0.5543   -0.2987 C   0  0  0  0  0  0  0  0  0  0  0  0
   -1.9679   -0.7940    0.3456 C   0  0  2  0  0  0  0  0  0  0  0  0
    0.4751    0.1050    0.1007 C   0  0  0  0  0  0  0  0  0  0  0  0
   -2.9223   -1.1807    1.3877 N   0  0  0  0  0  0  0  0  0  0  0  0
    1.2733   -0.9869    0.4861 C   0  0  0  0  0  0  0  0  0  0  0  0
    1.0478    1.0501   -0.7670 C   0  0  0  0  0  0  0  0  0  0  0  0
    2.3523    0.9022   -1.2463 C   0  0  0  0  0  0  0  0  0  0  0  0
    2.5816   -1.1355    0.0180 C   0  0  0  0  0  0  0  0  0  0  0  0
    3.1196   -0.1906   -0.8521 C   0  0  0  0  0  0  0  0  0  0  0  0
    1.0450   -0.1358   -0.6149 C   0  0  2  0  0  0  0  0  0  0  0  0
    2.0720   -0.8929    0.1977 C   0  0  0  0  0  0  0  0  0  0  0  0
    2.0611    0.6028    0.2302 C   0  0  1  0  0  0  0  0  0  0  0  0
   -0.4087   -0.1694   -0.2054 C   0  0  0  0  0  0  0  0  0  0  0  0
    3.1533    1.3329   -0.4071 N   0  0  0  0  0  0  0  0  0  0  0  0
   -1.1242    1.0092    0.0684 C   0  0  0  0  0  0  0  0  0  0  0  0
   -1.1100   -1.3839   -0.1243 C   0  0  0  0  0  0  0  0  0  0  0  0
   -2.4621   -1.4237    0.2263 C   0  0  0  0  0  0  0  0  0  0  0  0
   -2.4759    0.9758    0.4227 C   0  0  0  0  0  0  0  0  0  0  0  0
   -3.1447   -0.2428    0.5011 C   0  0  0  0  0  0  0  0  0  0  0  0
   -0.9818    0.7392    1.6207 H   0  0  0  0  0  0  0  0  0  0  0  0
   -2.8448    1.2434    0.0433 H   0  0  0  0  0  0  0  0  0  0  0  0
   -1.8884    0.6113   -1.3677 H   0  0  0  0  0  0  0  0  0  0  0  0
   -1.6667   -1.6161   -0.3058 H   0  0  0  0  0  0  0  0  0  0  0  0
   -3.7677   -1.5720    0.9678 H   0  0  0  0  0  0  0  0  0  0  0  0
   -3.2279   -0.3706    1.9260 H   0  0  0  0  0  0  0  0  0  0  0  0
    0.8674   -1.7298    1.1703 H   0  0  0  0  0  0  0  0  0  0  0  0
    0.4696    1.9216   -1.0704 H   0  0  0  0  0  0  0  0  0  0  0  0
    2.7689    1.6422   -1.9207 H   0  0  0  0  0  0  0  0  0  0  0  0
    3.1810   -1.9851    0.3422 H   0  0  0  0  0  0  0  0  0  0  0  0
    4.1370   -0.3040   -1.2170 H   0  0  0  0  0  0  0  0  0  0  0  0
    1.2079   -0.1404   -1.6893 H   0  0  0  0  0  0  0  0  0  0  0  0
    1.7535   -1.4123    1.0944 H   0  0  0  0  0  0  0  0  0  0  0  0
    2.8705   -1.3960   -0.3338 H   0  0  0  0  0  0  0  0  0  0  0  0
    1.7173    1.0500    1.1612 H   0  0  0  0  0  0  0  0  0  0  0  0
    2.9150    2.3225   -0.4993 H   0  0  0  0  0  0  0  0  0  0  0  0
    3.3291    0.9939   -1.3518 H   0  0  0  0  0  0  0  0  0  0  0  0
   -0.6220    1.9713   -0.0025 H   0  0  0  0  0  0  0  0  0  0  0  0
   -0.5932   -2.3159   -0.3439 H   0  0  0  0  0  0  0  0  0  0  0  0
   -2.9801   -2.3762    0.2749 H   0  0  0  0  0  0  0  0  0  0  0  0
   -3.0066    1.9016    0.6252 H   0  0  0  0  0  0  0  0  0  0  0  0
   -4.1972   -0.2708    0.7702 H   0  0  0  0  0  0  0  0  0  0  0  0
  2  1  1  0
  3  1  1  0
  1  4  1  0
  3  5  1  0
  6  4  2  0
  7  4  1  0
  8  7  2  0
  9  6  1  0
 10  9  2  0
  3  2  1  0
  8 10  1  0
 12 11  1  0
 13 11  1  0
 11 14  1  0
 13 15  1  0
 16 14  2  0
 17 14  1  0
 18 17  2  0
 19 16  1  0
 20 19  2  0
 13 12  1  0
 18 20  1  0
  1 21  1  1
  2 22  1  0
  2 23  1  0
  3 24  1  6
  5 25  1  0
  5 26  1  0
  6 27  1  0
  7 28  1  0
  8 29  1  0
  9 30  1  0
 10 31  1  0
 11 32  1  6
 12 33  1  0
 12 34  1  0
 13 35  1  1
 15 36  1  0
 15 37  1  0
 16 38  1  0
 17 39  1  0
 18 40  1  0
 19 41  1  0
 20 42  1  0
M  END
$$$$
