
     RDKit          3D

109114  0  0  0  0  0  0  0  0999 V2000
    4.9811    1.9474    1.7025 O   0  0  0  0  0  0  0  0  0  0  0  0
    4.4535    1.7224    0.3834 C   0  0  2  0  0  0  0  0  0  0  0  0
    3.1065    0.9980    0.5197 C   0  0  0  0  0  0  0  0  0  0  0  0
    2.4942    0.5128   -0.7968 C   0  0  2  0  0  0  0  0  0  0  0  0
    2.3211    1.6148   -1.6824 O   0  0  0  0  0  0  0  0  0  0  0  0
    1.1661   -0.1578   -0.5497 C   0  0  0  0  0  0  0  0  0  0  0  0
   -0.0214    0.1758   -1.0846 C   0  0  0  0  0  0  0  0  0  0  0  0
   -1.2561   -0.5405   -0.7141 C   0  0  0  0  0  0  0  0  0  0  0  0
   -1.5404   -1.8080   -1.2552 C   0  0  0  0  0  0  0  0  0  0  0  0
   -2.6750   -2.4763   -0.9155 N   0  0  0  0  0  0  0  0  0  0  0  0
   -3.5300   -1.9407   -0.0361 C   0  0  0  0  0  0  0  0  0  0  0  0
   -4.6608   -2.6767    0.2941 C   0  0  0  0  0  0  0  0  0  0  0  0
   -5.6117   -2.2124    1.2025 C   0  0  0  0  0  0  0  0  0  0  0  0
   -5.4334   -0.9738    1.7985 C   0  0  0  0  0  0  0  0  0  0  0  0
   -4.3093   -0.2113    1.4814 C   0  0  0  0  0  0  0  0  0  0  0  0
   -3.3380   -0.6777    0.5570 C   0  0  0  0  0  0  0  0  0  0  0  0
   -2.1719    0.0471    0.1918 C   0  0  0  0  0  0  0  0  0  0  0  0
   -1.9210    1.4013    0.7338 C   0  0  0  0  0  0  0  0  0  0  0  0
   -1.0481    1.6013    1.8188 C   0  0  0  0  0  0  0  0  0  0  0  0
   -0.8194    2.8851    2.3236 C   0  0  0  0  0  0  0  0  0  0  0  0
   -1.4671    3.9714    1.7476 C   0  0  0  0  0  0  0  0  0  0  0  0
   -1.2638    5.1995    2.2437 F   0  0  0  0  0  0  0  0  0  0  0  0
   -2.3300    3.8013    0.6723 C   0  0  0  0  0  0  0  0  0  0  0  0
   -2.5523    2.5199    0.1639 C   0  0  0  0  0  0  0  0  0  0  0  0
   -0.6235   -2.4753   -2.2713 C   0  0  0  0  0  0  0  0  0  0  0  0
    0.5256   -3.3321   -1.7862 C   0  0  0  0  0  0  0  0  0  0  0  0
   -0.6439   -3.9780   -2.4614 C   0  0  0  0  0  0  0  0  0  0  0  0
    5.5086    1.0277   -0.4708 C   0  0  0  0  0  0  0  0  0  0  0  0
    5.7258   -0.4181   -0.0387 C   0  0  0  0  0  0  0  0  0  0  0  0
    5.8142   -0.5918    1.2126 O   0  0  0  0  0  0  0  0  0  0  0  0
    5.7621   -1.2565   -0.9848 O   0  0  0  0  0  0  0  0  0  0  0  0
    0.0000    0.0000    0.0000 Ca  0  0  0  0  0 15  0  0  0  0  0  0
    4.8734    1.6698    1.0197 O   0  0  0  0  0  0  0  0  0  0  0  0
    4.7704    0.2400    1.0749 C   0  0  2  0  0  0  0  0  0  0  0  0
    3.3017   -0.1496    1.3090 C   0  0  0  0  0  0  0  0  0  0  0  0
    2.3418    0.6100    0.3839 C   0  0  2  0  0  0  0  0  0  0  0  0
    2.2253    1.9618    0.8217 O   0  0  0  0  0  0  0  0  0  0  0  0
    0.9569    0.0327    0.4341 C   0  0  0  0  0  0  0  0  0  0  0  0
    0.1569   -0.0647   -0.6410 C   0  0  0  0  0  0  0  0  0  0  0  0
   -1.2061   -0.6112   -0.5451 C   0  0  0  0  0  0  0  0  0  0  0  0
   -1.4056   -2.0025   -0.5350 C   0  0  0  0  0  0  0  0  0  0  0  0
   -2.6506   -2.5342   -0.4019 N   0  0  0  0  0  0  0  0  0  0  0  0
   -3.7133   -1.7292   -0.2750 C   0  0  0  0  0  0  0  0  0  0  0  0
   -4.9630   -2.3178   -0.1216 C   0  0  0  0  0  0  0  0  0  0  0  0
   -6.1288   -1.5648    0.0226 C   0  0  0  0  0  0  0  0  0  0  0  0
   -6.0531   -0.1824    0.0153 C   0  0  0  0  0  0  0  0  0  0  0  0
   -4.8123    0.4318   -0.1395 C   0  0  0  0  0  0  0  0  0  0  0  0
   -3.6203   -0.3247   -0.2907 C   0  0  0  0  0  0  0  0  0  0  0  0
   -2.3276    0.2470   -0.4491 C   0  0  0  0  0  0  0  0  0  0  0  0
   -2.1546    1.7153   -0.5323 C   0  0  0  0  0  0  0  0  0  0  0  0
   -1.7257    2.4630    0.5794 C   0  0  0  0  0  0  0  0  0  0  0  0
   -1.5595    3.8472    0.4827 C   0  0  0  0  0  0  0  0  0  0  0  0
   -1.8240    4.4875   -0.7224 C   0  0  0  0  0  0  0  0  0  0  0  0
   -1.6732    5.8158   -0.8144 F   0  0  0  0  0  0  0  0  0  0  0  0
   -2.2500    3.7716   -1.8364 C   0  0  0  0  0  0  0  0  0  0  0  0
   -2.4124    2.3879   -1.7427 C   0  0  0  0  0  0  0  0  0  0  0  0
   -0.2523   -2.9851   -0.6754 C   0  0  0  0  0  0  0  0  0  0  0  0
    0.4582   -3.1439   -2.0001 C   0  0  0  0  0  0  0  0  0  0  0  0
   -0.4305   -4.2406   -1.5003 C   0  0  0  0  0  0  0  0  0  0  0  0
    5.6651   -0.2998    2.1866 C   0  0  0  0  0  0  0  0  0  0  0  0
    7.1223   -0.1570    1.7582 C   0  0  0  0  0  0  0  0  0  0  0  0
    7.4003    0.9378    1.1850 O   0  0  0  0  0  0  0  0  0  0  0  0
    7.8635   -1.1365    2.0328 O   0  0  0  0  0  0  0  0  0  0  0  0
    5.3621    1.0671    1.9559 H   0  0  0  0  0  0  0  0  0  0  0  0
    4.2747    2.7189   -0.0407 H   0  0  0  0  0  0  0  0  0  0  0  0
    2.4130    1.6903    1.0181 H   0  0  0  0  0  0  0  0  0  0  0  0
    3.2093    0.1546    1.2142 H   0  0  0  0  0  0  0  0  0  0  0  0
    3.1560   -0.2180   -1.2760 H   0  0  0  0  0  0  0  0  0  0  0  0
    2.6587    1.3095   -2.5476 H   0  0  0  0  0  0  0  0  0  0  0  0
    1.2147   -0.9929    0.1508 H   0  0  0  0  0  0  0  0  0  0  0  0
   -0.1295    1.0159   -1.7663 H   0  0  0  0  0  0  0  0  0  0  0  0
   -4.7973   -3.6505   -0.1691 H   0  0  0  0  0  0  0  0  0  0  0  0
   -6.4819   -2.8200    1.4392 H   0  0  0  0  0  0  0  0  0  0  0  0
   -6.1583   -0.6014    2.5160 H   0  0  0  0  0  0  0  0  0  0  0  0
   -4.1890    0.7527    1.9726 H   0  0  0  0  0  0  0  0  0  0  0  0
   -0.5263    0.7557    2.2645 H   0  0  0  0  0  0  0  0  0  0  0  0
   -0.1392    3.0372    3.1537 H   0  0  0  0  0  0  0  0  0  0  0  0
   -2.8200    4.6684    0.2365 H   0  0  0  0  0  0  0  0  0  0  0  0
   -3.2219    2.3934   -0.6847 H   0  0  0  0  0  0  0  0  0  0  0  0
   -0.4536   -1.8965   -3.1808 H   0  0  0  0  0  0  0  0  0  0  0  0
    1.4614   -3.2702   -2.3301 H   0  0  0  0  0  0  0  0  0  0  0  0
    0.6416   -3.4849   -0.7185 H   0  0  0  0  0  0  0  0  0  0  0  0
   -1.3093   -4.5735   -1.8422 H   0  0  0  0  0  0  0  0  0  0  0  0
   -0.5039   -4.3603   -3.4652 H   0  0  0  0  0  0  0  0  0  0  0  0
    6.4721    1.5397   -0.3730 H   0  0  0  0  0  0  0  0  0  0  0  0
    5.2251    1.0659   -1.5272 H   0  0  0  0  0  0  0  0  0  0  0  0
    5.8583    1.8164    0.9748 H   0  0  0  0  0  0  0  0  0  0  0  0
    5.0849   -0.1439    0.0977 H   0  0  0  0  0  0  0  0  0  0  0  0
    3.2007   -1.2339    1.1731 H   0  0  0  0  0  0  0  0  0  0  0  0
    3.0346    0.0777    2.3516 H   0  0  0  0  0  0  0  0  0  0  0  0
    2.7180    0.6115   -0.6481 H   0  0  0  0  0  0  0  0  0  0  0  0
    3.1562    2.2710    0.9047 H   0  0  0  0  0  0  0  0  0  0  0  0
    0.6004   -0.2889    1.4109 H   0  0  0  0  0  0  0  0  0  0  0  0
    0.4686    0.3166   -1.6109 H   0  0  0  0  0  0  0  0  0  0  0  0
   -5.0295   -3.4029   -0.1113 H   0  0  0  0  0  0  0  0  0  0  0  0
   -7.0860   -2.0648    0.1495 H   0  0  0  0  0  0  0  0  0  0  0  0
   -6.9475    0.4203    0.1369 H   0  0  0  0  0  0  0  0  0  0  0  0
   -4.7763    1.5186   -0.1336 H   0  0  0  0  0  0  0  0  0  0  0  0
   -1.5003    1.9626    1.5197 H   0  0  0  0  0  0  0  0  0  0  0  0
   -1.2116    4.4211    1.3346 H   0  0  0  0  0  0  0  0  0  0  0  0
   -2.4456    4.2909   -2.7684 H   0  0  0  0  0  0  0  0  0  0  0  0
   -2.7292    1.8253   -2.6192 H   0  0  0  0  0  0  0  0  0  0  0  0
    0.3568   -3.0943    0.2177 H   0  0  0  0  0  0  0  0  0  0  0  0
    1.5324   -3.3002   -1.9781 H   0  0  0  0  0  0  0  0  0  0  0  0
    0.1141   -2.5603   -2.8463 H   0  0  0  0  0  0  0  0  0  0  0  0
   -1.3800   -4.4014   -2.0052 H   0  0  0  0  0  0  0  0  0  0  0  0
    0.0359   -5.1492   -1.1354 H   0  0  0  0  0  0  0  0  0  0  0  0
    5.4410   -1.3502    2.3972 H   0  0  0  0  0  0  0  0  0  0  0  0
    5.5310    0.2830    3.1049 H   0  0  0  0  0  0  0  0  0  0  0  0
  2  1  1  0
  2  3  1  0
  3  4  1  0
  4  5  1  0
  4  6  1  0
  6  7  2  0
  7  8  1  0
  8  9  2  0
  9 10  1  0
 10 11  2  0
 11 12  1  0
 12 13  2  0
 13 14  1  0
 14 15  2  0
 15 16  1  0
 11 16  1  0
 16 17  2  0
  8 17  1  0
 17 18  1  0
 18 19  2  0
 19 20  1  0
 20 21  2  0
 21 22  1  0
 21 23  1  0
 23 24  2  0
 18 24  1  0
  9 25  1  0
 25 26  1  0
 26 27  1  0
 25 27  1  0
  2 28  1  0
 28 29  1  0
 29 30  2  0
 29 31  1  0
 34 33  1  0
 34 35  1  0
 35 36  1  0
 36 37  1  0
 36 38  1  0
 38 39  2  0
 39 40  1  0
 40 41  2  0
 41 42  1  0
 42 43  2  0
 43 44  1  0
 44 45  2  0
 45 46  1  0
 46 47  2  0
 47 48  1  0
 43 48  1  0
 48 49  2  0
 40 49  1  0
 49 50  1  0
 50 51  2  0
 51 52  1  0
 52 53  2  0
 53 54  1  0
 53 55  1  0
 55 56  2  0
 50 56  1  0
 41 57  1  0
 57 58  1  0
 58 59  1  0
 57 59  1  0
 34 60  1  0
 60 61  1  0
 61 62  2  0
 61 63  1  0
  1 64  1  0
  2 65  1  6
  3 66  1  0
  3 67  1  0
  4 68  1  6
  5 69  1  0
  6 70  1  0
  7 71  1  0
 12 72  1  0
 13 73  1  0
 14 74  1  0
 15 75  1  0
 19 76  1  0
 20 77  1  0
 23 78  1  0
 24 79  1  0
 25 80  1  0
 26 81  1  0
 26 82  1  0
 27 83  1  0
 27 84  1  0
 28 85  1  0
 28 86  1  0
 33 87  1  0
 34 88  1  6
 35 89  1  0
 35 90  1  0
 36 91  1  6
 37 92  1  0
 38 93  1  0
 39 94  1  0
 44 95  1  0
 45 96  1  0
 46 97  1  0
 47 98  1  0
 51 99  1  0
 52100  1  0
 55101  1  0
 56102  1  0
 57103  1  0
 58104  1  0
 58105  1  0
 59106  1  0
 59107  1  0
 60108  1  0
 60109  1  0
M  CHG  3  31  -1  32   2  63  -1
M  END
$$$$
