
     RDKit          2D

 63 68  0  0  0  0  0  0  0  0999 V2000
   -1.1642   -2.4983    0.0000 O   0  0  0  0  0  0  0  0  0  0  0  0
   -1.1642   -1.6733    0.0000 C   0  0  0  0  0  0  0  0  0  0  0  0
   -1.8787   -1.2608    0.0000 C   0  0  0  0  0  0  0  0  0  0  0  0
   -2.5931   -1.6733    0.0000 C   0  0  0  0  0  0  0  0  0  0  0  0
   -2.5931   -2.4983    0.0000 O   0  0  0  0  0  0  0  0  0  0  0  0
   -3.3076   -1.2608    0.0000 C   0  0  0  0  0  0  0  0  0  0  0  0
   -3.3076   -0.4358    0.0000 C   0  0  0  0  0  0  0  0  0  0  0  0
   -4.0221   -0.0233    0.0000 C   0  0  0  0  0  0  0  0  0  0  0  0
   -4.7365   -0.4358    0.0000 C   0  0  0  0  0  0  0  0  0  0  0  0
   -5.4510   -0.0233    0.0000 N   0  0  0  0  0  0  0  0  0  0  0  0
   -5.4510    0.8017    0.0000 C   0  0  0  0  0  0  0  0  0  0  0  0
   -6.1655    1.2142    0.0000 C   0  0  0  0  0  0  0  0  0  0  0  0
   -6.1655    2.0392    0.0000 C   0  0  0  0  0  0  0  0  0  0  0  0
   -5.4510    2.4517    0.0000 C   0  0  0  0  0  0  0  0  0  0  0  0
   -4.7365    2.0392    0.0000 C   0  0  0  0  0  0  0  0  0  0  0  0
   -4.7365    1.2142    0.0000 C   0  0  0  0  0  0  0  0  0  0  0  0
   -4.0221    0.8017    0.0000 C   0  0  0  0  0  0  0  0  0  0  0  0
   -3.3076    1.2142    0.0000 C   0  0  0  0  0  0  0  0  0  0  0  0
   -3.3076    2.0392    0.0000 C   0  0  0  0  0  0  0  0  0  0  0  0
   -2.5931    2.4517    0.0000 C   0  0  0  0  0  0  0  0  0  0  0  0
   -1.8787    2.0392    0.0000 C   0  0  0  0  0  0  0  0  0  0  0  0
   -1.1642    2.4517    0.0000 F   0  0  0  0  0  0  0  0  0  0  0  0
   -1.8787    1.2142    0.0000 C   0  0  0  0  0  0  0  0  0  0  0  0
   -2.5931    0.8017    0.0000 C   0  0  0  0  0  0  0  0  0  0  0  0
   -4.7365   -1.2608    0.0000 C   0  0  0  0  0  0  0  0  0  0  0  0
   -4.3240   -1.9753    0.0000 C   0  0  0  0  0  0  0  0  0  0  0  0
   -5.1490   -1.9753    0.0000 C   0  0  0  0  0  0  0  0  0  0  0  0
   -0.4497   -1.2608    0.0000 C   0  0  0  0  0  0  0  0  0  0  0  0
    0.2648   -1.6733    0.0000 C   0  0  0  0  0  0  0  0  0  0  0  0
    0.9792   -1.2608    0.0000 O   0  0  0  0  0  0  0  0  0  0  0  0
    0.2648   -2.4983    0.0000 O   0  0  0  0  0  0  0  0  0  0  0  0
    0.0000    0.0000    0.0000 Ca  0  0  0  0  0 15  0  0  0  0  0  0
    7.1227   -2.4688    0.0000 O   0  0  0  0  0  0  0  0  0  0  0  0
    7.1227   -1.6438    0.0000 C   0  0  0  0  0  0  0  0  0  0  0  0
    6.4083   -1.2313    0.0000 C   0  0  0  0  0  0  0  0  0  0  0  0
    5.6938   -1.6438    0.0000 C   0  0  0  0  0  0  0  0  0  0  0  0
    5.6938   -2.4688    0.0000 O   0  0  0  0  0  0  0  0  0  0  0  0
    4.9793   -1.2313    0.0000 C   0  0  0  0  0  0  0  0  0  0  0  0
    4.9793   -0.4063    0.0000 C   0  0  0  0  0  0  0  0  0  0  0  0
    4.2648    0.0062    0.0000 C   0  0  0  0  0  0  0  0  0  0  0  0
    3.5504   -0.4063    0.0000 C   0  0  0  0  0  0  0  0  0  0  0  0
    2.8359    0.0062    0.0000 N   0  0  0  0  0  0  0  0  0  0  0  0
    2.8359    0.8312    0.0000 C   0  0  0  0  0  0  0  0  0  0  0  0
    2.1214    1.2437    0.0000 C   0  0  0  0  0  0  0  0  0  0  0  0
    2.1214    2.0687    0.0000 C   0  0  0  0  0  0  0  0  0  0  0  0
    2.8359    2.4812    0.0000 C   0  0  0  0  0  0  0  0  0  0  0  0
    3.5504    2.0687    0.0000 C   0  0  0  0  0  0  0  0  0  0  0  0
    3.5504    1.2437    0.0000 C   0  0  0  0  0  0  0  0  0  0  0  0
    4.2648    0.8312    0.0000 C   0  0  0  0  0  0  0  0  0  0  0  0
    4.9793    1.2437    0.0000 C   0  0  0  0  0  0  0  0  0  0  0  0
    4.9793    2.0687    0.0000 C   0  0  0  0  0  0  0  0  0  0  0  0
    5.6938    2.4812    0.0000 C   0  0  0  0  0  0  0  0  0  0  0  0
    6.4083    2.0687    0.0000 C   0  0  0  0  0  0  0  0  0  0  0  0
    7.1227    2.4812    0.0000 F   0  0  0  0  0  0  0  0  0  0  0  0
    6.4083    1.2437    0.0000 C   0  0  0  0  0  0  0  0  0  0  0  0
    5.6938    0.8312    0.0000 C   0  0  0  0  0  0  0  0  0  0  0  0
    3.5504   -1.2313    0.0000 C   0  0  0  0  0  0  0  0  0  0  0  0
    3.9629   -1.9458    0.0000 C   0  0  0  0  0  0  0  0  0  0  0  0
    3.1379   -1.9458    0.0000 C   0  0  0  0  0  0  0  0  0  0  0  0
    7.8372   -1.2313    0.0000 C   0  0  0  0  0  0  0  0  0  0  0  0
    8.5517   -1.6438    0.0000 C   0  0  0  0  0  0  0  0  0  0  0  0
    9.2661   -1.2313    0.0000 O   0  0  0  0  0  0  0  0  0  0  0  0
    8.5517   -2.4688    0.0000 O   0  0  0  0  0  0  0  0  0  0  0  0
  2  1  1  6
  2  3  1  0
  3  4  1  0
  4  5  1  6
  4  6  1  0
  6  7  2  0
  7  8  1  0
  8  9  2  0
  9 10  1  0
 10 11  2  0
 11 12  1  0
 12 13  2  0
 13 14  1  0
 14 15  2  0
 15 16  1  0
 11 16  1  0
 16 17  2  0
  8 17  1  0
 17 18  1  0
 18 19  2  0
 19 20  1  0
 20 21  2  0
 21 22  1  0
 21 23  1  0
 23 24  2  0
 18 24  1  0
  9 25  1  0
 25 26  1  0
 26 27  1  0
 25 27  1  0
  2 28  1  0
 28 29  1  0
 29 30  2  0
 29 31  1  0
 34 33  1  6
 34 35  1  0
 35 36  1  0
 36 37  1  6
 36 38  1  0
 38 39  2  0
 39 40  1  0
 40 41  2  0
 41 42  1  0
 42 43  2  0
 43 44  1  0
 44 45  2  0
 45 46  1  0
 46 47  2  0
 47 48  1  0
 43 48  1  0
 48 49  2  0
 40 49  1  0
 49 50  1  0
 50 51  2  0
 51 52  1  0
 52 53  2  0
 53 54  1  0
 53 55  1  0
 55 56  2  0
 50 56  1  0
 41 57  1  0
 57 58  1  0
 58 59  1  0
 57 59  1  0
 34 60  1  0
 60 61  1  0
 61 62  2  0
 61 63  1  0
M  CHG  3  31  -1  32   2  63  -1
M  END
> <chembl_id>
CHEMBL1237061

> <chembl_pref_name>
PITAVASTATIN CALCIUM
