
     RDKit          3D

109114  0  0  0  0  0  0  0  0999 V2000
    5.7768   -0.4167   -1.1244 O   0  0  0  0  0  0  0  0  0  0  0  0
    4.9677    0.1680   -0.0935 C   0  0  2  0  0  0  0  0  0  0  0  0
    3.5097   -0.2389   -0.3490 C   0  0  0  0  0  0  0  0  0  0  0  0
    2.5313    0.2580    0.7167 C   0  0  2  0  0  0  0  0  0  0  0  0
    2.8300   -0.3561    1.9712 O   0  0  0  0  0  0  0  0  0  0  0  0
    1.1173   -0.0649    0.3063 C   0  0  0  0  0  0  0  0  0  0  0  0
    0.1714   -0.6425    1.0649 C   0  0  0  0  0  0  0  0  0  0  0  0
   -1.1782   -0.9260    0.5464 C   0  0  0  0  0  0  0  0  0  0  0  0
   -1.5120   -2.2486    0.2075 C   0  0  0  0  0  0  0  0  0  0  0  0
   -2.7452   -2.5581   -0.2727 N   0  0  0  0  0  0  0  0  0  0  0  0
   -3.6585   -1.5960   -0.4608 C   0  0  0  0  0  0  0  0  0  0  0  0
   -4.8906   -1.9678   -0.9846 C   0  0  0  0  0  0  0  0  0  0  0  0
   -5.9053   -1.0392   -1.2322 C   0  0  0  0  0  0  0  0  0  0  0  0
   -5.6947    0.2984   -0.9318 C   0  0  0  0  0  0  0  0  0  0  0  0
   -4.4683    0.6927   -0.3926 C   0  0  0  0  0  0  0  0  0  0  0  0
   -3.4242   -0.2423   -0.1563 C   0  0  0  0  0  0  0  0  0  0  0  0
   -2.1456    0.0950    0.3693 C   0  0  0  0  0  0  0  0  0  0  0  0
   -1.8395    1.4895    0.7433 C   0  0  0  0  0  0  0  0  0  0  0  0
   -2.0439    1.9300    2.0620 C   0  0  0  0  0  0  0  0  0  0  0  0
   -1.7554    3.2480    2.4219 C   0  0  0  0  0  0  0  0  0  0  0  0
   -1.2636    4.1313    1.4699 C   0  0  0  0  0  0  0  0  0  0  0  0
   -1.0053    5.4004    1.8160 F   0  0  0  0  0  0  0  0  0  0  0  0
   -1.0398    3.7139    0.1643 C   0  0  0  0  0  0  0  0  0  0  0  0
   -1.3321    2.3981   -0.2037 C   0  0  0  0  0  0  0  0  0  0  0  0
   -0.5210   -3.3969    0.3660 C   0  0  0  0  0  0  0  0  0  0  0  0
    0.4935   -3.6536   -0.7257 C   0  0  0  0  0  0  0  0  0  0  0  0
   -0.6132   -4.6393   -0.4945 C   0  0  0  0  0  0  0  0  0  0  0  0
    5.2377    1.6721   -0.0277 C   0  0  0  0  0  0  0  0  0  0  0  0
    4.7064    2.3873   -1.2716 C   0  0  0  0  0  0  0  0  0  0  0  0
    4.9749    1.8135   -2.3722 O   0  0  0  0  0  0  0  0  0  0  0  0
    4.0507    3.4431   -1.0515 O   0  0  0  0  0  0  0  0  0  0  0  0
    0.0000    0.0000    0.0000 Ca  0  0  0  0  0 15  0  0  0  0  0  0
    4.0656    2.6217   -0.5216 O   0  0  0  0  0  0  0  0  0  0  0  0
    4.4573    1.2787   -0.8382 C   0  0  2  0  0  0  0  0  0  0  0  0
    3.2219    0.3509   -0.8343 C   0  0  0  0  0  0  0  0  0  0  0  0
    2.6553   -0.0637    0.5337 C   0  0  2  0  0  0  0  0  0  0  0  0
    3.3097   -1.2572    0.9794 O   0  0  0  0  0  0  0  0  0  0  0  0
    1.1910   -0.4376    0.5719 C   0  0  0  0  0  0  0  0  0  0  0  0
    0.2893   -0.4431   -0.4214 C   0  0  0  0  0  0  0  0  0  0  0  0
   -1.1044   -0.8606   -0.1893 C   0  0  0  0  0  0  0  0  0  0  0  0
   -1.4372   -2.2248   -0.2186 C   0  0  0  0  0  0  0  0  0  0  0  0
   -2.7049   -2.6494    0.0310 N   0  0  0  0  0  0  0  0  0  0  0  0
   -3.6599   -1.7578    0.3207 C   0  0  0  0  0  0  0  0  0  0  0  0
   -4.9358   -2.2368    0.5900 C   0  0  0  0  0  0  0  0  0  0  0  0
   -5.9941   -1.3832    0.9034 C   0  0  0  0  0  0  0  0  0  0  0  0
   -5.7825   -0.0154    0.9542 C   0  0  0  0  0  0  0  0  0  0  0  0
   -4.5126    0.4855    0.6924 C   0  0  0  0  0  0  0  0  0  0  0  0
   -3.4280   -0.3701    0.3647 C   0  0  0  0  0  0  0  0  0  0  0  0
   -2.1121    0.0884    0.0908 C   0  0  0  0  0  0  0  0  0  0  0  0
   -1.8049    1.5328    0.0983 C   0  0  0  0  0  0  0  0  0  0  0  0
   -2.0322    2.3147   -1.0494 C   0  0  0  0  0  0  0  0  0  0  0  0
   -1.7536    3.6829   -1.0491 C   0  0  0  0  0  0  0  0  0  0  0  0
   -1.2494    4.2747    0.1041 C   0  0  0  0  0  0  0  0  0  0  0  0
   -0.9861    5.5901    0.1087 F   0  0  0  0  0  0  0  0  0  0  0  0
   -1.0150    3.5246    1.2494 C   0  0  0  0  0  0  0  0  0  0  0  0
   -1.2923    2.1553    1.2487 C   0  0  0  0  0  0  0  0  0  0  0  0
   -0.4003   -3.2941   -0.5148 C   0  0  0  0  0  0  0  0  0  0  0  0
    0.1111   -3.4854   -1.9279 C   0  0  0  0  0  0  0  0  0  0  0  0
   -0.7798   -4.5230   -1.3138 C   0  0  0  0  0  0  0  0  0  0  0  0
    5.6937    0.8366   -0.0659 C   0  0  0  0  0  0  0  0  0  0  0  0
    5.4741    0.9555    1.4274 C   0  0  0  0  0  0  0  0  0  0  0  0
    5.4765   -0.1407    2.0537 O   0  0  0  0  0  0  0  0  0  0  0  0
    5.2082    2.1214    1.8338 O   0  0  0  0  0  0  0  0  0  0  0  0
    5.6537    0.1931   -1.8994 H   0  0  0  0  0  0  0  0  0  0  0  0
    5.3062   -0.2888    0.8456 H   0  0  0  0  0  0  0  0  0  0  0  0
    3.1963    0.0956   -1.3492 H   0  0  0  0  0  0  0  0  0  0  0  0
    3.4715   -1.3372   -0.3995 H   0  0  0  0  0  0  0  0  0  0  0  0
    2.6084    1.3436    0.8410 H   0  0  0  0  0  0  0  0  0  0  0  0
    2.9029   -1.3062    1.7998 H   0  0  0  0  0  0  0  0  0  0  0  0
    0.8709    0.2286   -0.7147 H   0  0  0  0  0  0  0  0  0  0  0  0
    0.3634   -0.9273    2.0944 H   0  0  0  0  0  0  0  0  0  0  0  0
   -5.0614   -3.0162   -1.2114 H   0  0  0  0  0  0  0  0  0  0  0  0
   -6.8528   -1.3659   -1.6487 H   0  0  0  0  0  0  0  0  0  0  0  0
   -6.4721    1.0357   -1.1216 H   0  0  0  0  0  0  0  0  0  0  0  0
   -4.3265    1.7480   -0.1621 H   0  0  0  0  0  0  0  0  0  0  0  0
   -2.4203    1.2412    2.8171 H   0  0  0  0  0  0  0  0  0  0  0  0
   -1.9086    3.5894    3.4388 H   0  0  0  0  0  0  0  0  0  0  0  0
   -0.6277    4.4055   -0.5632 H   0  0  0  0  0  0  0  0  0  0  0  0
   -1.1452    2.0791   -1.2286 H   0  0  0  0  0  0  0  0  0  0  0  0
   -0.1839   -3.5645    1.3865 H   0  0  0  0  0  0  0  0  0  0  0  0
    0.4505   -3.0488   -1.6244 H   0  0  0  0  0  0  0  0  0  0  0  0
    1.4990   -3.9286   -0.4309 H   0  0  0  0  0  0  0  0  0  0  0  0
   -0.3569   -5.5935   -0.0475 H   0  0  0  0  0  0  0  0  0  0  0  0
   -1.4115   -4.6937   -1.2269 H   0  0  0  0  0  0  0  0  0  0  0  0
    6.3182    1.8591    0.0152 H   0  0  0  0  0  0  0  0  0  0  0  0
    4.7951    2.0997    0.8799 H   0  0  0  0  0  0  0  0  0  0  0  0
    4.3117    2.7610    0.4304 H   0  0  0  0  0  0  0  0  0  0  0  0
    4.7671    1.3396   -1.8901 H   0  0  0  0  0  0  0  0  0  0  0  0
    2.4511    0.8932   -1.3977 H   0  0  0  0  0  0  0  0  0  0  0  0
    3.4701   -0.5607   -1.4024 H   0  0  0  0  0  0  0  0  0  0  0  0
    2.8026    0.7297    1.2779 H   0  0  0  0  0  0  0  0  0  0  0  0
    4.1248   -0.9719    1.4706 H   0  0  0  0  0  0  0  0  0  0  0  0
    0.8702   -0.7566    1.5607 H   0  0  0  0  0  0  0  0  0  0  0  0
    0.5326   -0.1512   -1.4342 H   0  0  0  0  0  0  0  0  0  0  0  0
   -5.1039   -3.3109    0.5501 H   0  0  0  0  0  0  0  0  0  0  0  0
   -6.9767   -1.7913    1.1139 H   0  0  0  0  0  0  0  0  0  0  0  0
   -6.5917    0.6657    1.2120 H   0  0  0  0  0  0  0  0  0  0  0  0
   -4.3714    1.5625    0.7515 H   0  0  0  0  0  0  0  0  0  0  0  0
   -2.4262    1.8546   -1.9557 H   0  0  0  0  0  0  0  0  0  0  0  0
   -1.9104    4.2843   -1.9351 H   0  0  0  0  0  0  0  0  0  0  0  0
   -0.6018    3.9988    2.1371 H   0  0  0  0  0  0  0  0  0  0  0  0
   -1.0887    1.5664    2.1424 H   0  0  0  0  0  0  0  0  0  0  0  0
    0.3239   -3.4623    0.2810 H   0  0  0  0  0  0  0  0  0  0  0  0
   -0.2992   -2.8615   -2.7132 H   0  0  0  0  0  0  0  0  0  0  0  0
    1.1642   -3.7193   -2.0430 H   0  0  0  0  0  0  0  0  0  0  0  0
   -1.7927   -4.5957   -1.6888 H   0  0  0  0  0  0  0  0  0  0  0  0
   -0.3378   -5.4662   -1.0171 H   0  0  0  0  0  0  0  0  0  0  0  0
    6.5299    1.4973   -0.3154 H   0  0  0  0  0  0  0  0  0  0  0  0
    5.9836   -0.1762   -0.3471 H   0  0  0  0  0  0  0  0  0  0  0  0
  2  1  1  0
  2  3  1  0
  3  4  1  0
  4  5  1  0
  4  6  1  0
  6  7  2  0
  7  8  1  0
  8  9  2  0
  9 10  1  0
 10 11  2  0
 11 12  1  0
 12 13  2  0
 13 14  1  0
 14 15  2  0
 15 16  1  0
 11 16  1  0
 16 17  2  0
  8 17  1  0
 17 18  1  0
 18 19  2  0
 19 20  1  0
 20 21  2  0
 21 22  1  0
 21 23  1  0
 23 24  2  0
 18 24  1  0
  9 25  1  0
 25 26  1  0
 26 27  1  0
 25 27  1  0
  2 28  1  0
 28 29  1  0
 29 30  2  0
 29 31  1  0
 34 33  1  0
 34 35  1  0
 35 36  1  0
 36 37  1  0
 36 38  1  0
 38 39  2  0
 39 40  1  0
 40 41  2  0
 41 42  1  0
 42 43  2  0
 43 44  1  0
 44 45  2  0
 45 46  1  0
 46 47  2  0
 47 48  1  0
 43 48  1  0
 48 49  2  0
 40 49  1  0
 49 50  1  0
 50 51  2  0
 51 52  1  0
 52 53  2  0
 53 54  1  0
 53 55  1  0
 55 56  2  0
 50 56  1  0
 41 57  1  0
 57 58  1  0
 58 59  1  0
 57 59  1  0
 34 60  1  0
 60 61  1  0
 61 62  2  0
 61 63  1  0
  1 64  1  0
  2 65  1  1
  3 66  1  0
  3 67  1  0
  4 68  1  1
  5 69  1  0
  6 70  1  0
  7 71  1  0
 12 72  1  0
 13 73  1  0
 14 74  1  0
 15 75  1  0
 19 76  1  0
 20 77  1  0
 23 78  1  0
 24 79  1  0
 25 80  1  0
 26 81  1  0
 26 82  1  0
 27 83  1  0
 27 84  1  0
 28 85  1  0
 28 86  1  0
 33 87  1  0
 34 88  1  6
 35 89  1  0
 35 90  1  0
 36 91  1  1
 37 92  1  0
 38 93  1  0
 39 94  1  0
 44 95  1  0
 45 96  1  0
 46 97  1  0
 47 98  1  0
 51 99  1  0
 52100  1  0
 55101  1  0
 56102  1  0
 57103  1  0
 58104  1  0
 58105  1  0
 59106  1  0
 59107  1  0
 60108  1  0
 60109  1  0
M  CHG  3  31  -1  32   2  63  -1
M  END
$$$$
