
     RDKit          3D

109114  0  0  0  0  0  0  0  0999 V2000
    4.8364    2.8926    1.3645 O   0  0  0  0  0  0  0  0  0  0  0  0
    4.5647    1.8523    0.4114 C   0  0  2  0  0  0  0  0  0  0  0  0
    3.1448    1.3262    0.6680 C   0  0  0  0  0  0  0  0  0  0  0  0
    2.6792    0.2722   -0.3434 C   0  0  2  0  0  0  0  0  0  0  0  0
    2.6118    0.8438   -1.6516 O   0  0  0  0  0  0  0  0  0  0  0  0
    1.3260   -0.2714    0.0394 C   0  0  0  0  0  0  0  0  0  0  0  0
    0.2580   -0.3819   -0.7676 C   0  0  0  0  0  0  0  0  0  0  0  0
   -1.0375   -0.9102   -0.3025 C   0  0  0  0  0  0  0  0  0  0  0  0
   -1.1938   -2.2711    0.0165 C   0  0  0  0  0  0  0  0  0  0  0  0
   -2.3851   -2.7569    0.4561 N   0  0  0  0  0  0  0  0  0  0  0  0
   -3.4367   -1.9405    0.5866 C   0  0  0  0  0  0  0  0  0  0  0  0
   -4.6236   -2.4879    1.0538 C   0  0  0  0  0  0  0  0  0  0  0  0
   -5.7759   -1.7201    1.2263 C   0  0  0  0  0  0  0  0  0  0  0  0
   -5.7469   -0.3679    0.9237 C   0  0  0  0  0  0  0  0  0  0  0  0
   -4.5668    0.2021    0.4491 C   0  0  0  0  0  0  0  0  0  0  0  0
   -3.3895   -0.5689    0.2731 C   0  0  0  0  0  0  0  0  0  0  0  0
   -2.1534   -0.0445   -0.1939 C   0  0  0  0  0  0  0  0  0  0  0  0
   -2.0332    1.3816   -0.5736 C   0  0  0  0  0  0  0  0  0  0  0  0
   -2.4377    1.8182   -1.8490 C   0  0  0  0  0  0  0  0  0  0  0  0
   -2.3238    3.1621   -2.2104 C   0  0  0  0  0  0  0  0  0  0  0  0
   -1.7998    4.0727   -1.3002 C   0  0  0  0  0  0  0  0  0  0  0  0
   -1.6931    5.3610   -1.6507 F   0  0  0  0  0  0  0  0  0  0  0  0
   -1.3916    3.6677   -0.0352 C   0  0  0  0  0  0  0  0  0  0  0  0
   -1.5073    2.3242    0.3275 C   0  0  0  0  0  0  0  0  0  0  0  0
   -0.0591   -3.2756   -0.1025 C   0  0  0  0  0  0  0  0  0  0  0  0
   -0.3246   -4.6630   -0.6420 C   0  0  0  0  0  0  0  0  0  0  0  0
    0.4524   -3.6845   -1.4678 C   0  0  0  0  0  0  0  0  0  0  0  0
    5.6750    0.8053    0.4526 C   0  0  0  0  0  0  0  0  0  0  0  0
    5.6269    0.0292    1.7628 C   0  0  0  0  0  0  0  0  0  0  0  0
    5.5973    0.7525    2.8020 O   0  0  0  0  0  0  0  0  0  0  0  0
    5.5886   -1.2251    1.6490 O   0  0  0  0  0  0  0  0  0  0  0  0
    0.0000    0.0000    0.0000 Ca  0  0  0  0  0 15  0  0  0  0  0  0
    4.6918    1.3578   -1.8612 O   0  0  0  0  0  0  0  0  0  0  0  0
    4.6003   -0.0331   -1.5242 C   0  0  2  0  0  0  0  0  0  0  0  0
    3.2274   -0.3098   -0.8930 C   0  0  0  0  0  0  0  0  0  0  0  0
    2.0848   -0.0591   -1.8933 C   0  0  2  0  0  0  0  0  0  0  0  0
    2.0073    1.3030   -2.2971 O   0  0  0  0  0  0  0  0  0  0  0  0
    0.7324   -0.4445   -1.3621 C   0  0  0  0  0  0  0  0  0  0  0  0
    0.2508   -0.0984   -0.1562 C   0  0  0  0  0  0  0  0  0  0  0  0
   -1.0645   -0.5546    0.3206 C   0  0  0  0  0  0  0  0  0  0  0  0
   -1.2025   -1.8409    0.8691 C   0  0  0  0  0  0  0  0  0  0  0  0
   -2.4114   -2.3068    1.2801 N   0  0  0  0  0  0  0  0  0  0  0  0
   -3.4952   -1.5257    1.1866 C   0  0  0  0  0  0  0  0  0  0  0  0
   -4.7055   -2.0444    1.6283 C   0  0  0  0  0  0  0  0  0  0  0  0
   -5.8897   -1.3071    1.5827 C   0  0  0  0  0  0  0  0  0  0  0  0
   -5.8707   -0.0156    1.0791 C   0  0  0  0  0  0  0  0  0  0  0  0
   -4.6666    0.5269    0.6309 C   0  0  0  0  0  0  0  0  0  0  0  0
   -3.4574   -0.2144    0.6746 C   0  0  0  0  0  0  0  0  0  0  0  0
   -2.2002    0.2821    0.2338 C   0  0  0  0  0  0  0  0  0  0  0  0
   -2.0798    1.6527   -0.3031 C   0  0  0  0  0  0  0  0  0  0  0  0
   -1.8347    2.7396    0.5545 C   0  0  0  0  0  0  0  0  0  0  0  0
   -1.7275    4.0350    0.0459 C   0  0  0  0  0  0  0  0  0  0  0  0
   -1.8656    4.2489   -1.3193 C   0  0  0  0  0  0  0  0  0  0  0  0
   -1.7778    5.4953   -1.8033 F   0  0  0  0  0  0  0  0  0  0  0  0
   -2.1072    3.1921   -2.1868 C   0  0  0  0  0  0  0  0  0  0  0  0
   -2.2114    1.8949   -1.6810 C   0  0  0  0  0  0  0  0  0  0  0  0
   -0.0191   -2.7819    1.0229 C   0  0  0  0  0  0  0  0  0  0  0  0
    1.0136   -2.5190    2.0955 C   0  0  0  0  0  0  0  0  0  0  0  0
    0.0900   -3.6887    2.2274 C   0  0  0  0  0  0  0  0  0  0  0  0
    5.7750   -0.4617   -0.6501 C   0  0  0  0  0  0  0  0  0  0  0  0
    5.7653    0.2476    0.7003 C   0  0  0  0  0  0  0  0  0  0  0  0
    5.9755   -0.4880    1.7004 O   0  0  0  0  0  0  0  0  0  0  0  0
    5.5327    1.4902    0.6345 O   0  0  0  0  0  0  0  0  0  0  0  0
    5.1180    2.4007    2.1789 H   0  0  0  0  0  0  0  0  0  0  0  0
    4.5873    2.3363   -0.5727 H   0  0  0  0  0  0  0  0  0  0  0  0
    3.0693    0.9345    1.6910 H   0  0  0  0  0  0  0  0  0  0  0  0
    2.4610    2.1882    0.6452 H   0  0  0  0  0  0  0  0  0  0  0  0
    3.3798   -0.5687   -0.3809 H   0  0  0  0  0  0  0  0  0  0  0  0
    2.1807    1.7092   -1.5500 H   0  0  0  0  0  0  0  0  0  0  0  0
    1.2586   -0.6124    1.0724 H   0  0  0  0  0  0  0  0  0  0  0  0
    0.2992   -0.0625   -1.8054 H   0  0  0  0  0  0  0  0  0  0  0  0
   -4.6455   -3.5478    1.2969 H   0  0  0  0  0  0  0  0  0  0  0  0
   -6.6844   -2.1833    1.6008 H   0  0  0  0  0  0  0  0  0  0  0  0
   -6.6344    0.2441    1.0592 H   0  0  0  0  0  0  0  0  0  0  0  0
   -4.5691    1.2673    0.2266 H   0  0  0  0  0  0  0  0  0  0  0  0
   -2.8361    1.1024   -2.5654 H   0  0  0  0  0  0  0  0  0  0  0  0
   -2.6308    3.4975   -3.1954 H   0  0  0  0  0  0  0  0  0  0  0  0
   -0.9766    4.3948    0.6562 H   0  0  0  0  0  0  0  0  0  0  0  0
   -1.1738    2.0091    1.3150 H   0  0  0  0  0  0  0  0  0  0  0  0
    0.6825   -3.2178    0.6931 H   0  0  0  0  0  0  0  0  0  0  0  0
   -1.3300   -4.9125   -0.9583 H   0  0  0  0  0  0  0  0  0  0  0  0
    0.2130   -5.4862   -0.1882 H   0  0  0  0  0  0  0  0  0  0  0  0
   -0.0243   -3.2709   -2.3498 H   0  0  0  0  0  0  0  0  0  0  0  0
    1.5229   -3.8304   -1.5714 H   0  0  0  0  0  0  0  0  0  0  0  0
    5.5957    0.1220   -0.4011 H   0  0  0  0  0  0  0  0  0  0  0  0
    6.6554    1.2924    0.3996 H   0  0  0  0  0  0  0  0  0  0  0  0
    4.9782    1.7908   -1.0104 H   0  0  0  0  0  0  0  0  0  0  0  0
    4.6711   -0.5830   -2.4705 H   0  0  0  0  0  0  0  0  0  0  0  0
    3.1913   -1.3480   -0.5407 H   0  0  0  0  0  0  0  0  0  0  0  0
    3.0968    0.3509   -0.0278 H   0  0  0  0  0  0  0  0  0  0  0  0
    2.2760   -0.6531   -2.7950 H   0  0  0  0  0  0  0  0  0  0  0  0
    2.9288    1.6448   -2.2550 H   0  0  0  0  0  0  0  0  0  0  0  0
    0.1354   -1.0682   -2.0219 H   0  0  0  0  0  0  0  0  0  0  0  0
    0.8143    0.5447    0.5156 H   0  0  0  0  0  0  0  0  0  0  0  0
   -4.7221   -3.0593    2.0184 H   0  0  0  0  0  0  0  0  0  0  0  0
   -6.8157   -1.7456    1.9425 H   0  0  0  0  0  0  0  0  0  0  0  0
   -6.7830    0.5715    1.0396 H   0  0  0  0  0  0  0  0  0  0  0  0
   -4.6795    1.5415    0.2342 H   0  0  0  0  0  0  0  0  0  0  0  0
   -1.7131    2.5721    1.6225 H   0  0  0  0  0  0  0  0  0  0  0  0
   -1.5288    4.8728    0.7057 H   0  0  0  0  0  0  0  0  0  0  0  0
   -2.1941    3.3793   -3.2516 H   0  0  0  0  0  0  0  0  0  0  0  0
   -2.3823    1.0682   -2.3658 H   0  0  0  0  0  0  0  0  0  0  0  0
    0.3535   -3.1979    0.0905 H   0  0  0  0  0  0  0  0  0  0  0  0
    2.0533   -2.7047    1.8512 H   0  0  0  0  0  0  0  0  0  0  0  0
    0.8710   -1.6812    2.7676 H   0  0  0  0  0  0  0  0  0  0  0  0
    0.4977   -4.6801    2.0770 H   0  0  0  0  0  0  0  0  0  0  0  0
   -0.6862   -3.6405    2.9816 H   0  0  0  0  0  0  0  0  0  0  0  0
    6.7207   -0.1995   -1.1389 H   0  0  0  0  0  0  0  0  0  0  0  0
    5.7564   -1.5478   -0.5054 H   0  0  0  0  0  0  0  0  0  0  0  0
  2  1  1  0
  2  3  1  0
  3  4  1  0
  4  5  1  0
  4  6  1  0
  6  7  2  0
  7  8  1  0
  8  9  2  0
  9 10  1  0
 10 11  2  0
 11 12  1  0
 12 13  2  0
 13 14  1  0
 14 15  2  0
 15 16  1  0
 11 16  1  0
 16 17  2  0
  8 17  1  0
 17 18  1  0
 18 19  2  0
 19 20  1  0
 20 21  2  0
 21 22  1  0
 21 23  1  0
 23 24  2  0
 18 24  1  0
  9 25  1  0
 25 26  1  0
 26 27  1  0
 25 27  1  0
  2 28  1  0
 28 29  1  0
 29 30  2  0
 29 31  1  0
 34 33  1  0
 34 35  1  0
 35 36  1  0
 36 37  1  0
 36 38  1  0
 38 39  2  0
 39 40  1  0
 40 41  2  0
 41 42  1  0
 42 43  2  0
 43 44  1  0
 44 45  2  0
 45 46  1  0
 46 47  2  0
 47 48  1  0
 43 48  1  0
 48 49  2  0
 40 49  1  0
 49 50  1  0
 50 51  2  0
 51 52  1  0
 52 53  2  0
 53 54  1  0
 53 55  1  0
 55 56  2  0
 50 56  1  0
 41 57  1  0
 57 58  1  0
 58 59  1  0
 57 59  1  0
 34 60  1  0
 60 61  1  0
 61 62  2  0
 61 63  1  0
  1 64  1  0
  2 65  1  6
  3 66  1  0
  3 67  1  0
  4 68  1  6
  5 69  1  0
  6 70  1  0
  7 71  1  0
 12 72  1  0
 13 73  1  0
 14 74  1  0
 15 75  1  0
 19 76  1  0
 20 77  1  0
 23 78  1  0
 24 79  1  0
 25 80  1  0
 26 81  1  0
 26 82  1  0
 27 83  1  0
 27 84  1  0
 28 85  1  0
 28 86  1  0
 33 87  1  0
 34 88  1  6
 35 89  1  0
 35 90  1  0
 36 91  1  6
 37 92  1  0
 38 93  1  0
 39 94  1  0
 44 95  1  0
 45 96  1  0
 46 97  1  0
 47 98  1  0
 51 99  1  0
 52100  1  0
 55101  1  0
 56102  1  0
 57103  1  0
 58104  1  0
 58105  1  0
 59106  1  0
 59107  1  0
 60108  1  0
 60109  1  0
M  CHG  3  31  -1  32   2  63  -1
M  END
$$$$
