
     RDKit          3D

109114  0  0  0  0  0  0  0  0999 V2000
    4.6000   -1.5501   -0.9739 O   0  0  0  0  0  0  0  0  0  0  0  0
    4.5642   -1.2814    0.4281 C   0  0  2  0  0  0  0  0  0  0  0  0
    3.2280   -0.6371    0.8356 C   0  0  0  0  0  0  0  0  0  0  0  0
    2.6134    0.3858   -0.1269 C   0  0  2  0  0  0  0  0  0  0  0  0
    3.2306    1.6573   -0.0086 O   0  0  0  0  0  0  0  0  0  0  0  0
    1.1764    0.6221    0.2495 C   0  0  0  0  0  0  0  0  0  0  0  0
    0.1391    0.4442   -0.5827 C   0  0  0  0  0  0  0  0  0  0  0  0
   -1.2568    0.7065   -0.1875 C   0  0  0  0  0  0  0  0  0  0  0  0
   -1.7113    2.0200    0.0247 C   0  0  0  0  0  0  0  0  0  0  0  0
   -3.0009    2.2698    0.3773 N   0  0  0  0  0  0  0  0  0  0  0  0
   -3.8658    1.2614    0.5349 C   0  0  0  0  0  0  0  0  0  0  0  0
   -5.1650    1.5816    0.9057 C   0  0  0  0  0  0  0  0  0  0  0  0
   -6.1430    0.6043    1.0906 C   0  0  0  0  0  0  0  0  0  0  0  0
   -5.8160   -0.7303    0.9070 C   0  0  0  0  0  0  0  0  0  0  0  0
   -4.5141   -1.0758    0.5440 C   0  0  0  0  0  0  0  0  0  0  0  0
   -3.5145   -0.0866    0.3447 C   0  0  0  0  0  0  0  0  0  0  0  0
   -2.1709   -0.3646   -0.0360 C   0  0  0  0  0  0  0  0  0  0  0  0
   -1.7345   -1.7579   -0.2528 C   0  0  0  0  0  0  0  0  0  0  0  0
   -1.9771   -2.3982   -1.4791 C   0  0  0  0  0  0  0  0  0  0  0  0
   -1.5755   -3.7195   -1.6784 C   0  0  0  0  0  0  0  0  0  0  0  0
   -0.9172   -4.3988   -0.6600 C   0  0  0  0  0  0  0  0  0  0  0  0
   -0.5337   -5.6669   -0.8555 F   0  0  0  0  0  0  0  0  0  0  0  0
   -0.6649   -3.7857    0.5592 C   0  0  0  0  0  0  0  0  0  0  0  0
   -1.0725   -2.4672    0.7651 C   0  0  0  0  0  0  0  0  0  0  0  0
   -0.8041    3.2351   -0.1066 C   0  0  0  0  0  0  0  0  0  0  0  0
   -0.3536    3.6985   -1.4742 C   0  0  0  0  0  0  0  0  0  0  0  0
   -1.3260    4.5291   -0.6957 C   0  0  0  0  0  0  0  0  0  0  0  0
    5.8350   -0.5814    0.8980 C   0  0  0  0  0  0  0  0  0  0  0  0
    6.2297    0.6973    0.1746 C   0  0  0  0  0  0  0  0  0  0  0  0
    7.1784    1.3449    0.6862 O   0  0  0  0  0  0  0  0  0  0  0  0
    5.5442    0.9491   -0.8644 O   0  0  0  0  0  0  0  0  0  0  0  0
    0.0000    0.0000    0.0000 Ca  0  0  0  0  0 15  0  0  0  0  0  0
    5.4991    1.1295    0.2990 O   0  0  0  0  0  0  0  0  0  0  0  0
    4.7994   -0.0562   -0.1153 C   0  0  2  0  0  0  0  0  0  0  0  0
    3.3019    0.2706   -0.0673 C   0  0  0  0  0  0  0  0  0  0  0  0
    2.3772   -0.8600   -0.5431 C   0  0  2  0  0  0  0  0  0  0  0  0
    2.7686   -1.3089   -1.8400 O   0  0  0  0  0  0  0  0  0  0  0  0
    0.9298   -0.4601   -0.6738 C   0  0  0  0  0  0  0  0  0  0  0  0
    0.2635    0.3737    0.1408 C   0  0  0  0  0  0  0  0  0  0  0  0
   -1.1422    0.7943   -0.0427 C   0  0  0  0  0  0  0  0  0  0  0  0
   -1.4094    2.1762   -0.1151 C   0  0  0  0  0  0  0  0  0  0  0  0
   -2.6713    2.6504   -0.2761 N   0  0  0  0  0  0  0  0  0  0  0  0
   -3.6975    1.7979   -0.3375 C   0  0  0  0  0  0  0  0  0  0  0  0
   -4.9665    2.3380   -0.4930 C   0  0  0  0  0  0  0  0  0  0  0  0
   -6.1092    1.5397   -0.5541 C   0  0  0  0  0  0  0  0  0  0  0  0
   -5.9850    0.1653   -0.4540 C   0  0  0  0  0  0  0  0  0  0  0  0
   -4.7173   -0.3971   -0.2972 C   0  0  0  0  0  0  0  0  0  0  0  0
   -3.5453    0.4016   -0.2434 C   0  0  0  0  0  0  0  0  0  0  0  0
   -2.2258   -0.1144   -0.0989 C   0  0  0  0  0  0  0  0  0  0  0  0
   -2.0070   -1.5768   -0.0085 C   0  0  0  0  0  0  0  0  0  0  0  0
   -2.1338   -2.3899   -1.1522 C   0  0  0  0  0  0  0  0  0  0  0  0
   -1.9377   -3.7703   -1.0731 C   0  0  0  0  0  0  0  0  0  0  0  0
   -1.6013   -4.3436    0.1454 C   0  0  0  0  0  0  0  0  0  0  0  0
   -1.4074   -5.6684    0.2223 F   0  0  0  0  0  0  0  0  0  0  0  0
   -1.4608   -3.5649    1.2864 C   0  0  0  0  0  0  0  0  0  0  0  0
   -1.6672   -2.1852    1.2107 C   0  0  0  0  0  0  0  0  0  0  0  0
   -0.2970    3.2156   -0.0322 C   0  0  0  0  0  0  0  0  0  0  0  0
    0.1587    3.7056    1.3284 C   0  0  0  0  0  0  0  0  0  0  0  0
   -0.5821    4.6308    0.4143 C   0  0  0  0  0  0  0  0  0  0  0  0
    5.1890   -1.2038    0.8098 C   0  0  0  0  0  0  0  0  0  0  0  0
    6.5898   -1.6356    0.3866 C   0  0  0  0  0  0  0  0  0  0  0  0
    7.4537   -0.7097    0.3918 O   0  0  0  0  0  0  0  0  0  0  0  0
    6.6939   -2.8536    0.0636 O   0  0  0  0  0  0  0  0  0  0  0  0
    4.9207   -0.6989   -1.3708 H   0  0  0  0  0  0  0  0  0  0  0  0
    4.5801   -2.2614    0.9176 H   0  0  0  0  0  0  0  0  0  0  0  0
    2.5096   -1.4675    0.9237 H   0  0  0  0  0  0  0  0  0  0  0  0
    3.3326   -0.2004    1.8366 H   0  0  0  0  0  0  0  0  0  0  0  0
    2.6816    0.0616   -1.1697 H   0  0  0  0  0  0  0  0  0  0  0  0
    4.1232    1.5584   -0.4327 H   0  0  0  0  0  0  0  0  0  0  0  0
    1.0134    0.9838    1.2608 H   0  0  0  0  0  0  0  0  0  0  0  0
    0.2994    0.0922   -1.5962 H   0  0  0  0  0  0  0  0  0  0  0  0
   -5.4212    2.6282    1.0541 H   0  0  0  0  0  0  0  0  0  0  0  0
   -7.1486    0.8915    1.3892 H   0  0  0  0  0  0  0  0  0  0  0  0
   -6.5639   -1.5049    1.0543 H   0  0  0  0  0  0  0  0  0  0  0  0
   -4.2814   -2.1318    0.4147 H   0  0  0  0  0  0  0  0  0  0  0  0
   -2.4829   -1.8655   -2.2810 H   0  0  0  0  0  0  0  0  0  0  0  0
   -1.7636   -4.2185   -2.6225 H   0  0  0  0  0  0  0  0  0  0  0  0
   -0.1522   -4.3336    1.3417 H   0  0  0  0  0  0  0  0  0  0  0  0
   -0.8631   -1.9858    1.7181 H   0  0  0  0  0  0  0  0  0  0  0  0
   -0.0877    3.3582    0.7041 H   0  0  0  0  0  0  0  0  0  0  0  0
   -0.7164    3.1680   -2.3478 H   0  0  0  0  0  0  0  0  0  0  0  0
    0.6749    4.0353   -1.5592 H   0  0  0  0  0  0  0  0  0  0  0  0
   -0.9652    5.4599   -0.2705 H   0  0  0  0  0  0  0  0  0  0  0  0
   -2.3529    4.5718   -1.0411 H   0  0  0  0  0  0  0  0  0  0  0  0
    5.7653   -0.3721    1.9756 H   0  0  0  0  0  0  0  0  0  0  0  0
    6.6765   -1.2737    0.7581 H   0  0  0  0  0  0  0  0  0  0  0  0
    6.4408    0.8315    0.3739 H   0  0  0  0  0  0  0  0  0  0  0  0
    5.1032   -0.2555   -1.1487 H   0  0  0  0  0  0  0  0  0  0  0  0
    3.1379    1.1613   -0.6927 H   0  0  0  0  0  0  0  0  0  0  0  0
    3.0380    0.5821    0.9524 H   0  0  0  0  0  0  0  0  0  0  0  0
    2.4204   -1.7155    0.1370 H   0  0  0  0  0  0  0  0  0  0  0  0
    3.5937   -1.8172   -1.7268 H   0  0  0  0  0  0  0  0  0  0  0  0
    0.4100   -0.9051   -1.5205 H   0  0  0  0  0  0  0  0  0  0  0  0
    0.7707    0.8317    0.9825 H   0  0  0  0  0  0  0  0  0  0  0  0
   -5.0671    3.4182   -0.5750 H   0  0  0  0  0  0  0  0  0  0  0  0
   -7.0876    1.9970   -0.6857 H   0  0  0  0  0  0  0  0  0  0  0  0
   -6.8628   -0.4732   -0.4848 H   0  0  0  0  0  0  0  0  0  0  0  0
   -4.6540   -1.4789   -0.2062 H   0  0  0  0  0  0  0  0  0  0  0  0
   -2.3809   -1.9477   -2.1163 H   0  0  0  0  0  0  0  0  0  0  0  0
   -2.0210   -4.3981   -1.9543 H   0  0  0  0  0  0  0  0  0  0  0  0
   -1.1742   -4.0317    2.2233 H   0  0  0  0  0  0  0  0  0  0  0  0
   -1.5538   -1.5818    2.1066 H   0  0  0  0  0  0  0  0  0  0  0  0
    0.4756    3.1141   -0.7923 H   0  0  0  0  0  0  0  0  0  0  0  0
   -0.3671    3.3427    2.2022 H   0  0  0  0  0  0  0  0  0  0  0  0
    1.2230    3.8651    1.4759 H   0  0  0  0  0  0  0  0  0  0  0  0
   -1.6039    4.8939    0.6652 H   0  0  0  0  0  0  0  0  0  0  0  0
   -0.0321    5.4236   -0.0752 H   0  0  0  0  0  0  0  0  0  0  0  0
    5.2138   -0.8852    1.8572 H   0  0  0  0  0  0  0  0  0  0  0  0
    4.5165   -2.0618    0.7210 H   0  0  0  0  0  0  0  0  0  0  0  0
  2  1  1  0
  2  3  1  0
  3  4  1  0
  4  5  1  0
  4  6  1  0
  6  7  2  0
  7  8  1  0
  8  9  2  0
  9 10  1  0
 10 11  2  0
 11 12  1  0
 12 13  2  0
 13 14  1  0
 14 15  2  0
 15 16  1  0
 11 16  1  0
 16 17  2  0
  8 17  1  0
 17 18  1  0
 18 19  2  0
 19 20  1  0
 20 21  2  0
 21 22  1  0
 21 23  1  0
 23 24  2  0
 18 24  1  0
  9 25  1  0
 25 26  1  0
 26 27  1  0
 25 27  1  0
  2 28  1  0
 28 29  1  0
 29 30  2  0
 29 31  1  0
 34 33  1  0
 34 35  1  0
 35 36  1  0
 36 37  1  0
 36 38  1  0
 38 39  2  0
 39 40  1  0
 40 41  2  0
 41 42  1  0
 42 43  2  0
 43 44  1  0
 44 45  2  0
 45 46  1  0
 46 47  2  0
 47 48  1  0
 43 48  1  0
 48 49  2  0
 40 49  1  0
 49 50  1  0
 50 51  2  0
 51 52  1  0
 52 53  2  0
 53 54  1  0
 53 55  1  0
 55 56  2  0
 50 56  1  0
 41 57  1  0
 57 58  1  0
 58 59  1  0
 57 59  1  0
 34 60  1  0
 60 61  1  0
 61 62  2  0
 61 63  1  0
  1 64  1  0
  2 65  1  1
  3 66  1  0
  3 67  1  0
  4 68  1  6
  5 69  1  0
  6 70  1  0
  7 71  1  0
 12 72  1  0
 13 73  1  0
 14 74  1  0
 15 75  1  0
 19 76  1  0
 20 77  1  0
 23 78  1  0
 24 79  1  0
 25 80  1  0
 26 81  1  0
 26 82  1  0
 27 83  1  0
 27 84  1  0
 28 85  1  0
 28 86  1  0
 33 87  1  0
 34 88  1  6
 35 89  1  0
 35 90  1  0
 36 91  1  1
 37 92  1  0
 38 93  1  0
 39 94  1  0
 44 95  1  0
 45 96  1  0
 46 97  1  0
 47 98  1  0
 51 99  1  0
 52100  1  0
 55101  1  0
 56102  1  0
 57103  1  0
 58104  1  0
 58105  1  0
 59106  1  0
 59107  1  0
 60108  1  0
 60109  1  0
M  CHG  3  31  -1  32   2  63  -1
M  END
$$$$
