
     RDKit          3D

109114  0  0  0  0  0  0  0  0999 V2000
    5.1087    1.3018    0.8100 O   0  0  0  0  0  0  0  0  0  0  0  0
    4.7872    0.2672   -0.1273 C   0  0  2  0  0  0  0  0  0  0  0  0
    3.4237   -0.3233    0.2511 C   0  0  0  0  0  0  0  0  0  0  0  0
    2.3408    0.7534    0.3912 C   0  0  2  0  0  0  0  0  0  0  0  0
    2.5568    1.5216    1.5720 O   0  0  0  0  0  0  0  0  0  0  0  0
    0.9887    0.1148    0.5179 C   0  0  0  0  0  0  0  0  0  0  0  0
    0.0539    0.1839   -0.4425 C   0  0  0  0  0  0  0  0  0  0  0  0
   -1.2567   -0.4609   -0.2710 C   0  0  0  0  0  0  0  0  0  0  0  0
   -1.4089   -1.8258   -0.5603 C   0  0  0  0  0  0  0  0  0  0  0  0
   -2.5960   -2.4577   -0.3635 N   0  0  0  0  0  0  0  0  0  0  0  0
   -3.6451   -1.7773    0.1117 C   0  0  0  0  0  0  0  0  0  0  0  0
   -4.8227   -2.4828    0.3256 C   0  0  0  0  0  0  0  0  0  0  0  0
   -5.9721   -1.8740    0.8388 C   0  0  0  0  0  0  0  0  0  0  0  0
   -5.9548   -0.5201    1.1388 C   0  0  0  0  0  0  0  0  0  0  0  0
   -4.7812    0.2095    0.9292 C   0  0  0  0  0  0  0  0  0  0  0  0
   -3.6020   -0.4015    0.4182 C   0  0  0  0  0  0  0  0  0  0  0  0
   -2.3683    0.2741    0.2073 C   0  0  0  0  0  0  0  0  0  0  0  0
   -2.2479    1.7263    0.4645 C   0  0  0  0  0  0  0  0  0  0  0  0
   -1.7196    2.2089    1.6739 C   0  0  0  0  0  0  0  0  0  0  0  0
   -1.5996    3.5829    1.9002 C   0  0  0  0  0  0  0  0  0  0  0  0
   -2.0121    4.4804    0.9225 C   0  0  0  0  0  0  0  0  0  0  0  0
   -1.9131    5.7989    1.1428 F   0  0  0  0  0  0  0  0  0  0  0  0
   -2.5439    4.0282   -0.2776 C   0  0  0  0  0  0  0  0  0  0  0  0
   -2.6621    2.6552   -0.5072 C   0  0  0  0  0  0  0  0  0  0  0  0
   -0.2606   -2.6720   -1.0824 C   0  0  0  0  0  0  0  0  0  0  0  0
   -0.5105   -3.7302   -2.1335 C   0  0  0  0  0  0  0  0  0  0  0  0
    0.2317   -2.4797   -2.5015 C   0  0  0  0  0  0  0  0  0  0  0  0
    5.8672   -0.8040   -0.1081 C   0  0  0  0  0  0  0  0  0  0  0  0
    7.1422   -0.2480   -0.7419 C   0  0  0  0  0  0  0  0  0  0  0  0
    7.3772    0.9679   -0.4714 O   0  0  0  0  0  0  0  0  0  0  0  0
    7.7988   -1.0690   -1.4406 O   0  0  0  0  0  0  0  0  0  0  0  0
    0.0000    0.0000    0.0000 Ca  0  0  0  0  0 15  0  0  0  0  0  0
    4.7255    1.3982   -0.3001 O   0  0  0  0  0  0  0  0  0  0  0  0
    4.6765    0.3258   -1.2480 C   0  0  2  0  0  0  0  0  0  0  0  0
    3.1988   -0.0039   -1.5175 C   0  0  0  0  0  0  0  0  0  0  0  0
    2.4267   -0.5381   -0.2986 C   0  0  2  0  0  0  0  0  0  0  0  0
    2.4892   -1.9625   -0.2300 O   0  0  0  0  0  0  0  0  0  0  0  0
    0.9611   -0.2314   -0.4290 C   0  0  0  0  0  0  0  0  0  0  0  0
    0.2419    0.3973    0.5140 C   0  0  0  0  0  0  0  0  0  0  0  0
   -1.1885    0.7215    0.3483 C   0  0  0  0  0  0  0  0  0  0  0  0
   -1.5640    2.0754    0.2483 C   0  0  0  0  0  0  0  0  0  0  0  0
   -2.8605    2.4398    0.0758 N   0  0  0  0  0  0  0  0  0  0  0  0
   -3.8165    1.5078    0.0232 C   0  0  0  0  0  0  0  0  0  0  0  0
   -5.1238    1.9413   -0.1494 C   0  0  0  0  0  0  0  0  0  0  0  0
   -6.1961    1.0526   -0.2339 C   0  0  0  0  0  0  0  0  0  0  0  0
   -5.9619   -0.3083   -0.1162 C   0  0  0  0  0  0  0  0  0  0  0  0
   -4.6558   -0.7649    0.0664 C   0  0  0  0  0  0  0  0  0  0  0  0
   -3.5560    0.1306    0.1279 C   0  0  0  0  0  0  0  0  0  0  0  0
   -2.1985   -0.2699    0.2895 C   0  0  0  0  0  0  0  0  0  0  0  0
   -1.8587   -1.7016    0.3938 C   0  0  0  0  0  0  0  0  0  0  0  0
   -1.7844   -2.5156   -0.7532 C   0  0  0  0  0  0  0  0  0  0  0  0
   -1.4989   -3.8768   -0.6451 C   0  0  0  0  0  0  0  0  0  0  0  0
   -1.2920   -4.4258    0.6161 C   0  0  0  0  0  0  0  0  0  0  0  0
   -1.0299   -5.7355    0.7286 F   0  0  0  0  0  0  0  0  0  0  0  0
   -1.3617   -3.6481    1.7669 C   0  0  0  0  0  0  0  0  0  0  0  0
   -1.6371   -2.2841    1.6537 C   0  0  0  0  0  0  0  0  0  0  0  0
   -0.5508    3.2054    0.3112 C   0  0  0  0  0  0  0  0  0  0  0  0
   -0.0040    3.6681    1.6471 C   0  0  0  0  0  0  0  0  0  0  0  0
   -0.9236    4.5588    0.8761 C   0  0  0  0  0  0  0  0  0  0  0  0
    5.4809   -0.8676   -0.7521 C   0  0  0  0  0  0  0  0  0  0  0  0
    6.9677   -0.5277   -0.8068 C   0  0  0  0  0  0  0  0  0  0  0  0
    7.7143   -1.4586   -1.2017 O   0  0  0  0  0  0  0  0  0  0  0  0
    7.2616    0.6478   -0.4377 O   0  0  0  0  0  0  0  0  0  0  0  0
    6.0366    1.5535    0.5574 H   0  0  0  0  0  0  0  0  0  0  0  0
    4.7046    0.7274   -1.1196 H   0  0  0  0  0  0  0  0  0  0  0  0
    3.1366   -1.0599   -0.5115 H   0  0  0  0  0  0  0  0  0  0  0  0
    3.5253   -0.8554    1.2102 H   0  0  0  0  0  0  0  0  0  0  0  0
    2.3772    1.4348   -0.4644 H   0  0  0  0  0  0  0  0  0  0  0  0
    3.5202    1.7378    1.5450 H   0  0  0  0  0  0  0  0  0  0  0  0
    0.8040   -0.4268    1.4435 H   0  0  0  0  0  0  0  0  0  0  0  0
    0.2196    0.7249   -1.3708 H   0  0  0  0  0  0  0  0  0  0  0  0
   -4.8447   -3.5456    0.0899 H   0  0  0  0  0  0  0  0  0  0  0  0
   -6.8697   -2.4627    1.0177 H   0  0  0  0  0  0  0  0  0  0  0  0
   -6.8386   -0.0314    1.5511 H   0  0  0  0  0  0  0  0  0  0  0  0
   -4.7909    1.2713    1.1774 H   0  0  0  0  0  0  0  0  0  0  0  0
   -1.3662    1.5138    2.4343 H   0  0  0  0  0  0  0  0  0  0  0  0
   -1.1769    3.9546    2.8285 H   0  0  0  0  0  0  0  0  0  0  0  0
   -2.8581    4.7436   -1.0313 H   0  0  0  0  0  0  0  0  0  0  0  0
   -3.0787    2.3045   -1.4500 H   0  0  0  0  0  0  0  0  0  0  0  0
    0.4957   -2.9192   -0.3394 H   0  0  0  0  0  0  0  0  0  0  0  0
    0.0533   -4.6548   -2.0721 H   0  0  0  0  0  0  0  0  0  0  0  0
   -1.5220   -3.8564   -2.5070 H   0  0  0  0  0  0  0  0  0  0  0  0
    1.2987   -2.5563   -2.6822 H   0  0  0  0  0  0  0  0  0  0  0  0
   -0.2714   -1.7528   -3.1322 H   0  0  0  0  0  0  0  0  0  0  0  0
    6.1025   -1.1125    0.9180 H   0  0  0  0  0  0  0  0  0  0  0  0
    5.5432   -1.6814   -0.6792 H   0  0  0  0  0  0  0  0  0  0  0  0
    5.7009    1.4970   -0.1227 H   0  0  0  0  0  0  0  0  0  0  0  0
    5.1140    0.7156   -2.1779 H   0  0  0  0  0  0  0  0  0  0  0  0
    2.7282    0.9269   -1.8583 H   0  0  0  0  0  0  0  0  0  0  0  0
    3.1392   -0.7248   -2.3446 H   0  0  0  0  0  0  0  0  0  0  0  0
    2.8214   -0.1321    0.6405 H   0  0  0  0  0  0  0  0  0  0  0  0
    3.3974   -2.2343   -0.4616 H   0  0  0  0  0  0  0  0  0  0  0  0
    0.4842   -0.5604   -1.3481 H   0  0  0  0  0  0  0  0  0  0  0  0
    0.7087    0.7323    1.4379 H   0  0  0  0  0  0  0  0  0  0  0  0
   -5.3162    3.0088   -0.2242 H   0  0  0  0  0  0  0  0  0  0  0  0
   -7.2070    1.4251   -0.3800 H   0  0  0  0  0  0  0  0  0  0  0  0
   -6.7812   -1.0186   -0.1748 H   0  0  0  0  0  0  0  0  0  0  0  0
   -4.4992   -1.8371    0.1568 H   0  0  0  0  0  0  0  0  0  0  0  0
   -1.9501   -2.0862   -1.7378 H   0  0  0  0  0  0  0  0  0  0  0  0
   -1.4403   -4.5085   -1.5272 H   0  0  0  0  0  0  0  0  0  0  0  0
   -1.1968   -4.1061    2.7408 H   0  0  0  0  0  0  0  0  0  0  0  0
   -1.6810   -1.6714    2.5520 H   0  0  0  0  0  0  0  0  0  0  0  0
    0.1320    3.2346   -0.5336 H   0  0  0  0  0  0  0  0  0  0  0  0
    1.0544    3.9162    1.6893 H   0  0  0  0  0  0  0  0  0  0  0  0
   -0.3911    3.2016    2.5449 H   0  0  0  0  0  0  0  0  0  0  0  0
   -1.9281    4.7016    1.2554 H   0  0  0  0  0  0  0  0  0  0  0  0
   -0.5057    5.4291    0.3851 H   0  0  0  0  0  0  0  0  0  0  0  0
    5.2948   -1.7533   -1.3703 H   0  0  0  0  0  0  0  0  0  0  0  0
    5.2399   -1.1061    0.2908 H   0  0  0  0  0  0  0  0  0  0  0  0
  2  1  1  0
  2  3  1  0
  3  4  1  0
  4  5  1  0
  4  6  1  0
  6  7  2  0
  7  8  1  0
  8  9  2  0
  9 10  1  0
 10 11  2  0
 11 12  1  0
 12 13  2  0
 13 14  1  0
 14 15  2  0
 15 16  1  0
 11 16  1  0
 16 17  2  0
  8 17  1  0
 17 18  1  0
 18 19  2  0
 19 20  1  0
 20 21  2  0
 21 22  1  0
 21 23  1  0
 23 24  2  0
 18 24  1  0
  9 25  1  0
 25 26  1  0
 26 27  1  0
 25 27  1  0
  2 28  1  0
 28 29  1  0
 29 30  2  0
 29 31  1  0
 34 33  1  0
 34 35  1  0
 35 36  1  0
 36 37  1  0
 36 38  1  0
 38 39  2  0
 39 40  1  0
 40 41  2  0
 41 42  1  0
 42 43  2  0
 43 44  1  0
 44 45  2  0
 45 46  1  0
 46 47  2  0
 47 48  1  0
 43 48  1  0
 48 49  2  0
 40 49  1  0
 49 50  1  0
 50 51  2  0
 51 52  1  0
 52 53  2  0
 53 54  1  0
 53 55  1  0
 55 56  2  0
 50 56  1  0
 41 57  1  0
 57 58  1  0
 58 59  1  0
 57 59  1  0
 34 60  1  0
 60 61  1  0
 61 62  2  0
 61 63  1  0
  1 64  1  0
  2 65  1  6
  3 66  1  0
  3 67  1  0
  4 68  1  6
  5 69  1  0
  6 70  1  0
  7 71  1  0
 12 72  1  0
 13 73  1  0
 14 74  1  0
 15 75  1  0
 19 76  1  0
 20 77  1  0
 23 78  1  0
 24 79  1  0
 25 80  1  0
 26 81  1  0
 26 82  1  0
 27 83  1  0
 27 84  1  0
 28 85  1  0
 28 86  1  0
 33 87  1  0
 34 88  1  6
 35 89  1  0
 35 90  1  0
 36 91  1  1
 37 92  1  0
 38 93  1  0
 39 94  1  0
 44 95  1  0
 45 96  1  0
 46 97  1  0
 47 98  1  0
 51 99  1  0
 52100  1  0
 55101  1  0
 56102  1  0
 57103  1  0
 58104  1  0
 58105  1  0
 59106  1  0
 59107  1  0
 60108  1  0
 60109  1  0
M  CHG  3  31  -1  32   2  63  -1
M  END
$$$$
