
     RDKit          3D

109114  0  0  0  0  0  0  0  0999 V2000
    4.6051    2.5266    0.8311 O   0  0  0  0  0  0  0  0  0  0  0  0
    4.6772    1.1301    0.5199 C   0  0  2  0  0  0  0  0  0  0  0  0
    3.3207    0.4876    0.8417 C   0  0  0  0  0  0  0  0  0  0  0  0
    2.1602    1.2119    0.1449 C   0  0  2  0  0  0  0  0  0  0  0  0
    1.9609    2.4981    0.7217 O   0  0  0  0  0  0  0  0  0  0  0  0
    0.8702    0.4674    0.3283 C   0  0  0  0  0  0  0  0  0  0  0  0
    0.1588   -0.0719   -0.6734 C   0  0  0  0  0  0  0  0  0  0  0  0
   -1.0903   -0.8128   -0.4246 C   0  0  0  0  0  0  0  0  0  0  0  0
   -1.0483   -2.2134   -0.3051 C   0  0  0  0  0  0  0  0  0  0  0  0
   -2.1718   -2.9319   -0.0426 N   0  0  0  0  0  0  0  0  0  0  0  0
   -3.3493   -2.3101    0.0951 C   0  0  0  0  0  0  0  0  0  0  0  0
   -4.4630   -3.0950    0.3629 C   0  0  0  0  0  0  0  0  0  0  0  0
   -5.7361   -2.5458    0.5213 C   0  0  0  0  0  0  0  0  0  0  0  0
   -5.9079   -1.1747    0.4068 C   0  0  0  0  0  0  0  0  0  0  0  0
   -4.8023   -0.3679    0.1411 C   0  0  0  0  0  0  0  0  0  0  0  0
   -3.5022   -0.9161   -0.0208 C   0  0  0  0  0  0  0  0  0  0  0  0
   -2.3337   -0.1479   -0.2935 C   0  0  0  0  0  0  0  0  0  0  0  0
   -2.4297    1.3181   -0.4593 C   0  0  0  0  0  0  0  0  0  0  0  0
   -2.7501    1.8747   -1.7108 C   0  0  0  0  0  0  0  0  0  0  0  0
   -2.8615    3.2572   -1.8649 C   0  0  0  0  0  0  0  0  0  0  0  0
   -2.6562    4.0848   -0.7671 C   0  0  0  0  0  0  0  0  0  0  0  0
   -2.7775    5.4111   -0.9124 F   0  0  0  0  0  0  0  0  0  0  0  0
   -2.3352    3.5611    0.4783 C   0  0  0  0  0  0  0  0  0  0  0  0
   -2.2255    2.1786    0.6330 C   0  0  0  0  0  0  0  0  0  0  0  0
    0.2466   -2.9970   -0.4494 C   0  0  0  0  0  0  0  0  0  0  0  0
    0.2448   -4.3828   -1.0562 C   0  0  0  0  0  0  0  0  0  0  0  0
    0.8311   -3.2372   -1.8237 C   0  0  0  0  0  0  0  0  0  0  0  0
    5.7987    0.4761    1.3168 C   0  0  0  0  0  0  0  0  0  0  0  0
    7.1692    1.0300    0.9256 C   0  0  0  0  0  0  0  0  0  0  0  0
    8.1489    0.2948    1.2274 O   0  0  0  0  0  0  0  0  0  0  0  0
    7.1548    2.1694    0.3694 O   0  0  0  0  0  0  0  0  0  0  0  0
    0.0000    0.0000    0.0000 Ca  0  0  0  0  0 15  0  0  0  0  0  0
    3.0675    0.4750   -0.6452 O   0  0  0  0  0  0  0  0  0  0  0  0
    3.9134   -0.2961    0.2045 C   0  0  2  0  0  0  0  0  0  0  0  0
    3.5186   -0.0730    1.6736 C   0  0  0  0  0  0  0  0  0  0  0  0
    2.1972   -0.7213    2.1332 C   0  0  2  0  0  0  0  0  0  0  0  0
    2.0839   -2.0934    1.7659 O   0  0  0  0  0  0  0  0  0  0  0  0
    0.9362    0.0066    1.7486 C   0  0  0  0  0  0  0  0  0  0  0  0
    0.2685   -0.1555    0.5940 C   0  0  0  0  0  0  0  0  0  0  0  0
   -0.9983    0.5282    0.2563 C   0  0  0  0  0  0  0  0  0  0  0  0
   -1.1265    1.9309    0.2888 C   0  0  0  0  0  0  0  0  0  0  0  0
   -2.3120    2.5431    0.0054 N   0  0  0  0  0  0  0  0  0  0  0  0
   -3.3723    1.8183   -0.3679 C   0  0  0  0  0  0  0  0  0  0  0  0
   -4.5503    2.4963   -0.6594 C   0  0  0  0  0  0  0  0  0  0  0  0
   -5.7112    1.8322   -1.0622 C   0  0  0  0  0  0  0  0  0  0  0  0
   -5.6987    0.4519   -1.1781 C   0  0  0  0  0  0  0  0  0  0  0  0
   -4.5279   -0.2495   -0.8872 C   0  0  0  0  0  0  0  0  0  0  0  0
   -3.3416    0.4157   -0.4745 C   0  0  0  0  0  0  0  0  0  0  0  0
   -2.1190   -0.2424   -0.1541 C   0  0  0  0  0  0  0  0  0  0  0  0
   -2.0246   -1.7178   -0.2590 C   0  0  0  0  0  0  0  0  0  0  0  0
   -2.3072   -2.5383    0.8474 C   0  0  0  0  0  0  0  0  0  0  0  0
   -2.2278   -3.9279    0.7384 C   0  0  0  0  0  0  0  0  0  0  0  0
   -1.8653   -4.5000   -0.4753 C   0  0  0  0  0  0  0  0  0  0  0  0
   -1.8039   -5.8342   -0.5807 F   0  0  0  0  0  0  0  0  0  0  0  0
   -1.5752   -3.7122   -1.5830 C   0  0  0  0  0  0  0  0  0  0  0  0
   -1.6557   -2.3227   -1.4757 C   0  0  0  0  0  0  0  0  0  0  0  0
    0.0279    2.8640    0.6298 C   0  0  0  0  0  0  0  0  0  0  0  0
    0.2121    4.1463   -0.1547 C   0  0  0  0  0  0  0  0  0  0  0  0
    1.1846    3.0258   -0.3314 C   0  0  0  0  0  0  0  0  0  0  0  0
    5.3567    0.1401   -0.0370 C   0  0  0  0  0  0  0  0  0  0  0  0
    5.8435   -0.3326   -1.4054 C   0  0  0  0  0  0  0  0  0  0  0  0
    4.9545   -0.3925   -2.3063 O   0  0  0  0  0  0  0  0  0  0  0  0
    7.0772   -0.5949   -1.4689 O   0  0  0  0  0  0  0  0  0  0  0  0
    5.5371    2.8357    0.6575 H   0  0  0  0  0  0  0  0  0  0  0  0
    4.8662    1.0444   -0.5576 H   0  0  0  0  0  0  0  0  0  0  0  0
    3.1604    0.5287    1.9275 H   0  0  0  0  0  0  0  0  0  0  0  0
    3.3437   -0.5686    0.5448 H   0  0  0  0  0  0  0  0  0  0  0  0
    2.3808    1.3439   -0.9202 H   0  0  0  0  0  0  0  0  0  0  0  0
    2.8682    2.8798    0.7968 H   0  0  0  0  0  0  0  0  0  0  0  0
    0.5183    0.3905    1.3535 H   0  0  0  0  0  0  0  0  0  0  0  0
    0.4824   -0.0031   -1.7063 H   0  0  0  0  0  0  0  0  0  0  0  0
   -4.3322   -4.1715    0.4450 H   0  0  0  0  0  0  0  0  0  0  0  0
   -6.5842   -3.1916    0.7248 H   0  0  0  0  0  0  0  0  0  0  0  0
   -6.8924   -0.7305    0.5274 H   0  0  0  0  0  0  0  0  0  0  0  0
   -4.9633    0.7062    0.0657 H   0  0  0  0  0  0  0  0  0  0  0  0
   -2.9059    1.2268   -2.5714 H   0  0  0  0  0  0  0  0  0  0  0  0
   -3.1071    3.6926   -2.8283 H   0  0  0  0  0  0  0  0  0  0  0  0
   -2.1598    4.2260    1.3186 H   0  0  0  0  0  0  0  0  0  0  0  0
   -1.9667    1.7697    1.6076 H   0  0  0  0  0  0  0  0  0  0  0  0
    0.9604   -2.8420    0.3577 H   0  0  0  0  0  0  0  0  0  0  0  0
    0.9268   -5.1171   -0.6409 H   0  0  0  0  0  0  0  0  0  0  0  0
   -0.6997   -4.7942   -1.3974 H   0  0  0  0  0  0  0  0  0  0  0  0
    0.2872   -2.8761   -2.6905 H   0  0  0  0  0  0  0  0  0  0  0  0
    1.9106   -3.1799   -1.9175 H   0  0  0  0  0  0  0  0  0  0  0  0
    5.6646    0.6636    2.3890 H   0  0  0  0  0  0  0  0  0  0  0  0
    5.7979   -0.6066    1.1490 H   0  0  0  0  0  0  0  0  0  0  0  0
    3.4345    0.2953   -1.5509 H   0  0  0  0  0  0  0  0  0  0  0  0
    3.7911   -1.3538   -0.0612 H   0  0  0  0  0  0  0  0  0  0  0  0
    3.4890    1.0019    1.8976 H   0  0  0  0  0  0  0  0  0  0  0  0
    4.3133   -0.5032    2.2971 H   0  0  0  0  0  0  0  0  0  0  0  0
    2.2160   -0.7213    3.2316 H   0  0  0  0  0  0  0  0  0  0  0  0
    2.9754   -2.4463    1.6170 H   0  0  0  0  0  0  0  0  0  0  0  0
    0.5606    0.6979    2.4981 H   0  0  0  0  0  0  0  0  0  0  0  0
    0.6577   -0.8450   -0.1541 H   0  0  0  0  0  0  0  0  0  0  0  0
   -4.5600    3.5804   -0.5706 H   0  0  0  0  0  0  0  0  0  0  0  0
   -6.6127    2.3996   -1.2787 H   0  0  0  0  0  0  0  0  0  0  0  0
   -6.5941   -0.0802   -1.4897 H   0  0  0  0  0  0  0  0  0  0  0  0
   -4.5491   -1.3340   -0.9885 H   0  0  0  0  0  0  0  0  0  0  0  0
   -2.5758   -2.0893    1.8017 H   0  0  0  0  0  0  0  0  0  0  0  0
   -2.4396   -4.5638    1.5913 H   0  0  0  0  0  0  0  0  0  0  0  0
   -1.2794   -4.1805   -2.5171 H   0  0  0  0  0  0  0  0  0  0  0  0
   -1.4140   -1.7054   -2.3397 H   0  0  0  0  0  0  0  0  0  0  0  0
    0.2622    2.9365    1.6885 H   0  0  0  0  0  0  0  0  0  0  0  0
    0.5582    5.0281    0.3745 H   0  0  0  0  0  0  0  0  0  0  0  0
   -0.4666    4.3555   -0.9729 H   0  0  0  0  0  0  0  0  0  0  0  0
    1.1679    2.4649   -1.2590 H   0  0  0  0  0  0  0  0  0  0  0  0
    2.1825    3.1330    0.0828 H   0  0  0  0  0  0  0  0  0  0  0  0
    5.4419    1.2334   -0.0100 H   0  0  0  0  0  0  0  0  0  0  0  0
    6.0166   -0.2743    0.7323 H   0  0  0  0  0  0  0  0  0  0  0  0
  2  1  1  0
  2  3  1  0
  3  4  1  0
  4  5  1  0
  4  6  1  0
  6  7  2  0
  7  8  1  0
  8  9  2  0
  9 10  1  0
 10 11  2  0
 11 12  1  0
 12 13  2  0
 13 14  1  0
 14 15  2  0
 15 16  1  0
 11 16  1  0
 16 17  2  0
  8 17  1  0
 17 18  1  0
 18 19  2  0
 19 20  1  0
 20 21  2  0
 21 22  1  0
 21 23  1  0
 23 24  2  0
 18 24  1  0
  9 25  1  0
 25 26  1  0
 26 27  1  0
 25 27  1  0
  2 28  1  0
 28 29  1  0
 29 30  2  0
 29 31  1  0
 34 33  1  0
 34 35  1  0
 35 36  1  0
 36 37  1  0
 36 38  1  0
 38 39  2  0
 39 40  1  0
 40 41  2  0
 41 42  1  0
 42 43  2  0
 43 44  1  0
 44 45  2  0
 45 46  1  0
 46 47  2  0
 47 48  1  0
 43 48  1  0
 48 49  2  0
 40 49  1  0
 49 50  1  0
 50 51  2  0
 51 52  1  0
 52 53  2  0
 53 54  1  0
 53 55  1  0
 55 56  2  0
 50 56  1  0
 41 57  1  0
 57 58  1  0
 58 59  1  0
 57 59  1  0
 34 60  1  0
 60 61  1  0
 61 62  2  0
 61 63  1  0
  1 64  1  0
  2 65  1  6
  3 66  1  0
  3 67  1  0
  4 68  1  6
  5 69  1  0
  6 70  1  0
  7 71  1  0
 12 72  1  0
 13 73  1  0
 14 74  1  0
 15 75  1  0
 19 76  1  0
 20 77  1  0
 23 78  1  0
 24 79  1  0
 25 80  1  0
 26 81  1  0
 26 82  1  0
 27 83  1  0
 27 84  1  0
 28 85  1  0
 28 86  1  0
 33 87  1  0
 34 88  1  6
 35 89  1  0
 35 90  1  0
 36 91  1  1
 37 92  1  0
 38 93  1  0
 39 94  1  0
 44 95  1  0
 45 96  1  0
 46 97  1  0
 47 98  1  0
 51 99  1  0
 52100  1  0
 55101  1  0
 56102  1  0
 57103  1  0
 58104  1  0
 58105  1  0
 59106  1  0
 59107  1  0
 60108  1  0
 60109  1  0
M  CHG  3  31  -1  32   2  63  -1
M  END
$$$$
