
     RDKit          3D

 63 68  0  0  0  0  0  0  0  0999 V2000
    3.3838    3.8306    0.2734 O   0  0  0  0  0  0  0  0  0  0  0  0
    4.1445    2.8231   -0.3020 C   0  0  2  0  0  0  0  0  0  0  0  0
    3.2171    1.7002   -0.6677 C   0  0  0  0  0  0  0  0  0  0  0  0
    2.5032    1.2040    0.5367 C   0  0  2  0  0  0  0  0  0  0  0  0
    3.4084    0.7458    1.4773 O   0  0  0  0  0  0  0  0  0  0  0  0
    1.5445    0.1322    0.2816 C   0  0  0  0  0  0  0  0  0  0  0  0
    0.2697    0.1584    0.1893 C   0  0  0  0  0  0  0  0  0  0  0  0
   -0.5628   -0.9835   -0.0677 C   0  0  0  0  0  0  0  0  0  0  0  0
   -0.1470   -2.2634   -0.3012 C   0  0  0  0  0  0  0  0  0  0  0  0
   -1.0466   -3.2589   -0.4727 N   0  0  0  0  0  0  0  0  0  0  0  0
   -2.3627   -3.0410   -0.4245 C   0  0  0  0  0  0  0  0  0  0  0  0
   -3.2740   -4.0875   -0.6045 C   0  0  0  0  0  0  0  0  0  0  0  0
   -4.6406   -3.8667   -0.5559 C   0  0  0  0  0  0  0  0  0  0  0  0
   -5.1256   -2.6041   -0.3279 C   0  0  0  0  0  0  0  0  0  0  0  0
   -4.2294   -1.5669   -0.1487 C   0  0  0  0  0  0  0  0  0  0  0  0
   -2.8496   -1.7943   -0.1985 C   0  0  0  0  0  0  0  0  0  0  0  0
   -1.9479   -0.7658   -0.0201 C   0  0  0  0  0  0  0  0  0  0  0  0
   -2.4987    0.5637    0.2196 C   0  0  0  0  0  0  0  0  0  0  0  0
   -2.7566    1.3872   -0.8678 C   0  0  0  0  0  0  0  0  0  0  0  0
   -3.2826    2.6658   -0.6884 C   0  0  0  0  0  0  0  0  0  0  0  0
   -3.5445    3.1031    0.5933 C   0  0  0  0  0  0  0  0  0  0  0  0
   -4.0601    4.3625    0.7205 F   0  0  0  0  0  0  0  0  0  0  0  0
   -3.2973    2.3039    1.6957 C   0  0  0  0  0  0  0  0  0  0  0  0
   -2.7731    1.0315    1.5062 C   0  0  0  0  0  0  0  0  0  0  0  0
    1.2860   -2.6672   -0.4426 C   0  0  0  0  0  0  0  0  0  0  0  0
    1.6617   -3.3070   -1.7784 C   0  0  0  0  0  0  0  0  0  0  0  0
    1.9998   -1.8407   -1.5704 C   0  0  0  0  0  0  0  0  0  0  0  0
    5.3082    2.4922    0.5338 C   0  0  0  0  0  0  0  0  0  0  0  0
    6.2166    1.4544    0.0254 C   0  0  0  0  0  0  0  0  0  0  0  0
    6.0527    0.2171    0.1002 O   0  0  0  0  0  0  0  0  0  0  0  0
    7.4030    1.8712   -0.6192 O   0  0  0  0  0  0  0  0  0  0  0  0
    0.0000    0.0000    0.0000 Ca  0  0  0  0  0 15  0  0  0  0  0  0
    5.3414    0.8683    1.2270 O   0  0  0  0  0  0  0  0  0  0  0  0
    4.4157    1.2885    0.2518 C   0  0  2  0  0  0  0  0  0  0  0  0
    3.0796    0.7059    0.6094 C   0  0  0  0  0  0  0  0  0  0  0  0
    2.0751    1.1636   -0.4354 C   0  0  2  0  0  0  0  0  0  0  0  0
    2.0359    2.5495   -0.4090 O   0  0  0  0  0  0  0  0  0  0  0  0
    0.7357    0.5994   -0.1296 C   0  0  0  0  0  0  0  0  0  0  0  0
    0.5080   -0.6541    0.1444 C   0  0  0  0  0  0  0  0  0  0  0  0
   -0.7881   -1.2453    0.4474 C   0  0  0  0  0  0  0  0  0  0  0  0
   -0.8125   -2.6110    0.7142 C   0  0  0  0  0  0  0  0  0  0  0  0
   -1.9554   -3.2591    1.0077 N   0  0  0  0  0  0  0  0  0  0  0  0
   -3.1314   -2.6098    1.0567 C   0  0  0  0  0  0  0  0  0  0  0  0
   -4.3283   -3.2204    1.3471 C   0  0  0  0  0  0  0  0  0  0  0  0
   -5.5275   -2.5377    1.3878 C   0  0  0  0  0  0  0  0  0  0  0  0
   -5.4997   -1.2033    1.1264 C   0  0  0  0  0  0  0  0  0  0  0  0
   -4.3307   -0.5619    0.8344 C   0  0  0  0  0  0  0  0  0  0  0  0
   -3.1374   -1.2421    0.7952 C   0  0  0  0  0  0  0  0  0  0  0  0
   -1.9648   -0.5701    0.4918 C   0  0  0  0  0  0  0  0  0  0  0  0
   -1.9985    0.8542    0.2238 C   0  0  0  0  0  0  0  0  0  0  0  0
   -1.8425    1.7367    1.2774 C   0  0  0  0  0  0  0  0  0  0  0  0
   -1.8751    3.0849    1.0771 C   0  0  0  0  0  0  0  0  0  0  0  0
   -2.0637    3.5918   -0.1737 C   0  0  0  0  0  0  0  0  0  0  0  0
   -2.1001    4.9230   -0.4432 F   0  0  0  0  0  0  0  0  0  0  0  0
   -2.2196    2.7317   -1.2192 C   0  0  0  0  0  0  0  0  0  0  0  0
   -2.1868    1.3881   -1.0196 C   0  0  0  0  0  0  0  0  0  0  0  0
    0.4299   -3.4363    0.6934 C   0  0  0  0  0  0  0  0  0  0  0  0
    0.8777   -4.0849   -0.5551 C   0  0  0  0  0  0  0  0  0  0  0  0
    1.5260   -2.7712   -0.2016 C   0  0  0  0  0  0  0  0  0  0  0  0
    4.8460    0.6666   -1.0818 C   0  0  0  0  0  0  0  0  0  0  0  0
    6.1989    1.1538   -1.4031 C   0  0  0  0  0  0  0  0  0  0  0  0
    6.3969    2.3907   -1.4672 O   0  0  0  0  0  0  0  0  0  0  0  0
    7.2953    0.3103   -1.6428 O   0  0  0  0  0  0  0  0  0  0  0  0
  2  1  1  1
  2  3  1  0
  3  4  1  0
  4  5  1  1
  4  6  1  0
  6  7  2  0
  7  8  1  0
  8  9  2  0
  9 10  1  0
 10 11  2  0
 11 12  1  0
 12 13  2  0
 13 14  1  0
 14 15  2  0
 15 16  1  0
 11 16  1  0
 16 17  2  0
  8 17  1  0
 17 18  1  0
 18 19  2  0
 19 20  1  0
 20 21  2  0
 21 22  1  0
 21 23  1  0
 23 24  2  0
 18 24  1  0
  9 25  1  0
 25 26  1  0
 26 27  1  0
 25 27  1  0
  2 28  1  0
 28 29  1  0
 29 30  2  0
 29 31  1  0
 34 33  1  1
 34 35  1  0
 35 36  1  0
 36 37  1  1
 36 38  1  0
 38 39  2  0
 39 40  1  0
 40 41  2  0
 41 42  1  0
 42 43  2  0
 43 44  1  0
 44 45  2  0
 45 46  1  0
 46 47  2  0
 47 48  1  0
 43 48  1  0
 48 49  2  0
 40 49  1  0
 49 50  1  0
 50 51  2  0
 51 52  1  0
 52 53  2  0
 53 54  1  0
 53 55  1  0
 55 56  2  0
 50 56  1  0
 41 57  1  0
 57 58  1  0
 58 59  1  0
 57 59  1  0
 34 60  1  0
 60 61  1  0
 61 62  2  0
 61 63  1  0
M  CHG  3  31  -1  32   2  63  -1
M  END
