
     RDKit          3D

109114  0  0  0  0  0  0  0  0999 V2000
   -5.3074    1.4942    0.1839 O   0  0  0  0  0  0  0  0  0  0  0  0
   -4.7357    0.4210    0.9408 C   0  0  2  0  0  0  0  0  0  0  0  0
   -3.4038    0.0033    0.2962 C   0  0  0  0  0  0  0  0  0  0  0  0
   -2.2353    0.9157    0.7021 C   0  0  2  0  0  0  0  0  0  0  0  0
   -2.3085    2.1774    0.0520 O   0  0  0  0  0  0  0  0  0  0  0  0
   -0.9167    0.2566    0.3736 C   0  0  0  0  0  0  0  0  0  0  0  0
   -0.1044    0.5915   -0.6428 C   0  0  0  0  0  0  0  0  0  0  0  0
    1.1554   -0.1223   -0.9164 C   0  0  0  0  0  0  0  0  0  0  0  0
    1.1660   -1.1807   -1.8439 C   0  0  0  0  0  0  0  0  0  0  0  0
    2.3122   -1.8529   -2.1345 N   0  0  0  0  0  0  0  0  0  0  0  0
    3.4528   -1.5205   -1.5190 C   0  0  0  0  0  0  0  0  0  0  0  0
    4.5908   -2.2436   -1.8460 C   0  0  0  0  0  0  0  0  0  0  0  0
    5.8321   -1.9721   -1.2679 C   0  0  0  0  0  0  0  0  0  0  0  0
    5.9460   -0.9504   -0.3381 C   0  0  0  0  0  0  0  0  0  0  0  0
    4.8146   -0.2129    0.0113 C   0  0  0  0  0  0  0  0  0  0  0  0
    3.5474   -0.4813   -0.5710 C   0  0  0  0  0  0  0  0  0  0  0  0
    2.3601    0.2413   -0.2669 C   0  0  0  0  0  0  0  0  0  0  0  0
    2.3863    1.3600    0.7004 C   0  0  0  0  0  0  0  0  0  0  0  0
    2.1999    1.1253    2.0739 C   0  0  0  0  0  0  0  0  0  0  0  0
    2.2355    2.1830    2.9869 C   0  0  0  0  0  0  0  0  0  0  0  0
    2.4507    3.4770    2.5302 C   0  0  0  0  0  0  0  0  0  0  0  0
    2.4788    4.4910    3.4049 F   0  0  0  0  0  0  0  0  0  0  0  0
    2.6349    3.7351    1.1770 C   0  0  0  0  0  0  0  0  0  0  0  0
    2.6033    2.6786    0.2628 C   0  0  0  0  0  0  0  0  0  0  0  0
   -0.0944   -1.6221   -2.5762 C   0  0  0  0  0  0  0  0  0  0  0  0
   -0.2636   -3.0458   -3.0543 C   0  0  0  0  0  0  0  0  0  0  0  0
   -1.0657   -2.5546   -1.8885 C   0  0  0  0  0  0  0  0  0  0  0  0
   -5.7222   -0.7439    0.9557 C   0  0  0  0  0  0  0  0  0  0  0  0
   -6.8510   -0.4093    1.9278 C   0  0  0  0  0  0  0  0  0  0  0  0
   -7.1356   -1.3217    2.7528 O   0  0  0  0  0  0  0  0  0  0  0  0
   -7.3529    0.7479    1.7936 O   0  0  0  0  0  0  0  0  0  0  0  0
    0.0000    0.0000    0.0000 Ca  0  0  0  0  0 15  0  0  0  0  0  0
    4.5404    2.9920   -0.5075 O   0  0  0  0  0  0  0  0  0  0  0  0
    4.4074    1.5613   -0.4645 C   0  0  2  0  0  0  0  0  0  0  0  0
    2.9233    1.2505   -0.2132 C   0  0  0  0  0  0  0  0  0  0  0  0
    2.5658   -0.2225   -0.4239 C   0  0  2  0  0  0  0  0  0  0  0  0
    2.7269   -0.5619   -1.7980 O   0  0  0  0  0  0  0  0  0  0  0  0
    1.1500   -0.5139    0.0013 C   0  0  0  0  0  0  0  0  0  0  0  0
    0.1074   -0.7082   -0.8226 C   0  0  0  0  0  0  0  0  0  0  0  0
   -1.2551   -1.0221   -0.3500 C   0  0  0  0  0  0  0  0  0  0  0  0
   -1.7957   -2.2847   -0.6527 C   0  0  0  0  0  0  0  0  0  0  0  0
   -3.0438   -2.6346   -0.2433 N   0  0  0  0  0  0  0  0  0  0  0  0
   -3.7985   -1.7577    0.4283 C   0  0  0  0  0  0  0  0  0  0  0  0
   -5.0718   -2.1627    0.8004 C   0  0  0  0  0  0  0  0  0  0  0  0
   -5.9441   -1.3251    1.4960 C   0  0  0  0  0  0  0  0  0  0  0  0
   -5.5378   -0.0415    1.8255 C   0  0  0  0  0  0  0  0  0  0  0  0
   -4.2619    0.3861    1.4624 C   0  0  0  0  0  0  0  0  0  0  0  0
   -3.3608   -0.4627    0.7674 C   0  0  0  0  0  0  0  0  0  0  0  0
   -2.0403   -0.0922    0.3786 C   0  0  0  0  0  0  0  0  0  0  0  0
   -1.5113    1.2490    0.7185 C   0  0  0  0  0  0  0  0  0  0  0  0
   -1.1120    1.5489    2.0350 C   0  0  0  0  0  0  0  0  0  0  0  0
   -0.6211    2.8154    2.3596 C   0  0  0  0  0  0  0  0  0  0  0  0
   -0.5239    3.7874    1.3713 C   0  0  0  0  0  0  0  0  0  0  0  0
   -0.0631    5.0060    1.6851 F   0  0  0  0  0  0  0  0  0  0  0  0
   -0.9044    3.5170    0.0638 C   0  0  0  0  0  0  0  0  0  0  0  0
   -1.3974    2.2505   -0.2631 C   0  0  0  0  0  0  0  0  0  0  0  0
   -1.0094   -3.3387   -1.4174 C   0  0  0  0  0  0  0  0  0  0  0  0
   -1.7217   -4.3244   -2.3172 C   0  0  0  0  0  0  0  0  0  0  0  0
   -0.8882   -3.2382   -2.9216 C   0  0  0  0  0  0  0  0  0  0  0  0
    5.3177    1.0247    0.6405 C   0  0  0  0  0  0  0  0  0  0  0  0
    6.7845    1.1395    0.2261 C   0  0  0  0  0  0  0  0  0  0  0  0
    7.0702    2.1643   -0.4611 O   0  0  0  0  0  0  0  0  0  0  0  0
    7.5271    0.2035    0.6335 O   0  0  0  0  0  0  0  0  0  0  0  0
   -6.1901    1.6330    0.6127 H   0  0  0  0  0  0  0  0  0  0  0  0
   -4.5592    0.7865    1.9619 H   0  0  0  0  0  0  0  0  0  0  0  0
   -3.1642   -1.0211    0.6066 H   0  0  0  0  0  0  0  0  0  0  0  0
   -3.5160    0.0117   -0.7973 H   0  0  0  0  0  0  0  0  0  0  0  0
   -2.2586    1.1028    1.7814 H   0  0  0  0  0  0  0  0  0  0  0  0
   -1.5516    2.7021    0.3715 H   0  0  0  0  0  0  0  0  0  0  0  0
   -0.6365   -0.5716    1.0238 H   0  0  0  0  0  0  0  0  0  0  0  0
   -0.3673    1.3804   -1.3422 H   0  0  0  0  0  0  0  0  0  0  0  0
    4.5055   -3.0467   -2.5778 H   0  0  0  0  0  0  0  0  0  0  0  0
    6.7024   -2.5573   -1.5513 H   0  0  0  0  0  0  0  0  0  0  0  0
    6.9041   -0.7257    0.1203 H   0  0  0  0  0  0  0  0  0  0  0  0
    4.9259    0.5853    0.7435 H   0  0  0  0  0  0  0  0  0  0  0  0
    2.0232    0.1132    2.4364 H   0  0  0  0  0  0  0  0  0  0  0  0
    2.0815    2.0067    4.0477 H   0  0  0  0  0  0  0  0  0  0  0  0
    2.8015    4.7536    0.8397 H   0  0  0  0  0  0  0  0  0  0  0  0
    2.7394    2.8839   -0.7974 H   0  0  0  0  0  0  0  0  0  0  0  0
   -0.5365   -0.8630   -3.2137 H   0  0  0  0  0  0  0  0  0  0  0  0
   -0.7869   -3.2092   -3.9870 H   0  0  0  0  0  0  0  0  0  0  0  0
    0.5367   -3.7503   -2.8625 H   0  0  0  0  0  0  0  0  0  0  0  0
   -2.1240   -2.3621   -2.0314 H   0  0  0  0  0  0  0  0  0  0  0  0
   -0.8109   -2.9320   -0.9064 H   0  0  0  0  0  0  0  0  0  0  0  0
   -6.1509   -0.9188   -0.0358 H   0  0  0  0  0  0  0  0  0  0  0  0
   -5.2373   -1.6657    1.2967 H   0  0  0  0  0  0  0  0  0  0  0  0
    5.5227    3.1213   -0.6052 H   0  0  0  0  0  0  0  0  0  0  0  0
    4.7053    1.1820   -1.4496 H   0  0  0  0  0  0  0  0  0  0  0  0
    2.6532    1.5673    0.8048 H   0  0  0  0  0  0  0  0  0  0  0  0
    2.3213    1.8741   -0.8897 H   0  0  0  0  0  0  0  0  0  0  0  0
    3.2341   -0.8660    0.1565 H   0  0  0  0  0  0  0  0  0  0  0  0
    2.8681   -1.5207   -1.8248 H   0  0  0  0  0  0  0  0  0  0  0  0
    0.9986   -0.5468    1.0762 H   0  0  0  0  0  0  0  0  0  0  0  0
    0.2357   -0.6683   -1.9025 H   0  0  0  0  0  0  0  0  0  0  0  0
   -5.3921   -3.1709    0.5446 H   0  0  0  0  0  0  0  0  0  0  0  0
   -6.9310   -1.6827    1.7808 H   0  0  0  0  0  0  0  0  0  0  0  0
   -6.2027    0.6234    2.3715 H   0  0  0  0  0  0  0  0  0  0  0  0
   -3.9704    1.4007    1.7254 H   0  0  0  0  0  0  0  0  0  0  0  0
   -1.1763    0.7885    2.8134 H   0  0  0  0  0  0  0  0  0  0  0  0
   -0.3040    3.0484    3.3709 H   0  0  0  0  0  0  0  0  0  0  0  0
   -0.8026    4.2843   -0.6979 H   0  0  0  0  0  0  0  0  0  0  0  0
   -1.6829    2.0399   -1.2924 H   0  0  0  0  0  0  0  0  0  0  0  0
   -0.1430   -3.7308   -0.8874 H   0  0  0  0  0  0  0  0  0  0  0  0
   -1.3449   -5.3384   -2.3507 H   0  0  0  0  0  0  0  0  0  0  0  0
   -2.8004   -4.2507   -2.4084 H   0  0  0  0  0  0  0  0  0  0  0  0
   -1.4031   -2.4308   -3.4288 H   0  0  0  0  0  0  0  0  0  0  0  0
    0.0606   -3.5087   -3.3657 H   0  0  0  0  0  0  0  0  0  0  0  0
    5.1926    1.6056    1.5616 H   0  0  0  0  0  0  0  0  0  0  0  0
    5.1030   -0.0257    0.8603 H   0  0  0  0  0  0  0  0  0  0  0  0
  2  1  1  0
  2  3  1  0
  3  4  1  0
  4  5  1  0
  4  6  1  0
  6  7  2  0
  7  8  1  0
  8  9  2  0
  9 10  1  0
 10 11  2  0
 11 12  1  0
 12 13  2  0
 13 14  1  0
 14 15  2  0
 15 16  1  0
 11 16  1  0
 16 17  2  0
  8 17  1  0
 17 18  1  0
 18 19  2  0
 19 20  1  0
 20 21  2  0
 21 22  1  0
 21 23  1  0
 23 24  2  0
 18 24  1  0
  9 25  1  0
 25 26  1  0
 26 27  1  0
 25 27  1  0
  2 28  1  0
 28 29  1  0
 29 30  2  0
 29 31  1  0
 34 33  1  0
 34 35  1  0
 35 36  1  0
 36 37  1  0
 36 38  1  0
 38 39  2  0
 39 40  1  0
 40 41  2  0
 41 42  1  0
 42 43  2  0
 43 44  1  0
 44 45  2  0
 45 46  1  0
 46 47  2  0
 47 48  1  0
 43 48  1  0
 48 49  2  0
 40 49  1  0
 49 50  1  0
 50 51  2  0
 51 52  1  0
 52 53  2  0
 53 54  1  0
 53 55  1  0
 55 56  2  0
 50 56  1  0
 41 57  1  0
 57 58  1  0
 58 59  1  0
 57 59  1  0
 34 60  1  0
 60 61  1  0
 61 62  2  0
 61 63  1  0
  1 64  1  0
  2 65  1  1
  3 66  1  0
  3 67  1  0
  4 68  1  1
  5 69  1  0
  6 70  1  0
  7 71  1  0
 12 72  1  0
 13 73  1  0
 14 74  1  0
 15 75  1  0
 19 76  1  0
 20 77  1  0
 23 78  1  0
 24 79  1  0
 25 80  1  0
 26 81  1  0
 26 82  1  0
 27 83  1  0
 27 84  1  0
 28 85  1  0
 28 86  1  0
 33 87  1  0
 34 88  1  6
 35 89  1  0
 35 90  1  0
 36 91  1  1
 37 92  1  0
 38 93  1  0
 39 94  1  0
 44 95  1  0
 45 96  1  0
 46 97  1  0
 47 98  1  0
 51 99  1  0
 52100  1  0
 55101  1  0
 56102  1  0
 57103  1  0
 58104  1  0
 58105  1  0
 59106  1  0
 59107  1  0
 60108  1  0
 60109  1  0
M  CHG  3  31  -1  32   2  63  -1
M  END
$$$$
