
     RDKit          3D

109114  0  0  0  0  0  0  0  0999 V2000
    3.6693    2.6590    0.0956 O   0  0  0  0  0  0  0  0  0  0  0  0
    3.4504    1.2822   -0.2744 C   0  0  2  0  0  0  0  0  0  0  0  0
    3.4410    0.4720    1.0252 C   0  0  0  0  0  0  0  0  0  0  0  0
    2.7713   -0.9059    0.9648 C   0  0  2  0  0  0  0  0  0  0  0  0
    3.5566   -1.8163    0.2096 O   0  0  0  0  0  0  0  0  0  0  0  0
    1.3514   -0.8848    0.4607 C   0  0  0  0  0  0  0  0  0  0  0  0
    0.2753   -1.0603    1.2489 C   0  0  0  0  0  0  0  0  0  0  0  0
   -1.1145   -1.0173    0.7457 C   0  0  0  0  0  0  0  0  0  0  0  0
   -1.9070   -2.1750    0.8581 C   0  0  0  0  0  0  0  0  0  0  0  0
   -3.2126   -2.1885    0.4778 N   0  0  0  0  0  0  0  0  0  0  0  0
   -3.7727   -1.0877   -0.0315 C   0  0  0  0  0  0  0  0  0  0  0  0
   -5.1105   -1.1498   -0.4046 C   0  0  0  0  0  0  0  0  0  0  0  0
   -5.7890   -0.0505   -0.9369 C   0  0  0  0  0  0  0  0  0  0  0  0
   -5.1169    1.1491   -1.0997 C   0  0  0  0  0  0  0  0  0  0  0  0
   -3.7750    1.2287   -0.7345 C   0  0  0  0  0  0  0  0  0  0  0  0
   -3.0738    0.1173   -0.1967 C   0  0  0  0  0  0  0  0  0  0  0  0
   -1.7073    0.1495    0.2058 C   0  0  0  0  0  0  0  0  0  0  0  0
   -0.9480    1.4103    0.1049 C   0  0  0  0  0  0  0  0  0  0  0  0
   -0.7964    2.2364    1.2340 C   0  0  0  0  0  0  0  0  0  0  0  0
   -0.1075    3.4468    1.1441 C   0  0  0  0  0  0  0  0  0  0  0  0
    0.4290    3.8437   -0.0789 C   0  0  0  0  0  0  0  0  0  0  0  0
    1.0765    5.0190   -0.1609 F   0  0  0  0  0  0  0  0  0  0  0  0
    0.2853    3.0524   -1.2120 C   0  0  0  0  0  0  0  0  0  0  0  0
   -0.4034    1.8369   -1.1181 C   0  0  0  0  0  0  0  0  0  0  0  0
   -1.3818   -3.4758    1.4515 C   0  0  0  0  0  0  0  0  0  0  0  0
   -1.8471   -4.8043    0.8937 C   0  0  0  0  0  0  0  0  0  0  0  0
   -0.4363   -4.3484    0.6562 C   0  0  0  0  0  0  0  0  0  0  0  0
    4.5333    0.8747   -1.2622 C   0  0  0  0  0  0  0  0  0  0  0  0
    4.2337    1.4940   -2.6338 C   0  0  0  0  0  0  0  0  0  0  0  0
    3.6731    2.6287   -2.6088 O   0  0  0  0  0  0  0  0  0  0  0  0
    4.6061    0.8077   -3.6286 O   0  0  0  0  0  0  0  0  0  0  0  0
    0.0000    0.0000    0.0000 Ca  0  0  0  0  0 15  0  0  0  0  0  0
    4.4912    1.5870   -2.1542 O   0  0  0  0  0  0  0  0  0  0  0  0
    4.6448    1.3173   -0.7456 C   0  0  2  0  0  0  0  0  0  0  0  0
    3.2448    1.0832   -0.1626 C   0  0  0  0  0  0  0  0  0  0  0  0
    2.6073   -0.1959   -0.7332 C   0  0  2  0  0  0  0  0  0  0  0  0
    2.3438   -0.0475   -2.1279 O   0  0  0  0  0  0  0  0  0  0  0  0
    1.3271   -0.5263    0.0002 C   0  0  0  0  0  0  0  0  0  0  0  0
    0.1386   -0.7813   -0.5667 C   0  0  0  0  0  0  0  0  0  0  0  0
   -1.0893   -1.0584    0.2156 C   0  0  0  0  0  0  0  0  0  0  0  0
   -1.1901   -2.1913    1.0447 C   0  0  0  0  0  0  0  0  0  0  0  0
   -2.2936   -2.4255    1.8103 N   0  0  0  0  0  0  0  0  0  0  0  0
   -3.3206   -1.5718    1.7731 C   0  0  0  0  0  0  0  0  0  0  0  0
   -4.4077   -1.8433    2.5960 C   0  0  0  0  0  0  0  0  0  0  0  0
   -5.5333   -1.0159    2.6453 C   0  0  0  0  0  0  0  0  0  0  0  0
   -5.5845    0.1085    1.8369 C   0  0  0  0  0  0  0  0  0  0  0  0
   -4.4971    0.4016    1.0097 C   0  0  0  0  0  0  0  0  0  0  0  0
   -3.3378   -0.4244    0.9592 C   0  0  0  0  0  0  0  0  0  0  0  0
   -2.1908   -0.1703    0.1486 C   0  0  0  0  0  0  0  0  0  0  0  0
   -2.1550    1.0002   -0.7536 C   0  0  0  0  0  0  0  0  0  0  0  0
   -2.7740    0.9398   -2.0135 C   0  0  0  0  0  0  0  0  0  0  0  0
   -2.7563    2.0437   -2.8759 C   0  0  0  0  0  0  0  0  0  0  0  0
   -2.1065    3.2113   -2.4860 C   0  0  0  0  0  0  0  0  0  0  0  0
   -2.1012    4.2741   -3.3057 F   0  0  0  0  0  0  0  0  0  0  0  0
   -1.4675    3.2915   -1.2519 C   0  0  0  0  0  0  0  0  0  0  0  0
   -1.4935    2.1873   -0.3906 C   0  0  0  0  0  0  0  0  0  0  0  0
   -0.0718   -3.2219    1.1402 C   0  0  0  0  0  0  0  0  0  0  0  0
    0.2447   -4.1242   -0.0322 C   0  0  0  0  0  0  0  0  0  0  0  0
   -0.4060   -4.7001    1.1903 C   0  0  0  0  0  0  0  0  0  0  0  0
    5.3806    2.4754   -0.0912 C   0  0  0  0  0  0  0  0  0  0  0  0
    6.1331    2.0595    1.1773 C   0  0  0  0  0  0  0  0  0  0  0  0
    5.7473    0.9965    1.7380 O   0  0  0  0  0  0  0  0  0  0  0  0
    7.0706    2.8432    1.5016 O   0  0  0  0  0  0  0  0  0  0  0  0
    3.6735    3.1261   -0.7829 H   0  0  0  0  0  0  0  0  0  0  0  0
    2.4681    1.2462   -0.7477 H   0  0  0  0  0  0  0  0  0  0  0  0
    2.9227    1.0656    1.7887 H   0  0  0  0  0  0  0  0  0  0  0  0
    4.4718    0.3613    1.3863 H   0  0  0  0  0  0  0  0  0  0  0  0
    2.7782   -1.3045    1.9837 H   0  0  0  0  0  0  0  0  0  0  0  0
    3.0240   -2.1572   -0.5362 H   0  0  0  0  0  0  0  0  0  0  0  0
    1.2143   -0.6826   -0.5988 H   0  0  0  0  0  0  0  0  0  0  0  0
    0.3983   -1.2631    2.3114 H   0  0  0  0  0  0  0  0  0  0  0  0
   -5.6435   -2.0861   -0.2632 H   0  0  0  0  0  0  0  0  0  0  0  0
   -6.8352   -0.1409   -1.2225 H   0  0  0  0  0  0  0  0  0  0  0  0
   -5.6222    2.0120   -1.5250 H   0  0  0  0  0  0  0  0  0  0  0  0
   -3.2714    2.1857   -0.8675 H   0  0  0  0  0  0  0  0  0  0  0  0
   -1.2185    1.9372    2.1952 H   0  0  0  0  0  0  0  0  0  0  0  0
    0.0476    4.0649    2.0237 H   0  0  0  0  0  0  0  0  0  0  0  0
    0.7425    3.3694   -2.1479 H   0  0  0  0  0  0  0  0  0  0  0  0
   -0.4956    1.2177   -2.0099 H   0  0  0  0  0  0  0  0  0  0  0  0
   -1.2441   -3.4543    2.5313 H   0  0  0  0  0  0  0  0  0  0  0  0
   -2.0242   -5.6085    1.5976 H   0  0  0  0  0  0  0  0  0  0  0  0
   -2.5377   -4.7941    0.0580 H   0  0  0  0  0  0  0  0  0  0  0  0
    0.3542   -4.8600    1.1921 H   0  0  0  0  0  0  0  0  0  0  0  0
   -0.1613   -4.0204   -0.3424 H   0  0  0  0  0  0  0  0  0  0  0  0
    5.5085    1.2500   -0.9476 H   0  0  0  0  0  0  0  0  0  0  0  0
    4.5972   -0.2083   -1.3723 H   0  0  0  0  0  0  0  0  0  0  0  0
    5.3838    1.8085   -2.4771 H   0  0  0  0  0  0  0  0  0  0  0  0
    5.2362    0.4000   -0.6763 H   0  0  0  0  0  0  0  0  0  0  0  0
    2.6076    1.9400   -0.4093 H   0  0  0  0  0  0  0  0  0  0  0  0
    3.2980    1.0147    0.9281 H   0  0  0  0  0  0  0  0  0  0  0  0
    3.2935   -1.0410   -0.6140 H   0  0  0  0  0  0  0  0  0  0  0  0
    3.0742    0.5137   -2.4688 H   0  0  0  0  0  0  0  0  0  0  0  0
    1.4306   -0.5721    1.0851 H   0  0  0  0  0  0  0  0  0  0  0  0
    0.0218   -0.7280   -1.6477 H   0  0  0  0  0  0  0  0  0  0  0  0
   -4.3723   -2.7233    3.2359 H   0  0  0  0  0  0  0  0  0  0  0  0
   -6.3594   -1.2534    3.3150 H   0  0  0  0  0  0  0  0  0  0  0  0
   -6.4556    0.7616    1.8540 H   0  0  0  0  0  0  0  0  0  0  0  0
   -4.5525    1.3004    0.3989 H   0  0  0  0  0  0  0  0  0  0  0  0
   -3.2735    0.0274   -2.3320 H   0  0  0  0  0  0  0  0  0  0  0  0
   -3.2503    2.0032   -3.8463 H   0  0  0  0  0  0  0  0  0  0  0  0
   -0.9448    4.2033   -0.9695 H   0  0  0  0  0  0  0  0  0  0  0  0
   -0.9842    2.2528    0.5678 H   0  0  0  0  0  0  0  0  0  0  0  0
    0.7702   -2.9179    1.7596 H   0  0  0  0  0  0  0  0  0  0  0  0
   -0.3538   -4.0313   -0.9309 H   0  0  0  0  0  0  0  0  0  0  0  0
    1.2897   -4.3416   -0.2148 H   0  0  0  0  0  0  0  0  0  0  0  0
    0.1958   -5.3234    1.8443 H   0  0  0  0  0  0  0  0  0  0  0  0
   -1.4458   -5.0088    1.1192 H   0  0  0  0  0  0  0  0  0  0  0  0
    6.1087    2.9098   -0.7883 H   0  0  0  0  0  0  0  0  0  0  0  0
    4.6853    3.2837    0.1708 H   0  0  0  0  0  0  0  0  0  0  0  0
  2  1  1  0
  2  3  1  0
  3  4  1  0
  4  5  1  0
  4  6  1  0
  6  7  2  0
  7  8  1  0
  8  9  2  0
  9 10  1  0
 10 11  2  0
 11 12  1  0
 12 13  2  0
 13 14  1  0
 14 15  2  0
 15 16  1  0
 11 16  1  0
 16 17  2  0
  8 17  1  0
 17 18  1  0
 18 19  2  0
 19 20  1  0
 20 21  2  0
 21 22  1  0
 21 23  1  0
 23 24  2  0
 18 24  1  0
  9 25  1  0
 25 26  1  0
 26 27  1  0
 25 27  1  0
  2 28  1  0
 28 29  1  0
 29 30  2  0
 29 31  1  0
 34 33  1  0
 34 35  1  0
 35 36  1  0
 36 37  1  0
 36 38  1  0
 38 39  2  0
 39 40  1  0
 40 41  2  0
 41 42  1  0
 42 43  2  0
 43 44  1  0
 44 45  2  0
 45 46  1  0
 46 47  2  0
 47 48  1  0
 43 48  1  0
 48 49  2  0
 40 49  1  0
 49 50  1  0
 50 51  2  0
 51 52  1  0
 52 53  2  0
 53 54  1  0
 53 55  1  0
 55 56  2  0
 50 56  1  0
 41 57  1  0
 57 58  1  0
 58 59  1  0
 57 59  1  0
 34 60  1  0
 60 61  1  0
 61 62  2  0
 61 63  1  0
  1 64  1  0
  2 65  1  6
  3 66  1  0
  3 67  1  0
  4 68  1  1
  5 69  1  0
  6 70  1  0
  7 71  1  0
 12 72  1  0
 13 73  1  0
 14 74  1  0
 15 75  1  0
 19 76  1  0
 20 77  1  0
 23 78  1  0
 24 79  1  0
 25 80  1  0
 26 81  1  0
 26 82  1  0
 27 83  1  0
 27 84  1  0
 28 85  1  0
 28 86  1  0
 33 87  1  0
 34 88  1  6
 35 89  1  0
 35 90  1  0
 36 91  1  6
 37 92  1  0
 38 93  1  0
 39 94  1  0
 44 95  1  0
 45 96  1  0
 46 97  1  0
 47 98  1  0
 51 99  1  0
 52100  1  0
 55101  1  0
 56102  1  0
 57103  1  0
 58104  1  0
 58105  1  0
 59106  1  0
 59107  1  0
 60108  1  0
 60109  1  0
M  CHG  3  31  -1  32   2  63  -1
M  END
$$$$
