
     RDKit          3D

109114  0  0  0  0  0  0  0  0999 V2000
    3.7442    2.4214    0.8240 O   0  0  0  0  0  0  0  0  0  0  0  0
    4.3885    1.5403   -0.0977 C   0  0  2  0  0  0  0  0  0  0  0  0
    3.3124    0.6490   -0.7314 C   0  0  0  0  0  0  0  0  0  0  0  0
    2.6018   -0.2850    0.2552 C   0  0  2  0  0  0  0  0  0  0  0  0
    3.3557   -1.4883    0.4104 O   0  0  0  0  0  0  0  0  0  0  0  0
    1.2605   -0.7255   -0.2791 C   0  0  0  0  0  0  0  0  0  0  0  0
    0.1039   -0.5232    0.3740 C   0  0  0  0  0  0  0  0  0  0  0  0
   -1.2028   -0.9426   -0.1677 C   0  0  0  0  0  0  0  0  0  0  0  0
   -1.5243   -2.3047   -0.3075 C   0  0  0  0  0  0  0  0  0  0  0  0
   -2.7142   -2.7041   -0.8378 N   0  0  0  0  0  0  0  0  0  0  0  0
   -3.6208   -1.7944   -1.2129 C   0  0  0  0  0  0  0  0  0  0  0  0
   -4.8251   -2.2473   -1.7444 C   0  0  0  0  0  0  0  0  0  0  0  0
   -5.8226   -1.3666   -2.1711 C   0  0  0  0  0  0  0  0  0  0  0  0
   -5.6164    0.0013   -2.0678 C   0  0  0  0  0  0  0  0  0  0  0  0
   -4.4150    0.4780   -1.5458 C   0  0  0  0  0  0  0  0  0  0  0  0
   -3.3977   -0.4052   -1.1013 C   0  0  0  0  0  0  0  0  0  0  0  0
   -2.1581    0.0289   -0.5532 C   0  0  0  0  0  0  0  0  0  0  0  0
   -1.8744    1.4728   -0.3751 C   0  0  0  0  0  0  0  0  0  0  0  0
   -2.3939    2.1765    0.7281 C   0  0  0  0  0  0  0  0  0  0  0  0
   -2.1387    3.5413    0.8851 C   0  0  0  0  0  0  0  0  0  0  0  0
   -1.3595    4.2036   -0.0558 C   0  0  0  0  0  0  0  0  0  0  0  0
   -1.1428    5.5199    0.0789 F   0  0  0  0  0  0  0  0  0  0  0  0
   -0.8250    3.5290   -1.1454 C   0  0  0  0  0  0  0  0  0  0  0  0
   -1.0850    2.1666   -1.3080 C   0  0  0  0  0  0  0  0  0  0  0  0
   -0.5730   -3.4121    0.1149 C   0  0  0  0  0  0  0  0  0  0  0  0
   -1.1048   -4.6369    0.8310 C   0  0  0  0  0  0  0  0  0  0  0  0
   -0.2599   -3.6493    1.5742 C   0  0  0  0  0  0  0  0  0  0  0  0
    5.4862    0.7736    0.6208 C   0  0  0  0  0  0  0  0  0  0  0  0
    6.6482    1.7049    0.9542 C   0  0  0  0  0  0  0  0  0  0  0  0
    6.3262    2.9052    1.2077 O   0  0  0  0  0  0  0  0  0  0  0  0
    7.7833    1.1534    0.9641 O   0  0  0  0  0  0  0  0  0  0  0  0
    0.0000    0.0000    0.0000 Ca  0  0  0  0  0 15  0  0  0  0  0  0
    5.0797   -1.7164    2.0477 O   0  0  0  0  0  0  0  0  0  0  0  0
    4.6014   -0.3626    1.9283 C   0  0  2  0  0  0  0  0  0  0  0  0
    3.4800   -0.3575    0.8766 C   0  0  0  0  0  0  0  0  0  0  0  0
    2.1464   -0.7631    1.5101 C   0  0  2  0  0  0  0  0  0  0  0  0
    2.2208   -2.1029    2.0089 O   0  0  0  0  0  0  0  0  0  0  0  0
    1.0328   -0.7282    0.5054 C   0  0  0  0  0  0  0  0  0  0  0  0
    0.1913    0.3088    0.3683 C   0  0  0  0  0  0  0  0  0  0  0  0
   -0.8916    0.3174   -0.6330 C   0  0  0  0  0  0  0  0  0  0  0  0
   -0.6096    0.4737   -2.0038 C   0  0  0  0  0  0  0  0  0  0  0  0
   -1.6051    0.4671   -2.9295 N   0  0  0  0  0  0  0  0  0  0  0  0
   -2.8809    0.2980   -2.5473 C   0  0  0  0  0  0  0  0  0  0  0  0
   -3.8562    0.2691   -3.5359 C   0  0  0  0  0  0  0  0  0  0  0  0
   -5.2116    0.1291   -3.2387 C   0  0  0  0  0  0  0  0  0  0  0  0
   -5.6145    0.0089   -1.9189 C   0  0  0  0  0  0  0  0  0  0  0  0
   -4.6522    0.0139   -0.9149 C   0  0  0  0  0  0  0  0  0  0  0  0
   -3.2685    0.1547   -1.2040 C   0  0  0  0  0  0  0  0  0  0  0  0
   -2.2398    0.1749   -0.2212 C   0  0  0  0  0  0  0  0  0  0  0  0
   -2.5725    0.0534    1.2144 C   0  0  0  0  0  0  0  0  0  0  0  0
   -2.7444    1.1979    2.0130 C   0  0  0  0  0  0  0  0  0  0  0  0
   -3.0827    1.0832    3.3632 C   0  0  0  0  0  0  0  0  0  0  0  0
   -3.2489   -0.1788    3.9183 C   0  0  0  0  0  0  0  0  0  0  0  0
   -3.5832   -0.2914    5.2115 F   0  0  0  0  0  0  0  0  0  0  0  0
   -3.0715   -1.3273    3.1562 C   0  0  0  0  0  0  0  0  0  0  0  0
   -2.7339   -1.2124    1.8065 C   0  0  0  0  0  0  0  0  0  0  0  0
    0.8031    0.7023   -2.5232 C   0  0  0  0  0  0  0  0  0  0  0  0
    1.6936   -0.4796   -2.8367 C   0  0  0  0  0  0  0  0  0  0  0  0
    1.1662    0.3639   -3.9570 C   0  0  0  0  0  0  0  0  0  0  0  0
    5.7734    0.5365    1.5512 C   0  0  0  0  0  0  0  0  0  0  0  0
    5.4115    2.0202    1.5860 C   0  0  0  0  0  0  0  0  0  0  0  0
    4.3580    2.3255    2.2226 O   0  0  0  0  0  0  0  0  0  0  0  0
    6.2096    2.7773    0.9674 O   0  0  0  0  0  0  0  0  0  0  0  0
    4.5010    2.9618    1.1753 H   0  0  0  0  0  0  0  0  0  0  0  0
    4.8088    2.1644   -0.8952 H   0  0  0  0  0  0  0  0  0  0  0  0
    3.7763    0.0687   -1.5359 H   0  0  0  0  0  0  0  0  0  0  0  0
    2.5650    1.3046   -1.1897 H   0  0  0  0  0  0  0  0  0  0  0  0
    2.4823    0.1851    1.2408 H   0  0  0  0  0  0  0  0  0  0  0  0
    3.9084   -1.3500    1.2060 H   0  0  0  0  0  0  0  0  0  0  0  0
    1.2837   -1.2370   -1.2438 H   0  0  0  0  0  0  0  0  0  0  0  0
    0.0878    0.0107    1.3224 H   0  0  0  0  0  0  0  0  0  0  0  0
   -4.9854   -3.3201   -1.8406 H   0  0  0  0  0  0  0  0  0  0  0  0
   -6.7485   -1.7538   -2.5874 H   0  0  0  0  0  0  0  0  0  0  0  0
   -6.3789    0.7008   -2.4021 H   0  0  0  0  0  0  0  0  0  0  0  0
   -4.2710    1.5580   -1.4953 H   0  0  0  0  0  0  0  0  0  0  0  0
   -2.9917    1.6607    1.4772 H   0  0  0  0  0  0  0  0  0  0  0  0
   -2.5355    4.0883    1.7329 H   0  0  0  0  0  0  0  0  0  0  0  0
   -0.2065    4.0637   -1.8580 H   0  0  0  0  0  0  0  0  0  0  0  0
   -0.6561    1.6362   -2.1565 H   0  0  0  0  0  0  0  0  0  0  0  0
    0.2330   -3.6038   -0.5910 H   0  0  0  0  0  0  0  0  0  0  0  0
   -0.6700   -5.5936    0.5676 H   0  0  0  0  0  0  0  0  0  0  0  0
   -2.1634   -4.6766    1.0656 H   0  0  0  0  0  0  0  0  0  0  0  0
   -0.7414   -3.0400    2.3288 H   0  0  0  0  0  0  0  0  0  0  0  0
    0.7574   -3.9307    1.8196 H   0  0  0  0  0  0  0  0  0  0  0  0
    5.1378    0.3636    1.5750 H   0  0  0  0  0  0  0  0  0  0  0  0
    5.8500   -0.0416   -0.0136 H   0  0  0  0  0  0  0  0  0  0  0  0
    4.2690   -2.2594    2.1398 H   0  0  0  0  0  0  0  0  0  0  0  0
    4.2159   -0.0766    2.9162 H   0  0  0  0  0  0  0  0  0  0  0  0
    3.3750    0.6367    0.4232 H   0  0  0  0  0  0  0  0  0  0  0  0
    3.7389   -1.0584    0.0720 H   0  0  0  0  0  0  0  0  0  0  0  0
    1.9283   -0.0992    2.3589 H   0  0  0  0  0  0  0  0  0  0  0  0
    1.3614   -2.2679    2.4344 H   0  0  0  0  0  0  0  0  0  0  0  0
    0.9656   -1.5887   -0.1575 H   0  0  0  0  0  0  0  0  0  0  0  0
    0.2708    1.1845    1.0112 H   0  0  0  0  0  0  0  0  0  0  0  0
   -3.5518    0.3577   -4.5751 H   0  0  0  0  0  0  0  0  0  0  0  0
   -5.9462    0.1278   -4.0355 H   0  0  0  0  0  0  0  0  0  0  0  0
   -6.6642   -0.0966   -1.6668 H   0  0  0  0  0  0  0  0  0  0  0  0
   -4.9874   -0.0942    0.1139 H   0  0  0  0  0  0  0  0  0  0  0  0
   -2.6146    2.1873    1.5819 H   0  0  0  0  0  0  0  0  0  0  0  0
   -3.2187    1.9660    3.9813 H   0  0  0  0  0  0  0  0  0  0  0  0
   -3.1951   -2.3032    3.6188 H   0  0  0  0  0  0  0  0  0  0  0  0
   -2.5968   -2.1122    1.2110 H   0  0  0  0  0  0  0  0  0  0  0  0
    1.2936    1.5920   -2.1190 H   0  0  0  0  0  0  0  0  0  0  0  0
    1.2927   -1.4785   -2.7240 H   0  0  0  0  0  0  0  0  0  0  0  0
    2.7395   -0.3922   -2.5700 H   0  0  0  0  0  0  0  0  0  0  0  0
    0.4015   -0.0548   -4.5972 H   0  0  0  0  0  0  0  0  0  0  0  0
    1.8623    1.0292   -4.4569 H   0  0  0  0  0  0  0  0  0  0  0  0
    6.1634    0.2670    0.5618 H   0  0  0  0  0  0  0  0  0  0  0  0
    6.5960    0.3782    2.2591 H   0  0  0  0  0  0  0  0  0  0  0  0
  2  1  1  0
  2  3  1  0
  3  4  1  0
  4  5  1  0
  4  6  1  0
  6  7  2  0
  7  8  1  0
  8  9  2  0
  9 10  1  0
 10 11  2  0
 11 12  1  0
 12 13  2  0
 13 14  1  0
 14 15  2  0
 15 16  1  0
 11 16  1  0
 16 17  2  0
  8 17  1  0
 17 18  1  0
 18 19  2  0
 19 20  1  0
 20 21  2  0
 21 22  1  0
 21 23  1  0
 23 24  2  0
 18 24  1  0
  9 25  1  0
 25 26  1  0
 26 27  1  0
 25 27  1  0
  2 28  1  0
 28 29  1  0
 29 30  2  0
 29 31  1  0
 34 33  1  0
 34 35  1  0
 35 36  1  0
 36 37  1  0
 36 38  1  0
 38 39  2  0
 39 40  1  0
 40 41  2  0
 41 42  1  0
 42 43  2  0
 43 44  1  0
 44 45  2  0
 45 46  1  0
 46 47  2  0
 47 48  1  0
 43 48  1  0
 48 49  2  0
 40 49  1  0
 49 50  1  0
 50 51  2  0
 51 52  1  0
 52 53  2  0
 53 54  1  0
 53 55  1  0
 55 56  2  0
 50 56  1  0
 41 57  1  0
 57 58  1  0
 58 59  1  0
 57 59  1  0
 34 60  1  0
 60 61  1  0
 61 62  2  0
 61 63  1  0
  1 64  1  0
  2 65  1  6
  3 66  1  0
  3 67  1  0
  4 68  1  1
  5 69  1  0
  6 70  1  0
  7 71  1  0
 12 72  1  0
 13 73  1  0
 14 74  1  0
 15 75  1  0
 19 76  1  0
 20 77  1  0
 23 78  1  0
 24 79  1  0
 25 80  1  0
 26 81  1  0
 26 82  1  0
 27 83  1  0
 27 84  1  0
 28 85  1  0
 28 86  1  0
 33 87  1  0
 34 88  1  1
 35 89  1  0
 35 90  1  0
 36 91  1  1
 37 92  1  0
 38 93  1  0
 39 94  1  0
 44 95  1  0
 45 96  1  0
 46 97  1  0
 47 98  1  0
 51 99  1  0
 52100  1  0
 55101  1  0
 56102  1  0
 57103  1  0
 58104  1  0
 58105  1  0
 59106  1  0
 59107  1  0
 60108  1  0
 60109  1  0
M  CHG  3  31  -1  32   2  63  -1
M  END
$$$$
