
     RDKit          3D

 48 50  0  0  0  0  0  0  0  0999 V2000
   47.1741    5.3495   14.0332 C   0  0  0  0  0  0  0  0  0  0  0  0
   47.5487    4.5543   15.2462 C   0  0  0  0  0  0  0  0  0  0  0  0
   46.3492    4.7049   13.0937 C   0  0  0  0  0  0  0  0  0  0  0  0
   45.0973    4.6184   10.9511 C   0  0  0  0  0  0  0  0  0  0  0  0
   45.9565    5.3544   11.9185 C   0  0  0  0  0  0  0  0  0  0  0  0
   48.6215    4.9955   15.9833 N   0  0  0  0  0  0  0  0  0  0  0  0
   45.2398    4.9650    9.6241 N   0  0  0  0  0  0  0  0  0  0  0  0
   47.5753    6.6806   13.8021 C   0  0  0  0  0  0  0  0  0  0  0  0
   46.9152    3.5462   15.5424 O   0  0  0  0  0  0  0  0  0  0  0  0
   44.3439    3.7367   11.3457 O   0  0  0  0  0  0  0  0  0  0  0  0
   46.6533    5.9851   19.7907 N   0  0  0  0  0  0  0  0  0  0  0  0
   46.9262    2.6246    6.0786 N   0  0  0  0  0  0  0  0  0  0  0  0
   46.3657    6.6706   11.6895 C   0  0  0  0  0  0  0  0  0  0  0  0
   47.1753    7.3255   12.6229 C   0  0  0  0  0  0  0  0  0  0  0  0
   48.4962    5.2650   18.3889 C   0  0  0  0  0  0  0  0  0  0  0  0
   45.4972    3.2283    7.9427 C   0  0  0  0  0  0  0  0  0  0  0  0
   44.5687    4.2212    8.5786 C   0  0  0  0  0  0  0  0  0  0  0  0
   48.9776    4.4105   17.2536 C   0  0  0  0  0  0  0  0  0  0  0  0
   48.3815    7.2932   14.7295 O   0  0  0  0  0  0  0  0  0  0  0  0
   46.0655    3.4656    6.6952 C   0  0  0  0  0  0  0  0  0  0  0  0
   47.1633    5.2321   18.7882 C   0  0  0  0  0  0  0  0  0  0  0  0
   47.5097    6.8124   20.4247 C   0  0  0  0  0  0  0  0  0  0  0  0
   47.2344    1.4855    6.7355 C   0  0  0  0  0  0  0  0  0  0  0  0
   49.3488    6.1434   19.0635 C   0  0  0  0  0  0  0  0  0  0  0  0
   45.8460    2.0397    8.5906 C   0  0  0  0  0  0  0  0  0  0  0  0
   48.2077    8.7020   14.8759 C   0  0  0  0  0  0  0  0  0  0  0  0
   48.8511    6.9274   20.1003 C   0  0  0  0  0  0  0  0  0  0  0  0
   46.7262    1.1521    7.9798 C   0  0  0  0  0  0  0  0  0  0  0  0
   46.0176    3.6819   13.2746 H   0  0  0  0  0  0  0  0  0  0  0  0
   49.0136    5.9010   15.7479 H   0  0  0  0  0  0  0  0  0  0  0  0
   46.0366    5.5209    9.3481 H   0  0  0  0  0  0  0  0  0  0  0  0
   46.0463    7.2109   10.8023 H   0  0  0  0  0  0  0  0  0  0  0  0
   47.4878    8.3420   12.4009 H   0  0  0  0  0  0  0  0  0  0  0  0
   44.2230    4.9529    7.8398 H   0  0  0  0  0  0  0  0  0  0  0  0
   43.6808    3.7115    8.9692 H   0  0  0  0  0  0  0  0  0  0  0  0
   48.5771    3.3945   17.3458 H   0  0  0  0  0  0  0  0  0  0  0  0
   50.0700    4.3292   17.2738 H   0  0  0  0  0  0  0  0  0  0  0  0
   45.8430    4.3692    6.1339 H   0  0  0  0  0  0  0  0  0  0  0  0
   46.4454    4.5809   18.2933 H   0  0  0  0  0  0  0  0  0  0  0  0
   47.0742    7.4012   21.2272 H   0  0  0  0  0  0  0  0  0  0  0  0
   47.9252    0.8256    6.2190 H   0  0  0  0  0  0  0  0  0  0  0  0
   50.3970    6.2180   18.7895 H   0  0  0  0  0  0  0  0  0  0  0  0
   45.4335    1.8061    9.5710 H   0  0  0  0  0  0  0  0  0  0  0  0
   48.6672    8.9973   15.8247 H   0  0  0  0  0  0  0  0  0  0  0  0
   47.1477    8.9791   14.9161 H   0  0  0  0  0  0  0  0  0  0  0  0
   48.7263    9.2382   14.0742 H   0  0  0  0  0  0  0  0  0  0  0  0
   49.4930    7.6110   20.6439 H   0  0  0  0  0  0  0  0  0  0  0  0
   47.0084    0.2245    8.4645 H   0  0  0  0  0  0  0  0  0  0  0  0
  2  1  1  0
  3  1  2  0
  4  5  1  0
  5  3  1  0
  6  2  1  0
  7  4  1  0
  8  1  1  0
  9  2  2  0
 10  4  2  0
 11 21  2  0
 12 20  2  0
 13 14  1  0
 14  8  2  0
 15 18  1  0
 16 17  1  0
 17  7  1  0
 18  6  1  0
 19  8  1  0
 20 16  1  0
 21 15  1  0
 22 27  2  0
 23 28  2  0
 24 15  2  0
 25 16  2  0
 26 19  1  0
 27 24  1  0
 28 25  1  0
  5 13  2  0
 11 22  1  0
 12 23  1  0
  3 29  1  0
  6 30  1  0
  7 31  1  0
 13 32  1  0
 14 33  1  0
 17 34  1  0
 17 35  1  0
 18 36  1  0
 18 37  1  0
 20 38  1  0
 21 39  1  0
 22 40  1  0
 23 41  1  0
 24 42  1  0
 25 43  1  0
 26 44  1  0
 26 45  1  0
 26 46  1  0
 27 47  1  0
 28 48  1  0
M  END
> <Uni-Dock RESULT> 
ENERGY=   -5.665  LOWER_BOUND=    0.000  UPPER_BOUND=    0.000
INTER + INTRA:          -5.665
INTER:                  -5.665
INTRA:                   0.000
UNBOUND:                 0.000

$$$$

     RDKit          3D

 48 50  0  0  0  0  0  0  0  0999 V2000
   47.0842    7.6037   13.1191 C   0  0  0  0  0  0  0  0  0  0  0  0
   46.5577    6.2305   13.4037 C   0  0  0  0  0  0  0  0  0  0  0  0
   46.1527    8.5440   12.6428 C   0  0  0  0  0  0  0  0  0  0  0  0
   45.5223   10.7979   11.8134 C   0  0  0  0  0  0  0  0  0  0  0  0
   46.5466    9.8495   12.3304 C   0  0  0  0  0  0  0  0  0  0  0  0
   47.4747    5.2124   13.5093 N   0  0  0  0  0  0  0  0  0  0  0  0
   45.9781   11.7803   10.9598 N   0  0  0  0  0  0  0  0  0  0  0  0
   48.4223    7.9977   13.3203 C   0  0  0  0  0  0  0  0  0  0  0  0
   45.3505    6.0453   13.5216 O   0  0  0  0  0  0  0  0  0  0  0  0
   44.3453   10.6599   12.1235 O   0  0  0  0  0  0  0  0  0  0  0  0
   46.9244    4.0413   17.7135 N   0  0  0  0  0  0  0  0  0  0  0  0
   45.2392   12.4562    6.5002 N   0  0  0  0  0  0  0  0  0  0  0  0
   47.8767   10.2318   12.5219 C   0  0  0  0  0  0  0  0  0  0  0  0
   48.8086    9.3090   13.0073 C   0  0  0  0  0  0  0  0  0  0  0  0
   47.4632    3.6695   15.3786 C   0  0  0  0  0  0  0  0  0  0  0  0
   44.8061   12.2068    8.8732 C   0  0  0  0  0  0  0  0  0  0  0  0
   45.0586   12.6677   10.2790 C   0  0  0  0  0  0  0  0  0  0  0  0
   47.1069    3.8841   13.9371 C   0  0  0  0  0  0  0  0  0  0  0  0
   49.3178    7.0662   13.7846 O   0  0  0  0  0  0  0  0  0  0  0  0
   45.4060   12.8360    7.7871 C   0  0  0  0  0  0  0  0  0  0  0  0
   46.6590    4.1799   16.3935 C   0  0  0  0  0  0  0  0  0  0  0  0
   48.0449    3.3646   18.0396 C   0  0  0  0  0  0  0  0  0  0  0  0
   44.4296   11.3974    6.2817 C   0  0  0  0  0  0  0  0  0  0  0  0
   48.6209    2.9842   15.7578 C   0  0  0  0  0  0  0  0  0  0  0  0
   43.9792   11.1123    8.6038 C   0  0  0  0  0  0  0  0  0  0  0  0
   50.3707    7.5667   14.6075 C   0  0  0  0  0  0  0  0  0  0  0  0
   48.9164    2.8246   17.1086 C   0  0  0  0  0  0  0  0  0  0  0  0
   43.7845   10.7001    7.2894 C   0  0  0  0  0  0  0  0  0  0  0  0
   45.1110    8.2529   12.5036 H   0  0  0  0  0  0  0  0  0  0  0  0
   48.4573    5.4640   13.5244 H   0  0  0  0  0  0  0  0  0  0  0  0
   46.9031   11.6918   10.5642 H   0  0  0  0  0  0  0  0  0  0  0  0
   48.2024   11.2491   12.3211 H   0  0  0  0  0  0  0  0  0  0  0  0
   49.8370    9.6385   13.1256 H   0  0  0  0  0  0  0  0  0  0  0  0
   45.5170   13.6630   10.2812 H   0  0  0  0  0  0  0  0  0  0  0  0
   44.1125   12.7459   10.8264 H   0  0  0  0  0  0  0  0  0  0  0  0
   46.0383    3.7004   13.7780 H   0  0  0  0  0  0  0  0  0  0  0  0
   47.6533    3.1797   13.3001 H   0  0  0  0  0  0  0  0  0  0  0  0
   46.0633   13.6912    7.9199 H   0  0  0  0  0  0  0  0  0  0  0  0
   45.7520    4.7362   16.1643 H   0  0  0  0  0  0  0  0  0  0  0  0
   48.2306    3.2651   19.1054 H   0  0  0  0  0  0  0  0  0  0  0  0
   44.3096   11.1135    5.2404 H   0  0  0  0  0  0  0  0  0  0  0  0
   49.2906    2.5716   15.0093 H   0  0  0  0  0  0  0  0  0  0  0  0
   43.4881   10.5805    9.4173 H   0  0  0  0  0  0  0  0  0  0  0  0
   50.8083    6.7172   15.1418 H   0  0  0  0  0  0  0  0  0  0  0  0
   49.9999    8.2778   15.3549 H   0  0  0  0  0  0  0  0  0  0  0  0
   51.1587    8.0144   13.9927 H   0  0  0  0  0  0  0  0  0  0  0  0
   49.8039    2.2912   17.4289 H   0  0  0  0  0  0  0  0  0  0  0  0
   43.1462    9.8549    7.0589 H   0  0  0  0  0  0  0  0  0  0  0  0
  2  1  1  0
  3  1  2  0
  4  5  1  0
  5  3  1  0
  6  2  1  0
  7  4  1  0
  8  1  1  0
  9  2  2  0
 10  4  2  0
 11 21  2  0
 12 20  2  0
 13 14  1  0
 14  8  2  0
 15 18  1  0
 16 17  1  0
 17  7  1  0
 18  6  1  0
 19  8  1  0
 20 16  1  0
 21 15  1  0
 22 27  2  0
 23 28  2  0
 24 15  2  0
 25 16  2  0
 26 19  1  0
 27 24  1  0
 28 25  1  0
  5 13  2  0
 11 22  1  0
 12 23  1  0
  3 29  1  0
  6 30  1  0
  7 31  1  0
 13 32  1  0
 14 33  1  0
 17 34  1  0
 17 35  1  0
 18 36  1  0
 18 37  1  0
 20 38  1  0
 21 39  1  0
 22 40  1  0
 23 41  1  0
 24 42  1  0
 25 43  1  0
 26 44  1  0
 26 45  1  0
 26 46  1  0
 27 47  1  0
 28 48  1  0
M  END
> <Uni-Dock RESULT> 
ENERGY=   -4.432  LOWER_BOUND=    4.242  UPPER_BOUND=    5.929
INTER + INTRA:          -4.432
INTER:                  -4.432
INTRA:                   0.000
UNBOUND:                 0.000

$$$$

     RDKit          3D

 48 50  0  0  0  0  0  0  0  0999 V2000
   55.2060    5.2603   11.4514 C   0  0  0  0  0  0  0  0  0  0  0  0
   54.9016    4.8276   10.0500 C   0  0  0  0  0  0  0  0  0  0  0  0
   55.8984    4.3360   12.2544 C   0  0  0  0  0  0  0  0  0  0  0  0
   56.9341    3.6138   14.3924 C   0  0  0  0  0  0  0  0  0  0  0  0
   56.2157    4.6362   13.5834 C   0  0  0  0  0  0  0  0  0  0  0  0
   53.9317    5.5252    9.3708 N   0  0  0  0  0  0  0  0  0  0  0  0
   56.6872    3.6274   15.7490 N   0  0  0  0  0  0  0  0  0  0  0  0
   54.8644    6.5192   11.9849 C   0  0  0  0  0  0  0  0  0  0  0  0
   55.4995    3.8777    9.5544 O   0  0  0  0  0  0  0  0  0  0  0  0
   57.6679    2.8007   13.8437 O   0  0  0  0  0  0  0  0  0  0  0  0
   56.3074    7.2733    6.1073 N   0  0  0  0  0  0  0  0  0  0  0  0
   54.5363    0.6190   18.4350 N   0  0  0  0  0  0  0  0  0  0  0  0
   55.8653    5.8818   14.1105 C   0  0  0  0  0  0  0  0  0  0  0  0
   55.1882    6.8134   13.3172 C   0  0  0  0  0  0  0  0  0  0  0  0
   54.3003    6.3777    7.1319 C   0  0  0  0  0  0  0  0  0  0  0  0
   56.1689    1.5518   16.9035 C   0  0  0  0  0  0  0  0  0  0  0  0
   57.2108    2.5933   16.6169 C   0  0  0  0  0  0  0  0  0  0  0  0
   53.6637    5.3081    7.9695 C   0  0  0  0  0  0  0  0  0  0  0  0
   54.1875    7.4082   11.1869 O   0  0  0  0  0  0  0  0  0  0  0  0
   55.4999    1.5146   18.1228 C   0  0  0  0  0  0  0  0  0  0  0  0
   55.6608    6.3373    6.8408 C   0  0  0  0  0  0  0  0  0  0  0  0
   55.5656    8.3000    5.6432 C   0  0  0  0  0  0  0  0  0  0  0  0
   54.2247   -0.2903   17.4861 C   0  0  0  0  0  0  0  0  0  0  0  0
   53.5692    7.4635    6.6420 C   0  0  0  0  0  0  0  0  0  0  0  0
   55.8132    0.5960   15.9475 C   0  0  0  0  0  0  0  0  0  0  0  0
   54.4576    8.7897   11.4207 C   0  0  0  0  0  0  0  0  0  0  0  0
   54.2086    8.4389    5.8824 C   0  0  0  0  0  0  0  0  0  0  0  0
   54.8280   -0.3416   16.2407 C   0  0  0  0  0  0  0  0  0  0  0  0
   56.1844    3.3674   11.8430 H   0  0  0  0  0  0  0  0  0  0  0  0
   53.5734    6.3717    9.7999 H   0  0  0  0  0  0  0  0  0  0  0  0
   55.9021    4.1595   16.0965 H   0  0  0  0  0  0  0  0  0  0  0  0
   56.1307    6.1548   15.1285 H   0  0  0  0  0  0  0  0  0  0  0  0
   54.9168    7.7638   13.7681 H   0  0  0  0  0  0  0  0  0  0  0  0
   57.5276    3.0859   17.5429 H   0  0  0  0  0  0  0  0  0  0  0  0
   58.0999    2.1271   16.1777 H   0  0  0  0  0  0  0  0  0  0  0  0
   54.0101    4.3185    7.6505 H   0  0  0  0  0  0  0  0  0  0  0  0
   52.5752    5.3237    7.8454 H   0  0  0  0  0  0  0  0  0  0  0  0
   55.7214    2.2275   18.9125 H   0  0  0  0  0  0  0  0  0  0  0  0
   56.2886    5.5266    7.2055 H   0  0  0  0  0  0  0  0  0  0  0  0
   56.1093    9.0335    5.0545 H   0  0  0  0  0  0  0  0  0  0  0  0
   53.4502   -1.0000   17.7615 H   0  0  0  0  0  0  0  0  0  0  0  0
   52.5060    7.5522    6.8448 H   0  0  0  0  0  0  0  0  0  0  0  0
   56.3023    0.5825   14.9746 H   0  0  0  0  0  0  0  0  0  0  0  0
   54.1085    9.3498   10.5472 H   0  0  0  0  0  0  0  0  0  0  0  0
   55.5312    8.9807   11.5343 H   0  0  0  0  0  0  0  0  0  0  0  0
   53.8980    9.1485   12.2910 H   0  0  0  0  0  0  0  0  0  0  0  0
   53.6629    9.2868    5.4849 H   0  0  0  0  0  0  0  0  0  0  0  0
   54.5386   -1.0920   15.5140 H   0  0  0  0  0  0  0  0  0  0  0  0
  2  1  1  0
  3  1  2  0
  4  5  1  0
  5  3  1  0
  6  2  1  0
  7  4  1  0
  8  1  1  0
  9  2  2  0
 10  4  2  0
 11 21  2  0
 12 20  2  0
 13 14  1  0
 14  8  2  0
 15 18  1  0
 16 17  1  0
 17  7  1  0
 18  6  1  0
 19  8  1  0
 20 16  1  0
 21 15  1  0
 22 27  2  0
 23 28  2  0
 24 15  2  0
 25 16  2  0
 26 19  1  0
 27 24  1  0
 28 25  1  0
  5 13  2  0
 11 22  1  0
 12 23  1  0
  3 29  1  0
  6 30  1  0
  7 31  1  0
 13 32  1  0
 14 33  1  0
 17 34  1  0
 17 35  1  0
 18 36  1  0
 18 37  1  0
 20 38  1  0
 21 39  1  0
 22 40  1  0
 23 41  1  0
 24 42  1  0
 25 43  1  0
 26 44  1  0
 26 45  1  0
 26 46  1  0
 27 47  1  0
 28 48  1  0
M  END
> <Uni-Dock RESULT> 
ENERGY=   -4.082  LOWER_BOUND=    8.416  UPPER_BOUND=   12.161
INTER + INTRA:          -4.082
INTER:                  -4.082
INTRA:                   0.000
UNBOUND:                 0.000

$$$$

     RDKit          3D

 48 50  0  0  0  0  0  0  0  0999 V2000
   44.8580    9.3409   11.6497 C   0  0  0  0  0  0  0  0  0  0  0  0
   44.0254   10.5140   11.2319 C   0  0  0  0  0  0  0  0  0  0  0  0
   46.1378    9.6315   12.1561 C   0  0  0  0  0  0  0  0  0  0  0  0
   48.3499    8.9704   13.0697 C   0  0  0  0  0  0  0  0  0  0  0  0
   47.0004    8.6061   12.5577 C   0  0  0  0  0  0  0  0  0  0  0  0
   42.9522   10.2655   10.4103 N   0  0  0  0  0  0  0  0  0  0  0  0
   49.3505    8.0447   12.8612 N   0  0  0  0  0  0  0  0  0  0  0  0
   44.4288    8.0002   11.5849 C   0  0  0  0  0  0  0  0  0  0  0  0
   44.3173   11.6437   11.6116 O   0  0  0  0  0  0  0  0  0  0  0  0
   48.5300   10.0554   13.6092 O   0  0  0  0  0  0  0  0  0  0  0  0
   39.6214   11.4682   13.0198 N   0  0  0  0  0  0  0  0  0  0  0  0
   53.0643    8.1922   10.2010 N   0  0  0  0  0  0  0  0  0  0  0  0
   46.5737    7.2779   12.4816 C   0  0  0  0  0  0  0  0  0  0  0  0
   45.2986    6.9782   11.9918 C   0  0  0  0  0  0  0  0  0  0  0  0
   40.7419   11.1341   10.8954 C   0  0  0  0  0  0  0  0  0  0  0  0
   51.4895    8.7611   11.9552 C   0  0  0  0  0  0  0  0  0  0  0  0
   50.7299    8.3466   13.1814 C   0  0  0  0  0  0  0  0  0  0  0  0
   41.9872   11.2839   10.0722 C   0  0  0  0  0  0  0  0  0  0  0  0
   43.1770    7.7353   11.0865 O   0  0  0  0  0  0  0  0  0  0  0  0
   52.3687    7.8897   11.3202 C   0  0  0  0  0  0  0  0  0  0  0  0
   40.7013   11.5837   12.2119 C   0  0  0  0  0  0  0  0  0  0  0  0
   38.5303   10.8747   12.4935 C   0  0  0  0  0  0  0  0  0  0  0  0
   52.8791    9.4282    9.6888 C   0  0  0  0  0  0  0  0  0  0  0  0
   39.5948   10.5148   10.3910 C   0  0  0  0  0  0  0  0  0  0  0  0
   51.3232   10.0289   11.3902 C   0  0  0  0  0  0  0  0  0  0  0  0
   42.5112    6.6005   11.6387 C   0  0  0  0  0  0  0  0  0  0  0  0
   38.4691   10.3854   11.1994 C   0  0  0  0  0  0  0  0  0  0  0  0
   52.0285   10.3713   10.2408 C   0  0  0  0  0  0  0  0  0  0  0  0
   46.4699   10.6677   12.2286 H   0  0  0  0  0  0  0  0  0  0  0  0
   42.7026    9.2967   10.2424 H   0  0  0  0  0  0  0  0  0  0  0  0
   49.1886    7.2902   12.2096 H   0  0  0  0  0  0  0  0  0  0  0  0
   47.2097    6.4641   12.8198 H   0  0  0  0  0  0  0  0  0  0  0  0
   45.0097    5.9327   11.9307 H   0  0  0  0  0  0  0  0  0  0  0  0
   51.1624    7.4370   13.6130 H   0  0  0  0  0  0  0  0  0  0  0  0
   50.7919    9.1288   13.9463 H   0  0  0  0  0  0  0  0  0  0  0  0
   42.4104   12.2865   10.2017 H   0  0  0  0  0  0  0  0  0  0  0  0
   41.7572   11.1664    9.0075 H   0  0  0  0  0  0  0  0  0  0  0  0
   52.5462    6.8872   11.7005 H   0  0  0  0  0  0  0  0  0  0  0  0
   41.5664   12.0608   12.6686 H   0  0  0  0  0  0  0  0  0  0  0  0
   37.6777   10.7993   13.1625 H   0  0  0  0  0  0  0  0  0  0  0  0
   53.4505    9.6480    8.7918 H   0  0  0  0  0  0  0  0  0  0  0  0
   39.5714   10.1367    9.3733 H   0  0  0  0  0  0  0  0  0  0  0  0
   50.6439   10.7487   11.8443 H   0  0  0  0  0  0  0  0  0  0  0  0
   41.4480    6.6856   11.3921 H   0  0  0  0  0  0  0  0  0  0  0  0
   42.6005    6.5681   12.7309 H   0  0  0  0  0  0  0  0  0  0  0  0
   42.8851    5.6770   11.1840 H   0  0  0  0  0  0  0  0  0  0  0  0
   37.5649    9.9158   10.8299 H   0  0  0  0  0  0  0  0  0  0  0  0
   51.9151   11.3495    9.7878 H   0  0  0  0  0  0  0  0  0  0  0  0
  2  1  1  0
  3  1  2  0
  4  5  1  0
  5  3  1  0
  6  2  1  0
  7  4  1  0
  8  1  1  0
  9  2  2  0
 10  4  2  0
 11 21  2  0
 12 20  2  0
 13 14  1  0
 14  8  2  0
 15 18  1  0
 16 17  1  0
 17  7  1  0
 18  6  1  0
 19  8  1  0
 20 16  1  0
 21 15  1  0
 22 27  2  0
 23 28  2  0
 24 15  2  0
 25 16  2  0
 26 19  1  0
 27 24  1  0
 28 25  1  0
  5 13  2  0
 11 22  1  0
 12 23  1  0
  3 29  1  0
  6 30  1  0
  7 31  1  0
 13 32  1  0
 14 33  1  0
 17 34  1  0
 17 35  1  0
 18 36  1  0
 18 37  1  0
 20 38  1  0
 21 39  1  0
 22 40  1  0
 23 41  1  0
 24 42  1  0
 25 43  1  0
 26 44  1  0
 26 45  1  0
 26 46  1  0
 27 47  1  0
 28 48  1  0
M  END
> <Uni-Dock RESULT> 
ENERGY=   -4.081  LOWER_BOUND=    5.571  UPPER_BOUND=    9.056
INTER + INTRA:          -4.081
INTER:                  -4.081
INTRA:                   0.000
UNBOUND:                 0.000

$$$$

     RDKit          3D

 48 50  0  0  0  0  0  0  0  0999 V2000
   46.8490    8.6571   13.4941 C   0  0  0  0  0  0  0  0  0  0  0  0
   47.8492    9.3548   14.3640 C   0  0  0  0  0  0  0  0  0  0  0  0
   46.0248    9.4802   12.7055 C   0  0  0  0  0  0  0  0  0  0  0  0
   44.1909    9.8471   11.0723 C   0  0  0  0  0  0  0  0  0  0  0  0
   45.0466    8.9280   11.8716 C   0  0  0  0  0  0  0  0  0  0  0  0
   48.4005    8.6332   15.3955 N   0  0  0  0  0  0  0  0  0  0  0  0
   42.9174    9.4007   10.7887 N   0  0  0  0  0  0  0  0  0  0  0  0
   46.7105    7.2572   13.4101 C   0  0  0  0  0  0  0  0  0  0  0  0
   48.1394   10.5278   14.1513 O   0  0  0  0  0  0  0  0  0  0  0  0
   44.6170   10.9445   10.7338 O   0  0  0  0  0  0  0  0  0  0  0  0
   52.6243    8.5403   14.1703 N   0  0  0  0  0  0  0  0  0  0  0  0
   38.8352   10.8753   12.2214 N   0  0  0  0  0  0  0  0  0  0  0  0
   44.9066    7.5397   11.8000 C   0  0  0  0  0  0  0  0  0  0  0  0
   45.7293    6.7114   12.5698 C   0  0  0  0  0  0  0  0  0  0  0  0
   50.7951    8.5509   15.7622 C   0  0  0  0  0  0  0  0  0  0  0  0
   41.0135   10.8670   11.1555 C   0  0  0  0  0  0  0  0  0  0  0  0
   41.9463   10.2622   10.1473 C   0  0  0  0  0  0  0  0  0  0  0  0
   49.4867    9.1414   16.1984 C   0  0  0  0  0  0  0  0  0  0  0  0
   47.5227    6.4696   14.1882 O   0  0  0  0  0  0  0  0  0  0  0  0
   39.7162   10.3913   11.3171 C   0  0  0  0  0  0  0  0  0  0  0  0
   51.4517    9.0328   14.6336 C   0  0  0  0  0  0  0  0  0  0  0  0
   53.1685    7.5176   14.8615 C   0  0  0  0  0  0  0  0  0  0  0  0
   39.2659   11.8890   13.0032 C   0  0  0  0  0  0  0  0  0  0  0  0
   51.3860    7.4833   16.4440 C   0  0  0  0  0  0  0  0  0  0  0  0
   41.4209   11.9138   11.9876 C   0  0  0  0  0  0  0  0  0  0  0  0
   47.8782    5.2020   13.6377 C   0  0  0  0  0  0  0  0  0  0  0  0
   52.5933    6.9594   15.9908 C   0  0  0  0  0  0  0  0  0  0  0  0
   40.5357   12.4360   12.9253 C   0  0  0  0  0  0  0  0  0  0  0  0
   46.1393   10.5638   12.7494 H   0  0  0  0  0  0  0  0  0  0  0  0
   48.2060    7.6382   15.4302 H   0  0  0  0  0  0  0  0  0  0  0  0
   42.5564    8.6036   11.2932 H   0  0  0  0  0  0  0  0  0  0  0  0
   44.1791    7.0830   11.1341 H   0  0  0  0  0  0  0  0  0  0  0  0
   45.5780    5.6379   12.5007 H   0  0  0  0  0  0  0  0  0  0  0  0
   41.3924    9.6412    9.4344 H   0  0  0  0  0  0  0  0  0  0  0  0
   42.4431   11.0512    9.5716 H   0  0  0  0  0  0  0  0  0  0  0  0
   49.5301   10.2356   16.1557 H   0  0  0  0  0  0  0  0  0  0  0  0
   49.2721    8.8678   17.2375 H   0  0  0  0  0  0  0  0  0  0  0  0
   39.3310    9.5779   10.7078 H   0  0  0  0  0  0  0  0  0  0  0  0
   51.0363    9.8522   14.0501 H   0  0  0  0  0  0  0  0  0  0  0  0
   54.1110    7.1453   14.4697 H   0  0  0  0  0  0  0  0  0  0  0  0
   38.5397   12.2621   13.7194 H   0  0  0  0  0  0  0  0  0  0  0  0
   50.9147    7.0605   17.3262 H   0  0  0  0  0  0  0  0  0  0  0  0
   42.4275   12.3212   11.9064 H   0  0  0  0  0  0  0  0  0  0  0  0
   48.7422    4.8271   14.1958 H   0  0  0  0  0  0  0  0  0  0  0  0
   48.1694    5.2834   12.5839 H   0  0  0  0  0  0  0  0  0  0  0  0
   47.0614    4.4842   13.7678 H   0  0  0  0  0  0  0  0  0  0  0  0
   53.0756    6.1367   16.5057 H   0  0  0  0  0  0  0  0  0  0  0  0
   40.8313   13.2486   13.5790 H   0  0  0  0  0  0  0  0  0  0  0  0
  2  1  1  0
  3  1  2  0
  4  5  1  0
  5  3  1  0
  6  2  1  0
  7  4  1  0
  8  1  1  0
  9  2  2  0
 10  4  2  0
 11 21  2  0
 12 20  2  0
 13 14  1  0
 14  8  2  0
 15 18  1  0
 16 17  1  0
 17  7  1  0
 18  6  1  0
 19  8  1  0
 20 16  1  0
 21 15  1  0
 22 27  2  0
 23 28  2  0
 24 15  2  0
 25 16  2  0
 26 19  1  0
 27 24  1  0
 28 25  1  0
  5 13  2  0
 11 22  1  0
 12 23  1  0
  3 29  1  0
  6 30  1  0
  7 31  1  0
 13 32  1  0
 14 33  1  0
 17 34  1  0
 17 35  1  0
 18 36  1  0
 18 37  1  0
 20 38  1  0
 21 39  1  0
 22 40  1  0
 23 41  1  0
 24 42  1  0
 25 43  1  0
 26 44  1  0
 26 45  1  0
 26 46  1  0
 27 47  1  0
 28 48  1  0
M  END
> <Uni-Dock RESULT> 
ENERGY=   -4.023  LOWER_BOUND=    4.887  UPPER_BOUND=    7.295
INTER + INTRA:          -4.023
INTER:                  -4.023
INTRA:                   0.000
UNBOUND:                 0.000

$$$$

     RDKit          3D

 48 50  0  0  0  0  0  0  0  0999 V2000
   47.7208    6.9445   18.8196 C   0  0  0  0  0  0  0  0  0  0  0  0
   47.7683    8.3805   19.2436 C   0  0  0  0  0  0  0  0  0  0  0  0
   47.7831    6.6990   17.4360 C   0  0  0  0  0  0  0  0  0  0  0  0
   47.7809    5.1935   15.4614 C   0  0  0  0  0  0  0  0  0  0  0  0
   47.7286    5.3938   16.9356 C   0  0  0  0  0  0  0  0  0  0  0  0
   47.3466    8.6765   20.5176 N   0  0  0  0  0  0  0  0  0  0  0  0
   47.1240    4.0833   14.9742 N   0  0  0  0  0  0  0  0  0  0  0  0
   47.6425    5.8562   19.7115 C   0  0  0  0  0  0  0  0  0  0  0  0
   48.1606    9.2414   18.4623 O   0  0  0  0  0  0  0  0  0  0  0  0
   48.3550    6.0094   14.7506 O   0  0  0  0  0  0  0  0  0  0  0  0
   51.0792   10.1844   22.2908 N   0  0  0  0  0  0  0  0  0  0  0  0
   43.3796    3.7142   12.3792 N   0  0  0  0  0  0  0  0  0  0  0  0
   47.6404    4.3189   17.8239 C   0  0  0  0  0  0  0  0  0  0  0  0
   47.5910    4.5507   19.2021 C   0  0  0  0  0  0  0  0  0  0  0  0
   48.6739   10.0393   22.0199 C   0  0  0  0  0  0  0  0  0  0  0  0
   45.6281    4.3032   13.0707 C   0  0  0  0  0  0  0  0  0  0  0  0
   46.9799    3.8620   13.5506 C   0  0  0  0  0  0  0  0  0  0  0  0
   47.4948    9.9916   21.0933 C   0  0  0  0  0  0  0  0  0  0  0  0
   47.5813    6.1149   21.0586 O   0  0  0  0  0  0  0  0  0  0  0  0
   44.6238    3.3820   12.7913 C   0  0  0  0  0  0  0  0  0  0  0  0
   49.9676   10.1522   21.5192 C   0  0  0  0  0  0  0  0  0  0  0  0
   50.8952   10.0977   23.6244 C   0  0  0  0  0  0  0  0  0  0  0  0
   43.1221    5.0320   12.2330 C   0  0  0  0  0  0  0  0  0  0  0  0
   48.5265    9.9407   23.4063 C   0  0  0  0  0  0  0  0  0  0  0  0
   45.3189    5.6572   12.9109 C   0  0  0  0  0  0  0  0  0  0  0  0
   48.1843    5.1418   21.9104 C   0  0  0  0  0  0  0  0  0  0  0  0
   49.6528    9.9741   24.2235 C   0  0  0  0  0  0  0  0  0  0  0  0
   44.0484    6.0303   12.4841 C   0  0  0  0  0  0  0  0  0  0  0  0
   47.8643    7.5347   16.7400 H   0  0  0  0  0  0  0  0  0  0  0  0
   47.1565    7.9004   21.1426 H   0  0  0  0  0  0  0  0  0  0  0  0
   46.4806    3.5930   15.5789 H   0  0  0  0  0  0  0  0  0  0  0  0
   47.6322    3.2934   17.4643 H   0  0  0  0  0  0  0  0  0  0  0  0
   47.5042    3.6905   19.8599 H   0  0  0  0  0  0  0  0  0  0  0  0
   47.1172    2.7883   13.3803 H   0  0  0  0  0  0  0  0  0  0  0  0
   47.7668    4.3815   12.9922 H   0  0  0  0  0  0  0  0  0  0  0  0
   47.5931   10.7547   20.3130 H   0  0  0  0  0  0  0  0  0  0  0  0
   46.5705   10.2076   21.6406 H   0  0  0  0  0  0  0  0  0  0  0  0
   44.7904    2.3131   12.8956 H   0  0  0  0  0  0  0  0  0  0  0  0
   50.1509   10.2175   20.4484 H   0  0  0  0  0  0  0  0  0  0  0  0
   51.8038   10.1303   24.2190 H   0  0  0  0  0  0  0  0  0  0  0  0
   42.1174    5.2731   11.8987 H   0  0  0  0  0  0  0  0  0  0  0  0
   47.5417    9.8421   23.8531 H   0  0  0  0  0  0  0  0  0  0  0  0
   46.0668    6.4206   13.1200 H   0  0  0  0  0  0  0  0  0  0  0  0
   48.3352    5.6052   22.8908 H   0  0  0  0  0  0  0  0  0  0  0  0
   49.1643    4.8242   21.5353 H   0  0  0  0  0  0  0  0  0  0  0  0
   47.5166    4.2846   22.0471 H   0  0  0  0  0  0  0  0  0  0  0  0
   49.5650    9.9068   25.3017 H   0  0  0  0  0  0  0  0  0  0  0  0
   43.7888    7.0745   12.3524 H   0  0  0  0  0  0  0  0  0  0  0  0
  2  1  1  0
  3  1  2  0
  4  5  1  0
  5  3  1  0
  6  2  1  0
  7  4  1  0
  8  1  1  0
  9  2  2  0
 10  4  2  0
 11 21  2  0
 12 20  2  0
 13 14  1  0
 14  8  2  0
 15 18  1  0
 16 17  1  0
 17  7  1  0
 18  6  1  0
 19  8  1  0
 20 16  1  0
 21 15  1  0
 22 27  2  0
 23 28  2  0
 24 15  2  0
 25 16  2  0
 26 19  1  0
 27 24  1  0
 28 25  1  0
  5 13  2  0
 11 22  1  0
 12 23  1  0
  3 29  1  0
  6 30  1  0
  7 31  1  0
 13 32  1  0
 14 33  1  0
 17 34  1  0
 17 35  1  0
 18 36  1  0
 18 37  1  0
 20 38  1  0
 21 39  1  0
 22 40  1  0
 23 41  1  0
 24 42  1  0
 25 43  1  0
 26 44  1  0
 26 45  1  0
 26 46  1  0
 27 47  1  0
 28 48  1  0
M  END
> <Uni-Dock RESULT> 
ENERGY=   -3.989  LOWER_BOUND=    3.536  UPPER_BOUND=    6.187
INTER + INTRA:          -3.989
INTER:                  -3.989
INTRA:                   0.000
UNBOUND:                 0.000

$$$$

     RDKit          3D

 48 50  0  0  0  0  0  0  0  0999 V2000
   49.5498    7.8591   14.5105 C   0  0  0  0  0  0  0  0  0  0  0  0
   49.8849    7.8228   15.9700 C   0  0  0  0  0  0  0  0  0  0  0  0
   48.1826    7.8221   14.1820 C   0  0  0  0  0  0  0  0  0  0  0  0
   46.3058    7.7755   12.5570 C   0  0  0  0  0  0  0  0  0  0  0  0
   47.7647    7.8339   12.8470 C   0  0  0  0  0  0  0  0  0  0  0  0
   51.1731    7.4893   16.3136 N   0  0  0  0  0  0  0  0  0  0  0  0
   45.9447    7.1740   11.3698 N   0  0  0  0  0  0  0  0  0  0  0  0
   50.5059    7.9492   13.4790 C   0  0  0  0  0  0  0  0  0  0  0  0
   49.0232    8.0729   16.8069 O   0  0  0  0  0  0  0  0  0  0  0  0
   45.5001    8.2159   13.3678 O   0  0  0  0  0  0  0  0  0  0  0  0
   52.5095   11.2218   18.2196 N   0  0  0  0  0  0  0  0  0  0  0  0
   43.7273    3.2637   10.5429 N   0  0  0  0  0  0  0  0  0  0  0  0
   48.7173    7.9128   11.8280 C   0  0  0  0  0  0  0  0  0  0  0  0
   50.0787    7.9632   12.1434 C   0  0  0  0  0  0  0  0  0  0  0  0
   52.4677    8.8226   17.8697 C   0  0  0  0  0  0  0  0  0  0  0  0
   44.1761    5.5064   11.3492 C   0  0  0  0  0  0  0  0  0  0  0  0
   44.5551    6.9267   11.0468 C   0  0  0  0  0  0  0  0  0  0  0  0
   51.6568    7.5762   17.6705 C   0  0  0  0  0  0  0  0  0  0  0  0
   51.8360    7.9830   13.8183 O   0  0  0  0  0  0  0  0  0  0  0  0
   44.0425    4.5622   10.3362 C   0  0  0  0  0  0  0  0  0  0  0  0
   51.8455   10.0544   18.0510 C   0  0  0  0  0  0  0  0  0  0  0  0
   53.8571   11.1614   18.2047 C   0  0  0  0  0  0  0  0  0  0  0  0
   43.5301    2.8855   11.8244 C   0  0  0  0  0  0  0  0  0  0  0  0
   53.8652    8.8041   17.8494 C   0  0  0  0  0  0  0  0  0  0  0  0
   43.9680    5.0726   12.6617 C   0  0  0  0  0  0  0  0  0  0  0  0
   52.6834    8.7365   12.9521 C   0  0  0  0  0  0  0  0  0  0  0  0
   54.5730    9.9899   18.0232 C   0  0  0  0  0  0  0  0  0  0  0  0
   43.6382    3.7432   12.9062 C   0  0  0  0  0  0  0  0  0  0  0  0
   47.4355    7.7728   14.9749 H   0  0  0  0  0  0  0  0  0  0  0  0
   51.8561    7.4194   15.5668 H   0  0  0  0  0  0  0  0  0  0  0  0
   46.6326    6.6284   10.8707 H   0  0  0  0  0  0  0  0  0  0  0  0
   48.4191    7.9594   10.7839 H   0  0  0  0  0  0  0  0  0  0  0  0
   50.7898    8.0057   11.3231 H   0  0  0  0  0  0  0  0  0  0  0  0
   44.4347    7.1381    9.9784 H   0  0  0  0  0  0  0  0  0  0  0  0
   43.8986    7.6164   11.5891 H   0  0  0  0  0  0  0  0  0  0  0  0
   50.8284    7.5427   18.3872 H   0  0  0  0  0  0  0  0  0  0  0  0
   52.2728    6.6878   17.8484 H   0  0  0  0  0  0  0  0  0  0  0  0
   44.1921    4.8260    9.2926 H   0  0  0  0  0  0  0  0  0  0  0  0
   50.7605   10.1386   18.0614 H   0  0  0  0  0  0  0  0  0  0  0  0
   54.3635   12.1120   18.3464 H   0  0  0  0  0  0  0  0  0  0  0  0
   43.2755    1.8390   11.9643 H   0  0  0  0  0  0  0  0  0  0  0  0
   54.4048    7.8732   17.7031 H   0  0  0  0  0  0  0  0  0  0  0  0
   44.0640    5.7692   13.4931 H   0  0  0  0  0  0  0  0  0  0  0  0
   53.6179    8.9321   13.4880 H   0  0  0  0  0  0  0  0  0  0  0  0
   52.2393    9.7035   12.6886 H   0  0  0  0  0  0  0  0  0  0  0  0
   52.9292    8.1570   12.0560 H   0  0  0  0  0  0  0  0  0  0  0  0
   55.6568   10.0014   18.0188 H   0  0  0  0  0  0  0  0  0  0  0  0
   43.4713    3.3869   13.9162 H   0  0  0  0  0  0  0  0  0  0  0  0
  2  1  1  0
  3  1  2  0
  4  5  1  0
  5  3  1  0
  6  2  1  0
  7  4  1  0
  8  1  1  0
  9  2  2  0
 10  4  2  0
 11 21  2  0
 12 20  2  0
 13 14  1  0
 14  8  2  0
 15 18  1  0
 16 17  1  0
 17  7  1  0
 18  6  1  0
 19  8  1  0
 20 16  1  0
 21 15  1  0
 22 27  2  0
 23 28  2  0
 24 15  2  0
 25 16  2  0
 26 19  1  0
 27 24  1  0
 28 25  1  0
  5 13  2  0
 11 22  1  0
 12 23  1  0
  3 29  1  0
  6 30  1  0
  7 31  1  0
 13 32  1  0
 14 33  1  0
 17 34  1  0
 17 35  1  0
 18 36  1  0
 18 37  1  0
 20 38  1  0
 21 39  1  0
 22 40  1  0
 23 41  1  0
 24 42  1  0
 25 43  1  0
 26 44  1  0
 26 45  1  0
 26 46  1  0
 27 47  1  0
 28 48  1  0
M  END
> <Uni-Dock RESULT> 
ENERGY=   -3.942  LOWER_BOUND=    3.676  UPPER_BOUND=    4.972
INTER + INTRA:          -3.942
INTER:                  -3.942
INTRA:                   0.000
UNBOUND:                 0.000

$$$$

     RDKit          3D

 48 50  0  0  0  0  0  0  0  0999 V2000
   45.9060   10.4914   11.9175 C   0  0  0  0  0  0  0  0  0  0  0  0
   46.3083    9.1040   12.3141 C   0  0  0  0  0  0  0  0  0  0  0  0
   46.9370   11.4459   11.8502 C   0  0  0  0  0  0  0  0  0  0  0  0
   47.7910   13.7458   11.4675 C   0  0  0  0  0  0  0  0  0  0  0  0
   46.6639   12.7741   11.5062 C   0  0  0  0  0  0  0  0  0  0  0  0
   45.3146    8.2572   12.7430 N   0  0  0  0  0  0  0  0  0  0  0  0
   47.4746   15.0568   11.7552 N   0  0  0  0  0  0  0  0  0  0  0  0
   44.5885   10.8737   11.5949 C   0  0  0  0  0  0  0  0  0  0  0  0
   47.4862    8.7646   12.2609 O   0  0  0  0  0  0  0  0  0  0  0  0
   48.9276   13.3590   11.2243 O   0  0  0  0  0  0  0  0  0  0  0  0
   45.4532    5.1717    9.6109 N   0  0  0  0  0  0  0  0  0  0  0  0
   48.6017   17.7024   15.3079 N   0  0  0  0  0  0  0  0  0  0  0  0
   45.3542   13.1501   11.1975 C   0  0  0  0  0  0  0  0  0  0  0  0
   44.3234   12.2065   11.2485 C   0  0  0  0  0  0  0  0  0  0  0  0
   45.0704    6.0165   11.8514 C   0  0  0  0  0  0  0  0  0  0  0  0
   48.8316   16.3078   13.3373 C   0  0  0  0  0  0  0  0  0  0  0  0
   48.5056   16.0641   11.8928 C   0  0  0  0  0  0  0  0  0  0  0  0
   45.5512    6.8565   12.9977 C   0  0  0  0  0  0  0  0  0  0  0  0
   43.5947    9.9289   11.6674 O   0  0  0  0  0  0  0  0  0  0  0  0
   48.3642   17.4361   14.0037 C   0  0  0  0  0  0  0  0  0  0  0  0
   45.8289    5.8965   10.6906 C   0  0  0  0  0  0  0  0  0  0  0  0
   44.2649    4.5379    9.6886 C   0  0  0  0  0  0  0  0  0  0  0  0
   49.3469   16.8013   15.9837 C   0  0  0  0  0  0  0  0  0  0  0  0
   43.8403    5.3537   11.8880 C   0  0  0  0  0  0  0  0  0  0  0  0
   49.5954   15.3981   14.0744 C   0  0  0  0  0  0  0  0  0  0  0  0
   42.5206   10.0786   10.7400 C   0  0  0  0  0  0  0  0  0  0  0  0
   43.4309    4.5989   10.7925 C   0  0  0  0  0  0  0  0  0  0  0  0
   49.8603   15.6465   15.4174 C   0  0  0  0  0  0  0  0  0  0  0  0
   47.9625   11.1536   12.0785 H   0  0  0  0  0  0  0  0  0  0  0  0
   44.3545    8.5683   12.6404 H   0  0  0  0  0  0  0  0  0  0  0  0
   46.5788   15.2615   12.1743 H   0  0  0  0  0  0  0  0  0  0  0  0
   45.1195   14.1666   10.8928 H   0  0  0  0  0  0  0  0  0  0  0  0
   43.3155   12.5410   11.0195 H   0  0  0  0  0  0  0  0  0  0  0  0
   48.1216   16.9778   11.4254 H   0  0  0  0  0  0  0  0  0  0  0  0
   49.4099   15.7758   11.3451 H   0  0  0  0  0  0  0  0  0  0  0  0
   46.6127    6.6648   13.1908 H   0  0  0  0  0  0  0  0  0  0  0  0
   45.0059    6.6009   13.9130 H   0  0  0  0  0  0  0  0  0  0  0  0
   47.7623   18.1851   13.4961 H   0  0  0  0  0  0  0  0  0  0  0  0
   46.7887    6.4002   10.5931 H   0  0  0  0  0  0  0  0  0  0  0  0
   43.9910    3.9607    8.8100 H   0  0  0  0  0  0  0  0  0  0  0  0
   49.5259   17.0388   17.0282 H   0  0  0  0  0  0  0  0  0  0  0  0
   43.2021    5.4184   12.7642 H   0  0  0  0  0  0  0  0  0  0  0  0
   49.9825   14.4960   13.6031 H   0  0  0  0  0  0  0  0  0  0  0  0
   41.9829    9.1259   10.6967 H   0  0  0  0  0  0  0  0  0  0  0  0
   42.8833   10.3050    9.7305 H   0  0  0  0  0  0  0  0  0  0  0  0
   41.8168   10.8422   11.0877 H   0  0  0  0  0  0  0  0  0  0  0  0
   42.4851    4.0696   10.7986 H   0  0  0  0  0  0  0  0  0  0  0  0
   50.4516   14.9548   16.0063 H   0  0  0  0  0  0  0  0  0  0  0  0
  2  1  1  0
  3  1  2  0
  4  5  1  0
  5  3  1  0
  6  2  1  0
  7  4  1  0
  8  1  1  0
  9  2  2  0
 10  4  2  0
 11 21  2  0
 12 20  2  0
 13 14  1  0
 14  8  2  0
 15 18  1  0
 16 17  1  0
 17  7  1  0
 18  6  1  0
 19  8  1  0
 20 16  1  0
 21 15  1  0
 22 27  2  0
 23 28  2  0
 24 15  2  0
 25 16  2  0
 26 19  1  0
 27 24  1  0
 28 25  1  0
  5 13  2  0
 11 22  1  0
 12 23  1  0
  3 29  1  0
  6 30  1  0
  7 31  1  0
 13 32  1  0
 14 33  1  0
 17 34  1  0
 17 35  1  0
 18 36  1  0
 18 37  1  0
 20 38  1  0
 21 39  1  0
 22 40  1  0
 23 41  1  0
 24 42  1  0
 25 43  1  0
 26 44  1  0
 26 45  1  0
 26 46  1  0
 27 47  1  0
 28 48  1  0
M  END
> <Uni-Dock RESULT> 
ENERGY=   -3.886  LOWER_BOUND=    5.955  UPPER_BOUND=   10.557
INTER + INTRA:          -3.886
INTER:                  -3.886
INTRA:                   0.000
UNBOUND:                 0.000

$$$$

     RDKit          3D

 48 50  0  0  0  0  0  0  0  0999 V2000
   48.1250    9.5776   18.0796 C   0  0  0  0  0  0  0  0  0  0  0  0
   47.7109   10.8852   18.6817 C   0  0  0  0  0  0  0  0  0  0  0  0
   48.1678    9.5222   16.6747 C   0  0  0  0  0  0  0  0  0  0  0  0
   48.5371    8.3353   14.5252 C   0  0  0  0  0  0  0  0  0  0  0  0
   48.5254    8.3422   16.0137 C   0  0  0  0  0  0  0  0  0  0  0  0
   47.3060   10.8752   19.9950 N   0  0  0  0  0  0  0  0  0  0  0  0
   48.2643    7.1268   13.9198 N   0  0  0  0  0  0  0  0  0  0  0  0
   48.4860    8.4389   18.8273 C   0  0  0  0  0  0  0  0  0  0  0  0
   47.7295   11.9089   18.0055 O   0  0  0  0  0  0  0  0  0  0  0  0
   48.7466    9.3723   13.9076 O   0  0  0  0  0  0  0  0  0  0  0  0
   50.4188   13.3797   21.8356 N   0  0  0  0  0  0  0  0  0  0  0  0
   44.6938    5.7690   11.4101 N   0  0  0  0  0  0  0  0  0  0  0  0
   48.8723    7.2130   16.7598 C   0  0  0  0  0  0  0  0  0  0  0  0
   48.8458    7.2607   18.1572 C   0  0  0  0  0  0  0  0  0  0  0  0
   48.1938   12.4402   21.6191 C   0  0  0  0  0  0  0  0  0  0  0  0
   46.6507    7.0216   12.1047 C   0  0  0  0  0  0  0  0  0  0  0  0
   48.1027    7.0267   12.4844 C   0  0  0  0  0  0  0  0  0  0  0  0
   47.0383   12.0885   20.7291 C   0  0  0  0  0  0  0  0  0  0  0  0
   48.4370    8.5110   20.1976 O   0  0  0  0  0  0  0  0  0  0  0  0
   46.0028    5.8458   11.7397 C   0  0  0  0  0  0  0  0  0  0  0  0
   49.3324   13.0488   21.0991 C   0  0  0  0  0  0  0  0  0  0  0  0
   50.3714   13.0889   23.1520 C   0  0  0  0  0  0  0  0  0  0  0  0
   43.9932    6.9234   11.4408 C   0  0  0  0  0  0  0  0  0  0  0  0
   48.1885   12.1453   22.9854 C   0  0  0  0  0  0  0  0  0  0  0  0
   45.8884    8.1932   12.1281 C   0  0  0  0  0  0  0  0  0  0  0  0
   49.3947    7.7203   20.9001 C   0  0  0  0  0  0  0  0  0  0  0  0
   49.2915   12.4774   23.7667 C   0  0  0  0  0  0  0  0  0  0  0  0
   44.5396    8.1470   11.7899 C   0  0  0  0  0  0  0  0  0  0  0  0
   47.9096   10.4050   16.0889 H   0  0  0  0  0  0  0  0  0  0  0  0
   47.4368   10.0178   20.5211 H   0  0  0  0  0  0  0  0  0  0  0  0
   47.8714    6.3807   14.4757 H   0  0  0  0  0  0  0  0  0  0  0  0
   49.1882    6.2942   16.2727 H   0  0  0  0  0  0  0  0  0  0  0  0
   49.1045    6.3572   18.7021 H   0  0  0  0  0  0  0  0  0  0  0  0
   48.5848    6.0928   12.1746 H   0  0  0  0  0  0  0  0  0  0  0  0
   48.6235    7.8446   11.9740 H   0  0  0  0  0  0  0  0  0  0  0  0
   46.8148   12.9190   20.0499 H   0  0  0  0  0  0  0  0  0  0  0  0
   46.1375   11.9093   21.3264 H   0  0  0  0  0  0  0  0  0  0  0  0
   46.5305    4.8965   11.7018 H   0  0  0  0  0  0  0  0  0  0  0  0
   49.4053   13.2906   20.0405 H   0  0  0  0  0  0  0  0  0  0  0  0
   51.2547   13.3692   23.7189 H   0  0  0  0  0  0  0  0  0  0  0  0
   42.9452    6.8363   11.1697 H   0  0  0  0  0  0  0  0  0  0  0  0
   47.3308   11.6630   23.4447 H   0  0  0  0  0  0  0  0  0  0  0  0
   46.3445    9.1407   12.4108 H   0  0  0  0  0  0  0  0  0  0  0  0
   49.4486    8.0968   21.9268 H   0  0  0  0  0  0  0  0  0  0  0  0
   50.3947    7.8053   20.4589 H   0  0  0  0  0  0  0  0  0  0  0  0
   49.0704    6.6752   20.9459 H   0  0  0  0  0  0  0  0  0  0  0  0
   49.3094   12.2661   24.8296 H   0  0  0  0  0  0  0  0  0  0  0  0
   43.9313    9.0441   11.8002 H   0  0  0  0  0  0  0  0  0  0  0  0
  2  1  1  0
  3  1  2  0
  4  5  1  0
  5  3  1  0
  6  2  1  0
  7  4  1  0
  8  1  1  0
  9  2  2  0
 10  4  2  0
 11 21  2  0
 12 20  2  0
 13 14  1  0
 14  8  2  0
 15 18  1  0
 16 17  1  0
 17  7  1  0
 18  6  1  0
 19  8  1  0
 20 16  1  0
 21 15  1  0
 22 27  2  0
 23 28  2  0
 24 15  2  0
 25 16  2  0
 26 19  1  0
 27 24  1  0
 28 25  1  0
  5 13  2  0
 11 22  1  0
 12 23  1  0
  3 29  1  0
  6 30  1  0
  7 31  1  0
 13 32  1  0
 14 33  1  0
 17 34  1  0
 17 35  1  0
 18 36  1  0
 18 37  1  0
 20 38  1  0
 21 39  1  0
 22 40  1  0
 23 41  1  0
 24 42  1  0
 25 43  1  0
 26 44  1  0
 26 45  1  0
 26 46  1  0
 27 47  1  0
 28 48  1  0
M  END
> <Uni-Dock RESULT> 
ENERGY=   -3.783  LOWER_BOUND=    4.116  UPPER_BOUND=    6.913
INTER + INTRA:          -3.783
INTER:                  -3.783
INTRA:                   0.000
UNBOUND:                 0.000

$$$$
