
     RDKit          3D

 48 50  0  0  0  0  0  0  0  0999 V2000
   46.9290    5.2339   14.0567 C   0  0  0  0  0  0  0  0  0  0  0  0
   47.2909    4.4199   15.2641 C   0  0  0  0  0  0  0  0  0  0  0  0
   46.2088    4.5609   13.0519 C   0  0  0  0  0  0  0  0  0  0  0  0
   45.0559    4.4657   10.8550 C   0  0  0  0  0  0  0  0  0  0  0  0
   45.8279    5.2191   11.8794 C   0  0  0  0  0  0  0  0  0  0  0  0
   47.7152    5.0961   16.3821 N   0  0  0  0  0  0  0  0  0  0  0  0
   45.2454    4.8509    9.5447 N   0  0  0  0  0  0  0  0  0  0  0  0
   47.2694    6.5929   13.8769 C   0  0  0  0  0  0  0  0  0  0  0  0
   47.1988    3.1965   15.2379 O   0  0  0  0  0  0  0  0  0  0  0  0
   44.3217    3.5452   11.1915 O   0  0  0  0  0  0  0  0  0  0  0  0
   50.0249    6.6999   19.9303 N   0  0  0  0  0  0  0  0  0  0  0  0
   46.7658    1.0092    7.9500 N   0  0  0  0  0  0  0  0  0  0  0  0
   46.1482    6.5677   11.7127 C   0  0  0  0  0  0  0  0  0  0  0  0
   46.8657    7.2470   12.7034 C   0  0  0  0  0  0  0  0  0  0  0  0
   48.4596    5.3407   18.6739 C   0  0  0  0  0  0  0  0  0  0  0  0
   45.6399    3.1536    7.8504 C   0  0  0  0  0  0  0  0  0  0  0  0
   44.6519    4.1061    8.4558 C   0  0  0  0  0  0  0  0  0  0  0  0
   48.2108    4.3939   17.5396 C   0  0  0  0  0  0  0  0  0  0  0  0
   47.9860    7.2091   14.8718 O   0  0  0  0  0  0  0  0  0  0  0  0
   45.8815    1.9126    8.4327 C   0  0  0  0  0  0  0  0  0  0  0  0
   49.7365    5.8214   18.9430 C   0  0  0  0  0  0  0  0  0  0  0  0
   48.9901    7.1195   20.6897 C   0  0  0  0  0  0  0  0  0  0  0  0
   47.4481    1.3581    6.8397 C   0  0  0  0  0  0  0  0  0  0  0  0
   47.4140    5.8094   19.4743 C   0  0  0  0  0  0  0  0  0  0  0  0
   46.3734    3.4816    6.7062 C   0  0  0  0  0  0  0  0  0  0  0  0
   48.3958    8.5579   14.6720 C   0  0  0  0  0  0  0  0  0  0  0  0
   47.6809    6.7090   20.5018 C   0  0  0  0  0  0  0  0  0  0  0  0
   47.2901    2.5703    6.1895 C   0  0  0  0  0  0  0  0  0  0  0  0
   45.9416    3.5119   13.1848 H   0  0  0  0  0  0  0  0  0  0  0  0
   47.9110    6.0876   16.2894 H   0  0  0  0  0  0  0  0  0  0  0  0
   46.0322    5.4431    9.3195 H   0  0  0  0  0  0  0  0  0  0  0  0
   45.8233    7.1148   10.8315 H   0  0  0  0  0  0  0  0  0  0  0  0
   47.0862    8.2958   12.5283 H   0  0  0  0  0  0  0  0  0  0  0  0
   44.3245    4.8379    7.7088 H   0  0  0  0  0  0  0  0  0  0  0  0
   43.7579    3.5683    8.7909 H   0  0  0  0  0  0  0  0  0  0  0  0
   47.4867    3.6243   17.8327 H   0  0  0  0  0  0  0  0  0  0  0  0
   49.1310    3.8710   17.2534 H   0  0  0  0  0  0  0  0  0  0  0  0
   45.3565    1.6022    9.3344 H   0  0  0  0  0  0  0  0  0  0  0  0
   50.5936    5.5085   18.3517 H   0  0  0  0  0  0  0  0  0  0  0  0
   49.2491    7.8193   21.4789 H   0  0  0  0  0  0  0  0  0  0  0  0
   48.1494    0.6131    6.4754 H   0  0  0  0  0  0  0  0  0  0  0  0
   46.3941    5.4756   19.2972 H   0  0  0  0  0  0  0  0  0  0  0  0
   46.2331    4.4390    6.2115 H   0  0  0  0  0  0  0  0  0  0  0  0
   48.9804    8.8604   15.5461 H   0  0  0  0  0  0  0  0  0  0  0  0
   47.5304    9.2248   14.6036 H   0  0  0  0  0  0  0  0  0  0  0  0
   49.0408    8.6489   13.7920 H   0  0  0  0  0  0  0  0  0  0  0  0
   46.8871    7.0814   21.1393 H   0  0  0  0  0  0  0  0  0  0  0  0
   47.8672    2.7979    5.3005 H   0  0  0  0  0  0  0  0  0  0  0  0
  2  1  1  0
  3  1  2  0
  4  5  1  0
  5  3  1  0
  6  2  1  0
  7  4  1  0
  8  1  1  0
  9  2  2  0
 10  4  2  0
 11 21  2  0
 12 20  2  0
 13 14  1  0
 14  8  2  0
 15 18  1  0
 16 17  1  0
 17  7  1  0
 18  6  1  0
 19  8  1  0
 20 16  1  0
 21 15  1  0
 22 27  2  0
 23 28  2  0
 24 15  2  0
 25 16  2  0
 26 19  1  0
 27 24  1  0
 28 25  1  0
  5 13  2  0
 11 22  1  0
 12 23  1  0
  3 29  1  0
  6 30  1  0
  7 31  1  0
 13 32  1  0
 14 33  1  0
 17 34  1  0
 17 35  1  0
 18 36  1  0
 18 37  1  0
 20 38  1  0
 21 39  1  0
 22 40  1  0
 23 41  1  0
 24 42  1  0
 25 43  1  0
 26 44  1  0
 26 45  1  0
 26 46  1  0
 27 47  1  0
 28 48  1  0
M  END
> <Uni-Dock RESULT> 
ENERGY=   -7.490  LOWER_BOUND=    0.000  UPPER_BOUND=    0.000
INTER + INTRA:          -7.490
INTER:                  -7.490
INTRA:                   0.000
UNBOUND:                 0.000

$$$$
