
     RDKit          3D

 48 50  0  0  0  0  0  0  0  0999 V2000
   47.0123    6.3785   13.3726 C   0  0  0  0  0  0  0  0  0  0  0  0
   47.4885    7.7982   13.3012 C   0  0  0  0  0  0  0  0  0  0  0  0
   46.3235    5.9065   12.2376 C   0  0  0  0  0  0  0  0  0  0  0  0
   45.1098    4.0644   11.0034 C   0  0  0  0  0  0  0  0  0  0  0  0
   45.8446    4.5952   12.1851 C   0  0  0  0  0  0  0  0  0  0  0  0
   47.8842    8.3969   14.4725 N   0  0  0  0  0  0  0  0  0  0  0  0
   45.3962    4.6470    9.7881 N   0  0  0  0  0  0  0  0  0  0  0  0
   47.2255    5.5162   14.4687 C   0  0  0  0  0  0  0  0  0  0  0  0
   47.5062    8.3820   12.2209 O   0  0  0  0  0  0  0  0  0  0  0  0
   44.3221    3.1355   11.1436 O   0  0  0  0  0  0  0  0  0  0  0  0
   52.0927    9.2487   13.3977 N   0  0  0  0  0  0  0  0  0  0  0  0
   47.4025    2.8635    6.0958 N   0  0  0  0  0  0  0  0  0  0  0  0
   46.0290    3.7570   13.2867 C   0  0  0  0  0  0  0  0  0  0  0  0
   46.7140    4.2121   14.4176 C   0  0  0  0  0  0  0  0  0  0  0  0
   49.9963    9.5859   14.5691 C   0  0  0  0  0  0  0  0  0  0  0  0
   45.7689    3.2200    7.8521 C   0  0  0  0  0  0  0  0  0  0  0  0
   44.8240    4.1488    8.5562 C   0  0  0  0  0  0  0  0  0  0  0  0
   48.5020    9.7006   14.5031 C   0  0  0  0  0  0  0  0  0  0  0  0
   47.9097    6.0075   15.5524 O   0  0  0  0  0  0  0  0  0  0  0  0
   46.5250    3.6456    6.7648 C   0  0  0  0  0  0  0  0  0  0  0  0
   50.7455    9.3761   13.4150 C   0  0  0  0  0  0  0  0  0  0  0  0
   52.7249    9.3262   14.5872 C   0  0  0  0  0  0  0  0  0  0  0  0
   47.5371    1.5929    6.5324 C   0  0  0  0  0  0  0  0  0  0  0  0
   50.6876    9.6488   15.7824 C   0  0  0  0  0  0  0  0  0  0  0  0
   45.9418    1.8987    8.2750 C   0  0  0  0  0  0  0  0  0  0  0  0
   48.4454    5.0592   16.4713 C   0  0  0  0  0  0  0  0  0  0  0  0
   52.0736    9.5209   15.7939 C   0  0  0  0  0  0  0  0  0  0  0  0
   46.8372    1.0697    7.6063 C   0  0  0  0  0  0  0  0  0  0  0  0
   46.1430    6.5890   11.4099 H   0  0  0  0  0  0  0  0  0  0  0  0
   47.9654    7.8094   15.2957 H   0  0  0  0  0  0  0  0  0  0  0  0
   46.2005    5.2541    9.7062 H   0  0  0  0  0  0  0  0  0  0  0  0
   45.6388    2.7402   13.2687 H   0  0  0  0  0  0  0  0  0  0  0  0
   46.8221    3.5204   15.2477 H   0  0  0  0  0  0  0  0  0  0  0  0
   43.8718    3.6420    8.7494 H   0  0  0  0  0  0  0  0  0  0  0  0
   44.6038    5.0207    7.9303 H   0  0  0  0  0  0  0  0  0  0  0  0
   48.2033   10.2931   13.6311 H   0  0  0  0  0  0  0  0  0  0  0  0
   48.1206   10.2182   15.3901 H   0  0  0  0  0  0  0  0  0  0  0  0
   46.4486    4.6610    6.3845 H   0  0  0  0  0  0  0  0  0  0  0  0
   50.2658    9.2982   12.4412 H   0  0  0  0  0  0  0  0  0  0  0  0
   53.8052    9.2226   14.5439 H   0  0  0  0  0  0  0  0  0  0  0  0
   48.2471    0.9858    5.9783 H   0  0  0  0  0  0  0  0  0  0  0  0
   50.1541    9.7994   16.7172 H   0  0  0  0  0  0  0  0  0  0  0  0
   45.3803    1.5167    9.1255 H   0  0  0  0  0  0  0  0  0  0  0  0
   49.1095    5.5980   17.1541 H   0  0  0  0  0  0  0  0  0  0  0  0
   47.6490    4.6068   17.0703 H   0  0  0  0  0  0  0  0  0  0  0  0
   49.0415    4.2963   15.9593 H   0  0  0  0  0  0  0  0  0  0  0  0
   52.6334    9.5723   16.7207 H   0  0  0  0  0  0  0  0  0  0  0  0
   46.9851    0.0417    7.9169 H   0  0  0  0  0  0  0  0  0  0  0  0
  2  1  1  0
  3  1  2  0
  4  5  1  0
  5  3  1  0
  6  2  1  0
  7  4  1  0
  8  1  1  0
  9  2  2  0
 10  4  2  0
 11 21  2  0
 12 20  2  0
 13 14  1  0
 14  8  2  0
 15 18  1  0
 16 17  1  0
 17  7  1  0
 18  6  1  0
 19  8  1  0
 20 16  1  0
 21 15  1  0
 22 27  2  0
 23 28  2  0
 24 15  2  0
 25 16  2  0
 26 19  1  0
 27 24  1  0
 28 25  1  0
  5 13  2  0
 11 22  1  0
 12 23  1  0
  3 29  1  0
  6 30  1  0
  7 31  1  0
 13 32  1  0
 14 33  1  0
 17 34  1  0
 17 35  1  0
 18 36  1  0
 18 37  1  0
 20 38  1  0
 21 39  1  0
 22 40  1  0
 23 41  1  0
 24 42  1  0
 25 43  1  0
 26 44  1  0
 26 45  1  0
 26 46  1  0
 27 47  1  0
 28 48  1  0
M  END
> <Uni-Dock RESULT> 
ENERGY=   -6.003  LOWER_BOUND=    0.000  UPPER_BOUND=    0.000
INTER + INTRA:          -6.003
INTER:                  -6.003
INTRA:                   0.000
UNBOUND:                 0.000

$$$$

     RDKit          3D

 48 50  0  0  0  0  0  0  0  0999 V2000
   50.2642    7.8544   12.5162 C   0  0  0  0  0  0  0  0  0  0  0  0
   51.2963    7.8224   11.4295 C   0  0  0  0  0  0  0  0  0  0  0  0
   48.9236    7.7760   12.0892 C   0  0  0  0  0  0  0  0  0  0  0  0
   46.4486    7.7059   12.5978 C   0  0  0  0  0  0  0  0  0  0  0  0
   47.8764    7.7838   13.0138 C   0  0  0  0  0  0  0  0  0  0  0  0
   52.5762    8.1997   11.7554 N   0  0  0  0  0  0  0  0  0  0  0  0
   46.1893    7.0687   11.4039 N   0  0  0  0  0  0  0  0  0  0  0  0
   50.5543    7.9374   13.8944 C   0  0  0  0  0  0  0  0  0  0  0  0
   50.9778    7.4737   10.2958 O   0  0  0  0  0  0  0  0  0  0  0  0
   45.5770    8.1703   13.3241 O   0  0  0  0  0  0  0  0  0  0  0  0
   54.6513    4.4058   10.8105 N   0  0  0  0  0  0  0  0  0  0  0  0
   43.9498    3.1729   10.6000 N   0  0  0  0  0  0  0  0  0  0  0  0
   48.1686    7.9004   14.3745 C   0  0  0  0  0  0  0  0  0  0  0  0
   49.4948    7.9752   14.8114 C   0  0  0  0  0  0  0  0  0  0  0  0
   54.4509    6.8046   11.1045 C   0  0  0  0  0  0  0  0  0  0  0  0
   44.3679    5.4580   11.2952 C   0  0  0  0  0  0  0  0  0  0  0  0
   44.8361    6.8401   10.9460 C   0  0  0  0  0  0  0  0  0  0  0  0
   53.6797    8.0629   10.8356 C   0  0  0  0  0  0  0  0  0  0  0  0
   51.8719    8.0014   14.2735 O   0  0  0  0  0  0  0  0  0  0  0  0
   44.3472    4.4407   10.3469 C   0  0  0  0  0  0  0  0  0  0  0  0
   54.0173    5.5825   10.5987 C   0  0  0  0  0  0  0  0  0  0  0  0
   55.7668    4.4453   11.5686 C   0  0  0  0  0  0  0  0  0  0  0  0
   43.5549    2.9021   11.8625 C   0  0  0  0  0  0  0  0  0  0  0  0
   55.6040    6.8013   11.8945 C   0  0  0  0  0  0  0  0  0  0  0  0
   43.9557    5.1344   12.5914 C   0  0  0  0  0  0  0  0  0  0  0  0
   52.1750    7.7071   15.6344 C   0  0  0  0  0  0  0  0  0  0  0  0
   56.2762    5.6051   12.1286 C   0  0  0  0  0  0  0  0  0  0  0  0
   43.5408    3.8386   12.8823 C   0  0  0  0  0  0  0  0  0  0  0  0
   48.7123    7.7385   11.0227 H   0  0  0  0  0  0  0  0  0  0  0  0
   52.7869    8.3454   12.7371 H   0  0  0  0  0  0  0  0  0  0  0  0
   46.9194    6.5263   10.9624 H   0  0  0  0  0  0  0  0  0  0  0  0
   47.3605    7.9327   15.1041 H   0  0  0  0  0  0  0  0  0  0  0  0
   49.6637    8.0721   15.8797 H   0  0  0  0  0  0  0  0  0  0  0  0
   44.1539    7.5868   11.3682 H   0  0  0  0  0  0  0  0  0  0  0  0
   44.8377    6.9827    9.8597 H   0  0  0  0  0  0  0  0  0  0  0  0
   53.3258    8.0790    9.7986 H   0  0  0  0  0  0  0  0  0  0  0  0
   54.3230    8.9395   10.9699 H   0  0  0  0  0  0  0  0  0  0  0  0
   44.6601    4.6164    9.3208 H   0  0  0  0  0  0  0  0  0  0  0  0
   53.1159    5.5142    9.9926 H   0  0  0  0  0  0  0  0  0  0  0  0
   56.2562    3.4877   11.7208 H   0  0  0  0  0  0  0  0  0  0  0  0
   43.2403    1.8777   12.0395 H   0  0  0  0  0  0  0  0  0  0  0  0
   55.9831    7.7240   12.3257 H   0  0  0  0  0  0  0  0  0  0  0  0
   43.9595    5.8912   13.3736 H   0  0  0  0  0  0  0  0  0  0  0  0
   53.2622    7.6163   15.7197 H   0  0  0  0  0  0  0  0  0  0  0  0
   51.8577    8.5255   16.2882 H   0  0  0  0  0  0  0  0  0  0  0  0
   51.7354    6.7540   15.9468 H   0  0  0  0  0  0  0  0  0  0  0  0
   57.1760    5.5769   12.7325 H   0  0  0  0  0  0  0  0  0  0  0  0
   43.2159    3.5670   13.8801 H   0  0  0  0  0  0  0  0  0  0  0  0
  2  1  1  0
  3  1  2  0
  4  5  1  0
  5  3  1  0
  6  2  1  0
  7  4  1  0
  8  1  1  0
  9  2  2  0
 10  4  2  0
 11 21  2  0
 12 20  2  0
 13 14  1  0
 14  8  2  0
 15 18  1  0
 16 17  1  0
 17  7  1  0
 18  6  1  0
 19  8  1  0
 20 16  1  0
 21 15  1  0
 22 27  2  0
 23 28  2  0
 24 15  2  0
 25 16  2  0
 26 19  1  0
 27 24  1  0
 28 25  1  0
  5 13  2  0
 11 22  1  0
 12 23  1  0
  3 29  1  0
  6 30  1  0
  7 31  1  0
 13 32  1  0
 14 33  1  0
 17 34  1  0
 17 35  1  0
 18 36  1  0
 18 37  1  0
 20 38  1  0
 21 39  1  0
 22 40  1  0
 23 41  1  0
 24 42  1  0
 25 43  1  0
 26 44  1  0
 26 45  1  0
 26 46  1  0
 27 47  1  0
 28 48  1  0
M  END
> <Uni-Dock RESULT> 
ENERGY=   -4.831  LOWER_BOUND=    3.341  UPPER_BOUND=    5.218
INTER + INTRA:          -4.831
INTER:                  -4.831
INTRA:                   0.000
UNBOUND:                 0.000

$$$$

     RDKit          3D

 48 50  0  0  0  0  0  0  0  0999 V2000
   45.1086    8.5119   12.0903 C   0  0  0  0  0  0  0  0  0  0  0  0
   44.4942    9.7676   11.5489 C   0  0  0  0  0  0  0  0  0  0  0  0
   46.3548    8.6669   12.7294 C   0  0  0  0  0  0  0  0  0  0  0  0
   48.3354    7.6953   13.9634 C   0  0  0  0  0  0  0  0  0  0  0  0
   47.0162    7.5685   13.2840 C   0  0  0  0  0  0  0  0  0  0  0  0
   43.4526    9.6364   10.6631 N   0  0  0  0  0  0  0  0  0  0  0  0
   48.6182    8.9166   14.5352 N   0  0  0  0  0  0  0  0  0  0  0  0
   44.5181    7.2330   12.0124 C   0  0  0  0  0  0  0  0  0  0  0  0
   44.9324   10.8606   11.8976 O   0  0  0  0  0  0  0  0  0  0  0  0
   49.0884    6.7293   14.0153 O   0  0  0  0  0  0  0  0  0  0  0  0
   40.3268   11.7316   12.9937 N   0  0  0  0  0  0  0  0  0  0  0  0
   49.1555   10.0284   18.9301 N   0  0  0  0  0  0  0  0  0  0  0  0
   46.4427    6.2999   13.1739 C   0  0  0  0  0  0  0  0  0  0  0  0
   45.2047    6.1333   12.5453 C   0  0  0  0  0  0  0  0  0  0  0  0
   41.4208   10.9215   10.9869 C   0  0  0  0  0  0  0  0  0  0  0  0
   49.5567    8.9816   16.7799 C   0  0  0  0  0  0  0  0  0  0  0  0
   49.8212    9.1292   15.3104 C   0  0  0  0  0  0  0  0  0  0  0  0
   42.6873   10.7678   10.1977 C   0  0  0  0  0  0  0  0  0  0  0  0
   43.2988    7.1222   11.3920 O   0  0  0  0  0  0  0  0  0  0  0  0
   49.4076   10.0930   17.6028 C   0  0  0  0  0  0  0  0  0  0  0  0
   41.4248   11.5674   12.2198 C   0  0  0  0  0  0  0  0  0  0  0  0
   39.1700   11.2219   12.5219 C   0  0  0  0  0  0  0  0  0  0  0  0
   49.0432    8.7943   19.4663 C   0  0  0  0  0  0  0  0  0  0  0  0
   40.2049   10.3976   10.5388 C   0  0  0  0  0  0  0  0  0  0  0  0
   49.4284    7.7225   17.3740 C   0  0  0  0  0  0  0  0  0  0  0  0
   42.5444    5.9392   11.6409 C   0  0  0  0  0  0  0  0  0  0  0  0
   39.0597   10.5520   11.3148 C   0  0  0  0  0  0  0  0  0  0  0  0
   49.1694    7.6238   18.7375 C   0  0  0  0  0  0  0  0  0  0  0  0
   46.8115    9.6538   12.7599 H   0  0  0  0  0  0  0  0  0  0  0  0
   43.0645    8.7085   10.5291 H   0  0  0  0  0  0  0  0  0  0  0  0
   47.8783    9.5971   14.6431 H   0  0  0  0  0  0  0  0  0  0  0  0
   46.9596    5.4314   13.5800 H   0  0  0  0  0  0  0  0  0  0  0  0
   44.8091    5.1240   12.4817 H   0  0  0  0  0  0  0  0  0  0  0  0
   50.6099    8.4355   14.9980 H   0  0  0  0  0  0  0  0  0  0  0  0
   50.1735   10.1414   15.0827 H   0  0  0  0  0  0  0  0  0  0  0  0
   43.2820   11.6868   10.2483 H   0  0  0  0  0  0  0  0  0  0  0  0
   42.4581   10.5903    9.1412 H   0  0  0  0  0  0  0  0  0  0  0  0
   49.4873   11.1034   17.2100 H   0  0  0  0  0  0  0  0  0  0  0  0
   42.3426   11.9805   12.6339 H   0  0  0  0  0  0  0  0  0  0  0  0
   38.3050   11.3695   13.1620 H   0  0  0  0  0  0  0  0  0  0  0  0
   48.8413    8.7697   20.5332 H   0  0  0  0  0  0  0  0  0  0  0  0
   40.1437    9.8730    9.5890 H   0  0  0  0  0  0  0  0  0  0  0  0
   49.5286    6.8198   16.7741 H   0  0  0  0  0  0  0  0  0  0  0  0
   41.5402    6.0949   11.2351 H   0  0  0  0  0  0  0  0  0  0  0  0
   42.9837    5.0823   11.1207 H   0  0  0  0  0  0  0  0  0  0  0  0
   42.4440    5.7452   12.7141 H   0  0  0  0  0  0  0  0  0  0  0  0
   38.1035   10.1605   10.9868 H   0  0  0  0  0  0  0  0  0  0  0  0
   49.0679    6.6576   19.2181 H   0  0  0  0  0  0  0  0  0  0  0  0
  2  1  1  0
  3  1  2  0
  4  5  1  0
  5  3  1  0
  6  2  1  0
  7  4  1  0
  8  1  1  0
  9  2  2  0
 10  4  2  0
 11 21  2  0
 12 20  2  0
 13 14  1  0
 14  8  2  0
 15 18  1  0
 16 17  1  0
 17  7  1  0
 18  6  1  0
 19  8  1  0
 20 16  1  0
 21 15  1  0
 22 27  2  0
 23 28  2  0
 24 15  2  0
 25 16  2  0
 26 19  1  0
 27 24  1  0
 28 25  1  0
  5 13  2  0
 11 22  1  0
 12 23  1  0
  3 29  1  0
  6 30  1  0
  7 31  1  0
 13 32  1  0
 14 33  1  0
 17 34  1  0
 17 35  1  0
 18 36  1  0
 18 37  1  0
 20 38  1  0
 21 39  1  0
 22 40  1  0
 23 41  1  0
 24 42  1  0
 25 43  1  0
 26 44  1  0
 26 45  1  0
 26 46  1  0
 27 47  1  0
 28 48  1  0
M  END
> <Uni-Dock RESULT> 
ENERGY=   -4.826  LOWER_BOUND=    4.662  UPPER_BOUND=    9.226
INTER + INTRA:          -4.826
INTER:                  -4.826
INTRA:                   0.000
UNBOUND:                 0.000

$$$$

     RDKit          3D

 48 50  0  0  0  0  0  0  0  0999 V2000
   48.8528    9.4562   15.6606 C   0  0  0  0  0  0  0  0  0  0  0  0
   48.9856    9.3551   17.1504 C   0  0  0  0  0  0  0  0  0  0  0  0
   48.4766    8.2709   14.9981 C   0  0  0  0  0  0  0  0  0  0  0  0
   47.9160    7.0130   12.8785 C   0  0  0  0  0  0  0  0  0  0  0  0
   48.3093    8.2483   13.6114 C   0  0  0  0  0  0  0  0  0  0  0  0
   49.6364   10.3740   17.8024 N   0  0  0  0  0  0  0  0  0  0  0  0
   47.1832    6.0848   13.5858 N   0  0  0  0  0  0  0  0  0  0  0  0
   49.0593   10.6368   14.9163 C   0  0  0  0  0  0  0  0  0  0  0  0
   48.5252    8.3806   17.7391 O   0  0  0  0  0  0  0  0  0  0  0  0
   48.2221    6.8819   11.6987 O   0  0  0  0  0  0  0  0  0  0  0  0
   46.3184   11.7314   20.3987 N   0  0  0  0  0  0  0  0  0  0  0  0
   42.8726    4.7033   12.9948 N   0  0  0  0  0  0  0  0  0  0  0  0
   48.5483    9.4115   12.8764 C   0  0  0  0  0  0  0  0  0  0  0  0
   48.9185   10.5952   13.5223 C   0  0  0  0  0  0  0  0  0  0  0  0
   48.6338   11.3890   19.7643 C   0  0  0  0  0  0  0  0  0  0  0  0
   45.2249    5.0830   12.5443 C   0  0  0  0  0  0  0  0  0  0  0  0
   46.6562    4.8951   12.9534 C   0  0  0  0  0  0  0  0  0  0  0  0
   49.6895   10.4600   19.2419 C   0  0  0  0  0  0  0  0  0  0  0  0
   49.4144   11.7746   15.5968 O   0  0  0  0  0  0  0  0  0  0  0  0
   44.1820    4.5587   13.3010 C   0  0  0  0  0  0  0  0  0  0  0  0
   47.3258   10.9493   19.9458 C   0  0  0  0  0  0  0  0  0  0  0  0
   46.6254   13.0154   20.6775 C   0  0  0  0  0  0  0  0  0  0  0  0
   42.5852    5.4081   11.8795 C   0  0  0  0  0  0  0  0  0  0  0  0
   48.9083   12.7287   20.0535 C   0  0  0  0  0  0  0  0  0  0  0  0
   44.8838    5.8101   11.4000 C   0  0  0  0  0  0  0  0  0  0  0  0
   49.2542   13.0178   14.9191 C   0  0  0  0  0  0  0  0  0  0  0  0
   47.8909   13.5557   20.5209 C   0  0  0  0  0  0  0  0  0  0  0  0
   43.5451    5.9756   11.0587 C   0  0  0  0  0  0  0  0  0  0  0  0
   48.3457    7.3613   15.5804 H   0  0  0  0  0  0  0  0  0  0  0  0
   49.8689   11.2022   17.2646 H   0  0  0  0  0  0  0  0  0  0  0  0
   46.7848    6.3432   14.4783 H   0  0  0  0  0  0  0  0  0  0  0  0
   48.4457    9.4012   11.7920 H   0  0  0  0  0  0  0  0  0  0  0  0
   49.0986   11.4675   12.9010 H   0  0  0  0  0  0  0  0  0  0  0  0
   47.2632    4.6184   12.0839 H   0  0  0  0  0  0  0  0  0  0  0  0
   46.7447    4.0805   13.6806 H   0  0  0  0  0  0  0  0  0  0  0  0
   49.5826    9.4681   19.6950 H   0  0  0  0  0  0  0  0  0  0  0  0
   50.6863   10.8294   19.5070 H   0  0  0  0  0  0  0  0  0  0  0  0
   44.3706    3.9883   14.2069 H   0  0  0  0  0  0  0  0  0  0  0  0
   47.0425    9.9229   19.7205 H   0  0  0  0  0  0  0  0  0  0  0  0
   45.7991   13.6196   21.0408 H   0  0  0  0  0  0  0  0  0  0  0  0
   41.5272    5.5093   11.6556 H   0  0  0  0  0  0  0  0  0  0  0  0
   49.9090   13.1309   19.9198 H   0  0  0  0  0  0  0  0  0  0  0  0
   45.6607    6.2482   10.7762 H   0  0  0  0  0  0  0  0  0  0  0  0
   49.3962   13.8165   15.6536 H   0  0  0  0  0  0  0  0  0  0  0  0
   50.0182   13.1388   14.1448 H   0  0  0  0  0  0  0  0  0  0  0  0
   48.2461   13.1221   14.5040 H   0  0  0  0  0  0  0  0  0  0  0  0
   48.0794   14.5965   20.7583 H   0  0  0  0  0  0  0  0  0  0  0  0
   43.2590    6.5343   10.1750 H   0  0  0  0  0  0  0  0  0  0  0  0
  2  1  1  0
  3  1  2  0
  4  5  1  0
  5  3  1  0
  6  2  1  0
  7  4  1  0
  8  1  1  0
  9  2  2  0
 10  4  2  0
 11 21  2  0
 12 20  2  0
 13 14  1  0
 14  8  2  0
 15 18  1  0
 16 17  1  0
 17  7  1  0
 18  6  1  0
 19  8  1  0
 20 16  1  0
 21 15  1  0
 22 27  2  0
 23 28  2  0
 24 15  2  0
 25 16  2  0
 26 19  1  0
 27 24  1  0
 28 25  1  0
  5 13  2  0
 11 22  1  0
 12 23  1  0
  3 29  1  0
  6 30  1  0
  7 31  1  0
 13 32  1  0
 14 33  1  0
 17 34  1  0
 17 35  1  0
 18 36  1  0
 18 37  1  0
 20 38  1  0
 21 39  1  0
 22 40  1  0
 23 41  1  0
 24 42  1  0
 25 43  1  0
 26 44  1  0
 26 45  1  0
 26 46  1  0
 27 47  1  0
 28 48  1  0
M  END
> <Uni-Dock RESULT> 
ENERGY=   -4.099  LOWER_BOUND=    3.782  UPPER_BOUND=    6.266
INTER + INTRA:          -4.099
INTER:                  -4.099
INTRA:                   0.000
UNBOUND:                 0.000

$$$$

     RDKit          3D

 48 50  0  0  0  0  0  0  0  0999 V2000
   49.6022    7.6044   13.2835 C   0  0  0  0  0  0  0  0  0  0  0  0
   50.6919    8.3174   12.5409 C   0  0  0  0  0  0  0  0  0  0  0  0
   48.3973    7.4228   12.5759 C   0  0  0  0  0  0  0  0  0  0  0  0
   46.0272    6.5539   12.4450 C   0  0  0  0  0  0  0  0  0  0  0  0
   47.3160    6.7603   13.1621 C   0  0  0  0  0  0  0  0  0  0  0  0
   51.7571    8.7875   13.2696 N   0  0  0  0  0  0  0  0  0  0  0  0
   46.0902    6.4981   11.0697 N   0  0  0  0  0  0  0  0  0  0  0  0
   49.7214    7.1077   14.5986 C   0  0  0  0  0  0  0  0  0  0  0  0
   50.6045    8.4673   11.3251 O   0  0  0  0  0  0  0  0  0  0  0  0
   44.9906    6.4146   13.0845 O   0  0  0  0  0  0  0  0  0  0  0  0
   54.9774    6.4549   11.3250 N   0  0  0  0  0  0  0  0  0  0  0  0
   45.2430    3.0117    8.2472 N   0  0  0  0  0  0  0  0  0  0  0  0
   47.4284    6.3009   14.4761 C   0  0  0  0  0  0  0  0  0  0  0  0
   48.6200    6.4716   15.1877 C   0  0  0  0  0  0  0  0  0  0  0  0
   54.0225    8.3276   12.5341 C   0  0  0  0  0  0  0  0  0  0  0  0
   44.8709    4.7457    9.9009 C   0  0  0  0  0  0  0  0  0  0  0  0
   44.9223    6.1992   10.2698 C   0  0  0  0  0  0  0  0  0  0  0  0
   52.9308    9.3503   12.6467 C   0  0  0  0  0  0  0  0  0  0  0  0
   50.9135    7.2936   15.2528 O   0  0  0  0  0  0  0  0  0  0  0  0
   45.2535    4.3065    8.6378 C   0  0  0  0  0  0  0  0  0  0  0  0
   54.0353    7.4133   11.4848 C   0  0  0  0  0  0  0  0  0  0  0  0
   55.9499    6.3983   12.2586 C   0  0  0  0  0  0  0  0  0  0  0  0
   44.8331    2.1062    9.1612 C   0  0  0  0  0  0  0  0  0  0  0  0
   55.0408    8.2284   13.4864 C   0  0  0  0  0  0  0  0  0  0  0  0
   44.4577    3.7755   10.8188 C   0  0  0  0  0  0  0  0  0  0  0  0
   51.1626    6.4848   16.3992 C   0  0  0  0  0  0  0  0  0  0  0  0
   56.0229    7.2520   13.3468 C   0  0  0  0  0  0  0  0  0  0  0  0
   44.4357    2.4351   10.4461 C   0  0  0  0  0  0  0  0  0  0  0  0
   48.3093    7.8332   11.5723 H   0  0  0  0  0  0  0  0  0  0  0  0
   51.8192    8.5088   14.2432 H   0  0  0  0  0  0  0  0  0  0  0  0
   46.9899    6.4064   10.6177 H   0  0  0  0  0  0  0  0  0  0  0  0
   46.5845    5.8048   14.9536 H   0  0  0  0  0  0  0  0  0  0  0  0
   48.6493    6.1013   16.2082 H   0  0  0  0  0  0  0  0  0  0  0  0
   44.0070    6.4858   10.8000 H   0  0  0  0  0  0  0  0  0  0  0  0
   44.9825    6.8224    9.3706 H   0  0  0  0  0  0  0  0  0  0  0  0
   52.6887    9.7599   11.6596 H   0  0  0  0  0  0  0  0  0  0  0  0
   53.2578   10.1886   13.2717 H   0  0  0  0  0  0  0  0  0  0  0  0
   45.5926    5.0025    7.8748 H   0  0  0  0  0  0  0  0  0  0  0  0
   53.2600    7.4248   10.7210 H   0  0  0  0  0  0  0  0  0  0  0  0
   56.6933    5.6215   12.1048 H   0  0  0  0  0  0  0  0  0  0  0  0
   44.8334    1.0742    8.8228 H   0  0  0  0  0  0  0  0  0  0  0  0
   55.0755    8.9080   14.3337 H   0  0  0  0  0  0  0  0  0  0  0  0
   44.1549    4.0641   11.8236 H   0  0  0  0  0  0  0  0  0  0  0  0
   52.2119    6.6201   16.6787 H   0  0  0  0  0  0  0  0  0  0  0  0
   50.5489    6.8108   17.2447 H   0  0  0  0  0  0  0  0  0  0  0  0
   51.0098    5.4223   16.1820 H   0  0  0  0  0  0  0  0  0  0  0  0
   56.8266    7.1583   14.0681 H   0  0  0  0  0  0  0  0  0  0  0  0
   44.1174    1.6672   11.1418 H   0  0  0  0  0  0  0  0  0  0  0  0
  2  1  1  0
  3  1  2  0
  4  5  1  0
  5  3  1  0
  6  2  1  0
  7  4  1  0
  8  1  1  0
  9  2  2  0
 10  4  2  0
 11 21  2  0
 12 20  2  0
 13 14  1  0
 14  8  2  0
 15 18  1  0
 16 17  1  0
 17  7  1  0
 18  6  1  0
 19  8  1  0
 20 16  1  0
 21 15  1  0
 22 27  2  0
 23 28  2  0
 24 15  2  0
 25 16  2  0
 26 19  1  0
 27 24  1  0
 28 25  1  0
  5 13  2  0
 11 22  1  0
 12 23  1  0
  3 29  1  0
  6 30  1  0
  7 31  1  0
 13 32  1  0
 14 33  1  0
 17 34  1  0
 17 35  1  0
 18 36  1  0
 18 37  1  0
 20 38  1  0
 21 39  1  0
 22 40  1  0
 23 41  1  0
 24 42  1  0
 25 43  1  0
 26 44  1  0
 26 45  1  0
 26 46  1  0
 27 47  1  0
 28 48  1  0
M  END
> <Uni-Dock RESULT> 
ENERGY=   -4.025  LOWER_BOUND=    2.532  UPPER_BOUND=    3.643
INTER + INTRA:          -4.025
INTER:                  -4.025
INTRA:                   0.000
UNBOUND:                 0.000

$$$$

     RDKit          3D

 48 50  0  0  0  0  0  0  0  0999 V2000
   48.2649    8.2716   12.2657 C   0  0  0  0  0  0  0  0  0  0  0  0
   47.8702    6.9128   12.7610 C   0  0  0  0  0  0  0  0  0  0  0  0
   49.6087    8.4102   11.8652 C   0  0  0  0  0  0  0  0  0  0  0  0
   51.5015    9.8103   10.9453 C   0  0  0  0  0  0  0  0  0  0  0  0
   50.0871    9.6274   11.3740 C   0  0  0  0  0  0  0  0  0  0  0  0
   46.6819    6.8032   13.4411 N   0  0  0  0  0  0  0  0  0  0  0  0
   52.1608    8.6845   10.5023 N   0  0  0  0  0  0  0  0  0  0  0  0
   47.3893    9.3733   12.1658 C   0  0  0  0  0  0  0  0  0  0  0  0
   48.6070    5.9516   12.5573 O   0  0  0  0  0  0  0  0  0  0  0  0
   52.0057   10.9275   10.9717 O   0  0  0  0  0  0  0  0  0  0  0  0
   44.6129    3.9909   10.7203 N   0  0  0  0  0  0  0  0  0  0  0  0
   53.7417    7.6747    6.3405 N   0  0  0  0  0  0  0  0  0  0  0  0
   49.2242   10.7236   11.3095 C   0  0  0  0  0  0  0  0  0  0  0  0
   47.8874   10.5980   11.7004 C   0  0  0  0  0  0  0  0  0  0  0  0
   45.0999    5.0656   12.8389 C   0  0  0  0  0  0  0  0  0  0  0  0
   53.4856    8.8157    8.4648 C   0  0  0  0  0  0  0  0  0  0  0  0
   53.5018    8.7551    9.9639 C   0  0  0  0  0  0  0  0  0  0  0  0
   46.1284    5.5280   13.8283 C   0  0  0  0  0  0  0  0  0  0  0  0
   46.0848    9.1978   12.5551 O   0  0  0  0  0  0  0  0  0  0  0  0
   53.7531    7.6899    7.6928 C   0  0  0  0  0  0  0  0  0  0  0  0
   45.4809    4.4229   11.6646 C   0  0  0  0  0  0  0  0  0  0  0  0
   43.3028    4.2156   10.9519 C   0  0  0  0  0  0  0  0  0  0  0  0
   53.4463    8.8390    5.7237 C   0  0  0  0  0  0  0  0  0  0  0  0
   43.7344    5.2898   13.0359 C   0  0  0  0  0  0  0  0  0  0  0  0
   53.1797    9.9996    7.7869 C   0  0  0  0  0  0  0  0  0  0  0  0
   45.1352   10.1629   12.1108 C   0  0  0  0  0  0  0  0  0  0  0  0
   42.8195    4.8559   12.0809 C   0  0  0  0  0  0  0  0  0  0  0  0
   53.1606   10.0153    6.3957 C   0  0  0  0  0  0  0  0  0  0  0  0
   50.2799    7.5607   11.9715 H   0  0  0  0  0  0  0  0  0  0  0  0
   46.0710    7.6131   13.4520 H   0  0  0  0  0  0  0  0  0  0  0  0
   51.6323    7.8455   10.3048 H   0  0  0  0  0  0  0  0  0  0  0  0
   49.5908   11.6849   10.9519 H   0  0  0  0  0  0  0  0  0  0  0  0
   47.2633   11.4843   11.6361 H   0  0  0  0  0  0  0  0  0  0  0  0
   54.0363    9.6213   10.3701 H   0  0  0  0  0  0  0  0  0  0  0  0
   54.0318    7.8596   10.3069 H   0  0  0  0  0  0  0  0  0  0  0  0
   46.9193    4.7771   13.9352 H   0  0  0  0  0  0  0  0  0  0  0  0
   45.6737    5.6596   14.8163 H   0  0  0  0  0  0  0  0  0  0  0  0
   53.9918    6.7331    8.1503 H   0  0  0  0  0  0  0  0  0  0  0  0
   46.5297    4.2356   11.4423 H   0  0  0  0  0  0  0  0  0  0  0  0
   42.6289    3.8571   10.1792 H   0  0  0  0  0  0  0  0  0  0  0  0
   53.4442    8.8003    4.6383 H   0  0  0  0  0  0  0  0  0  0  0  0
   43.3791    5.7972   13.9289 H   0  0  0  0  0  0  0  0  0  0  0  0
   52.9551   10.9080    8.3428 H   0  0  0  0  0  0  0  0  0  0  0  0
   44.1376    9.7771   12.3420 H   0  0  0  0  0  0  0  0  0  0  0  0
   45.2597   11.1068   12.6506 H   0  0  0  0  0  0  0  0  0  0  0  0
   45.1918   10.3129   11.0274 H   0  0  0  0  0  0  0  0  0  0  0  0
   41.7549    5.0120   12.2130 H   0  0  0  0  0  0  0  0  0  0  0  0
   52.9274   10.9228    5.8507 H   0  0  0  0  0  0  0  0  0  0  0  0
  2  1  1  0
  3  1  2  0
  4  5  1  0
  5  3  1  0
  6  2  1  0
  7  4  1  0
  8  1  1  0
  9  2  2  0
 10  4  2  0
 11 21  2  0
 12 20  2  0
 13 14  1  0
 14  8  2  0
 15 18  1  0
 16 17  1  0
 17  7  1  0
 18  6  1  0
 19  8  1  0
 20 16  1  0
 21 15  1  0
 22 27  2  0
 23 28  2  0
 24 15  2  0
 25 16  2  0
 26 19  1  0
 27 24  1  0
 28 25  1  0
  5 13  2  0
 11 22  1  0
 12 23  1  0
  3 29  1  0
  6 30  1  0
  7 31  1  0
 13 32  1  0
 14 33  1  0
 17 34  1  0
 17 35  1  0
 18 36  1  0
 18 37  1  0
 20 38  1  0
 21 39  1  0
 22 40  1  0
 23 41  1  0
 24 42  1  0
 25 43  1  0
 26 44  1  0
 26 45  1  0
 26 46  1  0
 27 47  1  0
 28 48  1  0
M  END
> <Uni-Dock RESULT> 
ENERGY=   -4.014  LOWER_BOUND=    3.957  UPPER_BOUND=    7.883
INTER + INTRA:          -4.014
INTER:                  -4.014
INTRA:                   0.000
UNBOUND:                 0.000

$$$$

     RDKit          3D

 48 50  0  0  0  0  0  0  0  0999 V2000
   48.7753    9.9514   17.7191 C   0  0  0  0  0  0  0  0  0  0  0  0
   49.4286    8.7764   17.0558 C   0  0  0  0  0  0  0  0  0  0  0  0
   48.7191   11.1328   16.9533 C   0  0  0  0  0  0  0  0  0  0  0  0
   48.0478   13.5548   16.6830 C   0  0  0  0  0  0  0  0  0  0  0  0
   48.1217   12.2883   17.4629 C   0  0  0  0  0  0  0  0  0  0  0  0
   49.7825    7.7126   17.8494 N   0  0  0  0  0  0  0  0  0  0  0  0
   48.0427   13.4329   15.3105 N   0  0  0  0  0  0  0  0  0  0  0  0
   48.2180    9.9320   19.0150 C   0  0  0  0  0  0  0  0  0  0  0  0
   49.6339    8.7957   15.8451 O   0  0  0  0  0  0  0  0  0  0  0  0
   47.9659   14.6275   17.2708 O   0  0  0  0  0  0  0  0  0  0  0  0
   47.2811    4.5973   15.9439 N   0  0  0  0  0  0  0  0  0  0  0  0
   44.7518   14.4178   12.3040 N   0  0  0  0  0  0  0  0  0  0  0  0
   47.6021   12.2727   18.7592 C   0  0  0  0  0  0  0  0  0  0  0  0
   47.6484   11.1055   19.5280 C   0  0  0  0  0  0  0  0  0  0  0  0
   49.1736    5.4583   17.1920 C   0  0  0  0  0  0  0  0  0  0  0  0
   46.4418   14.7297   14.0149 C   0  0  0  0  0  0  0  0  0  0  0  0
   47.8704   14.5824   14.4490 C   0  0  0  0  0  0  0  0  0  0  0  0
   50.2747    6.4711   17.3026 C   0  0  0  0  0  0  0  0  0  0  0  0
   48.2818    8.7604   19.7271 O   0  0  0  0  0  0  0  0  0  0  0  0
   46.0248   14.3245   12.7512 C   0  0  0  0  0  0  0  0  0  0  0  0
   48.3043    5.4683   16.1051 C   0  0  0  0  0  0  0  0  0  0  0  0
   47.1095    3.6762   16.9148 C   0  0  0  0  0  0  0  0  0  0  0  0
   43.8457   14.9386   13.1591 C   0  0  0  0  0  0  0  0  0  0  0  0
   48.9552    4.4958   18.1818 C   0  0  0  0  0  0  0  0  0  0  0  0
   45.4712   15.2590   14.8707 C   0  0  0  0  0  0  0  0  0  0  0  0
   47.4100    8.6282   20.8466 C   0  0  0  0  0  0  0  0  0  0  0  0
   47.9100    3.5873   18.0416 C   0  0  0  0  0  0  0  0  0  0  0  0
   44.1531   15.3680   14.4390 C   0  0  0  0  0  0  0  0  0  0  0  0
   49.1753   11.1422   15.9658 H   0  0  0  0  0  0  0  0  0  0  0  0
   49.4607    7.7174   18.8116 H   0  0  0  0  0  0  0  0  0  0  0  0
   47.8980   12.5232   14.8938 H   0  0  0  0  0  0  0  0  0  0  0  0
   47.1559   13.1738   19.1779 H   0  0  0  0  0  0  0  0  0  0  0  0
   47.2361   11.1522   20.5315 H   0  0  0  0  0  0  0  0  0  0  0  0
   48.2075   15.4961   14.9516 H   0  0  0  0  0  0  0  0  0  0  0  0
   48.5226   14.4325   13.5815 H   0  0  0  0  0  0  0  0  0  0  0  0
   50.7418    6.6349   16.3250 H   0  0  0  0  0  0  0  0  0  0  0  0
   51.0583    6.1091   17.9773 H   0  0  0  0  0  0  0  0  0  0  0  0
   46.7218   13.8975   12.0347 H   0  0  0  0  0  0  0  0  0  0  0  0
   48.4084    6.2043   15.3101 H   0  0  0  0  0  0  0  0  0  0  0  0
   46.2828    2.9892   16.7591 H   0  0  0  0  0  0  0  0  0  0  0  0
   42.8314   15.0030   12.7760 H   0  0  0  0  0  0  0  0  0  0  0  0
   49.5951    4.4475   19.0589 H   0  0  0  0  0  0  0  0  0  0  0  0
   45.7423   15.5845   15.8733 H   0  0  0  0  0  0  0  0  0  0  0  0
   47.4498    7.5856   21.1764 H   0  0  0  0  0  0  0  0  0  0  0  0
   47.7494    9.2531   21.6785 H   0  0  0  0  0  0  0  0  0  0  0  0
   46.3727    8.8530   20.5766 H   0  0  0  0  0  0  0  0  0  0  0  0
   47.7235    2.8274   18.7919 H   0  0  0  0  0  0  0  0  0  0  0  0
   43.3855   15.7769   15.0860 H   0  0  0  0  0  0  0  0  0  0  0  0
  2  1  1  0
  3  1  2  0
  4  5  1  0
  5  3  1  0
  6  2  1  0
  7  4  1  0
  8  1  1  0
  9  2  2  0
 10  4  2  0
 11 21  2  0
 12 20  2  0
 13 14  1  0
 14  8  2  0
 15 18  1  0
 16 17  1  0
 17  7  1  0
 18  6  1  0
 19  8  1  0
 20 16  1  0
 21 15  1  0
 22 27  2  0
 23 28  2  0
 24 15  2  0
 25 16  2  0
 26 19  1  0
 27 24  1  0
 28 25  1  0
  5 13  2  0
 11 22  1  0
 12 23  1  0
  3 29  1  0
  6 30  1  0
  7 31  1  0
 13 32  1  0
 14 33  1  0
 17 34  1  0
 17 35  1  0
 18 36  1  0
 18 37  1  0
 20 38  1  0
 21 39  1  0
 22 40  1  0
 23 41  1  0
 24 42  1  0
 25 43  1  0
 26 44  1  0
 26 45  1  0
 26 46  1  0
 27 47  1  0
 28 48  1  0
M  END
> <Uni-Dock RESULT> 
ENERGY=   -4.003  LOWER_BOUND=    6.003  UPPER_BOUND=    9.633
INTER + INTRA:          -4.003
INTER:                  -4.003
INTRA:                   0.000
UNBOUND:                 0.000

$$$$

     RDKit          3D

 48 50  0  0  0  0  0  0  0  0999 V2000
   48.2642    8.4329   17.7848 C   0  0  0  0  0  0  0  0  0  0  0  0
   48.1968    7.1718   18.5925 C   0  0  0  0  0  0  0  0  0  0  0  0
   47.9275    9.6171   18.4702 C   0  0  0  0  0  0  0  0  0  0  0  0
   47.6144   12.1250   18.5153 C   0  0  0  0  0  0  0  0  0  0  0  0
   47.9670   10.8545   17.8229 C   0  0  0  0  0  0  0  0  0  0  0  0
   48.2124    5.9784   17.9127 N   0  0  0  0  0  0  0  0  0  0  0  0
   47.8053   12.1558   19.8795 N   0  0  0  0  0  0  0  0  0  0  0  0
   48.6505    8.4964   16.4294 C   0  0  0  0  0  0  0  0  0  0  0  0
   48.1235    7.2349   19.8168 O   0  0  0  0  0  0  0  0  0  0  0  0
   47.2077   13.0805   17.8637 O   0  0  0  0  0  0  0  0  0  0  0  0
   51.9165    4.2763   19.6375 N   0  0  0  0  0  0  0  0  0  0  0  0
   50.7272   14.6320   22.3635 N   0  0  0  0  0  0  0  0  0  0  0  0
   48.3172   10.9069   16.4720 C   0  0  0  0  0  0  0  0  0  0  0  0
   48.6571    9.7393   15.7815 C   0  0  0  0  0  0  0  0  0  0  0  0
   49.7226    4.2113   18.6064 C   0  0  0  0  0  0  0  0  0  0  0  0
   48.8880   14.0936   20.8778 C   0  0  0  0  0  0  0  0  0  0  0  0
   47.5969   13.3651   20.6460 C   0  0  0  0  0  0  0  0  0  0  0  0
   48.3066    4.7063   18.5874 C   0  0  0  0  0  0  0  0  0  0  0  0
   48.9818    7.3238   15.7975 O   0  0  0  0  0  0  0  0  0  0  0  0
   49.5557   14.0116   22.0953 C   0  0  0  0  0  0  0  0  0  0  0  0
   50.6224    4.6659   19.5660 C   0  0  0  0  0  0  0  0  0  0  0  0
   52.3381    3.3974   18.7045 C   0  0  0  0  0  0  0  0  0  0  0  0
   51.2639   15.3702   21.3684 C   0  0  0  0  0  0  0  0  0  0  0  0
   50.2014    3.3106   17.6508 C   0  0  0  0  0  0  0  0  0  0  0  0
   49.4800   14.8643   19.8728 C   0  0  0  0  0  0  0  0  0  0  0  0
   49.7176    7.4226   14.5812 C   0  0  0  0  0  0  0  0  0  0  0  0
   51.5282    2.8928   17.7007 C   0  0  0  0  0  0  0  0  0  0  0  0
   50.6850   15.5150   20.1190 C   0  0  0  0  0  0  0  0  0  0  0  0
   47.6064    9.5517   19.5075 H   0  0  0  0  0  0  0  0  0  0  0  0
   48.4076    6.0078   16.9175 H   0  0  0  0  0  0  0  0  0  0  0  0
   48.3377   11.4195   20.3227 H   0  0  0  0  0  0  0  0  0  0  0  0
   48.3279   11.8622   15.9488 H   0  0  0  0  0  0  0  0  0  0  0  0
   48.9144    9.8376   14.7311 H   0  0  0  0  0  0  0  0  0  0  0  0
   46.8785   14.0225   20.1431 H   0  0  0  0  0  0  0  0  0  0  0  0
   47.1474   13.0660   21.5994 H   0  0  0  0  0  0  0  0  0  0  0  0
   47.9138    4.7774   19.6079 H   0  0  0  0  0  0  0  0  0  0  0  0
   47.6652    4.0039   18.0438 H   0  0  0  0  0  0  0  0  0  0  0  0
   49.1592   13.4255   22.9204 H   0  0  0  0  0  0  0  0  0  0  0  0
   50.3175    5.3828   20.3260 H   0  0  0  0  0  0  0  0  0  0  0  0
   53.3797    3.1006   18.7866 H   0  0  0  0  0  0  0  0  0  0  0  0
   52.2038   15.8583   21.6092 H   0  0  0  0  0  0  0  0  0  0  0  0
   49.5474    2.9304   16.8705 H   0  0  0  0  0  0  0  0  0  0  0  0
   49.0032   14.9560   18.8987 H   0  0  0  0  0  0  0  0  0  0  0  0
   50.0585    6.4168   14.3174 H   0  0  0  0  0  0  0  0  0  0  0  0
   49.0776    7.7802   13.7686 H   0  0  0  0  0  0  0  0  0  0  0  0
   50.6040    8.0550   14.6982 H   0  0  0  0  0  0  0  0  0  0  0  0
   51.9222    2.1903   16.9752 H   0  0  0  0  0  0  0  0  0  0  0  0
   51.1601   16.1187   19.3543 H   0  0  0  0  0  0  0  0  0  0  0  0
  2  1  1  0
  3  1  2  0
  4  5  1  0
  5  3  1  0
  6  2  1  0
  7  4  1  0
  8  1  1  0
  9  2  2  0
 10  4  2  0
 11 21  2  0
 12 20  2  0
 13 14  1  0
 14  8  2  0
 15 18  1  0
 16 17  1  0
 17  7  1  0
 18  6  1  0
 19  8  1  0
 20 16  1  0
 21 15  1  0
 22 27  2  0
 23 28  2  0
 24 15  2  0
 25 16  2  0
 26 19  1  0
 27 24  1  0
 28 25  1  0
  5 13  2  0
 11 22  1  0
 12 23  1  0
  3 29  1  0
  6 30  1  0
  7 31  1  0
 13 32  1  0
 14 33  1  0
 17 34  1  0
 17 35  1  0
 18 36  1  0
 18 37  1  0
 20 38  1  0
 21 39  1  0
 22 40  1  0
 23 41  1  0
 24 42  1  0
 25 43  1  0
 26 44  1  0
 26 45  1  0
 26 46  1  0
 27 47  1  0
 28 48  1  0
M  END
> <Uni-Dock RESULT> 
ENERGY=   -3.949  LOWER_BOUND=    6.273  UPPER_BOUND=   11.360
INTER + INTRA:          -3.949
INTER:                  -3.949
INTRA:                   0.000
UNBOUND:                 0.000

$$$$

     RDKit          3D

 48 50  0  0  0  0  0  0  0  0999 V2000
   46.3482    9.8265   12.2226 C   0  0  0  0  0  0  0  0  0  0  0  0
   46.7846   11.2538   12.0824 C   0  0  0  0  0  0  0  0  0  0  0  0
   47.2130    8.9918   12.9580 C   0  0  0  0  0  0  0  0  0  0  0  0
   47.7956    6.7341   13.9341 C   0  0  0  0  0  0  0  0  0  0  0  0
   46.9033    7.6454   13.1653 C   0  0  0  0  0  0  0  0  0  0  0  0
   46.1529   12.0229   11.1357 N   0  0  0  0  0  0  0  0  0  0  0  0
   48.5956    7.3193   14.8913 N   0  0  0  0  0  0  0  0  0  0  0  0
   45.1523    9.2987   11.6920 C   0  0  0  0  0  0  0  0  0  0  0  0
   47.6827   11.6901   12.7975 O   0  0  0  0  0  0  0  0  0  0  0  0
   47.7665    5.5279   13.7169 O   0  0  0  0  0  0  0  0  0  0  0  0
   44.4516   15.1110   13.8119 N   0  0  0  0  0  0  0  0  0  0  0  0
   48.5196    6.8686   19.4334 N   0  0  0  0  0  0  0  0  0  0  0  0
   45.7348    7.1207   12.6087 C   0  0  0  0  0  0  0  0  0  0  0  0
   44.8664    7.9394   11.8800 C   0  0  0  0  0  0  0  0  0  0  0  0
   45.3128   14.2204   11.7272 C   0  0  0  0  0  0  0  0  0  0  0  0
   48.7537    6.2887   17.0905 C   0  0  0  0  0  0  0  0  0  0  0  0
   49.4269    6.5267   15.7709 C   0  0  0  0  0  0  0  0  0  0  0  0
   46.3809   13.4428   11.0165 C   0  0  0  0  0  0  0  0  0  0  0  0
   44.3294   10.1441   10.9905 O   0  0  0  0  0  0  0  0  0  0  0  0
   49.0962    7.0248   18.2199 C   0  0  0  0  0  0  0  0  0  0  0  0
   45.3825   14.4330   13.1010 C   0  0  0  0  0  0  0  0  0  0  0  0
   43.3963   15.5947   13.1241 C   0  0  0  0  0  0  0  0  0  0  0  0
   47.5501    5.9336   19.5279 C   0  0  0  0  0  0  0  0  0  0  0  0
   44.1982   14.7275   11.0533 C   0  0  0  0  0  0  0  0  0  0  0  0
   47.7418    5.3341   17.2303 C   0  0  0  0  0  0  0  0  0  0  0  0
   42.9823    9.7258   10.7885 C   0  0  0  0  0  0  0  0  0  0  0  0
   43.2254   15.4289   11.7598 C   0  0  0  0  0  0  0  0  0  0  0  0
   47.1300    5.1501   18.4664 C   0  0  0  0  0  0  0  0  0  0  0  0
   48.1444    9.4045   13.3396 H   0  0  0  0  0  0  0  0  0  0  0  0
   45.3360   11.6296   10.6804 H   0  0  0  0  0  0  0  0  0  0  0  0
   48.4204    8.2762   15.1668 H   0  0  0  0  0  0  0  0  0  0  0  0
   45.4939    6.0668   12.7417 H   0  0  0  0  0  0  0  0  0  0  0  0
   43.9762    7.4772   11.4638 H   0  0  0  0  0  0  0  0  0  0  0  0
   49.6844    5.5704   15.3016 H   0  0  0  0  0  0  0  0  0  0  0  0
   50.3626    7.0794   15.9105 H   0  0  0  0  0  0  0  0  0  0  0  0
   47.3700   13.7117   11.4040 H   0  0  0  0  0  0  0  0  0  0  0  0
   46.3780   13.6820    9.9474 H   0  0  0  0  0  0  0  0  0  0  0  0
   49.8688    7.7888   18.1853 H   0  0  0  0  0  0  0  0  0  0  0  0
   46.2145   14.0473   13.6870 H   0  0  0  0  0  0  0  0  0  0  0  0
   42.6661   16.1359   13.7187 H   0  0  0  0  0  0  0  0  0  0  0  0
   47.1037    5.8275   20.5123 H   0  0  0  0  0  0  0  0  0  0  0  0
   44.0844   14.5822    9.9823 H   0  0  0  0  0  0  0  0  0  0  0  0
   47.4299    4.7358   16.3762 H   0  0  0  0  0  0  0  0  0  0  0  0
   42.4260   10.5801   10.3907 H   0  0  0  0  0  0  0  0  0  0  0  0
   42.9326    8.9225   10.0468 H   0  0  0  0  0  0  0  0  0  0  0  0
   42.5084    9.4287   11.7301 H   0  0  0  0  0  0  0  0  0  0  0  0
   42.3548   15.8375   11.2594 H   0  0  0  0  0  0  0  0  0  0  0  0
   46.3447    4.4145   18.5967 H   0  0  0  0  0  0  0  0  0  0  0  0
  2  1  1  0
  3  1  2  0
  4  5  1  0
  5  3  1  0
  6  2  1  0
  7  4  1  0
  8  1  1  0
  9  2  2  0
 10  4  2  0
 11 21  2  0
 12 20  2  0
 13 14  1  0
 14  8  2  0
 15 18  1  0
 16 17  1  0
 17  7  1  0
 18  6  1  0
 19  8  1  0
 20 16  1  0
 21 15  1  0
 22 27  2  0
 23 28  2  0
 24 15  2  0
 25 16  2  0
 26 19  1  0
 27 24  1  0
 28 25  1  0
  5 13  2  0
 11 22  1  0
 12 23  1  0
  3 29  1  0
  6 30  1  0
  7 31  1  0
 13 32  1  0
 14 33  1  0
 17 34  1  0
 17 35  1  0
 18 36  1  0
 18 37  1  0
 20 38  1  0
 21 39  1  0
 22 40  1  0
 23 41  1  0
 24 42  1  0
 25 43  1  0
 26 44  1  0
 26 45  1  0
 26 46  1  0
 27 47  1  0
 28 48  1  0
M  END
> <Uni-Dock RESULT> 
ENERGY=   -3.911  LOWER_BOUND=    4.671  UPPER_BOUND=    8.233
INTER + INTRA:          -3.911
INTER:                  -3.911
INTRA:                   0.000
UNBOUND:                 0.000

$$$$
