
     RDKit          3D

 48 50  0  0  0  0  0  0  0  0999 V2000
   47.0654    6.5812   13.4019 C   0  0  0  0  0  0  0  0  0  0  0  0
   47.5715    7.9919   13.3812 C   0  0  0  0  0  0  0  0  0  0  0  0
   46.3586    6.1572   12.2618 C   0  0  0  0  0  0  0  0  0  0  0  0
   45.1012    4.4632   10.9526 C   0  0  0  0  0  0  0  0  0  0  0  0
   45.8559    4.8556   12.1734 C   0  0  0  0  0  0  0  0  0  0  0  0
   47.9237    8.5526   14.5862 N   0  0  0  0  0  0  0  0  0  0  0  0
   45.1714    3.1336   10.5935 N   0  0  0  0  0  0  0  0  0  0  0  0
   47.2762    5.6768   14.4641 C   0  0  0  0  0  0  0  0  0  0  0  0
   47.6513    8.6008   12.3185 O   0  0  0  0  0  0  0  0  0  0  0  0
   44.4836    5.3056   10.3133 O   0  0  0  0  0  0  0  0  0  0  0  0
   52.0289    9.5738   16.2193 N   0  0  0  0  0  0  0  0  0  0  0  0
   46.9515    3.6405    6.5696 N   0  0  0  0  0  0  0  0  0  0  0  0
   46.0386    3.9729   13.2403 C   0  0  0  0  0  0  0  0  0  0  0  0
   46.7440    4.3822   14.3769 C   0  0  0  0  0  0  0  0  0  0  0  0
   50.0632    9.6754   14.8019 C   0  0  0  0  0  0  0  0  0  0  0  0
   45.6222    2.5490    8.2776 C   0  0  0  0  0  0  0  0  0  0  0  0
   44.5864    2.6638    9.3566 C   0  0  0  0  0  0  0  0  0  0  0  0
   48.5762    9.8368   14.6799 C   0  0  0  0  0  0  0  0  0  0  0  0
   47.9728    6.1193   15.5609 O   0  0  0  0  0  0  0  0  0  0  0  0
   46.0164    3.6666    7.5474 C   0  0  0  0  0  0  0  0  0  0  0  0
   50.6978    9.7342   16.0381 C   0  0  0  0  0  0  0  0  0  0  0  0
   52.7661    9.3429   15.1114 C   0  0  0  0  0  0  0  0  0  0  0  0
   47.5274    2.4486    6.3092 C   0  0  0  0  0  0  0  0  0  0  0  0
   50.8615    9.4231   13.6827 C   0  0  0  0  0  0  0  0  0  0  0  0
   46.2488    1.3341    7.9842 C   0  0  0  0  0  0  0  0  0  0  0  0
   48.5791    5.1305   16.3888 C   0  0  0  0  0  0  0  0  0  0  0  0
   52.2345    9.2578   13.8356 C   0  0  0  0  0  0  0  0  0  0  0  0
   47.2146    1.2801    6.9832 C   0  0  0  0  0  0  0  0  0  0  0  0
   46.1971    6.8493   11.4347 H   0  0  0  0  0  0  0  0  0  0  0  0
   47.9584    7.9396   15.3934 H   0  0  0  0  0  0  0  0  0  0  0  0
   45.8796    2.5505   11.0164 H   0  0  0  0  0  0  0  0  0  0  0  0
   45.6112    2.9738   13.2193 H   0  0  0  0  0  0  0  0  0  0  0  0
   46.8448    3.6708   15.1913 H   0  0  0  0  0  0  0  0  0  0  0  0
   43.7705    3.3212    9.0351 H   0  0  0  0  0  0  0  0  0  0  0  0
   44.1445    1.6827    9.5640 H   0  0  0  0  0  0  0  0  0  0  0  0
   48.1704   10.3420   15.5632 H   0  0  0  0  0  0  0  0  0  0  0  0
   48.3340   10.4591   13.8112 H   0  0  0  0  0  0  0  0  0  0  0  0
   45.5799    4.6457    7.7372 H   0  0  0  0  0  0  0  0  0  0  0  0
   50.1380    9.9156   16.9521 H   0  0  0  0  0  0  0  0  0  0  0  0
   53.8322    9.2224   15.2811 H   0  0  0  0  0  0  0  0  0  0  0  0
   48.2725    2.4585    5.5189 H   0  0  0  0  0  0  0  0  0  0  0  0
   50.4121    9.3520   12.6936 H   0  0  0  0  0  0  0  0  0  0  0  0
   45.9871    0.4287    8.5253 H   0  0  0  0  0  0  0  0  0  0  0  0
   49.1567    4.4101   15.7997 H   0  0  0  0  0  0  0  0  0  0  0  0
   47.8266    4.6273   17.0040 H   0  0  0  0  0  0  0  0  0  0  0  0
   49.2724    5.6422   17.0635 H   0  0  0  0  0  0  0  0  0  0  0  0
   52.8716    9.0662   12.9795 H   0  0  0  0  0  0  0  0  0  0  0  0
   47.7111    0.3495    6.7322 H   0  0  0  0  0  0  0  0  0  0  0  0
  2  1  1  0
  3  1  2  0
  4  5  1  0
  5  3  1  0
  6  2  1  0
  7  4  1  0
  8  1  1  0
  9  2  2  0
 10  4  2  0
 11 21  2  0
 12 20  2  0
 13 14  1  0
 14  8  2  0
 15 18  1  0
 16 17  1  0
 17  7  1  0
 18  6  1  0
 19  8  1  0
 20 16  1  0
 21 15  1  0
 22 27  2  0
 23 28  2  0
 24 15  2  0
 25 16  2  0
 26 19  1  0
 27 24  1  0
 28 25  1  0
  5 13  2  0
 11 22  1  0
 12 23  1  0
  3 29  1  0
  6 30  1  0
  7 31  1  0
 13 32  1  0
 14 33  1  0
 17 34  1  0
 17 35  1  0
 18 36  1  0
 18 37  1  0
 20 38  1  0
 21 39  1  0
 22 40  1  0
 23 41  1  0
 24 42  1  0
 25 43  1  0
 26 44  1  0
 26 45  1  0
 26 46  1  0
 27 47  1  0
 28 48  1  0
M  END
> <Uni-Dock RESULT> 
ENERGY=   -6.222  LOWER_BOUND=    0.000  UPPER_BOUND=    0.000
INTER + INTRA:          -6.222
INTER:                  -6.222
INTRA:                   0.000
UNBOUND:                 0.000

$$$$

     RDKit          3D

 48 50  0  0  0  0  0  0  0  0999 V2000
   47.6511    7.2342   12.9011 C   0  0  0  0  0  0  0  0  0  0  0  0
   48.4571    8.4838   12.7127 C   0  0  0  0  0  0  0  0  0  0  0  0
   46.9272    6.7862   11.7811 C   0  0  0  0  0  0  0  0  0  0  0  0
   45.3947    5.2022   10.6377 C   0  0  0  0  0  0  0  0  0  0  0  0
   46.1543    5.6230   11.8460 C   0  0  0  0  0  0  0  0  0  0  0  0
   48.8626    9.1489   13.8457 N   0  0  0  0  0  0  0  0  0  0  0  0
   45.1874    3.8470   10.4893 N   0  0  0  0  0  0  0  0  0  0  0  0
   47.6023    6.4934   14.1009 C   0  0  0  0  0  0  0  0  0  0  0  0
   48.7236    8.8787   11.5815 O   0  0  0  0  0  0  0  0  0  0  0  0
   45.0122    6.0384    9.8289 O   0  0  0  0  0  0  0  0  0  0  0  0
   53.0033    9.5393   15.6527 N   0  0  0  0  0  0  0  0  0  0  0  0
   47.2383    3.2979    6.6021 N   0  0  0  0  0  0  0  0  0  0  0  0
   46.0826    4.9099   13.0449 C   0  0  0  0  0  0  0  0  0  0  0  0
   46.8022    5.3434   14.1634 C   0  0  0  0  0  0  0  0  0  0  0  0
   51.1837    9.8167   14.0731 C   0  0  0  0  0  0  0  0  0  0  0  0
   45.6152    2.8071    8.3343 C   0  0  0  0  0  0  0  0  0  0  0  0
   44.5768    3.3133    9.2913 C   0  0  0  0  0  0  0  0  0  0  0  0
   49.7773   10.2646   13.8014 C   0  0  0  0  0  0  0  0  0  0  0  0
   48.3227    6.9542   15.1745 O   0  0  0  0  0  0  0  0  0  0  0  0
   46.2835    3.6808    7.4814 C   0  0  0  0  0  0  0  0  0  0  0  0
   51.7516    9.9438   15.3362 C   0  0  0  0  0  0  0  0  0  0  0  0
   53.7267    8.9792   14.6591 C   0  0  0  0  0  0  0  0  0  0  0  0
   47.5489    1.9854    6.5735 C   0  0  0  0  0  0  0  0  0  0  0  0
   51.9624    9.2213   13.0768 C   0  0  0  0  0  0  0  0  0  0  0  0
   45.9718    1.4563    8.2810 C   0  0  0  0  0  0  0  0  0  0  0  0
   48.6522    6.0104   16.1901 C   0  0  0  0  0  0  0  0  0  0  0  0
   53.2552    8.7986   13.3697 C   0  0  0  0  0  0  0  0  0  0  0  0
   46.9515    1.0362    7.3857 C   0  0  0  0  0  0  0  0  0  0  0  0
   46.9651    7.3508   10.8489 H   0  0  0  0  0  0  0  0  0  0  0  0
   48.7197    8.6839   14.7356 H   0  0  0  0  0  0  0  0  0  0  0  0
   45.7266    3.2059   11.0538 H   0  0  0  0  0  0  0  0  0  0  0  0
   45.4465    4.0334   13.1372 H   0  0  0  0  0  0  0  0  0  0  0  0
   46.7014    4.7709   15.0809 H   0  0  0  0  0  0  0  0  0  0  0  0
   43.9440    4.0653    8.8062 H   0  0  0  0  0  0  0  0  0  0  0  0
   43.9189    2.4949    9.6047 H   0  0  0  0  0  0  0  0  0  0  0  0
   49.4488   10.9823   14.5610 H   0  0  0  0  0  0  0  0  0  0  0  0
   49.7234   10.7720   12.8318 H   0  0  0  0  0  0  0  0  0  0  0  0
   46.0653    4.7474    7.4842 H   0  0  0  0  0  0  0  0  0  0  0  0
   51.2000   10.3869   16.1614 H   0  0  0  0  0  0  0  0  0  0  0  0
   54.7296    8.6670   14.9356 H   0  0  0  0  0  0  0  0  0  0  0  0
   48.3171    1.7080    5.8573 H   0  0  0  0  0  0  0  0  0  0  0  0
   51.5594    9.0841   12.0747 H   0  0  0  0  0  0  0  0  0  0  0  0
   45.4891    0.7280    8.9272 H   0  0  0  0  0  0  0  0  0  0  0  0
   49.0856    5.0977   15.7672 H   0  0  0  0  0  0  0  0  0  0  0  0
   47.7767    5.7851   16.8071 H   0  0  0  0  0  0  0  0  0  0  0  0
   49.4062    6.4691   16.8374 H   0  0  0  0  0  0  0  0  0  0  0  0
   53.8769    8.3389   12.6097 H   0  0  0  0  0  0  0  0  0  0  0  0
   47.2420   -0.0063    7.3204 H   0  0  0  0  0  0  0  0  0  0  0  0
  2  1  1  0
  3  1  2  0
  4  5  1  0
  5  3  1  0
  6  2  1  0
  7  4  1  0
  8  1  1  0
  9  2  2  0
 10  4  2  0
 11 21  2  0
 12 20  2  0
 13 14  1  0
 14  8  2  0
 15 18  1  0
 16 17  1  0
 17  7  1  0
 18  6  1  0
 19  8  1  0
 20 16  1  0
 21 15  1  0
 22 27  2  0
 23 28  2  0
 24 15  2  0
 25 16  2  0
 26 19  1  0
 27 24  1  0
 28 25  1  0
  5 13  2  0
 11 22  1  0
 12 23  1  0
  3 29  1  0
  6 30  1  0
  7 31  1  0
 13 32  1  0
 14 33  1  0
 17 34  1  0
 17 35  1  0
 18 36  1  0
 18 37  1  0
 20 38  1  0
 21 39  1  0
 22 40  1  0
 23 41  1  0
 24 42  1  0
 25 43  1  0
 26 44  1  0
 26 45  1  0
 26 46  1  0
 27 47  1  0
 28 48  1  0
M  END
> <Uni-Dock RESULT> 
ENERGY=   -5.619  LOWER_BOUND=    0.915  UPPER_BOUND=    0.994
INTER + INTRA:          -5.619
INTER:                  -5.619
INTRA:                   0.000
UNBOUND:                 0.000

$$$$

     RDKit          3D

 48 50  0  0  0  0  0  0  0  0999 V2000
   45.3229    8.4366   12.2137 C   0  0  0  0  0  0  0  0  0  0  0  0
   44.8170    9.7446   11.6846 C   0  0  0  0  0  0  0  0  0  0  0  0
   46.5259    8.4835   12.9415 C   0  0  0  0  0  0  0  0  0  0  0  0
   48.3601    7.4239   14.2370 C   0  0  0  0  0  0  0  0  0  0  0  0
   47.0771    7.3218   13.4902 C   0  0  0  0  0  0  0  0  0  0  0  0
   43.8810    9.6977   10.6786 N   0  0  0  0  0  0  0  0  0  0  0  0
   48.5519    6.5059   15.2479 N   0  0  0  0  0  0  0  0  0  0  0  0
   44.6615    7.2018   12.0447 C   0  0  0  0  0  0  0  0  0  0  0  0
   45.2436   10.7998   12.1441 O   0  0  0  0  0  0  0  0  0  0  0  0
   49.1662    8.3027   13.9583 O   0  0  0  0  0  0  0  0  0  0  0  0
   39.4586   10.6942   10.7846 N   0  0  0  0  0  0  0  0  0  0  0  0
   48.9877    9.3393   18.6243 N   0  0  0  0  0  0  0  0  0  0  0  0
   46.4365    6.0962   13.2935 C   0  0  0  0  0  0  0  0  0  0  0  0
   45.2373    6.0384   12.5756 C   0  0  0  0  0  0  0  0  0  0  0  0
   41.8599   11.0264   10.8640 C   0  0  0  0  0  0  0  0  0  0  0  0
   49.3477    7.2703   17.4137 C   0  0  0  0  0  0  0  0  0  0  0  0
   49.7002    6.5907   16.1236 C   0  0  0  0  0  0  0  0  0  0  0  0
   43.1986   10.8770   10.2022 C   0  0  0  0  0  0  0  0  0  0  0  0
   43.4879    7.1896   11.3331 O   0  0  0  0  0  0  0  0  0  0  0  0
   49.3083    8.6590   17.4992 C   0  0  0  0  0  0  0  0  0  0  0  0
   40.6918   10.6096   10.2347 C   0  0  0  0  0  0  0  0  0  0  0  0
   39.3853   11.2216   12.0258 C   0  0  0  0  0  0  0  0  0  0  0  0
   48.6851    8.6048   19.7147 C   0  0  0  0  0  0  0  0  0  0  0  0
   41.7406   11.5558   12.1521 C   0  0  0  0  0  0  0  0  0  0  0  0
   49.0189    6.5447   18.5627 C   0  0  0  0  0  0  0  0  0  0  0  0
   42.6057    6.0921   11.5524 C   0  0  0  0  0  0  0  0  0  0  0  0
   40.4855   11.6601   12.7433 C   0  0  0  0  0  0  0  0  0  0  0  0
   48.6848    7.2201   19.7331 C   0  0  0  0  0  0  0  0  0  0  0  0
   47.0393    9.4355   13.0809 H   0  0  0  0  0  0  0  0  0  0  0  0
   43.4830    8.7924   10.4540 H   0  0  0  0  0  0  0  0  0  0  0  0
   47.7607    5.9725   15.5795 H   0  0  0  0  0  0  0  0  0  0  0  0
   46.8722    5.1716   13.6630 H   0  0  0  0  0  0  0  0  0  0  0  0
   44.7839    5.0625   12.4288 H   0  0  0  0  0  0  0  0  0  0  0  0
   50.5300    7.1110   15.6316 H   0  0  0  0  0  0  0  0  0  0  0  0
   50.0337    5.5644   16.3144 H   0  0  0  0  0  0  0  0  0  0  0  0
   43.0817   10.7674    9.1185 H   0  0  0  0  0  0  0  0  0  0  0  0
   43.8063   11.7725   10.3733 H   0  0  0  0  0  0  0  0  0  0  0  0
   49.5373    9.2829   16.6369 H   0  0  0  0  0  0  0  0  0  0  0  0
   40.7109   10.1780    9.2372 H   0  0  0  0  0  0  0  0  0  0  0  0
   38.3849   11.2839   12.4444 H   0  0  0  0  0  0  0  0  0  0  0  0
   48.4334    9.1780   20.6025 H   0  0  0  0  0  0  0  0  0  0  0  0
   42.6261   11.8827   12.6946 H   0  0  0  0  0  0  0  0  0  0  0  0
   49.0261    5.4580   18.5549 H   0  0  0  0  0  0  0  0  0  0  0  0
   42.4392    5.9157   12.6204 H   0  0  0  0  0  0  0  0  0  0  0  0
   42.9783    5.1913   11.0547 H   0  0  0  0  0  0  0  0  0  0  0  0
   41.6413    6.3463   11.1017 H   0  0  0  0  0  0  0  0  0  0  0  0
   40.3712   12.0722   13.7396 H   0  0  0  0  0  0  0  0  0  0  0  0
   48.4318    6.6812   20.6392 H   0  0  0  0  0  0  0  0  0  0  0  0
  2  1  1  0
  3  1  2  0
  4  5  1  0
  5  3  1  0
  6  2  1  0
  7  4  1  0
  8  1  1  0
  9  2  2  0
 10  4  2  0
 11 21  2  0
 12 20  2  0
 13 14  1  0
 14  8  2  0
 15 18  1  0
 16 17  1  0
 17  7  1  0
 18  6  1  0
 19  8  1  0
 20 16  1  0
 21 15  1  0
 22 27  2  0
 23 28  2  0
 24 15  2  0
 25 16  2  0
 26 19  1  0
 27 24  1  0
 28 25  1  0
  5 13  2  0
 11 22  1  0
 12 23  1  0
  3 29  1  0
  6 30  1  0
  7 31  1  0
 13 32  1  0
 14 33  1  0
 17 34  1  0
 17 35  1  0
 18 36  1  0
 18 37  1  0
 20 38  1  0
 21 39  1  0
 22 40  1  0
 23 41  1  0
 24 42  1  0
 25 43  1  0
 26 44  1  0
 26 45  1  0
 26 46  1  0
 27 47  1  0
 28 48  1  0
M  END
> <Uni-Dock RESULT> 
ENERGY=   -4.540  LOWER_BOUND=    4.568  UPPER_BOUND=    9.065
INTER + INTRA:          -4.540
INTER:                  -4.540
INTRA:                   0.000
UNBOUND:                 0.000

$$$$

     RDKit          3D

 48 50  0  0  0  0  0  0  0  0999 V2000
   48.3292    8.9606   12.8256 C   0  0  0  0  0  0  0  0  0  0  0  0
   48.5518   10.2859   12.1616 C   0  0  0  0  0  0  0  0  0  0  0  0
   47.1106    8.3186   12.5396 C   0  0  0  0  0  0  0  0  0  0  0  0
   45.4998    6.4437   12.7744 C   0  0  0  0  0  0  0  0  0  0  0  0
   46.8097    7.0719   13.0962 C   0  0  0  0  0  0  0  0  0  0  0  0
   49.5254   11.1000   12.6906 N   0  0  0  0  0  0  0  0  0  0  0  0
   45.4688    5.0651   12.7724 N   0  0  0  0  0  0  0  0  0  0  0  0
   49.2617    8.3322   13.6777 C   0  0  0  0  0  0  0  0  0  0  0  0
   47.8733   10.6090   11.1912 O   0  0  0  0  0  0  0  0  0  0  0  0
   44.5308    7.1433   12.5068 O   0  0  0  0  0  0  0  0  0  0  0  0
   53.5942   12.2121   11.0260 N   0  0  0  0  0  0  0  0  0  0  0  0
   44.2245    4.4492    8.5665 N   0  0  0  0  0  0  0  0  0  0  0  0
   47.7213    6.4674   13.9648 C   0  0  0  0  0  0  0  0  0  0  0  0
   48.9383    7.0945   14.2525 C   0  0  0  0  0  0  0  0  0  0  0  0
   51.1794   12.0950   11.2211 C   0  0  0  0  0  0  0  0  0  0  0  0
   44.4078    3.9017   10.9207 C   0  0  0  0  0  0  0  0  0  0  0  0
   44.2869    4.3468   12.3482 C   0  0  0  0  0  0  0  0  0  0  0  0
   49.9462   12.3211   12.0460 C   0  0  0  0  0  0  0  0  0  0  0  0
   50.4431    8.9822   13.9342 O   0  0  0  0  0  0  0  0  0  0  0  0
   44.1261    4.7770    9.8757 C   0  0  0  0  0  0  0  0  0  0  0  0
   52.4430   12.4123   11.7079 C   0  0  0  0  0  0  0  0  0  0  0  0
   53.4806   11.6676    9.7952 C   0  0  0  0  0  0  0  0  0  0  0  0
   44.6284    3.1940    8.2815 C   0  0  0  0  0  0  0  0  0  0  0  0
   51.1077   11.5230    9.9479 C   0  0  0  0  0  0  0  0  0  0  0  0
   44.8321    2.6126   10.5844 C   0  0  0  0  0  0  0  0  0  0  0  0
   51.5388    8.1881   14.3810 C   0  0  0  0  0  0  0  0  0  0  0  0
   52.2735   11.3083    9.2196 C   0  0  0  0  0  0  0  0  0  0  0  0
   44.9422    2.2501    9.2449 C   0  0  0  0  0  0  0  0  0  0  0  0
   46.3878    8.7961   11.8771 H   0  0  0  0  0  0  0  0  0  0  0  0
   50.1299   10.7027   13.4014 H   0  0  0  0  0  0  0  0  0  0  0  0
   46.3419    4.5572   12.7636 H   0  0  0  0  0  0  0  0  0  0  0  0
   47.4883    5.5247   14.4529 H   0  0  0  0  0  0  0  0  0  0  0  0
   49.6086    6.5993   14.9489 H   0  0  0  0  0  0  0  0  0  0  0  0
   43.3876    4.9586   12.4831 H   0  0  0  0  0  0  0  0  0  0  0  0
   44.1858    3.4784   13.0089 H   0  0  0  0  0  0  0  0  0  0  0  0
   50.1415   13.0535   12.8369 H   0  0  0  0  0  0  0  0  0  0  0  0
   49.1428   12.7263   11.4208 H   0  0  0  0  0  0  0  0  0  0  0  0
   43.8070    5.7998   10.0686 H   0  0  0  0  0  0  0  0  0  0  0  0
   52.5747   12.8493   12.6944 H   0  0  0  0  0  0  0  0  0  0  0  0
   54.4174   11.5210    9.2652 H   0  0  0  0  0  0  0  0  0  0  0  0
   44.6965    2.9597    7.2230 H   0  0  0  0  0  0  0  0  0  0  0  0
   50.1439   11.2419    9.5266 H   0  0  0  0  0  0  0  0  0  0  0  0
   45.0724    1.8872   11.3571 H   0  0  0  0  0  0  0  0  0  0  0  0
   51.6848    7.3082   13.7453 H   0  0  0  0  0  0  0  0  0  0  0  0
   51.4071    7.9028   15.4294 H   0  0  0  0  0  0  0  0  0  0  0  0
   52.4425    8.8018   14.3142 H   0  0  0  0  0  0  0  0  0  0  0  0
   52.2388   10.8703    8.2284 H   0  0  0  0  0  0  0  0  0  0  0  0
   45.2633    1.2552    8.9576 H   0  0  0  0  0  0  0  0  0  0  0  0
  2  1  1  0
  3  1  2  0
  4  5  1  0
  5  3  1  0
  6  2  1  0
  7  4  1  0
  8  1  1  0
  9  2  2  0
 10  4  2  0
 11 21  2  0
 12 20  2  0
 13 14  1  0
 14  8  2  0
 15 18  1  0
 16 17  1  0
 17  7  1  0
 18  6  1  0
 19  8  1  0
 20 16  1  0
 21 15  1  0
 22 27  2  0
 23 28  2  0
 24 15  2  0
 25 16  2  0
 26 19  1  0
 27 24  1  0
 28 25  1  0
  5 13  2  0
 11 22  1  0
 12 23  1  0
  3 29  1  0
  6 30  1  0
  7 31  1  0
 13 32  1  0
 14 33  1  0
 17 34  1  0
 17 35  1  0
 18 36  1  0
 18 37  1  0
 20 38  1  0
 21 39  1  0
 22 40  1  0
 23 41  1  0
 24 42  1  0
 25 43  1  0
 26 44  1  0
 26 45  1  0
 26 46  1  0
 27 47  1  0
 28 48  1  0
M  END
> <Uni-Dock RESULT> 
ENERGY=   -4.516  LOWER_BOUND=    2.833  UPPER_BOUND=    3.776
INTER + INTRA:          -4.516
INTER:                  -4.516
INTRA:                   0.000
UNBOUND:                 0.000

$$$$

     RDKit          3D

 48 50  0  0  0  0  0  0  0  0999 V2000
   50.1215    7.8026   12.6608 C   0  0  0  0  0  0  0  0  0  0  0  0
   51.2151    8.0002   11.6548 C   0  0  0  0  0  0  0  0  0  0  0  0
   48.8152    7.7041   12.1480 C   0  0  0  0  0  0  0  0  0  0  0  0
   46.3617    7.4246   12.4075 C   0  0  0  0  0  0  0  0  0  0  0  0
   47.7244    7.5051   12.9996 C   0  0  0  0  0  0  0  0  0  0  0  0
   52.4216    8.4680   12.1195 N   0  0  0  0  0  0  0  0  0  0  0  0
   45.4486    6.6427   13.0830 N   0  0  0  0  0  0  0  0  0  0  0  0
   50.3319    7.6893   14.0513 C   0  0  0  0  0  0  0  0  0  0  0  0
   51.0121    7.7535   10.4697 O   0  0  0  0  0  0  0  0  0  0  0  0
   46.1083    8.0131   11.3638 O   0  0  0  0  0  0  0  0  0  0  0  0
   56.3922    6.3206   12.5499 N   0  0  0  0  0  0  0  0  0  0  0  0
   44.5511    3.7515    9.8499 N   0  0  0  0  0  0  0  0  0  0  0  0
   47.9327    7.4257   14.3785 C   0  0  0  0  0  0  0  0  0  0  0  0
   49.2280    7.5174   14.8990 C   0  0  0  0  0  0  0  0  0  0  0  0
   54.4693    7.3373   11.4766 C   0  0  0  0  0  0  0  0  0  0  0  0
   44.0892    5.0574   11.8392 C   0  0  0  0  0  0  0  0  0  0  0  0
   44.1353    6.3867   12.5329 C   0  0  0  0  0  0  0  0  0  0  0  0
   53.5958    8.5422   11.2832 C   0  0  0  0  0  0  0  0  0  0  0  0
   51.6183    7.7857   14.5201 O   0  0  0  0  0  0  0  0  0  0  0  0
   44.5509    4.9195   10.5333 C   0  0  0  0  0  0  0  0  0  0  0  0
   55.5790    7.3757   12.3142 C   0  0  0  0  0  0  0  0  0  0  0  0
   56.0840    5.1672   11.9183 C   0  0  0  0  0  0  0  0  0  0  0  0
   44.0764    2.6671   10.4971 C   0  0  0  0  0  0  0  0  0  0  0  0
   54.1795    6.1211   10.8517 C   0  0  0  0  0  0  0  0  0  0  0  0
   43.6135    3.9088   12.4788 C   0  0  0  0  0  0  0  0  0  0  0  0
   51.8877    7.2222   15.8010 C   0  0  0  0  0  0  0  0  0  0  0  0
   54.9993    5.0186   11.0704 C   0  0  0  0  0  0  0  0  0  0  0  0
   43.6033    2.6944   11.7983 C   0  0  0  0  0  0  0  0  0  0  0  0
   48.6461    7.7849   11.0737 H   0  0  0  0  0  0  0  0  0  0  0  0
   52.5479    8.5142   13.1247 H   0  0  0  0  0  0  0  0  0  0  0  0
   45.7822    6.0031   13.7902 H   0  0  0  0  0  0  0  0  0  0  0  0
   47.0967    7.3257   15.0657 H   0  0  0  0  0  0  0  0  0  0  0  0
   49.3423    7.4714   15.9780 H   0  0  0  0  0  0  0  0  0  0  0  0
   43.8358    7.1869   11.8465 H   0  0  0  0  0  0  0  0  0  0  0  0
   43.4290    6.4019   13.3706 H   0  0  0  0  0  0  0  0  0  0  0  0
   54.1333    9.4554   11.5609 H   0  0  0  0  0  0  0  0  0  0  0  0
   53.3152    8.6396   10.2285 H   0  0  0  0  0  0  0  0  0  0  0  0
   44.9494    5.7709    9.9842 H   0  0  0  0  0  0  0  0  0  0  0  0
   55.8572    8.2847   12.8414 H   0  0  0  0  0  0  0  0  0  0  0  0
   56.7537    4.3358   12.1189 H   0  0  0  0  0  0  0  0  0  0  0  0
   44.0877    1.7449    9.9232 H   0  0  0  0  0  0  0  0  0  0  0  0
   53.3131    6.0334   10.1981 H   0  0  0  0  0  0  0  0  0  0  0  0
   43.2459    3.9533   13.5005 H   0  0  0  0  0  0  0  0  0  0  0  0
   51.4969    6.2023   15.8831 H   0  0  0  0  0  0  0  0  0  0  0  0
   51.4940    7.8633   16.5958 H   0  0  0  0  0  0  0  0  0  0  0  0
   52.9746    7.1738   15.9203 H   0  0  0  0  0  0  0  0  0  0  0  0
   54.7943    4.0678   10.5913 H   0  0  0  0  0  0  0  0  0  0  0  0
   43.2342    1.7904   12.2694 H   0  0  0  0  0  0  0  0  0  0  0  0
  2  1  1  0
  3  1  2  0
  4  5  1  0
  5  3  1  0
  6  2  1  0
  7  4  1  0
  8  1  1  0
  9  2  2  0
 10  4  2  0
 11 21  2  0
 12 20  2  0
 13 14  1  0
 14  8  2  0
 15 18  1  0
 16 17  1  0
 17  7  1  0
 18  6  1  0
 19  8  1  0
 20 16  1  0
 21 15  1  0
 22 27  2  0
 23 28  2  0
 24 15  2  0
 25 16  2  0
 26 19  1  0
 27 24  1  0
 28 25  1  0
  5 13  2  0
 11 22  1  0
 12 23  1  0
  3 29  1  0
  6 30  1  0
  7 31  1  0
 13 32  1  0
 14 33  1  0
 17 34  1  0
 17 35  1  0
 18 36  1  0
 18 37  1  0
 20 38  1  0
 21 39  1  0
 22 40  1  0
 23 41  1  0
 24 42  1  0
 25 43  1  0
 26 44  1  0
 26 45  1  0
 26 46  1  0
 27 47  1  0
 28 48  1  0
M  END
> <Uni-Dock RESULT> 
ENERGY=   -4.496  LOWER_BOUND=    3.240  UPPER_BOUND=    4.815
INTER + INTRA:          -4.496
INTER:                  -4.496
INTRA:                   0.000
UNBOUND:                 0.000

$$$$

     RDKit          3D

 48 50  0  0  0  0  0  0  0  0999 V2000
   49.0370    7.1044   17.0572 C   0  0  0  0  0  0  0  0  0  0  0  0
   49.5601    6.1295   18.0684 C   0  0  0  0  0  0  0  0  0  0  0  0
   48.7228    6.5785   15.7908 C   0  0  0  0  0  0  0  0  0  0  0  0
   47.9147    6.7965   13.4532 C   0  0  0  0  0  0  0  0  0  0  0  0
   48.2149    7.3998   14.7798 C   0  0  0  0  0  0  0  0  0  0  0  0
   50.2177    6.6458   19.1599 N   0  0  0  0  0  0  0  0  0  0  0  0
   46.8948    7.3826   12.7336 N   0  0  0  0  0  0  0  0  0  0  0  0
   48.8271    8.4764   17.3106 C   0  0  0  0  0  0  0  0  0  0  0  0
   49.4002    4.9242   17.9003 O   0  0  0  0  0  0  0  0  0  0  0  0
   48.5422    5.8190   13.0653 O   0  0  0  0  0  0  0  0  0  0  0  0
   48.9090    6.8668   23.4959 N   0  0  0  0  0  0  0  0  0  0  0  0
   44.2295    3.8611   12.3977 N   0  0  0  0  0  0  0  0  0  0  0  0
   48.0387    8.7637   15.0241 C   0  0  0  0  0  0  0  0  0  0  0  0
   48.3431    9.2966   16.2811 C   0  0  0  0  0  0  0  0  0  0  0  0
   49.6093    5.8973   21.3858 C   0  0  0  0  0  0  0  0  0  0  0  0
   45.1987    5.9740   11.7103 C   0  0  0  0  0  0  0  0  0  0  0  0
   46.4298    6.8030   11.4924 C   0  0  0  0  0  0  0  0  0  0  0  0
   50.6200    5.8270   20.2786 C   0  0  0  0  0  0  0  0  0  0  0  0
   49.1396    8.9584   18.5572 O   0  0  0  0  0  0  0  0  0  0  0  0
   45.2952    4.6628   12.1676 C   0  0  0  0  0  0  0  0  0  0  0  0
   49.7908    6.7391   22.4779 C   0  0  0  0  0  0  0  0  0  0  0  0
   47.7881    6.1168   23.4222 C   0  0  0  0  0  0  0  0  0  0  0  0
   43.0094    4.3893   12.1690 C   0  0  0  0  0  0  0  0  0  0  0  0
   48.4306    5.1474   21.3431 C   0  0  0  0  0  0  0  0  0  0  0  0
   43.9166    6.4878   11.4938 C   0  0  0  0  0  0  0  0  0  0  0  0
   48.5152   10.1745   18.9597 C   0  0  0  0  0  0  0  0  0  0  0  0
   47.5058    5.2533   22.3771 C   0  0  0  0  0  0  0  0  0  0  0  0
   42.8034    5.6842   11.7233 C   0  0  0  0  0  0  0  0  0  0  0  0
   48.8771    5.5178   15.5900 H   0  0  0  0  0  0  0  0  0  0  0  0
   50.1852    7.6509   19.2914 H   0  0  0  0  0  0  0  0  0  0  0  0
   46.2690    8.0205   13.2046 H   0  0  0  0  0  0  0  0  0  0  0  0
   47.6969    9.4331   14.2389 H   0  0  0  0  0  0  0  0  0  0  0  0
   48.2109   10.3654   16.4213 H   0  0  0  0  0  0  0  0  0  0  0  0
   47.2168    6.2027   11.0217 H   0  0  0  0  0  0  0  0  0  0  0  0
   46.2116    7.6346   10.8128 H   0  0  0  0  0  0  0  0  0  0  0  0
   51.5913    6.2010   20.6202 H   0  0  0  0  0  0  0  0  0  0  0  0
   50.7653    4.7871   19.9655 H   0  0  0  0  0  0  0  0  0  0  0  0
   46.2628    4.2075   12.3717 H   0  0  0  0  0  0  0  0  0  0  0  0
   50.6784    7.3597   22.5711 H   0  0  0  0  0  0  0  0  0  0  0  0
   47.0978    6.2324   24.2528 H   0  0  0  0  0  0  0  0  0  0  0  0
   42.1739    3.7222   12.3609 H   0  0  0  0  0  0  0  0  0  0  0  0
   48.2328    4.4844   20.5024 H   0  0  0  0  0  0  0  0  0  0  0  0
   43.7782    7.5070   11.1428 H   0  0  0  0  0  0  0  0  0  0  0  0
   47.4335   10.1479   18.7900 H   0  0  0  0  0  0  0  0  0  0  0  0
   48.9751   11.0303   18.4557 H   0  0  0  0  0  0  0  0  0  0  0  0
   48.6816   10.2930   20.0350 H   0  0  0  0  0  0  0  0  0  0  0  0
   46.5878    4.6765   22.3650 H   0  0  0  0  0  0  0  0  0  0  0  0
   41.7988    6.0565   11.5575 H   0  0  0  0  0  0  0  0  0  0  0  0
  2  1  1  0
  3  1  2  0
  4  5  1  0
  5  3  1  0
  6  2  1  0
  7  4  1  0
  8  1  1  0
  9  2  2  0
 10  4  2  0
 11 21  2  0
 12 20  2  0
 13 14  1  0
 14  8  2  0
 15 18  1  0
 16 17  1  0
 17  7  1  0
 18  6  1  0
 19  8  1  0
 20 16  1  0
 21 15  1  0
 22 27  2  0
 23 28  2  0
 24 15  2  0
 25 16  2  0
 26 19  1  0
 27 24  1  0
 28 25  1  0
  5 13  2  0
 11 22  1  0
 12 23  1  0
  3 29  1  0
  6 30  1  0
  7 31  1  0
 13 32  1  0
 14 33  1  0
 17 34  1  0
 17 35  1  0
 18 36  1  0
 18 37  1  0
 20 38  1  0
 21 39  1  0
 22 40  1  0
 23 41  1  0
 24 42  1  0
 25 43  1  0
 26 44  1  0
 26 45  1  0
 26 46  1  0
 27 47  1  0
 28 48  1  0
M  END
> <Uni-Dock RESULT> 
ENERGY=   -4.374  LOWER_BOUND=    3.767  UPPER_BOUND=    6.455
INTER + INTRA:          -4.374
INTER:                  -4.374
INTRA:                   0.000
UNBOUND:                 0.000

$$$$

     RDKit          3D

 48 50  0  0  0  0  0  0  0  0999 V2000
   49.3430    9.8835   11.3978 C   0  0  0  0  0  0  0  0  0  0  0  0
   48.9686   11.2370   10.8736 C   0  0  0  0  0  0  0  0  0  0  0  0
   48.3545    9.2072   12.1358 C   0  0  0  0  0  0  0  0  0  0  0  0
   47.5229    7.2683   13.4450 C   0  0  0  0  0  0  0  0  0  0  0  0
   48.5963    7.9329   12.6576 C   0  0  0  0  0  0  0  0  0  0  0  0
   49.9932   12.0683   10.4868 N   0  0  0  0  0  0  0  0  0  0  0  0
   47.4982    5.8903   13.4005 N   0  0  0  0  0  0  0  0  0  0  0  0
   50.5897    9.2619   11.1747 C   0  0  0  0  0  0  0  0  0  0  0  0
   47.7881   11.5667   10.8101 O   0  0  0  0  0  0  0  0  0  0  0  0
   46.7088    7.9405   14.0658 O   0  0  0  0  0  0  0  0  0  0  0  0
   51.2496   13.3815    6.3323 N   0  0  0  0  0  0  0  0  0  0  0  0
   43.4396    5.3673   11.7061 N   0  0  0  0  0  0  0  0  0  0  0  0
   49.8430    7.3340   12.4623 C   0  0  0  0  0  0  0  0  0  0  0  0
   50.8315    7.9952   11.7258 C   0  0  0  0  0  0  0  0  0  0  0  0
   49.8876   13.1703    8.3282 C   0  0  0  0  0  0  0  0  0  0  0  0
   45.3873    4.7501   13.0104 C   0  0  0  0  0  0  0  0  0  0  0  0
   46.4249    5.1437   14.0197 C   0  0  0  0  0  0  0  0  0  0  0  0
   49.7580   13.3243    9.8154 C   0  0  0  0  0  0  0  0  0  0  0  0
   51.5318    9.9458   10.4475 O   0  0  0  0  0  0  0  0  0  0  0  0
   44.3989    5.6483   12.6182 C   0  0  0  0  0  0  0  0  0  0  0  0
   51.0598   13.5173    7.6649 C   0  0  0  0  0  0  0  0  0  0  0  0
   50.2179   12.8738    5.6236 C   0  0  0  0  0  0  0  0  0  0  0  0
   43.4675    4.1375   11.1520 C   0  0  0  0  0  0  0  0  0  0  0  0
   48.8491   12.6380    7.5590 C   0  0  0  0  0  0  0  0  0  0  0  0
   45.3879    3.4890   12.4067 C   0  0  0  0  0  0  0  0  0  0  0  0
   52.5646    9.1779    9.8356 C   0  0  0  0  0  0  0  0  0  0  0  0
   49.0119   12.4898    6.1853 C   0  0  0  0  0  0  0  0  0  0  0  0
   44.4123    3.1747   11.4647 C   0  0  0  0  0  0  0  0  0  0  0  0
   47.3866    9.6795   12.3070 H   0  0  0  0  0  0  0  0  0  0  0  0
   50.9249   11.6702   10.4418 H   0  0  0  0  0  0  0  0  0  0  0  0
   48.0373    5.4151   12.6906 H   0  0  0  0  0  0  0  0  0  0  0  0
   50.0747    6.3679   12.9031 H   0  0  0  0  0  0  0  0  0  0  0  0
   51.7930    7.5023   11.6159 H   0  0  0  0  0  0  0  0  0  0  0  0
   45.9680    5.7177   14.8340 H   0  0  0  0  0  0  0  0  0  0  0  0
   46.8741    4.2511   14.4697 H   0  0  0  0  0  0  0  0  0  0  0  0
   50.4985   14.0371   10.1942 H   0  0  0  0  0  0  0  0  0  0  0  0
   48.7683   13.7202   10.0691 H   0  0  0  0  0  0  0  0  0  0  0  0
   44.3518    6.6520   13.0373 H   0  0  0  0  0  0  0  0  0  0  0  0
   51.9121   13.9264    8.2013 H   0  0  0  0  0  0  0  0  0  0  0  0
   50.3918   12.7788    4.5556 H   0  0  0  0  0  0  0  0  0  0  0  0
   42.6847    3.9406   10.4250 H   0  0  0  0  0  0  0  0  0  0  0  0
   47.9160   12.3359    8.0318 H   0  0  0  0  0  0  0  0  0  0  0  0
   46.1386    2.7480   12.6679 H   0  0  0  0  0  0  0  0  0  0  0  0
   52.1585    8.3252    9.2811 H   0  0  0  0  0  0  0  0  0  0  0  0
   53.2982    8.8540   10.5805 H   0  0  0  0  0  0  0  0  0  0  0  0
   53.0807    9.8260    9.1205 H   0  0  0  0  0  0  0  0  0  0  0  0
   48.2166   12.0834    5.5704 H   0  0  0  0  0  0  0  0  0  0  0  0
   44.3870    2.2021   10.9864 H   0  0  0  0  0  0  0  0  0  0  0  0
  2  1  1  0
  3  1  2  0
  4  5  1  0
  5  3  1  0
  6  2  1  0
  7  4  1  0
  8  1  1  0
  9  2  2  0
 10  4  2  0
 11 21  2  0
 12 20  2  0
 13 14  1  0
 14  8  2  0
 15 18  1  0
 16 17  1  0
 17  7  1  0
 18  6  1  0
 19  8  1  0
 20 16  1  0
 21 15  1  0
 22 27  2  0
 23 28  2  0
 24 15  2  0
 25 16  2  0
 26 19  1  0
 27 24  1  0
 28 25  1  0
  5 13  2  0
 11 22  1  0
 12 23  1  0
  3 29  1  0
  6 30  1  0
  7 31  1  0
 13 32  1  0
 14 33  1  0
 17 34  1  0
 17 35  1  0
 18 36  1  0
 18 37  1  0
 20 38  1  0
 21 39  1  0
 22 40  1  0
 23 41  1  0
 24 42  1  0
 25 43  1  0
 26 44  1  0
 26 45  1  0
 26 46  1  0
 27 47  1  0
 28 48  1  0
M  END
> <Uni-Dock RESULT> 
ENERGY=   -4.311  LOWER_BOUND=    4.591  UPPER_BOUND=    6.459
INTER + INTRA:          -4.311
INTER:                  -4.311
INTRA:                   0.000
UNBOUND:                 0.000

$$$$

     RDKit          3D

 48 50  0  0  0  0  0  0  0  0999 V2000
   46.2360   10.0673   12.1142 C   0  0  0  0  0  0  0  0  0  0  0  0
   46.8919   11.4145   12.0712 C   0  0  0  0  0  0  0  0  0  0  0  0
   47.0377    8.9991   12.5563 C   0  0  0  0  0  0  0  0  0  0  0  0
   47.4144    6.6069   13.1046 C   0  0  0  0  0  0  0  0  0  0  0  0
   46.5193    7.7039   12.6470 C   0  0  0  0  0  0  0  0  0  0  0  0
   46.2855   12.3864   11.3109 N   0  0  0  0  0  0  0  0  0  0  0  0
   46.8079    5.5631   13.7710 N   0  0  0  0  0  0  0  0  0  0  0  0
   44.8896    9.8276   11.7676 C   0  0  0  0  0  0  0  0  0  0  0  0
   47.9314   11.6122   12.6931 O   0  0  0  0  0  0  0  0  0  0  0  0
   48.6209    6.6733   12.9050 O   0  0  0  0  0  0  0  0  0  0  0  0
   44.0427   16.1064   12.6124 N   0  0  0  0  0  0  0  0  0  0  0  0
   49.0000    5.8798   17.6066 N   0  0  0  0  0  0  0  0  0  0  0  0
   45.1951    7.4644   12.2723 C   0  0  0  0  0  0  0  0  0  0  0  0
   44.3874    8.5199   11.8359 C   0  0  0  0  0  0  0  0  0  0  0  0
   45.8974   14.5821   12.2665 C   0  0  0  0  0  0  0  0  0  0  0  0
   47.7836    4.7469   15.8422 C   0  0  0  0  0  0  0  0  0  0  0  0
   47.5924    4.5076   14.3738 C   0  0  0  0  0  0  0  0  0  0  0  0
   46.7246   13.7614   11.3207 C   0  0  0  0  0  0  0  0  0  0  0  0
   44.1323   10.8909   11.3437 O   0  0  0  0  0  0  0  0  0  0  0  0
   48.7775    5.6073   16.2999 C   0  0  0  0  0  0  0  0  0  0  0  0
   44.8405   15.3632   11.8114 C   0  0  0  0  0  0  0  0  0  0  0  0
   44.3121   16.0697   13.9354 C   0  0  0  0  0  0  0  0  0  0  0  0
   48.1923    5.2738   18.5012 C   0  0  0  0  0  0  0  0  0  0  0  0
   46.1346   14.5636   13.6438 C   0  0  0  0  0  0  0  0  0  0  0  0
   46.9614    4.1455   16.7999 C   0  0  0  0  0  0  0  0  0  0  0  0
   42.7167   10.7630   11.4454 C   0  0  0  0  0  0  0  0  0  0  0  0
   45.3343   15.3207   14.4935 C   0  0  0  0  0  0  0  0  0  0  0  0
   47.1688    4.4093   18.1509 C   0  0  0  0  0  0  0  0  0  0  0  0
   48.0776    9.1785   12.8314 H   0  0  0  0  0  0  0  0  0  0  0  0
   45.3624   12.1828   10.9436 H   0  0  0  0  0  0  0  0  0  0  0  0
   45.8635    5.6826   14.1089 H   0  0  0  0  0  0  0  0  0  0  0  0
   44.7843    6.4582   12.2819 H   0  0  0  0  0  0  0  0  0  0  0  0
   43.3706    8.2857   11.5348 H   0  0  0  0  0  0  0  0  0  0  0  0
   48.5623    4.4063   13.8734 H   0  0  0  0  0  0  0  0  0  0  0  0
   47.0480    3.5708   14.2100 H   0  0  0  0  0  0  0  0  0  0  0  0
   46.6269   14.1393   10.2971 H   0  0  0  0  0  0  0  0  0  0  0  0
   47.7844   13.8281   11.5907 H   0  0  0  0  0  0  0  0  0  0  0  0
   49.4411    6.1206   15.6060 H   0  0  0  0  0  0  0  0  0  0  0  0
   44.5916   15.4162   10.7546 H   0  0  0  0  0  0  0  0  0  0  0  0
   43.6618   16.6779   14.5576 H   0  0  0  0  0  0  0  0  0  0  0  0
   48.3957    5.5105   19.5417 H   0  0  0  0  0  0  0  0  0  0  0  0
   46.9402   13.9563   14.0532 H   0  0  0  0  0  0  0  0  0  0  0  0
   46.1644    3.4692   16.5024 H   0  0  0  0  0  0  0  0  0  0  0  0
   42.4136   10.4140   12.4384 H   0  0  0  0  0  0  0  0  0  0  0  0
   42.3305   10.1068   10.6592 H   0  0  0  0  0  0  0  0  0  0  0  0
   42.2819   11.7558   11.2935 H   0  0  0  0  0  0  0  0  0  0  0  0
   45.5050   15.3236   15.5642 H   0  0  0  0  0  0  0  0  0  0  0  0
   46.5492    3.9512   18.9135 H   0  0  0  0  0  0  0  0  0  0  0  0
  2  1  1  0
  3  1  2  0
  4  5  1  0
  5  3  1  0
  6  2  1  0
  7  4  1  0
  8  1  1  0
  9  2  2  0
 10  4  2  0
 11 21  2  0
 12 20  2  0
 13 14  1  0
 14  8  2  0
 15 18  1  0
 16 17  1  0
 17  7  1  0
 18  6  1  0
 19  8  1  0
 20 16  1  0
 21 15  1  0
 22 27  2  0
 23 28  2  0
 24 15  2  0
 25 16  2  0
 26 19  1  0
 27 24  1  0
 28 25  1  0
  5 13  2  0
 11 22  1  0
 12 23  1  0
  3 29  1  0
  6 30  1  0
  7 31  1  0
 13 32  1  0
 14 33  1  0
 17 34  1  0
 17 35  1  0
 18 36  1  0
 18 37  1  0
 20 38  1  0
 21 39  1  0
 22 40  1  0
 23 41  1  0
 24 42  1  0
 25 43  1  0
 26 44  1  0
 26 45  1  0
 26 46  1  0
 27 47  1  0
 28 48  1  0
M  END
> <Uni-Dock RESULT> 
ENERGY=   -4.201  LOWER_BOUND=    4.575  UPPER_BOUND=    7.548
INTER + INTRA:          -4.201
INTER:                  -4.201
INTRA:                   0.000
UNBOUND:                 0.000

$$$$

     RDKit          3D

 48 50  0  0  0  0  0  0  0  0999 V2000
   48.1537    8.0517   12.3976 C   0  0  0  0  0  0  0  0  0  0  0  0
   47.8596    6.6596   12.8690 C   0  0  0  0  0  0  0  0  0  0  0  0
   49.4762    8.3037   11.9892 C   0  0  0  0  0  0  0  0  0  0  0  0
   51.2682    9.7836   11.1153 C   0  0  0  0  0  0  0  0  0  0  0  0
   49.8528    9.5654   11.5191 C   0  0  0  0  0  0  0  0  0  0  0  0
   46.7175    6.4740   13.6117 N   0  0  0  0  0  0  0  0  0  0  0  0
   51.4825   10.7196   10.1256 N   0  0  0  0  0  0  0  0  0  0  0  0
   47.1952    9.0842   12.3220 C   0  0  0  0  0  0  0  0  0  0  0  0
   48.6281    5.7426   12.5949 O   0  0  0  0  0  0  0  0  0  0  0  0
   52.1645    9.1322   11.6370 O   0  0  0  0  0  0  0  0  0  0  0  0
   42.8361    4.4126   12.4947 N   0  0  0  0  0  0  0  0  0  0  0  0
   53.4198    8.0797    7.1431 N   0  0  0  0  0  0  0  0  0  0  0  0
   48.9089   10.5941   11.4759 C   0  0  0  0  0  0  0  0  0  0  0  0
   47.5899   10.3535   11.8749 C   0  0  0  0  0  0  0  0  0  0  0  0
   45.1874    4.6857   13.0238 C   0  0  0  0  0  0  0  0  0  0  0  0
   52.9570   10.1745    8.2718 C   0  0  0  0  0  0  0  0  0  0  0  0
   52.8000   10.9213    9.5632 C   0  0  0  0  0  0  0  0  0  0  0  0
   46.2403    5.1627   13.9809 C   0  0  0  0  0  0  0  0  0  0  0  0
   45.9127    8.8059   12.7240 O   0  0  0  0  0  0  0  0  0  0  0  0
   53.2743    8.8192    8.2671 C   0  0  0  0  0  0  0  0  0  0  0  0
   43.8338    4.8007   13.3219 C   0  0  0  0  0  0  0  0  0  0  0  0
   43.2061    3.8824   11.3088 C   0  0  0  0  0  0  0  0  0  0  0  0
   53.2345    8.7154    5.9677 C   0  0  0  0  0  0  0  0  0  0  0  0
   45.5265    4.1422   11.7816 C   0  0  0  0  0  0  0  0  0  0  0  0
   52.7640   10.7950    7.0338 C   0  0  0  0  0  0  0  0  0  0  0  0
   44.8776    9.6503   12.2275 C   0  0  0  0  0  0  0  0  0  0  0  0
   44.5234    3.7296   10.9102 C   0  0  0  0  0  0  0  0  0  0  0  0
   52.9071   10.0568    5.8623 C   0  0  0  0  0  0  0  0  0  0  0  0
   50.2208    7.5086   12.0396 H   0  0  0  0  0  0  0  0  0  0  0  0
   46.0708    7.2526   13.6749 H   0  0  0  0  0  0  0  0  0  0  0  0
   50.6963   11.0401    9.5783 H   0  0  0  0  0  0  0  0  0  0  0  0
   49.1889   11.5975   11.1660 H   0  0  0  0  0  0  0  0  0  0  0  0
   46.8940   11.1868   11.8449 H   0  0  0  0  0  0  0  0  0  0  0  0
   53.5789   10.6232   10.2744 H   0  0  0  0  0  0  0  0  0  0  0  0
   52.9148   11.9980    9.3950 H   0  0  0  0  0  0  0  0  0  0  0  0
   45.8317    5.2409   14.9944 H   0  0  0  0  0  0  0  0  0  0  0  0
   47.0678    4.4456   14.0200 H   0  0  0  0  0  0  0  0  0  0  0  0
   53.4215    8.2722    9.1968 H   0  0  0  0  0  0  0  0  0  0  0  0
   43.4973    5.2244   14.2647 H   0  0  0  0  0  0  0  0  0  0  0  0
   42.3883    3.5738   10.6640 H   0  0  0  0  0  0  0  0  0  0  0  0
   53.3593    8.0969    5.0834 H   0  0  0  0  0  0  0  0  0  0  0  0
   46.5717    4.0444   11.4929 H   0  0  0  0  0  0  0  0  0  0  0  0
   52.5084   11.8495    6.9744 H   0  0  0  0  0  0  0  0  0  0  0  0
   44.9481    9.7791   11.1421 H   0  0  0  0  0  0  0  0  0  0  0  0
   44.8859   10.6158   12.7431 H   0  0  0  0  0  0  0  0  0  0  0  0
   43.9208    9.1655   12.4448 H   0  0  0  0  0  0  0  0  0  0  0  0
   44.7658    3.3011    9.9441 H   0  0  0  0  0  0  0  0  0  0  0  0
   52.7687   10.5154    4.8897 H   0  0  0  0  0  0  0  0  0  0  0  0
  2  1  1  0
  3  1  2  0
  4  5  1  0
  5  3  1  0
  6  2  1  0
  7  4  1  0
  8  1  1  0
  9  2  2  0
 10  4  2  0
 11 21  2  0
 12 20  2  0
 13 14  1  0
 14  8  2  0
 15 18  1  0
 16 17  1  0
 17  7  1  0
 18  6  1  0
 19  8  1  0
 20 16  1  0
 21 15  1  0
 22 27  2  0
 23 28  2  0
 24 15  2  0
 25 16  2  0
 26 19  1  0
 27 24  1  0
 28 25  1  0
  5 13  2  0
 11 22  1  0
 12 23  1  0
  3 29  1  0
  6 30  1  0
  7 31  1  0
 13 32  1  0
 14 33  1  0
 17 34  1  0
 17 35  1  0
 18 36  1  0
 18 37  1  0
 20 38  1  0
 21 39  1  0
 22 40  1  0
 23 41  1  0
 24 42  1  0
 25 43  1  0
 26 44  1  0
 26 45  1  0
 26 46  1  0
 27 47  1  0
 28 48  1  0
M  END
> <Uni-Dock RESULT> 
ENERGY=   -4.092  LOWER_BOUND=    4.133  UPPER_BOUND=    7.978
INTER + INTRA:          -4.092
INTER:                  -4.092
INTRA:                   0.000
UNBOUND:                 0.000

$$$$
