
     RDKit          3D

 48 50  0  0  0  0  0  0  0  0999 V2000
   47.0598    6.5669   13.3832 C   0  0  0  0  0  0  0  0  0  0  0  0
   47.5785    7.9725   13.3511 C   0  0  0  0  0  0  0  0  0  0  0  0
   46.3500    6.1393   12.2465 C   0  0  0  0  0  0  0  0  0  0  0  0
   45.0839    4.4414   10.9515 C   0  0  0  0  0  0  0  0  0  0  0  0
   45.8402    4.8400   12.1684 C   0  0  0  0  0  0  0  0  0  0  0  0
   47.9236    8.5436   14.5533 N   0  0  0  0  0  0  0  0  0  0  0  0
   45.1657    3.1124   10.5930 N   0  0  0  0  0  0  0  0  0  0  0  0
   47.2660    5.6691   14.4517 C   0  0  0  0  0  0  0  0  0  0  0  0
   47.6767    8.5668   12.2821 O   0  0  0  0  0  0  0  0  0  0  0  0
   44.4560    5.2782   10.3151 O   0  0  0  0  0  0  0  0  0  0  0  0
   52.0547    9.4479   16.1548 N   0  0  0  0  0  0  0  0  0  0  0  0
   46.9302    3.6509    6.5670 N   0  0  0  0  0  0  0  0  0  0  0  0
   46.0182    3.9638   13.2417 C   0  0  0  0  0  0  0  0  0  0  0  0
   46.7259    4.3772   14.3749 C   0  0  0  0  0  0  0  0  0  0  0  0
   50.0866    9.6236   14.7480 C   0  0  0  0  0  0  0  0  0  0  0  0
   45.6175    2.5382    8.2746 C   0  0  0  0  0  0  0  0  0  0  0  0
   44.5835    2.6372    9.3569 C   0  0  0  0  0  0  0  0  0  0  0  0
   48.6021    9.8147   14.6367 C   0  0  0  0  0  0  0  0  0  0  0  0
   47.9657    6.1153   15.5450 O   0  0  0  0  0  0  0  0  0  0  0  0
   45.9971    3.6627    7.5471 C   0  0  0  0  0  0  0  0  0  0  0  0
   50.7269    9.6410   15.9826 C   0  0  0  0  0  0  0  0  0  0  0  0
   52.7825    9.2260   15.0387 C   0  0  0  0  0  0  0  0  0  0  0  0
   47.5195    2.4668    6.3014 C   0  0  0  0  0  0  0  0  0  0  0  0
   50.8750    9.3799   13.6197 C   0  0  0  0  0  0  0  0  0  0  0  0
   46.2581    1.3319    7.9757 C   0  0  0  0  0  0  0  0  0  0  0  0
   48.5822    5.1279   16.3676 C   0  0  0  0  0  0  0  0  0  0  0  0
   52.2444    9.1814   13.7633 C   0  0  0  0  0  0  0  0  0  0  0  0
   47.2220    1.2925    6.9721 C   0  0  0  0  0  0  0  0  0  0  0  0
   46.1926    6.8261   11.4141 H   0  0  0  0  0  0  0  0  0  0  0  0
   47.9482    7.9366   15.3656 H   0  0  0  0  0  0  0  0  0  0  0  0
   45.8827    2.5380   11.0127 H   0  0  0  0  0  0  0  0  0  0  0  0
   45.5852    2.9669   13.2268 H   0  0  0  0  0  0  0  0  0  0  0  0
   46.8229    3.6718   15.1951 H   0  0  0  0  0  0  0  0  0  0  0  0
   43.7580    3.2843    9.0394 H   0  0  0  0  0  0  0  0  0  0  0  0
   44.1554    1.6498    9.5638 H   0  0  0  0  0  0  0  0  0  0  0  0
   48.2145   10.3316   15.5216 H   0  0  0  0  0  0  0  0  0  0  0  0
   48.3641   10.4381   13.7672 H   0  0  0  0  0  0  0  0  0  0  0  0
   45.5498    4.6360    7.7411 H   0  0  0  0  0  0  0  0  0  0  0  0
   50.1741    9.8129   16.9023 H   0  0  0  0  0  0  0  0  0  0  0  0
   53.8459    9.0777   15.2015 H   0  0  0  0  0  0  0  0  0  0  0  0
   48.2628    2.4878    5.5098 H   0  0  0  0  0  0  0  0  0  0  0  0
   50.4199    9.3394   12.6314 H   0  0  0  0  0  0  0  0  0  0  0  0
   46.0087    0.4218    8.5147 H   0  0  0  0  0  0  0  0  0  0  0  0
   49.2823    5.6411   17.0340 H   0  0  0  0  0  0  0  0  0  0  0  0
   47.8368    4.6251   16.9917 H   0  0  0  0  0  0  0  0  0  0  0  0
   49.1539    4.4069   15.7734 H   0  0  0  0  0  0  0  0  0  0  0  0
   52.8739    8.9939   12.9010 H   0  0  0  0  0  0  0  0  0  0  0  0
   47.7288    0.3686    6.7170 H   0  0  0  0  0  0  0  0  0  0  0  0
  2  1  1  0
  3  1  2  0
  4  5  1  0
  5  3  1  0
  6  2  1  0
  7  4  1  0
  8  1  1  0
  9  2  2  0
 10  4  2  0
 11 21  2  0
 12 20  2  0
 13 14  1  0
 14  8  2  0
 15 18  1  0
 16 17  1  0
 17  7  1  0
 18  6  1  0
 19  8  1  0
 20 16  1  0
 21 15  1  0
 22 27  2  0
 23 28  2  0
 24 15  2  0
 25 16  2  0
 26 19  1  0
 27 24  1  0
 28 25  1  0
  5 13  2  0
 11 22  1  0
 12 23  1  0
  3 29  1  0
  6 30  1  0
  7 31  1  0
 13 32  1  0
 14 33  1  0
 17 34  1  0
 17 35  1  0
 18 36  1  0
 18 37  1  0
 20 38  1  0
 21 39  1  0
 22 40  1  0
 23 41  1  0
 24 42  1  0
 25 43  1  0
 26 44  1  0
 26 45  1  0
 26 46  1  0
 27 47  1  0
 28 48  1  0
M  END
> <Uni-Dock RESULT> 
ENERGY=   -6.257  LOWER_BOUND=    0.000  UPPER_BOUND=    0.000
INTER + INTRA:          -6.257
INTER:                  -6.257
INTRA:                   0.000
UNBOUND:                 0.000

$$$$

     RDKit          3D

 48 50  0  0  0  0  0  0  0  0999 V2000
   47.0507    6.3337   13.6056 C   0  0  0  0  0  0  0  0  0  0  0  0
   47.5493    7.7467   13.6322 C   0  0  0  0  0  0  0  0  0  0  0  0
   46.3353    5.9477   12.4575 C   0  0  0  0  0  0  0  0  0  0  0  0
   45.0800    4.2918   11.0991 C   0  0  0  0  0  0  0  0  0  0  0  0
   45.8430    4.6461   12.3256 C   0  0  0  0  0  0  0  0  0  0  0  0
   47.8986    8.2679   14.8557 N   0  0  0  0  0  0  0  0  0  0  0  0
   45.1767    2.9817   10.6801 N   0  0  0  0  0  0  0  0  0  0  0  0
   47.2801    5.3918   14.6305 C   0  0  0  0  0  0  0  0  0  0  0  0
   47.6283    8.3900   12.5902 O   0  0  0  0  0  0  0  0  0  0  0  0
   44.4341    5.1473   10.5072 O   0  0  0  0  0  0  0  0  0  0  0  0
   52.0327    9.1585   16.4571 N   0  0  0  0  0  0  0  0  0  0  0  0
   46.8927    3.7264    6.6660 N   0  0  0  0  0  0  0  0  0  0  0  0
   46.0440    3.7249   13.3564 C   0  0  0  0  0  0  0  0  0  0  0  0
   46.7573    4.0970   14.5005 C   0  0  0  0  0  0  0  0  0  0  0  0
   50.0481    9.3691   15.0784 C   0  0  0  0  0  0  0  0  0  0  0  0
   45.6130    2.5191    8.3340 C   0  0  0  0  0  0  0  0  0  0  0  0
   44.5887    2.5543    9.4294 C   0  0  0  0  0  0  0  0  0  0  0  0
   48.5601    9.5437   14.9900 C   0  0  0  0  0  0  0  0  0  0  0  0
   47.9846    5.7982   15.7361 O   0  0  0  0  0  0  0  0  0  0  0  0
   45.9695    3.6805    7.6545 C   0  0  0  0  0  0  0  0  0  0  0  0
   50.7006    9.3400   16.3064 C   0  0  0  0  0  0  0  0  0  0  0  0
   52.7521    8.9976   15.3253 C   0  0  0  0  0  0  0  0  0  0  0  0
   47.4957    2.5641    6.3416 C   0  0  0  0  0  0  0  0  0  0  0  0
   50.8284    9.1879   13.9328 C   0  0  0  0  0  0  0  0  0  0  0  0
   46.2673    1.3369    7.9748 C   0  0  0  0  0  0  0  0  0  0  0  0
   48.6230    4.7838   16.5073 C   0  0  0  0  0  0  0  0  0  0  0  0
   52.2018    9.0028   14.0544 C   0  0  0  0  0  0  0  0  0  0  0  0
   47.2215    1.3566    6.9614 C   0  0  0  0  0  0  0  0  0  0  0  0
   46.1600    6.6689   11.6586 H   0  0  0  0  0  0  0  0  0  0  0  0
   47.9398    7.6254   15.6394 H   0  0  0  0  0  0  0  0  0  0  0  0
   45.9059    2.3993   11.0667 H   0  0  0  0  0  0  0  0  0  0  0  0
   45.6248    2.7236   13.3006 H   0  0  0  0  0  0  0  0  0  0  0  0
   46.8724    3.3568   15.2869 H   0  0  0  0  0  0  0  0  0  0  0  0
   43.7511    3.2031    9.1493 H   0  0  0  0  0  0  0  0  0  0  0  0
   44.1765    1.5526    9.5955 H   0  0  0  0  0  0  0  0  0  0  0  0
   48.1743   10.0145   15.9010 H   0  0  0  0  0  0  0  0  0  0  0  0
   48.3046   10.2021   14.1519 H   0  0  0  0  0  0  0  0  0  0  0  0
   45.5106    4.6377    7.8966 H   0  0  0  0  0  0  0  0  0  0  0  0
   50.1548    9.4624   17.2382 H   0  0  0  0  0  0  0  0  0  0  0  0
   53.8191    8.8575   15.4711 H   0  0  0  0  0  0  0  0  0  0  0  0
   48.2306    2.6315    5.5447 H   0  0  0  0  0  0  0  0  0  0  0  0
   50.3639    9.1854   12.9480 H   0  0  0  0  0  0  0  0  0  0  0  0
   46.0360    0.3999    8.4744 H   0  0  0  0  0  0  0  0  0  0  0  0
   49.3226    5.2764   17.1896 H   0  0  0  0  0  0  0  0  0  0  0  0
   47.8911    4.2427   17.1151 H   0  0  0  0  0  0  0  0  0  0  0  0
   49.1987    4.0986   15.8757 H   0  0  0  0  0  0  0  0  0  0  0  0
   52.8251    8.8634   13.1785 H   0  0  0  0  0  0  0  0  0  0  0  0
   47.7384    0.4525    6.6600 H   0  0  0  0  0  0  0  0  0  0  0  0
  2  1  1  0
  3  1  2  0
  4  5  1  0
  5  3  1  0
  6  2  1  0
  7  4  1  0
  8  1  1  0
  9  2  2  0
 10  4  2  0
 11 21  2  0
 12 20  2  0
 13 14  1  0
 14  8  2  0
 15 18  1  0
 16 17  1  0
 17  7  1  0
 18  6  1  0
 19  8  1  0
 20 16  1  0
 21 15  1  0
 22 27  2  0
 23 28  2  0
 24 15  2  0
 25 16  2  0
 26 19  1  0
 27 24  1  0
 28 25  1  0
  5 13  2  0
 11 22  1  0
 12 23  1  0
  3 29  1  0
  6 30  1  0
  7 31  1  0
 13 32  1  0
 14 33  1  0
 17 34  1  0
 17 35  1  0
 18 36  1  0
 18 37  1  0
 20 38  1  0
 21 39  1  0
 22 40  1  0
 23 41  1  0
 24 42  1  0
 25 43  1  0
 26 44  1  0
 26 45  1  0
 26 46  1  0
 27 47  1  0
 28 48  1  0
M  END
> <Uni-Dock RESULT> 
ENERGY=   -6.177  LOWER_BOUND=    0.302  UPPER_BOUND=    0.302
INTER + INTRA:          -6.177
INTER:                  -6.177
INTRA:                   0.000
UNBOUND:                 0.000

$$$$

     RDKit          3D

 48 50  0  0  0  0  0  0  0  0999 V2000
   47.8943    6.9960   12.9693 C   0  0  0  0  0  0  0  0  0  0  0  0
   48.7785    8.1959   12.8139 C   0  0  0  0  0  0  0  0  0  0  0  0
   47.1560    6.6156   11.8340 C   0  0  0  0  0  0  0  0  0  0  0  0
   45.5445    5.1476   10.6462 C   0  0  0  0  0  0  0  0  0  0  0  0
   46.3152    5.4994   11.8685 C   0  0  0  0  0  0  0  0  0  0  0  0
   49.2023    8.8187   13.9641 N   0  0  0  0  0  0  0  0  0  0  0  0
   45.2786    3.8075   10.4598 N   0  0  0  0  0  0  0  0  0  0  0  0
   47.7898    6.2351   14.1528 C   0  0  0  0  0  0  0  0  0  0  0  0
   49.0922    8.5868   11.6938 O   0  0  0  0  0  0  0  0  0  0  0  0
   45.2041    6.0224    9.8598 O   0  0  0  0  0  0  0  0  0  0  0  0
   53.3319    8.8162   15.8064 N   0  0  0  0  0  0  0  0  0  0  0  0
   47.3346    3.2896    6.5717 N   0  0  0  0  0  0  0  0  0  0  0  0
   46.1894    4.7671   13.0514 C   0  0  0  0  0  0  0  0  0  0  0  0
   46.9219    5.1341   14.1849 C   0  0  0  0  0  0  0  0  0  0  0  0
   51.5646    9.3057   14.2188 C   0  0  0  0  0  0  0  0  0  0  0  0
   45.6787    2.8144    8.2775 C   0  0  0  0  0  0  0  0  0  0  0  0
   44.6552    3.3339    9.2433 C   0  0  0  0  0  0  0  0  0  0  0  0
   50.1971    9.8643   13.9533 C   0  0  0  0  0  0  0  0  0  0  0  0
   48.5258    6.6298   15.2421 O   0  0  0  0  0  0  0  0  0  0  0  0
   46.3895    3.6849    7.4561 C   0  0  0  0  0  0  0  0  0  0  0  0
   52.1187    9.3268   15.4944 C   0  0  0  0  0  0  0  0  0  0  0  0
   54.0295    8.2555   14.7947 C   0  0  0  0  0  0  0  0  0  0  0  0
   47.5908    1.9668    6.5050 C   0  0  0  0  0  0  0  0  0  0  0  0
   52.3151    8.7064   13.2031 C   0  0  0  0  0  0  0  0  0  0  0  0
   45.9799    1.4522    8.1850 C   0  0  0  0  0  0  0  0  0  0  0  0
   48.8040    5.6406   16.2297 C   0  0  0  0  0  0  0  0  0  0  0  0
   53.5684    8.1757   13.4913 C   0  0  0  0  0  0  0  0  0  0  0  0
   46.9483    1.0190    7.2836 C   0  0  0  0  0  0  0  0  0  0  0  0
   47.2369    7.1955   10.9140 H   0  0  0  0  0  0  0  0  0  0  0  0
   49.0166    8.3472   14.8428 H   0  0  0  0  0  0  0  0  0  0  0  0
   45.7878    3.1291   11.0082 H   0  0  0  0  0  0  0  0  0  0  0  0
   45.5016    3.9281   13.1187 H   0  0  0  0  0  0  0  0  0  0  0  0
   46.7785    4.5507   15.0898 H   0  0  0  0  0  0  0  0  0  0  0  0
   44.0563    4.1246    8.7775 H   0  0  0  0  0  0  0  0  0  0  0  0
   43.9630    2.5338    9.5291 H   0  0  0  0  0  0  0  0  0  0  0  0
   49.9192   10.5842   14.7311 H   0  0  0  0  0  0  0  0  0  0  0  0
   50.1852   10.3997   12.9971 H   0  0  0  0  0  0  0  0  0  0  0  0
   46.2159    4.7590    7.4903 H   0  0  0  0  0  0  0  0  0  0  0  0
   51.5859    9.7661   16.3336 H   0  0  0  0  0  0  0  0  0  0  0  0
   55.0017    7.8561   15.0684 H   0  0  0  0  0  0  0  0  0  0  0  0
   48.3526    1.6793    5.7861 H   0  0  0  0  0  0  0  0  0  0  0  0
   51.9195    8.6489   12.1903 H   0  0  0  0  0  0  0  0  0  0  0  0
   45.4628    0.7253    8.8057 H   0  0  0  0  0  0  0  0  0  0  0  0
   49.5813    6.0391   16.8889 H   0  0  0  0  0  0  0  0  0  0  0  0
   47.9175    5.4452   16.8411 H   0  0  0  0  0  0  0  0  0  0  0  0
   49.1875    4.7181   15.7804 H   0  0  0  0  0  0  0  0  0  0  0  0
   54.1675    7.7094   12.7176 H   0  0  0  0  0  0  0  0  0  0  0  0
   47.1958   -0.0322    7.1884 H   0  0  0  0  0  0  0  0  0  0  0  0
  2  1  1  0
  3  1  2  0
  4  5  1  0
  5  3  1  0
  6  2  1  0
  7  4  1  0
  8  1  1  0
  9  2  2  0
 10  4  2  0
 11 21  2  0
 12 20  2  0
 13 14  1  0
 14  8  2  0
 15 18  1  0
 16 17  1  0
 17  7  1  0
 18  6  1  0
 19  8  1  0
 20 16  1  0
 21 15  1  0
 22 27  2  0
 23 28  2  0
 24 15  2  0
 25 16  2  0
 26 19  1  0
 27 24  1  0
 28 25  1  0
  5 13  2  0
 11 22  1  0
 12 23  1  0
  3 29  1  0
  6 30  1  0
  7 31  1  0
 13 32  1  0
 14 33  1  0
 17 34  1  0
 17 35  1  0
 18 36  1  0
 18 37  1  0
 20 38  1  0
 21 39  1  0
 22 40  1  0
 23 41  1  0
 24 42  1  0
 25 43  1  0
 26 44  1  0
 26 45  1  0
 26 46  1  0
 27 47  1  0
 28 48  1  0
M  END
> <Uni-Dock RESULT> 
ENERGY=   -5.482  LOWER_BOUND=    0.967  UPPER_BOUND=    1.111
INTER + INTRA:          -5.482
INTER:                  -5.482
INTRA:                   0.000
UNBOUND:                 0.000

$$$$

     RDKit          3D

 48 50  0  0  0  0  0  0  0  0999 V2000
   45.3508    8.3698   12.2345 C   0  0  0  0  0  0  0  0  0  0  0  0
   44.8737    9.6859   11.6997 C   0  0  0  0  0  0  0  0  0  0  0  0
   46.5416    8.3968   12.9828 C   0  0  0  0  0  0  0  0  0  0  0  0
   48.3320    7.3048   14.3114 C   0  0  0  0  0  0  0  0  0  0  0  0
   47.0620    7.2258   13.5413 C   0  0  0  0  0  0  0  0  0  0  0  0
   43.9633    9.6541   10.6698 N   0  0  0  0  0  0  0  0  0  0  0  0
   48.4776    6.3966   15.3386 N   0  0  0  0  0  0  0  0  0  0  0  0
   44.6712    7.1466   12.0543 C   0  0  0  0  0  0  0  0  0  0  0  0
   45.2981   10.7334   12.1777 O   0  0  0  0  0  0  0  0  0  0  0  0
   49.1667    8.1574   14.0364 O   0  0  0  0  0  0  0  0  0  0  0  0
   39.5551   10.6557   10.7802 N   0  0  0  0  0  0  0  0  0  0  0  0
   48.9143    9.2781   18.6731 N   0  0  0  0  0  0  0  0  0  0  0  0
   46.4040    6.0111   13.3339 C   0  0  0  0  0  0  0  0  0  0  0  0
   45.2172    5.9735   12.5949 C   0  0  0  0  0  0  0  0  0  0  0  0
   41.9548   11.0014   10.8526 C   0  0  0  0  0  0  0  0  0  0  0  0
   49.2460    7.1779   17.5084 C   0  0  0  0  0  0  0  0  0  0  0  0
   49.6078    6.4652   16.2390 C   0  0  0  0  0  0  0  0  0  0  0  0
   43.2944   10.8416   10.1949 C   0  0  0  0  0  0  0  0  0  0  0  0
   43.5101    7.1540   11.3224 O   0  0  0  0  0  0  0  0  0  0  0  0
   49.2414    8.5686   17.5680 C   0  0  0  0  0  0  0  0  0  0  0  0
   40.7885   10.5671   10.2316 C   0  0  0  0  0  0  0  0  0  0  0  0
   39.4799   11.2057   12.0116 C   0  0  0  0  0  0  0  0  0  0  0  0
   48.5685    8.5723   19.7696 C   0  0  0  0  0  0  0  0  0  0  0  0
   41.8336   11.5545   12.1307 C   0  0  0  0  0  0  0  0  0  0  0  0
   48.8728    6.4830   18.6628 C   0  0  0  0  0  0  0  0  0  0  0  0
   42.5979    6.0812   11.5425 C   0  0  0  0  0  0  0  0  0  0  0  0
   40.5782   11.6631   12.7203 C   0  0  0  0  0  0  0  0  0  0  0  0
   48.5313    7.1888   19.8131 C   0  0  0  0  0  0  0  0  0  0  0  0
   47.0685    9.3399   13.1315 H   0  0  0  0  0  0  0  0  0  0  0  0
   43.5594    8.7539   10.4348 H   0  0  0  0  0  0  0  0  0  0  0  0
   47.6644    5.8918   15.6613 H   0  0  0  0  0  0  0  0  0  0  0  0
   46.8176    5.0799   13.7123 H   0  0  0  0  0  0  0  0  0  0  0  0
   44.7493    5.0057   12.4396 H   0  0  0  0  0  0  0  0  0  0  0  0
   50.4627    6.9527   15.7568 H   0  0  0  0  0  0  0  0  0  0  0  0
   49.9074    5.4336   16.4555 H   0  0  0  0  0  0  0  0  0  0  0  0
   43.1791   10.7369    9.1104 H   0  0  0  0  0  0  0  0  0  0  0  0
   43.9117   11.7300   10.3709 H   0  0  0  0  0  0  0  0  0  0  0  0
   49.5053    9.1702   16.6999 H   0  0  0  0  0  0  0  0  0  0  0  0
   40.8099   10.1166    9.2429 H   0  0  0  0  0  0  0  0  0  0  0  0
   38.4795   11.2697   12.4296 H   0  0  0  0  0  0  0  0  0  0  0  0
   48.3124    9.1681   20.6409 H   0  0  0  0  0  0  0  0  0  0  0  0
   42.7181   11.8945   12.6669 H   0  0  0  0  0  0  0  0  0  0  0  0
   48.8509    5.3966   18.6749 H   0  0  0  0  0  0  0  0  0  0  0  0
   41.6451    6.3553   11.0792 H   0  0  0  0  0  0  0  0  0  0  0  0
   42.9529    5.1667   11.0570 H   0  0  0  0  0  0  0  0  0  0  0  0
   42.4157    5.9187   12.6104 H   0  0  0  0  0  0  0  0  0  0  0  0
   40.4621   12.0917   13.7092 H   0  0  0  0  0  0  0  0  0  0  0  0
   48.2443    6.6735   20.7229 H   0  0  0  0  0  0  0  0  0  0  0  0
  2  1  1  0
  3  1  2  0
  4  5  1  0
  5  3  1  0
  6  2  1  0
  7  4  1  0
  8  1  1  0
  9  2  2  0
 10  4  2  0
 11 21  2  0
 12 20  2  0
 13 14  1  0
 14  8  2  0
 15 18  1  0
 16 17  1  0
 17  7  1  0
 18  6  1  0
 19  8  1  0
 20 16  1  0
 21 15  1  0
 22 27  2  0
 23 28  2  0
 24 15  2  0
 25 16  2  0
 26 19  1  0
 27 24  1  0
 28 25  1  0
  5 13  2  0
 11 22  1  0
 12 23  1  0
  3 29  1  0
  6 30  1  0
  7 31  1  0
 13 32  1  0
 14 33  1  0
 17 34  1  0
 17 35  1  0
 18 36  1  0
 18 37  1  0
 20 38  1  0
 21 39  1  0
 22 40  1  0
 23 41  1  0
 24 42  1  0
 25 43  1  0
 26 44  1  0
 26 45  1  0
 26 46  1  0
 27 47  1  0
 28 48  1  0
M  END
> <Uni-Dock RESULT> 
ENERGY=   -4.549  LOWER_BOUND=    4.543  UPPER_BOUND=    9.041
INTER + INTRA:          -4.549
INTER:                  -4.549
INTRA:                   0.000
UNBOUND:                 0.000

$$$$

     RDKit          3D

 48 50  0  0  0  0  0  0  0  0999 V2000
   49.0482    7.1216   17.0425 C   0  0  0  0  0  0  0  0  0  0  0  0
   49.5710    6.1461   18.0529 C   0  0  0  0  0  0  0  0  0  0  0  0
   48.7325    6.5968   15.7761 C   0  0  0  0  0  0  0  0  0  0  0  0
   47.9170    6.8193   13.4419 C   0  0  0  0  0  0  0  0  0  0  0  0
   48.2207    7.4194   14.7684 C   0  0  0  0  0  0  0  0  0  0  0  0
   50.2401    6.6616   19.1378 N   0  0  0  0  0  0  0  0  0  0  0  0
   46.8800    7.3938   12.7377 N   0  0  0  0  0  0  0  0  0  0  0  0
   48.8365    8.4927   17.2987 C   0  0  0  0  0  0  0  0  0  0  0  0
   49.3981    4.9421   17.8910 O   0  0  0  0  0  0  0  0  0  0  0  0
   48.5560    5.8544   13.0417 O   0  0  0  0  0  0  0  0  0  0  0  0
   48.8536    6.9218   23.4341 N   0  0  0  0  0  0  0  0  0  0  0  0
   44.2760    3.8256   12.4227 N   0  0  0  0  0  0  0  0  0  0  0  0
   48.0426    8.7828   15.0150 C   0  0  0  0  0  0  0  0  0  0  0  0
   48.3493    9.3142   16.2718 C   0  0  0  0  0  0  0  0  0  0  0  0
   49.6023    5.9182   21.3567 C   0  0  0  0  0  0  0  0  0  0  0  0
   45.1960    5.9591   11.7305 C   0  0  0  0  0  0  0  0  0  0  0  0
   46.4079    6.8125   11.5000 C   0  0  0  0  0  0  0  0  0  0  0  0
   50.6281    5.8458   20.2635 C   0  0  0  0  0  0  0  0  0  0  0  0
   49.1509    8.9734   18.5453 O   0  0  0  0  0  0  0  0  0  0  0  0
   45.3231    4.6483   12.1814 C   0  0  0  0  0  0  0  0  0  0  0  0
   49.7523    6.7875   22.4320 C   0  0  0  0  0  0  0  0  0  0  0  0
   47.7477    6.1495   23.3610 C   0  0  0  0  0  0  0  0  0  0  0  0
   43.0431    4.3315   12.2126 C   0  0  0  0  0  0  0  0  0  0  0  0
   48.4384    5.1452   21.3141 C   0  0  0  0  0  0  0  0  0  0  0  0
   43.9014    6.4492   11.5337 C   0  0  0  0  0  0  0  0  0  0  0  0
   48.5091   10.1777   18.9568 C   0  0  0  0  0  0  0  0  0  0  0  0
   47.4967    5.2575   22.3318 C   0  0  0  0  0  0  0  0  0  0  0  0
   42.8068    5.6237   11.7749 C   0  0  0  0  0  0  0  0  0  0  0  0
   48.8876    5.5366   15.5733 H   0  0  0  0  0  0  0  0  0  0  0  0
   50.2112    7.6673   19.2662 H   0  0  0  0  0  0  0  0  0  0  0  0
   46.2493    8.0171   13.2214 H   0  0  0  0  0  0  0  0  0  0  0  0
   47.6970    9.4519   14.2313 H   0  0  0  0  0  0  0  0  0  0  0  0
   48.2162   10.3827   16.4147 H   0  0  0  0  0  0  0  0  0  0  0  0
   47.1993    6.2301   11.0148 H   0  0  0  0  0  0  0  0  0  0  0  0
   46.1643    7.6437   10.8287 H   0  0  0  0  0  0  0  0  0  0  0  0
   51.5941    6.2216   20.6185 H   0  0  0  0  0  0  0  0  0  0  0  0
   50.7793    4.8055   19.9535 H   0  0  0  0  0  0  0  0  0  0  0  0
   46.3017    4.2106   12.3709 H   0  0  0  0  0  0  0  0  0  0  0  0
   50.6266    7.4266   22.5230 H   0  0  0  0  0  0  0  0  0  0  0  0
   47.0429    6.2719   24.1782 H   0  0  0  0  0  0  0  0  0  0  0  0
   42.2229    3.6483   12.4134 H   0  0  0  0  0  0  0  0  0  0  0  0
   48.2647    4.4612   20.4849 H   0  0  0  0  0  0  0  0  0  0  0  0
   43.7389    7.4670   11.1891 H   0  0  0  0  0  0  0  0  0  0  0  0
   48.6739   10.2907   20.0327 H   0  0  0  0  0  0  0  0  0  0  0  0
   48.9570   11.0434   18.4590 H   0  0  0  0  0  0  0  0  0  0  0  0
   47.4277   10.1375   18.7867 H   0  0  0  0  0  0  0  0  0  0  0  0
   46.5890    4.6650   22.3192 H   0  0  0  0  0  0  0  0  0  0  0  0
   41.7932    5.9777   11.6240 H   0  0  0  0  0  0  0  0  0  0  0  0
  2  1  1  0
  3  1  2  0
  4  5  1  0
  5  3  1  0
  6  2  1  0
  7  4  1  0
  8  1  1  0
  9  2  2  0
 10  4  2  0
 11 21  2  0
 12 20  2  0
 13 14  1  0
 14  8  2  0
 15 18  1  0
 16 17  1  0
 17  7  1  0
 18  6  1  0
 19  8  1  0
 20 16  1  0
 21 15  1  0
 22 27  2  0
 23 28  2  0
 24 15  2  0
 25 16  2  0
 26 19  1  0
 27 24  1  0
 28 25  1  0
  5 13  2  0
 11 22  1  0
 12 23  1  0
  3 29  1  0
  6 30  1  0
  7 31  1  0
 13 32  1  0
 14 33  1  0
 17 34  1  0
 17 35  1  0
 18 36  1  0
 18 37  1  0
 20 38  1  0
 21 39  1  0
 22 40  1  0
 23 41  1  0
 24 42  1  0
 25 43  1  0
 26 44  1  0
 26 45  1  0
 26 46  1  0
 27 47  1  0
 28 48  1  0
M  END
> <Uni-Dock RESULT> 
ENERGY=   -4.383  LOWER_BOUND=    3.760  UPPER_BOUND=    6.459
INTER + INTRA:          -4.383
INTER:                  -4.383
INTRA:                   0.000
UNBOUND:                 0.000

$$$$

     RDKit          3D

 48 50  0  0  0  0  0  0  0  0999 V2000
   49.3399    9.8940   11.4054 C   0  0  0  0  0  0  0  0  0  0  0  0
   48.9546   11.2425   10.8772 C   0  0  0  0  0  0  0  0  0  0  0  0
   48.3587    9.2132   12.1487 C   0  0  0  0  0  0  0  0  0  0  0  0
   47.5463    7.2694   13.4620 C   0  0  0  0  0  0  0  0  0  0  0  0
   48.6112    7.9411   12.6703 C   0  0  0  0  0  0  0  0  0  0  0  0
   49.9732   12.0835   10.4956 N   0  0  0  0  0  0  0  0  0  0  0  0
   47.5197    5.8921   13.4000 N   0  0  0  0  0  0  0  0  0  0  0  0
   50.5894    9.2798   11.1776 C   0  0  0  0  0  0  0  0  0  0  0  0
   47.7711   11.5580   10.8031 O   0  0  0  0  0  0  0  0  0  0  0  0
   46.7409    7.9352   14.1003 O   0  0  0  0  0  0  0  0  0  0  0  0
   51.2066   13.2921    6.3163 N   0  0  0  0  0  0  0  0  0  0  0  0
   43.4422    5.4123   11.7398 N   0  0  0  0  0  0  0  0  0  0  0  0
   49.8607    7.3492   12.4704 C   0  0  0  0  0  0  0  0  0  0  0  0
   50.8420    8.0155   11.7294 C   0  0  0  0  0  0  0  0  0  0  0  0
   49.8472   13.1483    8.3200 C   0  0  0  0  0  0  0  0  0  0  0  0
   45.4003    4.7659   13.0148 C   0  0  0  0  0  0  0  0  0  0  0  0
   46.4507    5.1391   14.0186 C   0  0  0  0  0  0  0  0  0  0  0  0
   49.7287   13.3273    9.8055 C   0  0  0  0  0  0  0  0  0  0  0  0
   51.5242    9.9683   10.4455 O   0  0  0  0  0  0  0  0  0  0  0  0
   44.4124    5.6747   12.6462 C   0  0  0  0  0  0  0  0  0  0  0  0
   51.0247   13.4560    7.6468 C   0  0  0  0  0  0  0  0  0  0  0  0
   50.1607   12.7958    5.6204 C   0  0  0  0  0  0  0  0  0  0  0  0
   43.4584    4.1911   11.1669 C   0  0  0  0  0  0  0  0  0  0  0  0
   48.7933   12.6270    7.5640 C   0  0  0  0  0  0  0  0  0  0  0  0
   45.3883    3.5144   12.3916 C   0  0  0  0  0  0  0  0  0  0  0  0
   52.5470    9.2018    9.8147 C   0  0  0  0  0  0  0  0  0  0  0  0
   48.9479   12.4503    6.1928 C   0  0  0  0  0  0  0  0  0  0  0  0
   44.4014    3.2191   11.4552 C   0  0  0  0  0  0  0  0  0  0  0  0
   47.3884    9.6794   12.3231 H   0  0  0  0  0  0  0  0  0  0  0  0
   50.9079   11.6917   10.4539 H   0  0  0  0  0  0  0  0  0  0  0  0
   48.0491    5.4270   12.6763 H   0  0  0  0  0  0  0  0  0  0  0  0
   50.0990    6.3847   12.9112 H   0  0  0  0  0  0  0  0  0  0  0  0
   51.8065    7.5292   11.6158 H   0  0  0  0  0  0  0  0  0  0  0  0
   46.0054    5.7011   14.8474 H   0  0  0  0  0  0  0  0  0  0  0  0
   46.9016    4.2376   14.4485 H   0  0  0  0  0  0  0  0  0  0  0  0
   50.4705   14.0489   10.1652 H   0  0  0  0  0  0  0  0  0  0  0  0
   48.7398   13.7241   10.0620 H   0  0  0  0  0  0  0  0  0  0  0  0
   44.3746    6.6722   13.0807 H   0  0  0  0  0  0  0  0  0  0  0  0
   51.8882   13.8539    8.1734 H   0  0  0  0  0  0  0  0  0  0  0  0
   50.3290   12.6767    4.5541 H   0  0  0  0  0  0  0  0  0  0  0  0
   42.6676    4.0089   10.4449 H   0  0  0  0  0  0  0  0  0  0  0  0
   47.8558   12.3540    8.0457 H   0  0  0  0  0  0  0  0  0  0  0  0
   46.1381    2.7659   12.6334 H   0  0  0  0  0  0  0  0  0  0  0  0
   53.0516    9.8516    9.0931 H   0  0  0  0  0  0  0  0  0  0  0  0
   53.2924    8.8760   10.5469 H   0  0  0  0  0  0  0  0  0  0  0  0
   52.1322    8.3502    9.2646 H   0  0  0  0  0  0  0  0  0  0  0  0
   48.1421   12.0503    5.5881 H   0  0  0  0  0  0  0  0  0  0  0  0
   44.3664    2.2539   10.9626 H   0  0  0  0  0  0  0  0  0  0  0  0
  2  1  1  0
  3  1  2  0
  4  5  1  0
  5  3  1  0
  6  2  1  0
  7  4  1  0
  8  1  1  0
  9  2  2  0
 10  4  2  0
 11 21  2  0
 12 20  2  0
 13 14  1  0
 14  8  2  0
 15 18  1  0
 16 17  1  0
 17  7  1  0
 18  6  1  0
 19  8  1  0
 20 16  1  0
 21 15  1  0
 22 27  2  0
 23 28  2  0
 24 15  2  0
 25 16  2  0
 26 19  1  0
 27 24  1  0
 28 25  1  0
  5 13  2  0
 11 22  1  0
 12 23  1  0
  3 29  1  0
  6 30  1  0
  7 31  1  0
 13 32  1  0
 14 33  1  0
 17 34  1  0
 17 35  1  0
 18 36  1  0
 18 37  1  0
 20 38  1  0
 21 39  1  0
 22 40  1  0
 23 41  1  0
 24 42  1  0
 25 43  1  0
 26 44  1  0
 26 45  1  0
 26 46  1  0
 27 47  1  0
 28 48  1  0
M  END
> <Uni-Dock RESULT> 
ENERGY=   -4.336  LOWER_BOUND=    4.566  UPPER_BOUND=    6.462
INTER + INTRA:          -4.336
INTER:                  -4.336
INTRA:                   0.000
UNBOUND:                 0.000

$$$$

     RDKit          3D

 48 50  0  0  0  0  0  0  0  0999 V2000
   46.2571   10.0506   12.1192 C   0  0  0  0  0  0  0  0  0  0  0  0
   46.9217   11.3932   12.0791 C   0  0  0  0  0  0  0  0  0  0  0  0
   47.0503    8.9765   12.5619 C   0  0  0  0  0  0  0  0  0  0  0  0
   47.4042    6.5819   13.1129 C   0  0  0  0  0  0  0  0  0  0  0  0
   46.5203    7.6863   12.6536 C   0  0  0  0  0  0  0  0  0  0  0  0
   46.3293   12.3660   11.3088 N   0  0  0  0  0  0  0  0  0  0  0  0
   46.7890    5.5557   13.7983 N   0  0  0  0  0  0  0  0  0  0  0  0
   44.9088    9.8219   11.7728 C   0  0  0  0  0  0  0  0  0  0  0  0
   47.9536   11.5871   12.7142 O   0  0  0  0  0  0  0  0  0  0  0  0
   48.6090    6.6279   12.8986 O   0  0  0  0  0  0  0  0  0  0  0  0
   44.0598   16.0343   12.6658 N   0  0  0  0  0  0  0  0  0  0  0  0
   49.0333    5.9000   17.6005 N   0  0  0  0  0  0  0  0  0  0  0  0
   45.1941    7.4572   12.2792 C   0  0  0  0  0  0  0  0  0  0  0  0
   44.3954    8.5187   11.8416 C   0  0  0  0  0  0  0  0  0  0  0  0
   45.9408   14.5493   12.2911 C   0  0  0  0  0  0  0  0  0  0  0  0
   47.7783    4.7567   15.8699 C   0  0  0  0  0  0  0  0  0  0  0  0
   47.5641    4.4973   14.4080 C   0  0  0  0  0  0  0  0  0  0  0  0
   46.7664   13.7413   11.3329 C   0  0  0  0  0  0  0  0  0  0  0  0
   44.1601   10.8911   11.3482 O   0  0  0  0  0  0  0  0  0  0  0  0
   48.7900    5.6101   16.3012 C   0  0  0  0  0  0  0  0  0  0  0  0
   44.8600   15.3072   11.8527 C   0  0  0  0  0  0  0  0  0  0  0  0
   44.3517   16.0047   13.9843 C   0  0  0  0  0  0  0  0  0  0  0  0
   48.2288    5.3198   18.5149 C   0  0  0  0  0  0  0  0  0  0  0  0
   46.2013   14.5377   13.6644 C   0  0  0  0  0  0  0  0  0  0  0  0
   46.9604    4.1825   16.8477 C   0  0  0  0  0  0  0  0  0  0  0  0
   42.7443   10.7804   11.4692 C   0  0  0  0  0  0  0  0  0  0  0  0
   45.3989   15.2784   14.5263 C   0  0  0  0  0  0  0  0  0  0  0  0
   47.1890    4.4645   18.1916 C   0  0  0  0  0  0  0  0  0  0  0  0
   48.0915    9.1475   12.8374 H   0  0  0  0  0  0  0  0  0  0  0  0
   45.4072   12.1659   10.9365 H   0  0  0  0  0  0  0  0  0  0  0  0
   45.8512    5.6960   14.1462 H   0  0  0  0  0  0  0  0  0  0  0  0
   44.7756    6.4542   12.2907 H   0  0  0  0  0  0  0  0  0  0  0  0
   43.3766    8.2933   11.5400 H   0  0  0  0  0  0  0  0  0  0  0  0
   48.5253    4.3724   13.8967 H   0  0  0  0  0  0  0  0  0  0  0  0
   47.0025    3.5671   14.2662 H   0  0  0  0  0  0  0  0  0  0  0  0
   46.6638   14.1319   10.3144 H   0  0  0  0  0  0  0  0  0  0  0  0
   47.8276   13.8054   11.5991 H   0  0  0  0  0  0  0  0  0  0  0  0
   49.4515    6.1030   15.5910 H   0  0  0  0  0  0  0  0  0  0  0  0
   44.5928   15.3526   10.8003 H   0  0  0  0  0  0  0  0  0  0  0  0
   43.6982   16.5987   14.6164 H   0  0  0  0  0  0  0  0  0  0  0  0
   48.4485    5.5700   19.5488 H   0  0  0  0  0  0  0  0  0  0  0  0
   47.0255   13.9469   14.0609 H   0  0  0  0  0  0  0  0  0  0  0  0
   46.1499    3.5133   16.5713 H   0  0  0  0  0  0  0  0  0  0  0  0
   42.3195   11.7780   11.3216 H   0  0  0  0  0  0  0  0  0  0  0  0
   42.3399   10.1280   10.6891 H   0  0  0  0  0  0  0  0  0  0  0  0
   42.4499   10.4360   12.4666 H   0  0  0  0  0  0  0  0  0  0  0  0
   45.5858   15.2853   15.5940 H   0  0  0  0  0  0  0  0  0  0  0  0
   46.5730    4.0272   18.9692 H   0  0  0  0  0  0  0  0  0  0  0  0
  2  1  1  0
  3  1  2  0
  4  5  1  0
  5  3  1  0
  6  2  1  0
  7  4  1  0
  8  1  1  0
  9  2  2  0
 10  4  2  0
 11 21  2  0
 12 20  2  0
 13 14  1  0
 14  8  2  0
 15 18  1  0
 16 17  1  0
 17  7  1  0
 18  6  1  0
 19  8  1  0
 20 16  1  0
 21 15  1  0
 22 27  2  0
 23 28  2  0
 24 15  2  0
 25 16  2  0
 26 19  1  0
 27 24  1  0
 28 25  1  0
  5 13  2  0
 11 22  1  0
 12 23  1  0
  3 29  1  0
  6 30  1  0
  7 31  1  0
 13 32  1  0
 14 33  1  0
 17 34  1  0
 17 35  1  0
 18 36  1  0
 18 37  1  0
 20 38  1  0
 21 39  1  0
 22 40  1  0
 23 41  1  0
 24 42  1  0
 25 43  1  0
 26 44  1  0
 26 45  1  0
 26 46  1  0
 27 47  1  0
 28 48  1  0
M  END
> <Uni-Dock RESULT> 
ENERGY=   -4.251  LOWER_BOUND=    4.569  UPPER_BOUND=    7.552
INTER + INTRA:          -4.251
INTER:                  -4.251
INTRA:                   0.000
UNBOUND:                 0.000

$$$$

     RDKit          3D

 48 50  0  0  0  0  0  0  0  0999 V2000
   48.1456    8.0612   12.4112 C   0  0  0  0  0  0  0  0  0  0  0  0
   47.8456    6.6687   12.8767 C   0  0  0  0  0  0  0  0  0  0  0  0
   49.4686    8.3095   12.0030 C   0  0  0  0  0  0  0  0  0  0  0  0
   51.2622    9.7867   11.1287 C   0  0  0  0  0  0  0  0  0  0  0  0
   49.8477    9.5708   11.5343 C   0  0  0  0  0  0  0  0  0  0  0  0
   46.7092    6.4877   13.6293 N   0  0  0  0  0  0  0  0  0  0  0  0
   51.4731   10.7086   10.1253 N   0  0  0  0  0  0  0  0  0  0  0  0
   47.1900    9.0964   12.3375 C   0  0  0  0  0  0  0  0  0  0  0  0
   48.6028    5.7476   12.5868 O   0  0  0  0  0  0  0  0  0  0  0  0
   52.1599    9.1456   11.6605 O   0  0  0  0  0  0  0  0  0  0  0  0
   42.8253    4.5081   12.4275 N   0  0  0  0  0  0  0  0  0  0  0  0
   53.4109    8.0169    7.1906 N   0  0  0  0  0  0  0  0  0  0  0  0
   48.9069   10.6026   11.4929 C   0  0  0  0  0  0  0  0  0  0  0  0
   47.5877   10.3655   11.8926 C   0  0  0  0  0  0  0  0  0  0  0  0
   45.1718    4.7188   13.0048 C   0  0  0  0  0  0  0  0  0  0  0  0
   52.9468   10.1324    8.2800 C   0  0  0  0  0  0  0  0  0  0  0  0
   52.7892   10.9033    9.5571 C   0  0  0  0  0  0  0  0  0  0  0  0
   46.2170    5.1769   13.9796 C   0  0  0  0  0  0  0  0  0  0  0  0
   45.9068    8.8214   12.7396 O   0  0  0  0  0  0  0  0  0  0  0  0
   53.2654    8.7774    8.3005 C   0  0  0  0  0  0  0  0  0  0  0  0
   43.8159    4.8731   13.2735 C   0  0  0  0  0  0  0  0  0  0  0  0
   43.2056    3.9607   11.2527 C   0  0  0  0  0  0  0  0  0  0  0  0
   53.2241    8.6300    6.0035 C   0  0  0  0  0  0  0  0  0  0  0  0
   45.5221    4.1581   11.7731 C   0  0  0  0  0  0  0  0  0  0  0  0
   52.7521   10.7288    7.0306 C   0  0  0  0  0  0  0  0  0  0  0  0
   44.8732    9.6590   12.2280 C   0  0  0  0  0  0  0  0  0  0  0  0
   44.5264    3.7687   10.8830 C   0  0  0  0  0  0  0  0  0  0  0  0
   52.8954    9.9687    5.8731 C   0  0  0  0  0  0  0  0  0  0  0  0
   50.2108    7.5121   12.0512 H   0  0  0  0  0  0  0  0  0  0  0  0
   46.0687    7.2711   13.6988 H   0  0  0  0  0  0  0  0  0  0  0  0
   50.6852   11.0161    9.5731 H   0  0  0  0  0  0  0  0  0  0  0  0
   49.1904   11.6052   11.1833 H   0  0  0  0  0  0  0  0  0  0  0  0
   46.8936   11.2005   11.8647 H   0  0  0  0  0  0  0  0  0  0  0  0
   53.5696   10.6214   10.2730 H   0  0  0  0  0  0  0  0  0  0  0  0
   52.9003   11.9770    9.3681 H   0  0  0  0  0  0  0  0  0  0  0  0
   45.7956    5.2479   14.9885 H   0  0  0  0  0  0  0  0  0  0  0  0
   47.0391    4.4534   14.0220 H   0  0  0  0  0  0  0  0  0  0  0  0
   53.4135    8.2482    9.2403 H   0  0  0  0  0  0  0  0  0  0  0  0
   43.4720    5.3124   14.2061 H   0  0  0  0  0  0  0  0  0  0  0  0
   42.3934    3.6722   10.5920 H   0  0  0  0  0  0  0  0  0  0  0  0
   53.3485    7.9953    5.1310 H   0  0  0  0  0  0  0  0  0  0  0  0
   46.5702    4.0311   11.5070 H   0  0  0  0  0  0  0  0  0  0  0  0
   52.4949   11.7817    6.9513 H   0  0  0  0  0  0  0  0  0  0  0  0
   43.9162    9.1729   12.4409 H   0  0  0  0  0  0  0  0  0  0  0  0
   44.8744   10.6282   12.7364 H   0  0  0  0  0  0  0  0  0  0  0  0
   44.9522    9.7803   11.1422 H   0  0  0  0  0  0  0  0  0  0  0  0
   44.7767    3.3293    9.9242 H   0  0  0  0  0  0  0  0  0  0  0  0
   52.7559   10.4089    4.8921 H   0  0  0  0  0  0  0  0  0  0  0  0
  2  1  1  0
  3  1  2  0
  4  5  1  0
  5  3  1  0
  6  2  1  0
  7  4  1  0
  8  1  1  0
  9  2  2  0
 10  4  2  0
 11 21  2  0
 12 20  2  0
 13 14  1  0
 14  8  2  0
 15 18  1  0
 16 17  1  0
 17  7  1  0
 18  6  1  0
 19  8  1  0
 20 16  1  0
 21 15  1  0
 22 27  2  0
 23 28  2  0
 24 15  2  0
 25 16  2  0
 26 19  1  0
 27 24  1  0
 28 25  1  0
  5 13  2  0
 11 22  1  0
 12 23  1  0
  3 29  1  0
  6 30  1  0
  7 31  1  0
 13 32  1  0
 14 33  1  0
 17 34  1  0
 17 35  1  0
 18 36  1  0
 18 37  1  0
 20 38  1  0
 21 39  1  0
 22 40  1  0
 23 41  1  0
 24 42  1  0
 25 43  1  0
 26 44  1  0
 26 45  1  0
 26 46  1  0
 27 47  1  0
 28 48  1  0
M  END
> <Uni-Dock RESULT> 
ENERGY=   -4.154  LOWER_BOUND=    4.093  UPPER_BOUND=    7.951
INTER + INTRA:          -4.154
INTER:                  -4.154
INTRA:                   0.000
UNBOUND:                 0.000

$$$$

     RDKit          3D

 48 50  0  0  0  0  0  0  0  0999 V2000
   46.7510   12.6513    7.4284 C   0  0  0  0  0  0  0  0  0  0  0  0
   46.1006   13.0354    8.7227 C   0  0  0  0  0  0  0  0  0  0  0  0
   48.1575   12.6280    7.4214 C   0  0  0  0  0  0  0  0  0  0  0  0
   50.3478   12.2707    6.3088 C   0  0  0  0  0  0  0  0  0  0  0  0
   48.8610   12.2651    6.2693 C   0  0  0  0  0  0  0  0  0  0  0  0
   44.7877   13.4405    8.6715 N   0  0  0  0  0  0  0  0  0  0  0  0
   50.9810   11.3527    5.4978 N   0  0  0  0  0  0  0  0  0  0  0  0
   46.0446   12.2953    6.2602 C   0  0  0  0  0  0  0  0  0  0  0  0
   46.7387   12.9848    9.7696 O   0  0  0  0  0  0  0  0  0  0  0  0
   50.9411   13.0436    7.0505 O   0  0  0  0  0  0  0  0  0  0  0  0
   41.1037   11.2256   10.0754 N   0  0  0  0  0  0  0  0  0  0  0  0
   53.1591    9.1248    8.6450 N   0  0  0  0  0  0  0  0  0  0  0  0
   48.1592   11.9444    5.1049 C   0  0  0  0  0  0  0  0  0  0  0  0
   46.7607   11.9603    5.1019 C   0  0  0  0  0  0  0  0  0  0  0  0
   43.2014   12.4364   10.2071 C   0  0  0  0  0  0  0  0  0  0  0  0
   52.7834   10.0061    6.4180 C   0  0  0  0  0  0  0  0  0  0  0  0
   52.4156   11.1750    5.5527 C   0  0  0  0  0  0  0  0  0  0  0  0
   44.0010   13.6587    9.8617 C   0  0  0  0  0  0  0  0  0  0  0  0
   44.6729   12.3243    6.3002 O   0  0  0  0  0  0  0  0  0  0  0  0
   52.8470   10.1368    7.8024 C   0  0  0  0  0  0  0  0  0  0  0  0
   41.8711   12.3102    9.8210 C   0  0  0  0  0  0  0  0  0  0  0  0
   41.6924   10.2140   10.7497 C   0  0  0  0  0  0  0  0  0  0  0  0
   53.4136    7.9237    8.0861 C   0  0  0  0  0  0  0  0  0  0  0  0
   43.7750   11.3622   10.8933 C   0  0  0  0  0  0  0  0  0  0  0  0
   53.0448    8.7432    5.8782 C   0  0  0  0  0  0  0  0  0  0  0  0
   43.9792   11.5293    5.3419 C   0  0  0  0  0  0  0  0  0  0  0  0
   43.0107   10.2340   11.1736 C   0  0  0  0  0  0  0  0  0  0  0  0
   53.3679    7.6849    6.7229 C   0  0  0  0  0  0  0  0  0  0  0  0
   48.7097   12.8957    8.3228 H   0  0  0  0  0  0  0  0  0  0  0  0
   44.2969   13.3146    7.7928 H   0  0  0  0  0  0  0  0  0  0  0  0
   50.4400   10.5964    5.1036 H   0  0  0  0  0  0  0  0  0  0  0  0
   48.6844   11.7114    4.1822 H   0  0  0  0  0  0  0  0  0  0  0  0
   46.2548   11.7251    4.1700 H   0  0  0  0  0  0  0  0  0  0  0  0
   52.9090   12.0859    5.9101 H   0  0  0  0  0  0  0  0  0  0  0  0
   52.7568   11.0080    4.5248 H   0  0  0  0  0  0  0  0  0  0  0  0
   43.3373   14.5070    9.6605 H   0  0  0  0  0  0  0  0  0  0  0  0
   44.6431   13.9422   10.7033 H   0  0  0  0  0  0  0  0  0  0  0  0
   52.6382   11.0885    8.2881 H   0  0  0  0  0  0  0  0  0  0  0  0
   41.3649   13.1014    9.2743 H   0  0  0  0  0  0  0  0  0  0  0  0
   41.0560    9.3561   10.9455 H   0  0  0  0  0  0  0  0  0  0  0  0
   53.6621    7.1315    8.7864 H   0  0  0  0  0  0  0  0  0  0  0  0
   44.8180   11.4038   11.2031 H   0  0  0  0  0  0  0  0  0  0  0  0
   53.0037    8.5782    4.8048 H   0  0  0  0  0  0  0  0  0  0  0  0
   42.9319   11.4719    5.6540 H   0  0  0  0  0  0  0  0  0  0  0  0
   44.0068   12.0022    4.3553 H   0  0  0  0  0  0  0  0  0  0  0  0
   44.3729   10.5078    5.3037 H   0  0  0  0  0  0  0  0  0  0  0  0
   43.4356    9.3915   11.7072 H   0  0  0  0  0  0  0  0  0  0  0  0
   53.5809    6.6975    6.3289 H   0  0  0  0  0  0  0  0  0  0  0  0
  2  1  1  0
  3  1  2  0
  4  5  1  0
  5  3  1  0
  6  2  1  0
  7  4  1  0
  8  1  1  0
  9  2  2  0
 10  4  2  0
 11 21  2  0
 12 20  2  0
 13 14  1  0
 14  8  2  0
 15 18  1  0
 16 17  1  0
 17  7  1  0
 18  6  1  0
 19  8  1  0
 20 16  1  0
 21 15  1  0
 22 27  2  0
 23 28  2  0
 24 15  2  0
 25 16  2  0
 26 19  1  0
 27 24  1  0
 28 25  1  0
  5 13  2  0
 11 22  1  0
 12 23  1  0
  3 29  1  0
  6 30  1  0
  7 31  1  0
 13 32  1  0
 14 33  1  0
 17 34  1  0
 17 35  1  0
 18 36  1  0
 18 37  1  0
 20 38  1  0
 21 39  1  0
 22 40  1  0
 23 41  1  0
 24 42  1  0
 25 43  1  0
 26 44  1  0
 26 45  1  0
 26 46  1  0
 27 47  1  0
 28 48  1  0
M  END
> <Uni-Dock RESULT> 
ENERGY=   -3.788  LOWER_BOUND=    7.546  UPPER_BOUND=   10.060
INTER + INTRA:          -3.788
INTER:                  -3.788
INTRA:                   0.000
UNBOUND:                 0.000

$$$$
