
     RDKit          3D

 48 50  0  0  0  0  0  0  0  0999 V2000
   47.0092    6.3749   13.3699 C   0  0  0  0  0  0  0  0  0  0  0  0
   47.4874    7.7939   13.2990 C   0  0  0  0  0  0  0  0  0  0  0  0
   46.3210    5.9038   12.2341 C   0  0  0  0  0  0  0  0  0  0  0  0
   45.1061    4.0634   10.9987 C   0  0  0  0  0  0  0  0  0  0  0  0
   45.8403    4.5932   12.1811 C   0  0  0  0  0  0  0  0  0  0  0  0
   47.8827    8.3921   14.4706 N   0  0  0  0  0  0  0  0  0  0  0  0
   45.3946    4.6455    9.7836 N   0  0  0  0  0  0  0  0  0  0  0  0
   47.2199    5.5124   14.4662 C   0  0  0  0  0  0  0  0  0  0  0  0
   47.5072    8.3777   12.2186 O   0  0  0  0  0  0  0  0  0  0  0  0
   44.3169    3.1356   11.1380 O   0  0  0  0  0  0  0  0  0  0  0  0
   52.0936    9.2379   13.4005 N   0  0  0  0  0  0  0  0  0  0  0  0
   47.4026    2.8589    6.0937 N   0  0  0  0  0  0  0  0  0  0  0  0
   46.0222    3.7548   13.2831 C   0  0  0  0  0  0  0  0  0  0  0  0
   46.7067    4.2090   14.4147 C   0  0  0  0  0  0  0  0  0  0  0  0
   49.9964    9.5782   14.5696 C   0  0  0  0  0  0  0  0  0  0  0  0
   45.7675    3.2178    7.8481 C   0  0  0  0  0  0  0  0  0  0  0  0
   44.8232    4.1480    8.5511 C   0  0  0  0  0  0  0  0  0  0  0  0
   48.5024    9.6949   14.5018 C   0  0  0  0  0  0  0  0  0  0  0  0
   47.9036    6.0027   15.5507 O   0  0  0  0  0  0  0  0  0  0  0  0
   46.5254    3.6423    6.7617 C   0  0  0  0  0  0  0  0  0  0  0  0
   50.7465    9.3672   13.4163 C   0  0  0  0  0  0  0  0  0  0  0  0
   52.7246    9.3146   14.5907 C   0  0  0  0  0  0  0  0  0  0  0  0
   47.5349    1.5881    6.5305 C   0  0  0  0  0  0  0  0  0  0  0  0
   50.6864    9.6401   15.7836 C   0  0  0  0  0  0  0  0  0  0  0  0
   45.9381    1.8963    8.2713 C   0  0  0  0  0  0  0  0  0  0  0  0
   48.4370    5.0538   16.4702 C   0  0  0  0  0  0  0  0  0  0  0  0
   52.0722    9.5103   15.7966 C   0  0  0  0  0  0  0  0  0  0  0  0
   46.8330    1.0660    7.6037 C   0  0  0  0  0  0  0  0  0  0  0  0
   46.1424    6.5866   11.4062 H   0  0  0  0  0  0  0  0  0  0  0  0
   47.9621    7.8046   15.2939 H   0  0  0  0  0  0  0  0  0  0  0  0
   46.1999    5.2515    9.7026 H   0  0  0  0  0  0  0  0  0  0  0  0
   45.6306    2.7385   13.2646 H   0  0  0  0  0  0  0  0  0  0  0  0
   46.8129    3.5172   15.2450 H   0  0  0  0  0  0  0  0  0  0  0  0
   43.8700    3.6426    8.7433 H   0  0  0  0  0  0  0  0  0  0  0  0
   44.6049    5.0202    7.9249 H   0  0  0  0  0  0  0  0  0  0  0  0
   48.2054   10.2879   13.6295 H   0  0  0  0  0  0  0  0  0  0  0  0
   48.1206   10.2132   15.3884 H   0  0  0  0  0  0  0  0  0  0  0  0
   46.4509    4.6578    6.3813 H   0  0  0  0  0  0  0  0  0  0  0  0
   50.2679    9.2899   12.4419 H   0  0  0  0  0  0  0  0  0  0  0  0
   53.8048    9.2094   14.5486 H   0  0  0  0  0  0  0  0  0  0  0  0
   48.2446    0.9800    5.9773 H   0  0  0  0  0  0  0  0  0  0  0  0
   50.1521    9.7916   16.7178 H   0  0  0  0  0  0  0  0  0  0  0  0
   45.3751    1.5152    9.1213 H   0  0  0  0  0  0  0  0  0  0  0  0
   49.1010    5.5917   17.1538 H   0  0  0  0  0  0  0  0  0  0  0  0
   47.6392    4.6026   17.0684 H   0  0  0  0  0  0  0  0  0  0  0  0
   49.0325    4.2900   15.9590 H   0  0  0  0  0  0  0  0  0  0  0  0
   52.6311    9.5609   16.7241 H   0  0  0  0  0  0  0  0  0  0  0  0
   46.9791    0.0378    7.9145 H   0  0  0  0  0  0  0  0  0  0  0  0
  2  1  1  0
  3  1  2  0
  4  5  1  0
  5  3  1  0
  6  2  1  0
  7  4  1  0
  8  1  1  0
  9  2  2  0
 10  4  2  0
 11 21  2  0
 12 20  2  0
 13 14  1  0
 14  8  2  0
 15 18  1  0
 16 17  1  0
 17  7  1  0
 18  6  1  0
 19  8  1  0
 20 16  1  0
 21 15  1  0
 22 27  2  0
 23 28  2  0
 24 15  2  0
 25 16  2  0
 26 19  1  0
 27 24  1  0
 28 25  1  0
  5 13  2  0
 11 22  1  0
 12 23  1  0
  3 29  1  0
  6 30  1  0
  7 31  1  0
 13 32  1  0
 14 33  1  0
 17 34  1  0
 17 35  1  0
 18 36  1  0
 18 37  1  0
 20 38  1  0
 21 39  1  0
 22 40  1  0
 23 41  1  0
 24 42  1  0
 25 43  1  0
 26 44  1  0
 26 45  1  0
 26 46  1  0
 27 47  1  0
 28 48  1  0
M  END
> <Uni-Dock RESULT> 
ENERGY=   -6.009  LOWER_BOUND=    0.000  UPPER_BOUND=    0.000
INTER + INTRA:          -6.009
INTER:                  -6.009
INTRA:                   0.000
UNBOUND:                 0.000

$$$$

     RDKit          3D

 48 50  0  0  0  0  0  0  0  0999 V2000
   50.2642    7.8544   12.5162 C   0  0  0  0  0  0  0  0  0  0  0  0
   51.2963    7.8224   11.4295 C   0  0  0  0  0  0  0  0  0  0  0  0
   48.9236    7.7760   12.0892 C   0  0  0  0  0  0  0  0  0  0  0  0
   46.4486    7.7059   12.5978 C   0  0  0  0  0  0  0  0  0  0  0  0
   47.8764    7.7838   13.0138 C   0  0  0  0  0  0  0  0  0  0  0  0
   52.5762    8.1997   11.7554 N   0  0  0  0  0  0  0  0  0  0  0  0
   46.1893    7.0687   11.4039 N   0  0  0  0  0  0  0  0  0  0  0  0
   50.5543    7.9374   13.8944 C   0  0  0  0  0  0  0  0  0  0  0  0
   50.9778    7.4737   10.2958 O   0  0  0  0  0  0  0  0  0  0  0  0
   45.5770    8.1703   13.3241 O   0  0  0  0  0  0  0  0  0  0  0  0
   54.6513    4.4058   10.8105 N   0  0  0  0  0  0  0  0  0  0  0  0
   43.9498    3.1729   10.6000 N   0  0  0  0  0  0  0  0  0  0  0  0
   48.1686    7.9004   14.3745 C   0  0  0  0  0  0  0  0  0  0  0  0
   49.4948    7.9752   14.8114 C   0  0  0  0  0  0  0  0  0  0  0  0
   54.4509    6.8045   11.1045 C   0  0  0  0  0  0  0  0  0  0  0  0
   44.3679    5.4580   11.2952 C   0  0  0  0  0  0  0  0  0  0  0  0
   44.8361    6.8401   10.9460 C   0  0  0  0  0  0  0  0  0  0  0  0
   53.6797    8.0628   10.8356 C   0  0  0  0  0  0  0  0  0  0  0  0
   51.8719    8.0014   14.2735 O   0  0  0  0  0  0  0  0  0  0  0  0
   44.3472    4.4407   10.3469 C   0  0  0  0  0  0  0  0  0  0  0  0
   54.0173    5.5825   10.5987 C   0  0  0  0  0  0  0  0  0  0  0  0
   55.7668    4.4453   11.5686 C   0  0  0  0  0  0  0  0  0  0  0  0
   43.5549    2.9021   11.8625 C   0  0  0  0  0  0  0  0  0  0  0  0
   55.6040    6.8013   11.8945 C   0  0  0  0  0  0  0  0  0  0  0  0
   43.9557    5.1344   12.5913 C   0  0  0  0  0  0  0  0  0  0  0  0
   52.1750    7.7071   15.6344 C   0  0  0  0  0  0  0  0  0  0  0  0
   56.2762    5.6051   12.1286 C   0  0  0  0  0  0  0  0  0  0  0  0
   43.5408    3.8386   12.8823 C   0  0  0  0  0  0  0  0  0  0  0  0
   48.7123    7.7385   11.0227 H   0  0  0  0  0  0  0  0  0  0  0  0
   52.7869    8.3454   12.7371 H   0  0  0  0  0  0  0  0  0  0  0  0
   46.9194    6.5263   10.9624 H   0  0  0  0  0  0  0  0  0  0  0  0
   47.3605    7.9327   15.1041 H   0  0  0  0  0  0  0  0  0  0  0  0
   49.6637    8.0720   15.8797 H   0  0  0  0  0  0  0  0  0  0  0  0
   44.1539    7.5868   11.3682 H   0  0  0  0  0  0  0  0  0  0  0  0
   44.8377    6.9827    9.8597 H   0  0  0  0  0  0  0  0  0  0  0  0
   53.3258    8.0790    9.7986 H   0  0  0  0  0  0  0  0  0  0  0  0
   54.3230    8.9395   10.9699 H   0  0  0  0  0  0  0  0  0  0  0  0
   44.6601    4.6164    9.3208 H   0  0  0  0  0  0  0  0  0  0  0  0
   53.1159    5.5142    9.9926 H   0  0  0  0  0  0  0  0  0  0  0  0
   56.2562    3.4877   11.7208 H   0  0  0  0  0  0  0  0  0  0  0  0
   43.2403    1.8777   12.0395 H   0  0  0  0  0  0  0  0  0  0  0  0
   55.9831    7.7240   12.3257 H   0  0  0  0  0  0  0  0  0  0  0  0
   43.9595    5.8912   13.3736 H   0  0  0  0  0  0  0  0  0  0  0  0
   53.2622    7.6163   15.7197 H   0  0  0  0  0  0  0  0  0  0  0  0
   51.8577    8.5255   16.2882 H   0  0  0  0  0  0  0  0  0  0  0  0
   51.7354    6.7540   15.9468 H   0  0  0  0  0  0  0  0  0  0  0  0
   57.1760    5.5768   12.7325 H   0  0  0  0  0  0  0  0  0  0  0  0
   43.2159    3.5670   13.8801 H   0  0  0  0  0  0  0  0  0  0  0  0
  2  1  1  0
  3  1  2  0
  4  5  1  0
  5  3  1  0
  6  2  1  0
  7  4  1  0
  8  1  1  0
  9  2  2  0
 10  4  2  0
 11 21  2  0
 12 20  2  0
 13 14  1  0
 14  8  2  0
 15 18  1  0
 16 17  1  0
 17  7  1  0
 18  6  1  0
 19  8  1  0
 20 16  1  0
 21 15  1  0
 22 27  2  0
 23 28  2  0
 24 15  2  0
 25 16  2  0
 26 19  1  0
 27 24  1  0
 28 25  1  0
  5 13  2  0
 11 22  1  0
 12 23  1  0
  3 29  1  0
  6 30  1  0
  7 31  1  0
 13 32  1  0
 14 33  1  0
 17 34  1  0
 17 35  1  0
 18 36  1  0
 18 37  1  0
 20 38  1  0
 21 39  1  0
 22 40  1  0
 23 41  1  0
 24 42  1  0
 25 43  1  0
 26 44  1  0
 26 45  1  0
 26 46  1  0
 27 47  1  0
 28 48  1  0
M  END
> <Uni-Dock RESULT> 
ENERGY=   -4.831  LOWER_BOUND=    3.338  UPPER_BOUND=    5.219
INTER + INTRA:          -4.831
INTER:                  -4.831
INTRA:                   0.000
UNBOUND:                 0.000

$$$$

     RDKit          3D

 48 50  0  0  0  0  0  0  0  0999 V2000
   45.1082    8.5119   12.0897 C   0  0  0  0  0  0  0  0  0  0  0  0
   44.4935    9.7675   11.5482 C   0  0  0  0  0  0  0  0  0  0  0  0
   46.3545    8.6672   12.7284 C   0  0  0  0  0  0  0  0  0  0  0  0
   48.3355    7.6959   13.9621 C   0  0  0  0  0  0  0  0  0  0  0  0
   47.0161    7.5688   13.2831 C   0  0  0  0  0  0  0  0  0  0  0  0
   43.4516    9.6360   10.6628 N   0  0  0  0  0  0  0  0  0  0  0  0
   48.6184    8.9173   14.5336 N   0  0  0  0  0  0  0  0  0  0  0  0
   44.5177    7.2330   12.0123 C   0  0  0  0  0  0  0  0  0  0  0  0
   44.9318   10.8605   11.8966 O   0  0  0  0  0  0  0  0  0  0  0  0
   49.0885    6.7299   14.0140 O   0  0  0  0  0  0  0  0  0  0  0  0
   40.3264   11.7317   12.9938 N   0  0  0  0  0  0  0  0  0  0  0  0
   49.1569   10.0301   18.9280 N   0  0  0  0  0  0  0  0  0  0  0  0
   46.4426    6.3002   13.1734 C   0  0  0  0  0  0  0  0  0  0  0  0
   45.2044    6.1334   12.5452 C   0  0  0  0  0  0  0  0  0  0  0  0
   41.4200   10.9212   10.9868 C   0  0  0  0  0  0  0  0  0  0  0  0
   49.5576    8.9827   16.7780 C   0  0  0  0  0  0  0  0  0  0  0  0
   49.8216    9.1301   15.3083 C   0  0  0  0  0  0  0  0  0  0  0  0
   42.6862   10.7673   10.1973 C   0  0  0  0  0  0  0  0  0  0  0  0
   43.2982    7.1220   11.3923 O   0  0  0  0  0  0  0  0  0  0  0  0
   49.4086   10.0944   17.6007 C   0  0  0  0  0  0  0  0  0  0  0  0
   41.4242   11.5674   12.2196 C   0  0  0  0  0  0  0  0  0  0  0  0
   39.1695   11.2219   12.5224 C   0  0  0  0  0  0  0  0  0  0  0  0
   49.0448    8.7960   19.4646 C   0  0  0  0  0  0  0  0  0  0  0  0
   40.2039   10.3971   10.5392 C   0  0  0  0  0  0  0  0  0  0  0  0
   49.4294    7.7238   17.3723 C   0  0  0  0  0  0  0  0  0  0  0  0
   42.5439    5.9390   11.6416 C   0  0  0  0  0  0  0  0  0  0  0  0
   39.0589   10.5517   11.3155 C   0  0  0  0  0  0  0  0  0  0  0  0
   49.1709    7.6254   18.7360 C   0  0  0  0  0  0  0  0  0  0  0  0
   46.8112    9.6541   12.7586 H   0  0  0  0  0  0  0  0  0  0  0  0
   43.0636    8.7082   10.5291 H   0  0  0  0  0  0  0  0  0  0  0  0
   47.8785    9.5978   14.6415 H   0  0  0  0  0  0  0  0  0  0  0  0
   46.9596    5.4319   13.5796 H   0  0  0  0  0  0  0  0  0  0  0  0
   44.8088    5.1241   12.4819 H   0  0  0  0  0  0  0  0  0  0  0  0
   50.6103    8.4363   14.9959 H   0  0  0  0  0  0  0  0  0  0  0  0
   50.1739   10.1422   15.0804 H   0  0  0  0  0  0  0  0  0  0  0  0
   43.2809   11.6864   10.2475 H   0  0  0  0  0  0  0  0  0  0  0  0
   42.4567   10.5896    9.1409 H   0  0  0  0  0  0  0  0  0  0  0  0
   49.4882   11.1047   17.2076 H   0  0  0  0  0  0  0  0  0  0  0  0
   42.3422   11.9805   12.6333 H   0  0  0  0  0  0  0  0  0  0  0  0
   38.3047   11.3696   13.1627 H   0  0  0  0  0  0  0  0  0  0  0  0
   48.8432    8.7717   20.5315 H   0  0  0  0  0  0  0  0  0  0  0  0
   40.1424    9.8724    9.5896 H   0  0  0  0  0  0  0  0  0  0  0  0
   49.5295    6.8210   16.7727 H   0  0  0  0  0  0  0  0  0  0  0  0
   41.5395    6.0947   11.2361 H   0  0  0  0  0  0  0  0  0  0  0  0
   42.9831    5.0821   11.1215 H   0  0  0  0  0  0  0  0  0  0  0  0
   42.4438    5.7453   12.7149 H   0  0  0  0  0  0  0  0  0  0  0  0
   38.1027   10.1600   10.9878 H   0  0  0  0  0  0  0  0  0  0  0  0
   49.0694    6.6593   19.2168 H   0  0  0  0  0  0  0  0  0  0  0  0
  2  1  1  0
  3  1  2  0
  4  5  1  0
  5  3  1  0
  6  2  1  0
  7  4  1  0
  8  1  1  0
  9  2  2  0
 10  4  2  0
 11 21  2  0
 12 20  2  0
 13 14  1  0
 14  8  2  0
 15 18  1  0
 16 17  1  0
 17  7  1  0
 18  6  1  0
 19  8  1  0
 20 16  1  0
 21 15  1  0
 22 27  2  0
 23 28  2  0
 24 15  2  0
 25 16  2  0
 26 19  1  0
 27 24  1  0
 28 25  1  0
  5 13  2  0
 11 22  1  0
 12 23  1  0
  3 29  1  0
  6 30  1  0
  7 31  1  0
 13 32  1  0
 14 33  1  0
 17 34  1  0
 17 35  1  0
 18 36  1  0
 18 37  1  0
 20 38  1  0
 21 39  1  0
 22 40  1  0
 23 41  1  0
 24 42  1  0
 25 43  1  0
 26 44  1  0
 26 45  1  0
 26 46  1  0
 27 47  1  0
 28 48  1  0
M  END
> <Uni-Dock RESULT> 
ENERGY=   -4.827  LOWER_BOUND=    4.662  UPPER_BOUND=    9.228
INTER + INTRA:          -4.827
INTER:                  -4.827
INTRA:                   0.000
UNBOUND:                 0.000

$$$$

     RDKit          3D

 48 50  0  0  0  0  0  0  0  0999 V2000
   48.0785    6.7608   13.6963 C   0  0  0  0  0  0  0  0  0  0  0  0
   48.9792    7.9456   13.5162 C   0  0  0  0  0  0  0  0  0  0  0  0
   47.2268    6.4694   12.6122 C   0  0  0  0  0  0  0  0  0  0  0  0
   45.4368    5.0459   11.5359 C   0  0  0  0  0  0  0  0  0  0  0  0
   46.3528    5.3807   12.6613 C   0  0  0  0  0  0  0  0  0  0  0  0
   49.5953    8.4530   14.6341 N   0  0  0  0  0  0  0  0  0  0  0  0
   45.8413    5.4334   10.2770 N   0  0  0  0  0  0  0  0  0  0  0  0
   48.0526    5.9415   14.8445 C   0  0  0  0  0  0  0  0  0  0  0  0
   49.1356    8.4285   12.3979 O   0  0  0  0  0  0  0  0  0  0  0  0
   44.4008    4.4290   11.7575 O   0  0  0  0  0  0  0  0  0  0  0  0
   53.8052    7.8435   13.4101 N   0  0  0  0  0  0  0  0  0  0  0  0
   47.0124    2.8870    6.6737 N   0  0  0  0  0  0  0  0  0  0  0  0
   46.3075    4.5937   13.8141 C   0  0  0  0  0  0  0  0  0  0  0  0
   47.1501    4.8701   14.8953 C   0  0  0  0  0  0  0  0  0  0  0  0
   51.9786    8.9042   14.6014 C   0  0  0  0  0  0  0  0  0  0  0  0
   45.6553    3.8515    8.4368 C   0  0  0  0  0  0  0  0  0  0  0  0
   45.0875    5.0741    9.0956 C   0  0  0  0  0  0  0  0  0  0  0  0
   50.5976    9.4886   14.5606 C   0  0  0  0  0  0  0  0  0  0  0  0
   48.9039    6.2495   15.8762 O   0  0  0  0  0  0  0  0  0  0  0  0
   46.4600    3.9472    7.3062 C   0  0  0  0  0  0  0  0  0  0  0  0
   52.5711    8.3977   13.4483 C   0  0  0  0  0  0  0  0  0  0  0  0
   54.4798    7.7834   14.5770 C   0  0  0  0  0  0  0  0  0  0  0  0
   46.7533    1.6683    7.1943 C   0  0  0  0  0  0  0  0  0  0  0  0
   52.7054    8.8126   15.7917 C   0  0  0  0  0  0  0  0  0  0  0  0
   45.4158    2.5718    8.9463 C   0  0  0  0  0  0  0  0  0  0  0  0
   49.1483    5.2350   16.8465 C   0  0  0  0  0  0  0  0  0  0  0  0
   53.9773    8.2473   15.7814 C   0  0  0  0  0  0  0  0  0  0  0  0
   45.9701    1.4615    8.3171 C   0  0  0  0  0  0  0  0  0  0  0  0
   47.2380    7.1241   11.7435 H   0  0  0  0  0  0  0  0  0  0  0  0
   49.5203    7.9199   15.4940 H   0  0  0  0  0  0  0  0  0  0  0  0
   46.7929    5.7441   10.1355 H   0  0  0  0  0  0  0  0  0  0  0  0
   45.6129    3.7569   13.8752 H   0  0  0  0  0  0  0  0  0  0  0  0
   47.0676    4.2302   15.7688 H   0  0  0  0  0  0  0  0  0  0  0  0
   44.0326    4.9122    9.3445 H   0  0  0  0  0  0  0  0  0  0  0  0
   45.1302    5.9323    8.4158 H   0  0  0  0  0  0  0  0  0  0  0  0
   50.4661   10.0936   13.6565 H   0  0  0  0  0  0  0  0  0  0  0  0
   50.4399   10.1524   15.4179 H   0  0  0  0  0  0  0  0  0  0  0  0
   46.6952    4.9093    6.8583 H   0  0  0  0  0  0  0  0  0  0  0  0
   52.0500    8.4211   12.4930 H   0  0  0  0  0  0  0  0  0  0  0  0
   55.4677    7.3359   14.5171 H   0  0  0  0  0  0  0  0  0  0  0  0
   47.2079    0.8340    6.6680 H   0  0  0  0  0  0  0  0  0  0  0  0
   52.2888    9.1810   16.7254 H   0  0  0  0  0  0  0  0  0  0  0  0
   44.7991    2.4409    9.8335 H   0  0  0  0  0  0  0  0  0  0  0  0
   49.9783    5.5709   17.4755 H   0  0  0  0  0  0  0  0  0  0  0  0
   48.2757    5.0983   17.4929 H   0  0  0  0  0  0  0  0  0  0  0  0
   49.4470    4.2924   16.3756 H   0  0  0  0  0  0  0  0  0  0  0  0
   54.5638    8.1703   16.6898 H   0  0  0  0  0  0  0  0  0  0  0  0
   45.7956    0.4605    8.6948 H   0  0  0  0  0  0  0  0  0  0  0  0
  2  1  1  0
  3  1  2  0
  4  5  1  0
  5  3  1  0
  6  2  1  0
  7  4  1  0
  8  1  1  0
  9  2  2  0
 10  4  2  0
 11 21  2  0
 12 20  2  0
 13 14  1  0
 14  8  2  0
 15 18  1  0
 16 17  1  0
 17  7  1  0
 18  6  1  0
 19  8  1  0
 20 16  1  0
 21 15  1  0
 22 27  2  0
 23 28  2  0
 24 15  2  0
 25 16  2  0
 26 19  1  0
 27 24  1  0
 28 25  1  0
  5 13  2  0
 11 22  1  0
 12 23  1  0
  3 29  1  0
  6 30  1  0
  7 31  1  0
 13 32  1  0
 14 33  1  0
 17 34  1  0
 17 35  1  0
 18 36  1  0
 18 37  1  0
 20 38  1  0
 21 39  1  0
 22 40  1  0
 23 41  1  0
 24 42  1  0
 25 43  1  0
 26 44  1  0
 26 45  1  0
 26 46  1  0
 27 47  1  0
 28 48  1  0
M  END
> <Uni-Dock RESULT> 
ENERGY=   -4.796  LOWER_BOUND=    1.222  UPPER_BOUND=    1.475
INTER + INTRA:          -4.796
INTER:                  -4.796
INTRA:                   0.000
UNBOUND:                 0.000

$$$$

     RDKit          3D

 48 50  0  0  0  0  0  0  0  0999 V2000
   48.7936    9.5375   15.6498 C   0  0  0  0  0  0  0  0  0  0  0  0
   48.9390    9.4172   17.1370 C   0  0  0  0  0  0  0  0  0  0  0  0
   48.4015    8.3634   14.9765 C   0  0  0  0  0  0  0  0  0  0  0  0
   47.8114    7.1361   12.8470 C   0  0  0  0  0  0  0  0  0  0  0  0
   48.2216    8.3591   13.5911 C   0  0  0  0  0  0  0  0  0  0  0  0
   49.6041   10.4226   17.7954 N   0  0  0  0  0  0  0  0  0  0  0  0
   47.0773    6.2055   13.5496 N   0  0  0  0  0  0  0  0  0  0  0  0
   49.0033   10.7252   14.9180 C   0  0  0  0  0  0  0  0  0  0  0  0
   48.4757    8.4394   17.7180 O   0  0  0  0  0  0  0  0  0  0  0  0
   48.1057    7.0168   11.6629 O   0  0  0  0  0  0  0  0  0  0  0  0
   46.3212   11.7757   20.4380 N   0  0  0  0  0  0  0  0  0  0  0  0
   42.7501    4.8669   12.9813 N   0  0  0  0  0  0  0  0  0  0  0  0
   48.4636    9.5292   12.8681 C   0  0  0  0  0  0  0  0  0  0  0  0
   48.8496   10.7019   13.5249 C   0  0  0  0  0  0  0  0  0  0  0  0
   48.6278   11.4219   19.7784 C   0  0  0  0  0  0  0  0  0  0  0  0
   45.1013    5.2326   12.5141 C   0  0  0  0  0  0  0  0  0  0  0  0
   46.5346    5.0280   12.9077 C   0  0  0  0  0  0  0  0  0  0  0  0
   49.6709   10.4907   19.2352 C   0  0  0  0  0  0  0  0  0  0  0  0
   49.3740   11.8518   15.6089 O   0  0  0  0  0  0  0  0  0  0  0  0
   44.0610    4.7078   13.2738 C   0  0  0  0  0  0  0  0  0  0  0  0
   47.3178   10.9909   19.9665 C   0  0  0  0  0  0  0  0  0  0  0  0
   46.6413   13.0536   20.7295 C   0  0  0  0  0  0  0  0  0  0  0  0
   42.4586    5.5876   11.8773 C   0  0  0  0  0  0  0  0  0  0  0  0
   48.9160   12.7557   20.0813 C   0  0  0  0  0  0  0  0  0  0  0  0
   44.7560    5.9764   11.3817 C   0  0  0  0  0  0  0  0  0  0  0  0
   49.2181   13.1044   14.9478 C   0  0  0  0  0  0  0  0  0  0  0  0
   47.9099   13.5854   20.5679 C   0  0  0  0  0  0  0  0  0  0  0  0
   43.4157    6.1570   11.0547 C   0  0  0  0  0  0  0  0  0  0  0  0
   48.2683    7.4480   15.5489 H   0  0  0  0  0  0  0  0  0  0  0  0
   49.8388   11.2554   17.2655 H   0  0  0  0  0  0  0  0  0  0  0  0
   46.6890    6.4562   14.4489 H   0  0  0  0  0  0  0  0  0  0  0  0
   48.3512    9.5330   11.7847 H   0  0  0  0  0  0  0  0  0  0  0  0
   49.0314   11.5801   12.9127 H   0  0  0  0  0  0  0  0  0  0  0  0
   47.1314    4.7568   12.0295 H   0  0  0  0  0  0  0  0  0  0  0  0
   46.6228    4.2038   13.6243 H   0  0  0  0  0  0  0  0  0  0  0  0
   49.5599    9.4942   19.6773 H   0  0  0  0  0  0  0  0  0  0  0  0
   50.6732   10.8486   19.4957 H   0  0  0  0  0  0  0  0  0  0  0  0
   44.2529    4.1249   14.1710 H   0  0  0  0  0  0  0  0  0  0  0  0
   47.0239    9.9697   19.7314 H   0  0  0  0  0  0  0  0  0  0  0  0
   45.8235   13.6601   21.1075 H   0  0  0  0  0  0  0  0  0  0  0  0
   41.3995    5.7002   11.6643 H   0  0  0  0  0  0  0  0  0  0  0  0
   49.9188   13.1512   19.9434 H   0  0  0  0  0  0  0  0  0  0  0  0
   45.5309    6.4156   10.7563 H   0  0  0  0  0  0  0  0  0  0  0  0
   49.3735   13.8929   15.6906 H   0  0  0  0  0  0  0  0  0  0  0  0
   49.9761   13.2285   14.1681 H   0  0  0  0  0  0  0  0  0  0  0  0
   48.2072   13.2220   14.5432 H   0  0  0  0  0  0  0  0  0  0  0  0
   48.1092   14.6216   20.8161 H   0  0  0  0  0  0  0  0  0  0  0  0
   43.1264    6.7288   10.1805 H   0  0  0  0  0  0  0  0  0  0  0  0
  2  1  1  0
  3  1  2  0
  4  5  1  0
  5  3  1  0
  6  2  1  0
  7  4  1  0
  8  1  1  0
  9  2  2  0
 10  4  2  0
 11 21  2  0
 12 20  2  0
 13 14  1  0
 14  8  2  0
 15 18  1  0
 16 17  1  0
 17  7  1  0
 18  6  1  0
 19  8  1  0
 20 16  1  0
 21 15  1  0
 22 27  2  0
 23 28  2  0
 24 15  2  0
 25 16  2  0
 26 19  1  0
 27 24  1  0
 28 25  1  0
  5 13  2  0
 11 22  1  0
 12 23  1  0
  3 29  1  0
  6 30  1  0
  7 31  1  0
 13 32  1  0
 14 33  1  0
 17 34  1  0
 17 35  1  0
 18 36  1  0
 18 37  1  0
 20 38  1  0
 21 39  1  0
 22 40  1  0
 23 41  1  0
 24 42  1  0
 25 43  1  0
 26 44  1  0
 26 45  1  0
 26 46  1  0
 27 47  1  0
 28 48  1  0
M  END
> <Uni-Dock RESULT> 
ENERGY=   -4.206  LOWER_BOUND=    3.841  UPPER_BOUND=    6.317
INTER + INTRA:          -4.206
INTER:                  -4.206
INTRA:                   0.000
UNBOUND:                 0.000

$$$$

     RDKit          3D

 48 50  0  0  0  0  0  0  0  0999 V2000
   48.2293    8.2242   12.2899 C   0  0  0  0  0  0  0  0  0  0  0  0
   47.8686    6.8579   12.7903 C   0  0  0  0  0  0  0  0  0  0  0  0
   49.5667    8.3919   11.8791 C   0  0  0  0  0  0  0  0  0  0  0  0
   51.4210    9.8320   10.9426 C   0  0  0  0  0  0  0  0  0  0  0  0
   50.0143    9.6185   11.3823 C   0  0  0  0  0  0  0  0  0  0  0  0
   46.6882    6.7231   13.4796 N   0  0  0  0  0  0  0  0  0  0  0  0
   52.1017    8.7203   10.4963 N   0  0  0  0  0  0  0  0  0  0  0  0
   47.3288    9.3061   12.1950 C   0  0  0  0  0  0  0  0  0  0  0  0
   48.6250    5.9129   12.5824 O   0  0  0  0  0  0  0  0  0  0  0  0
   51.9005   10.9601   10.9635 O   0  0  0  0  0  0  0  0  0  0  0  0
   44.6615    3.8611   10.7788 N   0  0  0  0  0  0  0  0  0  0  0  0
   53.6731    7.7386    6.3242 N   0  0  0  0  0  0  0  0  0  0  0  0
   49.1268   10.6952   11.3227 C   0  0  0  0  0  0  0  0  0  0  0  0
   47.7962   10.5407   11.7239 C   0  0  0  0  0  0  0  0  0  0  0  0
   45.1406    4.9499   12.8920 C   0  0  0  0  0  0  0  0  0  0  0  0
   53.4078    8.8773    8.4486 C   0  0  0  0  0  0  0  0  0  0  0  0
   53.4367    8.8196    9.9476 C   0  0  0  0  0  0  0  0  0  0  0  0
   46.1660    5.4367   13.8729 C   0  0  0  0  0  0  0  0  0  0  0  0
   46.0315    9.1025   12.5944 O   0  0  0  0  0  0  0  0  0  0  0  0
   53.6943    7.7564    7.6764 C   0  0  0  0  0  0  0  0  0  0  0  0
   45.5267    4.3139   11.7158 C   0  0  0  0  0  0  0  0  0  0  0  0
   43.3485    4.0572   11.0200 C   0  0  0  0  0  0  0  0  0  0  0  0
   53.3473    8.8951    5.7079 C   0  0  0  0  0  0  0  0  0  0  0  0
   43.7719    5.1442   13.0990 C   0  0  0  0  0  0  0  0  0  0  0  0
   53.0707   10.0530    7.7713 C   0  0  0  0  0  0  0  0  0  0  0  0
   45.0574   10.0456   12.1559 C   0  0  0  0  0  0  0  0  0  0  0  0
   42.8596    4.6885   12.1517 C   0  0  0  0  0  0  0  0  0  0  0  0
   53.0407   10.0659    6.3803 C   0  0  0  0  0  0  0  0  0  0  0  0
   50.2573    7.5576   11.9815 H   0  0  0  0  0  0  0  0  0  0  0  0
   46.0595    7.5194   13.4938 H   0  0  0  0  0  0  0  0  0  0  0  0
   51.5904    7.8695   10.3042 H   0  0  0  0  0  0  0  0  0  0  0  0
   49.4693   11.6638   10.9608 H   0  0  0  0  0  0  0  0  0  0  0  0
   47.1521   11.4129   11.6630 H   0  0  0  0  0  0  0  0  0  0  0  0
   53.9550    9.6982   10.3485 H   0  0  0  0  0  0  0  0  0  0  0  0
   53.9889    7.9366   10.2881 H   0  0  0  0  0  0  0  0  0  0  0  0
   46.9741    4.7036   13.9749 H   0  0  0  0  0  0  0  0  0  0  0  0
   45.7159    5.5599   14.8641 H   0  0  0  0  0  0  0  0  0  0  0  0
   53.9576    6.8059    8.1335 H   0  0  0  0  0  0  0  0  0  0  0  0
   46.5777    4.1495   11.4858 H   0  0  0  0  0  0  0  0  0  0  0  0
   42.6769    3.6826   10.2530 H   0  0  0  0  0  0  0  0  0  0  0  0
   53.3379    8.8545    4.6226 H   0  0  0  0  0  0  0  0  0  0  0  0
   43.4122    5.6451   13.9939 H   0  0  0  0  0  0  0  0  0  0  0  0
   52.8302   10.9571    8.3275 H   0  0  0  0  0  0  0  0  0  0  0  0
   44.0704    9.6382   12.3952 H   0  0  0  0  0  0  0  0  0  0  0  0
   45.1651   10.9929   12.6933 H   0  0  0  0  0  0  0  0  0  0  0  0
   45.1025   10.1950   11.0719 H   0  0  0  0  0  0  0  0  0  0  0  0
   41.7929    4.8212   12.2916 H   0  0  0  0  0  0  0  0  0  0  0  0
   52.7834   10.9671    5.8357 H   0  0  0  0  0  0  0  0  0  0  0  0
  2  1  1  0
  3  1  2  0
  4  5  1  0
  5  3  1  0
  6  2  1  0
  7  4  1  0
  8  1  1  0
  9  2  2  0
 10  4  2  0
 11 21  2  0
 12 20  2  0
 13 14  1  0
 14  8  2  0
 15 18  1  0
 16 17  1  0
 17  7  1  0
 18  6  1  0
 19  8  1  0
 20 16  1  0
 21 15  1  0
 22 27  2  0
 23 28  2  0
 24 15  2  0
 25 16  2  0
 26 19  1  0
 27 24  1  0
 28 25  1  0
  5 13  2  0
 11 22  1  0
 12 23  1  0
  3 29  1  0
  6 30  1  0
  7 31  1  0
 13 32  1  0
 14 33  1  0
 17 34  1  0
 17 35  1  0
 18 36  1  0
 18 37  1  0
 20 38  1  0
 21 39  1  0
 22 40  1  0
 23 41  1  0
 24 42  1  0
 25 43  1  0
 26 44  1  0
 26 45  1  0
 26 46  1  0
 27 47  1  0
 28 48  1  0
M  END
> <Uni-Dock RESULT> 
ENERGY=   -4.016  LOWER_BOUND=    3.941  UPPER_BOUND=    7.864
INTER + INTRA:          -4.016
INTER:                  -4.016
INTRA:                   0.000
UNBOUND:                 0.000

$$$$

     RDKit          3D

 48 50  0  0  0  0  0  0  0  0999 V2000
   48.7753    9.9509   17.7191 C   0  0  0  0  0  0  0  0  0  0  0  0
   49.4286    8.7759   17.0558 C   0  0  0  0  0  0  0  0  0  0  0  0
   48.7192   11.1324   16.9534 C   0  0  0  0  0  0  0  0  0  0  0  0
   48.0480   13.5544   16.6833 C   0  0  0  0  0  0  0  0  0  0  0  0
   48.1218   12.2878   17.4631 C   0  0  0  0  0  0  0  0  0  0  0  0
   49.7824    7.7120   17.8494 N   0  0  0  0  0  0  0  0  0  0  0  0
   48.0430   13.4326   15.3108 N   0  0  0  0  0  0  0  0  0  0  0  0
   48.2180    9.9315   19.0150 C   0  0  0  0  0  0  0  0  0  0  0  0
   49.6339    8.7953   15.8451 O   0  0  0  0  0  0  0  0  0  0  0  0
   47.9661   14.6271   17.2711 O   0  0  0  0  0  0  0  0  0  0  0  0
   47.2809    4.5970   15.9437 N   0  0  0  0  0  0  0  0  0  0  0  0
   44.7520   14.4178   12.3044 N   0  0  0  0  0  0  0  0  0  0  0  0
   47.6023   12.2722   18.7594 C   0  0  0  0  0  0  0  0  0  0  0  0
   47.6485   11.1050   19.5281 C   0  0  0  0  0  0  0  0  0  0  0  0
   49.1734    5.4578   17.1918 C   0  0  0  0  0  0  0  0  0  0  0  0
   46.4420   14.7295   14.0152 C   0  0  0  0  0  0  0  0  0  0  0  0
   47.8707   14.5821   14.4493 C   0  0  0  0  0  0  0  0  0  0  0  0
   50.2746    6.4706   17.3025 C   0  0  0  0  0  0  0  0  0  0  0  0
   48.2817    8.7599   19.7271 O   0  0  0  0  0  0  0  0  0  0  0  0
   46.0251   14.3245   12.7515 C   0  0  0  0  0  0  0  0  0  0  0  0
   48.3041    5.4680   16.1049 C   0  0  0  0  0  0  0  0  0  0  0  0
   47.1093    3.6759   16.9146 C   0  0  0  0  0  0  0  0  0  0  0  0
   43.8460   14.9386   13.1594 C   0  0  0  0  0  0  0  0  0  0  0  0
   48.9550    4.4953   18.1815 C   0  0  0  0  0  0  0  0  0  0  0  0
   45.4715   15.2589   14.8711 C   0  0  0  0  0  0  0  0  0  0  0  0
   47.4100    8.6276   20.8466 C   0  0  0  0  0  0  0  0  0  0  0  0
   47.9097    3.5869   18.0413 C   0  0  0  0  0  0  0  0  0  0  0  0
   44.1534   15.3680   14.4393 C   0  0  0  0  0  0  0  0  0  0  0  0
   49.1754   11.1418   15.9659 H   0  0  0  0  0  0  0  0  0  0  0  0
   49.4606    7.7168   18.8115 H   0  0  0  0  0  0  0  0  0  0  0  0
   47.8981   12.5229   14.8940 H   0  0  0  0  0  0  0  0  0  0  0  0
   47.1561   13.1733   19.1781 H   0  0  0  0  0  0  0  0  0  0  0  0
   47.2362   11.1517   20.5316 H   0  0  0  0  0  0  0  0  0  0  0  0
   48.2078   15.4958   14.9520 H   0  0  0  0  0  0  0  0  0  0  0  0
   48.5229   14.4322   13.5818 H   0  0  0  0  0  0  0  0  0  0  0  0
   50.7416    6.6344   16.3249 H   0  0  0  0  0  0  0  0  0  0  0  0
   51.0582    6.1084   17.9771 H   0  0  0  0  0  0  0  0  0  0  0  0
   46.7221   13.8974   12.0349 H   0  0  0  0  0  0  0  0  0  0  0  0
   48.4083    6.2040   15.3100 H   0  0  0  0  0  0  0  0  0  0  0  0
   46.2825    2.9889   16.7588 H   0  0  0  0  0  0  0  0  0  0  0  0
   42.8317   15.0031   12.7763 H   0  0  0  0  0  0  0  0  0  0  0  0
   49.5949    4.4469   19.0586 H   0  0  0  0  0  0  0  0  0  0  0  0
   45.7426   15.5843   15.8737 H   0  0  0  0  0  0  0  0  0  0  0  0
   47.4498    7.5850   21.1763 H   0  0  0  0  0  0  0  0  0  0  0  0
   47.7494    9.2524   21.6786 H   0  0  0  0  0  0  0  0  0  0  0  0
   46.3727    8.8525   20.5766 H   0  0  0  0  0  0  0  0  0  0  0  0
   47.7232    2.8270   18.7915 H   0  0  0  0  0  0  0  0  0  0  0  0
   43.3858   15.7769   15.0864 H   0  0  0  0  0  0  0  0  0  0  0  0
  2  1  1  0
  3  1  2  0
  4  5  1  0
  5  3  1  0
  6  2  1  0
  7  4  1  0
  8  1  1  0
  9  2  2  0
 10  4  2  0
 11 21  2  0
 12 20  2  0
 13 14  1  0
 14  8  2  0
 15 18  1  0
 16 17  1  0
 17  7  1  0
 18  6  1  0
 19  8  1  0
 20 16  1  0
 21 15  1  0
 22 27  2  0
 23 28  2  0
 24 15  2  0
 25 16  2  0
 26 19  1  0
 27 24  1  0
 28 25  1  0
  5 13  2  0
 11 22  1  0
 12 23  1  0
  3 29  1  0
  6 30  1  0
  7 31  1  0
 13 32  1  0
 14 33  1  0
 17 34  1  0
 17 35  1  0
 18 36  1  0
 18 37  1  0
 20 38  1  0
 21 39  1  0
 22 40  1  0
 23 41  1  0
 24 42  1  0
 25 43  1  0
 26 44  1  0
 26 45  1  0
 26 46  1  0
 27 47  1  0
 28 48  1  0
M  END
> <Uni-Dock RESULT> 
ENERGY=   -4.005  LOWER_BOUND=    6.006  UPPER_BOUND=    9.635
INTER + INTRA:          -4.005
INTER:                  -4.005
INTRA:                   0.000
UNBOUND:                 0.000

$$$$

     RDKit          3D

 48 50  0  0  0  0  0  0  0  0999 V2000
   48.2644    8.4330   17.7859 C   0  0  0  0  0  0  0  0  0  0  0  0
   48.1972    7.1720   18.5937 C   0  0  0  0  0  0  0  0  0  0  0  0
   47.9278    9.6172   18.4713 C   0  0  0  0  0  0  0  0  0  0  0  0
   47.6145   12.1251   18.5163 C   0  0  0  0  0  0  0  0  0  0  0  0
   47.9670   10.8546   17.8239 C   0  0  0  0  0  0  0  0  0  0  0  0
   48.2127    5.9785   17.9139 N   0  0  0  0  0  0  0  0  0  0  0  0
   47.8058   12.1560   19.8805 N   0  0  0  0  0  0  0  0  0  0  0  0
   48.6502    8.4963   16.4304 C   0  0  0  0  0  0  0  0  0  0  0  0
   48.1243    7.2351   19.8181 O   0  0  0  0  0  0  0  0  0  0  0  0
   47.2076   13.0805   17.8648 O   0  0  0  0  0  0  0  0  0  0  0  0
   51.9173    4.2766   19.6379 N   0  0  0  0  0  0  0  0  0  0  0  0
   50.7282   14.6325   22.3636 N   0  0  0  0  0  0  0  0  0  0  0  0
   48.3169   10.9069   16.4729 C   0  0  0  0  0  0  0  0  0  0  0  0
   48.6567    9.7393   15.7824 C   0  0  0  0  0  0  0  0  0  0  0  0
   49.7232    4.2115   18.6073 C   0  0  0  0  0  0  0  0  0  0  0  0
   48.8886   14.0939   20.8783 C   0  0  0  0  0  0  0  0  0  0  0  0
   47.5975   13.3653   20.6469 C   0  0  0  0  0  0  0  0  0  0  0  0
   48.3071    4.7064   18.5887 C   0  0  0  0  0  0  0  0  0  0  0  0
   48.9815    7.3238   15.7985 O   0  0  0  0  0  0  0  0  0  0  0  0
   49.5567   14.0120   22.0956 C   0  0  0  0  0  0  0  0  0  0  0  0
   50.6232    4.6662   19.5667 C   0  0  0  0  0  0  0  0  0  0  0  0
   52.3387    3.3978   18.7048 C   0  0  0  0  0  0  0  0  0  0  0  0
   51.2646   15.3707   21.3683 C   0  0  0  0  0  0  0  0  0  0  0  0
   50.2018    3.3107   17.6517 C   0  0  0  0  0  0  0  0  0  0  0  0
   49.4804   14.8646   19.8731 C   0  0  0  0  0  0  0  0  0  0  0  0
   49.7170    7.4225   14.5820 C   0  0  0  0  0  0  0  0  0  0  0  0
   51.5286    2.8931   17.7013 C   0  0  0  0  0  0  0  0  0  0  0  0
   50.6854   15.5153   20.1190 C   0  0  0  0  0  0  0  0  0  0  0  0
   47.6070    9.5518   19.5087 H   0  0  0  0  0  0  0  0  0  0  0  0
   48.4077    6.0078   16.9187 H   0  0  0  0  0  0  0  0  0  0  0  0
   48.3384   11.4197   20.3236 H   0  0  0  0  0  0  0  0  0  0  0  0
   48.3274   11.8621   15.9497 H   0  0  0  0  0  0  0  0  0  0  0  0
   48.9136    9.8375   14.7319 H   0  0  0  0  0  0  0  0  0  0  0  0
   46.8790   14.0226   20.1442 H   0  0  0  0  0  0  0  0  0  0  0  0
   47.1483   13.0662   21.6004 H   0  0  0  0  0  0  0  0  0  0  0  0
   47.9147    4.7776   19.6094 H   0  0  0  0  0  0  0  0  0  0  0  0
   47.6656    4.0039   18.0453 H   0  0  0  0  0  0  0  0  0  0  0  0
   49.1605   13.4259   22.9209 H   0  0  0  0  0  0  0  0  0  0  0  0
   50.3185    5.3831   20.3268 H   0  0  0  0  0  0  0  0  0  0  0  0
   53.3803    3.1010   18.7867 H   0  0  0  0  0  0  0  0  0  0  0  0
   52.2046   15.8588   21.6088 H   0  0  0  0  0  0  0  0  0  0  0  0
   49.5476    2.9305   16.8716 H   0  0  0  0  0  0  0  0  0  0  0  0
   49.0033   14.9562   18.8992 H   0  0  0  0  0  0  0  0  0  0  0  0
   50.0578    6.4167   14.3182 H   0  0  0  0  0  0  0  0  0  0  0  0
   49.0767    7.7801   13.7695 H   0  0  0  0  0  0  0  0  0  0  0  0
   50.6034    8.0550   14.6987 H   0  0  0  0  0  0  0  0  0  0  0  0
   51.9225    2.1905   16.9757 H   0  0  0  0  0  0  0  0  0  0  0  0
   51.1602   16.1190   19.3541 H   0  0  0  0  0  0  0  0  0  0  0  0
  2  1  1  0
  3  1  2  0
  4  5  1  0
  5  3  1  0
  6  2  1  0
  7  4  1  0
  8  1  1  0
  9  2  2  0
 10  4  2  0
 11 21  2  0
 12 20  2  0
 13 14  1  0
 14  8  2  0
 15 18  1  0
 16 17  1  0
 17  7  1  0
 18  6  1  0
 19  8  1  0
 20 16  1  0
 21 15  1  0
 22 27  2  0
 23 28  2  0
 24 15  2  0
 25 16  2  0
 26 19  1  0
 27 24  1  0
 28 25  1  0
  5 13  2  0
 11 22  1  0
 12 23  1  0
  3 29  1  0
  6 30  1  0
  7 31  1  0
 13 32  1  0
 14 33  1  0
 17 34  1  0
 17 35  1  0
 18 36  1  0
 18 37  1  0
 20 38  1  0
 21 39  1  0
 22 40  1  0
 23 41  1  0
 24 42  1  0
 25 43  1  0
 26 44  1  0
 26 45  1  0
 26 46  1  0
 27 47  1  0
 28 48  1  0
M  END
> <Uni-Dock RESULT> 
ENERGY=   -3.949  LOWER_BOUND=    6.277  UPPER_BOUND=   11.362
INTER + INTRA:          -3.949
INTER:                  -3.949
INTRA:                   0.000
UNBOUND:                 0.000

$$$$

     RDKit          3D

 48 50  0  0  0  0  0  0  0  0999 V2000
   46.3482    9.8265   12.2226 C   0  0  0  0  0  0  0  0  0  0  0  0
   46.7846   11.2538   12.0824 C   0  0  0  0  0  0  0  0  0  0  0  0
   47.2130    8.9918   12.9580 C   0  0  0  0  0  0  0  0  0  0  0  0
   47.7956    6.7341   13.9342 C   0  0  0  0  0  0  0  0  0  0  0  0
   46.9033    7.6454   13.1653 C   0  0  0  0  0  0  0  0  0  0  0  0
   46.1529   12.0229   11.1358 N   0  0  0  0  0  0  0  0  0  0  0  0
   48.5955    7.3192   14.8913 N   0  0  0  0  0  0  0  0  0  0  0  0
   45.1523    9.2987   11.6920 C   0  0  0  0  0  0  0  0  0  0  0  0
   47.6827   11.6901   12.7975 O   0  0  0  0  0  0  0  0  0  0  0  0
   47.7664    5.5279   13.7169 O   0  0  0  0  0  0  0  0  0  0  0  0
   44.4517   15.1110   13.8119 N   0  0  0  0  0  0  0  0  0  0  0  0
   48.5196    6.8686   19.4334 N   0  0  0  0  0  0  0  0  0  0  0  0
   45.7348    7.1207   12.6087 C   0  0  0  0  0  0  0  0  0  0  0  0
   44.8664    7.9394   11.8800 C   0  0  0  0  0  0  0  0  0  0  0  0
   45.3129   14.2204   11.7273 C   0  0  0  0  0  0  0  0  0  0  0  0
   48.7536    6.2887   17.0905 C   0  0  0  0  0  0  0  0  0  0  0  0
   49.4269    6.5266   15.7709 C   0  0  0  0  0  0  0  0  0  0  0  0
   46.3810   13.4428   11.0166 C   0  0  0  0  0  0  0  0  0  0  0  0
   44.3294   10.1441   10.9905 O   0  0  0  0  0  0  0  0  0  0  0  0
   49.0962    7.0248   18.2200 C   0  0  0  0  0  0  0  0  0  0  0  0
   45.3825   14.4330   13.1010 C   0  0  0  0  0  0  0  0  0  0  0  0
   43.3964   15.5947   13.1242 C   0  0  0  0  0  0  0  0  0  0  0  0
   47.5501    5.9335   19.5279 C   0  0  0  0  0  0  0  0  0  0  0  0
   44.1983   14.7275   11.0534 C   0  0  0  0  0  0  0  0  0  0  0  0
   47.7418    5.3341   17.2303 C   0  0  0  0  0  0  0  0  0  0  0  0
   42.9823    9.7258   10.7885 C   0  0  0  0  0  0  0  0  0  0  0  0
   43.2255   15.4290   11.7598 C   0  0  0  0  0  0  0  0  0  0  0  0
   47.1300    5.1501   18.4664 C   0  0  0  0  0  0  0  0  0  0  0  0
   48.1444    9.4045   13.3396 H   0  0  0  0  0  0  0  0  0  0  0  0
   45.3360   11.6296   10.6804 H   0  0  0  0  0  0  0  0  0  0  0  0
   48.4204    8.2761   15.1668 H   0  0  0  0  0  0  0  0  0  0  0  0
   45.4939    6.0668   12.7417 H   0  0  0  0  0  0  0  0  0  0  0  0
   43.9762    7.4772   11.4639 H   0  0  0  0  0  0  0  0  0  0  0  0
   49.6844    5.5703   15.3016 H   0  0  0  0  0  0  0  0  0  0  0  0
   50.3626    7.0793   15.9106 H   0  0  0  0  0  0  0  0  0  0  0  0
   47.3701   13.7117   11.4040 H   0  0  0  0  0  0  0  0  0  0  0  0
   46.3780   13.6820    9.9474 H   0  0  0  0  0  0  0  0  0  0  0  0
   49.8687    7.7887   18.1853 H   0  0  0  0  0  0  0  0  0  0  0  0
   46.2146   14.0473   13.6870 H   0  0  0  0  0  0  0  0  0  0  0  0
   42.6662   16.1359   13.7188 H   0  0  0  0  0  0  0  0  0  0  0  0
   47.1036    5.8275   20.5123 H   0  0  0  0  0  0  0  0  0  0  0  0
   44.0845   14.5822    9.9824 H   0  0  0  0  0  0  0  0  0  0  0  0
   47.4299    4.7358   16.3763 H   0  0  0  0  0  0  0  0  0  0  0  0
   42.4261   10.5801   10.3907 H   0  0  0  0  0  0  0  0  0  0  0  0
   42.9326    8.9225   10.0468 H   0  0  0  0  0  0  0  0  0  0  0  0
   42.5085    9.4288   11.7302 H   0  0  0  0  0  0  0  0  0  0  0  0
   42.3549   15.8376   11.2595 H   0  0  0  0  0  0  0  0  0  0  0  0
   46.3447    4.4144   18.5968 H   0  0  0  0  0  0  0  0  0  0  0  0
  2  1  1  0
  3  1  2  0
  4  5  1  0
  5  3  1  0
  6  2  1  0
  7  4  1  0
  8  1  1  0
  9  2  2  0
 10  4  2  0
 11 21  2  0
 12 20  2  0
 13 14  1  0
 14  8  2  0
 15 18  1  0
 16 17  1  0
 17  7  1  0
 18  6  1  0
 19  8  1  0
 20 16  1  0
 21 15  1  0
 22 27  2  0
 23 28  2  0
 24 15  2  0
 25 16  2  0
 26 19  1  0
 27 24  1  0
 28 25  1  0
  5 13  2  0
 11 22  1  0
 12 23  1  0
  3 29  1  0
  6 30  1  0
  7 31  1  0
 13 32  1  0
 14 33  1  0
 17 34  1  0
 17 35  1  0
 18 36  1  0
 18 37  1  0
 20 38  1  0
 21 39  1  0
 22 40  1  0
 23 41  1  0
 24 42  1  0
 25 43  1  0
 26 44  1  0
 26 45  1  0
 26 46  1  0
 27 47  1  0
 28 48  1  0
M  END
> <Uni-Dock RESULT> 
ENERGY=   -3.911  LOWER_BOUND=    4.672  UPPER_BOUND=    8.236
INTER + INTRA:          -3.911
INTER:                  -3.911
INTRA:                   0.000
UNBOUND:                 0.000

$$$$
