
     RDKit          3D

 48 50  0  0  0  0  0  0  0  0999 V2000
   47.0151    6.6832   13.2134 C   0  0  0  0  0  0  0  0  0  0  0  0
   47.5066    8.0933   13.1025 C   0  0  0  0  0  0  0  0  0  0  0  0
   46.2989    6.1857   12.1103 C   0  0  0  0  0  0  0  0  0  0  0  0
   45.0543    4.4020   10.9156 C   0  0  0  0  0  0  0  0  0  0  0  0
   45.8141    4.8746   12.1037 C   0  0  0  0  0  0  0  0  0  0  0  0
   47.8518    8.7355   14.2685 N   0  0  0  0  0  0  0  0  0  0  0  0
   45.1674    3.0604   10.6177 N   0  0  0  0  0  0  0  0  0  0  0  0
   47.2530    5.8445   14.3213 C   0  0  0  0  0  0  0  0  0  0  0  0
   47.5831    8.6327   12.0024 O   0  0  0  0  0  0  0  0  0  0  0  0
   44.4021    5.1963   10.2494 O   0  0  0  0  0  0  0  0  0  0  0  0
   52.1373    9.4298   13.5089 N   0  0  0  0  0  0  0  0  0  0  0  0
   47.1310    0.9542    7.0515 N   0  0  0  0  0  0  0  0  0  0  0  0
   46.0226    4.0567   13.2163 C   0  0  0  0  0  0  0  0  0  0  0  0
   46.7360    4.5406   14.3178 C   0  0  0  0  0  0  0  0  0  0  0  0
   49.9627    9.9116   14.4704 C   0  0  0  0  0  0  0  0  0  0  0  0
   45.6446    2.3799    8.3317 C   0  0  0  0  0  0  0  0  0  0  0  0
   44.6015    2.5132    9.4024 C   0  0  0  0  0  0  0  0  0  0  0  0
   48.4803   10.0344   14.2743 C   0  0  0  0  0  0  0  0  0  0  0  0
   47.9562    6.3561   15.3832 O   0  0  0  0  0  0  0  0  0  0  0  0
   46.1768    1.1407    7.9917 C   0  0  0  0  0  0  0  0  0  0  0  0
   50.7944    9.5716   13.4072 C   0  0  0  0  0  0  0  0  0  0  0  0
   52.6775    9.6318   14.7285 C   0  0  0  0  0  0  0  0  0  0  0  0
   47.5769    2.0584    6.4133 C   0  0  0  0  0  0  0  0  0  0  0  0
   50.5599   10.1017   15.7196 C   0  0  0  0  0  0  0  0  0  0  0  0
   46.1356    3.4975    7.6490 C   0  0  0  0  0  0  0  0  0  0  0  0
   48.6554    5.4172   16.1975 C   0  0  0  0  0  0  0  0  0  0  0  0
   51.9392    9.9641   15.8522 C   0  0  0  0  0  0  0  0  0  0  0  0
   47.1154    3.3375    6.6741 C   0  0  0  0  0  0  0  0  0  0  0  0
   46.1171    6.8266   11.2474 H   0  0  0  0  0  0  0  0  0  0  0  0
   47.8886    8.1819   15.1174 H   0  0  0  0  0  0  0  0  0  0  0  0
   45.9024    2.5262   11.0596 H   0  0  0  0  0  0  0  0  0  0  0  0
   45.6099    3.0519   13.2562 H   0  0  0  0  0  0  0  0  0  0  0  0
   46.8567    3.8810   15.1720 H   0  0  0  0  0  0  0  0  0  0  0  0
   44.1861    1.5323    9.6599 H   0  0  0  0  0  0  0  0  0  0  0  0
   43.7713    3.1323    9.0439 H   0  0  0  0  0  0  0  0  0  0  0  0
   48.2646   10.5787   13.3486 H   0  0  0  0  0  0  0  0  0  0  0  0
   48.0327   10.6048   15.0957 H   0  0  0  0  0  0  0  0  0  0  0  0
   45.8451    0.2283    8.4805 H   0  0  0  0  0  0  0  0  0  0  0  0
   50.3897    9.3935   12.4125 H   0  0  0  0  0  0  0  0  0  0  0  0
   53.7554    9.5132   14.7827 H   0  0  0  0  0  0  0  0  0  0  0  0
   48.3408    1.8831    5.6614 H   0  0  0  0  0  0  0  0  0  0  0  0
   49.9593   10.3601   16.5878 H   0  0  0  0  0  0  0  0  0  0  0  0
   45.7564    4.4923    7.8770 H   0  0  0  0  0  0  0  0  0  0  0  0
   49.3674    5.9768   16.8107 H   0  0  0  0  0  0  0  0  0  0  0  0
   47.9642    4.9036   16.8735 H   0  0  0  0  0  0  0  0  0  0  0  0
   49.2246    4.7012   15.5940 H   0  0  0  0  0  0  0  0  0  0  0  0
   52.4279   10.1120   16.8089 H   0  0  0  0  0  0  0  0  0  0  0  0
   47.5090    4.1911    6.1331 H   0  0  0  0  0  0  0  0  0  0  0  0
  2  1  1  0
  3  1  2  0
  4  5  1  0
  5  3  1  0
  6  2  1  0
  7  4  1  0
  8  1  1  0
  9  2  2  0
 10  4  2  0
 11 21  2  0
 12 20  2  0
 13 14  1  0
 14  8  2  0
 15 18  1  0
 16 17  1  0
 17  7  1  0
 18  6  1  0
 19  8  1  0
 20 16  1  0
 21 15  1  0
 22 27  2  0
 23 28  2  0
 24 15  2  0
 25 16  2  0
 26 19  1  0
 27 24  1  0
 28 25  1  0
  5 13  2  0
 11 22  1  0
 12 23  1  0
  3 29  1  0
  6 30  1  0
  7 31  1  0
 13 32  1  0
 14 33  1  0
 17 34  1  0
 17 35  1  0
 18 36  1  0
 18 37  1  0
 20 38  1  0
 21 39  1  0
 22 40  1  0
 23 41  1  0
 24 42  1  0
 25 43  1  0
 26 44  1  0
 26 45  1  0
 26 46  1  0
 27 47  1  0
 28 48  1  0
M  END
> <Uni-Dock RESULT> 
ENERGY=   -6.085  LOWER_BOUND=    0.000  UPPER_BOUND=    0.000
INTER + INTRA:          -6.085
INTER:                  -6.085
INTRA:                   0.000
UNBOUND:                 0.000

$$$$

     RDKit          3D

 48 50  0  0  0  0  0  0  0  0999 V2000
   47.4875    7.7390   13.0124 C   0  0  0  0  0  0  0  0  0  0  0  0
   47.9912    9.1112   12.6874 C   0  0  0  0  0  0  0  0  0  0  0  0
   46.6152    7.1585   12.0746 C   0  0  0  0  0  0  0  0  0  0  0  0
   45.1777    5.3098   11.2540 C   0  0  0  0  0  0  0  0  0  0  0  0
   46.1041    5.8725   12.2724 C   0  0  0  0  0  0  0  0  0  0  0  0
   48.5081    9.8557   13.7217 N   0  0  0  0  0  0  0  0  0  0  0  0
   45.2179    3.9415   11.0878 N   0  0  0  0  0  0  0  0  0  0  0  0
   47.8560    7.0094   14.1611 C   0  0  0  0  0  0  0  0  0  0  0  0
   47.9282    9.5322   11.5360 O   0  0  0  0  0  0  0  0  0  0  0  0
   44.4584    6.0556   10.6009 O   0  0  0  0  0  0  0  0  0  0  0  0
   52.6633   10.3089   12.3241 N   0  0  0  0  0  0  0  0  0  0  0  0
   46.6239    1.4107    7.5341 N   0  0  0  0  0  0  0  0  0  0  0  0
   46.4447    5.1653   13.4274 C   0  0  0  0  0  0  0  0  0  0  0  0
   47.3137    5.7322   14.3655 C   0  0  0  0  0  0  0  0  0  0  0  0
   50.6531   10.9669   13.5123 C   0  0  0  0  0  0  0  0  0  0  0  0
   45.3606    3.0139    8.8437 C   0  0  0  0  0  0  0  0  0  0  0  0
   44.4779    3.2945   10.0245 C   0  0  0  0  0  0  0  0  0  0  0  0
   49.1610   11.1241   13.5051 C   0  0  0  0  0  0  0  0  0  0  0  0
   48.7101    7.6002   15.0586 O   0  0  0  0  0  0  0  0  0  0  0  0
   45.8125    1.7276    8.5688 C   0  0  0  0  0  0  0  0  0  0  0  0
   51.3228   10.4895   12.3892 C   0  0  0  0  0  0  0  0  0  0  0  0
   53.3705   10.6141   13.4318 C   0  0  0  0  0  0  0  0  0  0  0  0
   47.0030    2.4267    6.7283 C   0  0  0  0  0  0  0  0  0  0  0  0
   51.4206   11.2611   14.6427 C   0  0  0  0  0  0  0  0  0  0  0  0
   45.7786    4.0370    7.9865 C   0  0  0  0  0  0  0  0  0  0  0  0
   49.4928    6.7240   15.8666 C   0  0  0  0  0  0  0  0  0  0  0  0
   52.8014   11.0866   14.6028 C   0  0  0  0  0  0  0  0  0  0  0  0
   46.6112    3.7420    6.9114 C   0  0  0  0  0  0  0  0  0  0  0  0
   46.3313    7.7143   11.1808 H   0  0  0  0  0  0  0  0  0  0  0  0
   48.6485    9.3906   14.6119 H   0  0  0  0  0  0  0  0  0  0  0  0
   45.9941    3.4282   11.4811 H   0  0  0  0  0  0  0  0  0  0  0  0
   46.0185    4.1858   13.6287 H   0  0  0  0  0  0  0  0  0  0  0  0
   47.5355    5.1591   15.2609 H   0  0  0  0  0  0  0  0  0  0  0  0
   44.0795    2.3612   10.4381 H   0  0  0  0  0  0  0  0  0  0  0  0
   43.6208    3.9043    9.7170 H   0  0  0  0  0  0  0  0  0  0  0  0
   48.8327   11.5788   12.5642 H   0  0  0  0  0  0  0  0  0  0  0  0
   48.8438   11.7916   14.3139 H   0  0  0  0  0  0  0  0  0  0  0  0
   45.5302    0.8828    9.1918 H   0  0  0  0  0  0  0  0  0  0  0  0
   50.7812   10.2260   11.4825 H   0  0  0  0  0  0  0  0  0  0  0  0
   54.4426   10.4617   13.3530 H   0  0  0  0  0  0  0  0  0  0  0  0
   47.6521    2.1473    5.9035 H   0  0  0  0  0  0  0  0  0  0  0  0
   50.9510   11.6290   15.5513 H   0  0  0  0  0  0  0  0  0  0  0  0
   45.4573    5.0633    8.1564 H   0  0  0  0  0  0  0  0  0  0  0  0
   50.2950    7.3164   16.3157 H   0  0  0  0  0  0  0  0  0  0  0  0
   48.8895    6.3081   16.6800 H   0  0  0  0  0  0  0  0  0  0  0  0
   49.9571    5.9295   15.2715 H   0  0  0  0  0  0  0  0  0  0  0  0
   53.4202   11.3131   15.4640 H   0  0  0  0  0  0  0  0  0  0  0  0
   46.9462    4.5207    6.2349 H   0  0  0  0  0  0  0  0  0  0  0  0
  2  1  1  0
  3  1  2  0
  4  5  1  0
  5  3  1  0
  6  2  1  0
  7  4  1  0
  8  1  1  0
  9  2  2  0
 10  4  2  0
 11 21  2  0
 12 20  2  0
 13 14  1  0
 14  8  2  0
 15 18  1  0
 16 17  1  0
 17  7  1  0
 18  6  1  0
 19  8  1  0
 20 16  1  0
 21 15  1  0
 22 27  2  0
 23 28  2  0
 24 15  2  0
 25 16  2  0
 26 19  1  0
 27 24  1  0
 28 25  1  0
  5 13  2  0
 11 22  1  0
 12 23  1  0
  3 29  1  0
  6 30  1  0
  7 31  1  0
 13 32  1  0
 14 33  1  0
 17 34  1  0
 17 35  1  0
 18 36  1  0
 18 37  1  0
 20 38  1  0
 21 39  1  0
 22 40  1  0
 23 41  1  0
 24 42  1  0
 25 43  1  0
 26 44  1  0
 26 45  1  0
 26 46  1  0
 27 47  1  0
 28 48  1  0
M  END
> <Uni-Dock RESULT> 
ENERGY=   -5.431  LOWER_BOUND=    1.177  UPPER_BOUND=    1.264
INTER + INTRA:          -5.431
INTER:                  -5.431
INTRA:                   0.000
UNBOUND:                 0.000

$$$$

     RDKit          3D

 48 50  0  0  0  0  0  0  0  0999 V2000
   45.2842    8.4603   12.1946 C   0  0  0  0  0  0  0  0  0  0  0  0
   44.7454    9.7704   11.7091 C   0  0  0  0  0  0  0  0  0  0  0  0
   46.5048    8.5097   12.8911 C   0  0  0  0  0  0  0  0  0  0  0  0
   48.3807    7.4527   14.1245 C   0  0  0  0  0  0  0  0  0  0  0  0
   47.0838    7.3454   13.4044 C   0  0  0  0  0  0  0  0  0  0  0  0
   43.7962    9.7335   10.7147 N   0  0  0  0  0  0  0  0  0  0  0  0
   48.5916    6.5369   15.1337 N   0  0  0  0  0  0  0  0  0  0  0  0
   44.6345    7.2213   12.0207 C   0  0  0  0  0  0  0  0  0  0  0  0
   45.1563   10.8211   12.1930 O   0  0  0  0  0  0  0  0  0  0  0  0
   49.1754    8.3362   13.8279 O   0  0  0  0  0  0  0  0  0  0  0  0
   40.3929   11.5446   12.8506 N   0  0  0  0  0  0  0  0  0  0  0  0
   48.9092    7.1198   19.6690 N   0  0  0  0  0  0  0  0  0  0  0  0
   46.4546    6.1152   13.2017 C   0  0  0  0  0  0  0  0  0  0  0  0
   45.2389    6.0552   12.5126 C   0  0  0  0  0  0  0  0  0  0  0  0
   41.7357   10.9975   10.9056 C   0  0  0  0  0  0  0  0  0  0  0  0
   49.3882    7.3070   17.2991 C   0  0  0  0  0  0  0  0  0  0  0  0
   49.7438    6.6353   16.0051 C   0  0  0  0  0  0  0  0  0  0  0  0
   43.0952   10.9160   10.2762 C   0  0  0  0  0  0  0  0  0  0  0  0
   43.4438    7.2033   11.3383 O   0  0  0  0  0  0  0  0  0  0  0  0
   49.2461    6.5793   18.4758 C   0  0  0  0  0  0  0  0  0  0  0  0
   41.5834   11.4548   12.2115 C   0  0  0  0  0  0  0  0  0  0  0  0
   39.3023   11.1562   12.1580 C   0  0  0  0  0  0  0  0  0  0  0  0
   48.7062    8.4552   19.6936 C   0  0  0  0  0  0  0  0  0  0  0  0
   40.5828   10.5944   10.2261 C   0  0  0  0  0  0  0  0  0  0  0  0
   49.1666    8.6863   17.3677 C   0  0  0  0  0  0  0  0  0  0  0  0
   42.5531    6.1304   11.6369 C   0  0  0  0  0  0  0  0  0  0  0  0
   39.3452   10.6779   10.8589 C   0  0  0  0  0  0  0  0  0  0  0  0
   48.8215    9.2722   18.5817 C   0  0  0  0  0  0  0  0  0  0  0  0
   47.0092    9.4652   13.0352 H   0  0  0  0  0  0  0  0  0  0  0  0
   43.4131    8.8288   10.4634 H   0  0  0  0  0  0  0  0  0  0  0  0
   47.8048    6.0035   15.4762 H   0  0  0  0  0  0  0  0  0  0  0  0
   46.9117    5.1908   13.5452 H   0  0  0  0  0  0  0  0  0  0  0  0
   44.7936    5.0770   12.3564 H   0  0  0  0  0  0  0  0  0  0  0  0
   50.0931    5.6124   16.1852 H   0  0  0  0  0  0  0  0  0  0  0  0
   50.5614    7.1747   15.5134 H   0  0  0  0  0  0  0  0  0  0  0  0
   43.6715   11.8199   10.5014 H   0  0  0  0  0  0  0  0  0  0  0  0
   43.0077   10.8526    9.1859 H   0  0  0  0  0  0  0  0  0  0  0  0
   49.4012    5.5037   18.4989 H   0  0  0  0  0  0  0  0  0  0  0  0
   42.4436   11.7677   12.8006 H   0  0  0  0  0  0  0  0  0  0  0  0
   38.3608   11.2392   12.6924 H   0  0  0  0  0  0  0  0  0  0  0  0
   48.4392    8.8662   20.6629 H   0  0  0  0  0  0  0  0  0  0  0  0
   40.6417   10.2204    9.2073 H   0  0  0  0  0  0  0  0  0  0  0  0
   49.2613    9.3042   16.4762 H   0  0  0  0  0  0  0  0  0  0  0  0
   41.5701    6.3958   11.2379 H   0  0  0  0  0  0  0  0  0  0  0  0
   42.8778    5.2105   11.1401 H   0  0  0  0  0  0  0  0  0  0  0  0
   42.4460    5.9807   12.7172 H   0  0  0  0  0  0  0  0  0  0  0  0
   38.4350   10.3773   10.3518 H   0  0  0  0  0  0  0  0  0  0  0  0
   48.6458   10.3398   18.6562 H   0  0  0  0  0  0  0  0  0  0  0  0
  2  1  1  0
  3  1  2  0
  4  5  1  0
  5  3  1  0
  6  2  1  0
  7  4  1  0
  8  1  1  0
  9  2  2  0
 10  4  2  0
 11 21  2  0
 12 20  2  0
 13 14  1  0
 14  8  2  0
 15 18  1  0
 16 17  1  0
 17  7  1  0
 18  6  1  0
 19  8  1  0
 20 16  1  0
 21 15  1  0
 22 27  2  0
 23 28  2  0
 24 15  2  0
 25 16  2  0
 26 19  1  0
 27 24  1  0
 28 25  1  0
  5 13  2  0
 11 22  1  0
 12 23  1  0
  3 29  1  0
  6 30  1  0
  7 31  1  0
 13 32  1  0
 14 33  1  0
 17 34  1  0
 17 35  1  0
 18 36  1  0
 18 37  1  0
 20 38  1  0
 21 39  1  0
 22 40  1  0
 23 41  1  0
 24 42  1  0
 25 43  1  0
 26 44  1  0
 26 45  1  0
 26 46  1  0
 27 47  1  0
 28 48  1  0
M  END
> <Uni-Dock RESULT> 
ENERGY=   -4.636  LOWER_BOUND=    4.542  UPPER_BOUND=    8.993
INTER + INTRA:          -4.636
INTER:                  -4.636
INTRA:                   0.000
UNBOUND:                 0.000

$$$$

     RDKit          3D

 48 50  0  0  0  0  0  0  0  0999 V2000
   49.8358    7.8282   12.9683 C   0  0  0  0  0  0  0  0  0  0  0  0
   50.9562    8.2739   12.0804 C   0  0  0  0  0  0  0  0  0  0  0  0
   48.5700    7.7201   12.3654 C   0  0  0  0  0  0  0  0  0  0  0  0
   46.1431    7.2052   12.4168 C   0  0  0  0  0  0  0  0  0  0  0  0
   47.4609    7.2924   13.1009 C   0  0  0  0  0  0  0  0  0  0  0  0
   52.0885    8.7624   12.6891 N   0  0  0  0  0  0  0  0  0  0  0  0
   45.2856    6.2272   12.8748 N   0  0  0  0  0  0  0  0  0  0  0  0
   49.9868    7.4925   14.3291 C   0  0  0  0  0  0  0  0  0  0  0  0
   50.8400    8.2005   10.8605 O   0  0  0  0  0  0  0  0  0  0  0  0
   45.8851    7.9572   11.4851 O   0  0  0  0  0  0  0  0  0  0  0  0
   55.0278    5.7736   11.3282 N   0  0  0  0  0  0  0  0  0  0  0  0
   43.7548    2.4149   10.8420 N   0  0  0  0  0  0  0  0  0  0  0  0
   47.6068    6.9924   14.4570 C   0  0  0  0  0  0  0  0  0  0  0  0
   48.8619    7.0939   15.0660 C   0  0  0  0  0  0  0  0  0  0  0  0
   54.2901    7.9669   12.0569 C   0  0  0  0  0  0  0  0  0  0  0  0
   44.1818    4.7620   11.2775 C   0  0  0  0  0  0  0  0  0  0  0  0
   44.0407    5.9436   12.1919 C   0  0  0  0  0  0  0  0  0  0  0  0
   53.2860    9.0762   11.9477 C   0  0  0  0  0  0  0  0  0  0  0  0
   51.2340    7.6059   14.8908 O   0  0  0  0  0  0  0  0  0  0  0  0
   43.6467    3.5223   11.6109 C   0  0  0  0  0  0  0  0  0  0  0  0
   54.1701    6.8203   11.2768 C   0  0  0  0  0  0  0  0  0  0  0  0
   56.0514    5.8711   12.2015 C   0  0  0  0  0  0  0  0  0  0  0  0
   44.4278    2.5487    9.6782 C   0  0  0  0  0  0  0  0  0  0  0  0
   55.3580    8.0242   12.9569 C   0  0  0  0  0  0  0  0  0  0  0  0
   44.8732    4.8567   10.0654 C   0  0  0  0  0  0  0  0  0  0  0  0
   51.5029    6.7785   16.0206 C   0  0  0  0  0  0  0  0  0  0  0  0
   56.2561    6.9627   13.0291 C   0  0  0  0  0  0  0  0  0  0  0  0
   44.9987    3.7355    9.2509 C   0  0  0  0  0  0  0  0  0  0  0  0
   48.4474    7.9717   11.3118 H   0  0  0  0  0  0  0  0  0  0  0  0
   52.1602    8.6660   13.6961 H   0  0  0  0  0  0  0  0  0  0  0  0
   45.6542    5.5004   13.4720 H   0  0  0  0  0  0  0  0  0  0  0  0
   46.7493    6.7089   15.0618 H   0  0  0  0  0  0  0  0  0  0  0  0
   48.9287    6.8737   16.1273 H   0  0  0  0  0  0  0  0  0  0  0  0
   43.2924    5.7436   12.9672 H   0  0  0  0  0  0  0  0  0  0  0  0
   43.6962    6.8173   11.6272 H   0  0  0  0  0  0  0  0  0  0  0  0
   53.0551    9.2758   10.8957 H   0  0  0  0  0  0  0  0  0  0  0  0
   53.6926   10.0019   12.3699 H   0  0  0  0  0  0  0  0  0  0  0  0
   43.0981    3.3727   12.5373 H   0  0  0  0  0  0  0  0  0  0  0  0
   53.3513    6.7063   10.5687 H   0  0  0  0  0  0  0  0  0  0  0  0
   56.7248    5.0197   12.2223 H   0  0  0  0  0  0  0  0  0  0  0  0
   44.4992    1.6468    9.0771 H   0  0  0  0  0  0  0  0  0  0  0  0
   55.4970    8.8909   13.5978 H   0  0  0  0  0  0  0  0  0  0  0  0
   45.3149    5.8025    9.7559 H   0  0  0  0  0  0  0  0  0  0  0  0
   52.5851    6.7758   16.1786 H   0  0  0  0  0  0  0  0  0  0  0  0
   51.0353    7.1911   16.9204 H   0  0  0  0  0  0  0  0  0  0  0  0
   51.1876    5.7430   15.8495 H   0  0  0  0  0  0  0  0  0  0  0  0
   57.0963    6.9849   13.7144 H   0  0  0  0  0  0  0  0  0  0  0  0
   45.5305    3.7880    8.3072 H   0  0  0  0  0  0  0  0  0  0  0  0
  2  1  1  0
  3  1  2  0
  4  5  1  0
  5  3  1  0
  6  2  1  0
  7  4  1  0
  8  1  1  0
  9  2  2  0
 10  4  2  0
 11 21  2  0
 12 20  2  0
 13 14  1  0
 14  8  2  0
 15 18  1  0
 16 17  1  0
 17  7  1  0
 18  6  1  0
 19  8  1  0
 20 16  1  0
 21 15  1  0
 22 27  2  0
 23 28  2  0
 24 15  2  0
 25 16  2  0
 26 19  1  0
 27 24  1  0
 28 25  1  0
  5 13  2  0
 11 22  1  0
 12 23  1  0
  3 29  1  0
  6 30  1  0
  7 31  1  0
 13 32  1  0
 14 33  1  0
 17 34  1  0
 17 35  1  0
 18 36  1  0
 18 37  1  0
 20 38  1  0
 21 39  1  0
 22 40  1  0
 23 41  1  0
 24 42  1  0
 25 43  1  0
 26 44  1  0
 26 45  1  0
 26 46  1  0
 27 47  1  0
 28 48  1  0
M  END
> <Uni-Dock RESULT> 
ENERGY=   -4.412  LOWER_BOUND=    2.851  UPPER_BOUND=    4.259
INTER + INTRA:          -4.412
INTER:                  -4.412
INTRA:                   0.000
UNBOUND:                 0.000

$$$$

     RDKit          3D

 48 50  0  0  0  0  0  0  0  0999 V2000
   46.3351   10.1038   12.1553 C   0  0  0  0  0  0  0  0  0  0  0  0
   47.0236   11.4331   12.1882 C   0  0  0  0  0  0  0  0  0  0  0  0
   47.0978    8.9979   12.5707 C   0  0  0  0  0  0  0  0  0  0  0  0
   47.3971    6.5789   13.0359 C   0  0  0  0  0  0  0  0  0  0  0  0
   46.5433    7.7150   12.5975 C   0  0  0  0  0  0  0  0  0  0  0  0
   46.4728   12.4484   11.4420 N   0  0  0  0  0  0  0  0  0  0  0  0
   46.7477    5.5430   13.6736 N   0  0  0  0  0  0  0  0  0  0  0  0
   44.9923    9.9146   11.7696 C   0  0  0  0  0  0  0  0  0  0  0  0
   48.0412   11.5817   12.8587 O   0  0  0  0  0  0  0  0  0  0  0  0
   48.6071    6.6138   12.8494 O   0  0  0  0  0  0  0  0  0  0  0  0
   45.4508   15.2823   14.6591 N   0  0  0  0  0  0  0  0  0  0  0  0
   46.9815    4.1036   18.0191 N   0  0  0  0  0  0  0  0  0  0  0  0
   45.2231    7.5257   12.1833 C   0  0  0  0  0  0  0  0  0  0  0  0
   44.4546    8.6192   11.7707 C   0  0  0  0  0  0  0  0  0  0  0  0
   46.0814   14.6384   12.4066 C   0  0  0  0  0  0  0  0  0  0  0  0
   47.6488    4.6699   15.7574 C   0  0  0  0  0  0  0  0  0  0  0  0
   47.4875    4.4564   14.2807 C   0  0  0  0  0  0  0  0  0  0  0  0
   46.9556   13.8062   11.5154 C   0  0  0  0  0  0  0  0  0  0  0  0
   44.2712   11.0121   11.3703 O   0  0  0  0  0  0  0  0  0  0  0  0
   46.8984    3.9464   16.6783 C   0  0  0  0  0  0  0  0  0  0  0  0
   46.2105   14.5728   13.7910 C   0  0  0  0  0  0  0  0  0  0  0  0
   44.5148   16.0927   14.1231 C   0  0  0  0  0  0  0  0  0  0  0  0
   47.8598    5.0269   18.4676 C   0  0  0  0  0  0  0  0  0  0  0  0
   45.0927   15.4815   11.8915 C   0  0  0  0  0  0  0  0  0  0  0  0
   48.5443    5.6176   16.2635 C   0  0  0  0  0  0  0  0  0  0  0  0
   42.8555   10.9361   11.5240 C   0  0  0  0  0  0  0  0  0  0  0  0
   44.2985   16.2241   12.7614 C   0  0  0  0  0  0  0  0  0  0  0  0
   48.6546    5.8003   17.6385 C   0  0  0  0  0  0  0  0  0  0  0  0
   48.1347    9.1379   12.8767 H   0  0  0  0  0  0  0  0  0  0  0  0
   45.5626   12.2857   11.0253 H   0  0  0  0  0  0  0  0  0  0  0  0
   45.8039    5.6918   14.0021 H   0  0  0  0  0  0  0  0  0  0  0  0
   44.7868    6.5309   12.1451 H   0  0  0  0  0  0  0  0  0  0  0  0
   43.4399    8.4266   11.4347 H   0  0  0  0  0  0  0  0  0  0  0  0
   46.9219    3.5388   14.0836 H   0  0  0  0  0  0  0  0  0  0  0  0
   48.4694    4.3394   13.8081 H   0  0  0  0  0  0  0  0  0  0  0  0
   47.9924   13.8355   11.8677 H   0  0  0  0  0  0  0  0  0  0  0  0
   46.9503   14.2053   10.4951 H   0  0  0  0  0  0  0  0  0  0  0  0
   46.1816    3.1943   16.3589 H   0  0  0  0  0  0  0  0  0  0  0  0
   46.9498   13.9229   14.2557 H   0  0  0  0  0  0  0  0  0  0  0  0
   43.9206   16.6509   14.8401 H   0  0  0  0  0  0  0  0  0  0  0  0
   47.9103    5.1332   19.5474 H   0  0  0  0  0  0  0  0  0  0  0  0
   44.9403   15.5666   10.8188 H   0  0  0  0  0  0  0  0  0  0  0  0
   49.1548    6.2142   15.5877 H   0  0  0  0  0  0  0  0  0  0  0  0
   42.4576   11.9503   11.4286 H   0  0  0  0  0  0  0  0  0  0  0  0
   42.4137   10.3280   10.7282 H   0  0  0  0  0  0  0  0  0  0  0  0
   42.5745   10.5585   12.5136 H   0  0  0  0  0  0  0  0  0  0  0  0
   43.5287   16.8900   12.3874 H   0  0  0  0  0  0  0  0  0  0  0  0
   49.3431    6.5295   18.0511 H   0  0  0  0  0  0  0  0  0  0  0  0
  2  1  1  0
  3  1  2  0
  4  5  1  0
  5  3  1  0
  6  2  1  0
  7  4  1  0
  8  1  1  0
  9  2  2  0
 10  4  2  0
 11 21  2  0
 12 20  2  0
 13 14  1  0
 14  8  2  0
 15 18  1  0
 16 17  1  0
 17  7  1  0
 18  6  1  0
 19  8  1  0
 20 16  1  0
 21 15  1  0
 22 27  2  0
 23 28  2  0
 24 15  2  0
 25 16  2  0
 26 19  1  0
 27 24  1  0
 28 25  1  0
  5 13  2  0
 11 22  1  0
 12 23  1  0
  3 29  1  0
  6 30  1  0
  7 31  1  0
 13 32  1  0
 14 33  1  0
 17 34  1  0
 17 35  1  0
 18 36  1  0
 18 37  1  0
 20 38  1  0
 21 39  1  0
 22 40  1  0
 23 41  1  0
 24 42  1  0
 25 43  1  0
 26 44  1  0
 26 45  1  0
 26 46  1  0
 27 47  1  0
 28 48  1  0
M  END
> <Uni-Dock RESULT> 
ENERGY=   -4.288  LOWER_BOUND=    4.660  UPPER_BOUND=    7.335
INTER + INTRA:          -4.288
INTER:                  -4.288
INTRA:                   0.000
UNBOUND:                 0.000

$$$$

     RDKit          3D

 48 50  0  0  0  0  0  0  0  0999 V2000
   45.5024   10.1460   11.8466 C   0  0  0  0  0  0  0  0  0  0  0  0
   45.9843    8.8387   12.3953 C   0  0  0  0  0  0  0  0  0  0  0  0
   44.1126   10.3578   11.8750 C   0  0  0  0  0  0  0  0  0  0  0  0
   42.0838   11.7220   11.4498 C   0  0  0  0  0  0  0  0  0  0  0  0
   43.5609   11.5535   11.4059 C   0  0  0  0  0  0  0  0  0  0  0  0
   47.2480    8.4309   12.0378 N   0  0  0  0  0  0  0  0  0  0  0  0
   41.6254   13.0095   11.6334 N   0  0  0  0  0  0  0  0  0  0  0  0
   46.3480   11.1569   11.3461 C   0  0  0  0  0  0  0  0  0  0  0  0
   45.2574    8.1746   13.1285 O   0  0  0  0  0  0  0  0  0  0  0  0
   41.3522   10.7443   11.3547 O   0  0  0  0  0  0  0  0  0  0  0  0
   49.1757    8.3807   16.0010 N   0  0  0  0  0  0  0  0  0  0  0  0
   39.4151   14.9105   15.1704 N   0  0  0  0  0  0  0  0  0  0  0  0
   44.3982   12.5397   10.8800 C   0  0  0  0  0  0  0  0  0  0  0  0
   45.7824   12.3404   10.8494 C   0  0  0  0  0  0  0  0  0  0  0  0
   48.8354    7.6713   13.7060 C   0  0  0  0  0  0  0  0  0  0  0  0
   39.9134   13.4414   13.3064 C   0  0  0  0  0  0  0  0  0  0  0  0
   40.2189   13.2802   11.8460 C   0  0  0  0  0  0  0  0  0  0  0  0
   47.8768    7.2716   12.6234 C   0  0  0  0  0  0  0  0  0  0  0  0
   47.7005   10.9233   11.3318 O   0  0  0  0  0  0  0  0  0  0  0  0
   39.6767   14.6947   13.8611 C   0  0  0  0  0  0  0  0  0  0  0  0
   48.3745    7.9992   14.9779 C   0  0  0  0  0  0  0  0  0  0  0  0
   50.4986    8.4430   15.7441 C   0  0  0  0  0  0  0  0  0  0  0  0
   39.3840   13.8216   15.9696 C   0  0  0  0  0  0  0  0  0  0  0  0
   50.2115    7.7591   13.4776 C   0  0  0  0  0  0  0  0  0  0  0  0
   39.8746   12.3410   14.1689 C   0  0  0  0  0  0  0  0  0  0  0  0
   48.5467   12.0705   11.3703 C   0  0  0  0  0  0  0  0  0  0  0  0
   51.0586    8.1469   14.5124 C   0  0  0  0  0  0  0  0  0  0  0  0
   39.6050   12.5306   15.5208 C   0  0  0  0  0  0  0  0  0  0  0  0
   43.4534    9.5831   12.2669 H   0  0  0  0  0  0  0  0  0  0  0  0
   47.8335    9.0938   11.5416 H   0  0  0  0  0  0  0  0  0  0  0  0
   42.2778   13.7168   11.9415 H   0  0  0  0  0  0  0  0  0  0  0  0
   43.9885   13.4552   10.4611 H   0  0  0  0  0  0  0  0  0  0  0  0
   46.3966   13.1218   10.4118 H   0  0  0  0  0  0  0  0  0  0  0  0
   39.9875   14.2016   11.2999 H   0  0  0  0  0  0  0  0  0  0  0  0
   39.5982   12.4852   11.4173 H   0  0  0  0  0  0  0  0  0  0  0  0
   47.1278    6.5767   13.0183 H   0  0  0  0  0  0  0  0  0  0  0  0
   48.4064    6.7513   11.8177 H   0  0  0  0  0  0  0  0  0  0  0  0
   39.6920   15.5954   13.2528 H   0  0  0  0  0  0  0  0  0  0  0  0
   47.3128    7.9674   15.2158 H   0  0  0  0  0  0  0  0  0  0  0  0
   51.1185    8.7501   16.5808 H   0  0  0  0  0  0  0  0  0  0  0  0
   39.1697   14.0199   17.0158 H   0  0  0  0  0  0  0  0  0  0  0  0
   50.6277    7.5235   12.5016 H   0  0  0  0  0  0  0  0  0  0  0  0
   40.0553   11.3369   13.7889 H   0  0  0  0  0  0  0  0  0  0  0  0
   49.5539   11.7300   11.6265 H   0  0  0  0  0  0  0  0  0  0  0  0
   48.5956   12.5463   10.3856 H   0  0  0  0  0  0  0  0  0  0  0  0
   48.2291   12.7834   12.1396 H   0  0  0  0  0  0  0  0  0  0  0  0
   52.1303    8.2172   14.3630 H   0  0  0  0  0  0  0  0  0  0  0  0
   39.5700   11.6907   16.2060 H   0  0  0  0  0  0  0  0  0  0  0  0
  2  1  1  0
  3  1  2  0
  4  5  1  0
  5  3  1  0
  6  2  1  0
  7  4  1  0
  8  1  1  0
  9  2  2  0
 10  4  2  0
 11 21  2  0
 12 20  2  0
 13 14  1  0
 14  8  2  0
 15 18  1  0
 16 17  1  0
 17  7  1  0
 18  6  1  0
 19  8  1  0
 20 16  1  0
 21 15  1  0
 22 27  2  0
 23 28  2  0
 24 15  2  0
 25 16  2  0
 26 19  1  0
 27 24  1  0
 28 25  1  0
  5 13  2  0
 11 22  1  0
 12 23  1  0
  3 29  1  0
  6 30  1  0
  7 31  1  0
 13 32  1  0
 14 33  1  0
 17 34  1  0
 17 35  1  0
 18 36  1  0
 18 37  1  0
 20 38  1  0
 21 39  1  0
 22 40  1  0
 23 41  1  0
 24 42  1  0
 25 43  1  0
 26 44  1  0
 26 45  1  0
 26 46  1  0
 27 47  1  0
 28 48  1  0
M  END
> <Uni-Dock RESULT> 
ENERGY=   -4.097  LOWER_BOUND=    5.912  UPPER_BOUND=    8.991
INTER + INTRA:          -4.097
INTER:                  -4.097
INTRA:                   0.000
UNBOUND:                 0.000

$$$$

     RDKit          3D

 48 50  0  0  0  0  0  0  0  0999 V2000
   48.2486    8.5093   12.1926 C   0  0  0  0  0  0  0  0  0  0  0  0
   47.8923    7.1156   12.6084 C   0  0  0  0  0  0  0  0  0  0  0  0
   49.5843    8.7210   11.8073 C   0  0  0  0  0  0  0  0  0  0  0  0
   51.4415   10.1523   10.9949 C   0  0  0  0  0  0  0  0  0  0  0  0
   50.0157    9.9808   11.3819 C   0  0  0  0  0  0  0  0  0  0  0  0
   46.7444    6.9509   13.3475 N   0  0  0  0  0  0  0  0  0  0  0  0
   51.6955   11.0889   10.0152 N   0  0  0  0  0  0  0  0  0  0  0  0
   47.3336    9.5806   12.1403 C   0  0  0  0  0  0  0  0  0  0  0  0
   48.6170    6.1761   12.2933 O   0  0  0  0  0  0  0  0  0  0  0  0
   52.3063    9.4607   11.5184 O   0  0  0  0  0  0  0  0  0  0  0  0
   44.4114    4.4452   10.5720 N   0  0  0  0  0  0  0  0  0  0  0  0
   53.2152   10.5741    5.7216 N   0  0  0  0  0  0  0  0  0  0  0  0
   49.1151   11.0479   11.3629 C   0  0  0  0  0  0  0  0  0  0  0  0
   47.7835   10.8478   11.7416 C   0  0  0  0  0  0  0  0  0  0  0  0
   45.0999    5.2736   12.7458 C   0  0  0  0  0  0  0  0  0  0  0  0
   53.1344   10.5012    8.1442 C   0  0  0  0  0  0  0  0  0  0  0  0
   53.0190   11.2375    9.4468 C   0  0  0  0  0  0  0  0  0  0  0  0
   46.2192    5.6468   13.6725 C   0  0  0  0  0  0  0  0  0  0  0  0
   46.0361    9.3447   12.5207 O   0  0  0  0  0  0  0  0  0  0  0  0
   53.1336   11.1779    6.9291 C   0  0  0  0  0  0  0  0  0  0  0  0
   45.3664    4.7903   11.4679 C   0  0  0  0  0  0  0  0  0  0  0  0
   43.1294    4.5926   10.9656 C   0  0  0  0  0  0  0  0  0  0  0  0
   53.3059    9.2262    5.7230 C   0  0  0  0  0  0  0  0  0  0  0  0
   43.7590    5.4219   13.1112 C   0  0  0  0  0  0  0  0  0  0  0  0
   53.2273    9.1063    8.1010 C   0  0  0  0  0  0  0  0  0  0  0  0
   45.0416   10.2005   11.9622 C   0  0  0  0  0  0  0  0  0  0  0  0
   42.7565    5.0728   12.2101 C   0  0  0  0  0  0  0  0  0  0  0  0
   53.3156    8.4563    6.8738 C   0  0  0  0  0  0  0  0  0  0  0  0
   50.2956    7.8955   11.8388 H   0  0  0  0  0  0  0  0  0  0  0  0
   46.1326    7.7531   13.4515 H   0  0  0  0  0  0  0  0  0  0  0  0
   50.9220   11.4400    9.4682 H   0  0  0  0  0  0  0  0  0  0  0  0
   49.4395   12.0479   11.0867 H   0  0  0  0  0  0  0  0  0  0  0  0
   47.1207   11.7080   11.7346 H   0  0  0  0  0  0  0  0  0  0  0  0
   53.1814   12.3110    9.2983 H   0  0  0  0  0  0  0  0  0  0  0  0
   53.7868   10.8875   10.1461 H   0  0  0  0  0  0  0  0  0  0  0  0
   47.0075    4.8870   13.6394 H   0  0  0  0  0  0  0  0  0  0  0  0
   45.8593    5.6933   14.7063 H   0  0  0  0  0  0  0  0  0  0  0  0
   53.0629   12.2616    6.8843 H   0  0  0  0  0  0  0  0  0  0  0  0
   46.3892    4.6676   11.1162 H   0  0  0  0  0  0  0  0  0  0  0  0
   42.3837    4.3079   10.2297 H   0  0  0  0  0  0  0  0  0  0  0  0
   53.3727    8.7646    4.7421 H   0  0  0  0  0  0  0  0  0  0  0  0
   43.4907    5.8029   14.0931 H   0  0  0  0  0  0  0  0  0  0  0  0
   53.2295    8.5258    9.0221 H   0  0  0  0  0  0  0  0  0  0  0  0
   44.0683    9.7315   12.1322 H   0  0  0  0  0  0  0  0  0  0  0  0
   45.0382   11.1702   12.4704 H   0  0  0  0  0  0  0  0  0  0  0  0
   45.1704   10.3205   10.8806 H   0  0  0  0  0  0  0  0  0  0  0  0
   41.7087    5.1726   12.4710 H   0  0  0  0  0  0  0  0  0  0  0  0
   53.3887    7.3757    6.8186 H   0  0  0  0  0  0  0  0  0  0  0  0
  2  1  1  0
  3  1  2  0
  4  5  1  0
  5  3  1  0
  6  2  1  0
  7  4  1  0
  8  1  1  0
  9  2  2  0
 10  4  2  0
 11 21  2  0
 12 20  2  0
 13 14  1  0
 14  8  2  0
 15 18  1  0
 16 17  1  0
 17  7  1  0
 18  6  1  0
 19  8  1  0
 20 16  1  0
 21 15  1  0
 22 27  2  0
 23 28  2  0
 24 15  2  0
 25 16  2  0
 26 19  1  0
 27 24  1  0
 28 25  1  0
  5 13  2  0
 11 22  1  0
 12 23  1  0
  3 29  1  0
  6 30  1  0
  7 31  1  0
 13 32  1  0
 14 33  1  0
 17 34  1  0
 17 35  1  0
 18 36  1  0
 18 37  1  0
 20 38  1  0
 21 39  1  0
 22 40  1  0
 23 41  1  0
 24 42  1  0
 25 43  1  0
 26 44  1  0
 26 45  1  0
 26 46  1  0
 27 47  1  0
 28 48  1  0
M  END
> <Uni-Dock RESULT> 
ENERGY=   -3.958  LOWER_BOUND=    3.999  UPPER_BOUND=    8.192
INTER + INTRA:          -3.958
INTER:                  -3.958
INTRA:                   0.000
UNBOUND:                 0.000

$$$$

     RDKit          3D

 48 50  0  0  0  0  0  0  0  0999 V2000
   47.0206    8.9713   13.4942 C   0  0  0  0  0  0  0  0  0  0  0  0
   48.0877    9.6121   14.3266 C   0  0  0  0  0  0  0  0  0  0  0  0
   46.1830    9.8442   12.7774 C   0  0  0  0  0  0  0  0  0  0  0  0
   44.3045   10.3151   11.2259 C   0  0  0  0  0  0  0  0  0  0  0  0
   45.1683    9.3477   11.9540 C   0  0  0  0  0  0  0  0  0  0  0  0
   48.6554    8.8507   15.3212 N   0  0  0  0  0  0  0  0  0  0  0  0
   43.8188    9.8953   10.0055 N   0  0  0  0  0  0  0  0  0  0  0  0
   46.8379    7.5787   13.3723 C   0  0  0  0  0  0  0  0  0  0  0  0
   48.4195   10.7743   14.1120 O   0  0  0  0  0  0  0  0  0  0  0  0
   44.0862   11.4219   11.7030 O   0  0  0  0  0  0  0  0  0  0  0  0
   52.8214    8.7200   13.8888 N   0  0  0  0  0  0  0  0  0  0  0  0
   44.7265   11.3806    5.7652 N   0  0  0  0  0  0  0  0  0  0  0  0
   44.9683    7.9687   11.8611 C   0  0  0  0  0  0  0  0  0  0  0  0
   45.7975    7.0914   12.5677 C   0  0  0  0  0  0  0  0  0  0  0  0
   51.0637    8.7010   15.5609 C   0  0  0  0  0  0  0  0  0  0  0  0
   43.9964   11.3680    8.0778 C   0  0  0  0  0  0  0  0  0  0  0  0
   43.0964   10.8001    9.1359 C   0  0  0  0  0  0  0  0  0  0  0  0
   49.7935    9.3050   16.0831 C   0  0  0  0  0  0  0  0  0  0  0  0
   47.6711    6.7505   14.0821 O   0  0  0  0  0  0  0  0  0  0  0  0
   43.9327   10.9249    6.7609 C   0  0  0  0  0  0  0  0  0  0  0  0
   51.6825    9.2181   14.4262 C   0  0  0  0  0  0  0  0  0  0  0  0
   53.3678    7.6533   14.5080 C   0  0  0  0  0  0  0  0  0  0  0  0
   45.6292   12.3298    6.0963 C   0  0  0  0  0  0  0  0  0  0  0  0
   51.6553    7.5890   16.1665 C   0  0  0  0  0  0  0  0  0  0  0  0
   44.9464   12.3495    8.3785 C   0  0  0  0  0  0  0  0  0  0  0  0
   47.8642    5.4382   13.5585 C   0  0  0  0  0  0  0  0  0  0  0  0
   52.8279    7.0576   15.6359 C   0  0  0  0  0  0  0  0  0  0  0  0
   45.7757   12.8404    7.3749 C   0  0  0  0  0  0  0  0  0  0  0  0
   46.3229   10.9220   12.8617 H   0  0  0  0  0  0  0  0  0  0  0  0
   48.4244    7.8636   15.3479 H   0  0  0  0  0  0  0  0  0  0  0  0
   44.2314    9.0801    9.5742 H   0  0  0  0  0  0  0  0  0  0  0  0
   44.1529    7.5611   11.2693 H   0  0  0  0  0  0  0  0  0  0  0  0
   45.5947    6.0276   12.4866 H   0  0  0  0  0  0  0  0  0  0  0  0
   42.2842   10.2217    8.6812 H   0  0  0  0  0  0  0  0  0  0  0  0
   42.6342   11.6103    9.7112 H   0  0  0  0  0  0  0  0  0  0  0  0
   49.8617   10.3983   16.0723 H   0  0  0  0  0  0  0  0  0  0  0  0
   49.6263    9.0025   17.1227 H   0  0  0  0  0  0  0  0  0  0  0  0
   43.2206   10.1634    6.4533 H   0  0  0  0  0  0  0  0  0  0  0  0
   51.2631   10.0726   13.8982 H   0  0  0  0  0  0  0  0  0  0  0  0
   54.2804    7.2743   14.0582 H   0  0  0  0  0  0  0  0  0  0  0  0
   46.2532   12.6815    5.2798 H   0  0  0  0  0  0  0  0  0  0  0  0
   51.2119    7.1374   17.0500 H   0  0  0  0  0  0  0  0  0  0  0  0
   45.0417   12.7307    9.3939 H   0  0  0  0  0  0  0  0  0  0  0  0
   48.7364    5.0077   14.0585 H   0  0  0  0  0  0  0  0  0  0  0  0
   47.0022    4.8024   13.7848 H   0  0  0  0  0  0  0  0  0  0  0  0
   48.0711    5.4570   12.4826 H   0  0  0  0  0  0  0  0  0  0  0  0
   53.3101    6.1991   16.0902 H   0  0  0  0  0  0  0  0  0  0  0  0
   46.5184   13.6016    7.5872 H   0  0  0  0  0  0  0  0  0  0  0  0
  2  1  1  0
  3  1  2  0
  4  5  1  0
  5  3  1  0
  6  2  1  0
  7  4  1  0
  8  1  1  0
  9  2  2  0
 10  4  2  0
 11 21  2  0
 12 20  2  0
 13 14  1  0
 14  8  2  0
 15 18  1  0
 16 17  1  0
 17  7  1  0
 18  6  1  0
 19  8  1  0
 20 16  1  0
 21 15  1  0
 22 27  2  0
 23 28  2  0
 24 15  2  0
 25 16  2  0
 26 19  1  0
 27 24  1  0
 28 25  1  0
  5 13  2  0
 11 22  1  0
 12 23  1  0
  3 29  1  0
  6 30  1  0
  7 31  1  0
 13 32  1  0
 14 33  1  0
 17 34  1  0
 17 35  1  0
 18 36  1  0
 18 37  1  0
 20 38  1  0
 21 39  1  0
 22 40  1  0
 23 41  1  0
 24 42  1  0
 25 43  1  0
 26 44  1  0
 26 45  1  0
 26 46  1  0
 27 47  1  0
 28 48  1  0
M  END
> <Uni-Dock RESULT> 
ENERGY=   -3.913  LOWER_BOUND=    4.412  UPPER_BOUND=    5.708
INTER + INTRA:          -3.913
INTER:                  -3.913
INTRA:                   0.000
UNBOUND:                 0.000

$$$$

     RDKit          3D

 48 50  0  0  0  0  0  0  0  0999 V2000
   49.0056    9.6882   17.1757 C   0  0  0  0  0  0  0  0  0  0  0  0
   49.5665    8.4303   16.5880 C   0  0  0  0  0  0  0  0  0  0  0  0
   48.9891   10.8144   16.3339 C   0  0  0  0  0  0  0  0  0  0  0  0
   48.4833   13.1951   15.8504 C   0  0  0  0  0  0  0  0  0  0  0  0
   48.4675   12.0328   16.7782 C   0  0  0  0  0  0  0  0  0  0  0  0
   49.9594    7.4447   17.4629 N   0  0  0  0  0  0  0  0  0  0  0  0
   47.4546   14.1018   15.9964 N   0  0  0  0  0  0  0  0  0  0  0  0
   48.4813    9.7898   18.4804 C   0  0  0  0  0  0  0  0  0  0  0  0
   49.6657    8.3120   15.3702 O   0  0  0  0  0  0  0  0  0  0  0  0
   49.3599   13.2889   15.0000 O   0  0  0  0  0  0  0  0  0  0  0  0
   47.1778    4.2353   16.2851 N   0  0  0  0  0  0  0  0  0  0  0  0
   43.9728   15.1352   13.2003 N   0  0  0  0  0  0  0  0  0  0  0  0
   47.9792   12.1394   18.0822 C   0  0  0  0  0  0  0  0  0  0  0  0
   47.9884   11.0246   18.9271 C   0  0  0  0  0  0  0  0  0  0  0  0
   49.2504    5.1461   17.1573 C   0  0  0  0  0  0  0  0  0  0  0  0
   46.2335   14.8507   14.0306 C   0  0  0  0  0  0  0  0  0  0  0  0
   47.2755   15.1885   15.0564 C   0  0  0  0  0  0  0  0  0  0  0  0
   50.3687    6.1359   17.0140 C   0  0  0  0  0  0  0  0  0  0  0  0
   48.5090    8.6742   19.2795 O   0  0  0  0  0  0  0  0  0  0  0  0
   44.9616   15.4114   14.0807 C   0  0  0  0  0  0  0  0  0  0  0  0
   48.2254    5.0908   16.2171 C   0  0  0  0  0  0  0  0  0  0  0  0
   47.1470    3.3977   17.3423 C   0  0  0  0  0  0  0  0  0  0  0  0
   44.2656   14.2574   12.2159 C   0  0  0  0  0  0  0  0  0  0  0  0
   49.1758    4.2693   18.2432 C   0  0  0  0  0  0  0  0  0  0  0  0
   46.4943   13.9448   12.9974 C   0  0  0  0  0  0  0  0  0  0  0  0
   47.5298    8.6055   20.3139 C   0  0  0  0  0  0  0  0  0  0  0  0
   48.1105    3.3776   18.3370 C   0  0  0  0  0  0  0  0  0  0  0  0
   45.4981   13.6425   12.0742 C   0  0  0  0  0  0  0  0  0  0  0  0
   49.3868   10.7411   15.3215 H   0  0  0  0  0  0  0  0  0  0  0  0
   49.7221    7.5627   18.4418 H   0  0  0  0  0  0  0  0  0  0  0  0
   46.6494   13.8367   16.5461 H   0  0  0  0  0  0  0  0  0  0  0  0
   47.6175   13.0893   18.4674 H   0  0  0  0  0  0  0  0  0  0  0  0
   47.6209   11.1549   19.9407 H   0  0  0  0  0  0  0  0  0  0  0  0
   46.9720   16.0652   15.6396 H   0  0  0  0  0  0  0  0  0  0  0  0
   48.2215   15.4393   14.5632 H   0  0  0  0  0  0  0  0  0  0  0  0
   50.7151    6.1681   15.9753 H   0  0  0  0  0  0  0  0  0  0  0  0
   51.2240    5.8372   17.6301 H   0  0  0  0  0  0  0  0  0  0  0  0
   44.6860   16.1219   14.8558 H   0  0  0  0  0  0  0  0  0  0  0  0
   48.2157    5.7583   15.3572 H   0  0  0  0  0  0  0  0  0  0  0  0
   46.2980    2.7216   17.3725 H   0  0  0  0  0  0  0  0  0  0  0  0
   43.4568   14.0536   11.5202 H   0  0  0  0  0  0  0  0  0  0  0  0
   49.9432    4.2733   19.0128 H   0  0  0  0  0  0  0  0  0  0  0  0
   47.4721   13.4737   12.9119 H   0  0  0  0  0  0  0  0  0  0  0  0
   47.4999    7.5729   20.6730 H   0  0  0  0  0  0  0  0  0  0  0  0
   47.8140    9.2439   21.1565 H   0  0  0  0  0  0  0  0  0  0  0  0
   46.5301    8.8597   19.9438 H   0  0  0  0  0  0  0  0  0  0  0  0
   48.0323    2.6829   19.1661 H   0  0  0  0  0  0  0  0  0  0  0  0
   45.6802   12.9432   11.2655 H   0  0  0  0  0  0  0  0  0  0  0  0
  2  1  1  0
  3  1  2  0
  4  5  1  0
  5  3  1  0
  6  2  1  0
  7  4  1  0
  8  1  1  0
  9  2  2  0
 10  4  2  0
 11 21  2  0
 12 20  2  0
 13 14  1  0
 14  8  2  0
 15 18  1  0
 16 17  1  0
 17  7  1  0
 18  6  1  0
 19  8  1  0
 20 16  1  0
 21 15  1  0
 22 27  2  0
 23 28  2  0
 24 15  2  0
 25 16  2  0
 26 19  1  0
 27 24  1  0
 28 25  1  0
  5 13  2  0
 11 22  1  0
 12 23  1  0
  3 29  1  0
  6 30  1  0
  7 31  1  0
 13 32  1  0
 14 33  1  0
 17 34  1  0
 17 35  1  0
 18 36  1  0
 18 37  1  0
 20 38  1  0
 21 39  1  0
 22 40  1  0
 23 41  1  0
 24 42  1  0
 25 43  1  0
 26 44  1  0
 26 45  1  0
 26 46  1  0
 27 47  1  0
 28 48  1  0
M  END
> <Uni-Dock RESULT> 
ENERGY=   -3.764  LOWER_BOUND=    5.857  UPPER_BOUND=    9.467
INTER + INTRA:          -3.764
INTER:                  -3.764
INTRA:                   0.000
UNBOUND:                 0.000

$$$$
