
     RDKit          3D

 48 50  0  0  0  0  0  0  0  0999 V2000
   47.0658    6.5799   13.4022 C   0  0  0  0  0  0  0  0  0  0  0  0
   47.5729    7.9903   13.3820 C   0  0  0  0  0  0  0  0  0  0  0  0
   46.3596    6.1565   12.2615 C   0  0  0  0  0  0  0  0  0  0  0  0
   45.1019    4.4635   10.9513 C   0  0  0  0  0  0  0  0  0  0  0  0
   45.8561    4.8553   12.1726 C   0  0  0  0  0  0  0  0  0  0  0  0
   47.9246    8.5507   14.5872 N   0  0  0  0  0  0  0  0  0  0  0  0
   45.1715    3.1340   10.5920 N   0  0  0  0  0  0  0  0  0  0  0  0
   47.2755    5.6752   14.4643 C   0  0  0  0  0  0  0  0  0  0  0  0
   47.6537    8.5994   12.3194 O   0  0  0  0  0  0  0  0  0  0  0  0
   44.4852    5.3064   10.3117 O   0  0  0  0  0  0  0  0  0  0  0  0
   52.0294    9.5691   16.2231 N   0  0  0  0  0  0  0  0  0  0  0  0
   46.9544    3.6403    6.5693 N   0  0  0  0  0  0  0  0  0  0  0  0
   46.0376    3.9723   13.2395 C   0  0  0  0  0  0  0  0  0  0  0  0
   46.7425    4.3810   14.3766 C   0  0  0  0  0  0  0  0  0  0  0  0
   50.0647    9.6721   14.8045 C   0  0  0  0  0  0  0  0  0  0  0  0
   45.6234    2.5494    8.2764 C   0  0  0  0  0  0  0  0  0  0  0  0
   44.5870    2.6647    9.3547 C   0  0  0  0  0  0  0  0  0  0  0  0
   48.5778    9.8344   14.6815 C   0  0  0  0  0  0  0  0  0  0  0  0
   47.9716    6.1172   15.5616 O   0  0  0  0  0  0  0  0  0  0  0  0
   46.0188    3.6668    7.5466 C   0  0  0  0  0  0  0  0  0  0  0  0
   50.6985    9.7304   16.0411 C   0  0  0  0  0  0  0  0  0  0  0  0
   52.7672    9.3379   15.1156 C   0  0  0  0  0  0  0  0  0  0  0  0
   47.5298    2.4482    6.3091 C   0  0  0  0  0  0  0  0  0  0  0  0
   50.8636    9.4195   13.6857 C   0  0  0  0  0  0  0  0  0  0  0  0
   46.2495    1.3342    7.9832 C   0  0  0  0  0  0  0  0  0  0  0  0
   48.5768    5.1279   16.3898 C   0  0  0  0  0  0  0  0  0  0  0  0
   52.2363    9.2534   13.8395 C   0  0  0  0  0  0  0  0  0  0  0  0
   47.2158    1.2797    6.9827 C   0  0  0  0  0  0  0  0  0  0  0  0
   46.1989    6.8489   11.4344 H   0  0  0  0  0  0  0  0  0  0  0  0
   47.9584    7.9376   15.3944 H   0  0  0  0  0  0  0  0  0  0  0  0
   45.8791    2.5503   11.0152 H   0  0  0  0  0  0  0  0  0  0  0  0
   45.6096    2.9735   13.2180 H   0  0  0  0  0  0  0  0  0  0  0  0
   46.8423    3.6694   15.1910 H   0  0  0  0  0  0  0  0  0  0  0  0
   43.7717    3.3226    9.0328 H   0  0  0  0  0  0  0  0  0  0  0  0
   44.1444    1.6838    9.5617 H   0  0  0  0  0  0  0  0  0  0  0  0
   48.1718   10.3397   15.5646 H   0  0  0  0  0  0  0  0  0  0  0  0
   48.3366   10.4570   13.8128 H   0  0  0  0  0  0  0  0  0  0  0  0
   45.5828    4.6462    7.7362 H   0  0  0  0  0  0  0  0  0  0  0  0
   50.1383    9.9119   16.9547 H   0  0  0  0  0  0  0  0  0  0  0  0
   53.8331    9.2168   15.2860 H   0  0  0  0  0  0  0  0  0  0  0  0
   48.2754    2.4577    5.5192 H   0  0  0  0  0  0  0  0  0  0  0  0
   50.4147    9.3488   12.6963 H   0  0  0  0  0  0  0  0  0  0  0  0
   45.9868    0.4289    8.5240 H   0  0  0  0  0  0  0  0  0  0  0  0
   49.1544    4.4073   15.8009 H   0  0  0  0  0  0  0  0  0  0  0  0
   47.8236    4.6251   17.0044 H   0  0  0  0  0  0  0  0  0  0  0  0
   49.2700    5.6391   17.0650 H   0  0  0  0  0  0  0  0  0  0  0  0
   52.8738    9.0615   12.9837 H   0  0  0  0  0  0  0  0  0  0  0  0
   47.7119    0.3489    6.7319 H   0  0  0  0  0  0  0  0  0  0  0  0
  2  1  1  0
  3  1  2  0
  4  5  1  0
  5  3  1  0
  6  2  1  0
  7  4  1  0
  8  1  1  0
  9  2  2  0
 10  4  2  0
 11 21  2  0
 12 20  2  0
 13 14  1  0
 14  8  2  0
 15 18  1  0
 16 17  1  0
 17  7  1  0
 18  6  1  0
 19  8  1  0
 20 16  1  0
 21 15  1  0
 22 27  2  0
 23 28  2  0
 24 15  2  0
 25 16  2  0
 26 19  1  0
 27 24  1  0
 28 25  1  0
  5 13  2  0
 11 22  1  0
 12 23  1  0
  3 29  1  0
  6 30  1  0
  7 31  1  0
 13 32  1  0
 14 33  1  0
 17 34  1  0
 17 35  1  0
 18 36  1  0
 18 37  1  0
 20 38  1  0
 21 39  1  0
 22 40  1  0
 23 41  1  0
 24 42  1  0
 25 43  1  0
 26 44  1  0
 26 45  1  0
 26 46  1  0
 27 47  1  0
 28 48  1  0
M  END
> <Uni-Dock RESULT> 
ENERGY=   -6.221  LOWER_BOUND=    0.000  UPPER_BOUND=    0.000
INTER + INTRA:          -6.221
INTER:                  -6.221
INTRA:                   0.000
UNBOUND:                 0.000

$$$$

     RDKit          3D

 48 50  0  0  0  0  0  0  0  0999 V2000
   45.3228    8.4370   12.2134 C   0  0  0  0  0  0  0  0  0  0  0  0
   44.8166    9.7449   11.6843 C   0  0  0  0  0  0  0  0  0  0  0  0
   46.5259    8.4842   12.9410 C   0  0  0  0  0  0  0  0  0  0  0  0
   48.3605    7.4251   14.2361 C   0  0  0  0  0  0  0  0  0  0  0  0
   47.0774    7.3226   13.4896 C   0  0  0  0  0  0  0  0  0  0  0  0
   43.8803    9.6978   10.6785 N   0  0  0  0  0  0  0  0  0  0  0  0
   48.5527    6.5072   15.2471 N   0  0  0  0  0  0  0  0  0  0  0  0
   44.6615    7.2022   12.0447 C   0  0  0  0  0  0  0  0  0  0  0  0
   45.2431   10.8003   12.1435 O   0  0  0  0  0  0  0  0  0  0  0  0
   49.1665    8.3040   13.9571 O   0  0  0  0  0  0  0  0  0  0  0  0
   39.4577   10.6936   10.7853 N   0  0  0  0  0  0  0  0  0  0  0  0
   48.9888    9.3410   18.6231 N   0  0  0  0  0  0  0  0  0  0  0  0
   46.4369    6.0970   13.2932 C   0  0  0  0  0  0  0  0  0  0  0  0
   45.2375    6.0389   12.5756 C   0  0  0  0  0  0  0  0  0  0  0  0
   41.8590   11.0262   10.8642 C   0  0  0  0  0  0  0  0  0  0  0  0
   49.3489    7.2719   17.4126 C   0  0  0  0  0  0  0  0  0  0  0  0
   49.7012    6.5923   16.1226 C   0  0  0  0  0  0  0  0  0  0  0  0
   43.1976   10.8770   10.2021 C   0  0  0  0  0  0  0  0  0  0  0  0
   43.4877    7.1897   11.3333 O   0  0  0  0  0  0  0  0  0  0  0  0
   49.3093    8.6607   17.4980 C   0  0  0  0  0  0  0  0  0  0  0  0
   40.6908   10.6091   10.2352 C   0  0  0  0  0  0  0  0  0  0  0  0
   39.3846   11.2212   12.0265 C   0  0  0  0  0  0  0  0  0  0  0  0
   48.6866    8.6066   19.7137 C   0  0  0  0  0  0  0  0  0  0  0  0
   41.7399   11.5557   12.1522 C   0  0  0  0  0  0  0  0  0  0  0  0
   49.0205    6.5464   18.5618 C   0  0  0  0  0  0  0  0  0  0  0  0
   42.6057    6.0921   11.5529 C   0  0  0  0  0  0  0  0  0  0  0  0
   40.4850   11.6599   12.7437 C   0  0  0  0  0  0  0  0  0  0  0  0
   48.6865    7.2220   19.7322 C   0  0  0  0  0  0  0  0  0  0  0  0
   47.0392    9.4363   13.0801 H   0  0  0  0  0  0  0  0  0  0  0  0
   43.4823    8.7924   10.4540 H   0  0  0  0  0  0  0  0  0  0  0  0
   47.7617    5.9737   15.5790 H   0  0  0  0  0  0  0  0  0  0  0  0
   46.8729    5.1724   13.6627 H   0  0  0  0  0  0  0  0  0  0  0  0
   44.7842    5.0630   12.4290 H   0  0  0  0  0  0  0  0  0  0  0  0
   50.5308    7.1127   15.6303 H   0  0  0  0  0  0  0  0  0  0  0  0
   50.0349    5.5661   16.3134 H   0  0  0  0  0  0  0  0  0  0  0  0
   43.0805   10.7672    9.1185 H   0  0  0  0  0  0  0  0  0  0  0  0
   43.8052   11.7726   10.3730 H   0  0  0  0  0  0  0  0  0  0  0  0
   49.5380    9.2845   16.6356 H   0  0  0  0  0  0  0  0  0  0  0  0
   40.7098   10.1775    9.2377 H   0  0  0  0  0  0  0  0  0  0  0  0
   38.3843   11.2834   12.4453 H   0  0  0  0  0  0  0  0  0  0  0  0
   48.4350    9.1799   20.6014 H   0  0  0  0  0  0  0  0  0  0  0  0
   42.6255   11.8828   12.6945 H   0  0  0  0  0  0  0  0  0  0  0  0
   49.0278    5.4597   18.5541 H   0  0  0  0  0  0  0  0  0  0  0  0
   42.4395    5.9158   12.6211 H   0  0  0  0  0  0  0  0  0  0  0  0
   42.9784    5.1913   11.0553 H   0  0  0  0  0  0  0  0  0  0  0  0
   41.6412    6.3461   11.1024 H   0  0  0  0  0  0  0  0  0  0  0  0
   40.3709   12.0722   13.7400 H   0  0  0  0  0  0  0  0  0  0  0  0
   48.4338    6.6831   20.6384 H   0  0  0  0  0  0  0  0  0  0  0  0
  2  1  1  0
  3  1  2  0
  4  5  1  0
  5  3  1  0
  6  2  1  0
  7  4  1  0
  8  1  1  0
  9  2  2  0
 10  4  2  0
 11 21  2  0
 12 20  2  0
 13 14  1  0
 14  8  2  0
 15 18  1  0
 16 17  1  0
 17  7  1  0
 18  6  1  0
 19  8  1  0
 20 16  1  0
 21 15  1  0
 22 27  2  0
 23 28  2  0
 24 15  2  0
 25 16  2  0
 26 19  1  0
 27 24  1  0
 28 25  1  0
  5 13  2  0
 11 22  1  0
 12 23  1  0
  3 29  1  0
  6 30  1  0
  7 31  1  0
 13 32  1  0
 14 33  1  0
 17 34  1  0
 17 35  1  0
 18 36  1  0
 18 37  1  0
 20 38  1  0
 21 39  1  0
 22 40  1  0
 23 41  1  0
 24 42  1  0
 25 43  1  0
 26 44  1  0
 26 45  1  0
 26 46  1  0
 27 47  1  0
 28 48  1  0
M  END
> <Uni-Dock RESULT> 
ENERGY=   -4.539  LOWER_BOUND=    4.569  UPPER_BOUND=    9.066
INTER + INTRA:          -4.539
INTER:                  -4.539
INTRA:                   0.000
UNBOUND:                 0.000

$$$$

     RDKit          3D

 48 50  0  0  0  0  0  0  0  0999 V2000
   50.1215    7.8026   12.6608 C   0  0  0  0  0  0  0  0  0  0  0  0
   51.2151    8.0002   11.6548 C   0  0  0  0  0  0  0  0  0  0  0  0
   48.8152    7.7041   12.1480 C   0  0  0  0  0  0  0  0  0  0  0  0
   46.3617    7.4246   12.4075 C   0  0  0  0  0  0  0  0  0  0  0  0
   47.7244    7.5051   12.9996 C   0  0  0  0  0  0  0  0  0  0  0  0
   52.4216    8.4680   12.1195 N   0  0  0  0  0  0  0  0  0  0  0  0
   45.4486    6.6427   13.0830 N   0  0  0  0  0  0  0  0  0  0  0  0
   50.3319    7.6893   14.0513 C   0  0  0  0  0  0  0  0  0  0  0  0
   51.0121    7.7535   10.4697 O   0  0  0  0  0  0  0  0  0  0  0  0
   46.1083    8.0131   11.3638 O   0  0  0  0  0  0  0  0  0  0  0  0
   56.3922    6.3206   12.5499 N   0  0  0  0  0  0  0  0  0  0  0  0
   44.5511    3.7515    9.8499 N   0  0  0  0  0  0  0  0  0  0  0  0
   47.9327    7.4257   14.3785 C   0  0  0  0  0  0  0  0  0  0  0  0
   49.2280    7.5174   14.8990 C   0  0  0  0  0  0  0  0  0  0  0  0
   54.4693    7.3373   11.4766 C   0  0  0  0  0  0  0  0  0  0  0  0
   44.0892    5.0574   11.8392 C   0  0  0  0  0  0  0  0  0  0  0  0
   44.1353    6.3867   12.5329 C   0  0  0  0  0  0  0  0  0  0  0  0
   53.5958    8.5422   11.2832 C   0  0  0  0  0  0  0  0  0  0  0  0
   51.6183    7.7857   14.5201 O   0  0  0  0  0  0  0  0  0  0  0  0
   44.5509    4.9195   10.5333 C   0  0  0  0  0  0  0  0  0  0  0  0
   55.5790    7.3757   12.3142 C   0  0  0  0  0  0  0  0  0  0  0  0
   56.0840    5.1672   11.9183 C   0  0  0  0  0  0  0  0  0  0  0  0
   44.0764    2.6671   10.4971 C   0  0  0  0  0  0  0  0  0  0  0  0
   54.1795    6.1211   10.8517 C   0  0  0  0  0  0  0  0  0  0  0  0
   43.6135    3.9088   12.4788 C   0  0  0  0  0  0  0  0  0  0  0  0
   51.8877    7.2222   15.8010 C   0  0  0  0  0  0  0  0  0  0  0  0
   54.9993    5.0186   11.0704 C   0  0  0  0  0  0  0  0  0  0  0  0
   43.6033    2.6944   11.7983 C   0  0  0  0  0  0  0  0  0  0  0  0
   48.6461    7.7849   11.0737 H   0  0  0  0  0  0  0  0  0  0  0  0
   52.5479    8.5142   13.1247 H   0  0  0  0  0  0  0  0  0  0  0  0
   45.7822    6.0031   13.7902 H   0  0  0  0  0  0  0  0  0  0  0  0
   47.0967    7.3257   15.0657 H   0  0  0  0  0  0  0  0  0  0  0  0
   49.3423    7.4714   15.9780 H   0  0  0  0  0  0  0  0  0  0  0  0
   43.8358    7.1869   11.8465 H   0  0  0  0  0  0  0  0  0  0  0  0
   43.4290    6.4019   13.3706 H   0  0  0  0  0  0  0  0  0  0  0  0
   54.1333    9.4554   11.5609 H   0  0  0  0  0  0  0  0  0  0  0  0
   53.3152    8.6396   10.2285 H   0  0  0  0  0  0  0  0  0  0  0  0
   44.9494    5.7709    9.9842 H   0  0  0  0  0  0  0  0  0  0  0  0
   55.8572    8.2847   12.8414 H   0  0  0  0  0  0  0  0  0  0  0  0
   56.7537    4.3358   12.1189 H   0  0  0  0  0  0  0  0  0  0  0  0
   44.0877    1.7449    9.9232 H   0  0  0  0  0  0  0  0  0  0  0  0
   53.3131    6.0334   10.1981 H   0  0  0  0  0  0  0  0  0  0  0  0
   43.2459    3.9533   13.5005 H   0  0  0  0  0  0  0  0  0  0  0  0
   51.4969    6.2023   15.8831 H   0  0  0  0  0  0  0  0  0  0  0  0
   51.4940    7.8633   16.5958 H   0  0  0  0  0  0  0  0  0  0  0  0
   52.9746    7.1738   15.9203 H   0  0  0  0  0  0  0  0  0  0  0  0
   54.7943    4.0678   10.5913 H   0  0  0  0  0  0  0  0  0  0  0  0
   43.2342    1.7904   12.2694 H   0  0  0  0  0  0  0  0  0  0  0  0
  2  1  1  0
  3  1  2  0
  4  5  1  0
  5  3  1  0
  6  2  1  0
  7  4  1  0
  8  1  1  0
  9  2  2  0
 10  4  2  0
 11 21  2  0
 12 20  2  0
 13 14  1  0
 14  8  2  0
 15 18  1  0
 16 17  1  0
 17  7  1  0
 18  6  1  0
 19  8  1  0
 20 16  1  0
 21 15  1  0
 22 27  2  0
 23 28  2  0
 24 15  2  0
 25 16  2  0
 26 19  1  0
 27 24  1  0
 28 25  1  0
  5 13  2  0
 11 22  1  0
 12 23  1  0
  3 29  1  0
  6 30  1  0
  7 31  1  0
 13 32  1  0
 14 33  1  0
 17 34  1  0
 17 35  1  0
 18 36  1  0
 18 37  1  0
 20 38  1  0
 21 39  1  0
 22 40  1  0
 23 41  1  0
 24 42  1  0
 25 43  1  0
 26 44  1  0
 26 45  1  0
 26 46  1  0
 27 47  1  0
 28 48  1  0
M  END
> <Uni-Dock RESULT> 
ENERGY=   -4.496  LOWER_BOUND=    3.240  UPPER_BOUND=    4.816
INTER + INTRA:          -4.496
INTER:                  -4.496
INTRA:                   0.000
UNBOUND:                 0.000

$$$$

     RDKit          3D

 48 50  0  0  0  0  0  0  0  0999 V2000
   49.0369    7.1044   17.0571 C   0  0  0  0  0  0  0  0  0  0  0  0
   49.5600    6.1295   18.0684 C   0  0  0  0  0  0  0  0  0  0  0  0
   48.7228    6.5785   15.7907 C   0  0  0  0  0  0  0  0  0  0  0  0
   47.9147    6.7965   13.4531 C   0  0  0  0  0  0  0  0  0  0  0  0
   48.2148    7.3998   14.7797 C   0  0  0  0  0  0  0  0  0  0  0  0
   50.2177    6.6458   19.1599 N   0  0  0  0  0  0  0  0  0  0  0  0
   46.8948    7.3826   12.7335 N   0  0  0  0  0  0  0  0  0  0  0  0
   48.8271    8.4764   17.3106 C   0  0  0  0  0  0  0  0  0  0  0  0
   49.4002    4.9242   17.9002 O   0  0  0  0  0  0  0  0  0  0  0  0
   48.5422    5.8189   13.0653 O   0  0  0  0  0  0  0  0  0  0  0  0
   48.9089    6.8669   23.4959 N   0  0  0  0  0  0  0  0  0  0  0  0
   44.2295    3.8611   12.3976 N   0  0  0  0  0  0  0  0  0  0  0  0
   48.0387    8.7637   15.0240 C   0  0  0  0  0  0  0  0  0  0  0  0
   48.3431    9.2966   16.2811 C   0  0  0  0  0  0  0  0  0  0  0  0
   49.6093    5.8973   21.3858 C   0  0  0  0  0  0  0  0  0  0  0  0
   45.1987    5.9739   11.7102 C   0  0  0  0  0  0  0  0  0  0  0  0
   46.4298    6.8030   11.4923 C   0  0  0  0  0  0  0  0  0  0  0  0
   50.6199    5.8271   20.2785 C   0  0  0  0  0  0  0  0  0  0  0  0
   49.1396    8.9584   18.5571 O   0  0  0  0  0  0  0  0  0  0  0  0
   45.2952    4.6628   12.1676 C   0  0  0  0  0  0  0  0  0  0  0  0
   49.7907    6.7392   22.4778 C   0  0  0  0  0  0  0  0  0  0  0  0
   47.7880    6.1168   23.4221 C   0  0  0  0  0  0  0  0  0  0  0  0
   43.0093    4.3893   12.1689 C   0  0  0  0  0  0  0  0  0  0  0  0
   48.4306    5.1474   21.3431 C   0  0  0  0  0  0  0  0  0  0  0  0
   43.9166    6.4878   11.4937 C   0  0  0  0  0  0  0  0  0  0  0  0
   48.5152   10.1745   18.9596 C   0  0  0  0  0  0  0  0  0  0  0  0
   47.5057    5.2533   22.3770 C   0  0  0  0  0  0  0  0  0  0  0  0
   42.8034    5.6841   11.7233 C   0  0  0  0  0  0  0  0  0  0  0  0
   48.8771    5.5178   15.5899 H   0  0  0  0  0  0  0  0  0  0  0  0
   50.1852    7.6509   19.2913 H   0  0  0  0  0  0  0  0  0  0  0  0
   46.2690    8.0205   13.2045 H   0  0  0  0  0  0  0  0  0  0  0  0
   47.6969    9.4330   14.2388 H   0  0  0  0  0  0  0  0  0  0  0  0
   48.2108   10.3654   16.4212 H   0  0  0  0  0  0  0  0  0  0  0  0
   47.2168    6.2026   11.0217 H   0  0  0  0  0  0  0  0  0  0  0  0
   46.2115    7.6345   10.8127 H   0  0  0  0  0  0  0  0  0  0  0  0
   51.5912    6.2010   20.6202 H   0  0  0  0  0  0  0  0  0  0  0  0
   50.7652    4.7871   19.9655 H   0  0  0  0  0  0  0  0  0  0  0  0
   46.2628    4.2075   12.3717 H   0  0  0  0  0  0  0  0  0  0  0  0
   50.6783    7.3597   22.5711 H   0  0  0  0  0  0  0  0  0  0  0  0
   47.0977    6.2324   24.2527 H   0  0  0  0  0  0  0  0  0  0  0  0
   42.1738    3.7222   12.3609 H   0  0  0  0  0  0  0  0  0  0  0  0
   48.2328    4.4845   20.5023 H   0  0  0  0  0  0  0  0  0  0  0  0
   43.7782    7.5069   11.1427 H   0  0  0  0  0  0  0  0  0  0  0  0
   47.4335   10.1479   18.7899 H   0  0  0  0  0  0  0  0  0  0  0  0
   48.9751   11.0303   18.4556 H   0  0  0  0  0  0  0  0  0  0  0  0
   48.6815   10.2930   20.0349 H   0  0  0  0  0  0  0  0  0  0  0  0
   46.5877    4.6766   22.3649 H   0  0  0  0  0  0  0  0  0  0  0  0
   41.7988    6.0565   11.5575 H   0  0  0  0  0  0  0  0  0  0  0  0
  2  1  1  0
  3  1  2  0
  4  5  1  0
  5  3  1  0
  6  2  1  0
  7  4  1  0
  8  1  1  0
  9  2  2  0
 10  4  2  0
 11 21  2  0
 12 20  2  0
 13 14  1  0
 14  8  2  0
 15 18  1  0
 16 17  1  0
 17  7  1  0
 18  6  1  0
 19  8  1  0
 20 16  1  0
 21 15  1  0
 22 27  2  0
 23 28  2  0
 24 15  2  0
 25 16  2  0
 26 19  1  0
 27 24  1  0
 28 25  1  0
  5 13  2  0
 11 22  1  0
 12 23  1  0
  3 29  1  0
  6 30  1  0
  7 31  1  0
 13 32  1  0
 14 33  1  0
 17 34  1  0
 17 35  1  0
 18 36  1  0
 18 37  1  0
 20 38  1  0
 21 39  1  0
 22 40  1  0
 23 41  1  0
 24 42  1  0
 25 43  1  0
 26 44  1  0
 26 45  1  0
 26 46  1  0
 27 47  1  0
 28 48  1  0
M  END
> <Uni-Dock RESULT> 
ENERGY=   -4.371  LOWER_BOUND=    3.766  UPPER_BOUND=    6.454
INTER + INTRA:          -4.371
INTER:                  -4.371
INTRA:                   0.000
UNBOUND:                 0.000

$$$$

     RDKit          3D

 48 50  0  0  0  0  0  0  0  0999 V2000
   49.3434    9.8838   11.3975 C   0  0  0  0  0  0  0  0  0  0  0  0
   48.9692   11.2372   10.8731 C   0  0  0  0  0  0  0  0  0  0  0  0
   48.3548    9.2076   12.1355 C   0  0  0  0  0  0  0  0  0  0  0  0
   47.5230    7.2689   13.4448 C   0  0  0  0  0  0  0  0  0  0  0  0
   48.5965    7.9333   12.6574 C   0  0  0  0  0  0  0  0  0  0  0  0
   49.9938   12.0684   10.4863 N   0  0  0  0  0  0  0  0  0  0  0  0
   47.4983    5.8908   13.4005 N   0  0  0  0  0  0  0  0  0  0  0  0
   50.5901    9.2621   11.1746 C   0  0  0  0  0  0  0  0  0  0  0  0
   47.7886   11.5669   10.8095 O   0  0  0  0  0  0  0  0  0  0  0  0
   46.7089    7.9412   14.0655 O   0  0  0  0  0  0  0  0  0  0  0  0
   51.2506   13.3812    6.3318 N   0  0  0  0  0  0  0  0  0  0  0  0
   43.4398    5.3678   11.7057 N   0  0  0  0  0  0  0  0  0  0  0  0
   49.8432    7.3343   12.4623 C   0  0  0  0  0  0  0  0  0  0  0  0
   50.8318    7.9954   11.7258 C   0  0  0  0  0  0  0  0  0  0  0  0
   49.8885   13.1702    8.3276 C   0  0  0  0  0  0  0  0  0  0  0  0
   45.3874    4.7507   13.0103 C   0  0  0  0  0  0  0  0  0  0  0  0
   46.4249    5.1443   14.0197 C   0  0  0  0  0  0  0  0  0  0  0  0
   49.7587   13.3243    9.8148 C   0  0  0  0  0  0  0  0  0  0  0  0
   51.5323    9.9459   10.4474 O   0  0  0  0  0  0  0  0  0  0  0  0
   44.3990    5.6489   12.6179 C   0  0  0  0  0  0  0  0  0  0  0  0
   51.0607   13.5171    7.6644 C   0  0  0  0  0  0  0  0  0  0  0  0
   50.2190   12.8734    5.6231 C   0  0  0  0  0  0  0  0  0  0  0  0
   43.4677    4.1380   11.1518 C   0  0  0  0  0  0  0  0  0  0  0  0
   48.8500   12.6378    7.5584 C   0  0  0  0  0  0  0  0  0  0  0  0
   45.3880    3.4896   12.4067 C   0  0  0  0  0  0  0  0  0  0  0  0
   52.5652    9.1779    9.8357 C   0  0  0  0  0  0  0  0  0  0  0  0
   49.0129   12.4895    6.1846 C   0  0  0  0  0  0  0  0  0  0  0  0
   44.4124    3.1751   11.4647 C   0  0  0  0  0  0  0  0  0  0  0  0
   47.3869    9.6799   12.3066 H   0  0  0  0  0  0  0  0  0  0  0  0
   50.9255   11.6703   10.4414 H   0  0  0  0  0  0  0  0  0  0  0  0
   48.0374    5.4155   12.6907 H   0  0  0  0  0  0  0  0  0  0  0  0
   50.0748    6.3683   12.9033 H   0  0  0  0  0  0  0  0  0  0  0  0
   51.7933    7.5024   11.6161 H   0  0  0  0  0  0  0  0  0  0  0  0
   45.9679    5.7184   14.8339 H   0  0  0  0  0  0  0  0  0  0  0  0
   46.8740    4.2518   14.4698 H   0  0  0  0  0  0  0  0  0  0  0  0
   50.4992   14.0371   10.1936 H   0  0  0  0  0  0  0  0  0  0  0  0
   48.7690   13.7203   10.0683 H   0  0  0  0  0  0  0  0  0  0  0  0
   44.3520    6.6526   13.0369 H   0  0  0  0  0  0  0  0  0  0  0  0
   51.9130   13.9262    8.2008 H   0  0  0  0  0  0  0  0  0  0  0  0
   50.3930   12.7783    4.5551 H   0  0  0  0  0  0  0  0  0  0  0  0
   42.6850    3.9410   10.4247 H   0  0  0  0  0  0  0  0  0  0  0  0
   47.9168   12.3358    8.0311 H   0  0  0  0  0  0  0  0  0  0  0  0
   46.1386    2.7485   12.6681 H   0  0  0  0  0  0  0  0  0  0  0  0
   52.1591    8.3251    9.2812 H   0  0  0  0  0  0  0  0  0  0  0  0
   53.2987    8.8540   10.5807 H   0  0  0  0  0  0  0  0  0  0  0  0
   53.0813    9.8259    9.1205 H   0  0  0  0  0  0  0  0  0  0  0  0
   48.2177   12.0831    5.5698 H   0  0  0  0  0  0  0  0  0  0  0  0
   44.3871    2.2025   10.9865 H   0  0  0  0  0  0  0  0  0  0  0  0
  2  1  1  0
  3  1  2  0
  4  5  1  0
  5  3  1  0
  6  2  1  0
  7  4  1  0
  8  1  1  0
  9  2  2  0
 10  4  2  0
 11 21  2  0
 12 20  2  0
 13 14  1  0
 14  8  2  0
 15 18  1  0
 16 17  1  0
 17  7  1  0
 18  6  1  0
 19  8  1  0
 20 16  1  0
 21 15  1  0
 22 27  2  0
 23 28  2  0
 24 15  2  0
 25 16  2  0
 26 19  1  0
 27 24  1  0
 28 25  1  0
  5 13  2  0
 11 22  1  0
 12 23  1  0
  3 29  1  0
  6 30  1  0
  7 31  1  0
 13 32  1  0
 14 33  1  0
 17 34  1  0
 17 35  1  0
 18 36  1  0
 18 37  1  0
 20 38  1  0
 21 39  1  0
 22 40  1  0
 23 41  1  0
 24 42  1  0
 25 43  1  0
 26 44  1  0
 26 45  1  0
 26 46  1  0
 27 47  1  0
 28 48  1  0
M  END
> <Uni-Dock RESULT> 
ENERGY=   -4.311  LOWER_BOUND=    4.594  UPPER_BOUND=    6.461
INTER + INTRA:          -4.311
INTER:                  -4.311
INTRA:                   0.000
UNBOUND:                 0.000

$$$$

     RDKit          3D

 48 50  0  0  0  0  0  0  0  0999 V2000
   46.2762   10.0453   12.1324 C   0  0  0  0  0  0  0  0  0  0  0  0
   46.9412   11.3878   12.0847 C   0  0  0  0  0  0  0  0  0  0  0  0
   47.0707    8.9732   12.5781 C   0  0  0  0  0  0  0  0  0  0  0  0
   47.4311    6.5804   13.1346 C   0  0  0  0  0  0  0  0  0  0  0  0
   46.5434    7.6819   12.6733 C   0  0  0  0  0  0  0  0  0  0  0  0
   46.3413   12.3612   11.3211 N   0  0  0  0  0  0  0  0  0  0  0  0
   46.8177    5.5430   13.8047 N   0  0  0  0  0  0  0  0  0  0  0  0
   44.9281    9.8135   11.7867 C   0  0  0  0  0  0  0  0  0  0  0  0
   47.9821   11.5806   12.7058 O   0  0  0  0  0  0  0  0  0  0  0  0
   48.6380    6.6378   12.9346 O   0  0  0  0  0  0  0  0  0  0  0  0
   44.1241   16.1009   12.6100 N   0  0  0  0  0  0  0  0  0  0  0  0
   49.0125    5.8580   17.6389 N   0  0  0  0  0  0  0  0  0  0  0  0
   45.2176    7.4501   12.2996 C   0  0  0  0  0  0  0  0  0  0  0  0
   44.4170    8.5095   11.8597 C   0  0  0  0  0  0  0  0  0  0  0  0
   45.9683   14.5628   12.2691 C   0  0  0  0  0  0  0  0  0  0  0  0
   47.7881    4.7274   15.8786 C   0  0  0  0  0  0  0  0  0  0  0  0
   47.5951    4.4843   14.4110 C   0  0  0  0  0  0  0  0  0  0  0  0
   46.7897   13.7332   11.3260 C   0  0  0  0  0  0  0  0  0  0  0  0
   44.1780   10.8805   11.3593 O   0  0  0  0  0  0  0  0  0  0  0  0
   48.7879    5.5826   16.3331 C   0  0  0  0  0  0  0  0  0  0  0  0
   44.9166   15.3494   11.8115 C   0  0  0  0  0  0  0  0  0  0  0  0
   44.3934   16.0669   13.9331 C   0  0  0  0  0  0  0  0  0  0  0  0
   48.2008    5.2607   18.5357 C   0  0  0  0  0  0  0  0  0  0  0  0
   46.2056   14.5474   13.6464 C   0  0  0  0  0  0  0  0  0  0  0  0
   46.9620    4.1349   16.8384 C   0  0  0  0  0  0  0  0  0  0  0  0
   42.7615   10.7625   11.4617 C   0  0  0  0  0  0  0  0  0  0  0  0
   45.4106   15.3129   14.4936 C   0  0  0  0  0  0  0  0  0  0  0  0
   47.1714    4.4020   18.1885 C   0  0  0  0  0  0  0  0  0  0  0  0
   48.1118    9.1464   12.8524 H   0  0  0  0  0  0  0  0  0  0  0  0
   45.4168   12.1625   10.9546 H   0  0  0  0  0  0  0  0  0  0  0  0
   45.8741    5.6701   14.1423 H   0  0  0  0  0  0  0  0  0  0  0  0
   44.8000    6.4468   12.3128 H   0  0  0  0  0  0  0  0  0  0  0  0
   43.3986    8.2812   11.5595 H   0  0  0  0  0  0  0  0  0  0  0  0
   48.5642    4.3747   13.9108 H   0  0  0  0  0  0  0  0  0  0  0  0
   47.0443    3.5506   14.2505 H   0  0  0  0  0  0  0  0  0  0  0  0
   46.6945   14.1082   10.3012 H   0  0  0  0  0  0  0  0  0  0  0  0
   47.8500   13.7937   11.5956 H   0  0  0  0  0  0  0  0  0  0  0  0
   49.4549    6.0889   15.6374 H   0  0  0  0  0  0  0  0  0  0  0  0
   44.6679   15.4004   10.7545 H   0  0  0  0  0  0  0  0  0  0  0  0
   43.7474   16.6817   14.5533 H   0  0  0  0  0  0  0  0  0  0  0  0
   48.4059    5.4996   19.5753 H   0  0  0  0  0  0  0  0  0  0  0  0
   47.0071   13.9361   14.0578 H   0  0  0  0  0  0  0  0  0  0  0  0
   46.1604    3.4630   16.5434 H   0  0  0  0  0  0  0  0  0  0  0  0
   42.4563   10.4190   12.4559 H   0  0  0  0  0  0  0  0  0  0  0  0
   42.3708   10.1063   10.6778 H   0  0  0  0  0  0  0  0  0  0  0  0
   42.3335   11.7577   11.3063 H   0  0  0  0  0  0  0  0  0  0  0  0
   45.5815   15.3183   15.5643 H   0  0  0  0  0  0  0  0  0  0  0  0
   46.5488    3.9507   18.9528 H   0  0  0  0  0  0  0  0  0  0  0  0
  2  1  1  0
  3  1  2  0
  4  5  1  0
  5  3  1  0
  6  2  1  0
  7  4  1  0
  8  1  1  0
  9  2  2  0
 10  4  2  0
 11 21  2  0
 12 20  2  0
 13 14  1  0
 14  8  2  0
 15 18  1  0
 16 17  1  0
 17  7  1  0
 18  6  1  0
 19  8  1  0
 20 16  1  0
 21 15  1  0
 22 27  2  0
 23 28  2  0
 24 15  2  0
 25 16  2  0
 26 19  1  0
 27 24  1  0
 28 25  1  0
  5 13  2  0
 11 22  1  0
 12 23  1  0
  3 29  1  0
  6 30  1  0
  7 31  1  0
 13 32  1  0
 14 33  1  0
 17 34  1  0
 17 35  1  0
 18 36  1  0
 18 37  1  0
 20 38  1  0
 21 39  1  0
 22 40  1  0
 23 41  1  0
 24 42  1  0
 25 43  1  0
 26 44  1  0
 26 45  1  0
 26 46  1  0
 27 47  1  0
 28 48  1  0
M  END
> <Uni-Dock RESULT> 
ENERGY=   -4.205  LOWER_BOUND=    4.581  UPPER_BOUND=    7.535
INTER + INTRA:          -4.205
INTER:                  -4.205
INTRA:                   0.000
UNBOUND:                 0.000

$$$$

     RDKit          3D

 48 50  0  0  0  0  0  0  0  0999 V2000
   48.1537    8.0525   12.3973 C   0  0  0  0  0  0  0  0  0  0  0  0
   47.8597    6.6604   12.8687 C   0  0  0  0  0  0  0  0  0  0  0  0
   49.4761    8.3045   11.9889 C   0  0  0  0  0  0  0  0  0  0  0  0
   51.2680    9.7845   11.1150 C   0  0  0  0  0  0  0  0  0  0  0  0
   49.8527    9.5662   11.5187 C   0  0  0  0  0  0  0  0  0  0  0  0
   46.7176    6.4747   13.6114 N   0  0  0  0  0  0  0  0  0  0  0  0
   51.4823   10.7205   10.1252 N   0  0  0  0  0  0  0  0  0  0  0  0
   47.1951    9.0849   12.3217 C   0  0  0  0  0  0  0  0  0  0  0  0
   48.6282    5.7434   12.5947 O   0  0  0  0  0  0  0  0  0  0  0  0
   52.1644    9.1332   11.6366 O   0  0  0  0  0  0  0  0  0  0  0  0
   42.8362    4.4131   12.4946 N   0  0  0  0  0  0  0  0  0  0  0  0
   53.4197    8.0806    7.1427 N   0  0  0  0  0  0  0  0  0  0  0  0
   48.9087   10.5949   11.4755 C   0  0  0  0  0  0  0  0  0  0  0  0
   47.5897   10.3543   11.8746 C   0  0  0  0  0  0  0  0  0  0  0  0
   45.1875    4.6863   13.0237 C   0  0  0  0  0  0  0  0  0  0  0  0
   52.9567   10.1754    8.2713 C   0  0  0  0  0  0  0  0  0  0  0  0
   52.7998   10.9222    9.5628 C   0  0  0  0  0  0  0  0  0  0  0  0
   46.2404    5.1634   13.9808 C   0  0  0  0  0  0  0  0  0  0  0  0
   45.9126    8.8066   12.7237 O   0  0  0  0  0  0  0  0  0  0  0  0
   53.2742    8.8201    8.2667 C   0  0  0  0  0  0  0  0  0  0  0  0
   43.8339    4.8013   13.3218 C   0  0  0  0  0  0  0  0  0  0  0  0
   43.2062    3.8829   11.3088 C   0  0  0  0  0  0  0  0  0  0  0  0
   53.2343    8.7162    5.9673 C   0  0  0  0  0  0  0  0  0  0  0  0
   45.5266    4.1428   11.7814 C   0  0  0  0  0  0  0  0  0  0  0  0
   52.7637   10.7958    7.0334 C   0  0  0  0  0  0  0  0  0  0  0  0
   44.8775    9.6509   12.2273 C   0  0  0  0  0  0  0  0  0  0  0  0
   44.5235    3.7302   10.9101 C   0  0  0  0  0  0  0  0  0  0  0  0
   52.9069   10.0576    5.8619 C   0  0  0  0  0  0  0  0  0  0  0  0
   50.2207    7.5094   12.0392 H   0  0  0  0  0  0  0  0  0  0  0  0
   46.0708    7.2533   13.6747 H   0  0  0  0  0  0  0  0  0  0  0  0
   50.6961   11.0409    9.5779 H   0  0  0  0  0  0  0  0  0  0  0  0
   49.1887   11.5983   11.1656 H   0  0  0  0  0  0  0  0  0  0  0  0
   46.8938   11.1875   11.8445 H   0  0  0  0  0  0  0  0  0  0  0  0
   53.5787   10.6242   10.2740 H   0  0  0  0  0  0  0  0  0  0  0  0
   52.9145   11.9989    9.3945 H   0  0  0  0  0  0  0  0  0  0  0  0
   45.8318    5.2417   14.9942 H   0  0  0  0  0  0  0  0  0  0  0  0
   47.0679    4.4464   14.0198 H   0  0  0  0  0  0  0  0  0  0  0  0
   53.4213    8.2732    9.1965 H   0  0  0  0  0  0  0  0  0  0  0  0
   43.4974    5.2250   14.2646 H   0  0  0  0  0  0  0  0  0  0  0  0
   42.3885    3.5742   10.6639 H   0  0  0  0  0  0  0  0  0  0  0  0
   53.3591    8.0977    5.0830 H   0  0  0  0  0  0  0  0  0  0  0  0
   46.5718    4.0451   11.4927 H   0  0  0  0  0  0  0  0  0  0  0  0
   52.5080   11.8504    6.9740 H   0  0  0  0  0  0  0  0  0  0  0  0
   44.9479    9.7797   11.1418 H   0  0  0  0  0  0  0  0  0  0  0  0
   44.8858   10.6164   12.7428 H   0  0  0  0  0  0  0  0  0  0  0  0
   43.9207    9.1660   12.4446 H   0  0  0  0  0  0  0  0  0  0  0  0
   44.7659    3.3017    9.9440 H   0  0  0  0  0  0  0  0  0  0  0  0
   52.7684   10.5162    4.8893 H   0  0  0  0  0  0  0  0  0  0  0  0
  2  1  1  0
  3  1  2  0
  4  5  1  0
  5  3  1  0
  6  2  1  0
  7  4  1  0
  8  1  1  0
  9  2  2  0
 10  4  2  0
 11 21  2  0
 12 20  2  0
 13 14  1  0
 14  8  2  0
 15 18  1  0
 16 17  1  0
 17  7  1  0
 18  6  1  0
 19  8  1  0
 20 16  1  0
 21 15  1  0
 22 27  2  0
 23 28  2  0
 24 15  2  0
 25 16  2  0
 26 19  1  0
 27 24  1  0
 28 25  1  0
  5 13  2  0
 11 22  1  0
 12 23  1  0
  3 29  1  0
  6 30  1  0
  7 31  1  0
 13 32  1  0
 14 33  1  0
 17 34  1  0
 17 35  1  0
 18 36  1  0
 18 37  1  0
 20 38  1  0
 21 39  1  0
 22 40  1  0
 23 41  1  0
 24 42  1  0
 25 43  1  0
 26 44  1  0
 26 45  1  0
 26 46  1  0
 27 47  1  0
 28 48  1  0
M  END
> <Uni-Dock RESULT> 
ENERGY=   -4.096  LOWER_BOUND=    4.135  UPPER_BOUND=    7.978
INTER + INTRA:          -4.096
INTER:                  -4.096
INTRA:                   0.000
UNBOUND:                 0.000

$$$$

     RDKit          3D

 48 50  0  0  0  0  0  0  0  0999 V2000
   46.9667    8.7827   13.5475 C   0  0  0  0  0  0  0  0  0  0  0  0
   48.0062    9.3942   14.4376 C   0  0  0  0  0  0  0  0  0  0  0  0
   46.1271    9.6808   12.8636 C   0  0  0  0  0  0  0  0  0  0  0  0
   44.2616   10.2065   11.3117 C   0  0  0  0  0  0  0  0  0  0  0  0
   45.1335    9.2148   11.9976 C   0  0  0  0  0  0  0  0  0  0  0  0
   48.5796    8.5817   15.3870 N   0  0  0  0  0  0  0  0  0  0  0  0
   43.7739    9.8377   10.0757 N   0  0  0  0  0  0  0  0  0  0  0  0
   46.8080    7.3951   13.3479 C   0  0  0  0  0  0  0  0  0  0  0  0
   48.3087   10.5765   14.3072 O   0  0  0  0  0  0  0  0  0  0  0  0
   44.0318   11.2898   11.8347 O   0  0  0  0  0  0  0  0  0  0  0  0
   52.7723    6.8656   15.5845 N   0  0  0  0  0  0  0  0  0  0  0  0
   45.5300   13.1217    7.6780 N   0  0  0  0  0  0  0  0  0  0  0  0
   44.9581    7.8396   11.8271 C   0  0  0  0  0  0  0  0  0  0  0  0
   45.7904    6.9375   12.4983 C   0  0  0  0  0  0  0  0  0  0  0  0
   50.9950    8.5161   15.6025 C   0  0  0  0  0  0  0  0  0  0  0  0
   43.9022   11.4119    8.2281 C   0  0  0  0  0  0  0  0  0  0  0  0
   43.0248   10.7698    9.2616 C   0  0  0  0  0  0  0  0  0  0  0  0
   49.7028    9.0040   16.1893 C   0  0  0  0  0  0  0  0  0  0  0  0
   47.6451    6.5448   14.0264 O   0  0  0  0  0  0  0  0  0  0  0  0
   44.7062   12.5005    8.5537 C   0  0  0  0  0  0  0  0  0  0  0  0
   51.6208    7.3710   16.0835 C   0  0  0  0  0  0  0  0  0  0  0  0
   53.3293    7.5359   14.5526 C   0  0  0  0  0  0  0  0  0  0  0  0
   45.5618   12.6339    6.4206 C   0  0  0  0  0  0  0  0  0  0  0  0
   51.5987    9.1728   14.5264 C   0  0  0  0  0  0  0  0  0  0  0  0
   43.9701   10.9302    6.9173 C   0  0  0  0  0  0  0  0  0  0  0  0
   47.8081    5.2321   13.4962 C   0  0  0  0  0  0  0  0  0  0  0  0
   52.7858    8.6803   13.9937 C   0  0  0  0  0  0  0  0  0  0  0  0
   44.8101   11.5509    5.9969 C   0  0  0  0  0  0  0  0  0  0  0  0
   46.2481   10.7548   13.0088 H   0  0  0  0  0  0  0  0  0  0  0  0
   48.3750    7.5897   15.3369 H   0  0  0  0  0  0  0  0  0  0  0  0
   44.1886    9.0468    9.6034 H   0  0  0  0  0  0  0  0  0  0  0  0
   44.1584    7.4508   11.2021 H   0  0  0  0  0  0  0  0  0  0  0  0
   45.6058    5.8771   12.3531 H   0  0  0  0  0  0  0  0  0  0  0  0
   42.5442   11.5339    9.8834 H   0  0  0  0  0  0  0  0  0  0  0  0
   42.2235   10.2000    8.7778 H   0  0  0  0  0  0  0  0  0  0  0  0
   49.5563    8.5911   17.1934 H   0  0  0  0  0  0  0  0  0  0  0  0
   49.7209   10.0951   16.2875 H   0  0  0  0  0  0  0  0  0  0  0  0
   44.7131   12.9141    9.5607 H   0  0  0  0  0  0  0  0  0  0  0  0
   51.2017    6.8037   16.9106 H   0  0  0  0  0  0  0  0  0  0  0  0
   54.2552    7.1143   14.1722 H   0  0  0  0  0  0  0  0  0  0  0  0
   46.2306   13.1535    5.7404 H   0  0  0  0  0  0  0  0  0  0  0  0
   51.1413   10.0652   14.1023 H   0  0  0  0  0  0  0  0  0  0  0  0
   43.3704   10.0791    6.6061 H   0  0  0  0  0  0  0  0  0  0  0  0
   48.0286    5.2549   12.4236 H   0  0  0  0  0  0  0  0  0  0  0  0
   46.9271    4.6180   13.7073 H   0  0  0  0  0  0  0  0  0  0  0  0
   48.6626    4.7732   14.0030 H   0  0  0  0  0  0  0  0  0  0  0  0
   53.2723    9.1779   13.1622 H   0  0  0  0  0  0  0  0  0  0  0  0
   44.8767   11.2007    4.9731 H   0  0  0  0  0  0  0  0  0  0  0  0
  2  1  1  0
  3  1  2  0
  4  5  1  0
  5  3  1  0
  6  2  1  0
  7  4  1  0
  8  1  1  0
  9  2  2  0
 10  4  2  0
 11 21  2  0
 12 20  2  0
 13 14  1  0
 14  8  2  0
 15 18  1  0
 16 17  1  0
 17  7  1  0
 18  6  1  0
 19  8  1  0
 20 16  1  0
 21 15  1  0
 22 27  2  0
 23 28  2  0
 24 15  2  0
 25 16  2  0
 26 19  1  0
 27 24  1  0
 28 25  1  0
  5 13  2  0
 11 22  1  0
 12 23  1  0
  3 29  1  0
  6 30  1  0
  7 31  1  0
 13 32  1  0
 14 33  1  0
 17 34  1  0
 17 35  1  0
 18 36  1  0
 18 37  1  0
 20 38  1  0
 21 39  1  0
 22 40  1  0
 23 41  1  0
 24 42  1  0
 25 43  1  0
 26 44  1  0
 26 45  1  0
 26 46  1  0
 27 47  1  0
 28 48  1  0
M  END
> <Uni-Dock RESULT> 
ENERGY=   -3.899  LOWER_BOUND=    4.449  UPPER_BOUND=    5.618
INTER + INTRA:          -3.899
INTER:                  -3.899
INTRA:                   0.000
UNBOUND:                 0.000

$$$$

     RDKit          3D

 48 50  0  0  0  0  0  0  0  0999 V2000
   45.6729   10.3489   11.9102 C   0  0  0  0  0  0  0  0  0  0  0  0
   46.0462    8.9500   12.2981 C   0  0  0  0  0  0  0  0  0  0  0  0
   46.7126   11.2965   11.9237 C   0  0  0  0  0  0  0  0  0  0  0  0
   47.6054   13.5924   11.6126 C   0  0  0  0  0  0  0  0  0  0  0  0
   46.4744   12.6267   11.5652 C   0  0  0  0  0  0  0  0  0  0  0  0
   45.0251    8.1019   12.6566 N   0  0  0  0  0  0  0  0  0  0  0  0
   47.5509   14.6396   10.7170 N   0  0  0  0  0  0  0  0  0  0  0  0
   44.3764   10.7464   11.5204 C   0  0  0  0  0  0  0  0  0  0  0  0
   47.2239    8.6045   12.2942 O   0  0  0  0  0  0  0  0  0  0  0  0
   48.5284   13.4213   12.3991 O   0  0  0  0  0  0  0  0  0  0  0  0
   43.3045    4.5378   10.4430 N   0  0  0  0  0  0  0  0  0  0  0  0
   51.3180   13.8247    8.5346 N   0  0  0  0  0  0  0  0  0  0  0  0
   45.1829   13.0237   11.2110 C   0  0  0  0  0  0  0  0  0  0  0  0
   44.1425   12.0889   11.1893 C   0  0  0  0  0  0  0  0  0  0  0  0
   44.9040    5.8913   11.6649 C   0  0  0  0  0  0  0  0  0  0  0  0
   49.5287   15.1998    9.4200 C   0  0  0  0  0  0  0  0  0  0  0  0
   48.6552   15.5644   10.5837 C   0  0  0  0  0  0  0  0  0  0  0  0
   45.2362    6.6930   12.8893 C   0  0  0  0  0  0  0  0  0  0  0  0
   43.3845    9.7977   11.5137 O   0  0  0  0  0  0  0  0  0  0  0  0
   50.5032   14.2134    9.5428 C   0  0  0  0  0  0  0  0  0  0  0  0
   43.6749    5.2550   11.5288 C   0  0  0  0  0  0  0  0  0  0  0  0
   44.2056    4.4500    9.4407 C   0  0  0  0  0  0  0  0  0  0  0  0
   51.1523   14.4404    7.3458 C   0  0  0  0  0  0  0  0  0  0  0  0
   45.8027    5.7847   10.5997 C   0  0  0  0  0  0  0  0  0  0  0  0
   49.3820   15.8079    8.1696 C   0  0  0  0  0  0  0  0  0  0  0  0
   42.2409   10.0581   10.7042 C   0  0  0  0  0  0  0  0  0  0  0  0
   45.4530    5.0505    9.4708 C   0  0  0  0  0  0  0  0  0  0  0  0
   50.2072   15.4260    7.1156 C   0  0  0  0  0  0  0  0  0  0  0  0
   47.7183   10.9948   12.2183 H   0  0  0  0  0  0  0  0  0  0  0  0
   44.0758    8.4229   12.5006 H   0  0  0  0  0  0  0  0  0  0  0  0
   46.8987   14.5901    9.9472 H   0  0  0  0  0  0  0  0  0  0  0  0
   44.9603   14.0623   10.9808 H   0  0  0  0  0  0  0  0  0  0  0  0
   43.1501   12.4447   10.9282 H   0  0  0  0  0  0  0  0  0  0  0  0
   49.2451   15.6053   11.5066 H   0  0  0  0  0  0  0  0  0  0  0  0
   48.2225   16.5603   10.4357 H   0  0  0  0  0  0  0  0  0  0  0  0
   44.5907    6.4032   13.7255 H   0  0  0  0  0  0  0  0  0  0  0  0
   46.2702    6.5015   13.1969 H   0  0  0  0  0  0  0  0  0  0  0  0
   50.6581   13.6892   10.4843 H   0  0  0  0  0  0  0  0  0  0  0  0
   42.9234    5.3050   12.3126 H   0  0  0  0  0  0  0  0  0  0  0  0
   43.8880    3.8654    8.5822 H   0  0  0  0  0  0  0  0  0  0  0  0
   51.8211   14.1088    6.5567 H   0  0  0  0  0  0  0  0  0  0  0  0
   46.7726    6.2769   10.6493 H   0  0  0  0  0  0  0  0  0  0  0  0
   48.6339   16.5802    8.0115 H   0  0  0  0  0  0  0  0  0  0  0  0
   42.5248   10.3615    9.6908 H   0  0  0  0  0  0  0  0  0  0  0  0
   41.5955   10.8056   11.1761 H   0  0  0  0  0  0  0  0  0  0  0  0
   41.6703    9.1274   10.6266 H   0  0  0  0  0  0  0  0  0  0  0  0
   46.1378    4.9517    8.6360 H   0  0  0  0  0  0  0  0  0  0  0  0
   50.1178   15.8860    6.1379 H   0  0  0  0  0  0  0  0  0  0  0  0
  2  1  1  0
  3  1  2  0
  4  5  1  0
  5  3  1  0
  6  2  1  0
  7  4  1  0
  8  1  1  0
  9  2  2  0
 10  4  2  0
 11 21  2  0
 12 20  2  0
 13 14  1  0
 14  8  2  0
 15 18  1  0
 16 17  1  0
 17  7  1  0
 18  6  1  0
 19  8  1  0
 20 16  1  0
 21 15  1  0
 22 27  2  0
 23 28  2  0
 24 15  2  0
 25 16  2  0
 26 19  1  0
 27 24  1  0
 28 25  1  0
  5 13  2  0
 11 22  1  0
 12 23  1  0
  3 29  1  0
  6 30  1  0
  7 31  1  0
 13 32  1  0
 14 33  1  0
 17 34  1  0
 17 35  1  0
 18 36  1  0
 18 37  1  0
 20 38  1  0
 21 39  1  0
 22 40  1  0
 23 41  1  0
 24 42  1  0
 25 43  1  0
 26 44  1  0
 26 45  1  0
 26 46  1  0
 27 47  1  0
 28 48  1  0
M  END
> <Uni-Dock RESULT> 
ENERGY=   -3.857  LOWER_BOUND=    5.231  UPPER_BOUND=    9.564
INTER + INTRA:          -3.857
INTER:                  -3.857
INTRA:                   0.000
UNBOUND:                 0.000

$$$$
