
     RDKit          3D

 48 50  0  0  0  0  0  0  0  0999 V2000
   47.0013    6.6942   13.1787 C   0  0  0  0  0  0  0  0  0  0  0  0
   47.4922    8.1042   13.0630 C   0  0  0  0  0  0  0  0  0  0  0  0
   46.2899    6.1910   12.0751 C   0  0  0  0  0  0  0  0  0  0  0  0
   45.0514    4.4007   10.8840 C   0  0  0  0  0  0  0  0  0  0  0  0
   45.8060    4.8795   12.0729 C   0  0  0  0  0  0  0  0  0  0  0  0
   47.8323    8.7522   14.2272 N   0  0  0  0  0  0  0  0  0  0  0  0
   45.1665    3.0577   10.5931 N   0  0  0  0  0  0  0  0  0  0  0  0
   47.2351    5.8611   14.2917 C   0  0  0  0  0  0  0  0  0  0  0  0
   47.5729    8.6382   11.9606 O   0  0  0  0  0  0  0  0  0  0  0  0
   44.4013    5.1913   10.2113 O   0  0  0  0  0  0  0  0  0  0  0  0
   52.1204    9.4457   13.4818 N   0  0  0  0  0  0  0  0  0  0  0  0
   47.1460    0.9356    7.0451 N   0  0  0  0  0  0  0  0  0  0  0  0
   46.0104    4.0671   13.1903 C   0  0  0  0  0  0  0  0  0  0  0  0
   46.7190    4.5569   14.2923 C   0  0  0  0  0  0  0  0  0  0  0  0
   49.9415    9.9307   14.4321 C   0  0  0  0  0  0  0  0  0  0  0  0
   45.6534    2.3664    8.3124 C   0  0  0  0  0  0  0  0  0  0  0  0
   44.6059    2.5042    9.3782 C   0  0  0  0  0  0  0  0  0  0  0  0
   48.4599   10.0515   14.2294 C   0  0  0  0  0  0  0  0  0  0  0  0
   47.9337    6.3783   15.3539 O   0  0  0  0  0  0  0  0  0  0  0  0
   46.1879    1.1260    7.9805 C   0  0  0  0  0  0  0  0  0  0  0  0
   50.7778    9.5861   13.3740 C   0  0  0  0  0  0  0  0  0  0  0  0
   52.6555    9.6539   14.7026 C   0  0  0  0  0  0  0  0  0  0  0  0
   47.5938    2.0370    6.4035 C   0  0  0  0  0  0  0  0  0  0  0  0
   50.5336   10.1272   15.6828 C   0  0  0  0  0  0  0  0  0  0  0  0
   46.1465    3.4811    7.6263 C   0  0  0  0  0  0  0  0  0  0  0  0
   48.6302    5.4438   16.1756 C   0  0  0  0  0  0  0  0  0  0  0  0
   51.9123    9.9912   15.8217 C   0  0  0  0  0  0  0  0  0  0  0  0
   47.1304    3.3170    6.6562 C   0  0  0  0  0  0  0  0  0  0  0  0
   46.1112    6.8275   11.2084 H   0  0  0  0  0  0  0  0  0  0  0  0
   47.8660    8.2027   15.0790 H   0  0  0  0  0  0  0  0  0  0  0  0
   45.9000    2.5261   11.0405 H   0  0  0  0  0  0  0  0  0  0  0  0
   45.5982    3.0623   13.2333 H   0  0  0  0  0  0  0  0  0  0  0  0
   46.8366    3.9014   15.1502 H   0  0  0  0  0  0  0  0  0  0  0  0
   44.1901    1.5244    9.6387 H   0  0  0  0  0  0  0  0  0  0  0  0
   43.7768    3.1211    9.0133 H   0  0  0  0  0  0  0  0  0  0  0  0
   48.2476   10.5913   13.3001 H   0  0  0  0  0  0  0  0  0  0  0  0
   48.0086   10.6256   15.0461 H   0  0  0  0  0  0  0  0  0  0  0  0
   45.8547    0.2157    8.4725 H   0  0  0  0  0  0  0  0  0  0  0  0
   50.3773    9.4030   12.3785 H   0  0  0  0  0  0  0  0  0  0  0  0
   53.7332    9.5364   14.7618 H   0  0  0  0  0  0  0  0  0  0  0  0
   48.3609    1.8585    5.6555 H   0  0  0  0  0  0  0  0  0  0  0  0
   49.9292   10.3894   16.5473 H   0  0  0  0  0  0  0  0  0  0  0  0
   45.7658    4.4767    7.8479 H   0  0  0  0  0  0  0  0  0  0  0  0
   49.3392    6.0069   16.7890 H   0  0  0  0  0  0  0  0  0  0  0  0
   47.9365    4.9330   16.8512 H   0  0  0  0  0  0  0  0  0  0  0  0
   49.2023    4.7253   15.5778 H   0  0  0  0  0  0  0  0  0  0  0  0
   52.3970   10.1441   16.7796 H   0  0  0  0  0  0  0  0  0  0  0  0
   47.5257    4.1682    6.1127 H   0  0  0  0  0  0  0  0  0  0  0  0
  2  1  1  0
  3  1  2  0
  4  5  1  0
  5  3  1  0
  6  2  1  0
  7  4  1  0
  8  1  1  0
  9  2  2  0
 10  4  2  0
 11 21  2  0
 12 20  2  0
 13 14  1  0
 14  8  2  0
 15 18  1  0
 16 17  1  0
 17  7  1  0
 18  6  1  0
 19  8  1  0
 20 16  1  0
 21 15  1  0
 22 27  2  0
 23 28  2  0
 24 15  2  0
 25 16  2  0
 26 19  1  0
 27 24  1  0
 28 25  1  0
  5 13  2  0
 11 22  1  0
 12 23  1  0
  3 29  1  0
  6 30  1  0
  7 31  1  0
 13 32  1  0
 14 33  1  0
 17 34  1  0
 17 35  1  0
 18 36  1  0
 18 37  1  0
 20 38  1  0
 21 39  1  0
 22 40  1  0
 23 41  1  0
 24 42  1  0
 25 43  1  0
 26 44  1  0
 26 45  1  0
 26 46  1  0
 27 47  1  0
 28 48  1  0
M  END
> <Uni-Dock RESULT> 
ENERGY=   -6.076  LOWER_BOUND=    0.000  UPPER_BOUND=    0.000
INTER + INTRA:          -6.076
INTER:                  -6.076
INTRA:                   0.000
UNBOUND:                 0.000

$$$$

     RDKit          3D

 48 50  0  0  0  0  0  0  0  0999 V2000
   47.7832    7.4050   13.0083 C   0  0  0  0  0  0  0  0  0  0  0  0
   48.5706    8.6545   12.7610 C   0  0  0  0  0  0  0  0  0  0  0  0
   46.9664    6.9654   11.9515 C   0  0  0  0  0  0  0  0  0  0  0  0
   45.3517    5.3838   10.9273 C   0  0  0  0  0  0  0  0  0  0  0  0
   46.2062    5.7984   12.0718 C   0  0  0  0  0  0  0  0  0  0  0  0
   49.0576    9.3221   13.8602 N   0  0  0  0  0  0  0  0  0  0  0  0
   45.1658    4.0265   10.7697 N   0  0  0  0  0  0  0  0  0  0  0  0
   47.8407    6.6531   14.1995 C   0  0  0  0  0  0  0  0  0  0  0  0
   48.7543    9.0479   11.6128 O   0  0  0  0  0  0  0  0  0  0  0  0
   44.8837    6.2286   10.1740 O   0  0  0  0  0  0  0  0  0  0  0  0
   53.3848    8.9807   13.0962 N   0  0  0  0  0  0  0  0  0  0  0  0
   46.5912    1.1865    7.4663 N   0  0  0  0  0  0  0  0  0  0  0  0
   46.2397    5.0737   13.2651 C   0  0  0  0  0  0  0  0  0  0  0  0
   47.0508    5.5006   14.3216 C   0  0  0  0  0  0  0  0  0  0  0  0
   51.3763   10.0226   13.9716 C   0  0  0  0  0  0  0  0  0  0  0  0
   45.4635    3.0267    8.5724 C   0  0  0  0  0  0  0  0  0  0  0  0
   44.4838    3.4942    9.6086 C   0  0  0  0  0  0  0  0  0  0  0  0
   49.9553   10.4457   13.7425 C   0  0  0  0  0  0  0  0  0  0  0  0
   48.6476    7.1050   15.2136 O   0  0  0  0  0  0  0  0  0  0  0  0
   45.7087    1.6729    8.3685 C   0  0  0  0  0  0  0  0  0  0  0  0
   52.1047    9.4015   12.9610 C   0  0  0  0  0  0  0  0  0  0  0  0
   53.9661    9.1841   14.2965 C   0  0  0  0  0  0  0  0  0  0  0  0
   47.2627    2.0949    6.7252 C   0  0  0  0  0  0  0  0  0  0  0  0
   52.0110   10.2050   15.2035 C   0  0  0  0  0  0  0  0  0  0  0  0
   46.1817    3.9336    7.7863 C   0  0  0  0  0  0  0  0  0  0  0  0
   49.1309    6.1249   16.1297 C   0  0  0  0  0  0  0  0  0  0  0  0
   53.3276    9.7835   15.3695 C   0  0  0  0  0  0  0  0  0  0  0  0
   47.0947    3.4638    6.8472 C   0  0  0  0  0  0  0  0  0  0  0  0
   46.9222    7.5383   11.0251 H   0  0  0  0  0  0  0  0  0  0  0  0
   48.9792    8.8642   14.7617 H   0  0  0  0  0  0  0  0  0  0  0  0
   45.7695    3.3929   11.2745 H   0  0  0  0  0  0  0  0  0  0  0  0
   45.6174    4.1929   13.4014 H   0  0  0  0  0  0  0  0  0  0  0  0
   47.0311    4.9219   15.2405 H   0  0  0  0  0  0  0  0  0  0  0  0
   43.8659    2.6598    9.9589 H   0  0  0  0  0  0  0  0  0  0  0  0
   43.8064    4.2397    9.1766 H   0  0  0  0  0  0  0  0  0  0  0  0
   49.8564   10.9259   12.7629 H   0  0  0  0  0  0  0  0  0  0  0  0
   49.6502   11.1815   14.4947 H   0  0  0  0  0  0  0  0  0  0  0  0
   45.1893    0.9103    8.9432 H   0  0  0  0  0  0  0  0  0  0  0  0
   51.6627    9.2149   11.9839 H   0  0  0  0  0  0  0  0  0  0  0  0
   54.9922    8.8389   14.3781 H   0  0  0  0  0  0  0  0  0  0  0  0
   47.9635    1.6804    6.0063 H   0  0  0  0  0  0  0  0  0  0  0  0
   51.4887   10.6764   16.0319 H   0  0  0  0  0  0  0  0  0  0  0  0
   46.0315    5.0053    7.9059 H   0  0  0  0  0  0  0  0  0  0  0  0
   49.9532    6.5754   16.6928 H   0  0  0  0  0  0  0  0  0  0  0  0
   48.3496    5.8472   16.8445 H   0  0  0  0  0  0  0  0  0  0  0  0
   49.5246    5.2436   15.6108 H   0  0  0  0  0  0  0  0  0  0  0  0
   53.8447    9.9187   16.3131 H   0  0  0  0  0  0  0  0  0  0  0  0
   47.6612    4.1504    6.2276 H   0  0  0  0  0  0  0  0  0  0  0  0
  2  1  1  0
  3  1  2  0
  4  5  1  0
  5  3  1  0
  6  2  1  0
  7  4  1  0
  8  1  1  0
  9  2  2  0
 10  4  2  0
 11 21  2  0
 12 20  2  0
 13 14  1  0
 14  8  2  0
 15 18  1  0
 16 17  1  0
 17  7  1  0
 18  6  1  0
 19  8  1  0
 20 16  1  0
 21 15  1  0
 22 27  2  0
 23 28  2  0
 24 15  2  0
 25 16  2  0
 26 19  1  0
 27 24  1  0
 28 25  1  0
  5 13  2  0
 11 22  1  0
 12 23  1  0
  3 29  1  0
  6 30  1  0
  7 31  1  0
 13 32  1  0
 14 33  1  0
 17 34  1  0
 17 35  1  0
 18 36  1  0
 18 37  1  0
 20 38  1  0
 21 39  1  0
 22 40  1  0
 23 41  1  0
 24 42  1  0
 25 43  1  0
 26 44  1  0
 26 45  1  0
 26 46  1  0
 27 47  1  0
 28 48  1  0
M  END
> <Uni-Dock RESULT> 
ENERGY=   -5.440  LOWER_BOUND=    0.985  UPPER_BOUND=    1.127
INTER + INTRA:          -5.440
INTER:                  -5.440
INTRA:                   0.000
UNBOUND:                 0.000

$$$$

     RDKit          3D

 48 50  0  0  0  0  0  0  0  0999 V2000
   47.6845    7.1786   12.8945 C   0  0  0  0  0  0  0  0  0  0  0  0
   48.5596    8.3761   12.6882 C   0  0  0  0  0  0  0  0  0  0  0  0
   46.9401    6.7530   11.7800 C   0  0  0  0  0  0  0  0  0  0  0  0
   45.3351    5.2316   10.6546 C   0  0  0  0  0  0  0  0  0  0  0  0
   46.1079    5.6327   11.8603 C   0  0  0  0  0  0  0  0  0  0  0  0
   48.9851    9.0483   13.8099 N   0  0  0  0  0  0  0  0  0  0  0  0
   45.0876    3.8823   10.5140 N   0  0  0  0  0  0  0  0  0  0  0  0
   47.5949    6.4598   14.1039 C   0  0  0  0  0  0  0  0  0  0  0  0
   48.8652    8.7254   11.5517 O   0  0  0  0  0  0  0  0  0  0  0  0
   44.9833    6.0780    9.8422 O   0  0  0  0  0  0  0  0  0  0  0  0
   53.3365    8.4519   13.4434 N   0  0  0  0  0  0  0  0  0  0  0  0
   46.6352    0.8745    7.4208 N   0  0  0  0  0  0  0  0  0  0  0  0
   45.9956    4.9424   13.0691 C   0  0  0  0  0  0  0  0  0  0  0  0
   46.7337    5.3556   14.1831 C   0  0  0  0  0  0  0  0  0  0  0  0
   51.3209    9.6257   14.1107 C   0  0  0  0  0  0  0  0  0  0  0  0
   45.5202    2.8042    8.3769 C   0  0  0  0  0  0  0  0  0  0  0  0
   44.4813    3.3539    9.3099 C   0  0  0  0  0  0  0  0  0  0  0  0
   49.9514   10.1179   13.7455 C   0  0  0  0  0  0  0  0  0  0  0  0
   48.3338    6.8969   15.1748 O   0  0  0  0  0  0  0  0  0  0  0  0
   45.7058    1.4338    8.2287 C   0  0  0  0  0  0  0  0  0  0  0  0
   52.0990    8.9370   13.1844 C   0  0  0  0  0  0  0  0  0  0  0  0
   53.8208    8.6586   14.6855 C   0  0  0  0  0  0  0  0  0  0  0  0
   47.4193    1.7233    6.7208 C   0  0  0  0  0  0  0  0  0  0  0  0
   51.8542    9.8095   15.3894 C   0  0  0  0  0  0  0  0  0  0  0  0
   46.3545    3.6478    7.6363 C   0  0  0  0  0  0  0  0  0  0  0  0
   48.6790    5.9193   16.1538 C   0  0  0  0  0  0  0  0  0  0  0  0
   53.1254    9.3227   15.6824 C   0  0  0  0  0  0  0  0  0  0  0  0
   47.3185    3.1023    6.7940 C   0  0  0  0  0  0  0  0  0  0  0  0
   47.0098    7.3002   10.8397 H   0  0  0  0  0  0  0  0  0  0  0  0
   48.8023    8.6217   14.7116 H   0  0  0  0  0  0  0  0  0  0  0  0
   45.6081    3.2320   11.0859 H   0  0  0  0  0  0  0  0  0  0  0  0
   45.3152    4.1008   13.1706 H   0  0  0  0  0  0  0  0  0  0  0  0
   46.6009    4.8059   15.1103 H   0  0  0  0  0  0  0  0  0  0  0  0
   43.7890    2.5645    9.6239 H   0  0  0  0  0  0  0  0  0  0  0  0
   43.8875    4.1219    8.8013 H   0  0  0  0  0  0  0  0  0  0  0  0
   49.9661   10.5739   12.7496 H   0  0  0  0  0  0  0  0  0  0  0  0
   49.6235   10.8908   14.4494 H   0  0  0  0  0  0  0  0  0  0  0  0
   45.0959    0.7174    8.7730 H   0  0  0  0  0  0  0  0  0  0  0  0
   51.7346    8.7461   12.1766 H   0  0  0  0  0  0  0  0  0  0  0  0
   54.8148    8.2612   14.8668 H   0  0  0  0  0  0  0  0  0  0  0  0
   48.1560    1.2508    6.0776 H   0  0  0  0  0  0  0  0  0  0  0  0
   51.2886   10.3323   16.1562 H   0  0  0  0  0  0  0  0  0  0  0  0
   46.2549    4.7290    7.7159 H   0  0  0  0  0  0  0  0  0  0  0  0
   49.4727    6.3410   16.7769 H   0  0  0  0  0  0  0  0  0  0  0  0
   47.8236    5.7051   16.8026 H   0  0  0  0  0  0  0  0  0  0  0  0
   49.0664    5.0033   15.6936 H   0  0  0  0  0  0  0  0  0  0  0  0
   53.5645    9.4572   16.6648 H   0  0  0  0  0  0  0  0  0  0  0  0
   47.9749    3.7389    6.2110 H   0  0  0  0  0  0  0  0  0  0  0  0
  2  1  1  0
  3  1  2  0
  4  5  1  0
  5  3  1  0
  6  2  1  0
  7  4  1  0
  8  1  1  0
  9  2  2  0
 10  4  2  0
 11 21  2  0
 12 20  2  0
 13 14  1  0
 14  8  2  0
 15 18  1  0
 16 17  1  0
 17  7  1  0
 18  6  1  0
 19  8  1  0
 20 16  1  0
 21 15  1  0
 22 27  2  0
 23 28  2  0
 24 15  2  0
 25 16  2  0
 26 19  1  0
 27 24  1  0
 28 25  1  0
  5 13  2  0
 11 22  1  0
 12 23  1  0
  3 29  1  0
  6 30  1  0
  7 31  1  0
 13 32  1  0
 14 33  1  0
 17 34  1  0
 17 35  1  0
 18 36  1  0
 18 37  1  0
 20 38  1  0
 21 39  1  0
 22 40  1  0
 23 41  1  0
 24 42  1  0
 25 43  1  0
 26 44  1  0
 26 45  1  0
 26 46  1  0
 27 47  1  0
 28 48  1  0
M  END
> <Uni-Dock RESULT> 
ENERGY=   -5.427  LOWER_BOUND=    0.928  UPPER_BOUND=    1.037
INTER + INTRA:          -5.427
INTER:                  -5.427
INTRA:                   0.000
UNBOUND:                 0.000

$$$$

     RDKit          3D

 48 50  0  0  0  0  0  0  0  0999 V2000
   45.2841    8.4603   12.1945 C   0  0  0  0  0  0  0  0  0  0  0  0
   44.7454    9.7704   11.7089 C   0  0  0  0  0  0  0  0  0  0  0  0
   46.5047    8.5096   12.8909 C   0  0  0  0  0  0  0  0  0  0  0  0
   48.3806    7.4525   14.1243 C   0  0  0  0  0  0  0  0  0  0  0  0
   47.0837    7.3453   13.4043 C   0  0  0  0  0  0  0  0  0  0  0  0
   43.7963    9.7336   10.7146 N   0  0  0  0  0  0  0  0  0  0  0  0
   48.5914    6.5367   15.1335 N   0  0  0  0  0  0  0  0  0  0  0  0
   44.6344    7.2213   12.0205 C   0  0  0  0  0  0  0  0  0  0  0  0
   45.1564   10.8211   12.1928 O   0  0  0  0  0  0  0  0  0  0  0  0
   49.1754    8.3360   13.8277 O   0  0  0  0  0  0  0  0  0  0  0  0
   40.3931   11.5449   12.8504 N   0  0  0  0  0  0  0  0  0  0  0  0
   48.9091    7.1197   19.6689 N   0  0  0  0  0  0  0  0  0  0  0  0
   46.4544    6.1152   13.2016 C   0  0  0  0  0  0  0  0  0  0  0  0
   45.2387    6.0551   12.5126 C   0  0  0  0  0  0  0  0  0  0  0  0
   41.7358   10.9977   10.9054 C   0  0  0  0  0  0  0  0  0  0  0  0
   49.3881    7.3069   17.2989 C   0  0  0  0  0  0  0  0  0  0  0  0
   49.7437    6.6351   16.0049 C   0  0  0  0  0  0  0  0  0  0  0  0
   43.0953   10.9161   10.2760 C   0  0  0  0  0  0  0  0  0  0  0  0
   43.4436    7.2033   11.3382 O   0  0  0  0  0  0  0  0  0  0  0  0
   49.2460    6.5792   18.4757 C   0  0  0  0  0  0  0  0  0  0  0  0
   41.5835   11.4551   12.2112 C   0  0  0  0  0  0  0  0  0  0  0  0
   39.3024   11.1566   12.1578 C   0  0  0  0  0  0  0  0  0  0  0  0
   48.7062    8.4552   19.6934 C   0  0  0  0  0  0  0  0  0  0  0  0
   40.5828   10.5946   10.2259 C   0  0  0  0  0  0  0  0  0  0  0  0
   49.1666    8.6862   17.3675 C   0  0  0  0  0  0  0  0  0  0  0  0
   42.5529    6.1305   11.6369 C   0  0  0  0  0  0  0  0  0  0  0  0
   39.3453   10.6783   10.8587 C   0  0  0  0  0  0  0  0  0  0  0  0
   48.8216    9.2721   18.5814 C   0  0  0  0  0  0  0  0  0  0  0  0
   47.0093    9.4651   13.0350 H   0  0  0  0  0  0  0  0  0  0  0  0
   43.4130    8.8289   10.4632 H   0  0  0  0  0  0  0  0  0  0  0  0
   47.8046    6.0034   15.4761 H   0  0  0  0  0  0  0  0  0  0  0  0
   46.9114    5.1907   13.5451 H   0  0  0  0  0  0  0  0  0  0  0  0
   44.7933    5.0770   12.3564 H   0  0  0  0  0  0  0  0  0  0  0  0
   50.0929    5.6121   16.1851 H   0  0  0  0  0  0  0  0  0  0  0  0
   50.5612    7.1744   15.5132 H   0  0  0  0  0  0  0  0  0  0  0  0
   43.6717   11.8200   10.5011 H   0  0  0  0  0  0  0  0  0  0  0  0
   43.0078   10.8526    9.1857 H   0  0  0  0  0  0  0  0  0  0  0  0
   49.4010    5.5036   18.4988 H   0  0  0  0  0  0  0  0  0  0  0  0
   42.4438   11.7679   12.8004 H   0  0  0  0  0  0  0  0  0  0  0  0
   38.3610   11.2396   12.6922 H   0  0  0  0  0  0  0  0  0  0  0  0
   48.4393    8.8662   20.6627 H   0  0  0  0  0  0  0  0  0  0  0  0
   40.6418   10.2206    9.2072 H   0  0  0  0  0  0  0  0  0  0  0  0
   49.2614    9.3040   16.4760 H   0  0  0  0  0  0  0  0  0  0  0  0
   41.5699    6.3960   11.2378 H   0  0  0  0  0  0  0  0  0  0  0  0
   42.8775    5.2106   11.1401 H   0  0  0  0  0  0  0  0  0  0  0  0
   42.4458    5.9809   12.7172 H   0  0  0  0  0  0  0  0  0  0  0  0
   38.4351   10.3777   10.3517 H   0  0  0  0  0  0  0  0  0  0  0  0
   48.6460   10.3397   18.6559 H   0  0  0  0  0  0  0  0  0  0  0  0
  2  1  1  0
  3  1  2  0
  4  5  1  0
  5  3  1  0
  6  2  1  0
  7  4  1  0
  8  1  1  0
  9  2  2  0
 10  4  2  0
 11 21  2  0
 12 20  2  0
 13 14  1  0
 14  8  2  0
 15 18  1  0
 16 17  1  0
 17  7  1  0
 18  6  1  0
 19  8  1  0
 20 16  1  0
 21 15  1  0
 22 27  2  0
 23 28  2  0
 24 15  2  0
 25 16  2  0
 26 19  1  0
 27 24  1  0
 28 25  1  0
  5 13  2  0
 11 22  1  0
 12 23  1  0
  3 29  1  0
  6 30  1  0
  7 31  1  0
 13 32  1  0
 14 33  1  0
 17 34  1  0
 17 35  1  0
 18 36  1  0
 18 37  1  0
 20 38  1  0
 21 39  1  0
 22 40  1  0
 23 41  1  0
 24 42  1  0
 25 43  1  0
 26 44  1  0
 26 45  1  0
 26 46  1  0
 27 47  1  0
 28 48  1  0
M  END
> <Uni-Dock RESULT> 
ENERGY=   -4.638  LOWER_BOUND=    4.535  UPPER_BOUND=    8.986
INTER + INTRA:          -4.638
INTER:                  -4.638
INTRA:                   0.000
UNBOUND:                 0.000

$$$$

     RDKit          3D

 48 50  0  0  0  0  0  0  0  0999 V2000
   49.0434    6.8580   17.1253 C   0  0  0  0  0  0  0  0  0  0  0  0
   49.4639    5.8023   18.1005 C   0  0  0  0  0  0  0  0  0  0  0  0
   48.7019    6.4129   15.8359 C   0  0  0  0  0  0  0  0  0  0  0  0
   47.9365    6.7923   13.5061 C   0  0  0  0  0  0  0  0  0  0  0  0
   48.2761    7.3149   14.8565 C   0  0  0  0  0  0  0  0  0  0  0  0
   50.1649    6.2111   19.2107 N   0  0  0  0  0  0  0  0  0  0  0  0
   46.9547    7.4761   12.8205 N   0  0  0  0  0  0  0  0  0  0  0  0
   48.9464    8.2302   17.4337 C   0  0  0  0  0  0  0  0  0  0  0  0
   49.1856    4.6253   17.8899 O   0  0  0  0  0  0  0  0  0  0  0  0
   48.4980    5.7920   13.0767 O   0  0  0  0  0  0  0  0  0  0  0  0
   47.3416    5.0059   22.3733 N   0  0  0  0  0  0  0  0  0  0  0  0
   42.7227    6.1972   11.6102 N   0  0  0  0  0  0  0  0  0  0  0  0
   48.2128    8.6777   15.1549 C   0  0  0  0  0  0  0  0  0  0  0  0
   48.5478    9.1309   16.4351 C   0  0  0  0  0  0  0  0  0  0  0  0
   49.5276    5.4768   21.4321 C   0  0  0  0  0  0  0  0  0  0  0  0
   45.1418    6.2357   11.7757 C   0  0  0  0  0  0  0  0  0  0  0  0
   46.4304    6.9759   11.5668 C   0  0  0  0  0  0  0  0  0  0  0  0
   50.4876    5.3109   20.2912 C   0  0  0  0  0  0  0  0  0  0  0  0
   49.2847    8.6360   18.7005 O   0  0  0  0  0  0  0  0  0  0  0  0
   43.9191    6.8018   11.4308 C   0  0  0  0  0  0  0  0  0  0  0  0
   48.2657    4.8907   21.3900 C   0  0  0  0  0  0  0  0  0  0  0  0
   47.6890    5.7438   23.4480 C   0  0  0  0  0  0  0  0  0  0  0  0
   42.7439    4.9626   12.1586 C   0  0  0  0  0  0  0  0  0  0  0  0
   49.8445    6.2423   22.5577 C   0  0  0  0  0  0  0  0  0  0  0  0
   45.1190    4.9574   12.3429 C   0  0  0  0  0  0  0  0  0  0  0  0
   48.6816    9.8410   19.1671 C   0  0  0  0  0  0  0  0  0  0  0  0
   48.9138    6.3759   23.5847 C   0  0  0  0  0  0  0  0  0  0  0  0
   43.9038    4.3082   12.5374 C   0  0  0  0  0  0  0  0  0  0  0  0
   48.7681    5.3524   15.5925 H   0  0  0  0  0  0  0  0  0  0  0  0
   50.2378    7.2083   19.3803 H   0  0  0  0  0  0  0  0  0  0  0  0
   46.3770    8.1320   13.3272 H   0  0  0  0  0  0  0  0  0  0  0  0
   47.9357    9.4037   14.3949 H   0  0  0  0  0  0  0  0  0  0  0  0
   48.5073   10.2003   16.6200 H   0  0  0  0  0  0  0  0  0  0  0  0
   46.2744    7.8459   10.9190 H   0  0  0  0  0  0  0  0  0  0  0  0
   47.1601    6.3277   11.0683 H   0  0  0  0  0  0  0  0  0  0  0  0
   50.4911    4.2708   19.9475 H   0  0  0  0  0  0  0  0  0  0  0  0
   51.5077    5.5475   20.6134 H   0  0  0  0  0  0  0  0  0  0  0  0
   43.8586    7.7922   10.9869 H   0  0  0  0  0  0  0  0  0  0  0  0
   47.9510    4.2964   20.5340 H   0  0  0  0  0  0  0  0  0  0  0  0
   46.9313    5.8194   24.2219 H   0  0  0  0  0  0  0  0  0  0  0  0
   41.7716    4.4967   12.2904 H   0  0  0  0  0  0  0  0  0  0  0  0
   50.8118    6.7307   22.6417 H   0  0  0  0  0  0  0  0  0  0  0  0
   46.0468    4.4677   12.6343 H   0  0  0  0  0  0  0  0  0  0  0  0
   48.8237    9.8840   20.2506 H   0  0  0  0  0  0  0  0  0  0  0  0
   49.1774   10.7140   18.7306 H   0  0  0  0  0  0  0  0  0  0  0  0
   47.6037    9.8579   18.9704 H   0  0  0  0  0  0  0  0  0  0  0  0
   49.1371    6.9591   24.4712 H   0  0  0  0  0  0  0  0  0  0  0  0
   43.8645    3.3168   12.9752 H   0  0  0  0  0  0  0  0  0  0  0  0
  2  1  1  0
  3  1  2  0
  4  5  1  0
  5  3  1  0
  6  2  1  0
  7  4  1  0
  8  1  1  0
  9  2  2  0
 10  4  2  0
 11 21  2  0
 12 20  2  0
 13 14  1  0
 14  8  2  0
 15 18  1  0
 16 17  1  0
 17  7  1  0
 18  6  1  0
 19  8  1  0
 20 16  1  0
 21 15  1  0
 22 27  2  0
 23 28  2  0
 24 15  2  0
 25 16  2  0
 26 19  1  0
 27 24  1  0
 28 25  1  0
  5 13  2  0
 11 22  1  0
 12 23  1  0
  3 29  1  0
  6 30  1  0
  7 31  1  0
 13 32  1  0
 14 33  1  0
 17 34  1  0
 17 35  1  0
 18 36  1  0
 18 37  1  0
 20 38  1  0
 21 39  1  0
 22 40  1  0
 23 41  1  0
 24 42  1  0
 25 43  1  0
 26 44  1  0
 26 45  1  0
 26 46  1  0
 27 47  1  0
 28 48  1  0
M  END
> <Uni-Dock RESULT> 
ENERGY=   -4.543  LOWER_BOUND=    4.095  UPPER_BOUND=    6.813
INTER + INTRA:          -4.543
INTER:                  -4.543
INTRA:                   0.000
UNBOUND:                 0.000

$$$$

     RDKit          3D

 48 50  0  0  0  0  0  0  0  0999 V2000
   48.7836    8.8520   12.8175 C   0  0  0  0  0  0  0  0  0  0  0  0
   49.2539   10.0288   12.0198 C   0  0  0  0  0  0  0  0  0  0  0  0
   47.5219    8.3336   12.4762 C   0  0  0  0  0  0  0  0  0  0  0  0
   45.6557    6.7213   12.7512 C   0  0  0  0  0  0  0  0  0  0  0  0
   46.9992    7.2231   13.1453 C   0  0  0  0  0  0  0  0  0  0  0  0
   50.2630   10.7933   12.5568 N   0  0  0  0  0  0  0  0  0  0  0  0
   45.4505    5.3647   12.8895 N   0  0  0  0  0  0  0  0  0  0  0  0
   49.5320    8.2372   13.8419 C   0  0  0  0  0  0  0  0  0  0  0  0
   48.7377   10.2818   10.9351 O   0  0  0  0  0  0  0  0  0  0  0  0
   44.8182    7.4962   12.3058 O   0  0  0  0  0  0  0  0  0  0  0  0
   53.3852   10.1727    9.5085 N   0  0  0  0  0  0  0  0  0  0  0  0
   44.8102    2.1093    9.7269 N   0  0  0  0  0  0  0  0  0  0  0  0
   47.7283    6.6366   14.1820 C   0  0  0  0  0  0  0  0  0  0  0  0
   48.9856    7.1427   14.5279 C   0  0  0  0  0  0  0  0  0  0  0  0
   52.2094   11.3964   11.2423 C   0  0  0  0  0  0  0  0  0  0  0  0
   44.4667    4.1114   11.0516 C   0  0  0  0  0  0  0  0  0  0  0  0
   44.2423    4.7364   12.3974 C   0  0  0  0  0  0  0  0  0  0  0  0
   50.9012   11.8547   11.8164 C   0  0  0  0  0  0  0  0  0  0  0  0
   50.7609    8.7635   14.1529 O   0  0  0  0  0  0  0  0  0  0  0  0
   44.5885    2.7335   10.9061 C   0  0  0  0  0  0  0  0  0  0  0  0
   52.2464   10.6330   10.0788 C   0  0  0  0  0  0  0  0  0  0  0  0
   54.5422   10.4835   10.1288 C   0  0  0  0  0  0  0  0  0  0  0  0
   44.9127    2.8972    8.6342 C   0  0  0  0  0  0  0  0  0  0  0  0
   53.4287   11.6874   11.8603 C   0  0  0  0  0  0  0  0  0  0  0  0
   44.5817    4.8906    9.8959 C   0  0  0  0  0  0  0  0  0  0  0  0
   51.7077    7.8719   14.7378 C   0  0  0  0  0  0  0  0  0  0  0  0
   54.6152   11.2282   11.2943 C   0  0  0  0  0  0  0  0  0  0  0  0
   44.8069    4.2773    8.6674 C   0  0  0  0  0  0  0  0  0  0  0  0
   46.9407    8.7999   11.6805 H   0  0  0  0  0  0  0  0  0  0  0  0
   50.7264   10.4438   13.3884 H   0  0  0  0  0  0  0  0  0  0  0  0
   46.2515    4.7653   13.0305 H   0  0  0  0  0  0  0  0  0  0  0  0
   47.3199    5.8059   14.7517 H   0  0  0  0  0  0  0  0  0  0  0  0
   49.5103    6.6727   15.3545 H   0  0  0  0  0  0  0  0  0  0  0  0
   43.9585    3.9755   13.1332 H   0  0  0  0  0  0  0  0  0  0  0  0
   43.4194    5.4584   12.3444 H   0  0  0  0  0  0  0  0  0  0  0  0
   50.2472   12.2255   11.0197 H   0  0  0  0  0  0  0  0  0  0  0  0
   51.0606   12.6836   12.5148 H   0  0  0  0  0  0  0  0  0  0  0  0
   44.5117    2.0648   11.7596 H   0  0  0  0  0  0  0  0  0  0  0  0
   51.3307   10.3578    9.5586 H   0  0  0  0  0  0  0  0  0  0  0  0
   55.4400   10.1037    9.6508 H   0  0  0  0  0  0  0  0  0  0  0  0
   45.0881    2.3731    7.6991 H   0  0  0  0  0  0  0  0  0  0  0  0
   53.4607   12.2722   12.7759 H   0  0  0  0  0  0  0  0  0  0  0  0
   44.4974    5.9747    9.9521 H   0  0  0  0  0  0  0  0  0  0  0  0
   52.6915    8.3453   14.6735 H   0  0  0  0  0  0  0  0  0  0  0  0
   51.4828    7.7121   15.7972 H   0  0  0  0  0  0  0  0  0  0  0  0
   51.7583    6.9209   14.1957 H   0  0  0  0  0  0  0  0  0  0  0  0
   55.5747   11.4453   11.7505 H   0  0  0  0  0  0  0  0  0  0  0  0
   44.8987    4.8634    7.7595 H   0  0  0  0  0  0  0  0  0  0  0  0
  2  1  1  0
  3  1  2  0
  4  5  1  0
  5  3  1  0
  6  2  1  0
  7  4  1  0
  8  1  1  0
  9  2  2  0
 10  4  2  0
 11 21  2  0
 12 20  2  0
 13 14  1  0
 14  8  2  0
 15 18  1  0
 16 17  1  0
 17  7  1  0
 18  6  1  0
 19  8  1  0
 20 16  1  0
 21 15  1  0
 22 27  2  0
 23 28  2  0
 24 15  2  0
 25 16  2  0
 26 19  1  0
 27 24  1  0
 28 25  1  0
  5 13  2  0
 11 22  1  0
 12 23  1  0
  3 29  1  0
  6 30  1  0
  7 31  1  0
 13 32  1  0
 14 33  1  0
 17 34  1  0
 17 35  1  0
 18 36  1  0
 18 37  1  0
 20 38  1  0
 21 39  1  0
 22 40  1  0
 23 41  1  0
 24 42  1  0
 25 43  1  0
 26 44  1  0
 26 45  1  0
 26 46  1  0
 27 47  1  0
 28 48  1  0
M  END
> <Uni-Dock RESULT> 
ENERGY=   -4.317  LOWER_BOUND=    2.576  UPPER_BOUND=    3.661
INTER + INTRA:          -4.317
INTER:                  -4.317
INTRA:                   0.000
UNBOUND:                 0.000

$$$$

     RDKit          3D

 48 50  0  0  0  0  0  0  0  0999 V2000
   46.3234   10.1114   12.1477 C   0  0  0  0  0  0  0  0  0  0  0  0
   47.0106   11.4414   12.1819 C   0  0  0  0  0  0  0  0  0  0  0  0
   47.0877    9.0057   12.5607 C   0  0  0  0  0  0  0  0  0  0  0  0
   47.3898    6.5863   13.0221 C   0  0  0  0  0  0  0  0  0  0  0  0
   46.5344    7.7222   12.5861 C   0  0  0  0  0  0  0  0  0  0  0  0
   46.4581   12.4572   11.4377 N   0  0  0  0  0  0  0  0  0  0  0  0
   46.7420    5.5488   13.6588 N   0  0  0  0  0  0  0  0  0  0  0  0
   44.9805    9.9214   11.7629 C   0  0  0  0  0  0  0  0  0  0  0  0
   48.0286   11.5900   12.8516 O   0  0  0  0  0  0  0  0  0  0  0  0
   48.5996    6.6226   12.8345 O   0  0  0  0  0  0  0  0  0  0  0  0
   45.4362   15.2853   14.6599 N   0  0  0  0  0  0  0  0  0  0  0  0
   46.9813    4.1032   18.0020 N   0  0  0  0  0  0  0  0  0  0  0  0
   45.2140    7.5322   12.1729 C   0  0  0  0  0  0  0  0  0  0  0  0
   44.4440    8.6255   11.7626 C   0  0  0  0  0  0  0  0  0  0  0  0
   46.0653   14.6454   12.4058 C   0  0  0  0  0  0  0  0  0  0  0  0
   47.6459    4.6735   15.7405 C   0  0  0  0  0  0  0  0  0  0  0  0
   47.4835    4.4621   14.2637 C   0  0  0  0  0  0  0  0  0  0  0  0
   46.9395   13.8154   11.5127 C   0  0  0  0  0  0  0  0  0  0  0  0
   44.2579   11.0188   11.3659 O   0  0  0  0  0  0  0  0  0  0  0  0
   46.8971    3.9479   16.6610 C   0  0  0  0  0  0  0  0  0  0  0  0
   46.1958   14.5779   13.7901 C   0  0  0  0  0  0  0  0  0  0  0  0
   44.4989   16.0955   14.1260 C   0  0  0  0  0  0  0  0  0  0  0  0
   47.8591    5.0268   18.4511 C   0  0  0  0  0  0  0  0  0  0  0  0
   45.0753   15.4882   11.8930 C   0  0  0  0  0  0  0  0  0  0  0  0
   48.5409    5.6214   16.2472 C   0  0  0  0  0  0  0  0  0  0  0  0
   42.8424   10.9411   11.5208 C   0  0  0  0  0  0  0  0  0  0  0  0
   44.2812   16.2288   12.7646 C   0  0  0  0  0  0  0  0  0  0  0  0
   48.6523    5.8022   17.6224 C   0  0  0  0  0  0  0  0  0  0  0  0
   48.1247    9.1463   12.8659 H   0  0  0  0  0  0  0  0  0  0  0  0
   45.5477   12.2942   11.0216 H   0  0  0  0  0  0  0  0  0  0  0  0
   45.7983    5.6962   13.9884 H   0  0  0  0  0  0  0  0  0  0  0  0
   44.7787    6.5370   12.1336 H   0  0  0  0  0  0  0  0  0  0  0  0
   43.4293    8.4324   11.4273 H   0  0  0  0  0  0  0  0  0  0  0  0
   46.9186    3.5442   14.0657 H   0  0  0  0  0  0  0  0  0  0  0  0
   48.4650    4.3467   13.7900 H   0  0  0  0  0  0  0  0  0  0  0  0
   47.9766   13.8452   11.8641 H   0  0  0  0  0  0  0  0  0  0  0  0
   46.9329   14.2160   10.4930 H   0  0  0  0  0  0  0  0  0  0  0  0
   46.1808    3.1956   16.3412 H   0  0  0  0  0  0  0  0  0  0  0  0
   46.9362   13.9280   14.2531 H   0  0  0  0  0  0  0  0  0  0  0  0
   43.9047   16.6521   14.8443 H   0  0  0  0  0  0  0  0  0  0  0  0
   47.9105    5.1316   19.5310 H   0  0  0  0  0  0  0  0  0  0  0  0
   44.9218   15.5748   10.8205 H   0  0  0  0  0  0  0  0  0  0  0  0
   49.1502    6.2196   15.5718 H   0  0  0  0  0  0  0  0  0  0  0  0
   42.4434   11.9551   11.4273 H   0  0  0  0  0  0  0  0  0  0  0  0
   42.4005   10.3337   10.7245 H   0  0  0  0  0  0  0  0  0  0  0  0
   42.5627   10.5618   12.5101 H   0  0  0  0  0  0  0  0  0  0  0  0
   43.5103   16.8944   12.3923 H   0  0  0  0  0  0  0  0  0  0  0  0
   49.3405    6.5315   18.0354 H   0  0  0  0  0  0  0  0  0  0  0  0
  2  1  1  0
  3  1  2  0
  4  5  1  0
  5  3  1  0
  6  2  1  0
  7  4  1  0
  8  1  1  0
  9  2  2  0
 10  4  2  0
 11 21  2  0
 12 20  2  0
 13 14  1  0
 14  8  2  0
 15 18  1  0
 16 17  1  0
 17  7  1  0
 18  6  1  0
 19  8  1  0
 20 16  1  0
 21 15  1  0
 22 27  2  0
 23 28  2  0
 24 15  2  0
 25 16  2  0
 26 19  1  0
 27 24  1  0
 28 25  1  0
  5 13  2  0
 11 22  1  0
 12 23  1  0
  3 29  1  0
  6 30  1  0
  7 31  1  0
 13 32  1  0
 14 33  1  0
 17 34  1  0
 17 35  1  0
 18 36  1  0
 18 37  1  0
 20 38  1  0
 21 39  1  0
 22 40  1  0
 23 41  1  0
 24 42  1  0
 25 43  1  0
 26 44  1  0
 26 45  1  0
 26 46  1  0
 27 47  1  0
 28 48  1  0
M  END
> <Uni-Dock RESULT> 
ENERGY=   -4.285  LOWER_BOUND=    4.665  UPPER_BOUND=    7.326
INTER + INTRA:          -4.285
INTER:                  -4.285
INTRA:                   0.000
UNBOUND:                 0.000

$$$$

     RDKit          3D

 48 50  0  0  0  0  0  0  0  0999 V2000
   45.5017   10.1460   11.8462 C   0  0  0  0  0  0  0  0  0  0  0  0
   45.9836    8.8387   12.3951 C   0  0  0  0  0  0  0  0  0  0  0  0
   44.1119   10.3579   11.8746 C   0  0  0  0  0  0  0  0  0  0  0  0
   42.0832   11.7221   11.4492 C   0  0  0  0  0  0  0  0  0  0  0  0
   43.5603   11.5536   11.4053 C   0  0  0  0  0  0  0  0  0  0  0  0
   47.2473    8.4309   12.0376 N   0  0  0  0  0  0  0  0  0  0  0  0
   41.6249   13.0096   11.6327 N   0  0  0  0  0  0  0  0  0  0  0  0
   46.3474   11.1568   11.3455 C   0  0  0  0  0  0  0  0  0  0  0  0
   45.2567    8.1748   13.1283 O   0  0  0  0  0  0  0  0  0  0  0  0
   41.3515   10.7444   11.3543 O   0  0  0  0  0  0  0  0  0  0  0  0
   49.1749    8.3810   16.0007 N   0  0  0  0  0  0  0  0  0  0  0  0
   39.4147   14.9112   15.1695 N   0  0  0  0  0  0  0  0  0  0  0  0
   44.3976   12.5397   10.8793 C   0  0  0  0  0  0  0  0  0  0  0  0
   45.7818   12.3403   10.8488 C   0  0  0  0  0  0  0  0  0  0  0  0
   48.8347    7.6714   13.7059 C   0  0  0  0  0  0  0  0  0  0  0  0
   39.9129   13.4418   13.3057 C   0  0  0  0  0  0  0  0  0  0  0  0
   40.2184   13.2804   11.8453 C   0  0  0  0  0  0  0  0  0  0  0  0
   47.8760    7.2716   12.6232 C   0  0  0  0  0  0  0  0  0  0  0  0
   47.6998   10.9232   11.3313 O   0  0  0  0  0  0  0  0  0  0  0  0
   39.6762   14.6952   13.8602 C   0  0  0  0  0  0  0  0  0  0  0  0
   48.3738    7.9994   14.9777 C   0  0  0  0  0  0  0  0  0  0  0  0
   50.4979    8.4433   15.7438 C   0  0  0  0  0  0  0  0  0  0  0  0
   39.3835   13.8224   15.9688 C   0  0  0  0  0  0  0  0  0  0  0  0
   50.2108    7.7591   13.4774 C   0  0  0  0  0  0  0  0  0  0  0  0
   39.8740   12.3415   14.1683 C   0  0  0  0  0  0  0  0  0  0  0  0
   48.5461   12.0703   11.3697 C   0  0  0  0  0  0  0  0  0  0  0  0
   51.0578    8.1470   14.5121 C   0  0  0  0  0  0  0  0  0  0  0  0
   39.6044   12.5313   15.5202 C   0  0  0  0  0  0  0  0  0  0  0  0
   43.4527    9.5833   12.2666 H   0  0  0  0  0  0  0  0  0  0  0  0
   47.8328    9.0937   11.5413 H   0  0  0  0  0  0  0  0  0  0  0  0
   42.2773   13.7169   11.9408 H   0  0  0  0  0  0  0  0  0  0  0  0
   43.9880   13.4551   10.4603 H   0  0  0  0  0  0  0  0  0  0  0  0
   46.3960   13.1216   10.4111 H   0  0  0  0  0  0  0  0  0  0  0  0
   39.9870   14.2018   11.2991 H   0  0  0  0  0  0  0  0  0  0  0  0
   39.5977   12.4854   11.4167 H   0  0  0  0  0  0  0  0  0  0  0  0
   47.1270    6.5768   13.0183 H   0  0  0  0  0  0  0  0  0  0  0  0
   48.4056    6.7512   11.8176 H   0  0  0  0  0  0  0  0  0  0  0  0
   39.6916   15.5958   13.2519 H   0  0  0  0  0  0  0  0  0  0  0  0
   47.3121    7.9677   15.2156 H   0  0  0  0  0  0  0  0  0  0  0  0
   51.1179    8.7504   16.5805 H   0  0  0  0  0  0  0  0  0  0  0  0
   39.1693   14.0208   17.0150 H   0  0  0  0  0  0  0  0  0  0  0  0
   50.6269    7.5234   12.5014 H   0  0  0  0  0  0  0  0  0  0  0  0
   40.0547   11.3374   13.7884 H   0  0  0  0  0  0  0  0  0  0  0  0
   49.5533   11.7298   11.6259 H   0  0  0  0  0  0  0  0  0  0  0  0
   48.5950   12.5461   10.3849 H   0  0  0  0  0  0  0  0  0  0  0  0
   48.2286   12.7833   12.1389 H   0  0  0  0  0  0  0  0  0  0  0  0
   52.1296    8.2172   14.3628 H   0  0  0  0  0  0  0  0  0  0  0  0
   39.5694   11.6915   16.2055 H   0  0  0  0  0  0  0  0  0  0  0  0
  2  1  1  0
  3  1  2  0
  4  5  1  0
  5  3  1  0
  6  2  1  0
  7  4  1  0
  8  1  1  0
  9  2  2  0
 10  4  2  0
 11 21  2  0
 12 20  2  0
 13 14  1  0
 14  8  2  0
 15 18  1  0
 16 17  1  0
 17  7  1  0
 18  6  1  0
 19  8  1  0
 20 16  1  0
 21 15  1  0
 22 27  2  0
 23 28  2  0
 24 15  2  0
 25 16  2  0
 26 19  1  0
 27 24  1  0
 28 25  1  0
  5 13  2  0
 11 22  1  0
 12 23  1  0
  3 29  1  0
  6 30  1  0
  7 31  1  0
 13 32  1  0
 14 33  1  0
 17 34  1  0
 17 35  1  0
 18 36  1  0
 18 37  1  0
 20 38  1  0
 21 39  1  0
 22 40  1  0
 23 41  1  0
 24 42  1  0
 25 43  1  0
 26 44  1  0
 26 45  1  0
 26 46  1  0
 27 47  1  0
 28 48  1  0
M  END
> <Uni-Dock RESULT> 
ENERGY=   -4.094  LOWER_BOUND=    5.896  UPPER_BOUND=    8.996
INTER + INTRA:          -4.094
INTER:                  -4.094
INTRA:                   0.000
UNBOUND:                 0.000

$$$$
