
     RDKit          3D

 48 50  0  0  0  0  0  0  0  0999 V2000
   45.0936    8.4105   11.9969 C   0  0  0  0  0  0  0  0  0  0  0  0
   43.9934    7.4898   11.5582 C   0  0  0  0  0  0  0  0  0  0  0  0
   44.9590    9.7612   11.6262 C   0  0  0  0  0  0  0  0  0  0  0  0
   45.7220   12.1233   11.5880 C   0  0  0  0  0  0  0  0  0  0  0  0
   45.9191   10.7069   11.9991 C   0  0  0  0  0  0  0  0  0  0  0  0
   43.9359    6.2488   12.1466 N   0  0  0  0  0  0  0  0  0  0  0  0
   46.2293   13.0799   12.4421 N   0  0  0  0  0  0  0  0  0  0  0  0
   46.2333    8.0032   12.7220 C   0  0  0  0  0  0  0  0  0  0  0  0
   43.1828    7.8575   10.7131 O   0  0  0  0  0  0  0  0  0  0  0  0
   45.1105   12.3847   10.5597 O   0  0  0  0  0  0  0  0  0  0  0  0
   44.8855    2.1581   10.4283 N   0  0  0  0  0  0  0  0  0  0  0  0
   44.0578   16.1207   15.0639 N   0  0  0  0  0  0  0  0  0  0  0  0
   47.0397   10.3012   12.7276 C   0  0  0  0  0  0  0  0  0  0  0  0
   47.1916    8.9591   13.0900 C   0  0  0  0  0  0  0  0  0  0  0  0
   43.7379    4.2688   10.7606 C   0  0  0  0  0  0  0  0  0  0  0  0
   44.8250   14.9596   13.0782 C   0  0  0  0  0  0  0  0  0  0  0  0
   45.9690   14.4879   12.2295 C   0  0  0  0  0  0  0  0  0  0  0  0
   43.0369    5.2158   11.6898 C   0  0  0  0  0  0  0  0  0  0  0  0
   46.3468    6.6791   13.0663 O   0  0  0  0  0  0  0  0  0  0  0  0
   45.0416   15.6869   14.2439 C   0  0  0  0  0  0  0  0  0  0  0  0
   44.2238    3.0446   11.2072 C   0  0  0  0  0  0  0  0  0  0  0  0
   45.0736    2.5096    9.1380 C   0  0  0  0  0  0  0  0  0  0  0  0
   42.7916   15.8183   14.7038 C   0  0  0  0  0  0  0  0  0  0  0  0
   43.9620    4.5978    9.4206 C   0  0  0  0  0  0  0  0  0  0  0  0
   43.5001   14.6635   12.7441 C   0  0  0  0  0  0  0  0  0  0  0  0
   47.6680    6.1786   13.2624 C   0  0  0  0  0  0  0  0  0  0  0  0
   44.6367    3.7056    8.5933 C   0  0  0  0  0  0  0  0  0  0  0  0
   42.4656   15.0997   13.5660 C   0  0  0  0  0  0  0  0  0  0  0  0
   44.0918   10.0821   11.0482 H   0  0  0  0  0  0  0  0  0  0  0  0
   44.7109    5.9772   12.7418 H   0  0  0  0  0  0  0  0  0  0  0  0
   46.5023   12.8024   13.3743 H   0  0  0  0  0  0  0  0  0  0  0  0
   47.8172   11.0100   13.0004 H   0  0  0  0  0  0  0  0  0  0  0  0
   48.0705    8.6878   13.6678 H   0  0  0  0  0  0  0  0  0  0  0  0
   46.8880   15.0246   12.4903 H   0  0  0  0  0  0  0  0  0  0  0  0
   45.7641   14.6915   11.1724 H   0  0  0  0  0  0  0  0  0  0  0  0
   42.6753    4.6866   12.5783 H   0  0  0  0  0  0  0  0  0  0  0  0
   42.1620    5.6527   11.1952 H   0  0  0  0  0  0  0  0  0  0  0  0
   46.0446   15.9511   14.5685 H   0  0  0  0  0  0  0  0  0  0  0  0
   44.0954    2.7281   12.2391 H   0  0  0  0  0  0  0  0  0  0  0  0
   45.6042    1.7810    8.5320 H   0  0  0  0  0  0  0  0  0  0  0  0
   42.0194   16.1800   15.3765 H   0  0  0  0  0  0  0  0  0  0  0  0
   43.6146    5.5507    9.0246 H   0  0  0  0  0  0  0  0  0  0  0  0
   43.2739   14.0920   11.8454 H   0  0  0  0  0  0  0  0  0  0  0  0
   48.3368    6.4750   12.4471 H   0  0  0  0  0  0  0  0  0  0  0  0
   47.6115    5.0857   13.2681 H   0  0  0  0  0  0  0  0  0  0  0  0
   48.0609    6.4961   14.2335 H   0  0  0  0  0  0  0  0  0  0  0  0
   44.8189    3.9404    7.5509 H   0  0  0  0  0  0  0  0  0  0  0  0
   41.4314   14.8821   13.3240 H   0  0  0  0  0  0  0  0  0  0  0  0
  2  1  1  0
  3  1  2  0
  4  5  1  0
  5  3  1  0
  6  2  1  0
  7  4  1  0
  8  1  1  0
  9  2  2  0
 10  4  2  0
 11 21  2  0
 12 20  2  0
 13 14  1  0
 14  8  2  0
 15 18  1  0
 16 17  1  0
 17  7  1  0
 18  6  1  0
 19  8  1  0
 20 16  1  0
 21 15  1  0
 22 27  2  0
 23 28  2  0
 24 15  2  0
 25 16  2  0
 26 19  1  0
 27 24  1  0
 28 25  1  0
  5 13  2  0
 11 22  1  0
 12 23  1  0
  3 29  1  0
  6 30  1  0
  7 31  1  0
 13 32  1  0
 14 33  1  0
 17 34  1  0
 17 35  1  0
 18 36  1  0
 18 37  1  0
 20 38  1  0
 21 39  1  0
 22 40  1  0
 23 41  1  0
 24 42  1  0
 25 43  1  0
 26 44  1  0
 26 45  1  0
 26 46  1  0
 27 47  1  0
 28 48  1  0
M  END
> <Uni-Dock RESULT> 
ENERGY=   -5.734  LOWER_BOUND=    0.000  UPPER_BOUND=    0.000
INTER + INTRA:          -5.734
INTER:                  -5.734
INTRA:                   0.000
UNBOUND:                 0.000

$$$$

     RDKit          3D

 48 50  0  0  0  0  0  0  0  0999 V2000
   45.0774    8.4165   11.9909 C   0  0  0  0  0  0  0  0  0  0  0  0
   43.9806    7.4899   11.5561 C   0  0  0  0  0  0  0  0  0  0  0  0
   44.9346    9.7664   11.6202 C   0  0  0  0  0  0  0  0  0  0  0  0
   45.6851   12.1324   11.5787 C   0  0  0  0  0  0  0  0  0  0  0  0
   45.8909   10.7172   11.9897 C   0  0  0  0  0  0  0  0  0  0  0  0
   43.9315    6.2488   12.1450 N   0  0  0  0  0  0  0  0  0  0  0  0
   46.1901   13.0919   12.4308 N   0  0  0  0  0  0  0  0  0  0  0  0
   46.2216    8.0154   12.7123 C   0  0  0  0  0  0  0  0  0  0  0  0
   43.1653    7.8531   10.7135 O   0  0  0  0  0  0  0  0  0  0  0  0
   45.0688   12.3902   10.5523 O   0  0  0  0  0  0  0  0  0  0  0  0
   44.8969    2.1626   10.4249 N   0  0  0  0  0  0  0  0  0  0  0  0
   44.0113   16.1222   15.0588 N   0  0  0  0  0  0  0  0  0  0  0  0
   47.0160   10.3176   12.7146 C   0  0  0  0  0  0  0  0  0  0  0  0
   47.1761    8.9765   13.0770 C   0  0  0  0  0  0  0  0  0  0  0  0
   43.7394    4.2673   10.7604 C   0  0  0  0  0  0  0  0  0  0  0  0
   44.7781   14.9644   13.0710 C   0  0  0  0  0  0  0  0  0  0  0  0
   45.9217   14.4985   12.2187 C   0  0  0  0  0  0  0  0  0  0  0  0
   43.0364    5.2110   11.6915 C   0  0  0  0  0  0  0  0  0  0  0  0
   46.3431    6.6920   13.0567 O   0  0  0  0  0  0  0  0  0  0  0  0
   44.9947   15.6933   14.2357 C   0  0  0  0  0  0  0  0  0  0  0  0
   44.2331    3.0458   11.2057 C   0  0  0  0  0  0  0  0  0  0  0  0
   45.0789    2.5146    9.1339 C   0  0  0  0  0  0  0  0  0  0  0  0
   42.7456   15.8130   14.7029 C   0  0  0  0  0  0  0  0  0  0  0  0
   43.9573    4.5970    9.4195 C   0  0  0  0  0  0  0  0  0  0  0  0
   43.4536   14.6613   12.7413 C   0  0  0  0  0  0  0  0  0  0  0  0
   47.6676    6.1985   13.2487 C   0  0  0  0  0  0  0  0  0  0  0  0
   44.6340    3.7081    8.5903 C   0  0  0  0  0  0  0  0  0  0  0  0
   42.4196   15.0924   13.5664 C   0  0  0  0  0  0  0  0  0  0  0  0
   44.0637   10.0825   11.0449 H   0  0  0  0  0  0  0  0  0  0  0  0
   44.7099    5.9815   12.7378 H   0  0  0  0  0  0  0  0  0  0  0  0
   46.4676   12.8162   13.3623 H   0  0  0  0  0  0  0  0  0  0  0  0
   47.7907   11.0306   12.9846 H   0  0  0  0  0  0  0  0  0  0  0  0
   48.0582    8.7100   13.6519 H   0  0  0  0  0  0  0  0  0  0  0  0
   46.8387   15.0400   12.4762 H   0  0  0  0  0  0  0  0  0  0  0  0
   45.7123   14.7006   11.1622 H   0  0  0  0  0  0  0  0  0  0  0  0
   42.6805    4.6802   12.5814 H   0  0  0  0  0  0  0  0  0  0  0  0
   42.1577    5.6432   11.1997 H   0  0  0  0  0  0  0  0  0  0  0  0
   45.9973   15.9629   14.5569 H   0  0  0  0  0  0  0  0  0  0  0  0
   44.1097    2.7290   12.2382 H   0  0  0  0  0  0  0  0  0  0  0  0
   45.6113    1.7886    8.5265 H   0  0  0  0  0  0  0  0  0  0  0  0
   41.9737   16.1710   15.3781 H   0  0  0  0  0  0  0  0  0  0  0  0
   43.6037    5.5480    9.0244 H   0  0  0  0  0  0  0  0  0  0  0  0
   43.2275   14.0883   11.8435 H   0  0  0  0  0  0  0  0  0  0  0  0
   48.3321    6.4981   12.4311 H   0  0  0  0  0  0  0  0  0  0  0  0
   47.6168    5.1053   13.2548 H   0  0  0  0  0  0  0  0  0  0  0  0
   48.0620    6.5184   14.2184 H   0  0  0  0  0  0  0  0  0  0  0  0
   44.8115    3.9435    7.5473 H   0  0  0  0  0  0  0  0  0  0  0  0
   41.3858   14.8693   13.3279 H   0  0  0  0  0  0  0  0  0  0  0  0
  2  1  1  0
  3  1  2  0
  4  5  1  0
  5  3  1  0
  6  2  1  0
  7  4  1  0
  8  1  1  0
  9  2  2  0
 10  4  2  0
 11 21  2  0
 12 20  2  0
 13 14  1  0
 14  8  2  0
 15 18  1  0
 16 17  1  0
 17  7  1  0
 18  6  1  0
 19  8  1  0
 20 16  1  0
 21 15  1  0
 22 27  2  0
 23 28  2  0
 24 15  2  0
 25 16  2  0
 26 19  1  0
 27 24  1  0
 28 25  1  0
  5 13  2  0
 11 22  1  0
 12 23  1  0
  3 29  1  0
  6 30  1  0
  7 31  1  0
 13 32  1  0
 14 33  1  0
 17 34  1  0
 17 35  1  0
 18 36  1  0
 18 37  1  0
 20 38  1  0
 21 39  1  0
 22 40  1  0
 23 41  1  0
 24 42  1  0
 25 43  1  0
 26 44  1  0
 26 45  1  0
 26 46  1  0
 27 47  1  0
 28 48  1  0
M  END
> <Uni-Dock RESULT> 
ENERGY=   -5.727  LOWER_BOUND=    0.031  UPPER_BOUND=    0.031
INTER + INTRA:          -5.727
INTER:                  -5.727
INTRA:                   0.000
UNBOUND:                 0.000

$$$$

     RDKit          3D

 48 50  0  0  0  0  0  0  0  0999 V2000
   48.1316    7.4303   13.0193 C   0  0  0  0  0  0  0  0  0  0  0  0
   48.9411    8.6536   12.7049 C   0  0  0  0  0  0  0  0  0  0  0  0
   47.2069    7.0274   12.0381 C   0  0  0  0  0  0  0  0  0  0  0  0
   45.4597    5.5047   11.1483 C   0  0  0  0  0  0  0  0  0  0  0  0
   46.4144    5.8902   12.2225 C   0  0  0  0  0  0  0  0  0  0  0  0
   50.0445    8.8992   13.4871 N   0  0  0  0  0  0  0  0  0  0  0  0
   45.2070    4.1554   11.0160 N   0  0  0  0  0  0  0  0  0  0  0  0
   48.2295    6.6955   14.2197 C   0  0  0  0  0  0  0  0  0  0  0  0
   48.6162    9.3848   11.7742 O   0  0  0  0  0  0  0  0  0  0  0  0
   44.9727    6.3626   10.4228 O   0  0  0  0  0  0  0  0  0  0  0  0
   50.7366   12.0915   16.6364 N   0  0  0  0  0  0  0  0  0  0  0  0
   46.3225    1.2771    7.6534 N   0  0  0  0  0  0  0  0  0  0  0  0
   46.5236    5.1588   13.4074 C   0  0  0  0  0  0  0  0  0  0  0  0
   47.4291    5.5572   14.3959 C   0  0  0  0  0  0  0  0  0  0  0  0
   50.3674   11.0993   14.4543 C   0  0  0  0  0  0  0  0  0  0  0  0
   45.2966    3.1481    8.8053 C   0  0  0  0  0  0  0  0  0  0  0  0
   44.4176    3.6455    9.9149 C   0  0  0  0  0  0  0  0  0  0  0  0
   50.8001   10.1259   13.3974 C   0  0  0  0  0  0  0  0  0  0  0  0
   49.1332    7.1115   15.1656 O   0  0  0  0  0  0  0  0  0  0  0  0
   45.5245    1.7888    8.6176 C   0  0  0  0  0  0  0  0  0  0  0  0
   51.0861   11.2515   15.6351 C   0  0  0  0  0  0  0  0  0  0  0  0
   49.6125   12.8170   16.4521 C   0  0  0  0  0  0  0  0  0  0  0  0
   46.9229    2.1639    6.8302 C   0  0  0  0  0  0  0  0  0  0  0  0
   49.2052   11.8622   14.3077 C   0  0  0  0  0  0  0  0  0  0  0  0
   45.9409    4.0323    7.9348 C   0  0  0  0  0  0  0  0  0  0  0  0
   48.8487    6.7659   16.5199 C   0  0  0  0  0  0  0  0  0  0  0  0
   48.8210   12.7376   15.3185 C   0  0  0  0  0  0  0  0  0  0  0  0
   46.7653    3.5359    6.9299 C   0  0  0  0  0  0  0  0  0  0  0  0
   47.1095    7.6006   11.1156 H   0  0  0  0  0  0  0  0  0  0  0  0
   50.1736    8.3187   14.3087 H   0  0  0  0  0  0  0  0  0  0  0  0
   45.8184    3.4992   11.4808 H   0  0  0  0  0  0  0  0  0  0  0  0
   45.8950    4.2911   13.5900 H   0  0  0  0  0  0  0  0  0  0  0  0
   47.4925    4.9531   15.2965 H   0  0  0  0  0  0  0  0  0  0  0  0
   43.8037    2.8303   10.3139 H   0  0  0  0  0  0  0  0  0  0  0  0
   43.7317    4.4128    9.5385 H   0  0  0  0  0  0  0  0  0  0  0  0
   51.8564    9.8643   13.5241 H   0  0  0  0  0  0  0  0  0  0  0  0
   50.6952   10.5753   12.4035 H   0  0  0  0  0  0  0  0  0  0  0  0
   45.0604    1.0431    9.2577 H   0  0  0  0  0  0  0  0  0  0  0  0
   51.9934   10.6826   15.8217 H   0  0  0  0  0  0  0  0  0  0  0  0
   49.3542   13.4861   17.2678 H   0  0  0  0  0  0  0  0  0  0  0  0
   47.5560    1.7285    6.0625 H   0  0  0  0  0  0  0  0  0  0  0  0
   48.5986   11.7698   13.4083 H   0  0  0  0  0  0  0  0  0  0  0  0
   45.8022    5.1071    8.0403 H   0  0  0  0  0  0  0  0  0  0  0  0
   47.8093    6.9894   16.7834 H   0  0  0  0  0  0  0  0  0  0  0  0
   49.4943    7.3747   17.1605 H   0  0  0  0  0  0  0  0  0  0  0  0
   49.0890    5.7148   16.7088 H   0  0  0  0  0  0  0  0  0  0  0  0
   47.9247   13.3397   15.2239 H   0  0  0  0  0  0  0  0  0  0  0  0
   47.2727    4.2044    6.2436 H   0  0  0  0  0  0  0  0  0  0  0  0
  2  1  1  0
  3  1  2  0
  4  5  1  0
  5  3  1  0
  6  2  1  0
  7  4  1  0
  8  1  1  0
  9  2  2  0
 10  4  2  0
 11 21  2  0
 12 20  2  0
 13 14  1  0
 14  8  2  0
 15 18  1  0
 16 17  1  0
 17  7  1  0
 18  6  1  0
 19  8  1  0
 20 16  1  0
 21 15  1  0
 22 27  2  0
 23 28  2  0
 24 15  2  0
 25 16  2  0
 26 19  1  0
 27 24  1  0
 28 25  1  0
  5 13  2  0
 11 22  1  0
 12 23  1  0
  3 29  1  0
  6 30  1  0
  7 31  1  0
 13 32  1  0
 14 33  1  0
 17 34  1  0
 17 35  1  0
 18 36  1  0
 18 37  1  0
 20 38  1  0
 21 39  1  0
 22 40  1  0
 23 41  1  0
 24 42  1  0
 25 43  1  0
 26 44  1  0
 26 45  1  0
 26 46  1  0
 27 47  1  0
 28 48  1  0
M  END
> <Uni-Dock RESULT> 
ENERGY=   -5.704  LOWER_BOUND=    3.941  UPPER_BOUND=    9.835
INTER + INTRA:          -5.704
INTER:                  -5.704
INTRA:                   0.000
UNBOUND:                 0.000

$$$$

     RDKit          3D

 48 50  0  0  0  0  0  0  0  0999 V2000
   47.8674    6.5555   13.8664 C   0  0  0  0  0  0  0  0  0  0  0  0
   48.6944    7.8057   13.8058 C   0  0  0  0  0  0  0  0  0  0  0  0
   46.9879    6.3389   12.7896 C   0  0  0  0  0  0  0  0  0  0  0  0
   45.2790    5.0126   11.5714 C   0  0  0  0  0  0  0  0  0  0  0  0
   46.1843    5.1957   12.7381 C   0  0  0  0  0  0  0  0  0  0  0  0
   49.7612    7.9000   14.6675 N   0  0  0  0  0  0  0  0  0  0  0  0
   45.0286    3.7095   11.1958 N   0  0  0  0  0  0  0  0  0  0  0  0
   47.9076    5.6228   14.9242 C   0  0  0  0  0  0  0  0  0  0  0  0
   48.4150    8.6907   13.0024 O   0  0  0  0  0  0  0  0  0  0  0  0
   44.8286    5.9885   10.9847 O   0  0  0  0  0  0  0  0  0  0  0  0
   50.3168   10.4907   18.3509 N   0  0  0  0  0  0  0  0  0  0  0  0
   46.2894    1.4451    7.4383 N   0  0  0  0  0  0  0  0  0  0  0  0
   46.2364    4.2689   13.7818 C   0  0  0  0  0  0  0  0  0  0  0  0
   47.0964    4.4800   14.8641 C   0  0  0  0  0  0  0  0  0  0  0  0
   50.0458    9.8957   16.0153 C   0  0  0  0  0  0  0  0  0  0  0  0
   45.2171    3.0994    8.8501 C   0  0  0  0  0  0  0  0  0  0  0  0
   44.2893    3.4067    9.9885 C   0  0  0  0  0  0  0  0  0  0  0  0
   50.5239    9.1153   14.8261 C   0  0  0  0  0  0  0  0  0  0  0  0
   48.7680    5.8588   15.9676 O   0  0  0  0  0  0  0  0  0  0  0  0
   45.4493    1.7908    8.4398 C   0  0  0  0  0  0  0  0  0  0  0  0
   50.7097    9.8330   17.2358 C   0  0  0  0  0  0  0  0  0  0  0  0
   49.2047   11.2495   18.2450 C   0  0  0  0  0  0  0  0  0  0  0  0
   46.9298    2.4544    6.8093 C   0  0  0  0  0  0  0  0  0  0  0  0
   48.8940   10.6852   15.9513 C   0  0  0  0  0  0  0  0  0  0  0  0
   45.9036    4.1140    8.1761 C   0  0  0  0  0  0  0  0  0  0  0  0
   48.4202    5.2869   17.2272 C   0  0  0  0  0  0  0  0  0  0  0  0
   48.4661   11.3764   17.0804 C   0  0  0  0  0  0  0  0  0  0  0  0
   46.7720    3.7900    7.1384 C   0  0  0  0  0  0  0  0  0  0  0  0
   46.9349    7.0642   11.9771 H   0  0  0  0  0  0  0  0  0  0  0  0
   49.8505    7.1846   15.3809 H   0  0  0  0  0  0  0  0  0  0  0  0
   45.6159    2.9760   11.5667 H   0  0  0  0  0  0  0  0  0  0  0  0
   45.5974    3.3897   13.7826 H   0  0  0  0  0  0  0  0  0  0  0  0
   47.1164    3.7285   15.6481 H   0  0  0  0  0  0  0  0  0  0  0  0
   43.6552    2.5416   10.2120 H   0  0  0  0  0  0  0  0  0  0  0  0
   43.6239    4.2351    9.7205 H   0  0  0  0  0  0  0  0  0  0  0  0
   51.5724    8.8242   14.9528 H   0  0  0  0  0  0  0  0  0  0  0  0
   50.4663    9.7312   13.9216 H   0  0  0  0  0  0  0  0  0  0  0  0
   44.9538    0.9506    8.9192 H   0  0  0  0  0  0  0  0  0  0  0  0
   51.6057    9.2305   17.3614 H   0  0  0  0  0  0  0  0  0  0  0  0
   48.9110   11.7700   19.1519 H   0  0  0  0  0  0  0  0  0  0  0  0
   47.5964    2.1516    6.0070 H   0  0  0  0  0  0  0  0  0  0  0  0
   48.3292   10.7566   15.0232 H   0  0  0  0  0  0  0  0  0  0  0  0
   45.7634    5.1557    8.4601 H   0  0  0  0  0  0  0  0  0  0  0  0
   47.3704    5.4728   17.4785 H   0  0  0  0  0  0  0  0  0  0  0  0
   49.0374    5.7684   17.9921 H   0  0  0  0  0  0  0  0  0  0  0  0
   48.6483    4.2164   17.2415 H   0  0  0  0  0  0  0  0  0  0  0  0
   47.5770   11.9956   17.0515 H   0  0  0  0  0  0  0  0  0  0  0  0
   47.3125    4.5617    6.6020 H   0  0  0  0  0  0  0  0  0  0  0  0
  2  1  1  0
  3  1  2  0
  4  5  1  0
  5  3  1  0
  6  2  1  0
  7  4  1  0
  8  1  1  0
  9  2  2  0
 10  4  2  0
 11 21  2  0
 12 20  2  0
 13 14  1  0
 14  8  2  0
 15 18  1  0
 16 17  1  0
 17  7  1  0
 18  6  1  0
 19  8  1  0
 20 16  1  0
 21 15  1  0
 22 27  2  0
 23 28  2  0
 24 15  2  0
 25 16  2  0
 26 19  1  0
 27 24  1  0
 28 25  1  0
  5 13  2  0
 11 22  1  0
 12 23  1  0
  3 29  1  0
  6 30  1  0
  7 31  1  0
 13 32  1  0
 14 33  1  0
 17 34  1  0
 17 35  1  0
 18 36  1  0
 18 37  1  0
 20 38  1  0
 21 39  1  0
 22 40  1  0
 23 41  1  0
 24 42  1  0
 25 43  1  0
 26 44  1  0
 26 45  1  0
 26 46  1  0
 27 47  1  0
 28 48  1  0
M  END
> <Uni-Dock RESULT> 
ENERGY=   -5.669  LOWER_BOUND=    4.576  UPPER_BOUND=    9.868
INTER + INTRA:          -5.669
INTER:                  -5.669
INTRA:                   0.000
UNBOUND:                 0.000

$$$$

     RDKit          3D

 48 50  0  0  0  0  0  0  0  0999 V2000
   48.2546    7.2531   13.0682 C   0  0  0  0  0  0  0  0  0  0  0  0
   49.1759    8.4091   12.8125 C   0  0  0  0  0  0  0  0  0  0  0  0
   47.3724    6.9183   12.0244 C   0  0  0  0  0  0  0  0  0  0  0  0
   45.5794    5.5306   11.0131 C   0  0  0  0  0  0  0  0  0  0  0  0
   46.4837    5.8462   12.1518 C   0  0  0  0  0  0  0  0  0  0  0  0
   50.2377    8.5725   13.6700 N   0  0  0  0  0  0  0  0  0  0  0  0
   45.2333    4.2043   10.8620 N   0  0  0  0  0  0  0  0  0  0  0  0
   48.2117    6.5181   14.2717 C   0  0  0  0  0  0  0  0  0  0  0  0
   48.9739    9.1592   11.8621 O   0  0  0  0  0  0  0  0  0  0  0  0
   45.2116    6.4204   10.2563 O   0  0  0  0  0  0  0  0  0  0  0  0
   50.9524   11.7156   16.8635 N   0  0  0  0  0  0  0  0  0  0  0  0
   46.3555    1.2344    7.5822 N   0  0  0  0  0  0  0  0  0  0  0  0
   46.4534    5.1136   13.3406 C   0  0  0  0  0  0  0  0  0  0  0  0
   47.3157    5.4454   14.3903 C   0  0  0  0  0  0  0  0  0  0  0  0
   50.6609   10.7454   14.6598 C   0  0  0  0  0  0  0  0  0  0  0  0
   45.3989    3.1836    8.6618 C   0  0  0  0  0  0  0  0  0  0  0  0
   44.4856    3.7518    9.7079 C   0  0  0  0  0  0  0  0  0  0  0  0
   51.0900    9.7371   13.6347 C   0  0  0  0  0  0  0  0  0  0  0  0
   49.0767    6.8674   15.2788 O   0  0  0  0  0  0  0  0  0  0  0  0
   45.5340    1.8100    8.4890 C   0  0  0  0  0  0  0  0  0  0  0  0
   51.3052   10.8469   15.8881 C   0  0  0  0  0  0  0  0  0  0  0  0
   49.9031   12.5246   16.6020 C   0  0  0  0  0  0  0  0  0  0  0  0
   47.0783    2.0688    6.8040 C   0  0  0  0  0  0  0  0  0  0  0  0
   49.5740   11.5948   14.4333 C   0  0  0  0  0  0  0  0  0  0  0  0
   46.1685    4.0119    7.8393 C   0  0  0  0  0  0  0  0  0  0  0  0
   48.6728    6.5505   16.6096 C   0  0  0  0  0  0  0  0  0  0  0  0
   49.1888   12.5014   15.4158 C   0  0  0  0  0  0  0  0  0  0  0  0
   47.0202    3.4493    6.8939 C   0  0  0  0  0  0  0  0  0  0  0  0
   47.3839    7.4933   11.0979 H   0  0  0  0  0  0  0  0  0  0  0  0
   50.2642    7.9873   14.4980 H   0  0  0  0  0  0  0  0  0  0  0  0
   45.7585    3.5050   11.3676 H   0  0  0  0  0  0  0  0  0  0  0  0
   45.7486    4.2976   13.4779 H   0  0  0  0  0  0  0  0  0  0  0  0
   47.2696    4.8421   15.2924 H   0  0  0  0  0  0  0  0  0  0  0  0
   43.7845    2.9880   10.0621 H   0  0  0  0  0  0  0  0  0  0  0  0
   43.8888    4.5680    9.2853 H   0  0  0  0  0  0  0  0  0  0  0  0
   52.1116    9.3956   13.8345 H   0  0  0  0  0  0  0  0  0  0  0  0
   51.0895   10.1889   12.6364 H   0  0  0  0  0  0  0  0  0  0  0  0
   44.9703    1.1049    9.0942 H   0  0  0  0  0  0  0  0  0  0  0  0
   52.1507   10.2107   16.1369 H   0  0  0  0  0  0  0  0  0  0  0  0
   49.6409   13.2150   17.3983 H   0  0  0  0  0  0  0  0  0  0  0  0
   47.7280    1.5828    6.0819 H   0  0  0  0  0  0  0  0  0  0  0  0
   49.0262   11.5454   13.4937 H   0  0  0  0  0  0  0  0  0  0  0  0
   46.1059    5.0947    7.9361 H   0  0  0  0  0  0  0  0  0  0  0  0
   47.6378    6.8543   16.8001 H   0  0  0  0  0  0  0  0  0  0  0  0
   49.3171    7.1106   17.2944 H   0  0  0  0  0  0  0  0  0  0  0  0
   48.8177    5.4848   16.8136 H   0  0  0  0  0  0  0  0  0  0  0  0
   48.3503   13.1703   15.2595 H   0  0  0  0  0  0  0  0  0  0  0  0
   47.6242    4.0739    6.2455 H   0  0  0  0  0  0  0  0  0  0  0  0
  2  1  1  0
  3  1  2  0
  4  5  1  0
  5  3  1  0
  6  2  1  0
  7  4  1  0
  8  1  1  0
  9  2  2  0
 10  4  2  0
 11 21  2  0
 12 20  2  0
 13 14  1  0
 14  8  2  0
 15 18  1  0
 16 17  1  0
 17  7  1  0
 18  6  1  0
 19  8  1  0
 20 16  1  0
 21 15  1  0
 22 27  2  0
 23 28  2  0
 24 15  2  0
 25 16  2  0
 26 19  1  0
 27 24  1  0
 28 25  1  0
  5 13  2  0
 11 22  1  0
 12 23  1  0
  3 29  1  0
  6 30  1  0
  7 31  1  0
 13 32  1  0
 14 33  1  0
 17 34  1  0
 17 35  1  0
 18 36  1  0
 18 37  1  0
 20 38  1  0
 21 39  1  0
 22 40  1  0
 23 41  1  0
 24 42  1  0
 25 43  1  0
 26 44  1  0
 26 45  1  0
 26 46  1  0
 27 47  1  0
 28 48  1  0
M  END
> <Uni-Dock RESULT> 
ENERGY=   -5.489  LOWER_BOUND=    4.215  UPPER_BOUND=    9.880
INTER + INTRA:          -5.489
INTER:                  -5.489
INTRA:                   0.000
UNBOUND:                 0.000

$$$$

     RDKit          3D

 48 50  0  0  0  0  0  0  0  0999 V2000
   46.7522    7.8297   13.2700 C   0  0  0  0  0  0  0  0  0  0  0  0
   47.9029    8.2003   14.1584 C   0  0  0  0  0  0  0  0  0  0  0  0
   46.0221    8.8992   12.7194 C   0  0  0  0  0  0  0  0  0  0  0  0
   44.2101    9.8332   11.3025 C   0  0  0  0  0  0  0  0  0  0  0  0
   44.9413    8.6651   11.8636 C   0  0  0  0  0  0  0  0  0  0  0  0
   48.8076    7.2121   14.4656 N   0  0  0  0  0  0  0  0  0  0  0  0
   43.6558    9.6591   10.0518 N   0  0  0  0  0  0  0  0  0  0  0  0
   46.3610    6.5052   12.9819 C   0  0  0  0  0  0  0  0  0  0  0  0
   48.0153    9.3501   14.5732 O   0  0  0  0  0  0  0  0  0  0  0  0
   44.1541   10.8823   11.9317 O   0  0  0  0  0  0  0  0  0  0  0  0
   49.5175    5.0182   18.3734 N   0  0  0  0  0  0  0  0  0  0  0  0
   44.7688   11.5676    6.0574 N   0  0  0  0  0  0  0  0  0  0  0  0
   44.5653    7.3520   11.5714 C   0  0  0  0  0  0  0  0  0  0  0  0
   45.2746    6.2806   12.1235 C   0  0  0  0  0  0  0  0  0  0  0  0
   49.4455    6.8414   16.7757 C   0  0  0  0  0  0  0  0  0  0  0  0
   44.0156   11.3604    8.3530 C   0  0  0  0  0  0  0  0  0  0  0  0
   43.0534   10.7655    9.3386 C   0  0  0  0  0  0  0  0  0  0  0  0
   49.8541    7.3965   15.4428 C   0  0  0  0  0  0  0  0  0  0  0  0
   47.0837    5.4779   13.5361 O   0  0  0  0  0  0  0  0  0  0  0  0
   43.9213   11.0832    6.9932 C   0  0  0  0  0  0  0  0  0  0  0  0
   49.8695    5.5857   17.1968 C   0  0  0  0  0  0  0  0  0  0  0  0
   48.7001    5.7385   19.1714 C   0  0  0  0  0  0  0  0  0  0  0  0
   45.7602   12.3728    6.4967 C   0  0  0  0  0  0  0  0  0  0  0  0
   48.5930    7.5498   17.6275 C   0  0  0  0  0  0  0  0  0  0  0  0
   45.0590   12.1942    8.7665 C   0  0  0  0  0  0  0  0  0  0  0  0
   46.3988    4.2411   13.7248 C   0  0  0  0  0  0  0  0  0  0  0  0
   48.2154    6.9943   18.8458 C   0  0  0  0  0  0  0  0  0  0  0  0
   45.9449   12.7114    7.8265 C   0  0  0  0  0  0  0  0  0  0  0  0
   46.3041    9.9264   12.9525 H   0  0  0  0  0  0  0  0  0  0  0  0
   48.5779    6.2646   14.1863 H   0  0  0  0  0  0  0  0  0  0  0  0
   43.9439    8.8636    9.4997 H   0  0  0  0  0  0  0  0  0  0  0  0
   43.7081    7.1428   10.9367 H   0  0  0  0  0  0  0  0  0  0  0  0
   44.9581    5.2755   11.8602 H   0  0  0  0  0  0  0  0  0  0  0  0
   42.1710   10.3696    8.8236 H   0  0  0  0  0  0  0  0  0  0  0  0
   42.7031   11.5347   10.0361 H   0  0  0  0  0  0  0  0  0  0  0  0
   50.7426    6.8781   15.0658 H   0  0  0  0  0  0  0  0  0  0  0  0
   50.1144    8.4567   15.5382 H   0  0  0  0  0  0  0  0  0  0  0  0
   43.1383   10.4408    6.5991 H   0  0  0  0  0  0  0  0  0  0  0  0
   50.5244    4.9746   16.5811 H   0  0  0  0  0  0  0  0  0  0  0  0
   48.4340    5.2637   20.1113 H   0  0  0  0  0  0  0  0  0  0  0  0
   46.4256   12.7513    5.7262 H   0  0  0  0  0  0  0  0  0  0  0  0
   48.2207    8.5313   17.3384 H   0  0  0  0  0  0  0  0  0  0  0  0
   45.1827   12.4394    9.8201 H   0  0  0  0  0  0  0  0  0  0  0  0
   45.4213    4.3892   14.1963 H   0  0  0  0  0  0  0  0  0  0  0  0
   47.0045    3.6254   14.3971 H   0  0  0  0  0  0  0  0  0  0  0  0
   46.3046    3.7032   12.7761 H   0  0  0  0  0  0  0  0  0  0  0  0
   47.5571    7.5277   19.5218 H   0  0  0  0  0  0  0  0  0  0  0  0
   46.7595   13.3610    8.1262 H   0  0  0  0  0  0  0  0  0  0  0  0
  2  1  1  0
  3  1  2  0
  4  5  1  0
  5  3  1  0
  6  2  1  0
  7  4  1  0
  8  1  1  0
  9  2  2  0
 10  4  2  0
 11 21  2  0
 12 20  2  0
 13 14  1  0
 14  8  2  0
 15 18  1  0
 16 17  1  0
 17  7  1  0
 18  6  1  0
 19  8  1  0
 20 16  1  0
 21 15  1  0
 22 27  2  0
 23 28  2  0
 24 15  2  0
 25 16  2  0
 26 19  1  0
 27 24  1  0
 28 25  1  0
  5 13  2  0
 11 22  1  0
 12 23  1  0
  3 29  1  0
  6 30  1  0
  7 31  1  0
 13 32  1  0
 14 33  1  0
 17 34  1  0
 17 35  1  0
 18 36  1  0
 18 37  1  0
 20 38  1  0
 21 39  1  0
 22 40  1  0
 23 41  1  0
 24 42  1  0
 25 43  1  0
 26 44  1  0
 26 45  1  0
 26 46  1  0
 27 47  1  0
 28 48  1  0
M  END
> <Uni-Dock RESULT> 
ENERGY=   -5.489  LOWER_BOUND=    4.143  UPPER_BOUND=    6.671
INTER + INTRA:          -5.489
INTER:                  -5.489
INTRA:                   0.000
UNBOUND:                 0.000

$$$$

     RDKit          3D

 48 50  0  0  0  0  0  0  0  0999 V2000
   48.2277    7.3675   12.7221 C   0  0  0  0  0  0  0  0  0  0  0  0
   49.0794    8.5517   12.3718 C   0  0  0  0  0  0  0  0  0  0  0  0
   47.3242    6.9369   11.7331 C   0  0  0  0  0  0  0  0  0  0  0  0
   45.5657    5.4139   10.8662 C   0  0  0  0  0  0  0  0  0  0  0  0
   46.4959    5.8314   11.9499 C   0  0  0  0  0  0  0  0  0  0  0  0
   50.1637    8.8103   13.1763 N   0  0  0  0  0  0  0  0  0  0  0  0
   45.2811    4.0664   10.7957 N   0  0  0  0  0  0  0  0  0  0  0  0
   48.2677    6.6947   13.9616 C   0  0  0  0  0  0  0  0  0  0  0  0
   48.8040    9.2408   11.3941 O   0  0  0  0  0  0  0  0  0  0  0  0
   45.1251    6.2445   10.0815 O   0  0  0  0  0  0  0  0  0  0  0  0
   50.8412   12.1455   16.1770 N   0  0  0  0  0  0  0  0  0  0  0  0
   46.4249    0.9878    7.6254 N   0  0  0  0  0  0  0  0  0  0  0  0
   46.5478    5.1608   13.1741 C   0  0  0  0  0  0  0  0  0  0  0  0
   47.4318    5.5877   14.1700 C   0  0  0  0  0  0  0  0  0  0  0  0
   50.5149   11.0495   14.0383 C   0  0  0  0  0  0  0  0  0  0  0  0
   45.4136    2.9421    8.6443 C   0  0  0  0  0  0  0  0  0  0  0  0
   44.5136    3.5192    9.6970 C   0  0  0  0  0  0  0  0  0  0  0  0
   50.9544   10.0112   13.0481 C   0  0  0  0  0  0  0  0  0  0  0  0
   49.1519    7.1370   14.9141 O   0  0  0  0  0  0  0  0  0  0  0  0
   45.6107    1.5695    8.5349 C   0  0  0  0  0  0  0  0  0  0  0  0
   51.1996   11.2454   15.2328 C   0  0  0  0  0  0  0  0  0  0  0  0
   49.7435   12.8884   15.9184 C   0  0  0  0  0  0  0  0  0  0  0  0
   47.0746    1.8146    6.7777 C   0  0  0  0  0  0  0  0  0  0  0  0
   49.3788   11.8326   13.8140 C   0  0  0  0  0  0  0  0  0  0  0  0
   46.1087    3.7628    7.7509 C   0  0  0  0  0  0  0  0  0  0  0  0
   48.8154    6.8705   16.2743 C   0  0  0  0  0  0  0  0  0  0  0  0
   48.9864   12.7694   14.7649 C   0  0  0  0  0  0  0  0  0  0  0  0
   46.9509    3.1935    6.8009 C   0  0  0  0  0  0  0  0  0  0  0  0
   47.2715    7.4630   10.7794 H   0  0  0  0  0  0  0  0  0  0  0  0
   50.2510    8.2708   14.0307 H   0  0  0  0  0  0  0  0  0  0  0  0
   45.8596    3.4204   11.3138 H   0  0  0  0  0  0  0  0  0  0  0  0
   45.8906    4.3200   13.3805 H   0  0  0  0  0  0  0  0  0  0  0  0
   47.4504    5.0305   15.1023 H   0  0  0  0  0  0  0  0  0  0  0  0
   43.8657    2.7419   10.1172 H   0  0  0  0  0  0  0  0  0  0  0  0
   43.8609    4.2827    9.2588 H   0  0  0  0  0  0  0  0  0  0  0  0
   51.9988    9.7301   13.2230 H   0  0  0  0  0  0  0  0  0  0  0  0
   50.8932   10.4101   12.0294 H   0  0  0  0  0  0  0  0  0  0  0  0
   45.1066    0.8705    9.1970 H   0  0  0  0  0  0  0  0  0  0  0  0
   52.0849   10.6645   15.4784 H   0  0  0  0  0  0  0  0  0  0  0  0
   49.4775   13.6058   16.6893 H   0  0  0  0  0  0  0  0  0  0  0  0
   47.7199    1.3236    6.0549 H   0  0  0  0  0  0  0  0  0  0  0  0
   48.7987   11.7083   12.9011 H   0  0  0  0  0  0  0  0  0  0  0  0
   45.9957    4.8448    7.7959 H   0  0  0  0  0  0  0  0  0  0  0  0
   47.7745    7.1336   16.4913 H   0  0  0  0  0  0  0  0  0  0  0  0
   49.4566    7.4957   16.9035 H   0  0  0  0  0  0  0  0  0  0  0  0
   49.0213    5.8251   16.5253 H   0  0  0  0  0  0  0  0  0  0  0  0
   48.1101   13.3881   14.6095 H   0  0  0  0  0  0  0  0  0  0  0  0
   47.4976    3.8120    6.0980 H   0  0  0  0  0  0  0  0  0  0  0  0
  2  1  1  0
  3  1  2  0
  4  5  1  0
  5  3  1  0
  6  2  1  0
  7  4  1  0
  8  1  1  0
  9  2  2  0
 10  4  2  0
 11 21  2  0
 12 20  2  0
 13 14  1  0
 14  8  2  0
 15 18  1  0
 16 17  1  0
 17  7  1  0
 18  6  1  0
 19  8  1  0
 20 16  1  0
 21 15  1  0
 22 27  2  0
 23 28  2  0
 24 15  2  0
 25 16  2  0
 26 19  1  0
 27 24  1  0
 28 25  1  0
  5 13  2  0
 11 22  1  0
 12 23  1  0
  3 29  1  0
  6 30  1  0
  7 31  1  0
 13 32  1  0
 14 33  1  0
 17 34  1  0
 17 35  1  0
 18 36  1  0
 18 37  1  0
 20 38  1  0
 21 39  1  0
 22 40  1  0
 23 41  1  0
 24 42  1  0
 25 43  1  0
 26 44  1  0
 26 45  1  0
 26 46  1  0
 27 47  1  0
 28 48  1  0
M  END
> <Uni-Dock RESULT> 
ENERGY=   -5.443  LOWER_BOUND=    3.990  UPPER_BOUND=    9.914
INTER + INTRA:          -5.443
INTER:                  -5.443
INTRA:                   0.000
UNBOUND:                 0.000

$$$$

     RDKit          3D

 48 50  0  0  0  0  0  0  0  0999 V2000
   46.3330    7.5864   12.6433 C   0  0  0  0  0  0  0  0  0  0  0  0
   45.0817    7.2153   11.9036 C   0  0  0  0  0  0  0  0  0  0  0  0
   46.8807    8.8478   12.3451 C   0  0  0  0  0  0  0  0  0  0  0  0
   48.5666   10.6455   12.6437 C   0  0  0  0  0  0  0  0  0  0  0  0
   48.0359    9.2994   12.9908 C   0  0  0  0  0  0  0  0  0  0  0  0
   44.3622    6.1439   12.3769 N   0  0  0  0  0  0  0  0  0  0  0  0
   49.2183   11.3205   13.6543 N   0  0  0  0  0  0  0  0  0  0  0  0
   46.9831    6.7545   13.5791 C   0  0  0  0  0  0  0  0  0  0  0  0
   44.7300    7.8650   10.9234 O   0  0  0  0  0  0  0  0  0  0  0  0
   48.3862   11.1064   11.5235 O   0  0  0  0  0  0  0  0  0  0  0  0
   43.8433    1.9829   10.6436 N   0  0  0  0  0  0  0  0  0  0  0  0
   48.0092   15.0972   15.9151 N   0  0  0  0  0  0  0  0  0  0  0  0
   48.6691    8.4773   13.9257 C   0  0  0  0  0  0  0  0  0  0  0  0
   48.1421    7.2159   14.2203 C   0  0  0  0  0  0  0  0  0  0  0  0
   43.6672    4.3930   10.8499 C   0  0  0  0  0  0  0  0  0  0  0  0
   48.6480   13.6448   14.0814 C   0  0  0  0  0  0  0  0  0  0  0  0
   49.6437   12.6938   13.4851 C   0  0  0  0  0  0  0  0  0  0  0  0
   43.2426    5.5842   11.6577 C   0  0  0  0  0  0  0  0  0  0  0  0
   46.4345    5.5252   13.8486 O   0  0  0  0  0  0  0  0  0  0  0  0
   48.8747   14.2505   15.3128 C   0  0  0  0  0  0  0  0  0  0  0  0
   43.4624    3.0968   11.3103 C   0  0  0  0  0  0  0  0  0  0  0  0
   44.4608    2.1699    9.4572 C   0  0  0  0  0  0  0  0  0  0  0  0
   46.8593   15.3579   15.2563 C   0  0  0  0  0  0  0  0  0  0  0  0
   44.3181    4.5423    9.6218 C   0  0  0  0  0  0  0  0  0  0  0  0
   47.4433   13.9376   13.4350 C   0  0  0  0  0  0  0  0  0  0  0  0
   47.3273    4.5110   14.3056 C   0  0  0  0  0  0  0  0  0  0  0  0
   44.7193    3.4158    8.9108 C   0  0  0  0  0  0  0  0  0  0  0  0
   46.5343   14.8084   14.0276 C   0  0  0  0  0  0  0  0  0  0  0  0
   46.3968    9.4897   11.6083 H   0  0  0  0  0  0  0  0  0  0  0  0
   44.7826    5.5869   13.1129 H   0  0  0  0  0  0  0  0  0  0  0  0
   49.1189   10.9877   14.6030 H   0  0  0  0  0  0  0  0  0  0  0  0
   49.5871    8.7905   14.4162 H   0  0  0  0  0  0  0  0  0  0  0  0
   48.6574    6.6136   14.9629 H   0  0  0  0  0  0  0  0  0  0  0  0
   50.6142   12.7904   13.9844 H   0  0  0  0  0  0  0  0  0  0  0  0
   49.8002   12.9259   12.4256 H   0  0  0  0  0  0  0  0  0  0  0  0
   42.4919    5.2968   12.4021 H   0  0  0  0  0  0  0  0  0  0  0  0
   42.7822    6.3371   11.0081 H   0  0  0  0  0  0  0  0  0  0  0  0
   49.7869   14.0677   15.8746 H   0  0  0  0  0  0  0  0  0  0  0  0
   42.9726    2.9059   12.2617 H   0  0  0  0  0  0  0  0  0  0  0  0
   44.7543    1.2613    8.9395 H   0  0  0  0  0  0  0  0  0  0  0  0
   46.1823   16.0427   15.7587 H   0  0  0  0  0  0  0  0  0  0  0  0
   44.5158    5.5362    9.2235 H   0  0  0  0  0  0  0  0  0  0  0  0
   47.2123   13.4865   12.4713 H   0  0  0  0  0  0  0  0  0  0  0  0
   48.2292    4.4586   13.6862 H   0  0  0  0  0  0  0  0  0  0  0  0
   46.8088    3.5506   14.2232 H   0  0  0  0  0  0  0  0  0  0  0  0
   47.5781    4.6639   15.3600 H   0  0  0  0  0  0  0  0  0  0  0  0
   45.2235    3.5095    7.9558 H   0  0  0  0  0  0  0  0  0  0  0  0
   45.5954   15.0498   13.5423 H   0  0  0  0  0  0  0  0  0  0  0  0
  2  1  1  0
  3  1  2  0
  4  5  1  0
  5  3  1  0
  6  2  1  0
  7  4  1  0
  8  1  1  0
  9  2  2  0
 10  4  2  0
 11 21  2  0
 12 20  2  0
 13 14  1  0
 14  8  2  0
 15 18  1  0
 16 17  1  0
 17  7  1  0
 18  6  1  0
 19  8  1  0
 20 16  1  0
 21 15  1  0
 22 27  2  0
 23 28  2  0
 24 15  2  0
 25 16  2  0
 26 19  1  0
 27 24  1  0
 28 25  1  0
  5 13  2  0
 11 22  1  0
 12 23  1  0
  3 29  1  0
  6 30  1  0
  7 31  1  0
 13 32  1  0
 14 33  1  0
 17 34  1  0
 17 35  1  0
 18 36  1  0
 18 37  1  0
 20 38  1  0
 21 39  1  0
 22 40  1  0
 23 41  1  0
 24 42  1  0
 25 43  1  0
 26 44  1  0
 26 45  1  0
 26 46  1  0
 27 47  1  0
 28 48  1  0
M  END
> <Uni-Dock RESULT> 
ENERGY=   -5.062  LOWER_BOUND=    2.166  UPPER_BOUND=    2.693
INTER + INTRA:          -5.062
INTER:                  -5.062
INTRA:                   0.000
UNBOUND:                 0.000

$$$$

     RDKit          3D

 48 50  0  0  0  0  0  0  0  0999 V2000
   46.2221    9.3487   12.1511 C   0  0  0  0  0  0  0  0  0  0  0  0
   46.9237   10.6641   11.9834 C   0  0  0  0  0  0  0  0  0  0  0  0
   47.0067    8.2816   12.6263 C   0  0  0  0  0  0  0  0  0  0  0  0
   47.3211    5.9271   13.3480 C   0  0  0  0  0  0  0  0  0  0  0  0
   46.4475    7.0171   12.8353 C   0  0  0  0  0  0  0  0  0  0  0  0
   46.1403   11.7809   11.8144 N   0  0  0  0  0  0  0  0  0  0  0  0
   46.7069    4.9764   14.1359 N   0  0  0  0  0  0  0  0  0  0  0  0
   44.8628    9.1249   11.8468 C   0  0  0  0  0  0  0  0  0  0  0  0
   48.1497   10.7161   12.0103 O   0  0  0  0  0  0  0  0  0  0  0  0
   48.5182    5.9273   13.0903 O   0  0  0  0  0  0  0  0  0  0  0  0
   45.4428   14.3244    8.1223 N   0  0  0  0  0  0  0  0  0  0  0  0
   47.1871    4.1014   18.5901 N   0  0  0  0  0  0  0  0  0  0  0  0
   45.0982    6.8035   12.5443 C   0  0  0  0  0  0  0  0  0  0  0  0
   44.3115    7.8526   12.0583 C   0  0  0  0  0  0  0  0  0  0  0  0
   46.6075   13.3135    9.9942 C   0  0  0  0  0  0  0  0  0  0  0  0
   47.7416    4.3396   16.2416 C   0  0  0  0  0  0  0  0  0  0  0  0
   47.4763    3.9558   14.8155 C   0  0  0  0  0  0  0  0  0  0  0  0
   46.6926   13.0700   11.4724 C   0  0  0  0  0  0  0  0  0  0  0  0
   44.1188   10.1789   11.3774 O   0  0  0  0  0  0  0  0  0  0  0  0
   47.0138    3.7821   17.2876 C   0  0  0  0  0  0  0  0  0  0  0  0
   45.5904   14.0876    9.4461 C   0  0  0  0  0  0  0  0  0  0  0  0
   46.3552   13.7602    7.3019 C   0  0  0  0  0  0  0  0  0  0  0  0
   48.1367    5.0210   18.8672 C   0  0  0  0  0  0  0  0  0  0  0  0
   47.5254   12.7404    9.1092 C   0  0  0  0  0  0  0  0  0  0  0  0
   48.7116    5.2912   16.5711 C   0  0  0  0  0  0  0  0  0  0  0  0
   42.9914    9.8566   10.5653 C   0  0  0  0  0  0  0  0  0  0  0  0
   47.4021   12.9679    7.7422 C   0  0  0  0  0  0  0  0  0  0  0  0
   48.9161    5.6377   17.9030 C   0  0  0  0  0  0  0  0  0  0  0  0
   48.0632    8.4395   12.8451 H   0  0  0  0  0  0  0  0  0  0  0  0
   45.1451   11.6380   11.6808 H   0  0  0  0  0  0  0  0  0  0  0  0
   45.7844    5.1697   14.4996 H   0  0  0  0  0  0  0  0  0  0  0  0
   44.6477    5.8218   12.6654 H   0  0  0  0  0  0  0  0  0  0  0  0
   43.2639    7.6478   11.8574 H   0  0  0  0  0  0  0  0  0  0  0  0
   46.8901    3.0313   14.7689 H   0  0  0  0  0  0  0  0  0  0  0  0
   48.4209    3.7669   14.2931 H   0  0  0  0  0  0  0  0  0  0  0  0
   46.1165   13.8237   12.0205 H   0  0  0  0  0  0  0  0  0  0  0  0
   47.7322   13.1494   11.8096 H   0  0  0  0  0  0  0  0  0  0  0  0
   46.2416    3.0389   17.1073 H   0  0  0  0  0  0  0  0  0  0  0  0
   44.8355   14.5549   10.0733 H   0  0  0  0  0  0  0  0  0  0  0  0
   46.2178   13.9670    6.2445 H   0  0  0  0  0  0  0  0  0  0  0  0
   48.2590    5.2583   19.9201 H   0  0  0  0  0  0  0  0  0  0  0  0
   48.3321   12.1137    9.4859 H   0  0  0  0  0  0  0  0  0  0  0  0
   49.3063    5.7635   15.7909 H   0  0  0  0  0  0  0  0  0  0  0  0
   43.2480    9.1261    9.7906 H   0  0  0  0  0  0  0  0  0  0  0  0
   42.6690   10.7752   10.0653 H   0  0  0  0  0  0  0  0  0  0  0  0
   42.1589    9.5046   11.1827 H   0  0  0  0  0  0  0  0  0  0  0  0
   48.1044   12.5348    7.0393 H   0  0  0  0  0  0  0  0  0  0  0  0
   49.6641    6.3719   18.1798 H   0  0  0  0  0  0  0  0  0  0  0  0
  2  1  1  0
  3  1  2  0
  4  5  1  0
  5  3  1  0
  6  2  1  0
  7  4  1  0
  8  1  1  0
  9  2  2  0
 10  4  2  0
 11 21  2  0
 12 20  2  0
 13 14  1  0
 14  8  2  0
 15 18  1  0
 16 17  1  0
 17  7  1  0
 18  6  1  0
 19  8  1  0
 20 16  1  0
 21 15  1  0
 22 27  2  0
 23 28  2  0
 24 15  2  0
 25 16  2  0
 26 19  1  0
 27 24  1  0
 28 25  1  0
  5 13  2  0
 11 22  1  0
 12 23  1  0
  3 29  1  0
  6 30  1  0
  7 31  1  0
 13 32  1  0
 14 33  1  0
 17 34  1  0
 17 35  1  0
 18 36  1  0
 18 37  1  0
 20 38  1  0
 21 39  1  0
 22 40  1  0
 23 41  1  0
 24 42  1  0
 25 43  1  0
 26 44  1  0
 26 45  1  0
 26 46  1  0
 27 47  1  0
 28 48  1  0
M  END
> <Uni-Dock RESULT> 
ENERGY=   -4.225  LOWER_BOUND=    3.328  UPPER_BOUND=    8.752
INTER + INTRA:          -4.225
INTER:                  -4.225
INTRA:                   0.000
UNBOUND:                 0.000

$$$$
