
     RDKit          3D

 48 50  0  0  0  0  0  0  0  0999 V2000
   47.6712    4.9910   15.2402 C   0  0  0  0  0  0  0  0  0  0  0  0
   48.0555    4.0023   16.2979 C   0  0  0  0  0  0  0  0  0  0  0  0
   46.6029    4.6252   14.4015 C   0  0  0  0  0  0  0  0  0  0  0  0
   45.0534    5.0251   12.5029 C   0  0  0  0  0  0  0  0  0  0  0  0
   46.1775    5.4706   13.3712 C   0  0  0  0  0  0  0  0  0  0  0  0
   49.2928    4.1481   16.8782 N   0  0  0  0  0  0  0  0  0  0  0  0
   45.0627    5.4946   11.2063 N   0  0  0  0  0  0  0  0  0  0  0  0
   48.2921    6.2435   15.0618 C   0  0  0  0  0  0  0  0  0  0  0  0
   47.2842    3.0999   16.6080 O   0  0  0  0  0  0  0  0  0  0  0  0
   44.2061    4.2565   12.9408 O   0  0  0  0  0  0  0  0  0  0  0  0
   48.1542    5.0238   21.0360 N   0  0  0  0  0  0  0  0  0  0  0  0
   45.6967    3.3216    7.2355 N   0  0  0  0  0  0  0  0  0  0  0  0
   46.8034    6.7068   13.1921 C   0  0  0  0  0  0  0  0  0  0  0  0
   47.8580    7.0863   14.0284 C   0  0  0  0  0  0  0  0  0  0  0  0
   49.5848    4.1487   19.2845 C   0  0  0  0  0  0  0  0  0  0  0  0
   44.7125    3.9522    9.3603 C   0  0  0  0  0  0  0  0  0  0  0  0
   44.1077    5.0163   10.2288 C   0  0  0  0  0  0  0  0  0  0  0  0
   49.7099    3.3610   18.0137 C   0  0  0  0  0  0  0  0  0  0  0  0
   49.3341    6.5831   15.8890 O   0  0  0  0  0  0  0  0  0  0  0  0
   45.1241    4.2273    8.0602 C   0  0  0  0  0  0  0  0  0  0  0  0
   48.3473    4.3142   19.8996 C   0  0  0  0  0  0  0  0  0  0  0  0
   49.2440    5.5984   21.5855 C   0  0  0  0  0  0  0  0  0  0  0  0
   45.8648    2.0755    7.7285 C   0  0  0  0  0  0  0  0  0  0  0  0
   50.6872    4.7690   19.8790 C   0  0  0  0  0  0  0  0  0  0  0  0
   44.9087    2.6514    9.8334 C   0  0  0  0  0  0  0  0  0  0  0  0
   49.4702    7.9722   16.1854 C   0  0  0  0  0  0  0  0  0  0  0  0
   50.5174    5.5024   21.0497 C   0  0  0  0  0  0  0  0  0  0  0  0
   45.4916    1.6959    9.0069 C   0  0  0  0  0  0  0  0  0  0  0  0
   46.1036    3.6664   14.5458 H   0  0  0  0  0  0  0  0  0  0  0  0
   49.8189    4.9875   16.6599 H   0  0  0  0  0  0  0  0  0  0  0  0
   45.9045    5.9233   10.8490 H   0  0  0  0  0  0  0  0  0  0  0  0
   46.4700    7.3980   12.4226 H   0  0  0  0  0  0  0  0  0  0  0  0
   48.3314    8.0470   13.8464 H   0  0  0  0  0  0  0  0  0  0  0  0
   43.8094    5.8815    9.6261 H   0  0  0  0  0  0  0  0  0  0  0  0
   43.2041    4.6358   10.7182 H   0  0  0  0  0  0  0  0  0  0  0  0
   49.1321    2.4324   18.0833 H   0  0  0  0  0  0  0  0  0  0  0  0
   50.7543    3.0785   17.8412 H   0  0  0  0  0  0  0  0  0  0  0  0
   45.0060    5.2165    7.6259 H   0  0  0  0  0  0  0  0  0  0  0  0
   47.4476    3.8694   19.4785 H   0  0  0  0  0  0  0  0  0  0  0  0
   49.0603    6.1577   22.4985 H   0  0  0  0  0  0  0  0  0  0  0  0
   46.3240    1.3659    7.0466 H   0  0  0  0  0  0  0  0  0  0  0  0
   51.6761    4.6816   19.4389 H   0  0  0  0  0  0  0  0  0  0  0  0
   44.6088    2.3830   10.8452 H   0  0  0  0  0  0  0  0  0  0  0  0
   50.1160    8.0634   17.0647 H   0  0  0  0  0  0  0  0  0  0  0  0
   48.5055    8.4327   16.4288 H   0  0  0  0  0  0  0  0  0  0  0  0
   49.9602    8.4953   15.3574 H   0  0  0  0  0  0  0  0  0  0  0  0
   51.3572    5.9869   21.5342 H   0  0  0  0  0  0  0  0  0  0  0  0
   45.6511    0.6815    9.3538 H   0  0  0  0  0  0  0  0  0  0  0  0
  2  1  1  0
  3  1  2  0
  4  5  1  0
  5  3  1  0
  6  2  1  0
  7  4  1  0
  8  1  1  0
  9  2  2  0
 10  4  2  0
 11 21  2  0
 12 20  2  0
 13 14  1  0
 14  8  2  0
 15 18  1  0
 16 17  1  0
 17  7  1  0
 18  6  1  0
 19  8  1  0
 20 16  1  0
 21 15  1  0
 22 27  2  0
 23 28  2  0
 24 15  2  0
 25 16  2  0
 26 19  1  0
 27 24  1  0
 28 25  1  0
  5 13  2  0
 11 22  1  0
 12 23  1  0
  3 29  1  0
  6 30  1  0
  7 31  1  0
 13 32  1  0
 14 33  1  0
 17 34  1  0
 17 35  1  0
 18 36  1  0
 18 37  1  0
 20 38  1  0
 21 39  1  0
 22 40  1  0
 23 41  1  0
 24 42  1  0
 25 43  1  0
 26 44  1  0
 26 45  1  0
 26 46  1  0
 27 47  1  0
 28 48  1  0
M  END
> <Uni-Dock RESULT> 
ENERGY=   -5.032  LOWER_BOUND=    0.000  UPPER_BOUND=    0.000
INTER + INTRA:          -5.032
INTER:                  -5.032
INTRA:                   0.000
UNBOUND:                 0.000

$$$$

     RDKit          3D

 48 50  0  0  0  0  0  0  0  0999 V2000
   44.8581    9.3406   11.6497 C   0  0  0  0  0  0  0  0  0  0  0  0
   44.0255   10.5137   11.2320 C   0  0  0  0  0  0  0  0  0  0  0  0
   46.1378    9.6312   12.1562 C   0  0  0  0  0  0  0  0  0  0  0  0
   48.3500    8.9700   13.0698 C   0  0  0  0  0  0  0  0  0  0  0  0
   47.0005    8.6057   12.5578 C   0  0  0  0  0  0  0  0  0  0  0  0
   42.9523   10.2652   10.4103 N   0  0  0  0  0  0  0  0  0  0  0  0
   49.3505    8.0443   12.8613 N   0  0  0  0  0  0  0  0  0  0  0  0
   44.4288    7.9998   11.5850 C   0  0  0  0  0  0  0  0  0  0  0  0
   44.3174   11.6434   11.6116 O   0  0  0  0  0  0  0  0  0  0  0  0
   48.5301   10.0550   13.6092 O   0  0  0  0  0  0  0  0  0  0  0  0
   39.6215   11.4680   13.0198 N   0  0  0  0  0  0  0  0  0  0  0  0
   53.0644    8.1917   10.2011 N   0  0  0  0  0  0  0  0  0  0  0  0
   46.5737    7.2775   12.4817 C   0  0  0  0  0  0  0  0  0  0  0  0
   45.2986    6.9778   11.9919 C   0  0  0  0  0  0  0  0  0  0  0  0
   40.7420   11.1338   10.8954 C   0  0  0  0  0  0  0  0  0  0  0  0
   51.4896    8.7606   11.9553 C   0  0  0  0  0  0  0  0  0  0  0  0
   50.7300    8.3462   13.1815 C   0  0  0  0  0  0  0  0  0  0  0  0
   41.9874   11.2836   10.0722 C   0  0  0  0  0  0  0  0  0  0  0  0
   43.1771    7.7350   11.0866 O   0  0  0  0  0  0  0  0  0  0  0  0
   52.3687    7.8892   11.3203 C   0  0  0  0  0  0  0  0  0  0  0  0
   40.7015   11.5835   12.2119 C   0  0  0  0  0  0  0  0  0  0  0  0
   38.5304   10.8744   12.4935 C   0  0  0  0  0  0  0  0  0  0  0  0
   52.8792    9.4277    9.6889 C   0  0  0  0  0  0  0  0  0  0  0  0
   39.5949   10.5145   10.3911 C   0  0  0  0  0  0  0  0  0  0  0  0
   51.3233   10.0284   11.3903 C   0  0  0  0  0  0  0  0  0  0  0  0
   42.5113    6.6002   11.6389 C   0  0  0  0  0  0  0  0  0  0  0  0
   38.4692   10.3852   11.1994 C   0  0  0  0  0  0  0  0  0  0  0  0
   52.0286   10.3708   10.2409 C   0  0  0  0  0  0  0  0  0  0  0  0
   46.4700   10.6674   12.2287 H   0  0  0  0  0  0  0  0  0  0  0  0
   42.7027    9.2963   10.2425 H   0  0  0  0  0  0  0  0  0  0  0  0
   49.1887    7.2898   12.2097 H   0  0  0  0  0  0  0  0  0  0  0  0
   47.2098    6.4638   12.8200 H   0  0  0  0  0  0  0  0  0  0  0  0
   45.0097    5.9324   11.9309 H   0  0  0  0  0  0  0  0  0  0  0  0
   51.1624    7.4366   13.6131 H   0  0  0  0  0  0  0  0  0  0  0  0
   50.7919    9.1284   13.9464 H   0  0  0  0  0  0  0  0  0  0  0  0
   42.4106   12.2862   10.2017 H   0  0  0  0  0  0  0  0  0  0  0  0
   41.7573   11.1660    9.0075 H   0  0  0  0  0  0  0  0  0  0  0  0
   52.5463    6.8867   11.7006 H   0  0  0  0  0  0  0  0  0  0  0  0
   41.5665   12.0605   12.6686 H   0  0  0  0  0  0  0  0  0  0  0  0
   37.6778   10.7992   13.1625 H   0  0  0  0  0  0  0  0  0  0  0  0
   53.4506    9.6475    8.7919 H   0  0  0  0  0  0  0  0  0  0  0  0
   39.5715   10.1364    9.3734 H   0  0  0  0  0  0  0  0  0  0  0  0
   50.6440   10.7483   11.8443 H   0  0  0  0  0  0  0  0  0  0  0  0
   41.4480    6.6853   11.3923 H   0  0  0  0  0  0  0  0  0  0  0  0
   42.6006    6.5678   12.7310 H   0  0  0  0  0  0  0  0  0  0  0  0
   42.8851    5.6767   11.1841 H   0  0  0  0  0  0  0  0  0  0  0  0
   37.5650    9.9156   10.8299 H   0  0  0  0  0  0  0  0  0  0  0  0
   51.9152   11.3490    9.7879 H   0  0  0  0  0  0  0  0  0  0  0  0
  2  1  1  0
  3  1  2  0
  4  5  1  0
  5  3  1  0
  6  2  1  0
  7  4  1  0
  8  1  1  0
  9  2  2  0
 10  4  2  0
 11 21  2  0
 12 20  2  0
 13 14  1  0
 14  8  2  0
 15 18  1  0
 16 17  1  0
 17  7  1  0
 18  6  1  0
 19  8  1  0
 20 16  1  0
 21 15  1  0
 22 27  2  0
 23 28  2  0
 24 15  2  0
 25 16  2  0
 26 19  1  0
 27 24  1  0
 28 25  1  0
  5 13  2  0
 11 22  1  0
 12 23  1  0
  3 29  1  0
  6 30  1  0
  7 31  1  0
 13 32  1  0
 14 33  1  0
 17 34  1  0
 17 35  1  0
 18 36  1  0
 18 37  1  0
 20 38  1  0
 21 39  1  0
 22 40  1  0
 23 41  1  0
 24 42  1  0
 25 43  1  0
 26 44  1  0
 26 45  1  0
 26 46  1  0
 27 47  1  0
 28 48  1  0
M  END
> <Uni-Dock RESULT> 
ENERGY=   -4.081  LOWER_BOUND=    5.708  UPPER_BOUND=    9.947
INTER + INTRA:          -4.081
INTER:                  -4.081
INTRA:                   0.000
UNBOUND:                 0.000

$$$$

     RDKit          3D

 48 50  0  0  0  0  0  0  0  0999 V2000
   46.8429    8.6394   13.4996 C   0  0  0  0  0  0  0  0  0  0  0  0
   47.8393    9.3322   14.3777 C   0  0  0  0  0  0  0  0  0  0  0  0
   46.0214    9.4668   12.7128 C   0  0  0  0  0  0  0  0  0  0  0  0
   44.1938    9.8429   11.0746 C   0  0  0  0  0  0  0  0  0  0  0  0
   45.0468    8.9193   11.8717 C   0  0  0  0  0  0  0  0  0  0  0  0
   48.3869    8.6045   15.4070 N   0  0  0  0  0  0  0  0  0  0  0  0
   42.9216    9.3976   10.7833 N   0  0  0  0  0  0  0  0  0  0  0  0
   46.7054    7.2399   13.4065 C   0  0  0  0  0  0  0  0  0  0  0  0
   48.1297   10.5066   14.1734 O   0  0  0  0  0  0  0  0  0  0  0  0
   44.6207   10.9426   10.7445 O   0  0  0  0  0  0  0  0  0  0  0  0
   52.6155    8.5210   14.1980 N   0  0  0  0  0  0  0  0  0  0  0  0
   38.8331   10.8616   12.2088 N   0  0  0  0  0  0  0  0  0  0  0  0
   44.9077    7.5315   11.7910 C   0  0  0  0  0  0  0  0  0  0  0  0
   45.7278    6.6988   12.5591 C   0  0  0  0  0  0  0  0  0  0  0  0
   50.7800    8.5211   15.7827 C   0  0  0  0  0  0  0  0  0  0  0  0
   41.0156   10.8608   11.1515 C   0  0  0  0  0  0  0  0  0  0  0  0
   41.9527   10.2626   10.1433 C   0  0  0  0  0  0  0  0  0  0  0  0
   49.4696    9.1083   16.2173 C   0  0  0  0  0  0  0  0  0  0  0  0
   47.5149    6.4479   14.1830 O   0  0  0  0  0  0  0  0  0  0  0  0
   39.7179   10.3835   11.3050 C   0  0  0  0  0  0  0  0  0  0  0  0
   51.4408    9.0102   14.6597 C   0  0  0  0  0  0  0  0  0  0  0  0
   53.1575    7.4944   14.8850 C   0  0  0  0  0  0  0  0  0  0  0  0
   39.2602   11.8707   12.9985 C   0  0  0  0  0  0  0  0  0  0  0  0
   51.3687    7.4496   16.4602 C   0  0  0  0  0  0  0  0  0  0  0  0
   41.4192   11.9027   11.9916 C   0  0  0  0  0  0  0  0  0  0  0  0
   47.8732    5.1839   13.6262 C   0  0  0  0  0  0  0  0  0  0  0  0
   52.5780    6.9291   16.0087 C   0  0  0  0  0  0  0  0  0  0  0  0
   40.5300   12.4188   12.9290 C   0  0  0  0  0  0  0  0  0  0  0  0
   46.1352   10.5502   12.7638 H   0  0  0  0  0  0  0  0  0  0  0  0
   48.1926    7.6092   15.4349 H   0  0  0  0  0  0  0  0  0  0  0  0
   42.5591    8.5974   11.2815 H   0  0  0  0  0  0  0  0  0  0  0  0
   44.1831    7.0785   11.1195 H   0  0  0  0  0  0  0  0  0  0  0  0
   45.5773    5.6257   12.4828 H   0  0  0  0  0  0  0  0  0  0  0  0
   41.4019    9.6458    9.4245 H   0  0  0  0  0  0  0  0  0  0  0  0
   42.4514   11.0553    9.5744 H   0  0  0  0  0  0  0  0  0  0  0  0
   49.5126   10.2027   16.1815 H   0  0  0  0  0  0  0  0  0  0  0  0
   49.2511    8.8282   17.2538 H   0  0  0  0  0  0  0  0  0  0  0  0
   39.3355    9.5737   10.6893 H   0  0  0  0  0  0  0  0  0  0  0  0
   51.0273    9.8330   14.0795 H   0  0  0  0  0  0  0  0  0  0  0  0
   54.1016    7.1249   14.4948 H   0  0  0  0  0  0  0  0  0  0  0  0
   38.5310   12.2391   13.7140 H   0  0  0  0  0  0  0  0  0  0  0  0
   50.8941    7.0212   17.3380 H   0  0  0  0  0  0  0  0  0  0  0  0
   42.4259   12.3111   11.9168 H   0  0  0  0  0  0  0  0  0  0  0  0
   48.7351    4.8060   14.1854 H   0  0  0  0  0  0  0  0  0  0  0  0
   48.1685    5.2719   12.5741 H   0  0  0  0  0  0  0  0  0  0  0  0
   47.0562    4.4649   13.7486 H   0  0  0  0  0  0  0  0  0  0  0  0
   53.0587    6.1034   16.5204 H   0  0  0  0  0  0  0  0  0  0  0  0
   40.8226   13.2275   13.5887 H   0  0  0  0  0  0  0  0  0  0  0  0
  2  1  1  0
  3  1  2  0
  4  5  1  0
  5  3  1  0
  6  2  1  0
  7  4  1  0
  8  1  1  0
  9  2  2  0
 10  4  2  0
 11 21  2  0
 12 20  2  0
 13 14  1  0
 14  8  2  0
 15 18  1  0
 16 17  1  0
 17  7  1  0
 18  6  1  0
 19  8  1  0
 20 16  1  0
 21 15  1  0
 22 27  2  0
 23 28  2  0
 24 15  2  0
 25 16  2  0
 26 19  1  0
 27 24  1  0
 28 25  1  0
  5 13  2  0
 11 22  1  0
 12 23  1  0
  3 29  1  0
  6 30  1  0
  7 31  1  0
 13 32  1  0
 14 33  1  0
 17 34  1  0
 17 35  1  0
 18 36  1  0
 18 37  1  0
 20 38  1  0
 21 39  1  0
 22 40  1  0
 23 41  1  0
 24 42  1  0
 25 43  1  0
 26 44  1  0
 26 45  1  0
 26 46  1  0
 27 47  1  0
 28 48  1  0
M  END
> <Uni-Dock RESULT> 
ENERGY=   -4.034  LOWER_BOUND=    4.848  UPPER_BOUND=    6.978
INTER + INTRA:          -4.034
INTER:                  -4.034
INTRA:                   0.000
UNBOUND:                 0.000

$$$$

     RDKit          3D

 48 50  0  0  0  0  0  0  0  0999 V2000
   46.8453    8.6445   13.4988 C   0  0  0  0  0  0  0  0  0  0  0  0
   47.8437    9.3388   14.3733 C   0  0  0  0  0  0  0  0  0  0  0  0
   46.0236    9.4705   12.7106 C   0  0  0  0  0  0  0  0  0  0  0  0
   44.1940    9.8437   11.0739 C   0  0  0  0  0  0  0  0  0  0  0  0
   45.0472    8.9216   11.8726 C   0  0  0  0  0  0  0  0  0  0  0  0
   48.3920    8.6137   15.4040 N   0  0  0  0  0  0  0  0  0  0  0  0
   42.9210    9.3990   10.7857 N   0  0  0  0  0  0  0  0  0  0  0  0
   46.7062    7.2449   13.4100 C   0  0  0  0  0  0  0  0  0  0  0  0
   48.1351   10.5124   14.1651 O   0  0  0  0  0  0  0  0  0  0  0  0
   44.6217   10.9419   10.7399 O   0  0  0  0  0  0  0  0  0  0  0  0
   52.6188    8.5219   14.1892 N   0  0  0  0  0  0  0  0  0  0  0  0
   38.8361   10.8717   12.2127 N   0  0  0  0  0  0  0  0  0  0  0  0
   44.9065    7.5336   11.7962 C   0  0  0  0  0  0  0  0  0  0  0  0
   45.7267    6.7024   12.5656 C   0  0  0  0  0  0  0  0  0  0  0  0
   50.7856    8.5287   15.7765 C   0  0  0  0  0  0  0  0  0  0  0  0
   41.0171   10.8653   11.1523 C   0  0  0  0  0  0  0  0  0  0  0  0
   41.9520   10.2631   10.1446 C   0  0  0  0  0  0  0  0  0  0  0  0
   49.4764    9.1186   16.2113 C   0  0  0  0  0  0  0  0  0  0  0  0
   47.5159    6.4544   14.1877 O   0  0  0  0  0  0  0  0  0  0  0  0
   39.7191   10.3899   11.3091 C   0  0  0  0  0  0  0  0  0  0  0  0
   51.4453    9.0138   14.6511 C   0  0  0  0  0  0  0  0  0  0  0  0
   53.1606    7.4967   14.8785 C   0  0  0  0  0  0  0  0  0  0  0  0
   39.2654   11.8826   12.9988 C   0  0  0  0  0  0  0  0  0  0  0  0
   51.3741    7.4586   16.4564 C   0  0  0  0  0  0  0  0  0  0  0  0
   41.4231   11.9093   11.9887 C   0  0  0  0  0  0  0  0  0  0  0  0
   47.8720    5.1883   13.6341 C   0  0  0  0  0  0  0  0  0  0  0  0
   52.5822    6.9355   16.0047 C   0  0  0  0  0  0  0  0  0  0  0  0
   40.5358   12.4291   12.9258 C   0  0  0  0  0  0  0  0  0  0  0  0
   46.1386   10.5539   12.7582 H   0  0  0  0  0  0  0  0  0  0  0  0
   48.1967    7.6186   15.4351 H   0  0  0  0  0  0  0  0  0  0  0  0
   42.5583    8.6006   11.2869 H   0  0  0  0  0  0  0  0  0  0  0  0
   44.1804    7.0795   11.1271 H   0  0  0  0  0  0  0  0  0  0  0  0
   45.5750    5.6292   12.4927 H   0  0  0  0  0  0  0  0  0  0  0  0
   41.3996    9.6447    9.4284 H   0  0  0  0  0  0  0  0  0  0  0  0
   42.4508   11.0535    9.5726 H   0  0  0  0  0  0  0  0  0  0  0  0
   49.5206   10.2130   16.1721 H   0  0  0  0  0  0  0  0  0  0  0  0
   49.2591    8.8419   17.2489 H   0  0  0  0  0  0  0  0  0  0  0  0
   39.3349    9.5787   10.6964 H   0  0  0  0  0  0  0  0  0  0  0  0
   51.0319    9.8352   14.0691 H   0  0  0  0  0  0  0  0  0  0  0  0
   54.1038    7.1251   14.4880 H   0  0  0  0  0  0  0  0  0  0  0  0
   38.5376   12.2539   13.7143 H   0  0  0  0  0  0  0  0  0  0  0  0
   50.9002    7.0334   17.3361 H   0  0  0  0  0  0  0  0  0  0  0  0
   42.4301   12.3163   11.9113 H   0  0  0  0  0  0  0  0  0  0  0  0
   48.7344    4.8111   14.1933 H   0  0  0  0  0  0  0  0  0  0  0  0
   48.1659    5.2728   12.5813 H   0  0  0  0  0  0  0  0  0  0  0  0
   47.0544    4.4706   13.7599 H   0  0  0  0  0  0  0  0  0  0  0  0
   53.0627    6.1108   16.5182 H   0  0  0  0  0  0  0  0  0  0  0  0
   40.8302   13.2395   13.5828 H   0  0  0  0  0  0  0  0  0  0  0  0
  2  1  1  0
  3  1  2  0
  4  5  1  0
  5  3  1  0
  6  2  1  0
  7  4  1  0
  8  1  1  0
  9  2  2  0
 10  4  2  0
 11 21  2  0
 12 20  2  0
 13 14  1  0
 14  8  2  0
 15 18  1  0
 16 17  1  0
 17  7  1  0
 18  6  1  0
 19  8  1  0
 20 16  1  0
 21 15  1  0
 22 27  2  0
 23 28  2  0
 24 15  2  0
 25 16  2  0
 26 19  1  0
 27 24  1  0
 28 25  1  0
  5 13  2  0
 11 22  1  0
 12 23  1  0
  3 29  1  0
  6 30  1  0
  7 31  1  0
 13 32  1  0
 14 33  1  0
 17 34  1  0
 17 35  1  0
 18 36  1  0
 18 37  1  0
 20 38  1  0
 21 39  1  0
 22 40  1  0
 23 41  1  0
 24 42  1  0
 25 43  1  0
 26 44  1  0
 26 45  1  0
 26 46  1  0
 27 47  1  0
 28 48  1  0
M  END
> <Uni-Dock RESULT> 
ENERGY=   -4.022  LOWER_BOUND=    4.851  UPPER_BOUND=    6.983
INTER + INTRA:          -4.022
INTER:                  -4.022
INTRA:                   0.000
UNBOUND:                 0.000

$$$$

     RDKit          3D

 48 50  0  0  0  0  0  0  0  0999 V2000
   47.7209    6.9446   18.8199 C   0  0  0  0  0  0  0  0  0  0  0  0
   47.7684    8.3805   19.2438 C   0  0  0  0  0  0  0  0  0  0  0  0
   47.7832    6.6991   17.4362 C   0  0  0  0  0  0  0  0  0  0  0  0
   47.7810    5.1936   15.4617 C   0  0  0  0  0  0  0  0  0  0  0  0
   47.7287    5.3939   16.9359 C   0  0  0  0  0  0  0  0  0  0  0  0
   47.3467    8.6766   20.5179 N   0  0  0  0  0  0  0  0  0  0  0  0
   47.1241    4.0834   14.9745 N   0  0  0  0  0  0  0  0  0  0  0  0
   47.6426    5.8563   19.7118 C   0  0  0  0  0  0  0  0  0  0  0  0
   48.1606    9.2415   18.4626 O   0  0  0  0  0  0  0  0  0  0  0  0
   48.3551    6.0095   14.7508 O   0  0  0  0  0  0  0  0  0  0  0  0
   51.0793   10.1845   22.2911 N   0  0  0  0  0  0  0  0  0  0  0  0
   43.3796    3.7142   12.3795 N   0  0  0  0  0  0  0  0  0  0  0  0
   47.6405    4.3190   17.8241 C   0  0  0  0  0  0  0  0  0  0  0  0
   47.5911    4.5507   19.2023 C   0  0  0  0  0  0  0  0  0  0  0  0
   48.6739   10.0394   22.0201 C   0  0  0  0  0  0  0  0  0  0  0  0
   45.6282    4.3033   13.0710 C   0  0  0  0  0  0  0  0  0  0  0  0
   46.9800    3.8621   13.5508 C   0  0  0  0  0  0  0  0  0  0  0  0
   47.4949    9.9916   21.0936 C   0  0  0  0  0  0  0  0  0  0  0  0
   47.5814    6.1150   21.0589 O   0  0  0  0  0  0  0  0  0  0  0  0
   44.6238    3.3820   12.7916 C   0  0  0  0  0  0  0  0  0  0  0  0
   49.9677   10.1523   21.5194 C   0  0  0  0  0  0  0  0  0  0  0  0
   50.8953   10.0977   23.6246 C   0  0  0  0  0  0  0  0  0  0  0  0
   43.1222    5.0320   12.2333 C   0  0  0  0  0  0  0  0  0  0  0  0
   48.5266    9.9408   23.4065 C   0  0  0  0  0  0  0  0  0  0  0  0
   45.3190    5.6572   12.9112 C   0  0  0  0  0  0  0  0  0  0  0  0
   48.1845    5.1419   21.9106 C   0  0  0  0  0  0  0  0  0  0  0  0
   49.6528    9.9742   24.2237 C   0  0  0  0  0  0  0  0  0  0  0  0
   44.0485    6.0304   12.4843 C   0  0  0  0  0  0  0  0  0  0  0  0
   47.8643    7.5347   16.7402 H   0  0  0  0  0  0  0  0  0  0  0  0
   47.1566    7.9004   21.1428 H   0  0  0  0  0  0  0  0  0  0  0  0
   46.4807    3.5931   15.5792 H   0  0  0  0  0  0  0  0  0  0  0  0
   47.6324    3.2934   17.4645 H   0  0  0  0  0  0  0  0  0  0  0  0
   47.5043    3.6905   19.8601 H   0  0  0  0  0  0  0  0  0  0  0  0
   47.1173    2.7884   13.3806 H   0  0  0  0  0  0  0  0  0  0  0  0
   47.7669    4.3815   12.9925 H   0  0  0  0  0  0  0  0  0  0  0  0
   47.5932   10.7548   20.3132 H   0  0  0  0  0  0  0  0  0  0  0  0
   46.5706   10.2077   21.6408 H   0  0  0  0  0  0  0  0  0  0  0  0
   44.7905    2.3132   12.8958 H   0  0  0  0  0  0  0  0  0  0  0  0
   50.1510   10.2176   20.4486 H   0  0  0  0  0  0  0  0  0  0  0  0
   51.8039   10.1304   24.2192 H   0  0  0  0  0  0  0  0  0  0  0  0
   42.1175    5.2731   11.8990 H   0  0  0  0  0  0  0  0  0  0  0  0
   47.5418    9.8421   23.8533 H   0  0  0  0  0  0  0  0  0  0  0  0
   46.0668    6.4206   13.1202 H   0  0  0  0  0  0  0  0  0  0  0  0
   48.3354    5.6053   22.8910 H   0  0  0  0  0  0  0  0  0  0  0  0
   49.1644    4.8243   21.5355 H   0  0  0  0  0  0  0  0  0  0  0  0
   47.5167    4.2847   22.0473 H   0  0  0  0  0  0  0  0  0  0  0  0
   49.5651    9.9069   25.3019 H   0  0  0  0  0  0  0  0  0  0  0  0
   43.7889    7.0745   12.3527 H   0  0  0  0  0  0  0  0  0  0  0  0
  2  1  1  0
  3  1  2  0
  4  5  1  0
  5  3  1  0
  6  2  1  0
  7  4  1  0
  8  1  1  0
  9  2  2  0
 10  4  2  0
 11 21  2  0
 12 20  2  0
 13 14  1  0
 14  8  2  0
 15 18  1  0
 16 17  1  0
 17  7  1  0
 18  6  1  0
 19  8  1  0
 20 16  1  0
 21 15  1  0
 22 27  2  0
 23 28  2  0
 24 15  2  0
 25 16  2  0
 26 19  1  0
 27 24  1  0
 28 25  1  0
  5 13  2  0
 11 22  1  0
 12 23  1  0
  3 29  1  0
  6 30  1  0
  7 31  1  0
 13 32  1  0
 14 33  1  0
 17 34  1  0
 17 35  1  0
 18 36  1  0
 18 37  1  0
 20 38  1  0
 21 39  1  0
 22 40  1  0
 23 41  1  0
 24 42  1  0
 25 43  1  0
 26 44  1  0
 26 45  1  0
 26 46  1  0
 27 47  1  0
 28 48  1  0
M  END
> <Uni-Dock RESULT> 
ENERGY=   -3.994  LOWER_BOUND=    3.290  UPPER_BOUND=    5.439
INTER + INTRA:          -3.994
INTER:                  -3.994
INTRA:                   0.000
UNBOUND:                 0.000

$$$$

     RDKit          3D

 48 50  0  0  0  0  0  0  0  0999 V2000
   42.8484   11.4558    9.1502 C   0  0  0  0  0  0  0  0  0  0  0  0
   43.4752   12.3521    8.1266 C   0  0  0  0  0  0  0  0  0  0  0  0
   43.6839   10.4782    9.7203 C   0  0  0  0  0  0  0  0  0  0  0  0
   44.1154    8.5549   11.2302 C   0  0  0  0  0  0  0  0  0  0  0  0
   43.1911    9.5801   10.6730 C   0  0  0  0  0  0  0  0  0  0  0  0
   42.6305   13.0519    7.2986 N   0  0  0  0  0  0  0  0  0  0  0  0
   43.5388    7.3665   11.6262 N   0  0  0  0  0  0  0  0  0  0  0  0
   41.5087   11.5534    9.5763 C   0  0  0  0  0  0  0  0  0  0  0  0
   44.6966   12.4323    8.0424 O   0  0  0  0  0  0  0  0  0  0  0  0
   45.3187    8.7776   11.2853 O   0  0  0  0  0  0  0  0  0  0  0  0
   43.5672   17.1870    8.4707 N   0  0  0  0  0  0  0  0  0  0  0  0
   43.8950    3.1441    9.9128 N   0  0  0  0  0  0  0  0  0  0  0  0
   41.8592    9.6747   11.0843 C   0  0  0  0  0  0  0  0  0  0  0  0
   41.0230   10.6510   10.5336 C   0  0  0  0  0  0  0  0  0  0  0  0
   42.8752   15.4368    6.9415 C   0  0  0  0  0  0  0  0  0  0  0  0
   44.5214    5.2553   10.9283 C   0  0  0  0  0  0  0  0  0  0  0  0
   44.3499    6.2427   12.0455 C   0  0  0  0  0  0  0  0  0  0  0  0
   43.1074   14.0627    6.3857 C   0  0  0  0  0  0  0  0  0  0  0  0
   40.7075   12.5127    9.0078 O   0  0  0  0  0  0  0  0  0  0  0  0
   43.8046    4.0634   10.9002 C   0  0  0  0  0  0  0  0  0  0  0  0
   43.7228   15.9642    7.9114 C   0  0  0  0  0  0  0  0  0  0  0  0
   42.5167   17.9193    8.0466 C   0  0  0  0  0  0  0  0  0  0  0  0
   44.7467    3.4230    8.9023 C   0  0  0  0  0  0  0  0  0  0  0  0
   41.7921   16.2223    6.5371 C   0  0  0  0  0  0  0  0  0  0  0  0
   45.3885    5.5075    9.8611 C   0  0  0  0  0  0  0  0  0  0  0  0
   39.6927   13.0589    9.8491 C   0  0  0  0  0  0  0  0  0  0  0  0
   41.6102   17.4850    7.0939 C   0  0  0  0  0  0  0  0  0  0  0  0
   45.5065    4.5786    8.8321 C   0  0  0  0  0  0  0  0  0  0  0  0
   44.7273   10.4091    9.4109 H   0  0  0  0  0  0  0  0  0  0  0  0
   41.6387   13.0298    7.5108 H   0  0  0  0  0  0  0  0  0  0  0  0
   42.5932    7.1627   11.3359 H   0  0  0  0  0  0  0  0  0  0  0  0
   41.4598    9.0130   11.8484 H   0  0  0  0  0  0  0  0  0  0  0  0
   39.9890   10.6813   10.8653 H   0  0  0  0  0  0  0  0  0  0  0  0
   43.8351    5.7782   12.8940 H   0  0  0  0  0  0  0  0  0  0  0  0
   45.3286    6.5792   12.4056 H   0  0  0  0  0  0  0  0  0  0  0  0
   44.1698   13.9189    6.1583 H   0  0  0  0  0  0  0  0  0  0  0  0
   42.5567   13.9326    5.4476 H   0  0  0  0  0  0  0  0  0  0  0  0
   43.1100    3.8011   11.6938 H   0  0  0  0  0  0  0  0  0  0  0  0
   44.5753   15.3967    8.2799 H   0  0  0  0  0  0  0  0  0  0  0  0
   42.4189   18.8974    8.5091 H   0  0  0  0  0  0  0  0  0  0  0  0
   44.8036    2.6686    8.1232 H   0  0  0  0  0  0  0  0  0  0  0  0
   41.0929   15.8592    5.7899 H   0  0  0  0  0  0  0  0  0  0  0  0
   45.9706    6.4273    9.8308 H   0  0  0  0  0  0  0  0  0  0  0  0
   39.3479   13.9922    9.3922 H   0  0  0  0  0  0  0  0  0  0  0  0
   40.0767   13.2967   10.8481 H   0  0  0  0  0  0  0  0  0  0  0  0
   38.8351   12.3802    9.9065 H   0  0  0  0  0  0  0  0  0  0  0  0
   40.7827   18.1165    6.7922 H   0  0  0  0  0  0  0  0  0  0  0  0
   46.1742    4.7542    7.9964 H   0  0  0  0  0  0  0  0  0  0  0  0
  2  1  1  0
  3  1  2  0
  4  5  1  0
  5  3  1  0
  6  2  1  0
  7  4  1  0
  8  1  1  0
  9  2  2  0
 10  4  2  0
 11 21  2  0
 12 20  2  0
 13 14  1  0
 14  8  2  0
 15 18  1  0
 16 17  1  0
 17  7  1  0
 18  6  1  0
 19  8  1  0
 20 16  1  0
 21 15  1  0
 22 27  2  0
 23 28  2  0
 24 15  2  0
 25 16  2  0
 26 19  1  0
 27 24  1  0
 28 25  1  0
  5 13  2  0
 11 22  1  0
 12 23  1  0
  3 29  1  0
  6 30  1  0
  7 31  1  0
 13 32  1  0
 14 33  1  0
 17 34  1  0
 17 35  1  0
 18 36  1  0
 18 37  1  0
 20 38  1  0
 21 39  1  0
 22 40  1  0
 23 41  1  0
 24 42  1  0
 25 43  1  0
 26 44  1  0
 26 45  1  0
 26 46  1  0
 27 47  1  0
 28 48  1  0
M  END
> <Uni-Dock RESULT> 
ENERGY=   -3.953  LOWER_BOUND=    7.696  UPPER_BOUND=   11.650
INTER + INTRA:          -3.953
INTER:                  -3.953
INTRA:                   0.000
UNBOUND:                 0.000

$$$$

     RDKit          3D

 48 50  0  0  0  0  0  0  0  0999 V2000
   45.9137   10.4824   11.9224 C   0  0  0  0  0  0  0  0  0  0  0  0
   46.3112    9.0937   12.3191 C   0  0  0  0  0  0  0  0  0  0  0  0
   46.9474   11.4344   11.8593 C   0  0  0  0  0  0  0  0  0  0  0  0
   47.8085   13.7325   11.4816 C   0  0  0  0  0  0  0  0  0  0  0  0
   46.6788   12.7636   11.5157 C   0  0  0  0  0  0  0  0  0  0  0  0
   45.3139    8.2490   12.7440 N   0  0  0  0  0  0  0  0  0  0  0  0
   47.4945   15.0440   11.7694 N   0  0  0  0  0  0  0  0  0  0  0  0
   44.5982   10.8684   11.5958 C   0  0  0  0  0  0  0  0  0  0  0  0
   47.4884    8.7514   12.2695 O   0  0  0  0  0  0  0  0  0  0  0  0
   48.9449   13.3430   11.2418 O   0  0  0  0  0  0  0  0  0  0  0  0
   45.4550    5.1660    9.6095 N   0  0  0  0  0  0  0  0  0  0  0  0
   48.6166   17.6835   15.3282 N   0  0  0  0  0  0  0  0  0  0  0  0
   45.3711   13.1432   11.2030 C   0  0  0  0  0  0  0  0  0  0  0  0
   44.3377   12.2022   11.2498 C   0  0  0  0  0  0  0  0  0  0  0  0
   45.0669    6.0097   11.8495 C   0  0  0  0  0  0  0  0  0  0  0  0
   48.8495   16.2901   13.3571 C   0  0  0  0  0  0  0  0  0  0  0  0
   48.5276   16.0485   11.9113 C   0  0  0  0  0  0  0  0  0  0  0  0
   45.5461    6.8475   12.9982 C   0  0  0  0  0  0  0  0  0  0  0  0
   43.6019    9.9261   11.6642 O   0  0  0  0  0  0  0  0  0  0  0  0
   48.3828   17.4189   14.0230 C   0  0  0  0  0  0  0  0  0  0  0  0
   45.8289    5.8888   10.6911 C   0  0  0  0  0  0  0  0  0  0  0  0
   44.2648    4.5352    9.6828 C   0  0  0  0  0  0  0  0  0  0  0  0
   49.3573   16.7799   16.0057 C   0  0  0  0  0  0  0  0  0  0  0  0
   43.8351    5.3500   11.8815 C   0  0  0  0  0  0  0  0  0  0  0  0
   49.6085   15.3778   14.0959 C   0  0  0  0  0  0  0  0  0  0  0  0
   42.5312   10.0793   10.7334 C   0  0  0  0  0  0  0  0  0  0  0  0
   43.4274    4.5973   10.7840 C   0  0  0  0  0  0  0  0  0  0  0  0
   49.8696   15.6243   15.4400 C   0  0  0  0  0  0  0  0  0  0  0  0
   47.9714   11.1392   12.0908 H   0  0  0  0  0  0  0  0  0  0  0  0
   44.3549    8.5627   12.6385 H   0  0  0  0  0  0  0  0  0  0  0  0
   46.5978   15.2506   12.1858 H   0  0  0  0  0  0  0  0  0  0  0  0
   45.1400   14.1606   10.8985 H   0  0  0  0  0  0  0  0  0  0  0  0
   43.3314   12.5395   11.0178 H   0  0  0  0  0  0  0  0  0  0  0  0
   48.1475   16.9636   11.4435 H   0  0  0  0  0  0  0  0  0  0  0  0
   49.4329   15.7584   11.3663 H   0  0  0  0  0  0  0  0  0  0  0  0
   46.6065    6.6529   13.1946 H   0  0  0  0  0  0  0  0  0  0  0  0
   44.9972    6.5924   13.9114 H   0  0  0  0  0  0  0  0  0  0  0  0
   47.7844   18.1700   13.5142 H   0  0  0  0  0  0  0  0  0  0  0  0
   46.7903    6.3902   10.5972 H   0  0  0  0  0  0  0  0  0  0  0  0
   43.9924    3.9595    8.8027 H   0  0  0  0  0  0  0  0  0  0  0  0
   49.5334   17.0159   17.0510 H   0  0  0  0  0  0  0  0  0  0  0  0
   43.1941    5.4156   12.7556 H   0  0  0  0  0  0  0  0  0  0  0  0
   49.9949   14.4751   13.6251 H   0  0  0  0  0  0  0  0  0  0  0  0
   41.9912    9.1281   10.6875 H   0  0  0  0  0  0  0  0  0  0  0  0
   42.8978   10.3057    9.7253 H   0  0  0  0  0  0  0  0  0  0  0  0
   41.8282   10.8444   11.0795 H   0  0  0  0  0  0  0  0  0  0  0  0
   42.4802    4.0704   10.7865 H   0  0  0  0  0  0  0  0  0  0  0  0
   50.4572   14.9305   16.0302 H   0  0  0  0  0  0  0  0  0  0  0  0
  2  1  1  0
  3  1  2  0
  4  5  1  0
  5  3  1  0
  6  2  1  0
  7  4  1  0
  8  1  1  0
  9  2  2  0
 10  4  2  0
 11 21  2  0
 12 20  2  0
 13 14  1  0
 14  8  2  0
 15 18  1  0
 16 17  1  0
 17  7  1  0
 18  6  1  0
 19  8  1  0
 20 16  1  0
 21 15  1  0
 22 27  2  0
 23 28  2  0
 24 15  2  0
 25 16  2  0
 26 19  1  0
 27 24  1  0
 28 25  1  0
  5 13  2  0
 11 22  1  0
 12 23  1  0
  3 29  1  0
  6 30  1  0
  7 31  1  0
 13 32  1  0
 14 33  1  0
 17 34  1  0
 17 35  1  0
 18 36  1  0
 18 37  1  0
 20 38  1  0
 21 39  1  0
 22 40  1  0
 23 41  1  0
 24 42  1  0
 25 43  1  0
 26 44  1  0
 26 45  1  0
 26 46  1  0
 27 47  1  0
 28 48  1  0
M  END
> <Uni-Dock RESULT> 
ENERGY=   -3.887  LOWER_BOUND=    6.417  UPPER_BOUND=   10.787
INTER + INTRA:          -3.887
INTER:                  -3.887
INTRA:                   0.000
UNBOUND:                 0.000

$$$$

     RDKit          3D

 48 50  0  0  0  0  0  0  0  0999 V2000
   48.1250    9.5765   18.0783 C   0  0  0  0  0  0  0  0  0  0  0  0
   47.7107   10.8840   18.6805 C   0  0  0  0  0  0  0  0  0  0  0  0
   48.1676    9.5211   16.6734 C   0  0  0  0  0  0  0  0  0  0  0  0
   48.5367    8.3344   14.5237 C   0  0  0  0  0  0  0  0  0  0  0  0
   48.5253    8.3412   16.0123 C   0  0  0  0  0  0  0  0  0  0  0  0
   47.3061   10.8738   19.9939 N   0  0  0  0  0  0  0  0  0  0  0  0
   48.2641    7.1258   13.9184 N   0  0  0  0  0  0  0  0  0  0  0  0
   48.4865    8.4378   18.8259 C   0  0  0  0  0  0  0  0  0  0  0  0
   47.7290   11.9076   18.0043 O   0  0  0  0  0  0  0  0  0  0  0  0
   48.7458    9.3715   13.9062 O   0  0  0  0  0  0  0  0  0  0  0  0
   50.4187   13.3789   21.8339 N   0  0  0  0  0  0  0  0  0  0  0  0
   44.6934    5.7673   11.4093 N   0  0  0  0  0  0  0  0  0  0  0  0
   48.8727    7.2121   16.7583 C   0  0  0  0  0  0  0  0  0  0  0  0
   48.8464    7.2597   18.1556 C   0  0  0  0  0  0  0  0  0  0  0  0
   48.1939   12.4389   21.6179 C   0  0  0  0  0  0  0  0  0  0  0  0
   46.6502    7.0203   12.1036 C   0  0  0  0  0  0  0  0  0  0  0  0
   48.1022    7.0258   12.4830 C   0  0  0  0  0  0  0  0  0  0  0  0
   47.0383   12.0870   20.7281 C   0  0  0  0  0  0  0  0  0  0  0  0
   48.4377    8.5099   20.1962 O   0  0  0  0  0  0  0  0  0  0  0  0
   46.0025    5.8444   11.7387 C   0  0  0  0  0  0  0  0  0  0  0  0
   49.3322   13.0478   21.0977 C   0  0  0  0  0  0  0  0  0  0  0  0
   50.3716   13.0881   23.1504 C   0  0  0  0  0  0  0  0  0  0  0  0
   43.9926    6.9215   11.4402 C   0  0  0  0  0  0  0  0  0  0  0  0
   48.1889   12.1440   22.9841 C   0  0  0  0  0  0  0  0  0  0  0  0
   45.8876    8.1917   12.1272 C   0  0  0  0  0  0  0  0  0  0  0  0
   49.3958    7.7193   20.8985 C   0  0  0  0  0  0  0  0  0  0  0  0
   49.2920   12.4763   23.7652 C   0  0  0  0  0  0  0  0  0  0  0  0
   44.5388    8.1453   11.7892 C   0  0  0  0  0  0  0  0  0  0  0  0
   47.9090   10.4039   16.0877 H   0  0  0  0  0  0  0  0  0  0  0  0
   47.4372   10.0164   20.5199 H   0  0  0  0  0  0  0  0  0  0  0  0
   47.8715    6.3796   14.4743 H   0  0  0  0  0  0  0  0  0  0  0  0
   49.1886    6.2934   16.2711 H   0  0  0  0  0  0  0  0  0  0  0  0
   49.1054    6.3562   18.7005 H   0  0  0  0  0  0  0  0  0  0  0  0
   48.5845    6.0919   12.1731 H   0  0  0  0  0  0  0  0  0  0  0  0
   48.6228    7.8438   11.9725 H   0  0  0  0  0  0  0  0  0  0  0  0
   46.8144   12.9175   20.0490 H   0  0  0  0  0  0  0  0  0  0  0  0
   46.1376   11.9076   21.3255 H   0  0  0  0  0  0  0  0  0  0  0  0
   46.5303    4.8952   11.7006 H   0  0  0  0  0  0  0  0  0  0  0  0
   49.4049   13.2897   20.0390 H   0  0  0  0  0  0  0  0  0  0  0  0
   51.2550   13.3686   23.7171 H   0  0  0  0  0  0  0  0  0  0  0  0
   42.9445    6.8342   11.1693 H   0  0  0  0  0  0  0  0  0  0  0  0
   47.3315   11.6615   23.4436 H   0  0  0  0  0  0  0  0  0  0  0  0
   46.3435    9.1394   12.4098 H   0  0  0  0  0  0  0  0  0  0  0  0
   49.4498    8.0958   21.9251 H   0  0  0  0  0  0  0  0  0  0  0  0
   50.3956    7.8046   20.4571 H   0  0  0  0  0  0  0  0  0  0  0  0
   49.0717    6.6742   20.9443 H   0  0  0  0  0  0  0  0  0  0  0  0
   49.3102   12.2650   24.8281 H   0  0  0  0  0  0  0  0  0  0  0  0
   43.9302    9.0422   11.7997 H   0  0  0  0  0  0  0  0  0  0  0  0
  2  1  1  0
  3  1  2  0
  4  5  1  0
  5  3  1  0
  6  2  1  0
  7  4  1  0
  8  1  1  0
  9  2  2  0
 10  4  2  0
 11 21  2  0
 12 20  2  0
 13 14  1  0
 14  8  2  0
 15 18  1  0
 16 17  1  0
 17  7  1  0
 18  6  1  0
 19  8  1  0
 20 16  1  0
 21 15  1  0
 22 27  2  0
 23 28  2  0
 24 15  2  0
 25 16  2  0
 26 19  1  0
 27 24  1  0
 28 25  1  0
  5 13  2  0
 11 22  1  0
 12 23  1  0
  3 29  1  0
  6 30  1  0
  7 31  1  0
 13 32  1  0
 14 33  1  0
 17 34  1  0
 17 35  1  0
 18 36  1  0
 18 37  1  0
 20 38  1  0
 21 39  1  0
 22 40  1  0
 23 41  1  0
 24 42  1  0
 25 43  1  0
 26 44  1  0
 26 45  1  0
 26 46  1  0
 27 47  1  0
 28 48  1  0
M  END
> <Uni-Dock RESULT> 
ENERGY=   -3.777  LOWER_BOUND=    4.539  UPPER_BOUND=    6.524
INTER + INTRA:          -3.777
INTER:                  -3.777
INTRA:                   0.000
UNBOUND:                 0.000

$$$$

     RDKit          3D

 48 50  0  0  0  0  0  0  0  0999 V2000
   48.3278    9.9797   17.5851 C   0  0  0  0  0  0  0  0  0  0  0  0
   48.1016   11.4600   17.6210 C   0  0  0  0  0  0  0  0  0  0  0  0
   48.2943    9.3730   16.3164 C   0  0  0  0  0  0  0  0  0  0  0  0
   48.4139    7.4020   14.8110 C   0  0  0  0  0  0  0  0  0  0  0  0
   48.4766    7.9932   16.1758 C   0  0  0  0  0  0  0  0  0  0  0  0
   47.7637   12.0175   18.8309 N   0  0  0  0  0  0  0  0  0  0  0  0
   47.9704    6.0987   14.7320 N   0  0  0  0  0  0  0  0  0  0  0  0
   48.5879    9.1890   18.7223 C   0  0  0  0  0  0  0  0  0  0  0  0
   48.2079   12.1251   16.5955 O   0  0  0  0  0  0  0  0  0  0  0  0
   48.7139    8.0778   13.8344 O   0  0  0  0  0  0  0  0  0  0  0  0
   51.2382   14.6213   19.5369 N   0  0  0  0  0  0  0  0  0  0  0  0
   44.1447    4.3361   12.9576 N   0  0  0  0  0  0  0  0  0  0  0  0
   48.7238    7.2124   17.3078 C   0  0  0  0  0  0  0  0  0  0  0  0
   48.7721    7.8069   18.5726 C   0  0  0  0  0  0  0  0  0  0  0  0
   48.9097   13.9659   19.7060 C   0  0  0  0  0  0  0  0  0  0  0  0
   46.2681    5.4985   13.1037 C   0  0  0  0  0  0  0  0  0  0  0  0
   47.7274    5.4657   13.4526 C   0  0  0  0  0  0  0  0  0  0  0  0
   47.6782   13.4449   19.0257 C   0  0  0  0  0  0  0  0  0  0  0  0
   48.6155    9.7981   19.9526 O   0  0  0  0  0  0  0  0  0  0  0  0
   45.4683    4.3673   13.2320 C   0  0  0  0  0  0  0  0  0  0  0  0
   50.0852   14.1705   18.9895 C   0  0  0  0  0  0  0  0  0  0  0  0
   51.2218   14.8784   20.8611 C   0  0  0  0  0  0  0  0  0  0  0  0
   43.5881    5.4897   12.5288 C   0  0  0  0  0  0  0  0  0  0  0  0
   48.9370   14.2335   21.0776 C   0  0  0  0  0  0  0  0  0  0  0  0
   45.6519    6.6727   12.6613 C   0  0  0  0  0  0  0  0  0  0  0  0
   49.5063    9.2302   20.9117 C   0  0  0  0  0  0  0  0  0  0  0  0
   50.1088   14.7007   21.6658 C   0  0  0  0  0  0  0  0  0  0  0  0
   44.2921    6.6712   12.3669 C   0  0  0  0  0  0  0  0  0  0  0  0
   48.1138    9.9809   15.4291 H   0  0  0  0  0  0  0  0  0  0  0  0
   47.8179   11.4258   19.6531 H   0  0  0  0  0  0  0  0  0  0  0  0
   47.5198    5.6873   15.5368 H   0  0  0  0  0  0  0  0  0  0  0  0
   48.9042    6.1439   17.2237 H   0  0  0  0  0  0  0  0  0  0  0  0
   48.9486    7.1642   19.4305 H   0  0  0  0  0  0  0  0  0  0  0  0
   48.0797    4.4316   13.5376 H   0  0  0  0  0  0  0  0  0  0  0  0
   48.3156    5.9440   12.6613 H   0  0  0  0  0  0  0  0  0  0  0  0
   47.5212   13.9640   18.0733 H   0  0  0  0  0  0  0  0  0  0  0  0
   46.7930   13.6313   19.6439 H   0  0  0  0  0  0  0  0  0  0  0  0
   45.8773    3.4200   13.5729 H   0  0  0  0  0  0  0  0  0  0  0  0
   50.1339   13.9665   17.9216 H   0  0  0  0  0  0  0  0  0  0  0  0
   52.1589   15.2426   21.2724 H   0  0  0  0  0  0  0  0  0  0  0  0
   42.5251    5.4385   12.3127 H   0  0  0  0  0  0  0  0  0  0  0  0
   48.0519   14.0841   21.6889 H   0  0  0  0  0  0  0  0  0  0  0  0
   46.2304    7.5882   12.5474 H   0  0  0  0  0  0  0  0  0  0  0  0
   49.6551    9.9687   21.7062 H   0  0  0  0  0  0  0  0  0  0  0  0
   50.4863    9.0065   20.4743 H   0  0  0  0  0  0  0  0  0  0  0  0
   49.0632    8.3377   21.3661 H   0  0  0  0  0  0  0  0  0  0  0  0
   50.1539   14.9225   22.7257 H   0  0  0  0  0  0  0  0  0  0  0  0
   43.7955    7.5705   12.0211 H   0  0  0  0  0  0  0  0  0  0  0  0
  2  1  1  0
  3  1  2  0
  4  5  1  0
  5  3  1  0
  6  2  1  0
  7  4  1  0
  8  1  1  0
  9  2  2  0
 10  4  2  0
 11 21  2  0
 12 20  2  0
 13 14  1  0
 14  8  2  0
 15 18  1  0
 16 17  1  0
 17  7  1  0
 18  6  1  0
 19  8  1  0
 20 16  1  0
 21 15  1  0
 22 27  2  0
 23 28  2  0
 24 15  2  0
 25 16  2  0
 26 19  1  0
 27 24  1  0
 28 25  1  0
  5 13  2  0
 11 22  1  0
 12 23  1  0
  3 29  1  0
  6 30  1  0
  7 31  1  0
 13 32  1  0
 14 33  1  0
 17 34  1  0
 17 35  1  0
 18 36  1  0
 18 37  1  0
 20 38  1  0
 21 39  1  0
 22 40  1  0
 23 41  1  0
 24 42  1  0
 25 43  1  0
 26 44  1  0
 26 45  1  0
 26 46  1  0
 27 47  1  0
 28 48  1  0
M  END
> <Uni-Dock RESULT> 
ENERGY=   -3.763  LOWER_BOUND=    4.851  UPPER_BOUND=    6.992
INTER + INTRA:          -3.763
INTER:                  -3.763
INTRA:                   0.000
UNBOUND:                 0.000

$$$$
