
     RDKit          3D

 48 50  0  0  0  0  0  0  0  0999 V2000
   46.9287    5.2349   14.0555 C   0  0  0  0  0  0  0  0  0  0  0  0
   47.2921    4.4212   15.2627 C   0  0  0  0  0  0  0  0  0  0  0  0
   46.2091    4.5610   13.0509 C   0  0  0  0  0  0  0  0  0  0  0  0
   45.0556    4.4645   10.8544 C   0  0  0  0  0  0  0  0  0  0  0  0
   45.8270    5.2188   11.8786 C   0  0  0  0  0  0  0  0  0  0  0  0
   47.7159    5.0978   16.3807 N   0  0  0  0  0  0  0  0  0  0  0  0
   45.2442    4.8500    9.5440 N   0  0  0  0  0  0  0  0  0  0  0  0
   47.2674    6.5943   13.8757 C   0  0  0  0  0  0  0  0  0  0  0  0
   47.2015    3.1977   15.2364 O   0  0  0  0  0  0  0  0  0  0  0  0
   44.3226    3.5430   11.1910 O   0  0  0  0  0  0  0  0  0  0  0  0
   50.0247    6.7043   19.9282 N   0  0  0  0  0  0  0  0  0  0  0  0
   46.7689    1.0104    7.9486 N   0  0  0  0  0  0  0  0  0  0  0  0
   46.1455    6.5679   11.7119 C   0  0  0  0  0  0  0  0  0  0  0  0
   46.8625    7.2480   12.7024 C   0  0  0  0  0  0  0  0  0  0  0  0
   48.4607    5.3432   18.6721 C   0  0  0  0  0  0  0  0  0  0  0  0
   45.6402    3.1534    7.8495 C   0  0  0  0  0  0  0  0  0  0  0  0
   44.6512    4.1046    8.4552 C   0  0  0  0  0  0  0  0  0  0  0  0
   48.2127    4.3962   17.5380 C   0  0  0  0  0  0  0  0  0  0  0  0
   47.9835    7.2113   14.8704 O   0  0  0  0  0  0  0  0  0  0  0  0
   45.8836    1.9126    8.4316 C   0  0  0  0  0  0  0  0  0  0  0  0
   49.7371    5.8255   18.9410 C   0  0  0  0  0  0  0  0  0  0  0  0
   48.9896    7.1225   20.6879 C   0  0  0  0  0  0  0  0  0  0  0  0
   47.4503    1.3603    6.8381 C   0  0  0  0  0  0  0  0  0  0  0  0
   47.4147    5.8106   19.4730 C   0  0  0  0  0  0  0  0  0  0  0  0
   46.3730    3.4824    6.7050 C   0  0  0  0  0  0  0  0  0  0  0  0
   48.3915    8.5606   14.6706 C   0  0  0  0  0  0  0  0  0  0  0  0
   47.6808    6.7104   20.5005 C   0  0  0  0  0  0  0  0  0  0  0  0
   47.2906    2.5723    6.1880 C   0  0  0  0  0  0  0  0  0  0  0  0
   45.9432    3.5117   13.1838 H   0  0  0  0  0  0  0  0  0  0  0  0
   47.9104    6.0896   16.2880 H   0  0  0  0  0  0  0  0  0  0  0  0
   46.0301    5.4433    9.3186 H   0  0  0  0  0  0  0  0  0  0  0  0
   45.8196    7.1146   10.8308 H   0  0  0  0  0  0  0  0  0  0  0  0
   47.0815    8.2970   12.5273 H   0  0  0  0  0  0  0  0  0  0  0  0
   44.3227    4.8361    7.7084 H   0  0  0  0  0  0  0  0  0  0  0  0
   43.7580    3.5656    8.7906 H   0  0  0  0  0  0  0  0  0  0  0  0
   47.4897    3.6257   17.8312 H   0  0  0  0  0  0  0  0  0  0  0  0
   49.1334    3.8744   17.2514 H   0  0  0  0  0  0  0  0  0  0  0  0
   45.3593    1.6016    9.3335 H   0  0  0  0  0  0  0  0  0  0  0  0
   50.5944    5.5137   18.3493 H   0  0  0  0  0  0  0  0  0  0  0  0
   49.2480    7.8226   21.4771 H   0  0  0  0  0  0  0  0  0  0  0  0
   48.1525    0.6162    6.4734 H   0  0  0  0  0  0  0  0  0  0  0  0
   46.3953    5.4755   19.2962 H   0  0  0  0  0  0  0  0  0  0  0  0
   46.2313    4.4397    6.2105 H   0  0  0  0  0  0  0  0  0  0  0  0
   48.9761    8.8638   15.5445 H   0  0  0  0  0  0  0  0  0  0  0  0
   47.5253    9.2265   14.6025 H   0  0  0  0  0  0  0  0  0  0  0  0
   49.0362    8.6525   13.7904 H   0  0  0  0  0  0  0  0  0  0  0  0
   46.8868    7.0818   21.1383 H   0  0  0  0  0  0  0  0  0  0  0  0
   47.8672    2.8007    5.2988 H   0  0  0  0  0  0  0  0  0  0  0  0
  2  1  1  0
  3  1  2  0
  4  5  1  0
  5  3  1  0
  6  2  1  0
  7  4  1  0
  8  1  1  0
  9  2  2  0
 10  4  2  0
 11 21  2  0
 12 20  2  0
 13 14  1  0
 14  8  2  0
 15 18  1  0
 16 17  1  0
 17  7  1  0
 18  6  1  0
 19  8  1  0
 20 16  1  0
 21 15  1  0
 22 27  2  0
 23 28  2  0
 24 15  2  0
 25 16  2  0
 26 19  1  0
 27 24  1  0
 28 25  1  0
  5 13  2  0
 11 22  1  0
 12 23  1  0
  3 29  1  0
  6 30  1  0
  7 31  1  0
 13 32  1  0
 14 33  1  0
 17 34  1  0
 17 35  1  0
 18 36  1  0
 18 37  1  0
 20 38  1  0
 21 39  1  0
 22 40  1  0
 23 41  1  0
 24 42  1  0
 25 43  1  0
 26 44  1  0
 26 45  1  0
 26 46  1  0
 27 47  1  0
 28 48  1  0
M  END
> <Uni-Dock RESULT> 
ENERGY=   -7.486  LOWER_BOUND=    0.000  UPPER_BOUND=    0.000
INTER + INTRA:          -7.486
INTER:                  -7.486
INTRA:                   0.000
UNBOUND:                 0.000

$$$$

     RDKit          3D

 48 50  0  0  0  0  0  0  0  0999 V2000
   48.2955    6.1130   15.2198 C   0  0  0  0  0  0  0  0  0  0  0  0
   48.4250    5.3440   16.5017 C   0  0  0  0  0  0  0  0  0  0  0  0
   47.1270    5.8744   14.4724 C   0  0  0  0  0  0  0  0  0  0  0  0
   45.6487    6.2511   12.5134 C   0  0  0  0  0  0  0  0  0  0  0  0
   46.9068    6.5286   13.2572 C   0  0  0  0  0  0  0  0  0  0  0  0
   49.3784    5.7605   17.3988 N   0  0  0  0  0  0  0  0  0  0  0  0
   45.7193    6.3491   11.1398 N   0  0  0  0  0  0  0  0  0  0  0  0
   49.2571    7.0269   14.7348 C   0  0  0  0  0  0  0  0  0  0  0  0
   47.6931    4.3850   16.7265 O   0  0  0  0  0  0  0  0  0  0  0  0
   44.6332    5.9324   13.1190 O   0  0  0  0  0  0  0  0  0  0  0  0
   52.9031    6.0968   20.2201 N   0  0  0  0  0  0  0  0  0  0  0  0
   44.5665    2.1939   10.1304 N   0  0  0  0  0  0  0  0  0  0  0  0
   47.8492    7.4464   12.7896 C   0  0  0  0  0  0  0  0  0  0  0  0
   49.0159    7.6904   13.5225 C   0  0  0  0  0  0  0  0  0  0  0  0
   50.6230    5.7438   19.4764 C   0  0  0  0  0  0  0  0  0  0  0  0
   44.7648    4.5828    9.7700 C   0  0  0  0  0  0  0  0  0  0  0  0
   44.5974    5.9732   10.3074 C   0  0  0  0  0  0  0  0  0  0  0  0
   49.6656    5.0046   18.5923 C   0  0  0  0  0  0  0  0  0  0  0  0
   50.3903    7.2198   15.4841 O   0  0  0  0  0  0  0  0  0  0  0  0
   44.4307    3.4752   10.5440 C   0  0  0  0  0  0  0  0  0  0  0  0
   51.9821    5.4486   19.4709 C   0  0  0  0  0  0  0  0  0  0  0  0
   52.4481    7.0874   21.0169 C   0  0  0  0  0  0  0  0  0  0  0  0
   45.0647    2.0036    8.8912 C   0  0  0  0  0  0  0  0  0  0  0  0
   50.1944    6.7847   20.3051 C   0  0  0  0  0  0  0  0  0  0  0  0
   45.2863    4.3437    8.4950 C   0  0  0  0  0  0  0  0  0  0  0  0
   51.3986    8.0849   14.9722 C   0  0  0  0  0  0  0  0  0  0  0  0
   51.1180    7.4656   21.0922 C   0  0  0  0  0  0  0  0  0  0  0  0
   45.4368    3.0349    8.0455 C   0  0  0  0  0  0  0  0  0  0  0  0
   46.3798    5.1709   14.8416 H   0  0  0  0  0  0  0  0  0  0  0  0
   50.0454    6.4602   17.0894 H   0  0  0  0  0  0  0  0  0  0  0  0
   46.6277    6.3774   10.6990 H   0  0  0  0  0  0  0  0  0  0  0  0
   47.6801    8.0029   11.8714 H   0  0  0  0  0  0  0  0  0  0  0  0
   49.7153    8.4163   13.1187 H   0  0  0  0  0  0  0  0  0  0  0  0
   44.5542    6.6950    9.4840 H   0  0  0  0  0  0  0  0  0  0  0  0
   43.6545    6.0593   10.8590 H   0  0  0  0  0  0  0  0  0  0  0  0
   48.7291    4.8009   19.1250 H   0  0  0  0  0  0  0  0  0  0  0  0
   50.0765    4.0339   18.2908 H   0  0  0  0  0  0  0  0  0  0  0  0
   44.0355    3.5913   11.5517 H   0  0  0  0  0  0  0  0  0  0  0  0
   52.3857    4.6600   18.8407 H   0  0  0  0  0  0  0  0  0  0  0  0
   53.2063    7.5875   21.6124 H   0  0  0  0  0  0  0  0  0  0  0  0
   45.1613    0.9655    8.5867 H   0  0  0  0  0  0  0  0  0  0  0  0
   49.1440    7.0649   20.3365 H   0  0  0  0  0  0  0  0  0  0  0  0
   45.5716    5.1685    7.8475 H   0  0  0  0  0  0  0  0  0  0  0  0
   52.2305    8.0826   15.6831 H   0  0  0  0  0  0  0  0  0  0  0  0
   51.0309    9.1129   14.8939 H   0  0  0  0  0  0  0  0  0  0  0  0
   51.7801    7.7227   14.0120 H   0  0  0  0  0  0  0  0  0  0  0  0
   50.8079    8.2719   21.7471 H   0  0  0  0  0  0  0  0  0  0  0  0
   45.8334    2.8225    7.0592 H   0  0  0  0  0  0  0  0  0  0  0  0
  2  1  1  0
  3  1  2  0
  4  5  1  0
  5  3  1  0
  6  2  1  0
  7  4  1  0
  8  1  1  0
  9  2  2  0
 10  4  2  0
 11 21  2  0
 12 20  2  0
 13 14  1  0
 14  8  2  0
 15 18  1  0
 16 17  1  0
 17  7  1  0
 18  6  1  0
 19  8  1  0
 20 16  1  0
 21 15  1  0
 22 27  2  0
 23 28  2  0
 24 15  2  0
 25 16  2  0
 26 19  1  0
 27 24  1  0
 28 25  1  0
  5 13  2  0
 11 22  1  0
 12 23  1  0
  3 29  1  0
  6 30  1  0
  7 31  1  0
 13 32  1  0
 14 33  1  0
 17 34  1  0
 17 35  1  0
 18 36  1  0
 18 37  1  0
 20 38  1  0
 21 39  1  0
 22 40  1  0
 23 41  1  0
 24 42  1  0
 25 43  1  0
 26 44  1  0
 26 45  1  0
 26 46  1  0
 27 47  1  0
 28 48  1  0
M  END
> <Uni-Dock RESULT> 
ENERGY=   -4.518  LOWER_BOUND=    1.904  UPPER_BOUND=    2.606
INTER + INTRA:          -4.518
INTER:                  -4.518
INTRA:                   0.000
UNBOUND:                 0.000

$$$$
