
     RDKit          3D

 48 50  0  0  0  0  0  0  0  0999 V2000
   47.3577    5.4714   14.4092 C   0  0  0  0  0  0  0  0  0  0  0  0
   47.3362    4.5575   15.5974 C   0  0  0  0  0  0  0  0  0  0  0  0
   46.4979    5.1196   13.3501 C   0  0  0  0  0  0  0  0  0  0  0  0
   45.5537    5.5461   11.0439 C   0  0  0  0  0  0  0  0  0  0  0  0
   46.4481    5.8880   12.1845 C   0  0  0  0  0  0  0  0  0  0  0  0
   47.8796    5.0280   16.7677 N   0  0  0  0  0  0  0  0  0  0  0  0
   45.2050    4.2195   10.9084 N   0  0  0  0  0  0  0  0  0  0  0  0
   48.1805    6.6115   14.2929 C   0  0  0  0  0  0  0  0  0  0  0  0
   46.8370    3.4399   15.4963 O   0  0  0  0  0  0  0  0  0  0  0  0
   45.1934    6.4223   10.2659 O   0  0  0  0  0  0  0  0  0  0  0  0
   51.7062    3.8588   18.9140 N   0  0  0  0  0  0  0  0  0  0  0  0
   46.8201    3.6409    6.8123 N   0  0  0  0  0  0  0  0  0  0  0  0
   47.2418    7.0332   12.0879 C   0  0  0  0  0  0  0  0  0  0  0  0
   48.1006    7.3919   13.1317 C   0  0  0  0  0  0  0  0  0  0  0  0
   49.4673    3.6701   18.0015 C   0  0  0  0  0  0  0  0  0  0  0  0
   45.3657    3.2106    8.7044 C   0  0  0  0  0  0  0  0  0  0  0  0
   44.4536    3.7561    9.7632 C   0  0  0  0  0  0  0  0  0  0  0  0
   48.0627    4.1931   17.9311 C   0  0  0  0  0  0  0  0  0  0  0  0
   49.0113    6.9151   15.3420 O   0  0  0  0  0  0  0  0  0  0  0  0
   45.9744    4.0580    7.7830 C   0  0  0  0  0  0  0  0  0  0  0  0
   50.4198    4.2664   18.8209 C   0  0  0  0  0  0  0  0  0  0  0  0
   52.0633    2.8038   18.1502 C   0  0  0  0  0  0  0  0  0  0  0  0
   47.0787    2.3176    6.7598 C   0  0  0  0  0  0  0  0  0  0  0  0
   49.8804    2.5865   17.2210 C   0  0  0  0  0  0  0  0  0  0  0  0
   45.6678    1.8482    8.6231 C   0  0  0  0  0  0  0  0  0  0  0  0
   50.0807    7.8227   15.0900 C   0  0  0  0  0  0  0  0  0  0  0  0
   51.1968    2.1423   17.2963 C   0  0  0  0  0  0  0  0  0  0  0  0
   46.5347    1.3918    7.6343 C   0  0  0  0  0  0  0  0  0  0  0  0
   45.8496    4.2538   13.4648 H   0  0  0  0  0  0  0  0  0  0  0  0
   48.3893    5.9047   16.7256 H   0  0  0  0  0  0  0  0  0  0  0  0
   45.7011    3.5194   11.4422 H   0  0  0  0  0  0  0  0  0  0  0  0
   47.1965    7.6536   11.1935 H   0  0  0  0  0  0  0  0  0  0  0  0
   48.6895    8.2956   13.0055 H   0  0  0  0  0  0  0  0  0  0  0  0
   43.7740    2.9734   10.1184 H   0  0  0  0  0  0  0  0  0  0  0  0
   43.8313    4.5610    9.3556 H   0  0  0  0  0  0  0  0  0  0  0  0
   47.3498    3.3609   17.9266 H   0  0  0  0  0  0  0  0  0  0  0  0
   47.8365    4.8084   18.8089 H   0  0  0  0  0  0  0  0  0  0  0  0
   45.7963    5.1316    7.8040 H   0  0  0  0  0  0  0  0  0  0  0  0
   50.1721    5.1196   19.4470 H   0  0  0  0  0  0  0  0  0  0  0  0
   53.1002    2.4942   18.2440 H   0  0  0  0  0  0  0  0  0  0  0  0
   47.7592    2.0104    5.9709 H   0  0  0  0  0  0  0  0  0  0  0  0
   49.1775    2.0929   16.5524 H   0  0  0  0  0  0  0  0  0  0  0  0
   45.2309    1.1398    9.3221 H   0  0  0  0  0  0  0  0  0  0  0  0
   50.7398    7.8093   15.9634 H   0  0  0  0  0  0  0  0  0  0  0  0
   49.7038    8.8436   14.9734 H   0  0  0  0  0  0  0  0  0  0  0  0
   50.6719    7.5146   14.2211 H   0  0  0  0  0  0  0  0  0  0  0  0
   51.5376    1.3026   16.7014 H   0  0  0  0  0  0  0  0  0  0  0  0
   46.7809    0.3397    7.5471 H   0  0  0  0  0  0  0  0  0  0  0  0
  2  1  1  0
  3  1  2  0
  4  5  1  0
  5  3  1  0
  6  2  1  0
  7  4  1  0
  8  1  1  0
  9  2  2  0
 10  4  2  0
 11 21  2  0
 12 20  2  0
 13 14  1  0
 14  8  2  0
 15 18  1  0
 16 17  1  0
 17  7  1  0
 18  6  1  0
 19  8  1  0
 20 16  1  0
 21 15  1  0
 22 27  2  0
 23 28  2  0
 24 15  2  0
 25 16  2  0
 26 19  1  0
 27 24  1  0
 28 25  1  0
  5 13  2  0
 11 22  1  0
 12 23  1  0
  3 29  1  0
  6 30  1  0
  7 31  1  0
 13 32  1  0
 14 33  1  0
 17 34  1  0
 17 35  1  0
 18 36  1  0
 18 37  1  0
 20 38  1  0
 21 39  1  0
 22 40  1  0
 23 41  1  0
 24 42  1  0
 25 43  1  0
 26 44  1  0
 26 45  1  0
 26 46  1  0
 27 47  1  0
 28 48  1  0
M  END
> <Uni-Dock RESULT> 
ENERGY=   -7.136  LOWER_BOUND=    0.000  UPPER_BOUND=    0.000
INTER + INTRA:          -7.136
INTER:                  -7.136
INTRA:                   0.000
UNBOUND:                 0.000

$$$$

     RDKit          3D

 48 50  0  0  0  0  0  0  0  0999 V2000
   45.9661    8.0068   12.5177 C   0  0  0  0  0  0  0  0  0  0  0  0
   44.7346    7.4768   11.8469 C   0  0  0  0  0  0  0  0  0  0  0  0
   46.3184    9.3317   12.1934 C   0  0  0  0  0  0  0  0  0  0  0  0
   47.8623   11.3205   12.4235 C   0  0  0  0  0  0  0  0  0  0  0  0
   47.4574    9.9237   12.7444 C   0  0  0  0  0  0  0  0  0  0  0  0
   44.1636    6.3448   12.3749 N   0  0  0  0  0  0  0  0  0  0  0  0
   47.4517   11.8184   11.2056 N   0  0  0  0  0  0  0  0  0  0  0  0
   46.7726    7.2665   13.4077 C   0  0  0  0  0  0  0  0  0  0  0  0
   44.2753    8.0610   10.8690 O   0  0  0  0  0  0  0  0  0  0  0  0
   48.5545   11.9528   13.2133 O   0  0  0  0  0  0  0  0  0  0  0  0
   43.9970    2.1050   10.7586 N   0  0  0  0  0  0  0  0  0  0  0  0
   51.4882   12.7304    9.5940 N   0  0  0  0  0  0  0  0  0  0  0  0
   48.2344    9.1967   13.6492 C   0  0  0  0  0  0  0  0  0  0  0  0
   47.8960    7.8802   13.9777 C   0  0  0  0  0  0  0  0  0  0  0  0
   43.5820    4.4884   10.9249 C   0  0  0  0  0  0  0  0  0  0  0  0
   49.0865   12.9718    9.8278 C   0  0  0  0  0  0  0  0  0  0  0  0
   47.9000   13.1102   10.7352 C   0  0  0  0  0  0  0  0  0  0  0  0
   43.0756    5.6491   11.7297 C   0  0  0  0  0  0  0  0  0  0  0  0
   46.4013    5.9761   13.6905 O   0  0  0  0  0  0  0  0  0  0  0  0
   50.3737   12.8735   10.3485 C   0  0  0  0  0  0  0  0  0  0  0  0
   43.5381    3.1905   11.4225 C   0  0  0  0  0  0  0  0  0  0  0  0
   44.5290    2.3233    9.5367 C   0  0  0  0  0  0  0  0  0  0  0  0
   51.3133   12.6751    8.2572 C   0  0  0  0  0  0  0  0  0  0  0  0
   44.1483    4.6718    9.6600 C   0  0  0  0  0  0  0  0  0  0  0  0
   48.9470   12.8996    8.4388 C   0  0  0  0  0  0  0  0  0  0  0  0
   47.3820    5.1259   14.2791 C   0  0  0  0  0  0  0  0  0  0  0  0
   44.6272    3.5744    8.9514 C   0  0  0  0  0  0  0  0  0  0  0  0
   50.0766   12.7524    7.6389 C   0  0  0  0  0  0  0  0  0  0  0  0
   45.6725    9.8993   11.5272 H   0  0  0  0  0  0  0  0  0  0  0  0
   44.6832    5.8530   13.0948 H   0  0  0  0  0  0  0  0  0  0  0  0
   47.0752   11.1861   10.5130 H   0  0  0  0  0  0  0  0  0  0  0  0
   49.1130    9.6539   14.1032 H   0  0  0  0  0  0  0  0  0  0  0  0
   48.5317    7.3646   14.6916 H   0  0  0  0  0  0  0  0  0  0  0  0
   47.0618   13.5661   10.1966 H   0  0  0  0  0  0  0  0  0  0  0  0
   48.1368   13.7695   11.5781 H   0  0  0  0  0  0  0  0  0  0  0  0
   42.5047    6.3316   11.0901 H   0  0  0  0  0  0  0  0  0  0  0  0
   42.3995    5.3040   12.5197 H   0  0  0  0  0  0  0  0  0  0  0  0
   50.5492   12.9034   11.4223 H   0  0  0  0  0  0  0  0  0  0  0  0
   43.1215    2.9750   12.4029 H   0  0  0  0  0  0  0  0  0  0  0  0
   44.8885    1.4363    9.0230 H   0  0  0  0  0  0  0  0  0  0  0  0
   52.2239   12.5613    7.6762 H   0  0  0  0  0  0  0  0  0  0  0  0
   44.2194    5.6694    9.2306 H   0  0  0  0  0  0  0  0  0  0  0  0
   47.9657   12.9599    7.9754 H   0  0  0  0  0  0  0  0  0  0  0  0
   46.9868    4.1056   14.2665 H   0  0  0  0  0  0  0  0  0  0  0  0
   47.5579    5.4015   15.3236 H   0  0  0  0  0  0  0  0  0  0  0  0
   48.3137    5.1299   13.7036 H   0  0  0  0  0  0  0  0  0  0  0  0
   45.0682    3.6938    7.9683 H   0  0  0  0  0  0  0  0  0  0  0  0
   49.9954   12.6990    6.5592 H   0  0  0  0  0  0  0  0  0  0  0  0
  2  1  1  0
  3  1  2  0
  4  5  1  0
  5  3  1  0
  6  2  1  0
  7  4  1  0
  8  1  1  0
  9  2  2  0
 10  4  2  0
 11 21  2  0
 12 20  2  0
 13 14  1  0
 14  8  2  0
 15 18  1  0
 16 17  1  0
 17  7  1  0
 18  6  1  0
 19  8  1  0
 20 16  1  0
 21 15  1  0
 22 27  2  0
 23 28  2  0
 24 15  2  0
 25 16  2  0
 26 19  1  0
 27 24  1  0
 28 25  1  0
  5 13  2  0
 11 22  1  0
 12 23  1  0
  3 29  1  0
  6 30  1  0
  7 31  1  0
 13 32  1  0
 14 33  1  0
 17 34  1  0
 17 35  1  0
 18 36  1  0
 18 37  1  0
 20 38  1  0
 21 39  1  0
 22 40  1  0
 23 41  1  0
 24 42  1  0
 25 43  1  0
 26 44  1  0
 26 45  1  0
 26 46  1  0
 27 47  1  0
 28 48  1  0
M  END
> <Uni-Dock RESULT> 
ENERGY=   -5.635  LOWER_BOUND=    4.593  UPPER_BOUND=    8.251
INTER + INTRA:          -5.635
INTER:                  -5.635
INTRA:                   0.000
UNBOUND:                 0.000

$$$$

     RDKit          3D

 48 50  0  0  0  0  0  0  0  0999 V2000
   46.5216    8.0584   13.2334 C   0  0  0  0  0  0  0  0  0  0  0  0
   47.5755    8.5669   14.1704 C   0  0  0  0  0  0  0  0  0  0  0  0
   45.7461    9.0436   12.5909 C   0  0  0  0  0  0  0  0  0  0  0  0
   43.8809    9.6985   11.0148 C   0  0  0  0  0  0  0  0  0  0  0  0
   44.7224    8.6856   11.7103 C   0  0  0  0  0  0  0  0  0  0  0  0
   48.5628    7.6901   14.5484 N   0  0  0  0  0  0  0  0  0  0  0  0
   43.7416   10.9196   11.6388 N   0  0  0  0  0  0  0  0  0  0  0  0
   46.2619    6.6936   12.9877 C   0  0  0  0  0  0  0  0  0  0  0  0
   47.5328    9.7308   14.5602 O   0  0  0  0  0  0  0  0  0  0  0  0
   43.3285    9.4127    9.9585 O   0  0  0  0  0  0  0  0  0  0  0  0
   49.3380    5.6762   18.5433 N   0  0  0  0  0  0  0  0  0  0  0  0
   39.3145   10.8602   11.9839 N   0  0  0  0  0  0  0  0  0  0  0  0
   44.4907    7.3337   11.4469 C   0  0  0  0  0  0  0  0  0  0  0  0
   45.2526    6.3464   12.0797 C   0  0  0  0  0  0  0  0  0  0  0  0
   49.1337    7.4417   16.8935 C   0  0  0  0  0  0  0  0  0  0  0  0
   41.5129   11.8699   11.8156 C   0  0  0  0  0  0  0  0  0  0  0  0
   42.8417   11.9264   11.1217 C   0  0  0  0  0  0  0  0  0  0  0  0
   49.5381    8.0080   15.5641 C   0  0  0  0  0  0  0  0  0  0  0  0
   47.0325    5.7645   13.6404 O   0  0  0  0  0  0  0  0  0  0  0  0
   40.5284   10.9790   11.3975 C   0  0  0  0  0  0  0  0  0  0  0  0
   49.6751    6.2510   17.3662 C   0  0  0  0  0  0  0  0  0  0  0  0
   48.4126    6.3192   19.2876 C   0  0  0  0  0  0  0  0  0  0  0  0
   39.0703   11.6613   13.0419 C   0  0  0  0  0  0  0  0  0  0  0  0
   48.1729    8.0707   17.6905 C   0  0  0  0  0  0  0  0  0  0  0  0
   41.2248   12.6747   12.9216 C   0  0  0  0  0  0  0  0  0  0  0  0
   46.5490    4.4246   13.6820 C   0  0  0  0  0  0  0  0  0  0  0  0
   47.8067    7.5051   18.9079 C   0  0  0  0  0  0  0  0  0  0  0  0
   39.9839   12.5730   13.5440 C   0  0  0  0  0  0  0  0  0  0  0  0
   45.9754   10.0918   12.7689 H   0  0  0  0  0  0  0  0  0  0  0  0
   48.4453    6.7160   14.2891 H   0  0  0  0  0  0  0  0  0  0  0  0
   44.0365   11.0217   12.6001 H   0  0  0  0  0  0  0  0  0  0  0  0
   43.7100    7.0413   10.7455 H   0  0  0  0  0  0  0  0  0  0  0  0
   45.0337    5.3118   11.8325 H   0  0  0  0  0  0  0  0  0  0  0  0
   43.3160   12.8998   11.2894 H   0  0  0  0  0  0  0  0  0  0  0  0
   42.7140   11.8137   10.0390 H   0  0  0  0  0  0  0  0  0  0  0  0
   49.6768    9.0922   15.6421 H   0  0  0  0  0  0  0  0  0  0  0  0
   50.4936    7.5819   15.2388 H   0  0  0  0  0  0  0  0  0  0  0  0
   40.6965   10.3111   10.5546 H   0  0  0  0  0  0  0  0  0  0  0  0
   50.4191    5.7024   16.7947 H   0  0  0  0  0  0  0  0  0  0  0  0
   48.1604    5.8392   20.2288 H   0  0  0  0  0  0  0  0  0  0  0  0
   38.0887   11.5461   13.4922 H   0  0  0  0  0  0  0  0  0  0  0  0
   47.7080    8.9977   17.3600 H   0  0  0  0  0  0  0  0  0  0  0  0
   41.9584   13.3817   13.3001 H   0  0  0  0  0  0  0  0  0  0  0  0
   47.1771    3.8671   14.3836 H   0  0  0  0  0  0  0  0  0  0  0  0
   46.6420    3.9479   12.7012 H   0  0  0  0  0  0  0  0  0  0  0  0
   45.5184    4.3814   14.0499 H   0  0  0  0  0  0  0  0  0  0  0  0
   47.0653    7.9772   19.5423 H   0  0  0  0  0  0  0  0  0  0  0  0
   39.7343   13.1895   14.4001 H   0  0  0  0  0  0  0  0  0  0  0  0
  2  1  1  0
  3  1  2  0
  4  5  1  0
  5  3  1  0
  6  2  1  0
  7  4  1  0
  8  1  1  0
  9  2  2  0
 10  4  2  0
 11 21  2  0
 12 20  2  0
 13 14  1  0
 14  8  2  0
 15 18  1  0
 16 17  1  0
 17  7  1  0
 18  6  1  0
 19  8  1  0
 20 16  1  0
 21 15  1  0
 22 27  2  0
 23 28  2  0
 24 15  2  0
 25 16  2  0
 26 19  1  0
 27 24  1  0
 28 25  1  0
  5 13  2  0
 11 22  1  0
 12 23  1  0
  3 29  1  0
  6 30  1  0
  7 31  1  0
 13 32  1  0
 14 33  1  0
 17 34  1  0
 17 35  1  0
 18 36  1  0
 18 37  1  0
 20 38  1  0
 21 39  1  0
 22 40  1  0
 23 41  1  0
 24 42  1  0
 25 43  1  0
 26 44  1  0
 26 45  1  0
 26 46  1  0
 27 47  1  0
 28 48  1  0
M  END
> <Uni-Dock RESULT> 
ENERGY=   -4.526  LOWER_BOUND=    4.853  UPPER_BOUND=    6.939
INTER + INTRA:          -4.526
INTER:                  -4.526
INTRA:                   0.000
UNBOUND:                 0.000

$$$$

     RDKit          3D

 48 50  0  0  0  0  0  0  0  0999 V2000
   46.9544    8.6921   13.2958 C   0  0  0  0  0  0  0  0  0  0  0  0
   48.0978    8.4315   14.2295 C   0  0  0  0  0  0  0  0  0  0  0  0
   46.8065   10.0253   12.8652 C   0  0  0  0  0  0  0  0  0  0  0  0
   45.5755   11.7874   11.5343 C   0  0  0  0  0  0  0  0  0  0  0  0
   45.7647   10.3884   12.0084 C   0  0  0  0  0  0  0  0  0  0  0  0
   48.4892    7.1264   14.4022 N   0  0  0  0  0  0  0  0  0  0  0  0
   46.0652   12.7868   12.3474 N   0  0  0  0  0  0  0  0  0  0  0  0
   46.0396    7.7107   12.8593 C   0  0  0  0  0  0  0  0  0  0  0  0
   48.6467    9.3726   14.7967 O   0  0  0  0  0  0  0  0  0  0  0  0
   44.9797   12.0016   10.4846 O   0  0  0  0  0  0  0  0  0  0  0  0
   48.0324    4.3662   17.9784 N   0  0  0  0  0  0  0  0  0  0  0  0
   42.2227   14.9256   12.9665 N   0  0  0  0  0  0  0  0  0  0  0  0
   44.8810    9.4066   11.5546 C   0  0  0  0  0  0  0  0  0  0  0  0
   45.0162    8.0801   11.9761 C   0  0  0  0  0  0  0  0  0  0  0  0
   48.7978    6.2369   16.6384 C   0  0  0  0  0  0  0  0  0  0  0  0
   44.6316   14.6918   12.8137 C   0  0  0  0  0  0  0  0  0  0  0  0
   45.8186   14.1807   12.0520 C   0  0  0  0  0  0  0  0  0  0  0  0
   49.4659    6.7315   15.3892 C   0  0  0  0  0  0  0  0  0  0  0  0
   46.2117    6.4256   13.3087 O   0  0  0  0  0  0  0  0  0  0  0  0
   43.3402   14.5075   12.3278 C   0  0  0  0  0  0  0  0  0  0  0  0
   48.6435    4.8769   16.8850 C   0  0  0  0  0  0  0  0  0  0  0  0
   47.5483    5.2558   18.8718 C   0  0  0  0  0  0  0  0  0  0  0  0
   42.3974   15.5509   14.1493 C   0  0  0  0  0  0  0  0  0  0  0  0
   48.2749    7.1238   17.5840 C   0  0  0  0  0  0  0  0  0  0  0  0
   44.7693   15.3346   14.0474 C   0  0  0  0  0  0  0  0  0  0  0  0
   45.1105    5.5311   13.1739 C   0  0  0  0  0  0  0  0  0  0  0  0
   47.6426    6.6290   18.7204 C   0  0  0  0  0  0  0  0  0  0  0  0
   43.6364   15.7748   14.7259 C   0  0  0  0  0  0  0  0  0  0  0  0
   47.5350   10.7657   13.1880 H   0  0  0  0  0  0  0  0  0  0  0  0
   47.8966    6.4054   14.0035 H   0  0  0  0  0  0  0  0  0  0  0  0
   46.3482   12.5638   13.2916 H   0  0  0  0  0  0  0  0  0  0  0  0
   44.0772    9.6721   10.8687 H   0  0  0  0  0  0  0  0  0  0  0  0
   44.3053    7.3575   11.5865 H   0  0  0  0  0  0  0  0  0  0  0  0
   46.7196   14.7353   12.3370 H   0  0  0  0  0  0  0  0  0  0  0  0
   45.6767   14.3301   10.9755 H   0  0  0  0  0  0  0  0  0  0  0  0
   50.1372    7.5649   15.6249 H   0  0  0  0  0  0  0  0  0  0  0  0
   50.0768    5.9405   14.9404 H   0  0  0  0  0  0  0  0  0  0  0  0
   43.1631   13.9976   11.3826 H   0  0  0  0  0  0  0  0  0  0  0  0
   49.0158    4.1305   16.1883 H   0  0  0  0  0  0  0  0  0  0  0  0
   47.0642    4.8215   19.7418 H   0  0  0  0  0  0  0  0  0  0  0  0
   41.4844   15.8767   14.6393 H   0  0  0  0  0  0  0  0  0  0  0  0
   48.3569    8.1984   17.4319 H   0  0  0  0  0  0  0  0  0  0  0  0
   45.7520   15.4973   14.4822 H   0  0  0  0  0  0  0  0  0  0  0  0
   45.3489    4.6244   13.7383 H   0  0  0  0  0  0  0  0  0  0  0  0
   44.9699    5.2439   12.1272 H   0  0  0  0  0  0  0  0  0  0  0  0
   44.1943    5.9563   13.5969 H   0  0  0  0  0  0  0  0  0  0  0  0
   47.2319    7.2989   19.4672 H   0  0  0  0  0  0  0  0  0  0  0  0
   43.7169   16.2804   15.6815 H   0  0  0  0  0  0  0  0  0  0  0  0
  2  1  1  0
  3  1  2  0
  4  5  1  0
  5  3  1  0
  6  2  1  0
  7  4  1  0
  8  1  1  0
  9  2  2  0
 10  4  2  0
 11 21  2  0
 12 20  2  0
 13 14  1  0
 14  8  2  0
 15 18  1  0
 16 17  1  0
 17  7  1  0
 18  6  1  0
 19  8  1  0
 20 16  1  0
 21 15  1  0
 22 27  2  0
 23 28  2  0
 24 15  2  0
 25 16  2  0
 26 19  1  0
 27 24  1  0
 28 25  1  0
  5 13  2  0
 11 22  1  0
 12 23  1  0
  3 29  1  0
  6 30  1  0
  7 31  1  0
 13 32  1  0
 14 33  1  0
 17 34  1  0
 17 35  1  0
 18 36  1  0
 18 37  1  0
 20 38  1  0
 21 39  1  0
 22 40  1  0
 23 41  1  0
 24 42  1  0
 25 43  1  0
 26 44  1  0
 26 45  1  0
 26 46  1  0
 27 47  1  0
 28 48  1  0
M  END
> <Uni-Dock RESULT> 
ENERGY=   -4.336  LOWER_BOUND=    5.424  UPPER_BOUND=    8.007
INTER + INTRA:          -4.336
INTER:                  -4.336
INTRA:                   0.000
UNBOUND:                 0.000

$$$$

     RDKit          3D

 48 50  0  0  0  0  0  0  0  0999 V2000
   48.5091    7.1021   17.9911 C   0  0  0  0  0  0  0  0  0  0  0  0
   49.1603    8.4525   17.9850 C   0  0  0  0  0  0  0  0  0  0  0  0
   48.3125    6.5112   16.7274 C   0  0  0  0  0  0  0  0  0  0  0  0
   47.4713    4.6075   15.2920 C   0  0  0  0  0  0  0  0  0  0  0  0
   47.6979    5.2621   16.6103 C   0  0  0  0  0  0  0  0  0  0  0  0
   49.6780    8.9108   19.1717 N   0  0  0  0  0  0  0  0  0  0  0  0
   47.3596    5.4406   14.1997 N   0  0  0  0  0  0  0  0  0  0  0  0
   48.0796    6.4274   19.1532 C   0  0  0  0  0  0  0  0  0  0  0  0
   49.2186    9.0951   16.9400 O   0  0  0  0  0  0  0  0  0  0  0  0
   47.3615    3.3884   15.2259 O   0  0  0  0  0  0  0  0  0  0  0  0
   48.2479   12.2315   21.9185 N   0  0  0  0  0  0  0  0  0  0  0  0
   43.3007    4.1537   12.9381 N   0  0  0  0  0  0  0  0  0  0  0  0
   47.3033    4.5848   17.7663 C   0  0  0  0  0  0  0  0  0  0  0  0
   47.4915    5.1617   19.0262 C   0  0  0  0  0  0  0  0  0  0  0  0
   49.1481   11.1491   19.9439 C   0  0  0  0  0  0  0  0  0  0  0  0
   45.5327    5.0555   12.6454 C   0  0  0  0  0  0  0  0  0  0  0  0
   47.0058    4.9233   12.8965 C   0  0  0  0  0  0  0  0  0  0  0  0
   50.1846   10.2530   19.3324 C   0  0  0  0  0  0  0  0  0  0  0  0
   48.2802    7.0405   20.3644 O   0  0  0  0  0  0  0  0  0  0  0  0
   44.6415    4.0933   13.1119 C   0  0  0  0  0  0  0  0  0  0  0  0
   49.1636   11.4499   21.3016 C   0  0  0  0  0  0  0  0  0  0  0  0
   47.2647   12.7383   21.1437 C   0  0  0  0  0  0  0  0  0  0  0  0
   42.8223    5.2267   12.2744 C   0  0  0  0  0  0  0  0  0  0  0  0
   48.1086   11.6869   19.1794 C   0  0  0  0  0  0  0  0  0  0  0  0
   44.9963    6.1568   11.9720 C   0  0  0  0  0  0  0  0  0  0  0  0
   47.5391    6.5498   21.4783 C   0  0  0  0  0  0  0  0  0  0  0  0
   47.1526   12.4965   19.7848 C   0  0  0  0  0  0  0  0  0  0  0  0
   43.6206    6.2443   11.7794 C   0  0  0  0  0  0  0  0  0  0  0  0
   48.6732    7.0306   15.8424 H   0  0  0  0  0  0  0  0  0  0  0  0
   49.4662    8.3782   20.0093 H   0  0  0  0  0  0  0  0  0  0  0  0
   47.2414    6.4339   14.3436 H   0  0  0  0  0  0  0  0  0  0  0  0
   46.8428    3.6004   17.6906 H   0  0  0  0  0  0  0  0  0  0  0  0
   47.1719    4.5877   19.8910 H   0  0  0  0  0  0  0  0  0  0  0  0
   47.5701    5.5010   12.1559 H   0  0  0  0  0  0  0  0  0  0  0  0
   47.3197    3.8781   12.7955 H   0  0  0  0  0  0  0  0  0  0  0  0
   50.5152   10.6600   18.3701 H   0  0  0  0  0  0  0  0  0  0  0  0
   51.0677   10.1896   19.9777 H   0  0  0  0  0  0  0  0  0  0  0  0
   44.9927    3.2212   13.6603 H   0  0  0  0  0  0  0  0  0  0  0  0
   49.9357   11.0580   21.9584 H   0  0  0  0  0  0  0  0  0  0  0  0
   46.5434   13.3639   21.6613 H   0  0  0  0  0  0  0  0  0  0  0  0
   41.7437    5.2491   12.1481 H   0  0  0  0  0  0  0  0  0  0  0  0
   48.0426   11.4709   18.1147 H   0  0  0  0  0  0  0  0  0  0  0  0
   45.6421    6.9452   11.5942 H   0  0  0  0  0  0  0  0  0  0  0  0
   47.6762    7.2544   22.3041 H   0  0  0  0  0  0  0  0  0  0  0  0
   47.9241    5.5781   21.8028 H   0  0  0  0  0  0  0  0  0  0  0  0
   46.4677    6.5000   21.2566 H   0  0  0  0  0  0  0  0  0  0  0  0
   46.3395   12.9254   19.2104 H   0  0  0  0  0  0  0  0  0  0  0  0
   43.1805    7.0856   11.2560 H   0  0  0  0  0  0  0  0  0  0  0  0
  2  1  1  0
  3  1  2  0
  4  5  1  0
  5  3  1  0
  6  2  1  0
  7  4  1  0
  8  1  1  0
  9  2  2  0
 10  4  2  0
 11 21  2  0
 12 20  2  0
 13 14  1  0
 14  8  2  0
 15 18  1  0
 16 17  1  0
 17  7  1  0
 18  6  1  0
 19  8  1  0
 20 16  1  0
 21 15  1  0
 22 27  2  0
 23 28  2  0
 24 15  2  0
 25 16  2  0
 26 19  1  0
 27 24  1  0
 28 25  1  0
  5 13  2  0
 11 22  1  0
 12 23  1  0
  3 29  1  0
  6 30  1  0
  7 31  1  0
 13 32  1  0
 14 33  1  0
 17 34  1  0
 17 35  1  0
 18 36  1  0
 18 37  1  0
 20 38  1  0
 21 39  1  0
 22 40  1  0
 23 41  1  0
 24 42  1  0
 25 43  1  0
 26 44  1  0
 26 45  1  0
 26 46  1  0
 27 47  1  0
 28 48  1  0
M  END
> <Uni-Dock RESULT> 
ENERGY=   -4.159  LOWER_BOUND=    4.207  UPPER_BOUND=    6.695
INTER + INTRA:          -4.159
INTER:                  -4.159
INTRA:                   0.000
UNBOUND:                 0.000

$$$$
