
     RDKit          3D

 48 50  0  0  0  0  0  0  0  0999 V2000
   45.0780    8.4159   11.9912 C   0  0  0  0  0  0  0  0  0  0  0  0
   43.9810    7.4895   11.5565 C   0  0  0  0  0  0  0  0  0  0  0  0
   44.9354    9.7657   11.6204 C   0  0  0  0  0  0  0  0  0  0  0  0
   45.6864   12.1317   11.5788 C   0  0  0  0  0  0  0  0  0  0  0  0
   45.8919   10.7164   11.9899 C   0  0  0  0  0  0  0  0  0  0  0  0
   43.9317    6.2484   12.1455 N   0  0  0  0  0  0  0  0  0  0  0  0
   46.1916   13.0911   12.4309 N   0  0  0  0  0  0  0  0  0  0  0  0
   46.2220    8.0146   12.7127 C   0  0  0  0  0  0  0  0  0  0  0  0
   43.1658    7.8528   10.7139 O   0  0  0  0  0  0  0  0  0  0  0  0
   45.0702   12.3895   10.5524 O   0  0  0  0  0  0  0  0  0  0  0  0
   44.8962    2.1619   10.4258 N   0  0  0  0  0  0  0  0  0  0  0  0
   44.0133   16.1221   15.0585 N   0  0  0  0  0  0  0  0  0  0  0  0
   47.0169   10.3167   12.7148 C   0  0  0  0  0  0  0  0  0  0  0  0
   47.1767    8.9755   13.0773 C   0  0  0  0  0  0  0  0  0  0  0  0
   43.7391    4.2669   10.7610 C   0  0  0  0  0  0  0  0  0  0  0  0
   44.7800   14.9640   13.0708 C   0  0  0  0  0  0  0  0  0  0  0  0
   45.9235   14.4977   12.2186 C   0  0  0  0  0  0  0  0  0  0  0  0
   43.0364    5.2108   11.6920 C   0  0  0  0  0  0  0  0  0  0  0  0
   46.3433    6.6912   13.0572 O   0  0  0  0  0  0  0  0  0  0  0  0
   44.9967   15.6928   14.2355 C   0  0  0  0  0  0  0  0  0  0  0  0
   44.2326    3.0453   11.2064 C   0  0  0  0  0  0  0  0  0  0  0  0
   45.0784    2.5138    9.1347 C   0  0  0  0  0  0  0  0  0  0  0  0
   42.7476   15.8131   14.7026 C   0  0  0  0  0  0  0  0  0  0  0  0
   43.9572    4.5964    9.4201 C   0  0  0  0  0  0  0  0  0  0  0  0
   43.4554   14.6611   12.7412 C   0  0  0  0  0  0  0  0  0  0  0  0
   47.6676    6.1975   13.2493 C   0  0  0  0  0  0  0  0  0  0  0  0
   44.6337    3.7073    8.5910 C   0  0  0  0  0  0  0  0  0  0  0  0
   42.4214   15.0924   13.5662 C   0  0  0  0  0  0  0  0  0  0  0  0
   44.0647   10.0820   11.0451 H   0  0  0  0  0  0  0  0  0  0  0  0
   44.7099    5.9810   12.7383 H   0  0  0  0  0  0  0  0  0  0  0  0
   46.4690   12.8154   13.3623 H   0  0  0  0  0  0  0  0  0  0  0  0
   47.7917   11.0295   12.9848 H   0  0  0  0  0  0  0  0  0  0  0  0
   48.0588    8.7089   13.6523 H   0  0  0  0  0  0  0  0  0  0  0  0
   46.8406   15.0391   12.4761 H   0  0  0  0  0  0  0  0  0  0  0  0
   45.7142   14.6998   11.1621 H   0  0  0  0  0  0  0  0  0  0  0  0
   42.6803    4.6801   12.5819 H   0  0  0  0  0  0  0  0  0  0  0  0
   42.1577    5.6431   11.2002 H   0  0  0  0  0  0  0  0  0  0  0  0
   45.9993   15.9622   14.5567 H   0  0  0  0  0  0  0  0  0  0  0  0
   44.1091    2.7286   12.2389 H   0  0  0  0  0  0  0  0  0  0  0  0
   45.6107    1.7876    8.5273 H   0  0  0  0  0  0  0  0  0  0  0  0
   41.9757   16.1712   15.3777 H   0  0  0  0  0  0  0  0  0  0  0  0
   43.6037    5.5474    9.0249 H   0  0  0  0  0  0  0  0  0  0  0  0
   43.2292   14.0881   11.8433 H   0  0  0  0  0  0  0  0  0  0  0  0
   48.3323    6.4969   12.4317 H   0  0  0  0  0  0  0  0  0  0  0  0
   47.6167    5.1043   13.2555 H   0  0  0  0  0  0  0  0  0  0  0  0
   48.0621    6.5173   14.2189 H   0  0  0  0  0  0  0  0  0  0  0  0
   44.8113    3.9426    7.5479 H   0  0  0  0  0  0  0  0  0  0  0  0
   41.3876   14.8695   13.3277 H   0  0  0  0  0  0  0  0  0  0  0  0
  2  1  1  0
  3  1  2  0
  4  5  1  0
  5  3  1  0
  6  2  1  0
  7  4  1  0
  8  1  1  0
  9  2  2  0
 10  4  2  0
 11 21  2  0
 12 20  2  0
 13 14  1  0
 14  8  2  0
 15 18  1  0
 16 17  1  0
 17  7  1  0
 18  6  1  0
 19  8  1  0
 20 16  1  0
 21 15  1  0
 22 27  2  0
 23 28  2  0
 24 15  2  0
 25 16  2  0
 26 19  1  0
 27 24  1  0
 28 25  1  0
  5 13  2  0
 11 22  1  0
 12 23  1  0
  3 29  1  0
  6 30  1  0
  7 31  1  0
 13 32  1  0
 14 33  1  0
 17 34  1  0
 17 35  1  0
 18 36  1  0
 18 37  1  0
 20 38  1  0
 21 39  1  0
 22 40  1  0
 23 41  1  0
 24 42  1  0
 25 43  1  0
 26 44  1  0
 26 45  1  0
 26 46  1  0
 27 47  1  0
 28 48  1  0
M  END
> <Uni-Dock RESULT> 
ENERGY=   -5.727  LOWER_BOUND=    0.000  UPPER_BOUND=    0.000
INTER + INTRA:          -5.727
INTER:                  -5.727
INTRA:                   0.000
UNBOUND:                 0.000

$$$$

     RDKit          3D

 48 50  0  0  0  0  0  0  0  0999 V2000
   48.1316    7.4310   13.0185 C   0  0  0  0  0  0  0  0  0  0  0  0
   48.9411    8.6543   12.7039 C   0  0  0  0  0  0  0  0  0  0  0  0
   47.2070    7.0279   12.0374 C   0  0  0  0  0  0  0  0  0  0  0  0
   45.4598    5.5049   11.1479 C   0  0  0  0  0  0  0  0  0  0  0  0
   46.4145    5.8907   12.2220 C   0  0  0  0  0  0  0  0  0  0  0  0
   50.0445    8.9000   13.4860 N   0  0  0  0  0  0  0  0  0  0  0  0
   45.2071    4.1557   11.0158 N   0  0  0  0  0  0  0  0  0  0  0  0
   48.2297    6.6963   14.2189 C   0  0  0  0  0  0  0  0  0  0  0  0
   48.6160    9.3854   11.7731 O   0  0  0  0  0  0  0  0  0  0  0  0
   44.9726    6.3628   10.4224 O   0  0  0  0  0  0  0  0  0  0  0  0
   50.7367   12.0927   16.6349 N   0  0  0  0  0  0  0  0  0  0  0  0
   46.3226    1.2771    7.6534 N   0  0  0  0  0  0  0  0  0  0  0  0
   46.5239    5.1594   13.4070 C   0  0  0  0  0  0  0  0  0  0  0  0
   47.4294    5.5579   14.3954 C   0  0  0  0  0  0  0  0  0  0  0  0
   50.3674   11.1003   14.4529 C   0  0  0  0  0  0  0  0  0  0  0  0
   45.2966    3.1481    8.8052 C   0  0  0  0  0  0  0  0  0  0  0  0
   44.4177    3.6456    9.9148 C   0  0  0  0  0  0  0  0  0  0  0  0
   50.8000   10.1268   13.3961 C   0  0  0  0  0  0  0  0  0  0  0  0
   49.1335    7.1125   15.1648 O   0  0  0  0  0  0  0  0  0  0  0  0
   45.5246    1.7888    8.6177 C   0  0  0  0  0  0  0  0  0  0  0  0
   51.0862   11.2526   15.6337 C   0  0  0  0  0  0  0  0  0  0  0  0
   49.6125   12.8182   16.4506 C   0  0  0  0  0  0  0  0  0  0  0  0
   46.9228    2.1638    6.8300 C   0  0  0  0  0  0  0  0  0  0  0  0
   49.2051   11.8631   14.3063 C   0  0  0  0  0  0  0  0  0  0  0  0
   45.9408    4.0323    7.9345 C   0  0  0  0  0  0  0  0  0  0  0  0
   48.8492    6.7670   16.5191 C   0  0  0  0  0  0  0  0  0  0  0  0
   48.8209   12.7385   15.3171 C   0  0  0  0  0  0  0  0  0  0  0  0
   46.7651    3.5358    6.9296 C   0  0  0  0  0  0  0  0  0  0  0  0
   47.1094    7.6010   11.1148 H   0  0  0  0  0  0  0  0  0  0  0  0
   50.1738    8.3197   14.3077 H   0  0  0  0  0  0  0  0  0  0  0  0
   45.8187    3.4996   11.4806 H   0  0  0  0  0  0  0  0  0  0  0  0
   45.8953    4.2917   13.5898 H   0  0  0  0  0  0  0  0  0  0  0  0
   47.4930    4.9540   15.2960 H   0  0  0  0  0  0  0  0  0  0  0  0
   43.8039    2.8304   10.3140 H   0  0  0  0  0  0  0  0  0  0  0  0
   43.7317    4.4128    9.5384 H   0  0  0  0  0  0  0  0  0  0  0  0
   51.8564    9.8653   13.5227 H   0  0  0  0  0  0  0  0  0  0  0  0
   50.6950   10.5761   12.4021 H   0  0  0  0  0  0  0  0  0  0  0  0
   45.0606    1.0432    9.2578 H   0  0  0  0  0  0  0  0  0  0  0  0
   51.9935   10.6839   15.8202 H   0  0  0  0  0  0  0  0  0  0  0  0
   49.3542   13.4873   17.2662 H   0  0  0  0  0  0  0  0  0  0  0  0
   47.5559    1.7284    6.0624 H   0  0  0  0  0  0  0  0  0  0  0  0
   48.5984   11.7705   13.4070 H   0  0  0  0  0  0  0  0  0  0  0  0
   45.8020    5.1071    8.0399 H   0  0  0  0  0  0  0  0  0  0  0  0
   47.8097    6.9904   16.7827 H   0  0  0  0  0  0  0  0  0  0  0  0
   49.4948    7.3759   17.1596 H   0  0  0  0  0  0  0  0  0  0  0  0
   49.0896    5.7160   16.7081 H   0  0  0  0  0  0  0  0  0  0  0  0
   47.9246   13.3406   15.2224 H   0  0  0  0  0  0  0  0  0  0  0  0
   47.2724    4.2043    6.2432 H   0  0  0  0  0  0  0  0  0  0  0  0
  2  1  1  0
  3  1  2  0
  4  5  1  0
  5  3  1  0
  6  2  1  0
  7  4  1  0
  8  1  1  0
  9  2  2  0
 10  4  2  0
 11 21  2  0
 12 20  2  0
 13 14  1  0
 14  8  2  0
 15 18  1  0
 16 17  1  0
 17  7  1  0
 18  6  1  0
 19  8  1  0
 20 16  1  0
 21 15  1  0
 22 27  2  0
 23 28  2  0
 24 15  2  0
 25 16  2  0
 26 19  1  0
 27 24  1  0
 28 25  1  0
  5 13  2  0
 11 22  1  0
 12 23  1  0
  3 29  1  0
  6 30  1  0
  7 31  1  0
 13 32  1  0
 14 33  1  0
 17 34  1  0
 17 35  1  0
 18 36  1  0
 18 37  1  0
 20 38  1  0
 21 39  1  0
 22 40  1  0
 23 41  1  0
 24 42  1  0
 25 43  1  0
 26 44  1  0
 26 45  1  0
 26 46  1  0
 27 47  1  0
 28 48  1  0
M  END
> <Uni-Dock RESULT> 
ENERGY=   -5.703  LOWER_BOUND=    3.964  UPPER_BOUND=    9.839
INTER + INTRA:          -5.703
INTER:                  -5.703
INTRA:                   0.000
UNBOUND:                 0.000

$$$$

     RDKit          3D

 48 50  0  0  0  0  0  0  0  0999 V2000
   48.1374    7.2880   13.1845 C   0  0  0  0  0  0  0  0  0  0  0  0
   48.9768    8.5016   12.9141 C   0  0  0  0  0  0  0  0  0  0  0  0
   47.2195    6.9303   12.1797 C   0  0  0  0  0  0  0  0  0  0  0  0
   45.4547    5.4683   11.2251 C   0  0  0  0  0  0  0  0  0  0  0  0
   46.4008    5.8057   12.3228 C   0  0  0  0  0  0  0  0  0  0  0  0
   50.0731    8.7035   13.7183 N   0  0  0  0  0  0  0  0  0  0  0  0
   45.1760    4.1286   11.0538 N   0  0  0  0  0  0  0  0  0  0  0  0
   48.2019    6.5204   14.3665 C   0  0  0  0  0  0  0  0  0  0  0  0
   48.6811    9.2634   11.9981 O   0  0  0  0  0  0  0  0  0  0  0  0
   44.9965    6.3549   10.5154 O   0  0  0  0  0  0  0  0  0  0  0  0
   50.7838   11.7979   16.9599 N   0  0  0  0  0  0  0  0  0  0  0  0
   46.2821    1.3154    7.6335 N   0  0  0  0  0  0  0  0  0  0  0  0
   46.4770    5.0416   13.4896 C   0  0  0  0  0  0  0  0  0  0  0  0
   47.3755    5.3951   14.5012 C   0  0  0  0  0  0  0  0  0  0  0  0
   50.4270   10.8706   14.7474 C   0  0  0  0  0  0  0  0  0  0  0  0
   45.2780    3.1772    8.8190 C   0  0  0  0  0  0  0  0  0  0  0  0
   44.3929    3.6641    9.9284 C   0  0  0  0  0  0  0  0  0  0  0  0
   50.8552    9.9159   13.6718 C   0  0  0  0  0  0  0  0  0  0  0  0
   49.0998    6.8927   15.3360 O   0  0  0  0  0  0  0  0  0  0  0  0
   45.4804    1.8187    8.5991 C   0  0  0  0  0  0  0  0  0  0  0  0
   51.1308   10.9768   15.9422 C   0  0  0  0  0  0  0  0  0  0  0  0
   49.6779   12.5515   16.7784 C   0  0  0  0  0  0  0  0  0  0  0  0
   46.9130    2.2103    6.8426 C   0  0  0  0  0  0  0  0  0  0  0  0
   49.2832   11.6614   14.6040 C   0  0  0  0  0  0  0  0  0  0  0  0
   45.9535    4.0699    7.9814 C   0  0  0  0  0  0  0  0  0  0  0  0
   48.7878    6.5182   16.6765 C   0  0  0  0  0  0  0  0  0  0  0  0
   48.9021   12.5182   15.6318 C   0  0  0  0  0  0  0  0  0  0  0  0
   46.7824    3.5823    6.9759 C   0  0  0  0  0  0  0  0  0  0  0  0
   47.1478    7.5291   11.2712 H   0  0  0  0  0  0  0  0  0  0  0  0
   50.1778    8.0994   14.5263 H   0  0  0  0  0  0  0  0  0  0  0  0
   45.7666    3.4478   11.5101 H   0  0  0  0  0  0  0  0  0  0  0  0
   45.8278    4.1830   13.6402 H   0  0  0  0  0  0  0  0  0  0  0  0
   47.4129    4.7667   15.3864 H   0  0  0  0  0  0  0  0  0  0  0  0
   43.7563    2.8520   10.2970 H   0  0  0  0  0  0  0  0  0  0  0  0
   43.7288    4.4552    9.5623 H   0  0  0  0  0  0  0  0  0  0  0  0
   51.9039    9.6289   13.8069 H   0  0  0  0  0  0  0  0  0  0  0  0
   50.7746   10.3930   12.6886 H   0  0  0  0  0  0  0  0  0  0  0  0
   44.9913    1.0666    9.2126 H   0  0  0  0  0  0  0  0  0  0  0  0
   52.0232   10.3843   16.1269 H   0  0  0  0  0  0  0  0  0  0  0  0
   49.4212   13.2045   17.6075 H   0  0  0  0  0  0  0  0  0  0  0  0
   47.5485    1.7817    6.0731 H   0  0  0  0  0  0  0  0  0  0  0  0
   48.6884   11.6051   13.6938 H   0  0  0  0  0  0  0  0  0  0  0  0
   45.8355    5.1443    8.1130 H   0  0  0  0  0  0  0  0  0  0  0  0
   47.7494    6.7566   16.9307 H   0  0  0  0  0  0  0  0  0  0  0  0
   49.4362    7.0964   17.3422 H   0  0  0  0  0  0  0  0  0  0  0  0
   49.0034    5.4577   16.8413 H   0  0  0  0  0  0  0  0  0  0  0  0
   48.0200   13.1414   15.5399 H   0  0  0  0  0  0  0  0  0  0  0  0
   47.3138    4.2575    6.3148 H   0  0  0  0  0  0  0  0  0  0  0  0
  2  1  1  0
  3  1  2  0
  4  5  1  0
  5  3  1  0
  6  2  1  0
  7  4  1  0
  8  1  1  0
  9  2  2  0
 10  4  2  0
 11 21  2  0
 12 20  2  0
 13 14  1  0
 14  8  2  0
 15 18  1  0
 16 17  1  0
 17  7  1  0
 18  6  1  0
 19  8  1  0
 20 16  1  0
 21 15  1  0
 22 27  2  0
 23 28  2  0
 24 15  2  0
 25 16  2  0
 26 19  1  0
 27 24  1  0
 28 25  1  0
  5 13  2  0
 11 22  1  0
 12 23  1  0
  3 29  1  0
  6 30  1  0
  7 31  1  0
 13 32  1  0
 14 33  1  0
 17 34  1  0
 17 35  1  0
 18 36  1  0
 18 37  1  0
 20 38  1  0
 21 39  1  0
 22 40  1  0
 23 41  1  0
 24 42  1  0
 25 43  1  0
 26 44  1  0
 26 45  1  0
 26 46  1  0
 27 47  1  0
 28 48  1  0
M  END
> <Uni-Dock RESULT> 
ENERGY=   -5.679  LOWER_BOUND=    4.106  UPPER_BOUND=    9.843
INTER + INTRA:          -5.679
INTER:                  -5.679
INTRA:                   0.000
UNBOUND:                 0.000

$$$$

     RDKit          3D

 48 50  0  0  0  0  0  0  0  0999 V2000
   45.1546    8.3233   11.9469 C   0  0  0  0  0  0  0  0  0  0  0  0
   44.0399    7.4271   11.4945 C   0  0  0  0  0  0  0  0  0  0  0  0
   45.0538    9.6769   11.5759 C   0  0  0  0  0  0  0  0  0  0  0  0
   45.8684   12.0219   11.5489 C   0  0  0  0  0  0  0  0  0  0  0  0
   46.0298   10.6013   11.9610 C   0  0  0  0  0  0  0  0  0  0  0  0
   43.9485    6.1872   12.0809 N   0  0  0  0  0  0  0  0  0  0  0  0
   46.3863   12.9666   12.4098 N   0  0  0  0  0  0  0  0  0  0  0  0
   46.2766    7.8908   12.6850 C   0  0  0  0  0  0  0  0  0  0  0  0
   43.2475    7.8129   10.6402 O   0  0  0  0  0  0  0  0  0  0  0  0
   45.2749   12.2972   10.5138 O   0  0  0  0  0  0  0  0  0  0  0  0
   44.8291    2.0780   10.3701 N   0  0  0  0  0  0  0  0  0  0  0  0
   44.2506   16.0521   15.0088 N   0  0  0  0  0  0  0  0  0  0  0  0
   47.1326   10.1708   12.7023 C   0  0  0  0  0  0  0  0  0  0  0  0
   47.2510    8.8254   13.0652 C   0  0  0  0  0  0  0  0  0  0  0  0
   43.7239    4.2129   10.6909 C   0  0  0  0  0  0  0  0  0  0  0  0
   45.0158   14.8759   13.0312 C   0  0  0  0  0  0  0  0  0  0  0  0
   46.1591   14.3801   12.1956 C   0  0  0  0  0  0  0  0  0  0  0  0
   43.0327    5.1744   11.6126 C   0  0  0  0  0  0  0  0  0  0  0  0
   46.3572    6.5643   13.0294 O   0  0  0  0  0  0  0  0  0  0  0  0
   45.2344   15.5976   14.2000 C   0  0  0  0  0  0  0  0  0  0  0  0
   44.1777    2.9781   11.1420 C   0  0  0  0  0  0  0  0  0  0  0  0
   45.0401    2.4262    9.0824 C   0  0  0  0  0  0  0  0  0  0  0  0
   42.9825   15.7775   14.6335 C   0  0  0  0  0  0  0  0  0  0  0  0
   43.9708    4.5379    9.3539 C   0  0  0  0  0  0  0  0  0  0  0  0
   43.6887   14.6090   12.6812 C   0  0  0  0  0  0  0  0  0  0  0  0
   47.6648    6.0351   13.2406 C   0  0  0  0  0  0  0  0  0  0  0  0
   44.6357    3.6318    8.5338 C   0  0  0  0  0  0  0  0  0  0  0  0
   42.6543   15.0670   13.4913 C   0  0  0  0  0  0  0  0  0  0  0  0
   44.2006   10.0169   10.9881 H   0  0  0  0  0  0  0  0  0  0  0  0
   44.7104    5.8985   12.6850 H   0  0  0  0  0  0  0  0  0  0  0  0
   46.6421   12.6826   13.3450 H   0  0  0  0  0  0  0  0  0  0  0  0
   47.9221   10.8623   12.9848 H   0  0  0  0  0  0  0  0  0  0  0  0
   48.1169    8.5347   13.6530 H   0  0  0  0  0  0  0  0  0  0  0  0
   47.0864   14.8965   12.4676 H   0  0  0  0  0  0  0  0  0  0  0  0
   45.9712   14.5888   11.1363 H   0  0  0  0  0  0  0  0  0  0  0  0
   42.6492    4.6525   12.4963 H   0  0  0  0  0  0  0  0  0  0  0  0
   42.1735    5.6305   11.1082 H   0  0  0  0  0  0  0  0  0  0  0  0
   46.2389   15.8397   14.5367 H   0  0  0  0  0  0  0  0  0  0  0  0
   44.0303    2.6638   12.1720 H   0  0  0  0  0  0  0  0  0  0  0  0
   45.5618    1.6866    8.4821 H   0  0  0  0  0  0  0  0  0  0  0  0
   42.2105   16.1556   15.2974 H   0  0  0  0  0  0  0  0  0  0  0  0
   43.6490    5.4984    8.9548 H   0  0  0  0  0  0  0  0  0  0  0  0
   43.4608   14.0432   11.7793 H   0  0  0  0  0  0  0  0  0  0  0  0
   48.3494    6.3174   12.4335 H   0  0  0  0  0  0  0  0  0  0  0  0
   47.5845    4.9436   13.2445 H   0  0  0  0  0  0  0  0  0  0  0  0
   48.0530    6.3433   14.2165 H   0  0  0  0  0  0  0  0  0  0  0  0
   44.8352    3.8633    7.4938 H   0  0  0  0  0  0  0  0  0  0  0  0
   41.6186   14.8721   13.2369 H   0  0  0  0  0  0  0  0  0  0  0  0
  2  1  1  0
  3  1  2  0
  4  5  1  0
  5  3  1  0
  6  2  1  0
  7  4  1  0
  8  1  1  0
  9  2  2  0
 10  4  2  0
 11 21  2  0
 12 20  2  0
 13 14  1  0
 14  8  2  0
 15 18  1  0
 16 17  1  0
 17  7  1  0
 18  6  1  0
 19  8  1  0
 20 16  1  0
 21 15  1  0
 22 27  2  0
 23 28  2  0
 24 15  2  0
 25 16  2  0
 26 19  1  0
 27 24  1  0
 28 25  1  0
  5 13  2  0
 11 22  1  0
 12 23  1  0
  3 29  1  0
  6 30  1  0
  7 31  1  0
 13 32  1  0
 14 33  1  0
 17 34  1  0
 17 35  1  0
 18 36  1  0
 18 37  1  0
 20 38  1  0
 21 39  1  0
 22 40  1  0
 23 41  1  0
 24 42  1  0
 25 43  1  0
 26 44  1  0
 26 45  1  0
 26 46  1  0
 27 47  1  0
 28 48  1  0
M  END
> <Uni-Dock RESULT> 
ENERGY=   -5.645  LOWER_BOUND=    0.180  UPPER_BOUND=    0.180
INTER + INTRA:          -5.645
INTER:                  -5.645
INTRA:                   0.000
UNBOUND:                 0.000

$$$$

     RDKit          3D

 48 50  0  0  0  0  0  0  0  0999 V2000
   46.7524    7.8296   13.2700 C   0  0  0  0  0  0  0  0  0  0  0  0
   47.9031    8.2001   14.1584 C   0  0  0  0  0  0  0  0  0  0  0  0
   46.0222    8.8991   12.7195 C   0  0  0  0  0  0  0  0  0  0  0  0
   44.2103    9.8332   11.3027 C   0  0  0  0  0  0  0  0  0  0  0  0
   44.9414    8.6650   11.8638 C   0  0  0  0  0  0  0  0  0  0  0  0
   48.8078    7.2119   14.4656 N   0  0  0  0  0  0  0  0  0  0  0  0
   43.6559    9.6591   10.0520 N   0  0  0  0  0  0  0  0  0  0  0  0
   46.3612    6.5050   12.9819 C   0  0  0  0  0  0  0  0  0  0  0  0
   48.0156    9.3499   14.5732 O   0  0  0  0  0  0  0  0  0  0  0  0
   44.1543   10.8823   11.9319 O   0  0  0  0  0  0  0  0  0  0  0  0
   49.5178    5.0179   18.3733 N   0  0  0  0  0  0  0  0  0  0  0  0
   44.7687   11.5675    6.0576 N   0  0  0  0  0  0  0  0  0  0  0  0
   44.5654    7.3519   11.5715 C   0  0  0  0  0  0  0  0  0  0  0  0
   45.2747    6.2805   12.1236 C   0  0  0  0  0  0  0  0  0  0  0  0
   49.4458    6.8412   16.7756 C   0  0  0  0  0  0  0  0  0  0  0  0
   44.0156   11.3604    8.3532 C   0  0  0  0  0  0  0  0  0  0  0  0
   43.0534   10.7654    9.3389 C   0  0  0  0  0  0  0  0  0  0  0  0
   49.8544    7.3963   15.4427 C   0  0  0  0  0  0  0  0  0  0  0  0
   47.0838    5.4778   13.5362 O   0  0  0  0  0  0  0  0  0  0  0  0
   43.9212   11.0832    6.9934 C   0  0  0  0  0  0  0  0  0  0  0  0
   49.8698    5.5855   17.1967 C   0  0  0  0  0  0  0  0  0  0  0  0
   48.7005    5.7383   19.1714 C   0  0  0  0  0  0  0  0  0  0  0  0
   45.7602   12.3727    6.4968 C   0  0  0  0  0  0  0  0  0  0  0  0
   48.5934    7.5496   17.6275 C   0  0  0  0  0  0  0  0  0  0  0  0
   45.0590   12.1941    8.7666 C   0  0  0  0  0  0  0  0  0  0  0  0
   46.3989    4.2409   13.7249 C   0  0  0  0  0  0  0  0  0  0  0  0
   48.2158    6.9941   18.8458 C   0  0  0  0  0  0  0  0  0  0  0  0
   45.9449   12.7113    7.8267 C   0  0  0  0  0  0  0  0  0  0  0  0
   46.3043    9.9263   12.9525 H   0  0  0  0  0  0  0  0  0  0  0  0
   48.5780    6.2644   14.1862 H   0  0  0  0  0  0  0  0  0  0  0  0
   43.9439    8.8636    9.4999 H   0  0  0  0  0  0  0  0  0  0  0  0
   43.7082    7.1428   10.9369 H   0  0  0  0  0  0  0  0  0  0  0  0
   44.9582    5.2754   11.8604 H   0  0  0  0  0  0  0  0  0  0  0  0
   42.1710   10.3696    8.8239 H   0  0  0  0  0  0  0  0  0  0  0  0
   42.7032   11.5347   10.0364 H   0  0  0  0  0  0  0  0  0  0  0  0
   50.7429    6.8779   15.0657 H   0  0  0  0  0  0  0  0  0  0  0  0
   50.1147    8.4565   15.5381 H   0  0  0  0  0  0  0  0  0  0  0  0
   43.1382   10.4408    6.5994 H   0  0  0  0  0  0  0  0  0  0  0  0
   50.5247    4.9743   16.5809 H   0  0  0  0  0  0  0  0  0  0  0  0
   48.4345    5.2635   20.1113 H   0  0  0  0  0  0  0  0  0  0  0  0
   46.4255   12.7512    5.7263 H   0  0  0  0  0  0  0  0  0  0  0  0
   48.2211    8.5311   17.3384 H   0  0  0  0  0  0  0  0  0  0  0  0
   45.1828   12.4393    9.8203 H   0  0  0  0  0  0  0  0  0  0  0  0
   45.4214    4.3891   14.1964 H   0  0  0  0  0  0  0  0  0  0  0  0
   47.0046    3.6253   14.3971 H   0  0  0  0  0  0  0  0  0  0  0  0
   46.3046    3.7031   12.7762 H   0  0  0  0  0  0  0  0  0  0  0  0
   47.5575    7.5275   19.5218 H   0  0  0  0  0  0  0  0  0  0  0  0
   46.7596   13.3609    8.1263 H   0  0  0  0  0  0  0  0  0  0  0  0
  2  1  1  0
  3  1  2  0
  4  5  1  0
  5  3  1  0
  6  2  1  0
  7  4  1  0
  8  1  1  0
  9  2  2  0
 10  4  2  0
 11 21  2  0
 12 20  2  0
 13 14  1  0
 14  8  2  0
 15 18  1  0
 16 17  1  0
 17  7  1  0
 18  6  1  0
 19  8  1  0
 20 16  1  0
 21 15  1  0
 22 27  2  0
 23 28  2  0
 24 15  2  0
 25 16  2  0
 26 19  1  0
 27 24  1  0
 28 25  1  0
  5 13  2  0
 11 22  1  0
 12 23  1  0
  3 29  1  0
  6 30  1  0
  7 31  1  0
 13 32  1  0
 14 33  1  0
 17 34  1  0
 17 35  1  0
 18 36  1  0
 18 37  1  0
 20 38  1  0
 21 39  1  0
 22 40  1  0
 23 41  1  0
 24 42  1  0
 25 43  1  0
 26 44  1  0
 26 45  1  0
 26 46  1  0
 27 47  1  0
 28 48  1  0
M  END
> <Uni-Dock RESULT> 
ENERGY=   -5.489  LOWER_BOUND=    4.141  UPPER_BOUND=    6.672
INTER + INTRA:          -5.489
INTER:                  -5.489
INTRA:                   0.000
UNBOUND:                 0.000

$$$$

     RDKit          3D

 48 50  0  0  0  0  0  0  0  0999 V2000
   46.2229    9.3485   12.1505 C   0  0  0  0  0  0  0  0  0  0  0  0
   46.9247   10.6638   11.9828 C   0  0  0  0  0  0  0  0  0  0  0  0
   47.0071    8.2813   12.6259 C   0  0  0  0  0  0  0  0  0  0  0  0
   47.3210    5.9269   13.3479 C   0  0  0  0  0  0  0  0  0  0  0  0
   46.4477    7.0170   12.8350 C   0  0  0  0  0  0  0  0  0  0  0  0
   46.1415   11.7807   11.8136 N   0  0  0  0  0  0  0  0  0  0  0  0
   46.7066    4.9764   14.1359 N   0  0  0  0  0  0  0  0  0  0  0  0
   44.8635    9.1250   11.8462 C   0  0  0  0  0  0  0  0  0  0  0  0
   48.1507   10.7155   12.0097 O   0  0  0  0  0  0  0  0  0  0  0  0
   48.5182    5.9268   13.0902 O   0  0  0  0  0  0  0  0  0  0  0  0
   45.4447   14.3240    8.1212 N   0  0  0  0  0  0  0  0  0  0  0  0
   47.1865    4.1017   18.5902 N   0  0  0  0  0  0  0  0  0  0  0  0
   45.0984    6.8036   12.5440 C   0  0  0  0  0  0  0  0  0  0  0  0
   44.3119    7.8528   12.0578 C   0  0  0  0  0  0  0  0  0  0  0  0
   46.6091   13.3130    9.9932 C   0  0  0  0  0  0  0  0  0  0  0  0
   47.7411    4.3396   16.2416 C   0  0  0  0  0  0  0  0  0  0  0  0
   47.4758    3.9557   14.8156 C   0  0  0  0  0  0  0  0  0  0  0  0
   46.6941   13.0697   11.4715 C   0  0  0  0  0  0  0  0  0  0  0  0
   44.1198   10.1791   11.3767 O   0  0  0  0  0  0  0  0  0  0  0  0
   47.0131    3.7823   17.2877 C   0  0  0  0  0  0  0  0  0  0  0  0
   45.5922   14.0873    9.4450 C   0  0  0  0  0  0  0  0  0  0  0  0
   46.3570   13.7595    7.3008 C   0  0  0  0  0  0  0  0  0  0  0  0
   48.1363    5.0212   18.8672 C   0  0  0  0  0  0  0  0  0  0  0  0
   47.5269   12.7396    9.1083 C   0  0  0  0  0  0  0  0  0  0  0  0
   48.7113    5.2910   16.5711 C   0  0  0  0  0  0  0  0  0  0  0  0
   42.9923    9.8569   10.5646 C   0  0  0  0  0  0  0  0  0  0  0  0
   47.4038   12.9670    7.7413 C   0  0  0  0  0  0  0  0  0  0  0  0
   48.9157    5.6376   17.9030 C   0  0  0  0  0  0  0  0  0  0  0  0
   48.0637    8.4391   12.8448 H   0  0  0  0  0  0  0  0  0  0  0  0
   45.1463   11.6380   11.6800 H   0  0  0  0  0  0  0  0  0  0  0  0
   45.7842    5.1699   14.4995 H   0  0  0  0  0  0  0  0  0  0  0  0
   44.6476    5.8220   12.6652 H   0  0  0  0  0  0  0  0  0  0  0  0
   43.2643    7.6482   11.8569 H   0  0  0  0  0  0  0  0  0  0  0  0
   46.8894    3.0312   14.7691 H   0  0  0  0  0  0  0  0  0  0  0  0
   48.4204    3.7665   14.2933 H   0  0  0  0  0  0  0  0  0  0  0  0
   46.1181   13.8235   12.0195 H   0  0  0  0  0  0  0  0  0  0  0  0
   47.7337   13.1489   11.8087 H   0  0  0  0  0  0  0  0  0  0  0  0
   46.2408    3.0393   17.1075 H   0  0  0  0  0  0  0  0  0  0  0  0
   44.8374   14.5548   10.0721 H   0  0  0  0  0  0  0  0  0  0  0  0
   46.2198   13.9662    6.2435 H   0  0  0  0  0  0  0  0  0  0  0  0
   48.2585    5.2585   19.9201 H   0  0  0  0  0  0  0  0  0  0  0  0
   48.3335   12.1128    9.4852 H   0  0  0  0  0  0  0  0  0  0  0  0
   49.3061    5.7631   15.7909 H   0  0  0  0  0  0  0  0  0  0  0  0
   43.2488    9.1263    9.7899 H   0  0  0  0  0  0  0  0  0  0  0  0
   42.6701   10.7755   10.0644 H   0  0  0  0  0  0  0  0  0  0  0  0
   42.1596    9.5051   11.1820 H   0  0  0  0  0  0  0  0  0  0  0  0
   48.1060   12.5337    7.0385 H   0  0  0  0  0  0  0  0  0  0  0  0
   49.6640    6.3717   18.1797 H   0  0  0  0  0  0  0  0  0  0  0  0
  2  1  1  0
  3  1  2  0
  4  5  1  0
  5  3  1  0
  6  2  1  0
  7  4  1  0
  8  1  1  0
  9  2  2  0
 10  4  2  0
 11 21  2  0
 12 20  2  0
 13 14  1  0
 14  8  2  0
 15 18  1  0
 16 17  1  0
 17  7  1  0
 18  6  1  0
 19  8  1  0
 20 16  1  0
 21 15  1  0
 22 27  2  0
 23 28  2  0
 24 15  2  0
 25 16  2  0
 26 19  1  0
 27 24  1  0
 28 25  1  0
  5 13  2  0
 11 22  1  0
 12 23  1  0
  3 29  1  0
  6 30  1  0
  7 31  1  0
 13 32  1  0
 14 33  1  0
 17 34  1  0
 17 35  1  0
 18 36  1  0
 18 37  1  0
 20 38  1  0
 21 39  1  0
 22 40  1  0
 23 41  1  0
 24 42  1  0
 25 43  1  0
 26 44  1  0
 26 45  1  0
 26 46  1  0
 27 47  1  0
 28 48  1  0
M  END
> <Uni-Dock RESULT> 
ENERGY=   -4.229  LOWER_BOUND=    3.338  UPPER_BOUND=    8.760
INTER + INTRA:          -4.229
INTER:                  -4.229
INTRA:                   0.000
UNBOUND:                 0.000

$$$$

     RDKit          3D

 48 50  0  0  0  0  0  0  0  0999 V2000
   48.2873   10.0297   17.1402 C   0  0  0  0  0  0  0  0  0  0  0  0
   48.8607    9.9948   15.7544 C   0  0  0  0  0  0  0  0  0  0  0  0
   48.1424    8.7873   17.7847 C   0  0  0  0  0  0  0  0  0  0  0  0
   47.5113    7.3693   19.7223 C   0  0  0  0  0  0  0  0  0  0  0  0
   47.6345    8.7083   19.0851 C   0  0  0  0  0  0  0  0  0  0  0  0
   49.2915   11.1852   15.2187 N   0  0  0  0  0  0  0  0  0  0  0  0
   47.6591    7.3330   21.0929 N   0  0  0  0  0  0  0  0  0  0  0  0
   47.8778   11.2049   17.8048 C   0  0  0  0  0  0  0  0  0  0  0  0
   48.9408    8.9308   15.1475 O   0  0  0  0  0  0  0  0  0  0  0  0
   47.3221    6.3758   19.0317 O   0  0  0  0  0  0  0  0  0  0  0  0
   47.4975   13.7126   11.9049 N   0  0  0  0  0  0  0  0  0  0  0  0
   50.9791    5.5079   23.6390 N   0  0  0  0  0  0  0  0  0  0  0  0
   47.2419    9.8757   19.7439 C   0  0  0  0  0  0  0  0  0  0  0  0
   47.3681   11.1151   19.1085 C   0  0  0  0  0  0  0  0  0  0  0  0
   48.5746   11.8324   12.9944 C   0  0  0  0  0  0  0  0  0  0  0  0
   49.1297    5.6671   22.0788 C   0  0  0  0  0  0  0  0  0  0  0  0
   47.7115    6.0753   21.8078 C   0  0  0  0  0  0  0  0  0  0  0  0
   49.6996   11.3115   13.8398 C   0  0  0  0  0  0  0  0  0  0  0  0
   48.0218   12.4048   17.1535 O   0  0  0  0  0  0  0  0  0  0  0  0
   49.7021    5.8330   23.3356 C   0  0  0  0  0  0  0  0  0  0  0  0
   48.4967   13.1755   12.6420 C   0  0  0  0  0  0  0  0  0  0  0  0
   46.5251   12.8683   11.4982 C   0  0  0  0  0  0  0  0  0  0  0  0
   51.7251    4.9871   22.6406 C   0  0  0  0  0  0  0  0  0  0  0  0
   47.5430   10.9946   12.5609 C   0  0  0  0  0  0  0  0  0  0  0  0
   49.9375    5.1294   21.0723 C   0  0  0  0  0  0  0  0  0  0  0  0
   47.1354   13.4538   17.5388 C   0  0  0  0  0  0  0  0  0  0  0  0
   46.5029   11.5165   11.7984 C   0  0  0  0  0  0  0  0  0  0  0  0
   51.2547    4.7813   21.3547 C   0  0  0  0  0  0  0  0  0  0  0  0
   48.4372    7.8714   17.2715 H   0  0  0  0  0  0  0  0  0  0  0  0
   49.0783   12.0333   15.7323 H   0  0  0  0  0  0  0  0  0  0  0  0
   48.0474    8.1398   21.5607 H   0  0  0  0  0  0  0  0  0  0  0  0
   46.8123    9.8384   20.7416 H   0  0  0  0  0  0  0  0  0  0  0  0
   47.0638   11.9996   19.6607 H   0  0  0  0  0  0  0  0  0  0  0  0
   47.1669    6.2203   22.7475 H   0  0  0  0  0  0  0  0  0  0  0  0
   47.1916    5.2879   21.2505 H   0  0  0  0  0  0  0  0  0  0  0  0
   50.5501   12.0018   13.8168 H   0  0  0  0  0  0  0  0  0  0  0  0
   50.0526   10.3504   13.4492 H   0  0  0  0  0  0  0  0  0  0  0  0
   49.1361    6.2477   24.1655 H   0  0  0  0  0  0  0  0  0  0  0  0
   49.2578   13.8864   12.9534 H   0  0  0  0  0  0  0  0  0  0  0  0
   45.7360   13.3217   10.9056 H   0  0  0  0  0  0  0  0  0  0  0  0
   52.7459    4.7315   22.9097 H   0  0  0  0  0  0  0  0  0  0  0  0
   47.5490    9.9376   12.8220 H   0  0  0  0  0  0  0  0  0  0  0  0
   49.5418    4.9834   20.0685 H   0  0  0  0  0  0  0  0  0  0  0  0
   46.0975   13.1072   17.5878 H   0  0  0  0  0  0  0  0  0  0  0  0
   47.1917   14.2338   16.7732 H   0  0  0  0  0  0  0  0  0  0  0  0
   47.4513   13.8969   18.4886 H   0  0  0  0  0  0  0  0  0  0  0  0
   45.6945   10.8837   11.4505 H   0  0  0  0  0  0  0  0  0  0  0  0
   51.8971    4.3615   20.5890 H   0  0  0  0  0  0  0  0  0  0  0  0
  2  1  1  0
  3  1  2  0
  4  5  1  0
  5  3  1  0
  6  2  1  0
  7  4  1  0
  8  1  1  0
  9  2  2  0
 10  4  2  0
 11 21  2  0
 12 20  2  0
 13 14  1  0
 14  8  2  0
 15 18  1  0
 16 17  1  0
 17  7  1  0
 18  6  1  0
 19  8  1  0
 20 16  1  0
 21 15  1  0
 22 27  2  0
 23 28  2  0
 24 15  2  0
 25 16  2  0
 26 19  1  0
 27 24  1  0
 28 25  1  0
  5 13  2  0
 11 22  1  0
 12 23  1  0
  3 29  1  0
  6 30  1  0
  7 31  1  0
 13 32  1  0
 14 33  1  0
 17 34  1  0
 17 35  1  0
 18 36  1  0
 18 37  1  0
 20 38  1  0
 21 39  1  0
 22 40  1  0
 23 41  1  0
 24 42  1  0
 25 43  1  0
 26 44  1  0
 26 45  1  0
 26 46  1  0
 27 47  1  0
 28 48  1  0
M  END
> <Uni-Dock RESULT> 
ENERGY=   -4.162  LOWER_BOUND=    6.581  UPPER_BOUND=   10.467
INTER + INTRA:          -4.162
INTER:                  -4.162
INTRA:                   0.000
UNBOUND:                 0.000

$$$$

     RDKit          3D

 48 50  0  0  0  0  0  0  0  0999 V2000
   47.9512    9.7681   18.2322 C   0  0  0  0  0  0  0  0  0  0  0  0
   48.3049    8.3585   17.8598 C   0  0  0  0  0  0  0  0  0  0  0  0
   48.2615   10.7587   17.2824 C   0  0  0  0  0  0  0  0  0  0  0  0
   48.2999   13.1073   16.4787 C   0  0  0  0  0  0  0  0  0  0  0  0
   47.9580   12.1026   17.5216 C   0  0  0  0  0  0  0  0  0  0  0  0
   47.7550    7.3490   18.6134 N   0  0  0  0  0  0  0  0  0  0  0  0
   47.4712   14.2068   16.3998 N   0  0  0  0  0  0  0  0  0  0  0  0
   47.3606   10.1455   19.4566 C   0  0  0  0  0  0  0  0  0  0  0  0
   49.0500    8.1412   16.9089 O   0  0  0  0  0  0  0  0  0  0  0  0
   49.2509   12.9169   15.7311 O   0  0  0  0  0  0  0  0  0  0  0  0
   49.6954    4.5726   21.6324 N   0  0  0  0  0  0  0  0  0  0  0  0
   44.5419   15.4443   13.1250 N   0  0  0  0  0  0  0  0  0  0  0  0
   47.3619   12.4700   18.7302 C   0  0  0  0  0  0  0  0  0  0  0  0
   47.0613   11.4962   19.6878 C   0  0  0  0  0  0  0  0  0  0  0  0
   49.1778    5.5940   19.4944 C   0  0  0  0  0  0  0  0  0  0  0  0
   46.6329   14.9006   14.2259 C   0  0  0  0  0  0  0  0  0  0  0  0
   47.6095   15.1741   15.3317 C   0  0  0  0  0  0  0  0  0  0  0  0
   48.1511    5.9686   18.4663 C   0  0  0  0  0  0  0  0  0  0  0  0
   47.0735    9.1626   20.3711 O   0  0  0  0  0  0  0  0  0  0  0  0
   45.4722   15.6538   14.0837 C   0  0  0  0  0  0  0  0  0  0  0  0
   48.8240    4.9168   20.6564 C   0  0  0  0  0  0  0  0  0  0  0  0
   50.9859    4.9218   21.4414 C   0  0  0  0  0  0  0  0  0  0  0  0
   44.7802   14.4347   12.2600 C   0  0  0  0  0  0  0  0  0  0  0  0
   50.5222    5.9448   19.3404 C   0  0  0  0  0  0  0  0  0  0  0  0
   46.8391   13.8620   13.3129 C   0  0  0  0  0  0  0  0  0  0  0  0
   47.0304    9.5550   21.7418 C   0  0  0  0  0  0  0  0  0  0  0  0
   51.4432    5.6022   20.3253 C   0  0  0  0  0  0  0  0  0  0  0  0
   45.9016   13.6243   12.3126 C   0  0  0  0  0  0  0  0  0  0  0  0
   48.7367   10.4794   16.3415 H   0  0  0  0  0  0  0  0  0  0  0  0
   47.2516    7.6135   19.4532 H   0  0  0  0  0  0  0  0  0  0  0  0
   46.5815   14.1793   16.8775 H   0  0  0  0  0  0  0  0  0  0  0  0
   47.1471   13.5115   18.9550 H   0  0  0  0  0  0  0  0  0  0  0  0
   46.5860   11.8223   20.6085 H   0  0  0  0  0  0  0  0  0  0  0  0
   47.4267   16.1613   15.7706 H   0  0  0  0  0  0  0  0  0  0  0  0
   48.6327   15.1786   14.9396 H   0  0  0  0  0  0  0  0  0  0  0  0
   47.2481    5.3594   18.5841 H   0  0  0  0  0  0  0  0  0  0  0  0
   48.5387    5.7807   17.4587 H   0  0  0  0  0  0  0  0  0  0  0  0
   45.2436   16.4747   14.7583 H   0  0  0  0  0  0  0  0  0  0  0  0
   47.7953    4.6222   20.8478 H   0  0  0  0  0  0  0  0  0  0  0  0
   51.6666    4.6322   22.2366 H   0  0  0  0  0  0  0  0  0  0  0  0
   44.0203   14.2884   11.4978 H   0  0  0  0  0  0  0  0  0  0  0  0
   50.8489    6.4887   18.4555 H   0  0  0  0  0  0  0  0  0  0  0  0
   47.7283   13.2374   13.3817 H   0  0  0  0  0  0  0  0  0  0  0  0
   47.8997   10.1629   22.0149 H   0  0  0  0  0  0  0  0  0  0  0  0
   47.0550    8.6446   22.3486 H   0  0  0  0  0  0  0  0  0  0  0  0
   46.0947   10.0777   21.9645 H   0  0  0  0  0  0  0  0  0  0  0  0
   52.4905    5.8627   20.2243 H   0  0  0  0  0  0  0  0  0  0  0  0
   46.0434   12.8251   11.5938 H   0  0  0  0  0  0  0  0  0  0  0  0
  2  1  1  0
  3  1  2  0
  4  5  1  0
  5  3  1  0
  6  2  1  0
  7  4  1  0
  8  1  1  0
  9  2  2  0
 10  4  2  0
 11 21  2  0
 12 20  2  0
 13 14  1  0
 14  8  2  0
 15 18  1  0
 16 17  1  0
 17  7  1  0
 18  6  1  0
 19  8  1  0
 20 16  1  0
 21 15  1  0
 22 27  2  0
 23 28  2  0
 24 15  2  0
 25 16  2  0
 26 19  1  0
 27 24  1  0
 28 25  1  0
  5 13  2  0
 11 22  1  0
 12 23  1  0
  3 29  1  0
  6 30  1  0
  7 31  1  0
 13 32  1  0
 14 33  1  0
 17 34  1  0
 17 35  1  0
 18 36  1  0
 18 37  1  0
 20 38  1  0
 21 39  1  0
 22 40  1  0
 23 41  1  0
 24 42  1  0
 25 43  1  0
 26 44  1  0
 26 45  1  0
 26 46  1  0
 27 47  1  0
 28 48  1  0
M  END
> <Uni-Dock RESULT> 
ENERGY=   -3.802  LOWER_BOUND=    6.183  UPPER_BOUND=    7.873
INTER + INTRA:          -3.802
INTER:                  -3.802
INTRA:                   0.000
UNBOUND:                 0.000

$$$$
