
     RDKit          3D

 48 50  0  0  0  0  0  0  0  0999 V2000
   47.0573    6.5808   13.3705 C   0  0  0  0  0  0  0  0  0  0  0  0
   47.5731    7.9874   13.3344 C   0  0  0  0  0  0  0  0  0  0  0  0
   46.3484    6.1485   12.2351 C   0  0  0  0  0  0  0  0  0  0  0  0
   45.0857    4.4443   10.9450 C   0  0  0  0  0  0  0  0  0  0  0  0
   45.8412    4.8480   12.1608 C   0  0  0  0  0  0  0  0  0  0  0  0
   47.9171    8.5626   14.5350 N   0  0  0  0  0  0  0  0  0  0  0  0
   45.1702    3.1144   10.5904 N   0  0  0  0  0  0  0  0  0  0  0  0
   47.2652    5.6866   14.4418 C   0  0  0  0  0  0  0  0  0  0  0  0
   47.6702    8.5788   12.2636 O   0  0  0  0  0  0  0  0  0  0  0  0
   44.4562    5.2779   10.3062 O   0  0  0  0  0  0  0  0  0  0  0  0
   52.0463    9.4799   16.1340 N   0  0  0  0  0  0  0  0  0  0  0  0
   46.9339    3.6447    6.5629 N   0  0  0  0  0  0  0  0  0  0  0  0
   46.0208    3.9752   13.2366 C   0  0  0  0  0  0  0  0  0  0  0  0
   46.7277    4.3933   14.3687 C   0  0  0  0  0  0  0  0  0  0  0  0
   50.0779    9.6476   14.7265 C   0  0  0  0  0  0  0  0  0  0  0  0
   45.6233    2.5343    8.2737 C   0  0  0  0  0  0  0  0  0  0  0  0
   44.5890    2.6344    9.3556 C   0  0  0  0  0  0  0  0  0  0  0  0
   48.5930    9.8354   14.6146 C   0  0  0  0  0  0  0  0  0  0  0  0
   47.9640    6.1373   15.5338 O   0  0  0  0  0  0  0  0  0  0  0  0
   46.0007    3.6574    7.5430 C   0  0  0  0  0  0  0  0  0  0  0  0
   50.7180    9.6698   15.9611 C   0  0  0  0  0  0  0  0  0  0  0  0
   52.7745    9.2562   15.0186 C   0  0  0  0  0  0  0  0  0  0  0  0
   47.5256    2.4610    6.3008 C   0  0  0  0  0  0  0  0  0  0  0  0
   50.8668    9.4021   13.5990 C   0  0  0  0  0  0  0  0  0  0  0  0
   46.2663    1.3285    7.9784 C   0  0  0  0  0  0  0  0  0  0  0  0
   48.5823    5.1536   16.3593 C   0  0  0  0  0  0  0  0  0  0  0  0
   52.2366    9.2068   13.7433 C   0  0  0  0  0  0  0  0  0  0  0  0
   47.2304    1.2881    6.9750 C   0  0  0  0  0  0  0  0  0  0  0  0
   46.1897    6.8325   11.4007 H   0  0  0  0  0  0  0  0  0  0  0  0
   47.9428    7.9581   15.3490 H   0  0  0  0  0  0  0  0  0  0  0  0
   45.8884    2.5427   11.0118 H   0  0  0  0  0  0  0  0  0  0  0  0
   45.5899    2.9774   13.2246 H   0  0  0  0  0  0  0  0  0  0  0  0
   46.8261    3.6906   15.1910 H   0  0  0  0  0  0  0  0  0  0  0  0
   43.7623    3.2789    9.0362 H   0  0  0  0  0  0  0  0  0  0  0  0
   44.1629    1.6468    9.5654 H   0  0  0  0  0  0  0  0  0  0  0  0
   48.2044   10.3540   15.4981 H   0  0  0  0  0  0  0  0  0  0  0  0
   48.3538   10.4557   13.7434 H   0  0  0  0  0  0  0  0  0  0  0  0
   45.5515    4.6305    7.7341 H   0  0  0  0  0  0  0  0  0  0  0  0
   50.1649    9.8434   16.8804 H   0  0  0  0  0  0  0  0  0  0  0  0
   53.8383    9.1105   15.1818 H   0  0  0  0  0  0  0  0  0  0  0  0
   48.2689    2.4812    5.5092 H   0  0  0  0  0  0  0  0  0  0  0  0
   50.4118    9.3578   12.6108 H   0  0  0  0  0  0  0  0  0  0  0  0
   46.0187    0.4194    8.5200 H   0  0  0  0  0  0  0  0  0  0  0  0
   49.2814    5.6701   17.0242 H   0  0  0  0  0  0  0  0  0  0  0  0
   47.8380    4.6512   16.9848 H   0  0  0  0  0  0  0  0  0  0  0  0
   49.1556    4.4320   15.7671 H   0  0  0  0  0  0  0  0  0  0  0  0
   52.8665    9.0180   12.8816 H   0  0  0  0  0  0  0  0  0  0  0  0
   47.7390    0.3644    6.7226 H   0  0  0  0  0  0  0  0  0  0  0  0
  2  1  1  0
  3  1  2  0
  4  5  1  0
  5  3  1  0
  6  2  1  0
  7  4  1  0
  8  1  1  0
  9  2  2  0
 10  4  2  0
 11 21  2  0
 12 20  2  0
 13 14  1  0
 14  8  2  0
 15 18  1  0
 16 17  1  0
 17  7  1  0
 18  6  1  0
 19  8  1  0
 20 16  1  0
 21 15  1  0
 22 27  2  0
 23 28  2  0
 24 15  2  0
 25 16  2  0
 26 19  1  0
 27 24  1  0
 28 25  1  0
  5 13  2  0
 11 22  1  0
 12 23  1  0
  3 29  1  0
  6 30  1  0
  7 31  1  0
 13 32  1  0
 14 33  1  0
 17 34  1  0
 17 35  1  0
 18 36  1  0
 18 37  1  0
 20 38  1  0
 21 39  1  0
 22 40  1  0
 23 41  1  0
 24 42  1  0
 25 43  1  0
 26 44  1  0
 26 45  1  0
 26 46  1  0
 27 47  1  0
 28 48  1  0
M  END
> <Uni-Dock RESULT> 
ENERGY=   -6.253  LOWER_BOUND=    0.000  UPPER_BOUND=    0.000
INTER + INTRA:          -6.253
INTER:                  -6.253
INTRA:                   0.000
UNBOUND:                 0.000

$$$$

     RDKit          3D

 48 50  0  0  0  0  0  0  0  0999 V2000
   45.2208    8.0100   11.7501 C   0  0  0  0  0  0  0  0  0  0  0  0
   44.8867    9.3906   11.2723 C   0  0  0  0  0  0  0  0  0  0  0  0
   44.7454    6.9465   10.9616 C   0  0  0  0  0  0  0  0  0  0  0  0
   44.4801    4.5314   10.4517 C   0  0  0  0  0  0  0  0  0  0  0  0
   45.0180    5.6204   11.3099 C   0  0  0  0  0  0  0  0  0  0  0  0
   44.9867   10.4139   12.1851 N   0  0  0  0  0  0  0  0  0  0  0  0
   45.2333    3.3781   10.3894 N   0  0  0  0  0  0  0  0  0  0  0  0
   45.9888    7.7326   12.9005 C   0  0  0  0  0  0  0  0  0  0  0  0
   44.5370    9.5705   10.1099 O   0  0  0  0  0  0  0  0  0  0  0  0
   43.4376    4.6950    9.8305 O   0  0  0  0  0  0  0  0  0  0  0  0
   48.1024   13.6831   12.4156 N   0  0  0  0  0  0  0  0  0  0  0  0
   46.0020    3.3593    6.0281 N   0  0  0  0  0  0  0  0  0  0  0  0
   45.7513    5.3482   12.4673 C   0  0  0  0  0  0  0  0  0  0  0  0
   46.2322    6.3981   13.2563 C   0  0  0  0  0  0  0  0  0  0  0  0
   46.2232   12.4064   11.5657 C   0  0  0  0  0  0  0  0  0  0  0  0
   45.6857    2.3761    8.2215 C   0  0  0  0  0  0  0  0  0  0  0  0
   44.8802    2.3057    9.4850 C   0  0  0  0  0  0  0  0  0  0  0  0
   44.8706   11.8012   11.8042 C   0  0  0  0  0  0  0  0  0  0  0  0
   46.4411    8.7921   13.6467 O   0  0  0  0  0  0  0  0  0  0  0  0
   45.3176    3.2341    7.1889 C   0  0  0  0  0  0  0  0  0  0  0  0
   46.8731   13.1359   12.5556 C   0  0  0  0  0  0  0  0  0  0  0  0
   48.7159   13.4937   11.2271 C   0  0  0  0  0  0  0  0  0  0  0  0
   47.1091    2.6011    5.8891 C   0  0  0  0  0  0  0  0  0  0  0  0
   46.8978   12.2249   10.3550 C   0  0  0  0  0  0  0  0  0  0  0  0
   46.8442    1.6140    8.0428 C   0  0  0  0  0  0  0  0  0  0  0  0
   47.5748    8.5618   14.4794 C   0  0  0  0  0  0  0  0  0  0  0  0
   48.1618   12.7787   10.1785 C   0  0  0  0  0  0  0  0  0  0  0  0
   47.5670    1.7243    6.8581 C   0  0  0  0  0  0  0  0  0  0  0  0
   44.1567    7.1540   10.0674 H   0  0  0  0  0  0  0  0  0  0  0  0
   45.4194   10.1997   13.0772 H   0  0  0  0  0  0  0  0  0  0  0  0
   46.1856    3.3996   10.7255 H   0  0  0  0  0  0  0  0  0  0  0  0
   45.9301    4.3250   12.7877 H   0  0  0  0  0  0  0  0  0  0  0  0
   46.7795    6.1421   14.1588 H   0  0  0  0  0  0  0  0  0  0  0  0
   43.8085    2.3235    9.2569 H   0  0  0  0  0  0  0  0  0  0  0  0
   45.0805    1.3651   10.0104 H   0  0  0  0  0  0  0  0  0  0  0  0
   44.3570   12.3198   12.6213 H   0  0  0  0  0  0  0  0  0  0  0  0
   44.2452   11.9059   10.9102 H   0  0  0  0  0  0  0  0  0  0  0  0
   44.4360    3.8676    7.2707 H   0  0  0  0  0  0  0  0  0  0  0  0
   46.4126   13.3061   13.5252 H   0  0  0  0  0  0  0  0  0  0  0  0
   49.6995   13.9452   11.1369 H   0  0  0  0  0  0  0  0  0  0  0  0
   47.6368    2.7219    4.9475 H   0  0  0  0  0  0  0  0  0  0  0  0
   46.4399   11.6474    9.5535 H   0  0  0  0  0  0  0  0  0  0  0  0
   47.1853    0.9315    8.8166 H   0  0  0  0  0  0  0  0  0  0  0  0
   47.9476    9.5363   14.8095 H   0  0  0  0  0  0  0  0  0  0  0  0
   47.2900    7.9951   15.3714 H   0  0  0  0  0  0  0  0  0  0  0  0
   48.3824    8.0626   13.9330 H   0  0  0  0  0  0  0  0  0  0  0  0
   48.7005   12.6521    9.2464 H   0  0  0  0  0  0  0  0  0  0  0  0
   48.4650    1.1398    6.6925 H   0  0  0  0  0  0  0  0  0  0  0  0
  2  1  1  0
  3  1  2  0
  4  5  1  0
  5  3  1  0
  6  2  1  0
  7  4  1  0
  8  1  1  0
  9  2  2  0
 10  4  2  0
 11 21  2  0
 12 20  2  0
 13 14  1  0
 14  8  2  0
 15 18  1  0
 16 17  1  0
 17  7  1  0
 18  6  1  0
 19  8  1  0
 20 16  1  0
 21 15  1  0
 22 27  2  0
 23 28  2  0
 24 15  2  0
 25 16  2  0
 26 19  1  0
 27 24  1  0
 28 25  1  0
  5 13  2  0
 11 22  1  0
 12 23  1  0
  3 29  1  0
  6 30  1  0
  7 31  1  0
 13 32  1  0
 14 33  1  0
 17 34  1  0
 17 35  1  0
 18 36  1  0
 18 37  1  0
 20 38  1  0
 21 39  1  0
 22 40  1  0
 23 41  1  0
 24 42  1  0
 25 43  1  0
 26 44  1  0
 26 45  1  0
 26 46  1  0
 27 47  1  0
 28 48  1  0
M  END
> <Uni-Dock RESULT> 
ENERGY=   -4.619  LOWER_BOUND=    2.970  UPPER_BOUND=    3.688
INTER + INTRA:          -4.619
INTER:                  -4.619
INTRA:                   0.000
UNBOUND:                 0.000

$$$$

     RDKit          3D

 48 50  0  0  0  0  0  0  0  0999 V2000
   45.3504    8.3693   12.2344 C   0  0  0  0  0  0  0  0  0  0  0  0
   44.8733    9.6854   11.6996 C   0  0  0  0  0  0  0  0  0  0  0  0
   46.5412    8.3963   12.9826 C   0  0  0  0  0  0  0  0  0  0  0  0
   48.3317    7.3043   14.3110 C   0  0  0  0  0  0  0  0  0  0  0  0
   47.0617    7.2253   13.5411 C   0  0  0  0  0  0  0  0  0  0  0  0
   43.9628    9.6536   10.6698 N   0  0  0  0  0  0  0  0  0  0  0  0
   48.4774    6.3961   15.3384 N   0  0  0  0  0  0  0  0  0  0  0  0
   44.6707    7.1462   12.0544 C   0  0  0  0  0  0  0  0  0  0  0  0
   45.2979   10.7329   12.1774 O   0  0  0  0  0  0  0  0  0  0  0  0
   49.1665    8.1568   14.0359 O   0  0  0  0  0  0  0  0  0  0  0  0
   39.5546   10.6555   10.7806 N   0  0  0  0  0  0  0  0  0  0  0  0
   48.9147    9.2778   18.6726 N   0  0  0  0  0  0  0  0  0  0  0  0
   46.4036    6.0107   13.3339 C   0  0  0  0  0  0  0  0  0  0  0  0
   45.2167    5.9730   12.5950 C   0  0  0  0  0  0  0  0  0  0  0  0
   41.9544   11.0010   10.8527 C   0  0  0  0  0  0  0  0  0  0  0  0
   49.2461    7.1775   17.5079 C   0  0  0  0  0  0  0  0  0  0  0  0
   49.6077    6.4647   16.2386 C   0  0  0  0  0  0  0  0  0  0  0  0
   43.2939   10.8411   10.1949 C   0  0  0  0  0  0  0  0  0  0  0  0
   43.5095    7.1536   11.3226 O   0  0  0  0  0  0  0  0  0  0  0  0
   49.2416    8.5683   17.5675 C   0  0  0  0  0  0  0  0  0  0  0  0
   40.7880   10.5668   10.2319 C   0  0  0  0  0  0  0  0  0  0  0  0
   39.4796   11.2057   12.0120 C   0  0  0  0  0  0  0  0  0  0  0  0
   48.5690    8.5722   19.7691 C   0  0  0  0  0  0  0  0  0  0  0  0
   41.8334   11.5543   12.1307 C   0  0  0  0  0  0  0  0  0  0  0  0
   48.8730    6.4828   18.6625 C   0  0  0  0  0  0  0  0  0  0  0  0
   42.5972    6.0809   11.5429 C   0  0  0  0  0  0  0  0  0  0  0  0
   40.5781   11.6631   12.7205 C   0  0  0  0  0  0  0  0  0  0  0  0
   48.5317    7.1887   19.8128 C   0  0  0  0  0  0  0  0  0  0  0  0
   47.0683    9.3394   13.1311 H   0  0  0  0  0  0  0  0  0  0  0  0
   43.5588    8.7534   10.4349 H   0  0  0  0  0  0  0  0  0  0  0  0
   47.6642    5.8914   15.6611 H   0  0  0  0  0  0  0  0  0  0  0  0
   46.8171    5.0794   13.7124 H   0  0  0  0  0  0  0  0  0  0  0  0
   44.7486    5.0053   12.4399 H   0  0  0  0  0  0  0  0  0  0  0  0
   50.4626    6.9521   15.7562 H   0  0  0  0  0  0  0  0  0  0  0  0
   49.9073    5.4331   16.4551 H   0  0  0  0  0  0  0  0  0  0  0  0
   43.1785   10.7363    9.1104 H   0  0  0  0  0  0  0  0  0  0  0  0
   43.9113   11.7294   10.3707 H   0  0  0  0  0  0  0  0  0  0  0  0
   49.5055    9.1697   16.6993 H   0  0  0  0  0  0  0  0  0  0  0  0
   40.8093   10.1162    9.2432 H   0  0  0  0  0  0  0  0  0  0  0  0
   38.4794   11.2697   12.4301 H   0  0  0  0  0  0  0  0  0  0  0  0
   48.3130    9.1680   20.6404 H   0  0  0  0  0  0  0  0  0  0  0  0
   42.7180   11.8942   12.6669 H   0  0  0  0  0  0  0  0  0  0  0  0
   48.8510    5.3964   18.6746 H   0  0  0  0  0  0  0  0  0  0  0  0
   41.6444    6.3550   11.0797 H   0  0  0  0  0  0  0  0  0  0  0  0
   42.9520    5.1663   11.0575 H   0  0  0  0  0  0  0  0  0  0  0  0
   42.4152    5.9185   12.6108 H   0  0  0  0  0  0  0  0  0  0  0  0
   40.4622   12.0917   13.7094 H   0  0  0  0  0  0  0  0  0  0  0  0
   48.2448    6.6735   20.7226 H   0  0  0  0  0  0  0  0  0  0  0  0
  2  1  1  0
  3  1  2  0
  4  5  1  0
  5  3  1  0
  6  2  1  0
  7  4  1  0
  8  1  1  0
  9  2  2  0
 10  4  2  0
 11 21  2  0
 12 20  2  0
 13 14  1  0
 14  8  2  0
 15 18  1  0
 16 17  1  0
 17  7  1  0
 18  6  1  0
 19  8  1  0
 20 16  1  0
 21 15  1  0
 22 27  2  0
 23 28  2  0
 24 15  2  0
 25 16  2  0
 26 19  1  0
 27 24  1  0
 28 25  1  0
  5 13  2  0
 11 22  1  0
 12 23  1  0
  3 29  1  0
  6 30  1  0
  7 31  1  0
 13 32  1  0
 14 33  1  0
 17 34  1  0
 17 35  1  0
 18 36  1  0
 18 37  1  0
 20 38  1  0
 21 39  1  0
 22 40  1  0
 23 41  1  0
 24 42  1  0
 25 43  1  0
 26 44  1  0
 26 45  1  0
 26 46  1  0
 27 47  1  0
 28 48  1  0
M  END
> <Uni-Dock RESULT> 
ENERGY=   -4.547  LOWER_BOUND=    4.539  UPPER_BOUND=    9.034
INTER + INTRA:          -4.547
INTER:                  -4.547
INTRA:                   0.000
UNBOUND:                 0.000

$$$$

     RDKit          3D

 48 50  0  0  0  0  0  0  0  0999 V2000
   48.3415    8.8901   12.8826 C   0  0  0  0  0  0  0  0  0  0  0  0
   48.5875   10.2078   12.2125 C   0  0  0  0  0  0  0  0  0  0  0  0
   47.1200    8.2590   12.5852 C   0  0  0  0  0  0  0  0  0  0  0  0
   45.4910    6.3992   12.8099 C   0  0  0  0  0  0  0  0  0  0  0  0
   46.8016    7.0179   13.1439 C   0  0  0  0  0  0  0  0  0  0  0  0
   49.5549   11.0195   12.7562 N   0  0  0  0  0  0  0  0  0  0  0  0
   45.4557    5.0209   12.7938 N   0  0  0  0  0  0  0  0  0  0  0  0
   49.2580    8.2566   13.7481 C   0  0  0  0  0  0  0  0  0  0  0  0
   47.9346   10.5252   11.2232 O   0  0  0  0  0  0  0  0  0  0  0  0
   44.5264    7.1055   12.5451 O   0  0  0  0  0  0  0  0  0  0  0  0
   53.6639   11.9768   11.1290 N   0  0  0  0  0  0  0  0  0  0  0  0
   44.2360    4.4687    8.5725 N   0  0  0  0  0  0  0  0  0  0  0  0
   47.6972    6.4084   14.0259 C   0  0  0  0  0  0  0  0  0  0  0  0
   48.9163    7.0250   14.3253 C   0  0  0  0  0  0  0  0  0  0  0  0
   51.2437   11.9571   11.2894 C   0  0  0  0  0  0  0  0  0  0  0  0
   44.4023    3.8863   10.9199 C   0  0  0  0  0  0  0  0  0  0  0  0
   44.2748    4.3110   12.3529 C   0  0  0  0  0  0  0  0  0  0  0  0
   50.0096   12.2226   12.1013 C   0  0  0  0  0  0  0  0  0  0  0  0
   50.4426    8.8962   14.0155 O   0  0  0  0  0  0  0  0  0  0  0  0
   44.1307    4.7777    9.8859 C   0  0  0  0  0  0  0  0  0  0  0  0
   52.5122   12.2186   11.7963 C   0  0  0  0  0  0  0  0  0  0  0  0
   53.5454   11.4469    9.8922 C   0  0  0  0  0  0  0  0  0  0  0  0
   44.6372    3.2163    8.2718 C   0  0  0  0  0  0  0  0  0  0  0  0
   51.1664   11.3988   10.0102 C   0  0  0  0  0  0  0  0  0  0  0  0
   44.8241    2.6008   10.5672 C   0  0  0  0  0  0  0  0  0  0  0  0
   51.5298    8.0887   14.4598 C   0  0  0  0  0  0  0  0  0  0  0  0
   52.3328   11.1420    9.2967 C   0  0  0  0  0  0  0  0  0  0  0  0
   44.9413    2.2573    9.2232 C   0  0  0  0  0  0  0  0  0  0  0  0
   46.4098    8.7400   11.9119 H   0  0  0  0  0  0  0  0  0  0  0  0
   50.1423   10.6207   13.4806 H   0  0  0  0  0  0  0  0  0  0  0  0
   46.3279    4.5116   12.7823 H   0  0  0  0  0  0  0  0  0  0  0  0
   47.4488    5.4697   14.5144 H   0  0  0  0  0  0  0  0  0  0  0  0
   49.5740    6.5274   15.0320 H   0  0  0  0  0  0  0  0  0  0  0  0
   43.3763    4.9227   12.4922 H   0  0  0  0  0  0  0  0  0  0  0  0
   44.1687    3.4334   13.0006 H   0  0  0  0  0  0  0  0  0  0  0  0
   50.2172   12.9596   12.8849 H   0  0  0  0  0  0  0  0  0  0  0  0
   49.2199   12.6392   11.4657 H   0  0  0  0  0  0  0  0  0  0  0  0
   43.8143    5.7989   10.0915 H   0  0  0  0  0  0  0  0  0  0  0  0
   52.6472   12.6414   12.7883 H   0  0  0  0  0  0  0  0  0  0  0  0
   54.4828   11.2652    9.3747 H   0  0  0  0  0  0  0  0  0  0  0  0
   44.7114    2.9970    7.2107 H   0  0  0  0  0  0  0  0  0  0  0  0
   50.1978   11.1595    9.5742 H   0  0  0  0  0  0  0  0  0  0  0  0
   45.0573    1.8634   11.3306 H   0  0  0  0  0  0  0  0  0  0  0  0
   52.4401    8.6927   14.3952 H   0  0  0  0  0  0  0  0  0  0  0  0
   51.3947    7.8016   15.5072 H   0  0  0  0  0  0  0  0  0  0  0  0
   51.6665    7.2089   13.8216 H   0  0  0  0  0  0  0  0  0  0  0  0
   52.2947   10.7122    8.3023 H   0  0  0  0  0  0  0  0  0  0  0  0
   45.2603    1.2654    8.9236 H   0  0  0  0  0  0  0  0  0  0  0  0
  2  1  1  0
  3  1  2  0
  4  5  1  0
  5  3  1  0
  6  2  1  0
  7  4  1  0
  8  1  1  0
  9  2  2  0
 10  4  2  0
 11 21  2  0
 12 20  2  0
 13 14  1  0
 14  8  2  0
 15 18  1  0
 16 17  1  0
 17  7  1  0
 18  6  1  0
 19  8  1  0
 20 16  1  0
 21 15  1  0
 22 27  2  0
 23 28  2  0
 24 15  2  0
 25 16  2  0
 26 19  1  0
 27 24  1  0
 28 25  1  0
  5 13  2  0
 11 22  1  0
 12 23  1  0
  3 29  1  0
  6 30  1  0
  7 31  1  0
 13 32  1  0
 14 33  1  0
 17 34  1  0
 17 35  1  0
 18 36  1  0
 18 37  1  0
 20 38  1  0
 21 39  1  0
 22 40  1  0
 23 41  1  0
 24 42  1  0
 25 43  1  0
 26 44  1  0
 26 45  1  0
 26 46  1  0
 27 47  1  0
 28 48  1  0
M  END
> <Uni-Dock RESULT> 
ENERGY=   -4.513  LOWER_BOUND=    2.750  UPPER_BOUND=    3.689
INTER + INTRA:          -4.513
INTER:                  -4.513
INTRA:                   0.000
UNBOUND:                 0.000

$$$$

     RDKit          3D

 48 50  0  0  0  0  0  0  0  0999 V2000
   49.3413    9.8940   11.4048 C   0  0  0  0  0  0  0  0  0  0  0  0
   48.9563   11.2425   10.8764 C   0  0  0  0  0  0  0  0  0  0  0  0
   48.3601    9.2135   12.1482 C   0  0  0  0  0  0  0  0  0  0  0  0
   47.5473    7.2699   13.4617 C   0  0  0  0  0  0  0  0  0  0  0  0
   48.6123    7.9413   12.6699 C   0  0  0  0  0  0  0  0  0  0  0  0
   49.9750   12.0833   10.4947 N   0  0  0  0  0  0  0  0  0  0  0  0
   47.5205    5.8927   13.3998 N   0  0  0  0  0  0  0  0  0  0  0  0
   50.5907    9.2796   11.1770 C   0  0  0  0  0  0  0  0  0  0  0  0
   47.7728   11.5583   10.8024 O   0  0  0  0  0  0  0  0  0  0  0  0
   46.7422    7.9360   14.1001 O   0  0  0  0  0  0  0  0  0  0  0  0
   51.2084   13.2913    6.3152 N   0  0  0  0  0  0  0  0  0  0  0  0
   43.4428    5.4135   11.7401 N   0  0  0  0  0  0  0  0  0  0  0  0
   49.8616    7.3492   12.4699 C   0  0  0  0  0  0  0  0  0  0  0  0
   50.8431    8.0153   11.7288 C   0  0  0  0  0  0  0  0  0  0  0  0
   49.8490   13.1479    8.3191 C   0  0  0  0  0  0  0  0  0  0  0  0
   45.4008    4.7669   13.0149 C   0  0  0  0  0  0  0  0  0  0  0  0
   46.4513    5.1399   14.0187 C   0  0  0  0  0  0  0  0  0  0  0  0
   49.7306   13.3271    9.8045 C   0  0  0  0  0  0  0  0  0  0  0  0
   51.5256    9.9678   10.4447 O   0  0  0  0  0  0  0  0  0  0  0  0
   44.4130    5.6758   12.6464 C   0  0  0  0  0  0  0  0  0  0  0  0
   51.0266   13.4554    7.6457 C   0  0  0  0  0  0  0  0  0  0  0  0
   50.1623   12.7951    5.6195 C   0  0  0  0  0  0  0  0  0  0  0  0
   43.4586    4.1923   11.1672 C   0  0  0  0  0  0  0  0  0  0  0  0
   48.7950   12.6268    7.5632 C   0  0  0  0  0  0  0  0  0  0  0  0
   45.3885    3.5153   12.3919 C   0  0  0  0  0  0  0  0  0  0  0  0
   52.5482    9.2011    9.8139 C   0  0  0  0  0  0  0  0  0  0  0  0
   48.9494   12.4499    6.1920 C   0  0  0  0  0  0  0  0  0  0  0  0
   44.4015    3.2201   11.4556 C   0  0  0  0  0  0  0  0  0  0  0  0
   47.3899    9.6799   12.3227 H   0  0  0  0  0  0  0  0  0  0  0  0
   50.9096   11.6913   10.4530 H   0  0  0  0  0  0  0  0  0  0  0  0
   48.0497    5.4274   12.6762 H   0  0  0  0  0  0  0  0  0  0  0  0
   50.0998    6.3847   12.9108 H   0  0  0  0  0  0  0  0  0  0  0  0
   51.8074    7.5287   11.6152 H   0  0  0  0  0  0  0  0  0  0  0  0
   46.0062    5.7021   14.8474 H   0  0  0  0  0  0  0  0  0  0  0  0
   46.9022    4.2384   14.4486 H   0  0  0  0  0  0  0  0  0  0  0  0
   50.4727   14.0486   10.1641 H   0  0  0  0  0  0  0  0  0  0  0  0
   48.7418   13.7242   10.0610 H   0  0  0  0  0  0  0  0  0  0  0  0
   44.3755    6.6733   13.0808 H   0  0  0  0  0  0  0  0  0  0  0  0
   51.8901   13.8531    8.1722 H   0  0  0  0  0  0  0  0  0  0  0  0
   50.3304   12.6759    4.5532 H   0  0  0  0  0  0  0  0  0  0  0  0
   42.6678    4.0102   10.4453 H   0  0  0  0  0  0  0  0  0  0  0  0
   47.8574   12.3540    8.0450 H   0  0  0  0  0  0  0  0  0  0  0  0
   46.1382    2.7667   12.6337 H   0  0  0  0  0  0  0  0  0  0  0  0
   53.0528    9.8507    9.0922 H   0  0  0  0  0  0  0  0  0  0  0  0
   53.2936    8.8752   10.5461 H   0  0  0  0  0  0  0  0  0  0  0  0
   52.1332    8.3495    9.2639 H   0  0  0  0  0  0  0  0  0  0  0  0
   48.1435   12.0500    5.5873 H   0  0  0  0  0  0  0  0  0  0  0  0
   44.3663    2.2549   10.9630 H   0  0  0  0  0  0  0  0  0  0  0  0
  2  1  1  0
  3  1  2  0
  4  5  1  0
  5  3  1  0
  6  2  1  0
  7  4  1  0
  8  1  1  0
  9  2  2  0
 10  4  2  0
 11 21  2  0
 12 20  2  0
 13 14  1  0
 14  8  2  0
 15 18  1  0
 16 17  1  0
 17  7  1  0
 18  6  1  0
 19  8  1  0
 20 16  1  0
 21 15  1  0
 22 27  2  0
 23 28  2  0
 24 15  2  0
 25 16  2  0
 26 19  1  0
 27 24  1  0
 28 25  1  0
  5 13  2  0
 11 22  1  0
 12 23  1  0
  3 29  1  0
  6 30  1  0
  7 31  1  0
 13 32  1  0
 14 33  1  0
 17 34  1  0
 17 35  1  0
 18 36  1  0
 18 37  1  0
 20 38  1  0
 21 39  1  0
 22 40  1  0
 23 41  1  0
 24 42  1  0
 25 43  1  0
 26 44  1  0
 26 45  1  0
 26 46  1  0
 27 47  1  0
 28 48  1  0
M  END
> <Uni-Dock RESULT> 
ENERGY=   -4.338  LOWER_BOUND=    4.551  UPPER_BOUND=    6.449
INTER + INTRA:          -4.338
INTER:                  -4.338
INTRA:                   0.000
UNBOUND:                 0.000

$$$$

     RDKit          3D

 48 50  0  0  0  0  0  0  0  0999 V2000
   46.3439    9.9543   12.1512 C   0  0  0  0  0  0  0  0  0  0  0  0
   47.0329   11.2838   12.0915 C   0  0  0  0  0  0  0  0  0  0  0  0
   47.1190    8.8714   12.6042 C   0  0  0  0  0  0  0  0  0  0  0  0
   47.4310    6.4777   13.1839 C   0  0  0  0  0  0  0  0  0  0  0  0
   46.5656    7.5924   12.7143 C   0  0  0  0  0  0  0  0  0  0  0  0
   46.4553   12.2577   11.3114 N   0  0  0  0  0  0  0  0  0  0  0  0
   46.7998    5.4718   13.8846 N   0  0  0  0  0  0  0  0  0  0  0  0
   44.9901    9.7463   11.8130 C   0  0  0  0  0  0  0  0  0  0  0  0
   48.0709   11.4665   12.7201 O   0  0  0  0  0  0  0  0  0  0  0  0
   48.6355    6.4988   12.9643 O   0  0  0  0  0  0  0  0  0  0  0  0
   44.2595   15.9839   12.6310 N   0  0  0  0  0  0  0  0  0  0  0  0
   49.0659    5.8220   17.6734 N   0  0  0  0  0  0  0  0  0  0  0  0
   45.2339    7.3832   12.3480 C   0  0  0  0  0  0  0  0  0  0  0  0
   44.4531    8.4537   11.9002 C   0  0  0  0  0  0  0  0  0  0  0  0
   46.1112   14.4599   12.2677 C   0  0  0  0  0  0  0  0  0  0  0  0
   47.7828    4.6805   15.9622 C   0  0  0  0  0  0  0  0  0  0  0  0
   47.5578    4.4069   14.5045 C   0  0  0  0  0  0  0  0  0  0  0  0
   46.9178   13.6248   11.3165 C   0  0  0  0  0  0  0  0  0  0  0  0
   44.2595   10.8237   11.3779 O   0  0  0  0  0  0  0  0  0  0  0  0
   48.8118    5.5204   16.3788 C   0  0  0  0  0  0  0  0  0  0  0  0
   45.0428   15.2321   11.8241 C   0  0  0  0  0  0  0  0  0  0  0  0
   44.5563   15.9655   13.9487 C   0  0  0  0  0  0  0  0  0  0  0  0
   48.2546    5.2683   18.5981 C   0  0  0  0  0  0  0  0  0  0  0  0
   46.3772   14.4606   13.6400 C   0  0  0  0  0  0  0  0  0  0  0  0
   46.9585    4.1338   16.9503 C   0  0  0  0  0  0  0  0  0  0  0  0
   42.8424   10.7407   11.5059 C   0  0  0  0  0  0  0  0  0  0  0  0
   45.5922   15.2267   14.4956 C   0  0  0  0  0  0  0  0  0  0  0  0
   47.1979    4.4284   18.2896 C   0  0  0  0  0  0  0  0  0  0  0  0
   48.1643    9.0265   12.8735 H   0  0  0  0  0  0  0  0  0  0  0  0
   45.5282   12.0700   10.9453 H   0  0  0  0  0  0  0  0  0  0  0  0
   45.8662    5.6337   14.2343 H   0  0  0  0  0  0  0  0  0  0  0  0
   44.7970    6.3883   12.3737 H   0  0  0  0  0  0  0  0  0  0  0  0
   43.4291    8.2435   11.6054 H   0  0  0  0  0  0  0  0  0  0  0  0
   48.5144    4.2579   13.9911 H   0  0  0  0  0  0  0  0  0  0  0  0
   46.9785    3.4855   14.3767 H   0  0  0  0  0  0  0  0  0  0  0  0
   46.8182   14.0045   10.2936 H   0  0  0  0  0  0  0  0  0  0  0  0
   47.9811   13.6726   11.5778 H   0  0  0  0  0  0  0  0  0  0  0  0
   49.4794    5.9921   15.6597 H   0  0  0  0  0  0  0  0  0  0  0  0
   44.7721   15.2693   10.7722 H   0  0  0  0  0  0  0  0  0  0  0  0
   43.9165   16.5794   14.5758 H   0  0  0  0  0  0  0  0  0  0  0  0
   48.4832    5.5273   19.6279 H   0  0  0  0  0  0  0  0  0  0  0  0
   47.1920   13.8597   14.0407 H   0  0  0  0  0  0  0  0  0  0  0  0
   46.1347    3.4763   16.6856 H   0  0  0  0  0  0  0  0  0  0  0  0
   42.4355   11.7441   11.3474 H   0  0  0  0  0  0  0  0  0  0  0  0
   42.4229   10.0862   10.7355 H   0  0  0  0  0  0  0  0  0  0  0  0
   42.5459   10.4143   12.5086 H   0  0  0  0  0  0  0  0  0  0  0  0
   45.7836   15.2436   15.5624 H   0  0  0  0  0  0  0  0  0  0  0  0
   46.5771    4.0123   19.0751 H   0  0  0  0  0  0  0  0  0  0  0  0
  2  1  1  0
  3  1  2  0
  4  5  1  0
  5  3  1  0
  6  2  1  0
  7  4  1  0
  8  1  1  0
  9  2  2  0
 10  4  2  0
 11 21  2  0
 12 20  2  0
 13 14  1  0
 14  8  2  0
 15 18  1  0
 16 17  1  0
 17  7  1  0
 18  6  1  0
 19  8  1  0
 20 16  1  0
 21 15  1  0
 22 27  2  0
 23 28  2  0
 24 15  2  0
 25 16  2  0
 26 19  1  0
 27 24  1  0
 28 25  1  0
  5 13  2  0
 11 22  1  0
 12 23  1  0
  3 29  1  0
  6 30  1  0
  7 31  1  0
 13 32  1  0
 14 33  1  0
 17 34  1  0
 17 35  1  0
 18 36  1  0
 18 37  1  0
 20 38  1  0
 21 39  1  0
 22 40  1  0
 23 41  1  0
 24 42  1  0
 25 43  1  0
 26 44  1  0
 26 45  1  0
 26 46  1  0
 27 47  1  0
 28 48  1  0
M  END
> <Uni-Dock RESULT> 
ENERGY=   -4.255  LOWER_BOUND=    4.580  UPPER_BOUND=    7.492
INTER + INTRA:          -4.255
INTER:                  -4.255
INTRA:                   0.000
UNBOUND:                 0.000

$$$$

     RDKit          3D

 48 50  0  0  0  0  0  0  0  0999 V2000
   46.2847   10.1635   12.1406 C   0  0  0  0  0  0  0  0  0  0  0  0
   46.9355   11.5134   12.1275 C   0  0  0  0  0  0  0  0  0  0  0  0
   47.0834    9.0917   12.5788 C   0  0  0  0  0  0  0  0  0  0  0  0
   47.4556    6.6935   13.1015 C   0  0  0  0  0  0  0  0  0  0  0  0
   46.5660    7.7948   12.6458 C   0  0  0  0  0  0  0  0  0  0  0  0
   46.3428   12.4905   11.3630 N   0  0  0  0  0  0  0  0  0  0  0  0
   46.8425    5.6515   13.7646 N   0  0  0  0  0  0  0  0  0  0  0  0
   44.9435    9.9255   11.7734 C   0  0  0  0  0  0  0  0  0  0  0  0
   47.9570   11.7092   12.7787 O   0  0  0  0  0  0  0  0  0  0  0  0
   48.6625    6.7550   12.9036 O   0  0  0  0  0  0  0  0  0  0  0  0
   44.0171   16.1157   12.7403 N   0  0  0  0  0  0  0  0  0  0  0  0
   49.0335    5.9664   17.6003 N   0  0  0  0  0  0  0  0  0  0  0  0
   45.2473    7.5572   12.2509 C   0  0  0  0  0  0  0  0  0  0  0  0
   44.4431    8.6162   11.8175 C   0  0  0  0  0  0  0  0  0  0  0  0
   45.9184   14.6558   12.3700 C   0  0  0  0  0  0  0  0  0  0  0  0
   47.8133    4.8342   15.8378 C   0  0  0  0  0  0  0  0  0  0  0  0
   47.6208    4.5929   14.3698 C   0  0  0  0  0  0  0  0  0  0  0  0
   46.7649   13.8698   11.4117 C   0  0  0  0  0  0  0  0  0  0  0  0
   44.1891   10.9926   11.3537 O   0  0  0  0  0  0  0  0  0  0  0  0
   48.8101    5.6920   16.2940 C   0  0  0  0  0  0  0  0  0  0  0  0
   44.8355   15.4083   11.9279 C   0  0  0  0  0  0  0  0  0  0  0  0
   44.2921   16.0709   14.0620 C   0  0  0  0  0  0  0  0  0  0  0  0
   48.2234    5.3653   18.4960 C   0  0  0  0  0  0  0  0  0  0  0  0
   46.1613   14.6278   13.7463 C   0  0  0  0  0  0  0  0  0  0  0  0
   46.9888    4.2380   16.7968 C   0  0  0  0  0  0  0  0  0  0  0  0
   42.7731   10.8655   11.4546 C   0  0  0  0  0  0  0  0  0  0  0  0
   45.3399   15.3481   14.6077 C   0  0  0  0  0  0  0  0  0  0  0  0
   47.1970    4.5037   18.1473 C   0  0  0  0  0  0  0  0  0  0  0  0
   48.1191    9.2696   12.8702 H   0  0  0  0  0  0  0  0  0  0  0  0
   45.4278   12.2860   10.9759 H   0  0  0  0  0  0  0  0  0  0  0  0
   45.8988    5.7772   14.1020 H   0  0  0  0  0  0  0  0  0  0  0  0
   44.8393    6.5497   12.2432 H   0  0  0  0  0  0  0  0  0  0  0  0
   43.4308    8.3844   11.4995 H   0  0  0  0  0  0  0  0  0  0  0  0
   48.5898    4.4852   13.8695 H   0  0  0  0  0  0  0  0  0  0  0  0
   47.0709    3.6590   14.2079 H   0  0  0  0  0  0  0  0  0  0  0  0
   46.6714   14.2734   10.3974 H   0  0  0  0  0  0  0  0  0  0  0  0
   47.8219   13.9412   11.6927 H   0  0  0  0  0  0  0  0  0  0  0  0
   49.4756    6.2017   15.5993 H   0  0  0  0  0  0  0  0  0  0  0  0
   44.5814   15.4656   10.8728 H   0  0  0  0  0  0  0  0  0  0  0  0
   43.6243   16.6493   14.6936 H   0  0  0  0  0  0  0  0  0  0  0  0
   48.4270    5.6034   19.5360 H   0  0  0  0  0  0  0  0  0  0  0  0
   46.9865   14.0403   14.1455 H   0  0  0  0  0  0  0  0  0  0  0  0
   46.1891    3.5643   16.5007 H   0  0  0  0  0  0  0  0  0  0  0  0
   42.3396   11.8606   11.3152 H   0  0  0  0  0  0  0  0  0  0  0  0
   42.3858   10.2198   10.6603 H   0  0  0  0  0  0  0  0  0  0  0  0
   42.4695   10.5043   12.4432 H   0  0  0  0  0  0  0  0  0  0  0  0
   45.5128   15.3422   15.6777 H   0  0  0  0  0  0  0  0  0  0  0  0
   46.5756    4.0493   18.9107 H   0  0  0  0  0  0  0  0  0  0  0  0
  2  1  1  0
  3  1  2  0
  4  5  1  0
  5  3  1  0
  6  2  1  0
  7  4  1  0
  8  1  1  0
  9  2  2  0
 10  4  2  0
 11 21  2  0
 12 20  2  0
 13 14  1  0
 14  8  2  0
 15 18  1  0
 16 17  1  0
 17  7  1  0
 18  6  1  0
 19  8  1  0
 20 16  1  0
 21 15  1  0
 22 27  2  0
 23 28  2  0
 24 15  2  0
 25 16  2  0
 26 19  1  0
 27 24  1  0
 28 25  1  0
  5 13  2  0
 11 22  1  0
 12 23  1  0
  3 29  1  0
  6 30  1  0
  7 31  1  0
 13 32  1  0
 14 33  1  0
 17 34  1  0
 17 35  1  0
 18 36  1  0
 18 37  1  0
 20 38  1  0
 21 39  1  0
 22 40  1  0
 23 41  1  0
 24 42  1  0
 25 43  1  0
 26 44  1  0
 26 45  1  0
 26 46  1  0
 27 47  1  0
 28 48  1  0
M  END
> <Uni-Dock RESULT> 
ENERGY=   -4.228  LOWER_BOUND=    4.577  UPPER_BOUND=    7.581
INTER + INTRA:          -4.228
INTER:                  -4.228
INTRA:                   0.000
UNBOUND:                 0.000

$$$$

     RDKit          3D

 48 50  0  0  0  0  0  0  0  0999 V2000
   48.1456    8.0611   12.4112 C   0  0  0  0  0  0  0  0  0  0  0  0
   47.8456    6.6686   12.8767 C   0  0  0  0  0  0  0  0  0  0  0  0
   49.4686    8.3095   12.0030 C   0  0  0  0  0  0  0  0  0  0  0  0
   51.2622    9.7866   11.1287 C   0  0  0  0  0  0  0  0  0  0  0  0
   49.8476    9.5707   11.5343 C   0  0  0  0  0  0  0  0  0  0  0  0
   46.7093    6.4876   13.6293 N   0  0  0  0  0  0  0  0  0  0  0  0
   51.4730   10.7085   10.1253 N   0  0  0  0  0  0  0  0  0  0  0  0
   47.1900    9.0963   12.3375 C   0  0  0  0  0  0  0  0  0  0  0  0
   48.6028    5.7475   12.5868 O   0  0  0  0  0  0  0  0  0  0  0  0
   52.1598    9.1456   11.6605 O   0  0  0  0  0  0  0  0  0  0  0  0
   42.8253    4.5079   12.4276 N   0  0  0  0  0  0  0  0  0  0  0  0
   53.4109    8.0169    7.1906 N   0  0  0  0  0  0  0  0  0  0  0  0
   48.9068   10.6025   11.4929 C   0  0  0  0  0  0  0  0  0  0  0  0
   47.5877   10.3654   11.8926 C   0  0  0  0  0  0  0  0  0  0  0  0
   45.1718    4.7187   13.0048 C   0  0  0  0  0  0  0  0  0  0  0  0
   52.9467   10.1323    8.2800 C   0  0  0  0  0  0  0  0  0  0  0  0
   52.7891   10.9033    9.5571 C   0  0  0  0  0  0  0  0  0  0  0  0
   46.2170    5.1768   13.9796 C   0  0  0  0  0  0  0  0  0  0  0  0
   45.9067    8.8213   12.7397 O   0  0  0  0  0  0  0  0  0  0  0  0
   53.2654    8.7774    8.3005 C   0  0  0  0  0  0  0  0  0  0  0  0
   43.8159    4.8730   13.2735 C   0  0  0  0  0  0  0  0  0  0  0  0
   43.2057    3.9605   11.2527 C   0  0  0  0  0  0  0  0  0  0  0  0
   53.2240    8.6300    6.0035 C   0  0  0  0  0  0  0  0  0  0  0  0
   45.5221    4.1580   11.7732 C   0  0  0  0  0  0  0  0  0  0  0  0
   52.7521   10.7288    7.0305 C   0  0  0  0  0  0  0  0  0  0  0  0
   44.8732    9.6589   12.2280 C   0  0  0  0  0  0  0  0  0  0  0  0
   44.5265    3.7686   10.8830 C   0  0  0  0  0  0  0  0  0  0  0  0
   52.8953    9.9687    5.8731 C   0  0  0  0  0  0  0  0  0  0  0  0
   50.2108    7.5120   12.0513 H   0  0  0  0  0  0  0  0  0  0  0  0
   46.0688    7.2710   13.6988 H   0  0  0  0  0  0  0  0  0  0  0  0
   50.6851   11.0160    9.5731 H   0  0  0  0  0  0  0  0  0  0  0  0
   49.1903   11.6051   11.1834 H   0  0  0  0  0  0  0  0  0  0  0  0
   46.8936   11.2004   11.8648 H   0  0  0  0  0  0  0  0  0  0  0  0
   53.5695   10.6214   10.2730 H   0  0  0  0  0  0  0  0  0  0  0  0
   52.9002   11.9770    9.3681 H   0  0  0  0  0  0  0  0  0  0  0  0
   45.7956    5.2478   14.9885 H   0  0  0  0  0  0  0  0  0  0  0  0
   47.0392    4.4534   14.0221 H   0  0  0  0  0  0  0  0  0  0  0  0
   53.4135    8.2482    9.2403 H   0  0  0  0  0  0  0  0  0  0  0  0
   43.4720    5.3122   14.2062 H   0  0  0  0  0  0  0  0  0  0  0  0
   42.3934    3.6720   10.5921 H   0  0  0  0  0  0  0  0  0  0  0  0
   53.3484    7.9952    5.1310 H   0  0  0  0  0  0  0  0  0  0  0  0
   46.5702    4.0310   11.5070 H   0  0  0  0  0  0  0  0  0  0  0  0
   52.4949   11.7817    6.9513 H   0  0  0  0  0  0  0  0  0  0  0  0
   43.9161    9.1728   12.4409 H   0  0  0  0  0  0  0  0  0  0  0  0
   44.8744   10.6280   12.7365 H   0  0  0  0  0  0  0  0  0  0  0  0
   44.9521    9.7801   11.1422 H   0  0  0  0  0  0  0  0  0  0  0  0
   44.7767    3.3292    9.9242 H   0  0  0  0  0  0  0  0  0  0  0  0
   52.7558   10.4089    4.8921 H   0  0  0  0  0  0  0  0  0  0  0  0
  2  1  1  0
  3  1  2  0
  4  5  1  0
  5  3  1  0
  6  2  1  0
  7  4  1  0
  8  1  1  0
  9  2  2  0
 10  4  2  0
 11 21  2  0
 12 20  2  0
 13 14  1  0
 14  8  2  0
 15 18  1  0
 16 17  1  0
 17  7  1  0
 18  6  1  0
 19  8  1  0
 20 16  1  0
 21 15  1  0
 22 27  2  0
 23 28  2  0
 24 15  2  0
 25 16  2  0
 26 19  1  0
 27 24  1  0
 28 25  1  0
  5 13  2  0
 11 22  1  0
 12 23  1  0
  3 29  1  0
  6 30  1  0
  7 31  1  0
 13 32  1  0
 14 33  1  0
 17 34  1  0
 17 35  1  0
 18 36  1  0
 18 37  1  0
 20 38  1  0
 21 39  1  0
 22 40  1  0
 23 41  1  0
 24 42  1  0
 25 43  1  0
 26 44  1  0
 26 45  1  0
 26 46  1  0
 27 47  1  0
 28 48  1  0
M  END
> <Uni-Dock RESULT> 
ENERGY=   -4.154  LOWER_BOUND=    4.083  UPPER_BOUND=    7.949
INTER + INTRA:          -4.154
INTER:                  -4.154
INTRA:                   0.000
UNBOUND:                 0.000

$$$$

     RDKit          3D

 48 50  0  0  0  0  0  0  0  0999 V2000
   46.7699   12.6576    7.4398 C   0  0  0  0  0  0  0  0  0  0  0  0
   46.1184   13.0424    8.7334 C   0  0  0  0  0  0  0  0  0  0  0  0
   48.1763   12.6281    7.4359 C   0  0  0  0  0  0  0  0  0  0  0  0
   50.3674   12.2630    6.3274 C   0  0  0  0  0  0  0  0  0  0  0  0
   48.8808   12.2641    6.2847 C   0  0  0  0  0  0  0  0  0  0  0  0
   44.8074   13.4534    8.6800 N   0  0  0  0  0  0  0  0  0  0  0  0
   50.9983   11.3436    5.5162 N   0  0  0  0  0  0  0  0  0  0  0  0
   46.0645   12.3068    6.2695 C   0  0  0  0  0  0  0  0  0  0  0  0
   46.7541   12.9872    9.7816 O   0  0  0  0  0  0  0  0  0  0  0  0
   50.9626   13.0320    7.0717 O   0  0  0  0  0  0  0  0  0  0  0  0
   41.1107   11.2525   10.0721 N   0  0  0  0  0  0  0  0  0  0  0  0
   53.1597    9.1007    8.6642 N   0  0  0  0  0  0  0  0  0  0  0  0
   48.1800   11.9484    5.1182 C   0  0  0  0  0  0  0  0  0  0  0  0
   46.7816   11.9706    5.1122 C   0  0  0  0  0  0  0  0  0  0  0  0
   43.2133   12.4538   10.2104 C   0  0  0  0  0  0  0  0  0  0  0  0
   52.7927    9.9875    6.4379 C   0  0  0  0  0  0  0  0  0  0  0  0
   52.4320   11.1594    5.5738 C   0  0  0  0  0  0  0  0  0  0  0  0
   44.0191   13.6731    9.8689 C   0  0  0  0  0  0  0  0  0  0  0  0
   44.6929   12.3418    6.3066 O   0  0  0  0  0  0  0  0  0  0  0  0
   52.8539   10.1155    7.8227 C   0  0  0  0  0  0  0  0  0  0  0  0
   41.8834   12.3342    9.8212 C   0  0  0  0  0  0  0  0  0  0  0  0
   41.6934   10.2372   10.7459 C   0  0  0  0  0  0  0  0  0  0  0  0
   53.4100    7.8993    8.1038 C   0  0  0  0  0  0  0  0  0  0  0  0
   43.7807   11.3758   10.8961 C   0  0  0  0  0  0  0  0  0  0  0  0
   53.0497    8.7242    5.8965 C   0  0  0  0  0  0  0  0  0  0  0  0
   43.9977   11.5516    5.3454 C   0  0  0  0  0  0  0  0  0  0  0  0
   43.0109   10.2506   11.1728 C   0  0  0  0  0  0  0  0  0  0  0  0
   53.3663    7.6631    6.7401 C   0  0  0  0  0  0  0  0  0  0  0  0
   48.7278   12.8919    8.3389 H   0  0  0  0  0  0  0  0  0  0  0  0
   44.3180   13.3312    7.8000 H   0  0  0  0  0  0  0  0  0  0  0  0
   50.4548   10.5903    5.1195 H   0  0  0  0  0  0  0  0  0  0  0  0
   48.7062   11.7147    4.1962 H   0  0  0  0  0  0  0  0  0  0  0  0
   46.2767   11.7393    4.1788 H   0  0  0  0  0  0  0  0  0  0  0  0
   52.9287   12.0675    5.9339 H   0  0  0  0  0  0  0  0  0  0  0  0
   52.7747   10.9927    4.5464 H   0  0  0  0  0  0  0  0  0  0  0  0
   43.3597   14.5247    9.6678 H   0  0  0  0  0  0  0  0  0  0  0  0
   44.6607   13.9523   10.7124 H   0  0  0  0  0  0  0  0  0  0  0  0
   52.6483   11.0672    8.3096 H   0  0  0  0  0  0  0  0  0  0  0  0
   41.3819   13.1285    9.2748 H   0  0  0  0  0  0  0  0  0  0  0  0
   41.0527    9.3817   10.9389 H   0  0  0  0  0  0  0  0  0  0  0  0
   53.6536    7.1049    8.8032 H   0  0  0  0  0  0  0  0  0  0  0  0
   44.8232   11.4123   11.2082 H   0  0  0  0  0  0  0  0  0  0  0  0
   53.0102    8.5613    4.8228 H   0  0  0  0  0  0  0  0  0  0  0  0
   42.9495   11.4983    5.6551 H   0  0  0  0  0  0  0  0  0  0  0  0
   44.0296   12.0260    4.3597 H   0  0  0  0  0  0  0  0  0  0  0  0
   44.3870   10.5284    5.3063 H   0  0  0  0  0  0  0  0  0  0  0  0
   43.4308    9.4053   11.7058 H   0  0  0  0  0  0  0  0  0  0  0  0
   53.5757    6.6755    6.3449 H   0  0  0  0  0  0  0  0  0  0  0  0
  2  1  1  0
  3  1  2  0
  4  5  1  0
  5  3  1  0
  6  2  1  0
  7  4  1  0
  8  1  1  0
  9  2  2  0
 10  4  2  0
 11 21  2  0
 12 20  2  0
 13 14  1  0
 14  8  2  0
 15 18  1  0
 16 17  1  0
 17  7  1  0
 18  6  1  0
 19  8  1  0
 20 16  1  0
 21 15  1  0
 22 27  2  0
 23 28  2  0
 24 15  2  0
 25 16  2  0
 26 19  1  0
 27 24  1  0
 28 25  1  0
  5 13  2  0
 11 22  1  0
 12 23  1  0
  3 29  1  0
  6 30  1  0
  7 31  1  0
 13 32  1  0
 14 33  1  0
 17 34  1  0
 17 35  1  0
 18 36  1  0
 18 37  1  0
 20 38  1  0
 21 39  1  0
 22 40  1  0
 23 41  1  0
 24 42  1  0
 25 43  1  0
 26 44  1  0
 26 45  1  0
 26 46  1  0
 27 47  1  0
 28 48  1  0
M  END
> <Uni-Dock RESULT> 
ENERGY=   -3.791  LOWER_BOUND=    7.531  UPPER_BOUND=   10.042
INTER + INTRA:          -3.791
INTER:                  -3.791
INTRA:                   0.000
UNBOUND:                 0.000

$$$$
