
     RDKit          3D

 48 50  0  0  0  0  0  0  0  0999 V2000
   45.3558    8.1248   12.2006 C   0  0  0  0  0  0  0  0  0  0  0  0
   44.2263    7.2885   11.6696 C   0  0  0  0  0  0  0  0  0  0  0  0
   45.3389    9.4832   11.8226 C   0  0  0  0  0  0  0  0  0  0  0  0
   46.3398   11.8063   11.8906 C   0  0  0  0  0  0  0  0  0  0  0  0
   46.3283   10.3646   12.2654 C   0  0  0  0  0  0  0  0  0  0  0  0
   44.1173    5.9981   12.1259 N   0  0  0  0  0  0  0  0  0  0  0  0
   45.1259   12.3720   11.5643 N   0  0  0  0  0  0  0  0  0  0  0  0
   46.4023    7.6420   13.0167 C   0  0  0  0  0  0  0  0  0  0  0  0
   43.4369    7.7708   10.8613 O   0  0  0  0  0  0  0  0  0  0  0  0
   47.3919   12.4351   11.9149 O   0  0  0  0  0  0  0  0  0  0  0  0
   44.7830    1.9813   10.0810 N   0  0  0  0  0  0  0  0  0  0  0  0
   45.1409   15.5552   14.6587 N   0  0  0  0  0  0  0  0  0  0  0  0
   47.3598    9.8803   13.0718 C   0  0  0  0  0  0  0  0  0  0  0  0
   47.3949    8.5337   13.4471 C   0  0  0  0  0  0  0  0  0  0  0  0
   43.8118    4.1445   10.5898 C   0  0  0  0  0  0  0  0  0  0  0  0
   44.5551   14.5195   12.5457 C   0  0  0  0  0  0  0  0  0  0  0  0
   45.0040   13.7909   11.3136 C   0  0  0  0  0  0  0  0  0  0  0  0
   43.1636    5.0565   11.5892 C   0  0  0  0  0  0  0  0  0  0  0  0
   46.3930    6.3122   13.3561 O   0  0  0  0  0  0  0  0  0  0  0  0
   45.4732   14.9106   13.5162 C   0  0  0  0  0  0  0  0  0  0  0  0
   44.1798    2.8466   10.9279 C   0  0  0  0  0  0  0  0  0  0  0  0
   45.0350    2.4325    8.8332 C   0  0  0  0  0  0  0  0  0  0  0  0
   43.8309   15.8175   14.8488 C   0  0  0  0  0  0  0  0  0  0  0  0
   44.0966    4.5740    9.2904 C   0  0  0  0  0  0  0  0  0  0  0  0
   43.2068   14.8003   12.7850 C   0  0  0  0  0  0  0  0  0  0  0  0
   47.5541    5.7782   13.9862 C   0  0  0  0  0  0  0  0  0  0  0  0
   44.7152    3.7067    8.3954 C   0  0  0  0  0  0  0  0  0  0  0  0
   42.8369   15.4625   13.9523 C   0  0  0  0  0  0  0  0  0  0  0  0
   44.5535    9.8343   11.1572 H   0  0  0  0  0  0  0  0  0  0  0  0
   44.8650    5.6414   12.7116 H   0  0  0  0  0  0  0  0  0  0  0  0
   44.2728   11.8700   11.7666 H   0  0  0  0  0  0  0  0  0  0  0  0
   48.1440   10.5534   13.4167 H   0  0  0  0  0  0  0  0  0  0  0  0
   48.2165    8.2180   14.0832 H   0  0  0  0  0  0  0  0  0  0  0  0
   45.9512   14.2037   10.9479 H   0  0  0  0  0  0  0  0  0  0  0  0
   44.2688   13.9147   10.5107 H   0  0  0  0  0  0  0  0  0  0  0  0
   42.7673    4.4833   12.4345 H   0  0  0  0  0  0  0  0  0  0  0  0
   42.3183    5.5795   11.1282 H   0  0  0  0  0  0  0  0  0  0  0  0
   46.5356   14.7052   13.3993 H   0  0  0  0  0  0  0  0  0  0  0  0
   43.9976    2.4482   11.9225 H   0  0  0  0  0  0  0  0  0  0  0  0
   45.5184    1.7194    8.1719 H   0  0  0  0  0  0  0  0  0  0  0  0
   43.5927   16.3365   15.7727 H   0  0  0  0  0  0  0  0  0  0  0  0
   43.8397    5.5847    8.9783 H   0  0  0  0  0  0  0  0  0  0  0  0
   42.4432   14.5101   12.0682 H   0  0  0  0  0  0  0  0  0  0  0  0
   48.4495    5.9457   13.3785 H   0  0  0  0  0  0  0  0  0  0  0  0
   47.4130    4.6971   14.0797 H   0  0  0  0  0  0  0  0  0  0  0  0
   47.6733    6.1862   14.9948 H   0  0  0  0  0  0  0  0  0  0  0  0
   44.9439    4.0191    7.3829 H   0  0  0  0  0  0  0  0  0  0  0  0
   41.7986   15.6964   14.1588 H   0  0  0  0  0  0  0  0  0  0  0  0
  2  1  1  0
  3  1  2  0
  4  5  1  0
  5  3  1  0
  6  2  1  0
  7  4  1  0
  8  1  1  0
  9  2  2  0
 10  4  2  0
 11 21  2  0
 12 20  2  0
 13 14  1  0
 14  8  2  0
 15 18  1  0
 16 17  1  0
 17  7  1  0
 18  6  1  0
 19  8  1  0
 20 16  1  0
 21 15  1  0
 22 27  2  0
 23 28  2  0
 24 15  2  0
 25 16  2  0
 26 19  1  0
 27 24  1  0
 28 25  1  0
  5 13  2  0
 11 22  1  0
 12 23  1  0
  3 29  1  0
  6 30  1  0
  7 31  1  0
 13 32  1  0
 14 33  1  0
 17 34  1  0
 17 35  1  0
 18 36  1  0
 18 37  1  0
 20 38  1  0
 21 39  1  0
 22 40  1  0
 23 41  1  0
 24 42  1  0
 25 43  1  0
 26 44  1  0
 26 45  1  0
 26 46  1  0
 27 47  1  0
 28 48  1  0
M  END
> <Uni-Dock RESULT> 
ENERGY=   -5.997  LOWER_BOUND=    0.000  UPPER_BOUND=    0.000
INTER + INTRA:          -5.997
INTER:                  -5.997
INTRA:                   0.000
UNBOUND:                 0.000

$$$$

     RDKit          3D

 48 50  0  0  0  0  0  0  0  0999 V2000
   48.0460    7.1409   12.9297 C   0  0  0  0  0  0  0  0  0  0  0  0
   48.8749    8.3363   12.5544 C   0  0  0  0  0  0  0  0  0  0  0  0
   47.1692    6.6690   11.9312 C   0  0  0  0  0  0  0  0  0  0  0  0
   45.4229    5.0254   11.1235 C   0  0  0  0  0  0  0  0  0  0  0  0
   46.3570    5.5547   12.1562 C   0  0  0  0  0  0  0  0  0  0  0  0
   49.8454    8.7432   13.4363 N   0  0  0  0  0  0  0  0  0  0  0  0
   45.7382    5.2900    9.8081 N   0  0  0  0  0  0  0  0  0  0  0  0
   48.0847    6.4944   14.1846 C   0  0  0  0  0  0  0  0  0  0  0  0
   48.6750    8.9068   11.4850 O   0  0  0  0  0  0  0  0  0  0  0  0
   44.4493    4.3624   11.4634 O   0  0  0  0  0  0  0  0  0  0  0  0
   50.1900   12.4277   16.0943 N   0  0  0  0  0  0  0  0  0  0  0  0
   45.9772    1.0766    8.4303 N   0  0  0  0  0  0  0  0  0  0  0  0
   46.4006    4.9208   13.3992 C   0  0  0  0  0  0  0  0  0  0  0  0
   47.2582    5.3831   14.4022 C   0  0  0  0  0  0  0  0  0  0  0  0
   50.0534   11.0713   14.0886 C   0  0  0  0  0  0  0  0  0  0  0  0
   45.6272    3.4659    8.2078 C   0  0  0  0  0  0  0  0  0  0  0  0
   44.9739    4.7136    8.7242 C   0  0  0  0  0  0  0  0  0  0  0  0
   50.6092    9.9548   13.2548 C   0  0  0  0  0  0  0  0  0  0  0  0
   48.9419    6.9872   15.1365 O   0  0  0  0  0  0  0  0  0  0  0  0
   45.4104    2.2391    8.8288 C   0  0  0  0  0  0  0  0  0  0  0  0
   50.6505   11.4440   15.2882 C   0  0  0  0  0  0  0  0  0  0  0  0
   49.0758   13.0726   15.6861 C   0  0  0  0  0  0  0  0  0  0  0  0
   46.8055    1.1381    7.3668 C   0  0  0  0  0  0  0  0  0  0  0  0
   48.8984   11.7597   13.7061 C   0  0  0  0  0  0  0  0  0  0  0  0
   46.5000    3.4892    7.1161 C   0  0  0  0  0  0  0  0  0  0  0  0
   48.8229    6.4830   16.4639 C   0  0  0  0  0  0  0  0  0  0  0  0
   48.4009   12.7777   14.5134 C   0  0  0  0  0  0  0  0  0  0  0  0
   47.0969    2.3078    6.6849 C   0  0  0  0  0  0  0  0  0  0  0  0
   47.1147    7.2017   10.9845 H   0  0  0  0  0  0  0  0  0  0  0  0
   49.8804    8.2860   14.3413 H   0  0  0  0  0  0  0  0  0  0  0  0
   46.6536    5.6507    9.5788 H   0  0  0  0  0  0  0  0  0  0  0  0
   45.7658    4.0568   13.5930 H   0  0  0  0  0  0  0  0  0  0  0  0
   47.2549    4.8432   15.3445 H   0  0  0  0  0  0  0  0  0  0  0  0
   43.9459    4.5048    9.0416 H   0  0  0  0  0  0  0  0  0  0  0  0
   44.9181    5.4683    7.9318 H   0  0  0  0  0  0  0  0  0  0  0  0
   51.6409    9.7313   13.5476 H   0  0  0  0  0  0  0  0  0  0  0  0
   50.6286   10.2476   12.1990 H   0  0  0  0  0  0  0  0  0  0  0  0
   44.7568    2.1559    9.6951 H   0  0  0  0  0  0  0  0  0  0  0  0
   51.5456   10.9468   15.6525 H   0  0  0  0  0  0  0  0  0  0  0  0
   48.7266   13.8587   16.3492 H   0  0  0  0  0  0  0  0  0  0  0  0
   47.2453    0.1911    7.0679 H   0  0  0  0  0  0  0  0  0  0  0  0
   48.3858   11.4993   12.7818 H   0  0  0  0  0  0  0  0  0  0  0  0
   46.7160    4.4195    6.5974 H   0  0  0  0  0  0  0  0  0  0  0  0
   47.8071    6.6154   16.8506 H   0  0  0  0  0  0  0  0  0  0  0  0
   49.4992    7.0618   17.1003 H   0  0  0  0  0  0  0  0  0  0  0  0
   49.1360    5.4353   16.5129 H   0  0  0  0  0  0  0  0  0  0  0  0
   47.5075   13.3249   14.2349 H   0  0  0  0  0  0  0  0  0  0  0  0
   47.7733    2.2985    5.8378 H   0  0  0  0  0  0  0  0  0  0  0  0
  2  1  1  0
  3  1  2  0
  4  5  1  0
  5  3  1  0
  6  2  1  0
  7  4  1  0
  8  1  1  0
  9  2  2  0
 10  4  2  0
 11 21  2  0
 12 20  2  0
 13 14  1  0
 14  8  2  0
 15 18  1  0
 16 17  1  0
 17  7  1  0
 18  6  1  0
 19  8  1  0
 20 16  1  0
 21 15  1  0
 22 27  2  0
 23 28  2  0
 24 15  2  0
 25 16  2  0
 26 19  1  0
 27 24  1  0
 28 25  1  0
  5 13  2  0
 11 22  1  0
 12 23  1  0
  3 29  1  0
  6 30  1  0
  7 31  1  0
 13 32  1  0
 14 33  1  0
 17 34  1  0
 17 35  1  0
 18 36  1  0
 18 37  1  0
 20 38  1  0
 21 39  1  0
 22 40  1  0
 23 41  1  0
 24 42  1  0
 25 43  1  0
 26 44  1  0
 26 45  1  0
 26 46  1  0
 27 47  1  0
 28 48  1  0
M  END
> <Uni-Dock RESULT> 
ENERGY=   -5.741  LOWER_BOUND=    3.590  UPPER_BOUND=    9.685
INTER + INTRA:          -5.741
INTER:                  -5.741
INTRA:                   0.000
UNBOUND:                 0.000

$$$$

     RDKit          3D

 48 50  0  0  0  0  0  0  0  0999 V2000
   47.9679    6.3173   14.1763 C   0  0  0  0  0  0  0  0  0  0  0  0
   48.7730    7.5791   14.0470 C   0  0  0  0  0  0  0  0  0  0  0  0
   47.0428    6.0752   13.1399 C   0  0  0  0  0  0  0  0  0  0  0  0
   45.2626    4.6364   12.0610 C   0  0  0  0  0  0  0  0  0  0  0  0
   46.2465    4.9273   13.1412 C   0  0  0  0  0  0  0  0  0  0  0  0
   49.7859    7.7862   14.9505 N   0  0  0  0  0  0  0  0  0  0  0  0
   45.5098    5.2013   10.8284 N   0  0  0  0  0  0  0  0  0  0  0  0
   48.0723    5.3999   15.2448 C   0  0  0  0  0  0  0  0  0  0  0  0
   48.5172    8.3775   13.1491 O   0  0  0  0  0  0  0  0  0  0  0  0
   44.3096    3.8987   12.2859 O   0  0  0  0  0  0  0  0  0  0  0  0
   50.2541   10.7643   18.3668 N   0  0  0  0  0  0  0  0  0  0  0  0
   45.6911    1.4223    8.5057 N   0  0  0  0  0  0  0  0  0  0  0  0
   46.3551    4.0249   14.2007 C   0  0  0  0  0  0  0  0  0  0  0  0
   47.2613    4.2563   15.2402 C   0  0  0  0  0  0  0  0  0  0  0  0
   50.0197    9.9043   16.1114 C   0  0  0  0  0  0  0  0  0  0  0  0
   45.3231    3.7933    8.8578 C   0  0  0  0  0  0  0  0  0  0  0  0
   44.6931    4.8788    9.6794 C   0  0  0  0  0  0  0  0  0  0  0  0
   50.5358    9.0181   15.0164 C   0  0  0  0  0  0  0  0  0  0  0  0
   48.9753    5.6728   16.2417 O   0  0  0  0  0  0  0  0  0  0  0  0
   45.1418    2.4534    9.1888 C   0  0  0  0  0  0  0  0  0  0  0  0
   50.6759    9.9994   17.3339 C   0  0  0  0  0  0  0  0  0  0  0  0
   49.1187   11.4695   18.1732 C   0  0  0  0  0  0  0  0  0  0  0  0
   46.4641    1.7393    7.4460 C   0  0  0  0  0  0  0  0  0  0  0  0
   48.8447   10.6452   15.9548 C   0  0  0  0  0  0  0  0  0  0  0  0
   46.1391    4.0802    7.7597 C   0  0  0  0  0  0  0  0  0  0  0  0
   48.9255    4.8748   17.4212 C   0  0  0  0  0  0  0  0  0  0  0  0
   48.3858   11.4426   16.9986 C   0  0  0  0  0  0  0  0  0  0  0  0
   46.7168    3.0386    7.0390 C   0  0  0  0  0  0  0  0  0  0  0  0
   46.9386    6.8107   12.3455 H   0  0  0  0  0  0  0  0  0  0  0  0
   49.8682    7.1334   15.7228 H   0  0  0  0  0  0  0  0  0  0  0  0
   46.4113    5.6185   10.6441 H   0  0  0  0  0  0  0  0  0  0  0  0
   45.7336    3.1303   14.2207 H   0  0  0  0  0  0  0  0  0  0  0  0
   47.3075    3.5140   16.0315 H   0  0  0  0  0  0  0  0  0  0  0  0
   43.6832    4.5875    9.9898 H   0  0  0  0  0  0  0  0  0  0  0  0
   44.5948    5.7949    9.0861 H   0  0  0  0  0  0  0  0  0  0  0  0
   51.5818    8.7483   15.1990 H   0  0  0  0  0  0  0  0  0  0  0  0
   50.5005    9.5463   14.0570 H   0  0  0  0  0  0  0  0  0  0  0  0
   44.5334    2.1634   10.0434 H   0  0  0  0  0  0  0  0  0  0  0  0
   51.5900    9.4449   17.5296 H   0  0  0  0  0  0  0  0  0  0  0  0
   48.8013   12.0765   19.0160 H   0  0  0  0  0  0  0  0  0  0  0  0
   46.8909    0.8930    6.9156 H   0  0  0  0  0  0  0  0  0  0  0  0
   48.2865   10.5972   15.0216 H   0  0  0  0  0  0  0  0  0  0  0  0
   46.3256    5.1079    7.4596 H   0  0  0  0  0  0  0  0  0  0  0  0
   47.9303    4.8997   17.8771 H   0  0  0  0  0  0  0  0  0  0  0  0
   49.6316    5.3014   18.1401 H   0  0  0  0  0  0  0  0  0  0  0  0
   49.2438    3.8487   17.2118 H   0  0  0  0  0  0  0  0  0  0  0  0
   47.4778   12.0261   16.8977 H   0  0  0  0  0  0  0  0  0  0  0  0
   47.3493    3.2346    6.1805 H   0  0  0  0  0  0  0  0  0  0  0  0
  2  1  1  0
  3  1  2  0
  4  5  1  0
  5  3  1  0
  6  2  1  0
  7  4  1  0
  8  1  1  0
  9  2  2  0
 10  4  2  0
 11 21  2  0
 12 20  2  0
 13 14  1  0
 14  8  2  0
 15 18  1  0
 16 17  1  0
 17  7  1  0
 18  6  1  0
 19  8  1  0
 20 16  1  0
 21 15  1  0
 22 27  2  0
 23 28  2  0
 24 15  2  0
 25 16  2  0
 26 19  1  0
 27 24  1  0
 28 25  1  0
  5 13  2  0
 11 22  1  0
 12 23  1  0
  3 29  1  0
  6 30  1  0
  7 31  1  0
 13 32  1  0
 14 33  1  0
 17 34  1  0
 17 35  1  0
 18 36  1  0
 18 37  1  0
 20 38  1  0
 21 39  1  0
 22 40  1  0
 23 41  1  0
 24 42  1  0
 25 43  1  0
 26 44  1  0
 26 45  1  0
 26 46  1  0
 27 47  1  0
 28 48  1  0
M  END
> <Uni-Dock RESULT> 
ENERGY=   -5.575  LOWER_BOUND=    4.427  UPPER_BOUND=    9.691
INTER + INTRA:          -5.575
INTER:                  -5.575
INTRA:                   0.000
UNBOUND:                 0.000

$$$$

     RDKit          3D

 48 50  0  0  0  0  0  0  0  0999 V2000
   46.6071    7.2312   12.9297 C   0  0  0  0  0  0  0  0  0  0  0  0
   45.3644    6.9398   12.1375 C   0  0  0  0  0  0  0  0  0  0  0  0
   47.2010    8.4880   12.6922 C   0  0  0  0  0  0  0  0  0  0  0  0
   49.0042   10.2011   13.1580 C   0  0  0  0  0  0  0  0  0  0  0  0
   48.3527    8.8798   13.3792 C   0  0  0  0  0  0  0  0  0  0  0  0
   44.6693    5.7944   12.4376 N   0  0  0  0  0  0  0  0  0  0  0  0
   48.1997   11.2193   12.6933 N   0  0  0  0  0  0  0  0  0  0  0  0
   47.1999    6.3448   13.8555 C   0  0  0  0  0  0  0  0  0  0  0  0
   45.0010    7.7210   11.2619 O   0  0  0  0  0  0  0  0  0  0  0  0
   50.1930   10.3470   13.4195 O   0  0  0  0  0  0  0  0  0  0  0  0
   44.0749    1.9056   10.1391 N   0  0  0  0  0  0  0  0  0  0  0  0
   48.8747   14.0442   16.0507 N   0  0  0  0  0  0  0  0  0  0  0  0
   48.9331    7.9983   14.2929 C   0  0  0  0  0  0  0  0  0  0  0  0
   48.3609    6.7450   14.5318 C   0  0  0  0  0  0  0  0  0  0  0  0
   43.9584    4.2635   10.6941 C   0  0  0  0  0  0  0  0  0  0  0  0
   48.3459   13.3885   13.7767 C   0  0  0  0  0  0  0  0  0  0  0  0
   48.6985   12.5709   12.5695 C   0  0  0  0  0  0  0  0  0  0  0  0
   43.5439    5.3353   11.6584 C   0  0  0  0  0  0  0  0  0  0  0  0
   46.6012    5.1257   14.0535 O   0  0  0  0  0  0  0  0  0  0  0  0
   49.1385   13.3485   14.9203 C   0  0  0  0  0  0  0  0  0  0  0  0
   43.7116    2.9202   10.9566 C   0  0  0  0  0  0  0  0  0  0  0  0
   44.7193    2.2459    9.0020 C   0  0  0  0  0  0  0  0  0  0  0  0
   47.7648   14.8117   16.0462 C   0  0  0  0  0  0  0  0  0  0  0  0
   44.6337    4.5720    9.5096 C   0  0  0  0  0  0  0  0  0  0  0  0
   47.1994   14.1872   13.8160 C   0  0  0  0  0  0  0  0  0  0  0  0
   47.3125    4.1505   14.8107 C   0  0  0  0  0  0  0  0  0  0  0  0
   45.0192    3.5504    8.6473 C   0  0  0  0  0  0  0  0  0  0  0  0
   46.9040   14.9137   14.9661 C   0  0  0  0  0  0  0  0  0  0  0  0
   46.7619    9.1444   11.9444 H   0  0  0  0  0  0  0  0  0  0  0  0
   45.0876    5.1502   13.1005 H   0  0  0  0  0  0  0  0  0  0  0  0
   47.1962   11.1027   12.6998 H   0  0  0  0  0  0  0  0  0  0  0  0
   49.8371    8.2857   14.8288 H   0  0  0  0  0  0  0  0  0  0  0  0
   48.8520    6.1070   15.2605 H   0  0  0  0  0  0  0  0  0  0  0  0
   49.7828   12.5718   12.4093 H   0  0  0  0  0  0  0  0  0  0  0  0
   48.2412   13.0026   11.6722 H   0  0  0  0  0  0  0  0  0  0  0  0
   42.7990    4.9521   12.3645 H   0  0  0  0  0  0  0  0  0  0  0  0
   43.0796    6.1681   11.1184 H   0  0  0  0  0  0  0  0  0  0  0  0
   50.0344   12.7319   14.9614 H   0  0  0  0  0  0  0  0  0  0  0  0
   43.1994    2.6059   11.8622 H   0  0  0  0  0  0  0  0  0  0  0  0
   44.9993    1.4144    8.3619 H   0  0  0  0  0  0  0  0  0  0  0  0
   47.5780   15.3598   16.9651 H   0  0  0  0  0  0  0  0  0  0  0  0
   44.8619    5.6071    9.2622 H   0  0  0  0  0  0  0  0  0  0  0  0
   46.5366   14.2503   12.9570 H   0  0  0  0  0  0  0  0  0  0  0  0
   48.2999    3.9543   14.3800 H   0  0  0  0  0  0  0  0  0  0  0  0
   46.7408    3.2182   14.7706 H   0  0  0  0  0  0  0  0  0  0  0  0
   47.3866    4.4498   15.8609 H   0  0  0  0  0  0  0  0  0  0  0  0
   45.5427    3.7677    7.7232 H   0  0  0  0  0  0  0  0  0  0  0  0
   46.0238   15.5444   15.0200 H   0  0  0  0  0  0  0  0  0  0  0  0
  2  1  1  0
  3  1  2  0
  4  5  1  0
  5  3  1  0
  6  2  1  0
  7  4  1  0
  8  1  1  0
  9  2  2  0
 10  4  2  0
 11 21  2  0
 12 20  2  0
 13 14  1  0
 14  8  2  0
 15 18  1  0
 16 17  1  0
 17  7  1  0
 18  6  1  0
 19  8  1  0
 20 16  1  0
 21 15  1  0
 22 27  2  0
 23 28  2  0
 24 15  2  0
 25 16  2  0
 26 19  1  0
 27 24  1  0
 28 25  1  0
  5 13  2  0
 11 22  1  0
 12 23  1  0
  3 29  1  0
  6 30  1  0
  7 31  1  0
 13 32  1  0
 14 33  1  0
 17 34  1  0
 17 35  1  0
 18 36  1  0
 18 37  1  0
 20 38  1  0
 21 39  1  0
 22 40  1  0
 23 41  1  0
 24 42  1  0
 25 43  1  0
 26 44  1  0
 26 45  1  0
 26 46  1  0
 27 47  1  0
 28 48  1  0
M  END
> <Uni-Dock RESULT> 
ENERGY=   -5.333  LOWER_BOUND=    2.261  UPPER_BOUND=    2.700
INTER + INTRA:          -5.333
INTER:                  -5.333
INTRA:                   0.000
UNBOUND:                 0.000

$$$$

     RDKit          3D

 48 50  0  0  0  0  0  0  0  0999 V2000
   46.5894    7.8400   13.2185 C   0  0  0  0  0  0  0  0  0  0  0  0
   47.7182    8.3108   14.0910 C   0  0  0  0  0  0  0  0  0  0  0  0
   45.8300    8.8562   12.6027 C   0  0  0  0  0  0  0  0  0  0  0  0
   43.9423    9.5897   11.0854 C   0  0  0  0  0  0  0  0  0  0  0  0
   44.7630    8.5432   11.7567 C   0  0  0  0  0  0  0  0  0  0  0  0
   48.5744    7.3630   14.5948 N   0  0  0  0  0  0  0  0  0  0  0  0
   44.5465   10.8102   10.8731 N   0  0  0  0  0  0  0  0  0  0  0  0
   46.2503    6.4869   12.9985 C   0  0  0  0  0  0  0  0  0  0  0  0
   47.8517    9.5097   14.3230 O   0  0  0  0  0  0  0  0  0  0  0  0
   42.8000    9.3307   10.7235 O   0  0  0  0  0  0  0  0  0  0  0  0
   49.2317    5.7962   18.8224 N   0  0  0  0  0  0  0  0  0  0  0  0
   44.0931   10.8996    6.4577 N   0  0  0  0  0  0  0  0  0  0  0  0
   44.4336    7.2035   11.5440 C   0  0  0  0  0  0  0  0  0  0  0  0
   45.1717    6.1852   12.1553 C   0  0  0  0  0  0  0  0  0  0  0  0
   49.1706    7.3325   16.9469 C   0  0  0  0  0  0  0  0  0  0  0  0
   44.3308   11.8363    8.6819 C   0  0  0  0  0  0  0  0  0  0  0  0
   43.8874   11.8503   10.1149 C   0  0  0  0  0  0  0  0  0  0  0  0
   49.6086    7.6734   15.5531 C   0  0  0  0  0  0  0  0  0  0  0  0
   47.0042    5.5246   13.6225 O   0  0  0  0  0  0  0  0  0  0  0  0
   43.7354   10.9795    7.7605 C   0  0  0  0  0  0  0  0  0  0  0  0
   49.6029    6.1703   17.5765 C   0  0  0  0  0  0  0  0  0  0  0  0
   48.3843    6.6212   19.4744 C   0  0  0  0  0  0  0  0  0  0  0  0
   45.0966   11.7060    6.0531 C   0  0  0  0  0  0  0  0  0  0  0  0
   48.2890    8.1552   17.6541 C   0  0  0  0  0  0  0  0  0  0  0  0
   45.3735   12.6479    8.2256 C   0  0  0  0  0  0  0  0  0  0  0  0
   46.5324    4.1807   13.5832 C   0  0  0  0  0  0  0  0  0  0  0  0
   47.8897    7.7983   18.9383 C   0  0  0  0  0  0  0  0  0  0  0  0
   45.7619   12.5860    6.8902 C   0  0  0  0  0  0  0  0  0  0  0  0
   46.0715    9.8952   12.8148 H   0  0  0  0  0  0  0  0  0  0  0  0
   48.3387    6.3879   14.4434 H   0  0  0  0  0  0  0  0  0  0  0  0
   45.5454   10.8987   10.9953 H   0  0  0  0  0  0  0  0  0  0  0  0
   43.5979    6.9441   10.8949 H   0  0  0  0  0  0  0  0  0  0  0  0
   44.8740    5.1624   11.9441 H   0  0  0  0  0  0  0  0  0  0  0  0
   42.7981   11.7480   10.1801 H   0  0  0  0  0  0  0  0  0  0  0  0
   44.1485   12.8058   10.5834 H   0  0  0  0  0  0  0  0  0  0  0  0
   50.4923    7.0897   15.2727 H   0  0  0  0  0  0  0  0  0  0  0  0
   49.8877    8.7314   15.4947 H   0  0  0  0  0  0  0  0  0  0  0  0
   42.9309   10.3085    8.0558 H   0  0  0  0  0  0  0  0  0  0  0  0
   50.2817    5.4792   17.0836 H   0  0  0  0  0  0  0  0  0  0  0  0
   48.1021    6.3002   20.4729 H   0  0  0  0  0  0  0  0  0  0  0  0
   45.3622   11.6223    5.0033 H   0  0  0  0  0  0  0  0  0  0  0  0
   47.9115    9.0707   17.2023 H   0  0  0  0  0  0  0  0  0  0  0  0
   45.8832   13.3297    8.9013 H   0  0  0  0  0  0  0  0  0  0  0  0
   45.5179    4.1029   13.9878 H   0  0  0  0  0  0  0  0  0  0  0  0
   47.1907    3.5796   14.2178 H   0  0  0  0  0  0  0  0  0  0  0  0
   46.5899    3.7764   12.5676 H   0  0  0  0  0  0  0  0  0  0  0  0
   47.2079    8.4224   19.5046 H   0  0  0  0  0  0  0  0  0  0  0  0
   46.5641   13.2086    6.5106 H   0  0  0  0  0  0  0  0  0  0  0  0
  2  1  1  0
  3  1  2  0
  4  5  1  0
  5  3  1  0
  6  2  1  0
  7  4  1  0
  8  1  1  0
  9  2  2  0
 10  4  2  0
 11 21  2  0
 12 20  2  0
 13 14  1  0
 14  8  2  0
 15 18  1  0
 16 17  1  0
 17  7  1  0
 18  6  1  0
 19  8  1  0
 20 16  1  0
 21 15  1  0
 22 27  2  0
 23 28  2  0
 24 15  2  0
 25 16  2  0
 26 19  1  0
 27 24  1  0
 28 25  1  0
  5 13  2  0
 11 22  1  0
 12 23  1  0
  3 29  1  0
  6 30  1  0
  7 31  1  0
 13 32  1  0
 14 33  1  0
 17 34  1  0
 17 35  1  0
 18 36  1  0
 18 37  1  0
 20 38  1  0
 21 39  1  0
 22 40  1  0
 23 41  1  0
 24 42  1  0
 25 43  1  0
 26 44  1  0
 26 45  1  0
 26 46  1  0
 27 47  1  0
 28 48  1  0
M  END
> <Uni-Dock RESULT> 
ENERGY=   -5.181  LOWER_BOUND=    3.706  UPPER_BOUND=    6.699
INTER + INTRA:          -5.181
INTER:                  -5.181
INTRA:                   0.000
UNBOUND:                 0.000

$$$$

     RDKit          3D

 48 50  0  0  0  0  0  0  0  0999 V2000
   46.6013    7.7422   13.2263 C   0  0  0  0  0  0  0  0  0  0  0  0
   47.7310    8.2026   14.1031 C   0  0  0  0  0  0  0  0  0  0  0  0
   45.8393    8.7656   12.6258 C   0  0  0  0  0  0  0  0  0  0  0  0
   43.9478    9.5170   11.1222 C   0  0  0  0  0  0  0  0  0  0  0  0
   44.7713    8.4627   11.7776 C   0  0  0  0  0  0  0  0  0  0  0  0
   48.5896    7.2494   14.5923 N   0  0  0  0  0  0  0  0  0  0  0  0
   44.5498   10.7412   10.9255 N   0  0  0  0  0  0  0  0  0  0  0  0
   46.2638    6.3918   12.9883 C   0  0  0  0  0  0  0  0  0  0  0  0
   47.8632    9.3985   14.3513 O   0  0  0  0  0  0  0  0  0  0  0  0
   42.8052    9.2613   10.7588 O   0  0  0  0  0  0  0  0  0  0  0  0
   49.2569    5.6258   18.7968 N   0  0  0  0  0  0  0  0  0  0  0  0
   44.0883   10.8904    6.5126 N   0  0  0  0  0  0  0  0  0  0  0  0
   44.4434    7.1255   11.5471 C   0  0  0  0  0  0  0  0  0  0  0  0
   45.1841    6.1000   12.1430 C   0  0  0  0  0  0  0  0  0  0  0  0
   49.1901    7.1875   16.9427 C   0  0  0  0  0  0  0  0  0  0  0  0
   44.3287   11.7970    8.7489 C   0  0  0  0  0  0  0  0  0  0  0  0
   43.8879   11.7907   10.1828 C   0  0  0  0  0  0  0  0  0  0  0  0
   49.6251    7.5481   15.5529 C   0  0  0  0  0  0  0  0  0  0  0  0
   47.0202    5.4221   13.5978 O   0  0  0  0  0  0  0  0  0  0  0  0
   43.7328   10.9520    7.8169 C   0  0  0  0  0  0  0  0  0  0  0  0
   49.6253    6.0174   17.5556 C   0  0  0  0  0  0  0  0  0  0  0  0
   48.4094    6.4405   19.4617 C   0  0  0  0  0  0  0  0  0  0  0  0
   45.0898   11.7038    6.1172 C   0  0  0  0  0  0  0  0  0  0  0  0
   48.3085    7.9991   17.6627 C   0  0  0  0  0  0  0  0  0  0  0  0
   45.3693   12.6162    8.3020 C   0  0  0  0  0  0  0  0  0  0  0  0
   46.5503    4.0782   13.5409 C   0  0  0  0  0  0  0  0  0  0  0  0
   47.9122    7.6240   18.9426 C   0  0  0  0  0  0  0  0  0  0  0  0
   45.7554   12.5733    6.9652 C   0  0  0  0  0  0  0  0  0  0  0  0
   46.0798    9.8019   12.8517 H   0  0  0  0  0  0  0  0  0  0  0  0
   48.3549    6.2760   14.4280 H   0  0  0  0  0  0  0  0  0  0  0  0
   45.5489   10.8296   11.0471 H   0  0  0  0  0  0  0  0  0  0  0  0
   43.6069    6.8738   10.8960 H   0  0  0  0  0  0  0  0  0  0  0  0
   44.8875    5.0798   11.9184 H   0  0  0  0  0  0  0  0  0  0  0  0
   42.7989   11.6858   10.2486 H   0  0  0  0  0  0  0  0  0  0  0  0
   44.1484   12.7401   10.6639 H   0  0  0  0  0  0  0  0  0  0  0  0
   50.5091    6.9696   15.2630 H   0  0  0  0  0  0  0  0  0  0  0  0
   49.9025    8.6072   15.5086 H   0  0  0  0  0  0  0  0  0  0  0  0
   42.9298   10.2758    8.1045 H   0  0  0  0  0  0  0  0  0  0  0  0
   50.3041    5.3342   17.0520 H   0  0  0  0  0  0  0  0  0  0  0  0
   48.1296    6.1054   20.4561 H   0  0  0  0  0  0  0  0  0  0  0  0
   45.3536   11.6349    5.0659 H   0  0  0  0  0  0  0  0  0  0  0  0
   47.9289    8.9202   17.2242 H   0  0  0  0  0  0  0  0  0  0  0  0
   45.8793   13.2895    8.9860 H   0  0  0  0  0  0  0  0  0  0  0  0
   45.5367    3.9933   13.9463 H   0  0  0  0  0  0  0  0  0  0  0  0
   47.2107    3.4694   14.1660 H   0  0  0  0  0  0  0  0  0  0  0  0
   46.6066    3.6880   12.5198 H   0  0  0  0  0  0  0  0  0  0  0  0
   47.2304    8.2393   19.5186 H   0  0  0  0  0  0  0  0  0  0  0  0
   46.5560   13.2022    6.5927 H   0  0  0  0  0  0  0  0  0  0  0  0
  2  1  1  0
  3  1  2  0
  4  5  1  0
  5  3  1  0
  6  2  1  0
  7  4  1  0
  8  1  1  0
  9  2  2  0
 10  4  2  0
 11 21  2  0
 12 20  2  0
 13 14  1  0
 14  8  2  0
 15 18  1  0
 16 17  1  0
 17  7  1  0
 18  6  1  0
 19  8  1  0
 20 16  1  0
 21 15  1  0
 22 27  2  0
 23 28  2  0
 24 15  2  0
 25 16  2  0
 26 19  1  0
 27 24  1  0
 28 25  1  0
  5 13  2  0
 11 22  1  0
 12 23  1  0
  3 29  1  0
  6 30  1  0
  7 31  1  0
 13 32  1  0
 14 33  1  0
 17 34  1  0
 17 35  1  0
 18 36  1  0
 18 37  1  0
 20 38  1  0
 21 39  1  0
 22 40  1  0
 23 41  1  0
 24 42  1  0
 25 43  1  0
 26 44  1  0
 26 45  1  0
 26 46  1  0
 27 47  1  0
 28 48  1  0
M  END
> <Uni-Dock RESULT> 
ENERGY=   -5.174  LOWER_BOUND=    3.685  UPPER_BOUND=    6.675
INTER + INTRA:          -5.174
INTER:                  -5.174
INTRA:                   0.000
UNBOUND:                 0.000

$$$$

     RDKit          3D

 48 50  0  0  0  0  0  0  0  0999 V2000
   49.0253    8.1545   12.8425 C   0  0  0  0  0  0  0  0  0  0  0  0
   49.6619    9.2439   12.0272 C   0  0  0  0  0  0  0  0  0  0  0  0
   47.7550    7.7274   12.4037 C   0  0  0  0  0  0  0  0  0  0  0  0
   45.7280    6.2302   12.6338 C   0  0  0  0  0  0  0  0  0  0  0  0
   47.0686    6.7102   13.0715 C   0  0  0  0  0  0  0  0  0  0  0  0
   50.9562    9.5919   12.3254 N   0  0  0  0  0  0  0  0  0  0  0  0
   45.4114    6.4030   11.3035 N   0  0  0  0  0  0  0  0  0  0  0  0
   49.6006    7.5642   13.9892 C   0  0  0  0  0  0  0  0  0  0  0  0
   49.0257    9.7829   11.1251 O   0  0  0  0  0  0  0  0  0  0  0  0
   44.9828    5.6827   13.4387 O   0  0  0  0  0  0  0  0  0  0  0  0
   52.7443   13.3397   14.2005 N   0  0  0  0  0  0  0  0  0  0  0  0
   44.6991    2.1291   10.3368 N   0  0  0  0  0  0  0  0  0  0  0  0
   47.6435    6.1315   14.2044 C   0  0  0  0  0  0  0  0  0  0  0  0
   48.8983    6.5511   14.6569 C   0  0  0  0  0  0  0  0  0  0  0  0
   51.5992   11.9149   12.6069 C   0  0  0  0  0  0  0  0  0  0  0  0
   44.4464    4.5289   10.0964 C   0  0  0  0  0  0  0  0  0  0  0  0
   44.1938    5.8570   10.7464 C   0  0  0  0  0  0  0  0  0  0  0  0
   51.6267   10.7126   11.7100 C   0  0  0  0  0  0  0  0  0  0  0  0
   50.8332    8.0120   14.3941 O   0  0  0  0  0  0  0  0  0  0  0  0
   44.4622    3.3586   10.8500 C   0  0  0  0  0  0  0  0  0  0  0  0
   52.7095   12.2800   13.3605 C   0  0  0  0  0  0  0  0  0  0  0  0
   51.6142   14.0728   14.2968 C   0  0  0  0  0  0  0  0  0  0  0  0
   44.9389    2.0606    9.0106 C   0  0  0  0  0  0  0  0  0  0  0  0
   50.4478   12.6963   12.7409 C   0  0  0  0  0  0  0  0  0  0  0  0
   44.7097    4.4167    8.7282 C   0  0  0  0  0  0  0  0  0  0  0  0
   51.3126    7.5821   15.6652 C   0  0  0  0  0  0  0  0  0  0  0  0
   50.4528   13.7938   13.5961 C   0  0  0  0  0  0  0  0  0  0  0  0
   44.9567    3.1639    8.1738 C   0  0  0  0  0  0  0  0  0  0  0  0
   47.3018    8.2198   11.5464 H   0  0  0  0  0  0  0  0  0  0  0  0
   51.3779    9.1745   13.1484 H   0  0  0  0  0  0  0  0  0  0  0  0
   46.1366    6.6606   10.6489 H   0  0  0  0  0  0  0  0  0  0  0  0
   47.1158    5.3441   14.7417 H   0  0  0  0  0  0  0  0  0  0  0  0
   49.2980    6.0570   15.5374 H   0  0  0  0  0  0  0  0  0  0  0  0
   43.4204    5.7655   11.5176 H   0  0  0  0  0  0  0  0  0  0  0  0
   43.8259    6.5773   10.0070 H   0  0  0  0  0  0  0  0  0  0  0  0
   52.6585   10.4014   11.5134 H   0  0  0  0  0  0  0  0  0  0  0  0
   51.1717   10.9543   10.7428 H   0  0  0  0  0  0  0  0  0  0  0  0
   44.2833    3.3795   11.9235 H   0  0  0  0  0  0  0  0  0  0  0  0
   53.6359   11.7135   13.3135 H   0  0  0  0  0  0  0  0  0  0  0  0
   51.6674   14.9185   14.9762 H   0  0  0  0  0  0  0  0  0  0  0  0
   45.1244    1.0622    8.6254 H   0  0  0  0  0  0  0  0  0  0  0  0
   49.5477   12.4468   12.1821 H   0  0  0  0  0  0  0  0  0  0  0  0
   44.7210    5.2968    8.0906 H   0  0  0  0  0  0  0  0  0  0  0  0
   50.6051    7.8316   16.4628 H   0  0  0  0  0  0  0  0  0  0  0  0
   52.2444    8.1191   15.8670 H   0  0  0  0  0  0  0  0  0  0  0  0
   51.5416    6.5118   15.6543 H   0  0  0  0  0  0  0  0  0  0  0  0
   49.5714   14.4138   13.7139 H   0  0  0  0  0  0  0  0  0  0  0  0
   45.1585    3.0497    7.1148 H   0  0  0  0  0  0  0  0  0  0  0  0
  2  1  1  0
  3  1  2  0
  4  5  1  0
  5  3  1  0
  6  2  1  0
  7  4  1  0
  8  1  1  0
  9  2  2  0
 10  4  2  0
 11 21  2  0
 12 20  2  0
 13 14  1  0
 14  8  2  0
 15 18  1  0
 16 17  1  0
 17  7  1  0
 18  6  1  0
 19  8  1  0
 20 16  1  0
 21 15  1  0
 22 27  2  0
 23 28  2  0
 24 15  2  0
 25 16  2  0
 26 19  1  0
 27 24  1  0
 28 25  1  0
  5 13  2  0
 11 22  1  0
 12 23  1  0
  3 29  1  0
  6 30  1  0
  7 31  1  0
 13 32  1  0
 14 33  1  0
 17 34  1  0
 17 35  1  0
 18 36  1  0
 18 37  1  0
 20 38  1  0
 21 39  1  0
 22 40  1  0
 23 41  1  0
 24 42  1  0
 25 43  1  0
 26 44  1  0
 26 45  1  0
 26 46  1  0
 27 47  1  0
 28 48  1  0
M  END
> <Uni-Dock RESULT> 
ENERGY=   -4.548  LOWER_BOUND=    3.980  UPPER_BOUND=    9.470
INTER + INTRA:          -4.548
INTER:                  -4.548
INTRA:                   0.000
UNBOUND:                 0.000

$$$$

     RDKit          3D

 48 50  0  0  0  0  0  0  0  0999 V2000
   48.1096    9.5341   17.4312 C   0  0  0  0  0  0  0  0  0  0  0  0
   48.3788    9.0628   16.0303 C   0  0  0  0  0  0  0  0  0  0  0  0
   48.0111    8.5210   18.4071 C   0  0  0  0  0  0  0  0  0  0  0  0
   47.6723    7.7925   20.8067 C   0  0  0  0  0  0  0  0  0  0  0  0
   47.7772    8.8354   19.7481 C   0  0  0  0  0  0  0  0  0  0  0  0
   48.6273   10.0147   15.0726 N   0  0  0  0  0  0  0  0  0  0  0  0
   48.3193    6.5991   20.5678 N   0  0  0  0  0  0  0  0  0  0  0  0
   47.9429   10.8843   17.8098 C   0  0  0  0  0  0  0  0  0  0  0  0
   48.3783    7.8601   15.7799 O   0  0  0  0  0  0  0  0  0  0  0  0
   47.0598    8.0321   21.8413 O   0  0  0  0  0  0  0  0  0  0  0  0
   46.1951   11.4349   11.4911 N   0  0  0  0  0  0  0  0  0  0  0  0
   50.9582    6.6677   24.1371 N   0  0  0  0  0  0  0  0  0  0  0  0
   47.6134   10.1724   20.1151 C   0  0  0  0  0  0  0  0  0  0  0  0
   47.6991   11.1871   19.1568 C   0  0  0  0  0  0  0  0  0  0  0  0
   47.4843    9.9713   12.9324 C   0  0  0  0  0  0  0  0  0  0  0  0
   49.6824    5.6528   22.3418 C   0  0  0  0  0  0  0  0  0  0  0  0
   48.3918    5.5705   21.5816 C   0  0  0  0  0  0  0  0  0  0  0  0
   48.7613    9.6975   13.6705 C   0  0  0  0  0  0  0  0  0  0  0  0
   48.0343   11.8431   16.8321 O   0  0  0  0  0  0  0  0  0  0  0  0
   49.8217    6.5271   23.4160 C   0  0  0  0  0  0  0  0  0  0  0  0
   47.3249   11.1204   12.1652 C   0  0  0  0  0  0  0  0  0  0  0  0
   45.1699   10.5611   11.5876 C   0  0  0  0  0  0  0  0  0  0  0  0
   52.0097    5.9069   23.7676 C   0  0  0  0  0  0  0  0  0  0  0  0
   46.3966    9.0967   13.0111 C   0  0  0  0  0  0  0  0  0  0  0  0
   50.7978    4.8900   21.9841 C   0  0  0  0  0  0  0  0  0  0  0  0
   47.6485   13.1734   17.1667 C   0  0  0  0  0  0  0  0  0  0  0  0
   45.2211    9.3919   12.3278 C   0  0  0  0  0  0  0  0  0  0  0  0
   51.9798    5.0147   22.7088 C   0  0  0  0  0  0  0  0  0  0  0  0
   48.0962    7.4820   18.0972 H   0  0  0  0  0  0  0  0  0  0  0  0
   48.5087   10.9877   15.3343 H   0  0  0  0  0  0  0  0  0  0  0  0
   48.9790    6.5348   19.8054 H   0  0  0  0  0  0  0  0  0  0  0  0
   47.4205   10.4324   21.1553 H   0  0  0  0  0  0  0  0  0  0  0  0
   47.5726   12.2083   19.5040 H   0  0  0  0  0  0  0  0  0  0  0  0
   47.5386    5.6386   22.2661 H   0  0  0  0  0  0  0  0  0  0  0  0
   48.3149    4.6055   21.0681 H   0  0  0  0  0  0  0  0  0  0  0  0
   49.5748   10.3170   13.2772 H   0  0  0  0  0  0  0  0  0  0  0  0
   49.0570    8.6511   13.5353 H   0  0  0  0  0  0  0  0  0  0  0  0
   48.9970    7.1625   23.7335 H   0  0  0  0  0  0  0  0  0  0  0  0
   48.1249   11.8493   12.0660 H   0  0  0  0  0  0  0  0  0  0  0  0
   44.2748   10.8350   11.0369 H   0  0  0  0  0  0  0  0  0  0  0  0
   52.9079    6.0389   24.3638 H   0  0  0  0  0  0  0  0  0  0  0  0
   46.4651    8.1888   13.6076 H   0  0  0  0  0  0  0  0  0  0  0  0
   50.7522    4.1976   21.1476 H   0  0  0  0  0  0  0  0  0  0  0  0
   46.6234   13.2061   17.5502 H   0  0  0  0  0  0  0  0  0  0  0  0
   47.6794   13.7683   16.2487 H   0  0  0  0  0  0  0  0  0  0  0  0
   48.3548   13.6181   17.8747 H   0  0  0  0  0  0  0  0  0  0  0  0
   44.3663    8.7269   12.3742 H   0  0  0  0  0  0  0  0  0  0  0  0
   52.8572    4.4308   22.4546 H   0  0  0  0  0  0  0  0  0  0  0  0
  2  1  1  0
  3  1  2  0
  4  5  1  0
  5  3  1  0
  6  2  1  0
  7  4  1  0
  8  1  1  0
  9  2  2  0
 10  4  2  0
 11 21  2  0
 12 20  2  0
 13 14  1  0
 14  8  2  0
 15 18  1  0
 16 17  1  0
 17  7  1  0
 18  6  1  0
 19  8  1  0
 20 16  1  0
 21 15  1  0
 22 27  2  0
 23 28  2  0
 24 15  2  0
 25 16  2  0
 26 19  1  0
 27 24  1  0
 28 25  1  0
  5 13  2  0
 11 22  1  0
 12 23  1  0
  3 29  1  0
  6 30  1  0
  7 31  1  0
 13 32  1  0
 14 33  1  0
 17 34  1  0
 17 35  1  0
 18 36  1  0
 18 37  1  0
 20 38  1  0
 21 39  1  0
 22 40  1  0
 23 41  1  0
 24 42  1  0
 25 43  1  0
 26 44  1  0
 26 45  1  0
 26 46  1  0
 27 47  1  0
 28 48  1  0
M  END
> <Uni-Dock RESULT> 
ENERGY=   -4.431  LOWER_BOUND=    6.597  UPPER_BOUND=   10.057
INTER + INTRA:          -4.431
INTER:                  -4.431
INTRA:                   0.000
UNBOUND:                 0.000

$$$$
