
     RDKit          3D

 48 50  0  0  0  0  0  0  0  0999 V2000
   47.1735    5.3777   14.0098 C   0  0  0  0  0  0  0  0  0  0  0  0
   47.5616    4.5842   15.2198 C   0  0  0  0  0  0  0  0  0  0  0  0
   46.3495    4.7270   13.0740 C   0  0  0  0  0  0  0  0  0  0  0  0
   45.0848    4.6317   10.9398 C   0  0  0  0  0  0  0  0  0  0  0  0
   45.9436    5.3746   11.9025 C   0  0  0  0  0  0  0  0  0  0  0  0
   48.6298    5.0369   15.9568 N   0  0  0  0  0  0  0  0  0  0  0  0
   45.2185    4.9781    9.6114 N   0  0  0  0  0  0  0  0  0  0  0  0
   47.5603    6.7129   13.7786 C   0  0  0  0  0  0  0  0  0  0  0  0
   46.9411    3.5677   15.5147 O   0  0  0  0  0  0  0  0  0  0  0  0
   44.3398    3.7451   11.3385 O   0  0  0  0  0  0  0  0  0  0  0  0
   46.6348    5.9426   19.7725 N   0  0  0  0  0  0  0  0  0  0  0  0
   46.9275    2.6135    6.0931 N   0  0  0  0  0  0  0  0  0  0  0  0
   46.3388    6.6949   11.6731 C   0  0  0  0  0  0  0  0  0  0  0  0
   47.1474    7.3562   12.6029 C   0  0  0  0  0  0  0  0  0  0  0  0
   48.4959    5.2755   18.3675 C   0  0  0  0  0  0  0  0  0  0  0  0
   45.4885    3.2282    7.9461 C   0  0  0  0  0  0  0  0  0  0  0  0
   44.5548    4.2232    8.5699 C   0  0  0  0  0  0  0  0  0  0  0  0
   48.9989    4.4474   17.2213 C   0  0  0  0  0  0  0  0  0  0  0  0
   48.3674    7.3317   14.7010 O   0  0  0  0  0  0  0  0  0  0  0  0
   46.0648    3.4592    6.7012 C   0  0  0  0  0  0  0  0  0  0  0  0
   47.1608    5.2166   18.7577 C   0  0  0  0  0  0  0  0  0  0  0  0
   47.4767    6.7679   20.4296 C   0  0  0  0  0  0  0  0  0  0  0  0
   47.2306    1.4771    6.7576 C   0  0  0  0  0  0  0  0  0  0  0  0
   49.3324    6.1513   19.0661 C   0  0  0  0  0  0  0  0  0  0  0  0
   45.8329    2.0426    8.6025 C   0  0  0  0  0  0  0  0  0  0  0  0
   48.1682    8.7376   14.8584 C   0  0  0  0  0  0  0  0  0  0  0  0
   48.8184    6.9077   20.1160 C   0  0  0  0  0  0  0  0  0  0  0  0
   46.7154    1.1510    8.0011 C   0  0  0  0  0  0  0  0  0  0  0  0
   46.0288    3.7006   13.2551 H   0  0  0  0  0  0  0  0  0  0  0  0
   49.0090    5.9491   15.7253 H   0  0  0  0  0  0  0  0  0  0  0  0
   46.0122    5.5370    9.3328 H   0  0  0  0  0  0  0  0  0  0  0  0
   46.0087    7.2333   10.7885 H   0  0  0  0  0  0  0  0  0  0  0  0
   47.4491    8.3758   12.3811 H   0  0  0  0  0  0  0  0  0  0  0  0
   43.6675    3.7135    8.9613 H   0  0  0  0  0  0  0  0  0  0  0  0
   44.2094    4.9471    7.8234 H   0  0  0  0  0  0  0  0  0  0  0  0
   48.6213    3.4218   17.3023 H   0  0  0  0  0  0  0  0  0  0  0  0
   50.0928    4.3922   17.2420 H   0  0  0  0  0  0  0  0  0  0  0  0
   45.8469    4.3608    6.1341 H   0  0  0  0  0  0  0  0  0  0  0  0
   46.4541    4.5664   18.2459 H   0  0  0  0  0  0  0  0  0  0  0  0
   47.0284    7.3331   21.2421 H   0  0  0  0  0  0  0  0  0  0  0  0
   47.9216    0.8120    6.2467 H   0  0  0  0  0  0  0  0  0  0  0  0
   50.3826    6.2457   18.8008 H   0  0  0  0  0  0  0  0  0  0  0  0
   45.4144    1.8142    9.5816 H   0  0  0  0  0  0  0  0  0  0  0  0
   48.6317    9.0346   15.8047 H   0  0  0  0  0  0  0  0  0  0  0  0
   48.6691    9.2898   14.0561 H   0  0  0  0  0  0  0  0  0  0  0  0
   47.1035    8.9945   14.9110 H   0  0  0  0  0  0  0  0  0  0  0  0
   49.4487    7.5877   20.6779 H   0  0  0  0  0  0  0  0  0  0  0  0
   46.9938    0.2254    8.4923 H   0  0  0  0  0  0  0  0  0  0  0  0
  2  1  1  0
  3  1  2  0
  4  5  1  0
  5  3  1  0
  6  2  1  0
  7  4  1  0
  8  1  1  0
  9  2  2  0
 10  4  2  0
 11 21  2  0
 12 20  2  0
 13 14  1  0
 14  8  2  0
 15 18  1  0
 16 17  1  0
 17  7  1  0
 18  6  1  0
 19  8  1  0
 20 16  1  0
 21 15  1  0
 22 27  2  0
 23 28  2  0
 24 15  2  0
 25 16  2  0
 26 19  1  0
 27 24  1  0
 28 25  1  0
  5 13  2  0
 11 22  1  0
 12 23  1  0
  3 29  1  0
  6 30  1  0
  7 31  1  0
 13 32  1  0
 14 33  1  0
 17 34  1  0
 17 35  1  0
 18 36  1  0
 18 37  1  0
 20 38  1  0
 21 39  1  0
 22 40  1  0
 23 41  1  0
 24 42  1  0
 25 43  1  0
 26 44  1  0
 26 45  1  0
 26 46  1  0
 27 47  1  0
 28 48  1  0
M  END
> <Uni-Dock RESULT> 
ENERGY=   -5.642  LOWER_BOUND=    0.000  UPPER_BOUND=    0.000
INTER + INTRA:          -5.642
INTER:                  -5.642
INTRA:                   0.000
UNBOUND:                 0.000

$$$$

     RDKit          3D

 48 50  0  0  0  0  0  0  0  0999 V2000
   47.1275    7.6260   13.1022 C   0  0  0  0  0  0  0  0  0  0  0  0
   46.5940    6.2563   13.3914 C   0  0  0  0  0  0  0  0  0  0  0  0
   46.1986    8.5719   12.6326 C   0  0  0  0  0  0  0  0  0  0  0  0
   45.5750   10.8296   11.8096 C   0  0  0  0  0  0  0  0  0  0  0  0
   46.5980    9.8750   12.3180 C   0  0  0  0  0  0  0  0  0  0  0  0
   47.5048    5.2324   13.4977 N   0  0  0  0  0  0  0  0  0  0  0  0
   46.0287   11.8076   10.9492 N   0  0  0  0  0  0  0  0  0  0  0  0
   48.4692    8.0120   13.2939 C   0  0  0  0  0  0  0  0  0  0  0  0
   45.3861    6.0791   13.5139 O   0  0  0  0  0  0  0  0  0  0  0  0
   44.4003   10.7004   12.1315 O   0  0  0  0  0  0  0  0  0  0  0  0
   46.9072    4.0714   17.6994 N   0  0  0  0  0  0  0  0  0  0  0  0
   45.2320   12.4309    6.4920 N   0  0  0  0  0  0  0  0  0  0  0  0
   47.9317   10.2495   12.4998 C   0  0  0  0  0  0  0  0  0  0  0  0
   48.8614    9.3210   12.9784 C   0  0  0  0  0  0  0  0  0  0  0  0
   47.4645    3.6900   15.3700 C   0  0  0  0  0  0  0  0  0  0  0  0
   44.8308   12.2170    8.8744 C   0  0  0  0  0  0  0  0  0  0  0  0
   45.1078   12.6937   10.2697 C   0  0  0  0  0  0  0  0  0  0  0  0
   47.1273    3.9062   13.9235 C   0  0  0  0  0  0  0  0  0  0  0  0
   49.3631    7.0750   13.7499 O   0  0  0  0  0  0  0  0  0  0  0  0
   45.4244   12.8234    7.7719 C   0  0  0  0  0  0  0  0  0  0  0  0
   46.6587    4.2157   16.3761 C   0  0  0  0  0  0  0  0  0  0  0  0
   48.0108    3.3721   18.0381 C   0  0  0  0  0  0  0  0  0  0  0  0
   44.4035   11.3817    6.2988 C   0  0  0  0  0  0  0  0  0  0  0  0
   48.6045    2.9820   15.7624 C   0  0  0  0  0  0  0  0  0  0  0  0
   43.9843   11.1312    8.6308 C   0  0  0  0  0  0  0  0  0  0  0  0
   50.4167    7.5711   14.5775 C   0  0  0  0  0  0  0  0  0  0  0  0
   48.8824    2.8159   17.1167 C   0  0  0  0  0  0  0  0  0  0  0  0
   43.7639   10.7059    7.3247 C   0  0  0  0  0  0  0  0  0  0  0  0
   45.1542    8.2872   12.5009 H   0  0  0  0  0  0  0  0  0  0  0  0
   48.4893    5.4775   13.5118 H   0  0  0  0  0  0  0  0  0  0  0  0
   46.9482   11.7088   10.5433 H   0  0  0  0  0  0  0  0  0  0  0  0
   48.2617   11.2650   12.2968 H   0  0  0  0  0  0  0  0  0  0  0  0
   49.8926    9.6438   13.0894 H   0  0  0  0  0  0  0  0  0  0  0  0
   44.1704   12.7872   10.8291 H   0  0  0  0  0  0  0  0  0  0  0  0
   45.5746   13.6848   10.2521 H   0  0  0  0  0  0  0  0  0  0  0  0
   46.0595    3.7278   13.7541 H   0  0  0  0  0  0  0  0  0  0  0  0
   47.6778    3.1988   13.2938 H   0  0  0  0  0  0  0  0  0  0  0  0
   46.0969   13.6703    7.8844 H   0  0  0  0  0  0  0  0  0  0  0  0
   45.7652    4.7892   16.1382 H   0  0  0  0  0  0  0  0  0  0  0  0
   48.1814    3.2677   19.1060 H   0  0  0  0  0  0  0  0  0  0  0  0
   44.2613   11.0885    5.2621 H   0  0  0  0  0  0  0  0  0  0  0  0
   49.2756    2.5555   15.0208 H   0  0  0  0  0  0  0  0  0  0  0  0
   43.4974   10.6167    9.4580 H   0  0  0  0  0  0  0  0  0  0  0  0
   50.8527    6.7179   15.1070 H   0  0  0  0  0  0  0  0  0  0  0  0
   51.2067    8.0212   13.9669 H   0  0  0  0  0  0  0  0  0  0  0  0
   50.0455    8.2784   15.3288 H   0  0  0  0  0  0  0  0  0  0  0  0
   49.7557    2.2642   17.4460 H   0  0  0  0  0  0  0  0  0  0  0  0
   43.1098    9.8672    7.1142 H   0  0  0  0  0  0  0  0  0  0  0  0
  2  1  1  0
  3  1  2  0
  4  5  1  0
  5  3  1  0
  6  2  1  0
  7  4  1  0
  8  1  1  0
  9  2  2  0
 10  4  2  0
 11 21  2  0
 12 20  2  0
 13 14  1  0
 14  8  2  0
 15 18  1  0
 16 17  1  0
 17  7  1  0
 18  6  1  0
 19  8  1  0
 20 16  1  0
 21 15  1  0
 22 27  2  0
 23 28  2  0
 24 15  2  0
 25 16  2  0
 26 19  1  0
 27 24  1  0
 28 25  1  0
  5 13  2  0
 11 22  1  0
 12 23  1  0
  3 29  1  0
  6 30  1  0
  7 31  1  0
 13 32  1  0
 14 33  1  0
 17 34  1  0
 17 35  1  0
 18 36  1  0
 18 37  1  0
 20 38  1  0
 21 39  1  0
 22 40  1  0
 23 41  1  0
 24 42  1  0
 25 43  1  0
 26 44  1  0
 26 45  1  0
 26 46  1  0
 27 47  1  0
 28 48  1  0
M  END
> <Uni-Dock RESULT> 
ENERGY=   -4.395  LOWER_BOUND=    4.228  UPPER_BOUND=    5.933
INTER + INTRA:          -4.395
INTER:                  -4.395
INTRA:                   0.000
UNBOUND:                 0.000

$$$$

     RDKit          3D

 48 50  0  0  0  0  0  0  0  0999 V2000
   44.8479    9.2951   11.6494 C   0  0  0  0  0  0  0  0  0  0  0  0
   44.0135   10.4641   11.2234 C   0  0  0  0  0  0  0  0  0  0  0  0
   46.1254    9.5918   12.1578 C   0  0  0  0  0  0  0  0  0  0  0  0
   48.3357    8.9425   13.0833 C   0  0  0  0  0  0  0  0  0  0  0  0
   46.9892    8.5710   12.5684 C   0  0  0  0  0  0  0  0  0  0  0  0
   42.9386   10.2090   10.4056 N   0  0  0  0  0  0  0  0  0  0  0  0
   49.3412    8.0205   12.8801 N   0  0  0  0  0  0  0  0  0  0  0  0
   44.4223    7.9530   11.5915 C   0  0  0  0  0  0  0  0  0  0  0  0
   44.3048   11.5966   11.5947 O   0  0  0  0  0  0  0  0  0  0  0  0
   48.5097   10.0296   13.6201 O   0  0  0  0  0  0  0  0  0  0  0  0
   39.6340   11.4753   13.0202 N   0  0  0  0  0  0  0  0  0  0  0  0
   53.0407    8.2165   10.2033 N   0  0  0  0  0  0  0  0  0  0  0  0
   46.5662    7.2413   12.4989 C   0  0  0  0  0  0  0  0  0  0  0  0
   45.2933    6.9354   12.0072 C   0  0  0  0  0  0  0  0  0  0  0  0
   40.7362   11.1029   10.8920 C   0  0  0  0  0  0  0  0  0  0  0  0
   51.4692    8.7611   11.9686 C   0  0  0  0  0  0  0  0  0  0  0  0
   50.7189    8.3328   13.1952 C   0  0  0  0  0  0  0  0  0  0  0  0
   41.9770   11.2269   10.0567 C   0  0  0  0  0  0  0  0  0  0  0  0
   43.1737    7.6813   11.0895 O   0  0  0  0  0  0  0  0  0  0  0  0
   52.3494    7.8995   11.3217 C   0  0  0  0  0  0  0  0  0  0  0  0
   40.7117   11.5647   12.2051 C   0  0  0  0  0  0  0  0  0  0  0  0
   38.5283   10.8978   12.5049 C   0  0  0  0  0  0  0  0  0  0  0  0
   52.8481    9.4568    9.7040 C   0  0  0  0  0  0  0  0  0  0  0  0
   39.5744   10.5005   10.3999 C   0  0  0  0  0  0  0  0  0  0  0  0
   51.2947   10.0336   11.4160 C   0  0  0  0  0  0  0  0  0  0  0  0
   42.5055    6.5545   11.6594 C   0  0  0  0  0  0  0  0  0  0  0  0
   38.4505   10.3983   11.2155 C   0  0  0  0  0  0  0  0  0  0  0  0
   51.9944   10.3903   10.2677 C   0  0  0  0  0  0  0  0  0  0  0  0
   46.4548   10.6291   12.2252 H   0  0  0  0  0  0  0  0  0  0  0  0
   42.6874    9.2388   10.2469 H   0  0  0  0  0  0  0  0  0  0  0  0
   49.1835    7.2659   12.2277 H   0  0  0  0  0  0  0  0  0  0  0  0
   47.2035    6.4313   12.8441 H   0  0  0  0  0  0  0  0  0  0  0  0
   45.0069    5.8891   11.9513 H   0  0  0  0  0  0  0  0  0  0  0  0
   50.7775    9.1113   13.9638 H   0  0  0  0  0  0  0  0  0  0  0  0
   51.1618    7.4249   13.6195 H   0  0  0  0  0  0  0  0  0  0  0  0
   42.4074   12.2287   10.1665 H   0  0  0  0  0  0  0  0  0  0  0  0
   41.7378   11.0917    8.9963 H   0  0  0  0  0  0  0  0  0  0  0  0
   52.5325    6.8937   11.6914 H   0  0  0  0  0  0  0  0  0  0  0  0
   41.5872   12.0300   12.6534 H   0  0  0  0  0  0  0  0  0  0  0  0
   37.6781   10.8452   13.1793 H   0  0  0  0  0  0  0  0  0  0  0  0
   53.4180    9.6893    8.8084 H   0  0  0  0  0  0  0  0  0  0  0  0
   39.5372   10.1139    9.3843 H   0  0  0  0  0  0  0  0  0  0  0  0
   50.6138   10.7460   11.8794 H   0  0  0  0  0  0  0  0  0  0  0  0
   41.4432    6.6362   11.4075 H   0  0  0  0  0  0  0  0  0  0  0  0
   42.8794    5.6229   11.2215 H   0  0  0  0  0  0  0  0  0  0  0  0
   42.5910    6.5406   12.7525 H   0  0  0  0  0  0  0  0  0  0  0  0
   37.5355    9.9427   10.8542 H   0  0  0  0  0  0  0  0  0  0  0  0
   51.8747   11.3726    9.8245 H   0  0  0  0  0  0  0  0  0  0  0  0
  2  1  1  0
  3  1  2  0
  4  5  1  0
  5  3  1  0
  6  2  1  0
  7  4  1  0
  8  1  1  0
  9  2  2  0
 10  4  2  0
 11 21  2  0
 12 20  2  0
 13 14  1  0
 14  8  2  0
 15 18  1  0
 16 17  1  0
 17  7  1  0
 18  6  1  0
 19  8  1  0
 20 16  1  0
 21 15  1  0
 22 27  2  0
 23 28  2  0
 24 15  2  0
 25 16  2  0
 26 19  1  0
 27 24  1  0
 28 25  1  0
  5 13  2  0
 11 22  1  0
 12 23  1  0
  3 29  1  0
  6 30  1  0
  7 31  1  0
 13 32  1  0
 14 33  1  0
 17 34  1  0
 17 35  1  0
 18 36  1  0
 18 37  1  0
 20 38  1  0
 21 39  1  0
 22 40  1  0
 23 41  1  0
 24 42  1  0
 25 43  1  0
 26 44  1  0
 26 45  1  0
 26 46  1  0
 27 47  1  0
 28 48  1  0
M  END
> <Uni-Dock RESULT> 
ENERGY=   -4.170  LOWER_BOUND=    5.536  UPPER_BOUND=    9.038
INTER + INTRA:          -4.170
INTER:                  -4.170
INTRA:                   0.000
UNBOUND:                 0.000

$$$$

     RDKit          3D

 48 50  0  0  0  0  0  0  0  0999 V2000
   55.2200    5.2571   11.4695 C   0  0  0  0  0  0  0  0  0  0  0  0
   54.9101    4.8290   10.0678 C   0  0  0  0  0  0  0  0  0  0  0  0
   55.9122    4.3286   12.2676 C   0  0  0  0  0  0  0  0  0  0  0  0
   56.9550    3.5976   14.3988 C   0  0  0  0  0  0  0  0  0  0  0  0
   56.2358    4.6244   13.5959 C   0  0  0  0  0  0  0  0  0  0  0  0
   53.9450    5.5349    9.3898 N   0  0  0  0  0  0  0  0  0  0  0  0
   56.7108    3.6048   15.7563 N   0  0  0  0  0  0  0  0  0  0  0  0
   54.8849    6.5157   12.0075 C   0  0  0  0  0  0  0  0  0  0  0  0
   55.5009    3.8758    9.5701 O   0  0  0  0  0  0  0  0  0  0  0  0
   57.6866    2.7863   13.8450 O   0  0  0  0  0  0  0  0  0  0  0  0
   56.3499    7.2223    6.1142 N   0  0  0  0  0  0  0  0  0  0  0  0
   54.5407    0.5643   18.3899 N   0  0  0  0  0  0  0  0  0  0  0  0
   55.8918    5.8698   14.1277 C   0  0  0  0  0  0  0  0  0  0  0  0
   55.2148    6.8057   13.3394 C   0  0  0  0  0  0  0  0  0  0  0  0
   54.3270    6.3663    7.1428 C   0  0  0  0  0  0  0  0  0  0  0  0
   56.1852    1.5161   16.8826 C   0  0  0  0  0  0  0  0  0  0  0  0
   57.2277    2.5615   16.6161 C   0  0  0  0  0  0  0  0  0  0  0  0
   53.6704    5.3159    7.9901 C   0  0  0  0  0  0  0  0  0  0  0  0
   54.2065    7.4086   11.2155 O   0  0  0  0  0  0  0  0  0  0  0  0
   55.5031    1.4674   18.0941 C   0  0  0  0  0  0  0  0  0  0  0  0
   55.6887    6.3053    6.8598 C   0  0  0  0  0  0  0  0  0  0  0  0
   55.6220    8.2497    5.6282 C   0  0  0  0  0  0  0  0  0  0  0  0
   54.2434   -0.3393   17.4310 C   0  0  0  0  0  0  0  0  0  0  0  0
   53.6112    7.4526    6.6305 C   0  0  0  0  0  0  0  0  0  0  0  0
   55.8434    0.5660   15.9153 C   0  0  0  0  0  0  0  0  0  0  0  0
   54.4955    8.7888   11.4452 C   0  0  0  0  0  0  0  0  0  0  0  0
   54.2655    8.4086    5.8580 C   0  0  0  0  0  0  0  0  0  0  0  0
   54.8596   -0.3781   16.1912 C   0  0  0  0  0  0  0  0  0  0  0  0
   56.1934    3.3601   11.8527 H   0  0  0  0  0  0  0  0  0  0  0  0
   53.5948    6.3850    9.8190 H   0  0  0  0  0  0  0  0  0  0  0  0
   55.9249    4.1344   16.1055 H   0  0  0  0  0  0  0  0  0  0  0  0
   56.1621    6.1391   15.1454 H   0  0  0  0  0  0  0  0  0  0  0  0
   54.9481    7.7559   13.7932 H   0  0  0  0  0  0  0  0  0  0  0  0
   58.1203    2.1008   16.1787 H   0  0  0  0  0  0  0  0  0  0  0  0
   57.5368    3.0434   17.5503 H   0  0  0  0  0  0  0  0  0  0  0  0
   53.9983    4.3184    7.6764 H   0  0  0  0  0  0  0  0  0  0  0  0
   52.5824    5.3524    7.8676 H   0  0  0  0  0  0  0  0  0  0  0  0
   55.7126    2.1760   18.8915 H   0  0  0  0  0  0  0  0  0  0  0  0
   56.3059    5.4941    7.2405 H   0  0  0  0  0  0  0  0  0  0  0  0
   56.1775    8.9662    5.0293 H   0  0  0  0  0  0  0  0  0  0  0  0
   53.4709   -1.0570   17.6941 H   0  0  0  0  0  0  0  0  0  0  0  0
   52.5467    7.5574    6.8255 H   0  0  0  0  0  0  0  0  0  0  0  0
   56.3428    0.5618   14.9476 H   0  0  0  0  0  0  0  0  0  0  0  0
   54.1435    9.3511   10.5743 H   0  0  0  0  0  0  0  0  0  0  0  0
   53.9489    9.1564   12.3202 H   0  0  0  0  0  0  0  0  0  0  0  0
   55.5726    8.9676   11.5472 H   0  0  0  0  0  0  0  0  0  0  0  0
   53.7308    9.2554    5.4430 H   0  0  0  0  0  0  0  0  0  0  0  0
   54.5811   -1.1244   15.4557 H   0  0  0  0  0  0  0  0  0  0  0  0
  2  1  1  0
  3  1  2  0
  4  5  1  0
  5  3  1  0
  6  2  1  0
  7  4  1  0
  8  1  1  0
  9  2  2  0
 10  4  2  0
 11 21  2  0
 12 20  2  0
 13 14  1  0
 14  8  2  0
 15 18  1  0
 16 17  1  0
 17  7  1  0
 18  6  1  0
 19  8  1  0
 20 16  1  0
 21 15  1  0
 22 27  2  0
 23 28  2  0
 24 15  2  0
 25 16  2  0
 26 19  1  0
 27 24  1  0
 28 25  1  0
  5 13  2  0
 11 22  1  0
 12 23  1  0
  3 29  1  0
  6 30  1  0
  7 31  1  0
 13 32  1  0
 14 33  1  0
 17 34  1  0
 17 35  1  0
 18 36  1  0
 18 37  1  0
 20 38  1  0
 21 39  1  0
 22 40  1  0
 23 41  1  0
 24 42  1  0
 25 43  1  0
 26 44  1  0
 26 45  1  0
 26 46  1  0
 27 47  1  0
 28 48  1  0
M  END
> <Uni-Dock RESULT> 
ENERGY=   -4.059  LOWER_BOUND=    8.438  UPPER_BOUND=   12.171
INTER + INTRA:          -4.059
INTER:                  -4.059
INTRA:                   0.000
UNBOUND:                 0.000

$$$$

     RDKit          3D

 48 50  0  0  0  0  0  0  0  0999 V2000
   46.8167    8.6062   13.4970 C   0  0  0  0  0  0  0  0  0  0  0  0
   47.8133    9.2923   14.3803 C   0  0  0  0  0  0  0  0  0  0  0  0
   46.0013    9.4395   12.7104 C   0  0  0  0  0  0  0  0  0  0  0  0
   44.1825    9.8294   11.0662 C   0  0  0  0  0  0  0  0  0  0  0  0
   45.0280    8.8990   11.8635 C   0  0  0  0  0  0  0  0  0  0  0  0
   48.3608    8.5580   15.4052 N   0  0  0  0  0  0  0  0  0  0  0  0
   42.9077    9.3928   10.7714 N   0  0  0  0  0  0  0  0  0  0  0  0
   46.6742    7.2077   13.3978 C   0  0  0  0  0  0  0  0  0  0  0  0
   48.1052   10.4675   14.1827 O   0  0  0  0  0  0  0  0  0  0  0  0
   44.6169   10.9268   10.7389 O   0  0  0  0  0  0  0  0  0  0  0  0
   52.5900    8.5310   14.1913 N   0  0  0  0  0  0  0  0  0  0  0  0
   38.8492   10.9062   12.2305 N   0  0  0  0  0  0  0  0  0  0  0  0
   44.8836    7.5121   11.7770 C   0  0  0  0  0  0  0  0  0  0  0  0
   45.6977    6.6733   12.5448 C   0  0  0  0  0  0  0  0  0  0  0  0
   50.7571    8.4951   15.7794 C   0  0  0  0  0  0  0  0  0  0  0  0
   41.0224   10.8785   11.1539 C   0  0  0  0  0  0  0  0  0  0  0  0
   41.9436   10.2680   10.1393 C   0  0  0  0  0  0  0  0  0  0  0  0
   49.4391    9.0600   16.2224 C   0  0  0  0  0  0  0  0  0  0  0  0
   47.4762    6.4094   14.1753 O   0  0  0  0  0  0  0  0  0  0  0  0
   39.7222   10.4133   11.3226 C   0  0  0  0  0  0  0  0  0  0  0  0
   51.4071    8.9986   14.6559 C   0  0  0  0  0  0  0  0  0  0  0  0
   53.1525    7.5130   14.8760 C   0  0  0  0  0  0  0  0  0  0  0  0
   39.2925   11.9168   13.0095 C   0  0  0  0  0  0  0  0  0  0  0  0
   51.3671    7.4330   16.4538 C   0  0  0  0  0  0  0  0  0  0  0  0
   41.4431   11.9220   11.9841 C   0  0  0  0  0  0  0  0  0  0  0  0
   47.8417    5.1513   13.6053 C   0  0  0  0  0  0  0  0  0  0  0  0
   52.5853    6.9347   15.9994 C   0  0  0  0  0  0  0  0  0  0  0  0
   40.5669   12.4524   12.9256 C   0  0  0  0  0  0  0  0  0  0  0  0
   46.1190   10.5222   12.7657 H   0  0  0  0  0  0  0  0  0  0  0  0
   48.1681    7.5621   15.4262 H   0  0  0  0  0  0  0  0  0  0  0  0
   42.5398    8.5957   11.2706 H   0  0  0  0  0  0  0  0  0  0  0  0
   44.1596    7.0647   11.1010 H   0  0  0  0  0  0  0  0  0  0  0  0
   45.5437    5.6011   12.4643 H   0  0  0  0  0  0  0  0  0  0  0  0
   42.4464   11.0542    9.5654 H   0  0  0  0  0  0  0  0  0  0  0  0
   41.3793    9.6570    9.4259 H   0  0  0  0  0  0  0  0  0  0  0  0
   49.4716   10.1552   16.2013 H   0  0  0  0  0  0  0  0  0  0  0  0
   49.2243    8.7623   17.2545 H   0  0  0  0  0  0  0  0  0  0  0  0
   39.3271    9.6023   10.7159 H   0  0  0  0  0  0  0  0  0  0  0  0
   50.9787    9.8148   14.0778 H   0  0  0  0  0  0  0  0  0  0  0  0
   54.1032    7.1626   14.4838 H   0  0  0  0  0  0  0  0  0  0  0  0
   38.5716   12.2989   13.7273 H   0  0  0  0  0  0  0  0  0  0  0  0
   50.9021    6.9936   17.3330 H   0  0  0  0  0  0  0  0  0  0  0  0
   42.4527   12.3210   11.8976 H   0  0  0  0  0  0  0  0  0  0  0  0
   48.6994    4.7687   14.1678 H   0  0  0  0  0  0  0  0  0  0  0  0
   47.0259    4.4284   13.7123 H   0  0  0  0  0  0  0  0  0  0  0  0
   48.1462    5.2525   12.5567 H   0  0  0  0  0  0  0  0  0  0  0  0
   53.0819    6.1172   16.5099 H   0  0  0  0  0  0  0  0  0  0  0  0
   40.8728   13.2629   13.5775 H   0  0  0  0  0  0  0  0  0  0  0  0
  2  1  1  0
  3  1  2  0
  4  5  1  0
  5  3  1  0
  6  2  1  0
  7  4  1  0
  8  1  1  0
  9  2  2  0
 10  4  2  0
 11 21  2  0
 12 20  2  0
 13 14  1  0
 14  8  2  0
 15 18  1  0
 16 17  1  0
 17  7  1  0
 18  6  1  0
 19  8  1  0
 20 16  1  0
 21 15  1  0
 22 27  2  0
 23 28  2  0
 24 15  2  0
 25 16  2  0
 26 19  1  0
 27 24  1  0
 28 25  1  0
  5 13  2  0
 11 22  1  0
 12 23  1  0
  3 29  1  0
  6 30  1  0
  7 31  1  0
 13 32  1  0
 14 33  1  0
 17 34  1  0
 17 35  1  0
 18 36  1  0
 18 37  1  0
 20 38  1  0
 21 39  1  0
 22 40  1  0
 23 41  1  0
 24 42  1  0
 25 43  1  0
 26 44  1  0
 26 45  1  0
 26 46  1  0
 27 47  1  0
 28 48  1  0
M  END
> <Uni-Dock RESULT> 
ENERGY=   -4.038  LOWER_BOUND=    4.858  UPPER_BOUND=    7.275
INTER + INTRA:          -4.038
INTER:                  -4.038
INTRA:                   0.000
UNBOUND:                 0.000

$$$$

     RDKit          3D

 48 50  0  0  0  0  0  0  0  0999 V2000
   51.1665    4.5503   17.9774 C   0  0  0  0  0  0  0  0  0  0  0  0
   51.3273    6.0085   18.2804 C   0  0  0  0  0  0  0  0  0  0  0  0
   52.2859    3.7344   18.2218 C   0  0  0  0  0  0  0  0  0  0  0  0
   53.4644    1.5493   18.2198 C   0  0  0  0  0  0  0  0  0  0  0  0
   52.2448    2.3615   17.9571 C   0  0  0  0  0  0  0  0  0  0  0  0
   50.4124    6.8735   17.7290 N   0  0  0  0  0  0  0  0  0  0  0  0
   53.6426    0.4411   17.4181 N   0  0  0  0  0  0  0  0  0  0  0  0
   49.9778    3.9658   17.4966 C   0  0  0  0  0  0  0  0  0  0  0  0
   52.2538    6.3922   18.9873 O   0  0  0  0  0  0  0  0  0  0  0  0
   54.2598    1.8971   19.0838 O   0  0  0  0  0  0  0  0  0  0  0  0
   48.5295    8.4661   21.3729 N   0  0  0  0  0  0  0  0  0  0  0  0
   56.7785   -0.4147   14.2050 N   0  0  0  0  0  0  0  0  0  0  0  0
   51.0669    1.7888   17.4704 C   0  0  0  0  0  0  0  0  0  0  0  0
   49.9437    2.5882   17.2359 C   0  0  0  0  0  0  0  0  0  0  0  0
   49.2882    8.5533   19.0709 C   0  0  0  0  0  0  0  0  0  0  0  0
   55.8048    0.0619   16.3746 C   0  0  0  0  0  0  0  0  0  0  0  0
   54.8631   -0.3349   17.4731 C   0  0  0  0  0  0  0  0  0  0  0  0
   50.3728    8.2748   18.0716 C   0  0  0  0  0  0  0  0  0  0  0  0
   48.8960    4.7775   17.2606 O   0  0  0  0  0  0  0  0  0  0  0  0
   55.9621   -0.7246   15.2379 C   0  0  0  0  0  0  0  0  0  0  0  0
   49.4667    8.2541   20.4187 C   0  0  0  0  0  0  0  0  0  0  0  0
   47.3583    8.9999   20.9667 C   0  0  0  0  0  0  0  0  0  0  0  0
   57.4768    0.7367   14.3100 C   0  0  0  0  0  0  0  0  0  0  0  0
   48.0566    9.0941   18.6893 C   0  0  0  0  0  0  0  0  0  0  0  0
   56.5420    1.2481   16.4410 C   0  0  0  0  0  0  0  0  0  0  0  0
   47.6143    4.1858   17.4803 C   0  0  0  0  0  0  0  0  0  0  0  0
   47.0760    9.3253   19.6504 C   0  0  0  0  0  0  0  0  0  0  0  0
   57.3928    1.5925   15.3957 C   0  0  0  0  0  0  0  0  0  0  0  0
   53.2032    4.1753   18.6132 H   0  0  0  0  0  0  0  0  0  0  0  0
   49.6050    6.4715   17.2642 H   0  0  0  0  0  0  0  0  0  0  0  0
   53.0844    0.3525   16.5811 H   0  0  0  0  0  0  0  0  0  0  0  0
   50.9964    0.7194   17.2896 H   0  0  0  0  0  0  0  0  0  0  0  0
   49.0522    2.1102   16.8401 H   0  0  0  0  0  0  0  0  0  0  0  0
   55.3527   -0.2252   18.4471 H   0  0  0  0  0  0  0  0  0  0  0  0
   54.5756   -1.3873   17.3719 H   0  0  0  0  0  0  0  0  0  0  0  0
   51.3402    8.6120   18.4607 H   0  0  0  0  0  0  0  0  0  0  0  0
   50.1870    8.8263   17.1435 H   0  0  0  0  0  0  0  0  0  0  0  0
   55.4188   -1.6582   15.1148 H   0  0  0  0  0  0  0  0  0  0  0  0
   50.3961    7.8178   20.7791 H   0  0  0  0  0  0  0  0  0  0  0  0
   46.6281    9.1641   21.7544 H   0  0  0  0  0  0  0  0  0  0  0  0
   58.1290    0.9612   13.4703 H   0  0  0  0  0  0  0  0  0  0  0  0
   47.8569    9.3402   17.6492 H   0  0  0  0  0  0  0  0  0  0  0  0
   56.4530    1.9035   17.3062 H   0  0  0  0  0  0  0  0  0  0  0  0
   46.8833    4.9969   17.5590 H   0  0  0  0  0  0  0  0  0  0  0  0
   47.3267    3.5618   16.6273 H   0  0  0  0  0  0  0  0  0  0  0  0
   47.5845    3.6151   18.4162 H   0  0  0  0  0  0  0  0  0  0  0  0
   46.1162    9.7511   19.3807 H   0  0  0  0  0  0  0  0  0  0  0  0
   57.9746    2.5069   15.4284 H   0  0  0  0  0  0  0  0  0  0  0  0
  2  1  1  0
  3  1  2  0
  4  5  1  0
  5  3  1  0
  6  2  1  0
  7  4  1  0
  8  1  1  0
  9  2  2  0
 10  4  2  0
 11 21  2  0
 12 20  2  0
 13 14  1  0
 14  8  2  0
 15 18  1  0
 16 17  1  0
 17  7  1  0
 18  6  1  0
 19  8  1  0
 20 16  1  0
 21 15  1  0
 22 27  2  0
 23 28  2  0
 24 15  2  0
 25 16  2  0
 26 19  1  0
 27 24  1  0
 28 25  1  0
  5 13  2  0
 11 22  1  0
 12 23  1  0
  3 29  1  0
  6 30  1  0
  7 31  1  0
 13 32  1  0
 14 33  1  0
 17 34  1  0
 17 35  1  0
 18 36  1  0
 18 37  1  0
 20 38  1  0
 21 39  1  0
 22 40  1  0
 23 41  1  0
 24 42  1  0
 25 43  1  0
 26 44  1  0
 26 45  1  0
 26 46  1  0
 27 47  1  0
 28 48  1  0
M  END
> <Uni-Dock RESULT> 
ENERGY=   -3.998  LOWER_BOUND=    6.613  UPPER_BOUND=    8.980
INTER + INTRA:          -3.998
INTER:                  -3.998
INTRA:                   0.000
UNBOUND:                 0.000

$$$$

     RDKit          3D

 48 50  0  0  0  0  0  0  0  0999 V2000
   49.5477    7.8341   14.4956 C   0  0  0  0  0  0  0  0  0  0  0  0
   49.8879    7.7770   15.9534 C   0  0  0  0  0  0  0  0  0  0  0  0
   48.1795    7.7975   14.1716 C   0  0  0  0  0  0  0  0  0  0  0  0
   46.2965    7.7717   12.5539 C   0  0  0  0  0  0  0  0  0  0  0  0
   47.7565    7.8294   12.8387 C   0  0  0  0  0  0  0  0  0  0  0  0
   51.1801    7.4497   16.2888 N   0  0  0  0  0  0  0  0  0  0  0  0
   45.9315    7.1842   11.3605 N   0  0  0  0  0  0  0  0  0  0  0  0
   50.4994    7.9441   13.4621 C   0  0  0  0  0  0  0  0  0  0  0  0
   49.0266    8.0073   16.7964 O   0  0  0  0  0  0  0  0  0  0  0  0
   45.4933    8.2001   13.3733 O   0  0  0  0  0  0  0  0  0  0  0  0
   52.4479   11.1621   18.2812 N   0  0  0  0  0  0  0  0  0  0  0  0
   43.7283    3.2640   10.5429 N   0  0  0  0  0  0  0  0  0  0  0  0
   48.7048    7.9277   11.8174 C   0  0  0  0  0  0  0  0  0  0  0  0
   50.0673    7.9779   12.1284 C   0  0  0  0  0  0  0  0  0  0  0  0
   52.4497    8.7703   17.8795 C   0  0  0  0  0  0  0  0  0  0  0  0
   44.1707    5.5087   11.3480 C   0  0  0  0  0  0  0  0  0  0  0  0
   44.5420    6.9303   11.0446 C   0  0  0  0  0  0  0  0  0  0  0  0
   51.6635    7.5131   17.6470 C   0  0  0  0  0  0  0  0  0  0  0  0
   51.8306    7.9753   13.7963 O   0  0  0  0  0  0  0  0  0  0  0  0
   44.0412    4.5634   10.3355 C   0  0  0  0  0  0  0  0  0  0  0  0
   51.8048    9.9879   18.0783 C   0  0  0  0  0  0  0  0  0  0  0  0
   53.7970   11.1236   18.2852 C   0  0  0  0  0  0  0  0  0  0  0  0
   43.5314    2.8861   11.8248 C   0  0  0  0  0  0  0  0  0  0  0  0
   53.8479    8.7750   17.8791 C   0  0  0  0  0  0  0  0  0  0  0  0
   43.9637    5.0749   12.6610 C   0  0  0  0  0  0  0  0  0  0  0  0
   52.6679    8.7587   12.9440 C   0  0  0  0  0  0  0  0  0  0  0  0
   54.5346    9.9680   18.0885 C   0  0  0  0  0  0  0  0  0  0  0  0
   43.6374    3.7449   12.9062 C   0  0  0  0  0  0  0  0  0  0  0  0
   47.4356    7.7331   14.9663 H   0  0  0  0  0  0  0  0  0  0  0  0
   51.8626    7.3994   15.5397 H   0  0  0  0  0  0  0  0  0  0  0  0
   46.6190    6.6443   10.8547 H   0  0  0  0  0  0  0  0  0  0  0  0
   48.4022    7.9898   10.7752 H   0  0  0  0  0  0  0  0  0  0  0  0
   50.7754    8.0357   11.3066 H   0  0  0  0  0  0  0  0  0  0  0  0
   43.8851    7.6162   11.5909 H   0  0  0  0  0  0  0  0  0  0  0  0
   44.4148    7.1416    9.9770 H   0  0  0  0  0  0  0  0  0  0  0  0
   50.8360    7.4476   18.3624 H   0  0  0  0  0  0  0  0  0  0  0  0
   52.2968    6.6330   17.8031 H   0  0  0  0  0  0  0  0  0  0  0  0
   44.1911    4.8267    9.2914 H   0  0  0  0  0  0  0  0  0  0  0  0
   50.7188   10.0555   18.0753 H   0  0  0  0  0  0  0  0  0  0  0  0
   54.2856   12.0789   18.4560 H   0  0  0  0  0  0  0  0  0  0  0  0
   43.2765    1.8391   11.9652 H   0  0  0  0  0  0  0  0  0  0  0  0
   54.4059    7.8554   17.7209 H   0  0  0  0  0  0  0  0  0  0  0  0
   44.0573    5.7723   13.4921 H   0  0  0  0  0  0  0  0  0  0  0  0
   53.6036    8.9474   13.4801 H   0  0  0  0  0  0  0  0  0  0  0  0
   52.9144    8.2051   12.0316 H   0  0  0  0  0  0  0  0  0  0  0  0
   52.2147    9.7290   12.7082 H   0  0  0  0  0  0  0  0  0  0  0  0
   55.6184    9.9960   18.1008 H   0  0  0  0  0  0  0  0  0  0  0  0
   43.4711    3.3888   13.9166 H   0  0  0  0  0  0  0  0  0  0  0  0
  2  1  1  0
  3  1  2  0
  4  5  1  0
  5  3  1  0
  6  2  1  0
  7  4  1  0
  8  1  1  0
  9  2  2  0
 10  4  2  0
 11 21  2  0
 12 20  2  0
 13 14  1  0
 14  8  2  0
 15 18  1  0
 16 17  1  0
 17  7  1  0
 18  6  1  0
 19  8  1  0
 20 16  1  0
 21 15  1  0
 22 27  2  0
 23 28  2  0
 24 15  2  0
 25 16  2  0
 26 19  1  0
 27 24  1  0
 28 25  1  0
  5 13  2  0
 11 22  1  0
 12 23  1  0
  3 29  1  0
  6 30  1  0
  7 31  1  0
 13 32  1  0
 14 33  1  0
 17 34  1  0
 17 35  1  0
 18 36  1  0
 18 37  1  0
 20 38  1  0
 21 39  1  0
 22 40  1  0
 23 41  1  0
 24 42  1  0
 25 43  1  0
 26 44  1  0
 26 45  1  0
 26 46  1  0
 27 47  1  0
 28 48  1  0
M  END
> <Uni-Dock RESULT> 
ENERGY=   -3.936  LOWER_BOUND=    3.662  UPPER_BOUND=    4.945
INTER + INTRA:          -3.936
INTER:                  -3.936
INTRA:                   0.000
UNBOUND:                 0.000

$$$$

     RDKit          3D

 48 50  0  0  0  0  0  0  0  0999 V2000
   45.8670   10.4973   11.9115 C   0  0  0  0  0  0  0  0  0  0  0  0
   46.2648    9.1085   12.3078 C   0  0  0  0  0  0  0  0  0  0  0  0
   46.9010   11.4485   11.8460 C   0  0  0  0  0  0  0  0  0  0  0  0
   47.7639   13.7448   11.4635 C   0  0  0  0  0  0  0  0  0  0  0  0
   46.6330   12.7774   11.5012 C   0  0  0  0  0  0  0  0  0  0  0  0
   45.2678    8.2610   12.7286 N   0  0  0  0  0  0  0  0  0  0  0  0
   47.4532   15.0567   11.7547 N   0  0  0  0  0  0  0  0  0  0  0  0
   44.5514   10.8840   11.5864 C   0  0  0  0  0  0  0  0  0  0  0  0
   47.4425    8.7678   12.2598 O   0  0  0  0  0  0  0  0  0  0  0  0
   48.8986   13.3541   11.2185 O   0  0  0  0  0  0  0  0  0  0  0  0
   45.4730    5.1770    9.5971 N   0  0  0  0  0  0  0  0  0  0  0  0
   48.6079   17.6468   15.3391 N   0  0  0  0  0  0  0  0  0  0  0  0
   45.3251   13.1579   11.1903 C   0  0  0  0  0  0  0  0  0  0  0  0
   44.2911   12.2176   11.2395 C   0  0  0  0  0  0  0  0  0  0  0  0
   45.0503    6.0168   11.8328 C   0  0  0  0  0  0  0  0  0  0  0  0
   48.8228   16.2791   13.3477 C   0  0  0  0  0  0  0  0  0  0  0  0
   48.4890   16.0569   11.9020 C   0  0  0  0  0  0  0  0  0  0  0  0
   45.5044    6.8612   12.9876 C   0  0  0  0  0  0  0  0  0  0  0  0
   43.5540    9.9434   11.6588 O   0  0  0  0  0  0  0  0  0  0  0  0
   48.3595   17.3975   14.0332 C   0  0  0  0  0  0  0  0  0  0  0  0
   45.8243    5.9091   10.6807 C   0  0  0  0  0  0  0  0  0  0  0  0
   44.2947    4.5219    9.6620 C   0  0  0  0  0  0  0  0  0  0  0  0
   49.3590   16.7367   15.9967 C   0  0  0  0  0  0  0  0  0  0  0  0
   43.8314    5.3323   11.8556 C   0  0  0  0  0  0  0  0  0  0  0  0
   49.5922   15.3592   14.0667 C   0  0  0  0  0  0  0  0  0  0  0  0
   42.4894   10.0917   10.7176 C   0  0  0  0  0  0  0  0  0  0  0  0
   43.4469    4.5694   10.7561 C   0  0  0  0  0  0  0  0  0  0  0  0
   49.8676   15.5895   15.4108 C   0  0  0  0  0  0  0  0  0  0  0  0
   47.9251   11.1530   12.0761 H   0  0  0  0  0  0  0  0  0  0  0  0
   44.3081    8.5720   12.6193 H   0  0  0  0  0  0  0  0  0  0  0  0
   46.5593   15.2617   12.1777 H   0  0  0  0  0  0  0  0  0  0  0  0
   45.0946   14.1753   10.8851 H   0  0  0  0  0  0  0  0  0  0  0  0
   43.2847   12.5550   11.0088 H   0  0  0  0  0  0  0  0  0  0  0  0
   49.3895   15.7721   11.3468 H   0  0  0  0  0  0  0  0  0  0  0  0
   48.1075   16.9789   11.4492 H   0  0  0  0  0  0  0  0  0  0  0  0
   46.5632    6.6738   13.1989 H   0  0  0  0  0  0  0  0  0  0  0  0
   44.9431    6.6034   13.8923 H   0  0  0  0  0  0  0  0  0  0  0  0
   47.7526   18.1532   13.5406 H   0  0  0  0  0  0  0  0  0  0  0  0
   46.7764    6.4286   10.5929 H   0  0  0  0  0  0  0  0  0  0  0  0
   44.0419    3.9384    8.7810 H   0  0  0  0  0  0  0  0  0  0  0  0
   49.5488   16.9616   17.0428 H   0  0  0  0  0  0  0  0  0  0  0  0
   43.1811    5.3857   12.7253 H   0  0  0  0  0  0  0  0  0  0  0  0
   49.9762   14.4638   13.5802 H   0  0  0  0  0  0  0  0  0  0  0  0
   41.9489    9.1406   10.6752 H   0  0  0  0  0  0  0  0  0  0  0  0
   41.7836   10.8595   11.0521 H   0  0  0  0  0  0  0  0  0  0  0  0
   42.8640   10.3100    9.7104 H   0  0  0  0  0  0  0  0  0  0  0  0
   42.5104    4.0232   10.7529 H   0  0  0  0  0  0  0  0  0  0  0  0
   50.4638   14.8897   15.9856 H   0  0  0  0  0  0  0  0  0  0  0  0
  2  1  1  0
  3  1  2  0
  4  5  1  0
  5  3  1  0
  6  2  1  0
  7  4  1  0
  8  1  1  0
  9  2  2  0
 10  4  2  0
 11 21  2  0
 12 20  2  0
 13 14  1  0
 14  8  2  0
 15 18  1  0
 16 17  1  0
 17  7  1  0
 18  6  1  0
 19  8  1  0
 20 16  1  0
 21 15  1  0
 22 27  2  0
 23 28  2  0
 24 15  2  0
 25 16  2  0
 26 19  1  0
 27 24  1  0
 28 25  1  0
  5 13  2  0
 11 22  1  0
 12 23  1  0
  3 29  1  0
  6 30  1  0
  7 31  1  0
 13 32  1  0
 14 33  1  0
 17 34  1  0
 17 35  1  0
 18 36  1  0
 18 37  1  0
 20 38  1  0
 21 39  1  0
 22 40  1  0
 23 41  1  0
 24 42  1  0
 25 43  1  0
 26 44  1  0
 26 45  1  0
 26 46  1  0
 27 47  1  0
 28 48  1  0
M  END
> <Uni-Dock RESULT> 
ENERGY=   -3.897  LOWER_BOUND=    5.921  UPPER_BOUND=   10.540
INTER + INTRA:          -3.897
INTER:                  -3.897
INTRA:                   0.000
UNBOUND:                 0.000

$$$$

     RDKit          3D

 48 50  0  0  0  0  0  0  0  0999 V2000
   48.1270    9.5422   18.0953 C   0  0  0  0  0  0  0  0  0  0  0  0
   47.7160   10.8505   18.6984 C   0  0  0  0  0  0  0  0  0  0  0  0
   48.1773    9.4903   16.6907 C   0  0  0  0  0  0  0  0  0  0  0  0
   48.5549    8.3093   14.5398 C   0  0  0  0  0  0  0  0  0  0  0  0
   48.5341    8.3111   16.0284 C   0  0  0  0  0  0  0  0  0  0  0  0
   47.3102   10.8415   20.0117 N   0  0  0  0  0  0  0  0  0  0  0  0
   48.2766    7.1047   13.9282 N   0  0  0  0  0  0  0  0  0  0  0  0
   48.4796    8.4000   18.8416 C   0  0  0  0  0  0  0  0  0  0  0  0
   47.7392   11.8745   18.0230 O   0  0  0  0  0  0  0  0  0  0  0  0
   48.7757    9.3467   13.9273 O   0  0  0  0  0  0  0  0  0  0  0  0
   50.4212   13.3730   21.8209 N   0  0  0  0  0  0  0  0  0  0  0  0
   44.6838    5.8238   11.4101 N   0  0  0  0  0  0  0  0  0  0  0  0
   48.8724    7.1783   16.7730 C   0  0  0  0  0  0  0  0  0  0  0  0
   48.8385    7.2221   18.1703 C   0  0  0  0  0  0  0  0  0  0  0  0
   48.1984   12.4228   21.6231 C   0  0  0  0  0  0  0  0  0  0  0  0
   46.6635    7.0367   12.1113 C   0  0  0  0  0  0  0  0  0  0  0  0
   48.1143    7.0132   12.4929 C   0  0  0  0  0  0  0  0  0  0  0  0
   47.0394   12.0558   20.7430 C   0  0  0  0  0  0  0  0  0  0  0  0
   48.4218    8.4674   20.2116 O   0  0  0  0  0  0  0  0  0  0  0  0
   45.9930    5.8738   11.7459 C   0  0  0  0  0  0  0  0  0  0  0  0
   49.3347   13.0259   21.0910 C   0  0  0  0  0  0  0  0  0  0  0  0
   50.3758   13.1060   23.1432 C   0  0  0  0  0  0  0  0  0  0  0  0
   44.0071    6.9925   11.4367 C   0  0  0  0  0  0  0  0  0  0  0  0
   48.1958   12.1526   22.9949 C   0  0  0  0  0  0  0  0  0  0  0  0
   45.9250    8.2239   12.1310 C   0  0  0  0  0  0  0  0  0  0  0  0
   49.3843    7.6796   20.9146 C   0  0  0  0  0  0  0  0  0  0  0  0
   49.2986   12.5018   23.7699 C   0  0  0  0  0  0  0  0  0  0  0  0
   44.5771    8.2050   11.7874 C   0  0  0  0  0  0  0  0  0  0  0  0
   47.9259   10.3757   16.1060 H   0  0  0  0  0  0  0  0  0  0  0  0
   47.4397    9.9842   20.5388 H   0  0  0  0  0  0  0  0  0  0  0  0
   47.8721    6.3619   14.4801 H   0  0  0  0  0  0  0  0  0  0  0  0
   49.1873    6.2597   16.2847 H   0  0  0  0  0  0  0  0  0  0  0  0
   49.0904    6.3164   18.7145 H   0  0  0  0  0  0  0  0  0  0  0  0
   48.6504    7.8232   11.9862 H   0  0  0  0  0  0  0  0  0  0  0  0
   48.5792    6.0717   12.1797 H   0  0  0  0  0  0  0  0  0  0  0  0
   46.8066   12.8817   20.0614 H   0  0  0  0  0  0  0  0  0  0  0  0
   46.1445   11.8728   21.3476 H   0  0  0  0  0  0  0  0  0  0  0  0
   46.5012    4.9134   11.7116 H   0  0  0  0  0  0  0  0  0  0  0  0
   49.4067   13.2497   20.0286 H   0  0  0  0  0  0  0  0  0  0  0  0
   51.2585   13.4006   23.7041 H   0  0  0  0  0  0  0  0  0  0  0  0
   42.9586    6.9272   11.1584 H   0  0  0  0  0  0  0  0  0  0  0  0
   47.3392   11.6756   23.4650 H   0  0  0  0  0  0  0  0  0  0  0  0
   46.3994    9.1623   12.4143 H   0  0  0  0  0  0  0  0  0  0  0  0
   49.4323    8.0533   21.9425 H   0  0  0  0  0  0  0  0  0  0  0  0
   49.0675    6.6320   20.9571 H   0  0  0  0  0  0  0  0  0  0  0  0
   50.3851    7.7731   20.4764 H   0  0  0  0  0  0  0  0  0  0  0  0
   49.3172   12.3100   24.8368 H   0  0  0  0  0  0  0  0  0  0  0  0
   43.9871    9.1147   11.7945 H   0  0  0  0  0  0  0  0  0  0  0  0
  2  1  1  0
  3  1  2  0
  4  5  1  0
  5  3  1  0
  6  2  1  0
  7  4  1  0
  8  1  1  0
  9  2  2  0
 10  4  2  0
 11 21  2  0
 12 20  2  0
 13 14  1  0
 14  8  2  0
 15 18  1  0
 16 17  1  0
 17  7  1  0
 18  6  1  0
 19  8  1  0
 20 16  1  0
 21 15  1  0
 22 27  2  0
 23 28  2  0
 24 15  2  0
 25 16  2  0
 26 19  1  0
 27 24  1  0
 28 25  1  0
  5 13  2  0
 11 22  1  0
 12 23  1  0
  3 29  1  0
  6 30  1  0
  7 31  1  0
 13 32  1  0
 14 33  1  0
 17 34  1  0
 17 35  1  0
 18 36  1  0
 18 37  1  0
 20 38  1  0
 21 39  1  0
 22 40  1  0
 23 41  1  0
 24 42  1  0
 25 43  1  0
 26 44  1  0
 26 45  1  0
 26 46  1  0
 27 47  1  0
 28 48  1  0
M  END
> <Uni-Dock RESULT> 
ENERGY=   -3.783  LOWER_BOUND=    4.122  UPPER_BOUND=    6.922
INTER + INTRA:          -3.783
INTER:                  -3.783
INTRA:                   0.000
UNBOUND:                 0.000

$$$$
