
     RDKit          3D

 48 50  0  0  0  0  0  0  0  0999 V2000
   47.3576    5.4718   14.4099 C   0  0  0  0  0  0  0  0  0  0  0  0
   47.3362    4.5579   15.5981 C   0  0  0  0  0  0  0  0  0  0  0  0
   46.4976    5.1201   13.3509 C   0  0  0  0  0  0  0  0  0  0  0  0
   45.5532    5.5467   11.0448 C   0  0  0  0  0  0  0  0  0  0  0  0
   46.4478    5.8886   12.1853 C   0  0  0  0  0  0  0  0  0  0  0  0
   47.8798    5.0284   16.7683 N   0  0  0  0  0  0  0  0  0  0  0  0
   45.2044    4.2202   10.9093 N   0  0  0  0  0  0  0  0  0  0  0  0
   48.1804    6.6119   14.2935 C   0  0  0  0  0  0  0  0  0  0  0  0
   46.8370    3.4403   15.4970 O   0  0  0  0  0  0  0  0  0  0  0  0
   45.1929    6.4229   10.2669 O   0  0  0  0  0  0  0  0  0  0  0  0
   51.7066    3.8589   18.9141 N   0  0  0  0  0  0  0  0  0  0  0  0
   46.8191    3.6416    6.8129 N   0  0  0  0  0  0  0  0  0  0  0  0
   47.2415    7.0338   12.0887 C   0  0  0  0  0  0  0  0  0  0  0  0
   48.1004    7.3924   13.1324 C   0  0  0  0  0  0  0  0  0  0  0  0
   49.4676    3.6704   18.0019 C   0  0  0  0  0  0  0  0  0  0  0  0
   45.3649    3.2113    8.7052 C   0  0  0  0  0  0  0  0  0  0  0  0
   44.4529    3.7568    9.7641 C   0  0  0  0  0  0  0  0  0  0  0  0
   48.0629    4.1934   17.9316 C   0  0  0  0  0  0  0  0  0  0  0  0
   49.0113    6.9154   15.3426 O   0  0  0  0  0  0  0  0  0  0  0  0
   45.9735    4.0588    7.7838 C   0  0  0  0  0  0  0  0  0  0  0  0
   50.4201    4.2666   18.8212 C   0  0  0  0  0  0  0  0  0  0  0  0
   52.0636    2.8040   18.1502 C   0  0  0  0  0  0  0  0  0  0  0  0
   47.0777    2.3183    6.7604 C   0  0  0  0  0  0  0  0  0  0  0  0
   49.8805    2.5868   17.2213 C   0  0  0  0  0  0  0  0  0  0  0  0
   45.6669    1.8489    8.6239 C   0  0  0  0  0  0  0  0  0  0  0  0
   50.0807    7.8230   15.0905 C   0  0  0  0  0  0  0  0  0  0  0  0
   51.1969    2.1425   17.2965 C   0  0  0  0  0  0  0  0  0  0  0  0
   46.5337    1.3926    7.6350 C   0  0  0  0  0  0  0  0  0  0  0  0
   45.8493    4.2543   13.4657 H   0  0  0  0  0  0  0  0  0  0  0  0
   48.3894    5.9050   16.7262 H   0  0  0  0  0  0  0  0  0  0  0  0
   45.7006    3.5200   11.4430 H   0  0  0  0  0  0  0  0  0  0  0  0
   47.1961    7.6542   11.1943 H   0  0  0  0  0  0  0  0  0  0  0  0
   48.6893    8.2961   13.0062 H   0  0  0  0  0  0  0  0  0  0  0  0
   43.7734    2.9741   10.1193 H   0  0  0  0  0  0  0  0  0  0  0  0
   43.8306    4.5617    9.3567 H   0  0  0  0  0  0  0  0  0  0  0  0
   47.3500    3.3612   17.9272 H   0  0  0  0  0  0  0  0  0  0  0  0
   47.8369    4.8087   18.8095 H   0  0  0  0  0  0  0  0  0  0  0  0
   45.7954    5.1323    7.8049 H   0  0  0  0  0  0  0  0  0  0  0  0
   50.1726    5.1197   19.4474 H   0  0  0  0  0  0  0  0  0  0  0  0
   53.1005    2.4944   18.2439 H   0  0  0  0  0  0  0  0  0  0  0  0
   47.7580    2.0112    5.9714 H   0  0  0  0  0  0  0  0  0  0  0  0
   49.1775    2.0932   16.5527 H   0  0  0  0  0  0  0  0  0  0  0  0
   45.2301    1.1405    9.3229 H   0  0  0  0  0  0  0  0  0  0  0  0
   50.7399    7.8096   15.9638 H   0  0  0  0  0  0  0  0  0  0  0  0
   49.7038    8.8439   14.9739 H   0  0  0  0  0  0  0  0  0  0  0  0
   50.6718    7.5149   14.2215 H   0  0  0  0  0  0  0  0  0  0  0  0
   51.5376    1.3028   16.7015 H   0  0  0  0  0  0  0  0  0  0  0  0
   46.7799    0.3404    7.5477 H   0  0  0  0  0  0  0  0  0  0  0  0
  2  1  1  0
  3  1  2  0
  4  5  1  0
  5  3  1  0
  6  2  1  0
  7  4  1  0
  8  1  1  0
  9  2  2  0
 10  4  2  0
 11 21  2  0
 12 20  2  0
 13 14  1  0
 14  8  2  0
 15 18  1  0
 16 17  1  0
 17  7  1  0
 18  6  1  0
 19  8  1  0
 20 16  1  0
 21 15  1  0
 22 27  2  0
 23 28  2  0
 24 15  2  0
 25 16  2  0
 26 19  1  0
 27 24  1  0
 28 25  1  0
  5 13  2  0
 11 22  1  0
 12 23  1  0
  3 29  1  0
  6 30  1  0
  7 31  1  0
 13 32  1  0
 14 33  1  0
 17 34  1  0
 17 35  1  0
 18 36  1  0
 18 37  1  0
 20 38  1  0
 21 39  1  0
 22 40  1  0
 23 41  1  0
 24 42  1  0
 25 43  1  0
 26 44  1  0
 26 45  1  0
 26 46  1  0
 27 47  1  0
 28 48  1  0
M  END
> <Uni-Dock RESULT> 
ENERGY=   -7.136  LOWER_BOUND=    0.000  UPPER_BOUND=    0.000
INTER + INTRA:          -7.136
INTER:                  -7.136
INTRA:                   0.000
UNBOUND:                 0.000

$$$$

     RDKit          3D

 48 50  0  0  0  0  0  0  0  0999 V2000
   47.3663    5.4767   14.4163 C   0  0  0  0  0  0  0  0  0  0  0  0
   47.3447    4.5630   15.6047 C   0  0  0  0  0  0  0  0  0  0  0  0
   46.5033    5.1272   13.3591 C   0  0  0  0  0  0  0  0  0  0  0  0
   45.5555    5.5559   11.0548 C   0  0  0  0  0  0  0  0  0  0  0  0
   46.4532    5.8955   12.1935 C   0  0  0  0  0  0  0  0  0  0  0  0
   47.8919    5.0322   16.7738 N   0  0  0  0  0  0  0  0  0  0  0  0
   45.2030    4.2303   10.9201 N   0  0  0  0  0  0  0  0  0  0  0  0
   48.1919    6.6146   14.2982 C   0  0  0  0  0  0  0  0  0  0  0  0
   46.8424    3.4467   15.5048 O   0  0  0  0  0  0  0  0  0  0  0  0
   45.1960    6.4330   10.2774 O   0  0  0  0  0  0  0  0  0  0  0  0
   51.7197    3.8528   18.9123 N   0  0  0  0  0  0  0  0  0  0  0  0
   46.8081    3.6469    6.8207 N   0  0  0  0  0  0  0  0  0  0  0  0
   47.2498    7.0386   12.0951 C   0  0  0  0  0  0  0  0  0  0  0  0
   48.1117    7.3951   13.1371 C   0  0  0  0  0  0  0  0  0  0  0  0
   49.4784    3.6701   18.0045 C   0  0  0  0  0  0  0  0  0  0  0  0
   45.3564    3.2207    8.7159 C   0  0  0  0  0  0  0  0  0  0  0  0
   44.4480    3.7687    9.7765 C   0  0  0  0  0  0  0  0  0  0  0  0
   48.0751    4.1969   17.9369 C   0  0  0  0  0  0  0  0  0  0  0  0
   49.0257    6.9160   15.3456 O   0  0  0  0  0  0  0  0  0  0  0  0
   45.9655    4.0664    7.7932 C   0  0  0  0  0  0  0  0  0  0  0  0
   50.4342    4.2640   18.8219 C   0  0  0  0  0  0  0  0  0  0  0  0
   52.0724    2.7968   18.1479 C   0  0  0  0  0  0  0  0  0  0  0  0
   47.0631    2.3229    6.7678 C   0  0  0  0  0  0  0  0  0  0  0  0
   49.8870    2.5853   17.2232 C   0  0  0  0  0  0  0  0  0  0  0  0
   45.6547    1.8575    8.6341 C   0  0  0  0  0  0  0  0  0  0  0  0
   50.0970    7.8207   15.0913 C   0  0  0  0  0  0  0  0  0  0  0  0
   51.2023    2.1376   17.2959 C   0  0  0  0  0  0  0  0  0  0  0  0
   46.5184    1.3987    7.6436 C   0  0  0  0  0  0  0  0  0  0  0  0
   45.8530    4.2631   13.4752 H   0  0  0  0  0  0  0  0  0  0  0  0
   48.4038    5.9074   16.7306 H   0  0  0  0  0  0  0  0  0  0  0  0
   45.6983    3.5289   11.4530 H   0  0  0  0  0  0  0  0  0  0  0  0
   47.2043    7.6590   11.2007 H   0  0  0  0  0  0  0  0  0  0  0  0
   48.7028    8.2972   13.0096 H   0  0  0  0  0  0  0  0  0  0  0  0
   43.7671    2.9879   10.1331 H   0  0  0  0  0  0  0  0  0  0  0  0
   43.8270    4.5752    9.3701 H   0  0  0  0  0  0  0  0  0  0  0  0
   47.3600    3.3665   17.9339 H   0  0  0  0  0  0  0  0  0  0  0  0
   47.8524    4.8129   18.8151 H   0  0  0  0  0  0  0  0  0  0  0  0
   45.7903    5.1404    7.8144 H   0  0  0  0  0  0  0  0  0  0  0  0
   50.1901    5.1178   19.4484 H   0  0  0  0  0  0  0  0  0  0  0  0
   53.1087    2.4845   18.2396 H   0  0  0  0  0  0  0  0  0  0  0  0
   47.7411    2.0138    5.9776 H   0  0  0  0  0  0  0  0  0  0  0  0
   49.1814    2.0936   16.5561 H   0  0  0  0  0  0  0  0  0  0  0  0
   45.2174    1.1503    9.3341 H   0  0  0  0  0  0  0  0  0  0  0  0
   50.7578    7.8056   15.9633 H   0  0  0  0  0  0  0  0  0  0  0  0
   49.7226    8.8426   14.9753 H   0  0  0  0  0  0  0  0  0  0  0  0
   50.6855    7.5109   14.2212 H   0  0  0  0  0  0  0  0  0  0  0  0
   51.5396    1.2969   16.7004 H   0  0  0  0  0  0  0  0  0  0  0  0
   46.7615    0.3458    7.5560 H   0  0  0  0  0  0  0  0  0  0  0  0
  2  1  1  0
  3  1  2  0
  4  5  1  0
  5  3  1  0
  6  2  1  0
  7  4  1  0
  8  1  1  0
  9  2  2  0
 10  4  2  0
 11 21  2  0
 12 20  2  0
 13 14  1  0
 14  8  2  0
 15 18  1  0
 16 17  1  0
 17  7  1  0
 18  6  1  0
 19  8  1  0
 20 16  1  0
 21 15  1  0
 22 27  2  0
 23 28  2  0
 24 15  2  0
 25 16  2  0
 26 19  1  0
 27 24  1  0
 28 25  1  0
  5 13  2  0
 11 22  1  0
 12 23  1  0
  3 29  1  0
  6 30  1  0
  7 31  1  0
 13 32  1  0
 14 33  1  0
 17 34  1  0
 17 35  1  0
 18 36  1  0
 18 37  1  0
 20 38  1  0
 21 39  1  0
 22 40  1  0
 23 41  1  0
 24 42  1  0
 25 43  1  0
 26 44  1  0
 26 45  1  0
 26 46  1  0
 27 47  1  0
 28 48  1  0
M  END
> <Uni-Dock RESULT> 
ENERGY=   -7.134  LOWER_BOUND=    0.014  UPPER_BOUND=    0.014
INTER + INTRA:          -7.134
INTER:                  -7.134
INTRA:                   0.000
UNBOUND:                 0.000

$$$$

     RDKit          3D

 48 50  0  0  0  0  0  0  0  0999 V2000
   45.9656    8.0072   12.5174 C   0  0  0  0  0  0  0  0  0  0  0  0
   44.7342    7.4771   11.8466 C   0  0  0  0  0  0  0  0  0  0  0  0
   46.3178    9.3321   12.1930 C   0  0  0  0  0  0  0  0  0  0  0  0
   47.8614   11.3211   12.4230 C   0  0  0  0  0  0  0  0  0  0  0  0
   47.4567    9.9243   12.7440 C   0  0  0  0  0  0  0  0  0  0  0  0
   44.1633    6.3450   12.3747 N   0  0  0  0  0  0  0  0  0  0  0  0
   47.4507   11.8189   11.2051 N   0  0  0  0  0  0  0  0  0  0  0  0
   46.7722    7.2671   13.4074 C   0  0  0  0  0  0  0  0  0  0  0  0
   44.2748    8.0612   10.8688 O   0  0  0  0  0  0  0  0  0  0  0  0
   48.5535   11.9536   13.2128 O   0  0  0  0  0  0  0  0  0  0  0  0
   43.9972    2.1051   10.7586 N   0  0  0  0  0  0  0  0  0  0  0  0
   51.4870   12.7314    9.5934 N   0  0  0  0  0  0  0  0  0  0  0  0
   48.2338    9.1975   13.6488 C   0  0  0  0  0  0  0  0  0  0  0  0
   47.8956    7.8809   13.9774 C   0  0  0  0  0  0  0  0  0  0  0  0
   43.5819    4.4885   10.9248 C   0  0  0  0  0  0  0  0  0  0  0  0
   49.0854   12.9725    9.8272 C   0  0  0  0  0  0  0  0  0  0  0  0
   47.8988   13.1108   10.7346 C   0  0  0  0  0  0  0  0  0  0  0  0
   43.0754    5.6491   11.7296 C   0  0  0  0  0  0  0  0  0  0  0  0
   46.4011    5.9766   13.6903 O   0  0  0  0  0  0  0  0  0  0  0  0
   50.3726   12.8743   10.3479 C   0  0  0  0  0  0  0  0  0  0  0  0
   43.5381    3.1906   11.4225 C   0  0  0  0  0  0  0  0  0  0  0  0
   44.5292    2.3234    9.5367 C   0  0  0  0  0  0  0  0  0  0  0  0
   51.3122   12.6760    8.2566 C   0  0  0  0  0  0  0  0  0  0  0  0
   44.1482    4.6719    9.6599 C   0  0  0  0  0  0  0  0  0  0  0  0
   48.9458   12.9002    8.4382 C   0  0  0  0  0  0  0  0  0  0  0  0
   47.3819    5.1266   14.2790 C   0  0  0  0  0  0  0  0  0  0  0  0
   44.6273    3.5745    8.9513 C   0  0  0  0  0  0  0  0  0  0  0  0
   50.0754   12.7531    7.6383 C   0  0  0  0  0  0  0  0  0  0  0  0
   45.6718    9.8996   11.5269 H   0  0  0  0  0  0  0  0  0  0  0  0
   44.6829    5.8533   13.0946 H   0  0  0  0  0  0  0  0  0  0  0  0
   47.0742   11.1866   10.5125 H   0  0  0  0  0  0  0  0  0  0  0  0
   49.1123    9.6548   14.1027 H   0  0  0  0  0  0  0  0  0  0  0  0
   48.5313    7.3655   14.6913 H   0  0  0  0  0  0  0  0  0  0  0  0
   47.0606   13.5666   10.1960 H   0  0  0  0  0  0  0  0  0  0  0  0
   48.1355   13.7701   11.5775 H   0  0  0  0  0  0  0  0  0  0  0  0
   42.5044    6.3315   11.0899 H   0  0  0  0  0  0  0  0  0  0  0  0
   42.3994    5.3040   12.5196 H   0  0  0  0  0  0  0  0  0  0  0  0
   50.5481   12.9044   11.4217 H   0  0  0  0  0  0  0  0  0  0  0  0
   43.1216    2.9751   12.4028 H   0  0  0  0  0  0  0  0  0  0  0  0
   44.8887    1.4364    9.0230 H   0  0  0  0  0  0  0  0  0  0  0  0
   52.2228   12.5623    7.6755 H   0  0  0  0  0  0  0  0  0  0  0  0
   44.2192    5.6695    9.2305 H   0  0  0  0  0  0  0  0  0  0  0  0
   47.9645   12.9603    7.9748 H   0  0  0  0  0  0  0  0  0  0  0  0
   46.9868    4.1062   14.2664 H   0  0  0  0  0  0  0  0  0  0  0  0
   47.5578    5.4023   15.3234 H   0  0  0  0  0  0  0  0  0  0  0  0
   48.3136    5.1307   13.7034 H   0  0  0  0  0  0  0  0  0  0  0  0
   45.0682    3.6939    7.9682 H   0  0  0  0  0  0  0  0  0  0  0  0
   49.9942   12.6996    6.5586 H   0  0  0  0  0  0  0  0  0  0  0  0
  2  1  1  0
  3  1  2  0
  4  5  1  0
  5  3  1  0
  6  2  1  0
  7  4  1  0
  8  1  1  0
  9  2  2  0
 10  4  2  0
 11 21  2  0
 12 20  2  0
 13 14  1  0
 14  8  2  0
 15 18  1  0
 16 17  1  0
 17  7  1  0
 18  6  1  0
 19  8  1  0
 20 16  1  0
 21 15  1  0
 22 27  2  0
 23 28  2  0
 24 15  2  0
 25 16  2  0
 26 19  1  0
 27 24  1  0
 28 25  1  0
  5 13  2  0
 11 22  1  0
 12 23  1  0
  3 29  1  0
  6 30  1  0
  7 31  1  0
 13 32  1  0
 14 33  1  0
 17 34  1  0
 17 35  1  0
 18 36  1  0
 18 37  1  0
 20 38  1  0
 21 39  1  0
 22 40  1  0
 23 41  1  0
 24 42  1  0
 25 43  1  0
 26 44  1  0
 26 45  1  0
 26 46  1  0
 27 47  1  0
 28 48  1  0
M  END
> <Uni-Dock RESULT> 
ENERGY=   -5.632  LOWER_BOUND=    4.593  UPPER_BOUND=    8.251
INTER + INTRA:          -5.632
INTER:                  -5.632
INTRA:                   0.000
UNBOUND:                 0.000

$$$$

     RDKit          3D

 48 50  0  0  0  0  0  0  0  0999 V2000
   46.5214    8.0583   13.2330 C   0  0  0  0  0  0  0  0  0  0  0  0
   47.5755    8.5668   14.1699 C   0  0  0  0  0  0  0  0  0  0  0  0
   45.7459    9.0434   12.5905 C   0  0  0  0  0  0  0  0  0  0  0  0
   43.8805    9.6984   11.0147 C   0  0  0  0  0  0  0  0  0  0  0  0
   44.7220    8.6855   11.7101 C   0  0  0  0  0  0  0  0  0  0  0  0
   48.5627    7.6899   14.5478 N   0  0  0  0  0  0  0  0  0  0  0  0
   43.7414   10.9195   11.6386 N   0  0  0  0  0  0  0  0  0  0  0  0
   46.2616    6.6935   12.9875 C   0  0  0  0  0  0  0  0  0  0  0  0
   47.5329    9.7307   14.5596 O   0  0  0  0  0  0  0  0  0  0  0  0
   43.3281    9.4126    9.9583 O   0  0  0  0  0  0  0  0  0  0  0  0
   49.3383    5.6762   18.5428 N   0  0  0  0  0  0  0  0  0  0  0  0
   39.3143   10.8604   11.9841 N   0  0  0  0  0  0  0  0  0  0  0  0
   44.4903    7.3335   11.4468 C   0  0  0  0  0  0  0  0  0  0  0  0
   45.2522    6.3463   12.0796 C   0  0  0  0  0  0  0  0  0  0  0  0
   49.1339    7.4416   16.8928 C   0  0  0  0  0  0  0  0  0  0  0  0
   41.5128   11.8699   11.8155 C   0  0  0  0  0  0  0  0  0  0  0  0
   42.8415   11.9264   11.1215 C   0  0  0  0  0  0  0  0  0  0  0  0
   49.5382    8.0078   15.5634 C   0  0  0  0  0  0  0  0  0  0  0  0
   47.0322    5.7644   13.6401 O   0  0  0  0  0  0  0  0  0  0  0  0
   40.5282   10.9790   11.3976 C   0  0  0  0  0  0  0  0  0  0  0  0
   49.6753    6.2509   17.3655 C   0  0  0  0  0  0  0  0  0  0  0  0
   48.4130    6.3192   19.2871 C   0  0  0  0  0  0  0  0  0  0  0  0
   39.0703   11.6615   13.0422 C   0  0  0  0  0  0  0  0  0  0  0  0
   48.1732    8.0707   17.6899 C   0  0  0  0  0  0  0  0  0  0  0  0
   41.2248   12.6748   12.9216 C   0  0  0  0  0  0  0  0  0  0  0  0
   46.5487    4.4245   13.6818 C   0  0  0  0  0  0  0  0  0  0  0  0
   47.8071    7.5051   18.9074 C   0  0  0  0  0  0  0  0  0  0  0  0
   39.9840   12.5732   13.5440 C   0  0  0  0  0  0  0  0  0  0  0  0
   45.9752   10.0917   12.7685 H   0  0  0  0  0  0  0  0  0  0  0  0
   48.4452    6.7158   14.2886 H   0  0  0  0  0  0  0  0  0  0  0  0
   44.0364   11.0217   12.5998 H   0  0  0  0  0  0  0  0  0  0  0  0
   43.7095    7.0411   10.7455 H   0  0  0  0  0  0  0  0  0  0  0  0
   45.0332    5.3116   11.8324 H   0  0  0  0  0  0  0  0  0  0  0  0
   43.3158   12.8997   11.2891 H   0  0  0  0  0  0  0  0  0  0  0  0
   42.7137   11.8136   10.0389 H   0  0  0  0  0  0  0  0  0  0  0  0
   49.6769    9.0920   15.6413 H   0  0  0  0  0  0  0  0  0  0  0  0
   50.4936    7.5817   15.2380 H   0  0  0  0  0  0  0  0  0  0  0  0
   40.6961   10.3111   10.5548 H   0  0  0  0  0  0  0  0  0  0  0  0
   50.4191    5.7022   16.7940 H   0  0  0  0  0  0  0  0  0  0  0  0
   48.1608    5.8393   20.2283 H   0  0  0  0  0  0  0  0  0  0  0  0
   38.0887   11.5464   13.4926 H   0  0  0  0  0  0  0  0  0  0  0  0
   47.7083    8.9977   17.3595 H   0  0  0  0  0  0  0  0  0  0  0  0
   41.9585   13.3818   13.3000 H   0  0  0  0  0  0  0  0  0  0  0  0
   47.1768    3.8670   14.3833 H   0  0  0  0  0  0  0  0  0  0  0  0
   46.6415    3.9477   12.7010 H   0  0  0  0  0  0  0  0  0  0  0  0
   45.5181    4.3813   14.0498 H   0  0  0  0  0  0  0  0  0  0  0  0
   47.0658    7.9773   19.5419 H   0  0  0  0  0  0  0  0  0  0  0  0
   39.7345   13.1897   14.4002 H   0  0  0  0  0  0  0  0  0  0  0  0
  2  1  1  0
  3  1  2  0
  4  5  1  0
  5  3  1  0
  6  2  1  0
  7  4  1  0
  8  1  1  0
  9  2  2  0
 10  4  2  0
 11 21  2  0
 12 20  2  0
 13 14  1  0
 14  8  2  0
 15 18  1  0
 16 17  1  0
 17  7  1  0
 18  6  1  0
 19  8  1  0
 20 16  1  0
 21 15  1  0
 22 27  2  0
 23 28  2  0
 24 15  2  0
 25 16  2  0
 26 19  1  0
 27 24  1  0
 28 25  1  0
  5 13  2  0
 11 22  1  0
 12 23  1  0
  3 29  1  0
  6 30  1  0
  7 31  1  0
 13 32  1  0
 14 33  1  0
 17 34  1  0
 17 35  1  0
 18 36  1  0
 18 37  1  0
 20 38  1  0
 21 39  1  0
 22 40  1  0
 23 41  1  0
 24 42  1  0
 25 43  1  0
 26 44  1  0
 26 45  1  0
 26 46  1  0
 27 47  1  0
 28 48  1  0
M  END
> <Uni-Dock RESULT> 
ENERGY=   -4.526  LOWER_BOUND=    4.853  UPPER_BOUND=    6.939
INTER + INTRA:          -4.526
INTER:                  -4.526
INTRA:                   0.000
UNBOUND:                 0.000

$$$$

     RDKit          3D

 48 50  0  0  0  0  0  0  0  0999 V2000
   46.9544    8.6921   13.2957 C   0  0  0  0  0  0  0  0  0  0  0  0
   48.0978    8.4315   14.2295 C   0  0  0  0  0  0  0  0  0  0  0  0
   46.8065   10.0253   12.8652 C   0  0  0  0  0  0  0  0  0  0  0  0
   45.5755   11.7874   11.5343 C   0  0  0  0  0  0  0  0  0  0  0  0
   45.7646   10.3884   12.0084 C   0  0  0  0  0  0  0  0  0  0  0  0
   48.4892    7.1264   14.4022 N   0  0  0  0  0  0  0  0  0  0  0  0
   46.0651   12.7868   12.3474 N   0  0  0  0  0  0  0  0  0  0  0  0
   46.0396    7.7107   12.8593 C   0  0  0  0  0  0  0  0  0  0  0  0
   48.6467    9.3726   14.7966 O   0  0  0  0  0  0  0  0  0  0  0  0
   44.9797   12.0016   10.4846 O   0  0  0  0  0  0  0  0  0  0  0  0
   48.0324    4.3662   17.9784 N   0  0  0  0  0  0  0  0  0  0  0  0
   42.2226   14.9256   12.9665 N   0  0  0  0  0  0  0  0  0  0  0  0
   44.8809    9.4066   11.5546 C   0  0  0  0  0  0  0  0  0  0  0  0
   45.0162    8.0801   11.9761 C   0  0  0  0  0  0  0  0  0  0  0  0
   48.7978    6.2369   16.6384 C   0  0  0  0  0  0  0  0  0  0  0  0
   44.6316   14.6918   12.8137 C   0  0  0  0  0  0  0  0  0  0  0  0
   45.8185   14.1807   12.0519 C   0  0  0  0  0  0  0  0  0  0  0  0
   49.4659    6.7315   15.3892 C   0  0  0  0  0  0  0  0  0  0  0  0
   46.2116    6.4256   13.3087 O   0  0  0  0  0  0  0  0  0  0  0  0
   43.3402   14.5075   12.3278 C   0  0  0  0  0  0  0  0  0  0  0  0
   48.6435    4.8769   16.8850 C   0  0  0  0  0  0  0  0  0  0  0  0
   47.5483    5.2558   18.8718 C   0  0  0  0  0  0  0  0  0  0  0  0
   42.3974   15.5509   14.1493 C   0  0  0  0  0  0  0  0  0  0  0  0
   48.2749    7.1238   17.5840 C   0  0  0  0  0  0  0  0  0  0  0  0
   44.7693   15.3346   14.0473 C   0  0  0  0  0  0  0  0  0  0  0  0
   45.1105    5.5311   13.1739 C   0  0  0  0  0  0  0  0  0  0  0  0
   47.6426    6.6290   18.7204 C   0  0  0  0  0  0  0  0  0  0  0  0
   43.6364   15.7748   14.7258 C   0  0  0  0  0  0  0  0  0  0  0  0
   47.5350   10.7657   13.1880 H   0  0  0  0  0  0  0  0  0  0  0  0
   47.8966    6.4054   14.0035 H   0  0  0  0  0  0  0  0  0  0  0  0
   46.3482   12.5638   13.2916 H   0  0  0  0  0  0  0  0  0  0  0  0
   44.0771    9.6721   10.8687 H   0  0  0  0  0  0  0  0  0  0  0  0
   44.3053    7.3574   11.5865 H   0  0  0  0  0  0  0  0  0  0  0  0
   46.7195   14.7353   12.3370 H   0  0  0  0  0  0  0  0  0  0  0  0
   45.6766   14.3301   10.9755 H   0  0  0  0  0  0  0  0  0  0  0  0
   50.1372    7.5649   15.6248 H   0  0  0  0  0  0  0  0  0  0  0  0
   50.0768    5.9405   14.9404 H   0  0  0  0  0  0  0  0  0  0  0  0
   43.1631   13.9976   11.3826 H   0  0  0  0  0  0  0  0  0  0  0  0
   49.0158    4.1305   16.1883 H   0  0  0  0  0  0  0  0  0  0  0  0
   47.0642    4.8215   19.7418 H   0  0  0  0  0  0  0  0  0  0  0  0
   41.4844   15.8767   14.6393 H   0  0  0  0  0  0  0  0  0  0  0  0
   48.3569    8.1984   17.4319 H   0  0  0  0  0  0  0  0  0  0  0  0
   45.7520   15.4973   14.4821 H   0  0  0  0  0  0  0  0  0  0  0  0
   45.3488    4.6244   13.7384 H   0  0  0  0  0  0  0  0  0  0  0  0
   44.9699    5.2438   12.1272 H   0  0  0  0  0  0  0  0  0  0  0  0
   44.1942    5.9563   13.5969 H   0  0  0  0  0  0  0  0  0  0  0  0
   47.2319    7.2989   19.4671 H   0  0  0  0  0  0  0  0  0  0  0  0
   43.7169   16.2804   15.6815 H   0  0  0  0  0  0  0  0  0  0  0  0
  2  1  1  0
  3  1  2  0
  4  5  1  0
  5  3  1  0
  6  2  1  0
  7  4  1  0
  8  1  1  0
  9  2  2  0
 10  4  2  0
 11 21  2  0
 12 20  2  0
 13 14  1  0
 14  8  2  0
 15 18  1  0
 16 17  1  0
 17  7  1  0
 18  6  1  0
 19  8  1  0
 20 16  1  0
 21 15  1  0
 22 27  2  0
 23 28  2  0
 24 15  2  0
 25 16  2  0
 26 19  1  0
 27 24  1  0
 28 25  1  0
  5 13  2  0
 11 22  1  0
 12 23  1  0
  3 29  1  0
  6 30  1  0
  7 31  1  0
 13 32  1  0
 14 33  1  0
 17 34  1  0
 17 35  1  0
 18 36  1  0
 18 37  1  0
 20 38  1  0
 21 39  1  0
 22 40  1  0
 23 41  1  0
 24 42  1  0
 25 43  1  0
 26 44  1  0
 26 45  1  0
 26 46  1  0
 27 47  1  0
 28 48  1  0
M  END
> <Uni-Dock RESULT> 
ENERGY=   -4.336  LOWER_BOUND=    5.424  UPPER_BOUND=    8.006
INTER + INTRA:          -4.336
INTER:                  -4.336
INTRA:                   0.000
UNBOUND:                 0.000

$$$$

     RDKit          3D

 48 50  0  0  0  0  0  0  0  0999 V2000
   50.5262    8.8800   11.4102 C   0  0  0  0  0  0  0  0  0  0  0  0
   51.7688    8.2140   10.9004 C   0  0  0  0  0  0  0  0  0  0  0  0
   49.6267    8.0483   12.1059 C   0  0  0  0  0  0  0  0  0  0  0  0
   47.4511    7.7077   13.3480 C   0  0  0  0  0  0  0  0  0  0  0  0
   48.4270    8.5566   12.6097 C   0  0  0  0  0  0  0  0  0  0  0  0
   52.8139    9.0238   10.5286 N   0  0  0  0  0  0  0  0  0  0  0  0
   47.4626    6.3600   13.0596 N   0  0  0  0  0  0  0  0  0  0  0  0
   50.2130   10.2420   11.2172 C   0  0  0  0  0  0  0  0  0  0  0  0
   51.8202    6.9885   10.8377 O   0  0  0  0  0  0  0  0  0  0  0  0
   46.6700    8.2226   14.1400 O   0  0  0  0  0  0  0  0  0  0  0  0
   54.4806    9.9735    6.4132 N   0  0  0  0  0  0  0  0  0  0  0  0
   43.2331    6.0422   11.7434 N   0  0  0  0  0  0  0  0  0  0  0  0
   48.1370    9.9127   12.4430 C   0  0  0  0  0  0  0  0  0  0  0  0
   49.0210   10.7480   11.7528 C   0  0  0  0  0  0  0  0  0  0  0  0
   53.9078    8.6892    8.3889 C   0  0  0  0  0  0  0  0  0  0  0  0
   45.3369    5.2549   12.6571 C   0  0  0  0  0  0  0  0  0  0  0  0
   46.4709    5.4667   13.6161 C   0  0  0  0  0  0  0  0  0  0  0  0
   53.9975    8.5159    9.8766 C   0  0  0  0  0  0  0  0  0  0  0  0
   51.1103   11.0167   10.5260 O   0  0  0  0  0  0  0  0  0  0  0  0
   44.2801    6.1587   12.5929 C   0  0  0  0  0  0  0  0  0  0  0  0
   54.5398    9.7480    7.7457 C   0  0  0  0  0  0  0  0  0  0  0  0
   53.7529    9.1007    5.6836 C   0  0  0  0  0  0  0  0  0  0  0  0
   43.2410    4.9792   10.9122 C   0  0  0  0  0  0  0  0  0  0  0  0
   53.1577    7.8138    7.5982 C   0  0  0  0  0  0  0  0  0  0  0  0
   45.3131    4.1731   11.7722 C   0  0  0  0  0  0  0  0  0  0  0  0
   50.6454   12.2656   10.0209 C   0  0  0  0  0  0  0  0  0  0  0  0
   53.0794    8.0181    6.2241 C   0  0  0  0  0  0  0  0  0  0  0  0
   44.2481    4.0291   10.8875 C   0  0  0  0  0  0  0  0  0  0  0  0
   49.8938    7.0069   12.2707 H   0  0  0  0  0  0  0  0  0  0  0  0
   52.6372   10.0222   10.4846 H   0  0  0  0  0  0  0  0  0  0  0  0
   47.9708    6.0302   12.2507 H   0  0  0  0  0  0  0  0  0  0  0  0
   47.2151   10.3267   12.8501 H   0  0  0  0  0  0  0  0  0  0  0  0
   48.7482   11.7950   11.6588 H   0  0  0  0  0  0  0  0  0  0  0  0
   46.9738    4.5159   13.8246 H   0  0  0  0  0  0  0  0  0  0  0  0
   46.0974    5.8491   14.5729 H   0  0  0  0  0  0  0  0  0  0  0  0
   54.1536    7.4600   10.1249 H   0  0  0  0  0  0  0  0  0  0  0  0
   54.8514    9.0726   10.2782 H   0  0  0  0  0  0  0  0  0  0  0  0
   44.2480    7.0324   13.2412 H   0  0  0  0  0  0  0  0  0  0  0  0
   55.1309   10.4733    8.2986 H   0  0  0  0  0  0  0  0  0  0  0  0
   53.7223    9.3017    4.6166 H   0  0  0  0  0  0  0  0  0  0  0  0
   42.3888    4.9097   10.2424 H   0  0  0  0  0  0  0  0  0  0  0  0
   52.6320    6.9769    8.0542 H   0  0  0  0  0  0  0  0  0  0  0  0
   46.1161    3.4406   11.7687 H   0  0  0  0  0  0  0  0  0  0  0  0
   51.4162   12.6604    9.3520 H   0  0  0  0  0  0  0  0  0  0  0  0
   50.5091   12.9862   10.8332 H   0  0  0  0  0  0  0  0  0  0  0  0
   49.7268   12.1451    9.4369 H   0  0  0  0  0  0  0  0  0  0  0  0
   52.5051    7.3503    5.5922 H   0  0  0  0  0  0  0  0  0  0  0  0
   44.2038    3.1961   10.1950 H   0  0  0  0  0  0  0  0  0  0  0  0
  2  1  1  0
  3  1  2  0
  4  5  1  0
  5  3  1  0
  6  2  1  0
  7  4  1  0
  8  1  1  0
  9  2  2  0
 10  4  2  0
 11 21  2  0
 12 20  2  0
 13 14  1  0
 14  8  2  0
 15 18  1  0
 16 17  1  0
 17  7  1  0
 18  6  1  0
 19  8  1  0
 20 16  1  0
 21 15  1  0
 22 27  2  0
 23 28  2  0
 24 15  2  0
 25 16  2  0
 26 19  1  0
 27 24  1  0
 28 25  1  0
  5 13  2  0
 11 22  1  0
 12 23  1  0
  3 29  1  0
  6 30  1  0
  7 31  1  0
 13 32  1  0
 14 33  1  0
 17 34  1  0
 17 35  1  0
 18 36  1  0
 18 37  1  0
 20 38  1  0
 21 39  1  0
 22 40  1  0
 23 41  1  0
 24 42  1  0
 25 43  1  0
 26 44  1  0
 26 45  1  0
 26 46  1  0
 27 47  1  0
 28 48  1  0
M  END
> <Uni-Dock RESULT> 
ENERGY=   -4.192  LOWER_BOUND=    5.339  UPPER_BOUND=    7.911
INTER + INTRA:          -4.192
INTER:                  -4.192
INTRA:                   0.000
UNBOUND:                 0.000

$$$$

     RDKit          3D

 48 50  0  0  0  0  0  0  0  0999 V2000
   48.5123    7.1078   17.9934 C   0  0  0  0  0  0  0  0  0  0  0  0
   49.1647    8.4575   17.9885 C   0  0  0  0  0  0  0  0  0  0  0  0
   48.3149    6.5182   16.7292 C   0  0  0  0  0  0  0  0  0  0  0  0
   47.4718    4.6166   15.2922 C   0  0  0  0  0  0  0  0  0  0  0  0
   47.6991    5.2698   16.6111 C   0  0  0  0  0  0  0  0  0  0  0  0
   49.6830    8.9143   19.1756 N   0  0  0  0  0  0  0  0  0  0  0  0
   47.3607    5.4508   14.2006 N   0  0  0  0  0  0  0  0  0  0  0  0
   48.0822    6.4324   19.1550 C   0  0  0  0  0  0  0  0  0  0  0  0
   49.2236    9.1010   16.9441 O   0  0  0  0  0  0  0  0  0  0  0  0
   47.3608    3.3977   15.2250 O   0  0  0  0  0  0  0  0  0  0  0  0
   48.2565   12.2338   21.9255 N   0  0  0  0  0  0  0  0  0  0  0  0
   43.3005    4.1690   12.9383 N   0  0  0  0  0  0  0  0  0  0  0  0
   47.3040    4.5919   17.7665 C   0  0  0  0  0  0  0  0  0  0  0  0
   47.4929    5.1674   19.0269 C   0  0  0  0  0  0  0  0  0  0  0  0
   49.1554   11.1524   19.9498 C   0  0  0  0  0  0  0  0  0  0  0  0
   45.5333    5.0689   12.6462 C   0  0  0  0  0  0  0  0  0  0  0  0
   47.0063    4.9350   12.8970 C   0  0  0  0  0  0  0  0  0  0  0  0
   50.1910   10.2558   19.3374 C   0  0  0  0  0  0  0  0  0  0  0  0
   48.2836    7.0442   20.3667 O   0  0  0  0  0  0  0  0  0  0  0  0
   44.6412    4.1072   13.1119 C   0  0  0  0  0  0  0  0  0  0  0  0
   49.1714   11.4519   21.3078 C   0  0  0  0  0  0  0  0  0  0  0  0
   47.2737   12.7423   21.1513 C   0  0  0  0  0  0  0  0  0  0  0  0
   42.8230    5.2431   12.2757 C   0  0  0  0  0  0  0  0  0  0  0  0
   48.1163   11.6918   19.1859 C   0  0  0  0  0  0  0  0  0  0  0  0
   44.9979    6.1713   11.9739 C   0  0  0  0  0  0  0  0  0  0  0  0
   47.5421    6.5532   21.4802 C   0  0  0  0  0  0  0  0  0  0  0  0
   47.1612   12.5018   19.7922 C   0  0  0  0  0  0  0  0  0  0  0  0
   43.6222    6.2603   11.7815 C   0  0  0  0  0  0  0  0  0  0  0  0
   48.6760    7.0380   15.8447 H   0  0  0  0  0  0  0  0  0  0  0  0
   49.4708    8.3811   20.0127 H   0  0  0  0  0  0  0  0  0  0  0  0
   47.2435    6.4441   14.3455 H   0  0  0  0  0  0  0  0  0  0  0  0
   46.8425    3.6079   17.6899 H   0  0  0  0  0  0  0  0  0  0  0  0
   47.1728    4.5929   19.8912 H   0  0  0  0  0  0  0  0  0  0  0  0
   47.5711    5.5128   12.1569 H   0  0  0  0  0  0  0  0  0  0  0  0
   47.3191    3.8896   12.7950 H   0  0  0  0  0  0  0  0  0  0  0  0
   50.5218   10.6633   18.3754 H   0  0  0  0  0  0  0  0  0  0  0  0
   51.0741   10.1910   19.9825 H   0  0  0  0  0  0  0  0  0  0  0  0
   44.9917    3.2342   13.6595 H   0  0  0  0  0  0  0  0  0  0  0  0
   49.9432   11.0587   21.9642 H   0  0  0  0  0  0  0  0  0  0  0  0
   46.5530   13.3681   21.6696 H   0  0  0  0  0  0  0  0  0  0  0  0
   41.7445    5.2666   12.1496 H   0  0  0  0  0  0  0  0  0  0  0  0
   48.0500   11.4768   18.1210 H   0  0  0  0  0  0  0  0  0  0  0  0
   45.6444    6.9594   11.5967 H   0  0  0  0  0  0  0  0  0  0  0  0
   47.6800    7.2570   22.3067 H   0  0  0  0  0  0  0  0  0  0  0  0
   47.9263    5.5808   21.8038 H   0  0  0  0  0  0  0  0  0  0  0  0
   46.4707    6.5046   21.2586 H   0  0  0  0  0  0  0  0  0  0  0  0
   46.3484   12.9320   19.2182 H   0  0  0  0  0  0  0  0  0  0  0  0
   43.1829    7.1025   11.2589 H   0  0  0  0  0  0  0  0  0  0  0  0
  2  1  1  0
  3  1  2  0
  4  5  1  0
  5  3  1  0
  6  2  1  0
  7  4  1  0
  8  1  1  0
  9  2  2  0
 10  4  2  0
 11 21  2  0
 12 20  2  0
 13 14  1  0
 14  8  2  0
 15 18  1  0
 16 17  1  0
 17  7  1  0
 18  6  1  0
 19  8  1  0
 20 16  1  0
 21 15  1  0
 22 27  2  0
 23 28  2  0
 24 15  2  0
 25 16  2  0
 26 19  1  0
 27 24  1  0
 28 25  1  0
  5 13  2  0
 11 22  1  0
 12 23  1  0
  3 29  1  0
  6 30  1  0
  7 31  1  0
 13 32  1  0
 14 33  1  0
 17 34  1  0
 17 35  1  0
 18 36  1  0
 18 37  1  0
 20 38  1  0
 21 39  1  0
 22 40  1  0
 23 41  1  0
 24 42  1  0
 25 43  1  0
 26 44  1  0
 26 45  1  0
 26 46  1  0
 27 47  1  0
 28 48  1  0
M  END
> <Uni-Dock RESULT> 
ENERGY=   -4.161  LOWER_BOUND=    4.210  UPPER_BOUND=    6.697
INTER + INTRA:          -4.161
INTER:                  -4.161
INTRA:                   0.000
UNBOUND:                 0.000

$$$$
