
     RDKit          3D

 48 50  0  0  0  0  0  0  0  0999 V2000
   45.3533    8.1342   12.1981 C   0  0  0  0  0  0  0  0  0  0  0  0
   44.2252    7.2941   11.6703 C   0  0  0  0  0  0  0  0  0  0  0  0
   45.3299    9.4929   11.8213 C   0  0  0  0  0  0  0  0  0  0  0  0
   46.3222   11.8198   11.8878 C   0  0  0  0  0  0  0  0  0  0  0  0
   46.3175   10.3777   12.2614 C   0  0  0  0  0  0  0  0  0  0  0  0
   44.1226    6.0029   12.1258 N   0  0  0  0  0  0  0  0  0  0  0  0
   45.1050   12.3810   11.5662 N   0  0  0  0  0  0  0  0  0  0  0  0
   46.4044    7.6548   13.0101 C   0  0  0  0  0  0  0  0  0  0  0  0
   43.4312    7.7740   10.8651 O   0  0  0  0  0  0  0  0  0  0  0  0
   47.3720   12.4525   11.9091 O   0  0  0  0  0  0  0  0  0  0  0  0
   44.7966    1.9904   10.0751 N   0  0  0  0  0  0  0  0  0  0  0  0
   45.1185   15.5617   14.6633 N   0  0  0  0  0  0  0  0  0  0  0  0
   47.3536    9.8966   13.0639 C   0  0  0  0  0  0  0  0  0  0  0  0
   47.3951    8.5498   13.4379 C   0  0  0  0  0  0  0  0  0  0  0  0
   43.8189    4.1494   10.5892 C   0  0  0  0  0  0  0  0  0  0  0  0
   44.5294   14.5255   12.5514 C   0  0  0  0  0  0  0  0  0  0  0  0
   44.9769   13.7997   11.3172 C   0  0  0  0  0  0  0  0  0  0  0  0
   43.1707    5.0581   11.5916 C   0  0  0  0  0  0  0  0  0  0  0  0
   46.4013    6.3246   13.3484 O   0  0  0  0  0  0  0  0  0  0  0  0
   45.4493   14.9193   13.5191 C   0  0  0  0  0  0  0  0  0  0  0  0
   44.1930    2.8526   10.9249 C   0  0  0  0  0  0  0  0  0  0  0  0
   45.0426    2.4436    8.8269 C   0  0  0  0  0  0  0  0  0  0  0  0
   43.8082   15.8188   14.8582 C   0  0  0  0  0  0  0  0  0  0  0  0
   44.0976    4.5812    9.2892 C   0  0  0  0  0  0  0  0  0  0  0  0
   43.1809   14.8010   12.7956 C   0  0  0  0  0  0  0  0  0  0  0  0
   47.5666    5.7946   13.9741 C   0  0  0  0  0  0  0  0  0  0  0  0
   44.7165    3.7170    8.3913 C   0  0  0  0  0  0  0  0  0  0  0  0
   42.8125   15.4608   13.9647 C   0  0  0  0  0  0  0  0  0  0  0  0
   44.5409    9.8415   11.1589 H   0  0  0  0  0  0  0  0  0  0  0  0
   44.8737    5.6486   12.7086 H   0  0  0  0  0  0  0  0  0  0  0  0
   44.2546   11.8756   11.7710 H   0  0  0  0  0  0  0  0  0  0  0  0
   48.1364   10.5724   13.4066 H   0  0  0  0  0  0  0  0  0  0  0  0
   48.2200    8.2367   14.0709 H   0  0  0  0  0  0  0  0  0  0  0  0
   45.9212   14.2164   10.9486 H   0  0  0  0  0  0  0  0  0  0  0  0
   44.2384   13.9214   10.5169 H   0  0  0  0  0  0  0  0  0  0  0  0
   42.7795    4.4827   12.4378 H   0  0  0  0  0  0  0  0  0  0  0  0
   42.3218    5.5783   11.1339 H   0  0  0  0  0  0  0  0  0  0  0  0
   46.5122   14.7181   13.3984 H   0  0  0  0  0  0  0  0  0  0  0  0
   44.0157    2.4527   11.9198 H   0  0  0  0  0  0  0  0  0  0  0  0
   45.5264    1.7330    8.1633 H   0  0  0  0  0  0  0  0  0  0  0  0
   43.5713   16.3361   15.7833 H   0  0  0  0  0  0  0  0  0  0  0  0
   43.8358    5.5911    8.9789 H   0  0  0  0  0  0  0  0  0  0  0  0
   42.4159   14.5085   12.0812 H   0  0  0  0  0  0  0  0  0  0  0  0
   48.4593    5.9660   13.3635 H   0  0  0  0  0  0  0  0  0  0  0  0
   47.4299    4.7128   14.0672 H   0  0  0  0  0  0  0  0  0  0  0  0
   47.6877    6.2021   14.9827 H   0  0  0  0  0  0  0  0  0  0  0  0
   44.9404    4.0311    7.3783 H   0  0  0  0  0  0  0  0  0  0  0  0
   41.7741   15.6906   14.1750 H   0  0  0  0  0  0  0  0  0  0  0  0
  2  1  1  0
  3  1  2  0
  4  5  1  0
  5  3  1  0
  6  2  1  0
  7  4  1  0
  8  1  1  0
  9  2  2  0
 10  4  2  0
 11 21  2  0
 12 20  2  0
 13 14  1  0
 14  8  2  0
 15 18  1  0
 16 17  1  0
 17  7  1  0
 18  6  1  0
 19  8  1  0
 20 16  1  0
 21 15  1  0
 22 27  2  0
 23 28  2  0
 24 15  2  0
 25 16  2  0
 26 19  1  0
 27 24  1  0
 28 25  1  0
  5 13  2  0
 11 22  1  0
 12 23  1  0
  3 29  1  0
  6 30  1  0
  7 31  1  0
 13 32  1  0
 14 33  1  0
 17 34  1  0
 17 35  1  0
 18 36  1  0
 18 37  1  0
 20 38  1  0
 21 39  1  0
 22 40  1  0
 23 41  1  0
 24 42  1  0
 25 43  1  0
 26 44  1  0
 26 45  1  0
 26 46  1  0
 27 47  1  0
 28 48  1  0
M  END
> <Uni-Dock RESULT> 
ENERGY=   -5.992  LOWER_BOUND=    0.000  UPPER_BOUND=    0.000
INTER + INTRA:          -5.992
INTER:                  -5.992
INTRA:                   0.000
UNBOUND:                 0.000

$$$$

     RDKit          3D

 48 50  0  0  0  0  0  0  0  0999 V2000
   48.0548    7.1677   12.9179 C   0  0  0  0  0  0  0  0  0  0  0  0
   48.8790    8.3650   12.5382 C   0  0  0  0  0  0  0  0  0  0  0  0
   47.1760    6.6920   11.9229 C   0  0  0  0  0  0  0  0  0  0  0  0
   45.4318    5.0422   11.1233 C   0  0  0  0  0  0  0  0  0  0  0  0
   46.3678    5.5757   12.1522 C   0  0  0  0  0  0  0  0  0  0  0  0
   49.8513    8.7759   13.4163 N   0  0  0  0  0  0  0  0  0  0  0  0
   45.7420    5.3059    9.8065 N   0  0  0  0  0  0  0  0  0  0  0  0
   48.0995    6.5231   14.1735 C   0  0  0  0  0  0  0  0  0  0  0  0
   48.6740    8.9334   11.4686 O   0  0  0  0  0  0  0  0  0  0  0  0
   44.4612    4.3769   11.4673 O   0  0  0  0  0  0  0  0  0  0  0  0
   50.1941   12.4651   16.0680 N   0  0  0  0  0  0  0  0  0  0  0  0
   45.9886    1.0912    8.4338 N   0  0  0  0  0  0  0  0  0  0  0  0
   46.4173    4.9436   13.3959 C   0  0  0  0  0  0  0  0  0  0  0  0
   47.2769    5.4097   14.3954 C   0  0  0  0  0  0  0  0  0  0  0  0
   50.0547   11.1055   14.0647 C   0  0  0  0  0  0  0  0  0  0  0  0
   45.6310    3.4792    8.2091 C   0  0  0  0  0  0  0  0  0  0  0  0
   44.9758    4.7258    8.7259 C   0  0  0  0  0  0  0  0  0  0  0  0
   50.6110    9.9895   13.2306 C   0  0  0  0  0  0  0  0  0  0  0  0
   48.9584    7.0197   15.1219 O   0  0  0  0  0  0  0  0  0  0  0  0
   45.4198    2.2526    8.8325 C   0  0  0  0  0  0  0  0  0  0  0  0
   50.6547   11.4815   15.2617 C   0  0  0  0  0  0  0  0  0  0  0  0
   49.0767   13.1063   15.6625 C   0  0  0  0  0  0  0  0  0  0  0  0
   46.8132    1.1537    7.3675 C   0  0  0  0  0  0  0  0  0  0  0  0
   48.8965   11.7900   13.6850 C   0  0  0  0  0  0  0  0  0  0  0  0
   46.5001    3.5035    7.1145 C   0  0  0  0  0  0  0  0  0  0  0  0
   48.8452    6.5170   16.4504 C   0  0  0  0  0  0  0  0  0  0  0  0
   48.3988   12.8078   14.4926 C   0  0  0  0  0  0  0  0  0  0  0  0
   47.0989    2.3232    6.6830 C   0  0  0  0  0  0  0  0  0  0  0  0
   47.1169    7.2231   10.9757 H   0  0  0  0  0  0  0  0  0  0  0  0
   49.8906    8.3201   14.3219 H   0  0  0  0  0  0  0  0  0  0  0  0
   46.6556    5.6688    9.5737 H   0  0  0  0  0  0  0  0  0  0  0  0
   45.7856    4.0781   13.5930 H   0  0  0  0  0  0  0  0  0  0  0  0
   47.2783    4.8712   15.3384 H   0  0  0  0  0  0  0  0  0  0  0  0
   43.9494    4.5145    9.0470 H   0  0  0  0  0  0  0  0  0  0  0  0
   44.9152    5.4792    7.9326 H   0  0  0  0  0  0  0  0  0  0  0  0
   51.6443    9.7693   13.5203 H   0  0  0  0  0  0  0  0  0  0  0  0
   50.6260   10.2808   12.1743 H   0  0  0  0  0  0  0  0  0  0  0  0
   44.7693    2.1688    9.7012 H   0  0  0  0  0  0  0  0  0  0  0  0
   51.5525   10.9874   15.6238 H   0  0  0  0  0  0  0  0  0  0  0  0
   48.7275   13.8923   16.3257 H   0  0  0  0  0  0  0  0  0  0  0  0
   47.2546    0.2075    7.0685 H   0  0  0  0  0  0  0  0  0  0  0  0
   48.3816   11.5269   12.7628 H   0  0  0  0  0  0  0  0  0  0  0  0
   46.7117    4.4337    6.5938 H   0  0  0  0  0  0  0  0  0  0  0  0
   47.8303    6.6471   16.8402 H   0  0  0  0  0  0  0  0  0  0  0  0
   49.5220    7.0987   17.0837 H   0  0  0  0  0  0  0  0  0  0  0  0
   49.1615    5.4703   16.4998 H   0  0  0  0  0  0  0  0  0  0  0  0
   47.5029   13.3521   14.2162 H   0  0  0  0  0  0  0  0  0  0  0  0
   47.7726    2.3146    5.8336 H   0  0  0  0  0  0  0  0  0  0  0  0
  2  1  1  0
  3  1  2  0
  4  5  1  0
  5  3  1  0
  6  2  1  0
  7  4  1  0
  8  1  1  0
  9  2  2  0
 10  4  2  0
 11 21  2  0
 12 20  2  0
 13 14  1  0
 14  8  2  0
 15 18  1  0
 16 17  1  0
 17  7  1  0
 18  6  1  0
 19  8  1  0
 20 16  1  0
 21 15  1  0
 22 27  2  0
 23 28  2  0
 24 15  2  0
 25 16  2  0
 26 19  1  0
 27 24  1  0
 28 25  1  0
  5 13  2  0
 11 22  1  0
 12 23  1  0
  3 29  1  0
  6 30  1  0
  7 31  1  0
 13 32  1  0
 14 33  1  0
 17 34  1  0
 17 35  1  0
 18 36  1  0
 18 37  1  0
 20 38  1  0
 21 39  1  0
 22 40  1  0
 23 41  1  0
 24 42  1  0
 25 43  1  0
 26 44  1  0
 26 45  1  0
 26 46  1  0
 27 47  1  0
 28 48  1  0
M  END
> <Uni-Dock RESULT> 
ENERGY=   -5.748  LOWER_BOUND=    3.590  UPPER_BOUND=    9.685
INTER + INTRA:          -5.748
INTER:                  -5.748
INTRA:                   0.000
UNBOUND:                 0.000

$$$$

     RDKit          3D

 48 50  0  0  0  0  0  0  0  0999 V2000
   48.0339    6.4243   13.7496 C   0  0  0  0  0  0  0  0  0  0  0  0
   48.9651    7.5915   13.5840 C   0  0  0  0  0  0  0  0  0  0  0  0
   47.1795    6.1660   12.6579 C   0  0  0  0  0  0  0  0  0  0  0  0
   45.3650    4.7927   11.5511 C   0  0  0  0  0  0  0  0  0  0  0  0
   46.2787    5.0985   12.6872 C   0  0  0  0  0  0  0  0  0  0  0  0
   49.9142    7.7945   14.5551 N   0  0  0  0  0  0  0  0  0  0  0  0
   45.7677    5.2119   10.3013 N   0  0  0  0  0  0  0  0  0  0  0  0
   47.9596    5.6087   14.9001 C   0  0  0  0  0  0  0  0  0  0  0  0
   48.8635    8.3189   12.5993 O   0  0  0  0  0  0  0  0  0  0  0  0
   44.3298    4.1673   11.7515 O   0  0  0  0  0  0  0  0  0  0  0  0
   50.3810   11.0355   17.7233 N   0  0  0  0  0  0  0  0  0  0  0  0
   45.7765    1.2251    8.3484 N   0  0  0  0  0  0  0  0  0  0  0  0
   46.2109    4.2965   13.8279 C   0  0  0  0  0  0  0  0  0  0  0  0
   47.0452    4.5462   14.9219 C   0  0  0  0  0  0  0  0  0  0  0  0
   50.2538    9.9858   15.5408 C   0  0  0  0  0  0  0  0  0  0  0  0
   45.6111    3.6421    8.4541 C   0  0  0  0  0  0  0  0  0  0  0  0
   45.0225    4.8534    9.1150 C   0  0  0  0  0  0  0  0  0  0  0  0
   50.7715    8.9559   14.5806 C   0  0  0  0  0  0  0  0  0  0  0  0
   48.7983    5.8957   15.9479 O   0  0  0  0  0  0  0  0  0  0  0  0
   45.2742    2.3618    8.8842 C   0  0  0  0  0  0  0  0  0  0  0  0
   50.8118   10.1402   16.8053 C   0  0  0  0  0  0  0  0  0  0  0  0
   49.3391   11.8163   17.3643 C   0  0  0  0  0  0  0  0  0  0  0  0
   46.6622    1.3686    7.3405 C   0  0  0  0  0  0  0  0  0  0  0  0
   49.1731   10.8091   15.2117 C   0  0  0  0  0  0  0  0  0  0  0  0
   46.5398    3.7484    7.4148 C   0  0  0  0  0  0  0  0  0  0  0  0
   48.5734    5.2228   17.1836 C   0  0  0  0  0  0  0  0  0  0  0  0
   48.7078   11.7410   16.1342 C   0  0  0  0  0  0  0  0  0  0  0  0
   47.0724    2.5952    6.8453 C   0  0  0  0  0  0  0  0  0  0  0  0
   47.2136    6.8276   11.7953 H   0  0  0  0  0  0  0  0  0  0  0  0
   49.8684    7.2146   15.3864 H   0  0  0  0  0  0  0  0  0  0  0  0
   46.7175    5.5279   10.1647 H   0  0  0  0  0  0  0  0  0  0  0  0
   45.5064    3.4665   13.8696 H   0  0  0  0  0  0  0  0  0  0  0  0
   46.9533    3.8826   15.7766 H   0  0  0  0  0  0  0  0  0  0  0  0
   43.9668    4.6839    9.3556 H   0  0  0  0  0  0  0  0  0  0  0  0
   45.0629    5.7130    8.4366 H   0  0  0  0  0  0  0  0  0  0  0  0
   51.7676    8.6135   14.8819 H   0  0  0  0  0  0  0  0  0  0  0  0
   50.8676    9.3900   13.5791 H   0  0  0  0  0  0  0  0  0  0  0  0
   44.5714    2.2106    9.7014 H   0  0  0  0  0  0  0  0  0  0  0  0
   51.6484    9.5285   17.1326 H   0  0  0  0  0  0  0  0  0  0  0  0
   49.0126   12.5276   18.1173 H   0  0  0  0  0  0  0  0  0  0  0  0
   47.0481    0.4407    6.9286 H   0  0  0  0  0  0  0  0  0  0  0  0
   48.6927   10.7208   14.2389 H   0  0  0  0  0  0  0  0  0  0  0  0
   46.8491    4.7218    7.0435 H   0  0  0  0  0  0  0  0  0  0  0  0
   47.5506    5.3796   17.5419 H   0  0  0  0  0  0  0  0  0  0  0  0
   49.2549    5.6528   17.9240 H   0  0  0  0  0  0  0  0  0  0  0  0
   48.8075    4.1572   17.0960 H   0  0  0  0  0  0  0  0  0  0  0  0
   47.8720   12.3901   15.8989 H   0  0  0  0  0  0  0  0  0  0  0  0
   47.7903    2.6506    6.0348 H   0  0  0  0  0  0  0  0  0  0  0  0
  2  1  1  0
  3  1  2  0
  4  5  1  0
  5  3  1  0
  6  2  1  0
  7  4  1  0
  8  1  1  0
  9  2  2  0
 10  4  2  0
 11 21  2  0
 12 20  2  0
 13 14  1  0
 14  8  2  0
 15 18  1  0
 16 17  1  0
 17  7  1  0
 18  6  1  0
 19  8  1  0
 20 16  1  0
 21 15  1  0
 22 27  2  0
 23 28  2  0
 24 15  2  0
 25 16  2  0
 26 19  1  0
 27 24  1  0
 28 25  1  0
  5 13  2  0
 11 22  1  0
 12 23  1  0
  3 29  1  0
  6 30  1  0
  7 31  1  0
 13 32  1  0
 14 33  1  0
 17 34  1  0
 17 35  1  0
 18 36  1  0
 18 37  1  0
 20 38  1  0
 21 39  1  0
 22 40  1  0
 23 41  1  0
 24 42  1  0
 25 43  1  0
 26 44  1  0
 26 45  1  0
 26 46  1  0
 27 47  1  0
 28 48  1  0
M  END
> <Uni-Dock RESULT> 
ENERGY=   -5.612  LOWER_BOUND=    4.303  UPPER_BOUND=    9.721
INTER + INTRA:          -5.612
INTER:                  -5.612
INTRA:                   0.000
UNBOUND:                 0.000

$$$$

     RDKit          3D

 48 50  0  0  0  0  0  0  0  0999 V2000
   46.5879    7.2252   12.8563 C   0  0  0  0  0  0  0  0  0  0  0  0
   45.3564    6.9207   12.0515 C   0  0  0  0  0  0  0  0  0  0  0  0
   47.1718    8.4876   12.6237 C   0  0  0  0  0  0  0  0  0  0  0  0
   48.9530   10.2188   13.1064 C   0  0  0  0  0  0  0  0  0  0  0  0
   48.3123    8.8914   13.3222 C   0  0  0  0  0  0  0  0  0  0  0  0
   44.6695    5.7688   12.3456 N   0  0  0  0  0  0  0  0  0  0  0  0
   48.1434   11.2285   12.6321 N   0  0  0  0  0  0  0  0  0  0  0  0
   47.1796    6.3456   13.7893 C   0  0  0  0  0  0  0  0  0  0  0  0
   44.9945    7.6975   11.1713 O   0  0  0  0  0  0  0  0  0  0  0  0
   50.1376   10.3767   13.3802 O   0  0  0  0  0  0  0  0  0  0  0  0
   44.1376    1.8720   10.0453 N   0  0  0  0  0  0  0  0  0  0  0  0
   48.7554   14.0634   15.9933 N   0  0  0  0  0  0  0  0  0  0  0  0
   48.8918    8.0165   14.2429 C   0  0  0  0  0  0  0  0  0  0  0  0
   48.3295    6.7579   14.4773 C   0  0  0  0  0  0  0  0  0  0  0  0
   43.9921    4.2292   10.5965 C   0  0  0  0  0  0  0  0  0  0  0  0
   48.2569   13.4002   13.7146 C   0  0  0  0  0  0  0  0  0  0  0  0
   48.6302   12.5849   12.5120 C   0  0  0  0  0  0  0  0  0  0  0  0
   43.5570    5.2979   11.5552 C   0  0  0  0  0  0  0  0  0  0  0  0
   46.5910    5.1208   13.9824 O   0  0  0  0  0  0  0  0  0  0  0  0
   49.0379   13.3692   14.8665 C   0  0  0  0  0  0  0  0  0  0  0  0
   43.7558    2.8838   10.8579 C   0  0  0  0  0  0  0  0  0  0  0  0
   44.7905    2.2175    8.9147 C   0  0  0  0  0  0  0  0  0  0  0  0
   47.6381   14.8199   15.9763 C   0  0  0  0  0  0  0  0  0  0  0  0
   44.6767    4.5432    9.4188 C   0  0  0  0  0  0  0  0  0  0  0  0
   47.1023   14.1876   13.7410 C   0  0  0  0  0  0  0  0  0  0  0  0
   47.3038    4.1534   14.7481 C   0  0  0  0  0  0  0  0  0  0  0  0
   45.0813    3.5245    8.5617 C   0  0  0  0  0  0  0  0  0  0  0  0
   46.7877   14.9123   14.8872 C   0  0  0  0  0  0  0  0  0  0  0  0
   46.7341    9.1388   11.8706 H   0  0  0  0  0  0  0  0  0  0  0  0
   45.0872    5.1294   13.0135 H   0  0  0  0  0  0  0  0  0  0  0  0
   47.1411   11.1020   12.6283 H   0  0  0  0  0  0  0  0  0  0  0  0
   49.7872    8.3134   14.7880 H   0  0  0  0  0  0  0  0  0  0  0  0
   48.8192    6.1255   15.2118 H   0  0  0  0  0  0  0  0  0  0  0  0
   49.7160   12.5963   12.3632 H   0  0  0  0  0  0  0  0  0  0  0  0
   48.1781   13.0112   11.6095 H   0  0  0  0  0  0  0  0  0  0  0  0
   42.8085    4.9081   12.2539 H   0  0  0  0  0  0  0  0  0  0  0  0
   43.0901    6.1255   11.0094 H   0  0  0  0  0  0  0  0  0  0  0  0
   49.9394   12.7614   14.9176 H   0  0  0  0  0  0  0  0  0  0  0  0
   43.2372    2.5654   11.7584 H   0  0  0  0  0  0  0  0  0  0  0  0
   45.0853    1.3881    8.2785 H   0  0  0  0  0  0  0  0  0  0  0  0
   47.4364   15.3670   16.8926 H   0  0  0  0  0  0  0  0  0  0  0  0
   44.8972    5.5802    9.1726 H   0  0  0  0  0  0  0  0  0  0  0  0
   46.4479   14.2433   12.8750 H   0  0  0  0  0  0  0  0  0  0  0  0
   48.2975    3.9666   14.3279 H   0  0  0  0  0  0  0  0  0  0  0  0
   46.7419    3.2155   14.7031 H   0  0  0  0  0  0  0  0  0  0  0  0
   47.3640    4.4546   15.7987 H   0  0  0  0  0  0  0  0  0  0  0  0
   45.6122    3.7460    7.6429 H   0  0  0  0  0  0  0  0  0  0  0  0
   45.9009   15.5343   14.9311 H   0  0  0  0  0  0  0  0  0  0  0  0
  2  1  1  0
  3  1  2  0
  4  5  1  0
  5  3  1  0
  6  2  1  0
  7  4  1  0
  8  1  1  0
  9  2  2  0
 10  4  2  0
 11 21  2  0
 12 20  2  0
 13 14  1  0
 14  8  2  0
 15 18  1  0
 16 17  1  0
 17  7  1  0
 18  6  1  0
 19  8  1  0
 20 16  1  0
 21 15  1  0
 22 27  2  0
 23 28  2  0
 24 15  2  0
 25 16  2  0
 26 19  1  0
 27 24  1  0
 28 25  1  0
  5 13  2  0
 11 22  1  0
 12 23  1  0
  3 29  1  0
  6 30  1  0
  7 31  1  0
 13 32  1  0
 14 33  1  0
 17 34  1  0
 17 35  1  0
 18 36  1  0
 18 37  1  0
 20 38  1  0
 21 39  1  0
 22 40  1  0
 23 41  1  0
 24 42  1  0
 25 43  1  0
 26 44  1  0
 26 45  1  0
 26 46  1  0
 27 47  1  0
 28 48  1  0
M  END
> <Uni-Dock RESULT> 
ENERGY=   -5.335  LOWER_BOUND=    2.212  UPPER_BOUND=    2.647
INTER + INTRA:          -5.335
INTER:                  -5.335
INTRA:                   0.000
UNBOUND:                 0.000

$$$$

     RDKit          3D

 48 50  0  0  0  0  0  0  0  0999 V2000
   46.6254    7.2178   12.9584 C   0  0  0  0  0  0  0  0  0  0  0  0
   45.3806    6.9400   12.1645 C   0  0  0  0  0  0  0  0  0  0  0  0
   47.2308    8.4699   12.7251 C   0  0  0  0  0  0  0  0  0  0  0  0
   49.0492   10.1651   13.1971 C   0  0  0  0  0  0  0  0  0  0  0  0
   48.3855    8.8492   13.4141 C   0  0  0  0  0  0  0  0  0  0  0  0
   44.6749    5.8002   12.4608 N   0  0  0  0  0  0  0  0  0  0  0  0
   48.2544   11.1918   12.7347 N   0  0  0  0  0  0  0  0  0  0  0  0
   47.2092    6.3234   13.8822 C   0  0  0  0  0  0  0  0  0  0  0  0
   45.0251    7.7271   11.2908 O   0  0  0  0  0  0  0  0  0  0  0  0
   50.2391   10.2994   13.4600 O   0  0  0  0  0  0  0  0  0  0  0  0
   44.0469    1.9235   10.1507 N   0  0  0  0  0  0  0  0  0  0  0  0
   48.9525   14.0010   16.1007 N   0  0  0  0  0  0  0  0  0  0  0  0
   48.9571    7.9598   14.3257 C   0  0  0  0  0  0  0  0  0  0  0  0
   48.3733    6.7110   14.5606 C   0  0  0  0  0  0  0  0  0  0  0  0
   43.9515    4.2808   10.7124 C   0  0  0  0  0  0  0  0  0  0  0  0
   48.4195   13.3565   13.8244 C   0  0  0  0  0  0  0  0  0  0  0  0
   48.7657   12.5392   12.6151 C   0  0  0  0  0  0  0  0  0  0  0  0
   43.5460    5.3536   11.6794 C   0  0  0  0  0  0  0  0  0  0  0  0
   46.5993    5.1093   14.0763 O   0  0  0  0  0  0  0  0  0  0  0  0
   49.2108   13.3061   14.9685 C   0  0  0  0  0  0  0  0  0  0  0  0
   43.6922    2.9390   10.9708 C   0  0  0  0  0  0  0  0  0  0  0  0
   44.6953    2.2611    9.0151 C   0  0  0  0  0  0  0  0  0  0  0  0
   47.8496   14.7786   16.0975 C   0  0  0  0  0  0  0  0  0  0  0  0
   44.6305    4.5865    9.5293 C   0  0  0  0  0  0  0  0  0  0  0  0
   47.2803   14.1656   13.8650 C   0  0  0  0  0  0  0  0  0  0  0  0
   47.3010    4.1254   14.8313 C   0  0  0  0  0  0  0  0  0  0  0  0
   45.0074    3.5639    8.6644 C   0  0  0  0  0  0  0  0  0  0  0  0
   46.9907   14.8915   15.0171 C   0  0  0  0  0  0  0  0  0  0  0  0
   46.7983    9.1323   11.9788 H   0  0  0  0  0  0  0  0  0  0  0  0
   45.0867    5.1503   13.1221 H   0  0  0  0  0  0  0  0  0  0  0  0
   47.2499   11.0844   12.7401 H   0  0  0  0  0  0  0  0  0  0  0  0
   49.8632    8.2374   14.8631 H   0  0  0  0  0  0  0  0  0  0  0  0
   48.8580    6.0665   15.2878 H   0  0  0  0  0  0  0  0  0  0  0  0
   49.8500   12.5307   12.4558 H   0  0  0  0  0  0  0  0  0  0  0  0
   48.3131   12.9777   11.7187 H   0  0  0  0  0  0  0  0  0  0  0  0
   42.7970    4.9752   12.3838 H   0  0  0  0  0  0  0  0  0  0  0  0
   43.0897    6.1921   11.1414 H   0  0  0  0  0  0  0  0  0  0  0  0
   50.1011   12.6812   15.0085 H   0  0  0  0  0  0  0  0  0  0  0  0
   43.1764    2.6269   11.8751 H   0  0  0  0  0  0  0  0  0  0  0  0
   44.9682    1.4289    8.3729 H   0  0  0  0  0  0  0  0  0  0  0  0
   47.6671   15.3257   17.0178 H   0  0  0  0  0  0  0  0  0  0  0  0
   44.8683    5.6202    9.2850 H   0  0  0  0  0  0  0  0  0  0  0  0
   46.6188   14.2372   13.0057 H   0  0  0  0  0  0  0  0  0  0  0  0
   48.2869    3.9215   14.4007 H   0  0  0  0  0  0  0  0  0  0  0  0
   46.7209    3.1985   14.7881 H   0  0  0  0  0  0  0  0  0  0  0  0
   47.3770    4.4211   15.8824 H   0  0  0  0  0  0  0  0  0  0  0  0
   45.5335    3.7790    7.7413 H   0  0  0  0  0  0  0  0  0  0  0  0
   46.1163   15.5300   15.0720 H   0  0  0  0  0  0  0  0  0  0  0  0
  2  1  1  0
  3  1  2  0
  4  5  1  0
  5  3  1  0
  6  2  1  0
  7  4  1  0
  8  1  1  0
  9  2  2  0
 10  4  2  0
 11 21  2  0
 12 20  2  0
 13 14  1  0
 14  8  2  0
 15 18  1  0
 16 17  1  0
 17  7  1  0
 18  6  1  0
 19  8  1  0
 20 16  1  0
 21 15  1  0
 22 27  2  0
 23 28  2  0
 24 15  2  0
 25 16  2  0
 26 19  1  0
 27 24  1  0
 28 25  1  0
  5 13  2  0
 11 22  1  0
 12 23  1  0
  3 29  1  0
  6 30  1  0
  7 31  1  0
 13 32  1  0
 14 33  1  0
 17 34  1  0
 17 35  1  0
 18 36  1  0
 18 37  1  0
 20 38  1  0
 21 39  1  0
 22 40  1  0
 23 41  1  0
 24 42  1  0
 25 43  1  0
 26 44  1  0
 26 45  1  0
 26 46  1  0
 27 47  1  0
 28 48  1  0
M  END
> <Uni-Dock RESULT> 
ENERGY=   -5.332  LOWER_BOUND=    2.326  UPPER_BOUND=    2.773
INTER + INTRA:          -5.332
INTER:                  -5.332
INTRA:                   0.000
UNBOUND:                 0.000

$$$$

     RDKit          3D

 48 50  0  0  0  0  0  0  0  0999 V2000
   46.5895    7.8398   13.2184 C   0  0  0  0  0  0  0  0  0  0  0  0
   47.7184    8.3106   14.0908 C   0  0  0  0  0  0  0  0  0  0  0  0
   45.8300    8.8560   12.6026 C   0  0  0  0  0  0  0  0  0  0  0  0
   43.9423    9.5895   11.0854 C   0  0  0  0  0  0  0  0  0  0  0  0
   44.7631    8.5430   11.7567 C   0  0  0  0  0  0  0  0  0  0  0  0
   48.5746    7.3629   14.5945 N   0  0  0  0  0  0  0  0  0  0  0  0
   44.5464   10.8100   10.8731 N   0  0  0  0  0  0  0  0  0  0  0  0
   46.2505    6.4867   12.9983 C   0  0  0  0  0  0  0  0  0  0  0  0
   47.8518    9.5095   14.3229 O   0  0  0  0  0  0  0  0  0  0  0  0
   42.7999    9.3304   10.7236 O   0  0  0  0  0  0  0  0  0  0  0  0
   49.2322    5.7959   18.8220 N   0  0  0  0  0  0  0  0  0  0  0  0
   44.0929   10.8995    6.4578 N   0  0  0  0  0  0  0  0  0  0  0  0
   44.4337    7.2033   11.5439 C   0  0  0  0  0  0  0  0  0  0  0  0
   45.1718    6.1850   12.1551 C   0  0  0  0  0  0  0  0  0  0  0  0
   49.1709    7.3323   16.9466 C   0  0  0  0  0  0  0  0  0  0  0  0
   44.3306   11.8362    8.6820 C   0  0  0  0  0  0  0  0  0  0  0  0
   43.8873   11.8501   10.1150 C   0  0  0  0  0  0  0  0  0  0  0  0
   49.6089    7.6732   15.5528 C   0  0  0  0  0  0  0  0  0  0  0  0
   47.0044    5.5244   13.6223 O   0  0  0  0  0  0  0  0  0  0  0  0
   43.7352   10.9794    7.7605 C   0  0  0  0  0  0  0  0  0  0  0  0
   49.6033    6.1700   17.5762 C   0  0  0  0  0  0  0  0  0  0  0  0
   48.3847    6.6209   19.4742 C   0  0  0  0  0  0  0  0  0  0  0  0
   45.0963   11.7060    6.0531 C   0  0  0  0  0  0  0  0  0  0  0  0
   48.2893    8.1549   17.6539 C   0  0  0  0  0  0  0  0  0  0  0  0
   45.3733   12.6478    8.2257 C   0  0  0  0  0  0  0  0  0  0  0  0
   46.5326    4.1805   13.5829 C   0  0  0  0  0  0  0  0  0  0  0  0
   47.8901    7.7979   18.9381 C   0  0  0  0  0  0  0  0  0  0  0  0
   45.7616   12.5860    6.8903 C   0  0  0  0  0  0  0  0  0  0  0  0
   46.0716    9.8950   12.8147 H   0  0  0  0  0  0  0  0  0  0  0  0
   48.3389    6.3877   14.4432 H   0  0  0  0  0  0  0  0  0  0  0  0
   45.5454   10.8986   10.9953 H   0  0  0  0  0  0  0  0  0  0  0  0
   43.5979    6.9438   10.8949 H   0  0  0  0  0  0  0  0  0  0  0  0
   44.8741    5.1622   11.9440 H   0  0  0  0  0  0  0  0  0  0  0  0
   42.7980   11.7478   10.1803 H   0  0  0  0  0  0  0  0  0  0  0  0
   44.1484   12.8056   10.5835 H   0  0  0  0  0  0  0  0  0  0  0  0
   50.4926    7.0896   15.2724 H   0  0  0  0  0  0  0  0  0  0  0  0
   49.8879    8.7313   15.4945 H   0  0  0  0  0  0  0  0  0  0  0  0
   42.9307   10.3084    8.0559 H   0  0  0  0  0  0  0  0  0  0  0  0
   50.2821    5.4790   17.0832 H   0  0  0  0  0  0  0  0  0  0  0  0
   48.1026    6.2998   20.4726 H   0  0  0  0  0  0  0  0  0  0  0  0
   45.3618   11.6223    5.0033 H   0  0  0  0  0  0  0  0  0  0  0  0
   47.9118    9.0704   17.2022 H   0  0  0  0  0  0  0  0  0  0  0  0
   45.8830   13.3296    8.9013 H   0  0  0  0  0  0  0  0  0  0  0  0
   45.5182    4.1026   13.9876 H   0  0  0  0  0  0  0  0  0  0  0  0
   47.1911    3.5794   14.2175 H   0  0  0  0  0  0  0  0  0  0  0  0
   46.5902    3.7763   12.5674 H   0  0  0  0  0  0  0  0  0  0  0  0
   47.2083    8.4220   19.5044 H   0  0  0  0  0  0  0  0  0  0  0  0
   46.5638   13.2087    6.5107 H   0  0  0  0  0  0  0  0  0  0  0  0
  2  1  1  0
  3  1  2  0
  4  5  1  0
  5  3  1  0
  6  2  1  0
  7  4  1  0
  8  1  1  0
  9  2  2  0
 10  4  2  0
 11 21  2  0
 12 20  2  0
 13 14  1  0
 14  8  2  0
 15 18  1  0
 16 17  1  0
 17  7  1  0
 18  6  1  0
 19  8  1  0
 20 16  1  0
 21 15  1  0
 22 27  2  0
 23 28  2  0
 24 15  2  0
 25 16  2  0
 26 19  1  0
 27 24  1  0
 28 25  1  0
  5 13  2  0
 11 22  1  0
 12 23  1  0
  3 29  1  0
  6 30  1  0
  7 31  1  0
 13 32  1  0
 14 33  1  0
 17 34  1  0
 17 35  1  0
 18 36  1  0
 18 37  1  0
 20 38  1  0
 21 39  1  0
 22 40  1  0
 23 41  1  0
 24 42  1  0
 25 43  1  0
 26 44  1  0
 26 45  1  0
 26 46  1  0
 27 47  1  0
 28 48  1  0
M  END
> <Uni-Dock RESULT> 
ENERGY=   -5.184  LOWER_BOUND=    3.708  UPPER_BOUND=    6.700
INTER + INTRA:          -5.184
INTER:                  -5.184
INTRA:                   0.000
UNBOUND:                 0.000

$$$$

     RDKit          3D

 48 50  0  0  0  0  0  0  0  0999 V2000
   49.2202    7.8309   13.1084 C   0  0  0  0  0  0  0  0  0  0  0  0
   50.0567    8.8159   12.3424 C   0  0  0  0  0  0  0  0  0  0  0  0
   47.9708    7.5161   12.5353 C   0  0  0  0  0  0  0  0  0  0  0  0
   45.7850    6.2416   12.5681 C   0  0  0  0  0  0  0  0  0  0  0  0
   47.1095    6.6019   13.1470 C   0  0  0  0  0  0  0  0  0  0  0  0
   51.3377    9.0438   12.7811 N   0  0  0  0  0  0  0  0  0  0  0  0
   45.6427    6.3901   11.2052 N   0  0  0  0  0  0  0  0  0  0  0  0
   49.5952    7.2338   14.3320 C   0  0  0  0  0  0  0  0  0  0  0  0
   49.5881    9.3783   11.3559 O   0  0  0  0  0  0  0  0  0  0  0  0
   44.8992    5.8058   13.2951 O   0  0  0  0  0  0  0  0  0  0  0  0
   53.2825   12.6669   14.7433 N   0  0  0  0  0  0  0  0  0  0  0  0
   44.6014    2.1732   10.2874 N   0  0  0  0  0  0  0  0  0  0  0  0
   47.4869    6.0156   14.3564 C   0  0  0  0  0  0  0  0  0  0  0  0
   48.7187    6.3251   14.9415 C   0  0  0  0  0  0  0  0  0  0  0  0
   52.1842   11.2998   13.0681 C   0  0  0  0  0  0  0  0  0  0  0  0
   44.6310    4.5742    9.9482 C   0  0  0  0  0  0  0  0  0  0  0  0
   44.4464    5.9469   10.5244 C   0  0  0  0  0  0  0  0  0  0  0  0
   52.1880   10.0647   12.2165 C   0  0  0  0  0  0  0  0  0  0  0  0
   50.8134    7.5715   14.8664 O   0  0  0  0  0  0  0  0  0  0  0  0
   44.4376    3.4407   10.7326 C   0  0  0  0  0  0  0  0  0  0  0  0
   53.2331   11.5822   13.9366 C   0  0  0  0  0  0  0  0  0  0  0  0
   52.2319   13.5135   14.6837 C   0  0  0  0  0  0  0  0  0  0  0  0
   44.9830    2.0260    9.0015 C   0  0  0  0  0  0  0  0  0  0  0  0
   51.1135   12.1982   13.0420 C   0  0  0  0  0  0  0  0  0  0  0  0
   45.0361    4.3795    8.6246 C   0  0  0  0  0  0  0  0  0  0  0  0
   51.0963    7.1486   16.1973 C   0  0  0  0  0  0  0  0  0  0  0  0
   51.1356   13.3241   13.8591 C   0  0  0  0  0  0  0  0  0  0  0  0
   45.2122    3.0862    8.1405 C   0  0  0  0  0  0  0  0  0  0  0  0
   47.6728    8.0157   11.6163 H   0  0  0  0  0  0  0  0  0  0  0  0
   51.6162    8.6205   13.6601 H   0  0  0  0  0  0  0  0  0  0  0  0
   46.4611    6.5459   10.6337 H   0  0  0  0  0  0  0  0  0  0  0  0
   46.8215    5.3085   14.8505 H   0  0  0  0  0  0  0  0  0  0  0  0
   48.9608    5.8303   15.8773 H   0  0  0  0  0  0  0  0  0  0  0  0
   43.5844    5.9658   11.2011 H   0  0  0  0  0  0  0  0  0  0  0  0
   44.2432    6.6693    9.7258 H   0  0  0  0  0  0  0  0  0  0  0  0
   53.1973    9.6432   12.1525 H   0  0  0  0  0  0  0  0  0  0  0  0
   51.8747   10.3107   11.1957 H   0  0  0  0  0  0  0  0  0  0  0  0
   44.1401    3.5240   11.7763 H   0  0  0  0  0  0  0  0  0  0  0  0
   54.0942   10.9238   14.0161 H   0  0  0  0  0  0  0  0  0  0  0  0
   52.2953   14.3770   15.3393 H   0  0  0  0  0  0  0  0  0  0  0  0
   45.1057    0.9988    8.6704 H   0  0  0  0  0  0  0  0  0  0  0  0
   50.2621   12.0177   12.3883 H   0  0  0  0  0  0  0  0  0  0  0  0
   45.2126    5.2267    7.9673 H   0  0  0  0  0  0  0  0  0  0  0  0
   50.3322    7.5011   16.8980 H   0  0  0  0  0  0  0  0  0  0  0  0
   52.0501    7.5969   16.4920 H   0  0  0  0  0  0  0  0  0  0  0  0
   51.2115    6.0611   16.2451 H   0  0  0  0  0  0  0  0  0  0  0  0
   50.3164   14.0341   13.8536 H   0  0  0  0  0  0  0  0  0  0  0  0
   45.5208    2.9084    7.1165 H   0  0  0  0  0  0  0  0  0  0  0  0
  2  1  1  0
  3  1  2  0
  4  5  1  0
  5  3  1  0
  6  2  1  0
  7  4  1  0
  8  1  1  0
  9  2  2  0
 10  4  2  0
 11 21  2  0
 12 20  2  0
 13 14  1  0
 14  8  2  0
 15 18  1  0
 16 17  1  0
 17  7  1  0
 18  6  1  0
 19  8  1  0
 20 16  1  0
 21 15  1  0
 22 27  2  0
 23 28  2  0
 24 15  2  0
 25 16  2  0
 26 19  1  0
 27 24  1  0
 28 25  1  0
  5 13  2  0
 11 22  1  0
 12 23  1  0
  3 29  1  0
  6 30  1  0
  7 31  1  0
 13 32  1  0
 14 33  1  0
 17 34  1  0
 17 35  1  0
 18 36  1  0
 18 37  1  0
 20 38  1  0
 21 39  1  0
 22 40  1  0
 23 41  1  0
 24 42  1  0
 25 43  1  0
 26 44  1  0
 26 45  1  0
 26 46  1  0
 27 47  1  0
 28 48  1  0
M  END
> <Uni-Dock RESULT> 
ENERGY=   -4.549  LOWER_BOUND=    4.384  UPPER_BOUND=    9.526
INTER + INTRA:          -4.549
INTER:                  -4.549
INTRA:                   0.000
UNBOUND:                 0.000

$$$$

     RDKit          3D

 48 50  0  0  0  0  0  0  0  0999 V2000
   48.1097    9.5341   17.4310 C   0  0  0  0  0  0  0  0  0  0  0  0
   48.3788    9.0628   16.0301 C   0  0  0  0  0  0  0  0  0  0  0  0
   48.0113    8.5210   18.4069 C   0  0  0  0  0  0  0  0  0  0  0  0
   47.6726    7.7924   20.8065 C   0  0  0  0  0  0  0  0  0  0  0  0
   47.7775    8.8354   19.7480 C   0  0  0  0  0  0  0  0  0  0  0  0
   48.6273   10.0147   15.0724 N   0  0  0  0  0  0  0  0  0  0  0  0
   48.3195    6.5991   20.5675 N   0  0  0  0  0  0  0  0  0  0  0  0
   47.9431   10.8843   17.8097 C   0  0  0  0  0  0  0  0  0  0  0  0
   48.3783    7.8602   15.7796 O   0  0  0  0  0  0  0  0  0  0  0  0
   47.0601    8.0321   21.8411 O   0  0  0  0  0  0  0  0  0  0  0  0
   46.1949   11.4351   11.4911 N   0  0  0  0  0  0  0  0  0  0  0  0
   50.9586    6.6675   24.1367 N   0  0  0  0  0  0  0  0  0  0  0  0
   47.6137   10.1723   20.1149 C   0  0  0  0  0  0  0  0  0  0  0  0
   47.6993   11.1871   19.1567 C   0  0  0  0  0  0  0  0  0  0  0  0
   47.4841    9.9714   12.9323 C   0  0  0  0  0  0  0  0  0  0  0  0
   49.6827    5.6527   22.3414 C   0  0  0  0  0  0  0  0  0  0  0  0
   48.3921    5.5704   21.5813 C   0  0  0  0  0  0  0  0  0  0  0  0
   48.7612    9.6976   13.6703 C   0  0  0  0  0  0  0  0  0  0  0  0
   48.0344   11.8431   16.8319 O   0  0  0  0  0  0  0  0  0  0  0  0
   49.8221    6.5269   23.4157 C   0  0  0  0  0  0  0  0  0  0  0  0
   47.3247   11.1205   12.1651 C   0  0  0  0  0  0  0  0  0  0  0  0
   45.1697   10.5613   11.5876 C   0  0  0  0  0  0  0  0  0  0  0  0
   52.0101    5.9068   23.7671 C   0  0  0  0  0  0  0  0  0  0  0  0
   46.3964    9.0968   13.0110 C   0  0  0  0  0  0  0  0  0  0  0  0
   50.7981    4.8899   21.9836 C   0  0  0  0  0  0  0  0  0  0  0  0
   47.6486   13.1734   17.1666 C   0  0  0  0  0  0  0  0  0  0  0  0
   45.2209    9.3921   12.3277 C   0  0  0  0  0  0  0  0  0  0  0  0
   51.9801    5.0146   22.7083 C   0  0  0  0  0  0  0  0  0  0  0  0
   48.0964    7.4820   18.0969 H   0  0  0  0  0  0  0  0  0  0  0  0
   48.5087   10.9878   15.3342 H   0  0  0  0  0  0  0  0  0  0  0  0
   48.9792    6.5348   19.8050 H   0  0  0  0  0  0  0  0  0  0  0  0
   47.4208   10.4324   21.1552 H   0  0  0  0  0  0  0  0  0  0  0  0
   47.5729   12.2083   19.5039 H   0  0  0  0  0  0  0  0  0  0  0  0
   47.5389    5.6386   22.2659 H   0  0  0  0  0  0  0  0  0  0  0  0
   48.3151    4.6054   21.0678 H   0  0  0  0  0  0  0  0  0  0  0  0
   49.5747   10.3170   13.2769 H   0  0  0  0  0  0  0  0  0  0  0  0
   49.0568    8.6511   13.5351 H   0  0  0  0  0  0  0  0  0  0  0  0
   48.9974    7.1624   23.7332 H   0  0  0  0  0  0  0  0  0  0  0  0
   48.1248   11.8494   12.0658 H   0  0  0  0  0  0  0  0  0  0  0  0
   44.2745   10.8352   11.0369 H   0  0  0  0  0  0  0  0  0  0  0  0
   52.9084    6.0387   24.3632 H   0  0  0  0  0  0  0  0  0  0  0  0
   46.4650    8.1889   13.6075 H   0  0  0  0  0  0  0  0  0  0  0  0
   50.7525    4.1975   21.1472 H   0  0  0  0  0  0  0  0  0  0  0  0
   46.6236   13.2061   17.5502 H   0  0  0  0  0  0  0  0  0  0  0  0
   47.6795   13.7683   16.2486 H   0  0  0  0  0  0  0  0  0  0  0  0
   48.3550   13.6181   17.8746 H   0  0  0  0  0  0  0  0  0  0  0  0
   44.3661    8.7270   12.3742 H   0  0  0  0  0  0  0  0  0  0  0  0
   52.8575    4.4306   22.4541 H   0  0  0  0  0  0  0  0  0  0  0  0
  2  1  1  0
  3  1  2  0
  4  5  1  0
  5  3  1  0
  6  2  1  0
  7  4  1  0
  8  1  1  0
  9  2  2  0
 10  4  2  0
 11 21  2  0
 12 20  2  0
 13 14  1  0
 14  8  2  0
 15 18  1  0
 16 17  1  0
 17  7  1  0
 18  6  1  0
 19  8  1  0
 20 16  1  0
 21 15  1  0
 22 27  2  0
 23 28  2  0
 24 15  2  0
 25 16  2  0
 26 19  1  0
 27 24  1  0
 28 25  1  0
  5 13  2  0
 11 22  1  0
 12 23  1  0
  3 29  1  0
  6 30  1  0
  7 31  1  0
 13 32  1  0
 14 33  1  0
 17 34  1  0
 17 35  1  0
 18 36  1  0
 18 37  1  0
 20 38  1  0
 21 39  1  0
 22 40  1  0
 23 41  1  0
 24 42  1  0
 25 43  1  0
 26 44  1  0
 26 45  1  0
 26 46  1  0
 27 47  1  0
 28 48  1  0
M  END
> <Uni-Dock RESULT> 
ENERGY=   -4.432  LOWER_BOUND=    6.602  UPPER_BOUND=   10.059
INTER + INTRA:          -4.432
INTER:                  -4.432
INTRA:                   0.000
UNBOUND:                 0.000

$$$$

     RDKit          3D

 48 50  0  0  0  0  0  0  0  0999 V2000
   48.0011    8.1905   18.6281 C   0  0  0  0  0  0  0  0  0  0  0  0
   47.9786    6.8220   19.2474 C   0  0  0  0  0  0  0  0  0  0  0  0
   48.1752    8.2241   17.2291 C   0  0  0  0  0  0  0  0  0  0  0  0
   48.3754    9.5109   15.0595 C   0  0  0  0  0  0  0  0  0  0  0  0
   48.1986    9.4374   16.5369 C   0  0  0  0  0  0  0  0  0  0  0  0
   47.6670    6.7294   20.5814 N   0  0  0  0  0  0  0  0  0  0  0  0
   47.9880    8.4057   14.3328 N   0  0  0  0  0  0  0  0  0  0  0  0
   47.8752    9.4017   19.3434 C   0  0  0  0  0  0  0  0  0  0  0  0
   48.2268    5.8357   18.5584 O   0  0  0  0  0  0  0  0  0  0  0  0
   48.8161   10.5340   14.5476 O   0  0  0  0  0  0  0  0  0  0  0  0
   50.1775    5.6378   24.2236 N   0  0  0  0  0  0  0  0  0  0  0  0
   45.0045   10.4466   11.7556 N   0  0  0  0  0  0  0  0  0  0  0  0
   48.0735   10.6306   17.2505 C   0  0  0  0  0  0  0  0  0  0  0  0
   47.9097   10.6134   18.6391 C   0  0  0  0  0  0  0  0  0  0  0  0
   49.0273    5.4136   22.1003 C   0  0  0  0  0  0  0  0  0  0  0  0
   46.6343    8.7505   12.3455 C   0  0  0  0  0  0  0  0  0  0  0  0
   47.9938    8.4204   12.8868 C   0  0  0  0  0  0  0  0  0  0  0  0
   47.7485    5.4914   21.3197 C   0  0  0  0  0  0  0  0  0  0  0  0
   47.7181    9.3318   20.7050 O   0  0  0  0  0  0  0  0  0  0  0  0
   46.2199   10.0734   12.2192 C   0  0  0  0  0  0  0  0  0  0  0  0
   49.0571    5.6730   23.4664 C   0  0  0  0  0  0  0  0  0  0  0  0
   51.3284    5.3304   23.5872 C   0  0  0  0  0  0  0  0  0  0  0  0
   44.1571    9.4558   11.4073 C   0  0  0  0  0  0  0  0  0  0  0  0
   50.2413    5.1059   21.4792 C   0  0  0  0  0  0  0  0  0  0  0  0
   45.7235    7.7536   11.9840 C   0  0  0  0  0  0  0  0  0  0  0  0
   47.8147   10.5433   21.4489 C   0  0  0  0  0  0  0  0  0  0  0  0
   51.4108    5.0604   22.2315 C   0  0  0  0  0  0  0  0  0  0  0  0
   44.4662    8.1093   11.5039 C   0  0  0  0  0  0  0  0  0  0  0  0
   48.3164    7.2878   16.6941 H   0  0  0  0  0  0  0  0  0  0  0  0
   47.5760    7.5939   21.1045 H   0  0  0  0  0  0  0  0  0  0  0  0
   47.4393    7.6843   14.7789 H   0  0  0  0  0  0  0  0  0  0  0  0
   48.1000   11.5850   16.7258 H   0  0  0  0  0  0  0  0  0  0  0  0
   47.8081   11.5728   19.1379 H   0  0  0  0  0  0  0  0  0  0  0  0
   48.7395    9.1289   12.5083 H   0  0  0  0  0  0  0  0  0  0  0  0
   48.3021    7.4225   12.5552 H   0  0  0  0  0  0  0  0  0  0  0  0
   46.8837    5.4603   21.9916 H   0  0  0  0  0  0  0  0  0  0  0  0
   47.6661    4.6310   20.6461 H   0  0  0  0  0  0  0  0  0  0  0  0
   46.8743   10.8962   12.5010 H   0  0  0  0  0  0  0  0  0  0  0  0
   48.1531    5.9275   24.0134 H   0  0  0  0  0  0  0  0  0  0  0  0
   52.2134    5.3072   24.2164 H   0  0  0  0  0  0  0  0  0  0  0  0
   43.1899    9.7835   11.0376 H   0  0  0  0  0  0  0  0  0  0  0  0
   50.2748    4.9058   20.4098 H   0  0  0  0  0  0  0  0  0  0  0  0
   45.9868    6.7027   12.0705 H   0  0  0  0  0  0  0  0  0  0  0  0
   48.7679   11.0493   21.2636 H   0  0  0  0  0  0  0  0  0  0  0  0
   47.7767   10.2839   22.5113 H   0  0  0  0  0  0  0  0  0  0  0  0
   46.9654   11.2003   21.2367 H   0  0  0  0  0  0  0  0  0  0  0  0
   52.3625    4.8226   21.7701 H   0  0  0  0  0  0  0  0  0  0  0  0
   43.7439    7.3553   11.2121 H   0  0  0  0  0  0  0  0  0  0  0  0
  2  1  1  0
  3  1  2  0
  4  5  1  0
  5  3  1  0
  6  2  1  0
  7  4  1  0
  8  1  1  0
  9  2  2  0
 10  4  2  0
 11 21  2  0
 12 20  2  0
 13 14  1  0
 14  8  2  0
 15 18  1  0
 16 17  1  0
 17  7  1  0
 18  6  1  0
 19  8  1  0
 20 16  1  0
 21 15  1  0
 22 27  2  0
 23 28  2  0
 24 15  2  0
 25 16  2  0
 26 19  1  0
 27 24  1  0
 28 25  1  0
  5 13  2  0
 11 22  1  0
 12 23  1  0
  3 29  1  0
  6 30  1  0
  7 31  1  0
 13 32  1  0
 14 33  1  0
 17 34  1  0
 17 35  1  0
 18 36  1  0
 18 37  1  0
 20 38  1  0
 21 39  1  0
 22 40  1  0
 23 41  1  0
 24 42  1  0
 25 43  1  0
 26 44  1  0
 26 45  1  0
 26 46  1  0
 27 47  1  0
 28 48  1  0
M  END
> <Uni-Dock RESULT> 
ENERGY=   -4.299  LOWER_BOUND=    6.327  UPPER_BOUND=    9.190
INTER + INTRA:          -4.299
INTER:                  -4.299
INTRA:                   0.000
UNBOUND:                 0.000

$$$$
