
     RDKit          3D

 48 50  0  0  0  0  0  0  0  0999 V2000
   44.8479    9.2951   11.6494 C   0  0  0  0  0  0  0  0  0  0  0  0
   44.0135   10.4641   11.2234 C   0  0  0  0  0  0  0  0  0  0  0  0
   46.1254    9.5918   12.1578 C   0  0  0  0  0  0  0  0  0  0  0  0
   48.3357    8.9425   13.0833 C   0  0  0  0  0  0  0  0  0  0  0  0
   46.9892    8.5710   12.5684 C   0  0  0  0  0  0  0  0  0  0  0  0
   42.9386   10.2090   10.4056 N   0  0  0  0  0  0  0  0  0  0  0  0
   49.3412    8.0205   12.8801 N   0  0  0  0  0  0  0  0  0  0  0  0
   44.4223    7.9530   11.5915 C   0  0  0  0  0  0  0  0  0  0  0  0
   44.3048   11.5966   11.5947 O   0  0  0  0  0  0  0  0  0  0  0  0
   48.5097   10.0296   13.6201 O   0  0  0  0  0  0  0  0  0  0  0  0
   39.6340   11.4753   13.0202 N   0  0  0  0  0  0  0  0  0  0  0  0
   53.0407    8.2165   10.2033 N   0  0  0  0  0  0  0  0  0  0  0  0
   46.5662    7.2413   12.4989 C   0  0  0  0  0  0  0  0  0  0  0  0
   45.2933    6.9354   12.0072 C   0  0  0  0  0  0  0  0  0  0  0  0
   40.7362   11.1029   10.8920 C   0  0  0  0  0  0  0  0  0  0  0  0
   51.4692    8.7611   11.9686 C   0  0  0  0  0  0  0  0  0  0  0  0
   50.7189    8.3328   13.1952 C   0  0  0  0  0  0  0  0  0  0  0  0
   41.9770   11.2269   10.0567 C   0  0  0  0  0  0  0  0  0  0  0  0
   43.1737    7.6813   11.0895 O   0  0  0  0  0  0  0  0  0  0  0  0
   52.3494    7.8995   11.3217 C   0  0  0  0  0  0  0  0  0  0  0  0
   40.7117   11.5647   12.2051 C   0  0  0  0  0  0  0  0  0  0  0  0
   38.5283   10.8978   12.5049 C   0  0  0  0  0  0  0  0  0  0  0  0
   52.8481    9.4567    9.7040 C   0  0  0  0  0  0  0  0  0  0  0  0
   39.5744   10.5005   10.3999 C   0  0  0  0  0  0  0  0  0  0  0  0
   51.2947   10.0336   11.4160 C   0  0  0  0  0  0  0  0  0  0  0  0
   42.5055    6.5545   11.6594 C   0  0  0  0  0  0  0  0  0  0  0  0
   38.4505   10.3983   11.2155 C   0  0  0  0  0  0  0  0  0  0  0  0
   51.9944   10.3903   10.2677 C   0  0  0  0  0  0  0  0  0  0  0  0
   46.4548   10.6291   12.2252 H   0  0  0  0  0  0  0  0  0  0  0  0
   42.6874    9.2388   10.2469 H   0  0  0  0  0  0  0  0  0  0  0  0
   49.1835    7.2659   12.2277 H   0  0  0  0  0  0  0  0  0  0  0  0
   47.2035    6.4313   12.8441 H   0  0  0  0  0  0  0  0  0  0  0  0
   45.0069    5.8891   11.9513 H   0  0  0  0  0  0  0  0  0  0  0  0
   50.7775    9.1113   13.9638 H   0  0  0  0  0  0  0  0  0  0  0  0
   51.1618    7.4249   13.6195 H   0  0  0  0  0  0  0  0  0  0  0  0
   42.4074   12.2287   10.1665 H   0  0  0  0  0  0  0  0  0  0  0  0
   41.7378   11.0917    8.9963 H   0  0  0  0  0  0  0  0  0  0  0  0
   52.5325    6.8937   11.6914 H   0  0  0  0  0  0  0  0  0  0  0  0
   41.5872   12.0300   12.6534 H   0  0  0  0  0  0  0  0  0  0  0  0
   37.6781   10.8452   13.1793 H   0  0  0  0  0  0  0  0  0  0  0  0
   53.4179    9.6893    8.8084 H   0  0  0  0  0  0  0  0  0  0  0  0
   39.5372   10.1139    9.3843 H   0  0  0  0  0  0  0  0  0  0  0  0
   50.6138   10.7460   11.8794 H   0  0  0  0  0  0  0  0  0  0  0  0
   41.4432    6.6362   11.4075 H   0  0  0  0  0  0  0  0  0  0  0  0
   42.8794    5.6229   11.2215 H   0  0  0  0  0  0  0  0  0  0  0  0
   42.5910    6.5406   12.7525 H   0  0  0  0  0  0  0  0  0  0  0  0
   37.5355    9.9427   10.8542 H   0  0  0  0  0  0  0  0  0  0  0  0
   51.8747   11.3725    9.8245 H   0  0  0  0  0  0  0  0  0  0  0  0
  2  1  1  0
  3  1  2  0
  4  5  1  0
  5  3  1  0
  6  2  1  0
  7  4  1  0
  8  1  1  0
  9  2  2  0
 10  4  2  0
 11 21  2  0
 12 20  2  0
 13 14  1  0
 14  8  2  0
 15 18  1  0
 16 17  1  0
 17  7  1  0
 18  6  1  0
 19  8  1  0
 20 16  1  0
 21 15  1  0
 22 27  2  0
 23 28  2  0
 24 15  2  0
 25 16  2  0
 26 19  1  0
 27 24  1  0
 28 25  1  0
  5 13  2  0
 11 22  1  0
 12 23  1  0
  3 29  1  0
  6 30  1  0
  7 31  1  0
 13 32  1  0
 14 33  1  0
 17 34  1  0
 17 35  1  0
 18 36  1  0
 18 37  1  0
 20 38  1  0
 21 39  1  0
 22 40  1  0
 23 41  1  0
 24 42  1  0
 25 43  1  0
 26 44  1  0
 26 45  1  0
 26 46  1  0
 27 47  1  0
 28 48  1  0
M  END
> <Uni-Dock RESULT> 
ENERGY=   -4.170  LOWER_BOUND=    0.000  UPPER_BOUND=    0.000
INTER + INTRA:          -4.170
INTER:                  -4.170
INTRA:                   0.000
UNBOUND:                 0.000

$$$$

     RDKit          3D

 48 50  0  0  0  0  0  0  0  0999 V2000
   55.2211    5.2572   11.4707 C   0  0  0  0  0  0  0  0  0  0  0  0
   54.9117    4.8286   10.0690 C   0  0  0  0  0  0  0  0  0  0  0  0
   55.9130    4.3289   12.2693 C   0  0  0  0  0  0  0  0  0  0  0  0
   56.9551    3.5985   14.4010 C   0  0  0  0  0  0  0  0  0  0  0  0
   56.2362    4.6251   13.5976 C   0  0  0  0  0  0  0  0  0  0  0  0
   53.9468    5.5344    9.3905 N   0  0  0  0  0  0  0  0  0  0  0  0
   56.7105    3.6062   15.7584 N   0  0  0  0  0  0  0  0  0  0  0  0
   54.8858    6.5160   12.0082 C   0  0  0  0  0  0  0  0  0  0  0  0
   55.5026    3.8753    9.5717 O   0  0  0  0  0  0  0  0  0  0  0  0
   57.6869    2.7871   13.8477 O   0  0  0  0  0  0  0  0  0  0  0  0
   56.3527    7.2207    6.1152 N   0  0  0  0  0  0  0  0  0  0  0  0
   54.5395    0.5665   18.3923 N   0  0  0  0  0  0  0  0  0  0  0  0
   55.8920    5.8706   14.1289 C   0  0  0  0  0  0  0  0  0  0  0  0
   55.2153    6.8064   13.3401 C   0  0  0  0  0  0  0  0  0  0  0  0
   54.3295    6.3651    7.1434 C   0  0  0  0  0  0  0  0  0  0  0  0
   56.1845    1.5177   16.8851 C   0  0  0  0  0  0  0  0  0  0  0  0
   57.2271    2.5631   16.6187 C   0  0  0  0  0  0  0  0  0  0  0  0
   53.6726    5.3149    7.9908 C   0  0  0  0  0  0  0  0  0  0  0  0
   54.2077    7.4087   11.2157 O   0  0  0  0  0  0  0  0  0  0  0  0
   55.5020    1.4694   18.0965 C   0  0  0  0  0  0  0  0  0  0  0  0
   55.6914    6.3040    6.8608 C   0  0  0  0  0  0  0  0  0  0  0  0
   55.6251    8.2480    5.6286 C   0  0  0  0  0  0  0  0  0  0  0  0
   54.2425   -0.3375   17.4335 C   0  0  0  0  0  0  0  0  0  0  0  0
   53.6139    7.4513    6.6305 C   0  0  0  0  0  0  0  0  0  0  0  0
   55.8430    0.5674   15.9180 C   0  0  0  0  0  0  0  0  0  0  0  0
   54.4967    8.7889   11.4450 C   0  0  0  0  0  0  0  0  0  0  0  0
   54.2685    8.4070    5.8579 C   0  0  0  0  0  0  0  0  0  0  0  0
   54.8590   -0.3767   16.1939 C   0  0  0  0  0  0  0  0  0  0  0  0
   56.1944    3.3603   11.8548 H   0  0  0  0  0  0  0  0  0  0  0  0
   53.5964    6.3846    9.8192 H   0  0  0  0  0  0  0  0  0  0  0  0
   55.9245    4.1358   16.1072 H   0  0  0  0  0  0  0  0  0  0  0  0
   56.1621    6.1402   15.1466 H   0  0  0  0  0  0  0  0  0  0  0  0
   54.9485    7.7567   13.7936 H   0  0  0  0  0  0  0  0  0  0  0  0
   58.1198    2.1022   16.1817 H   0  0  0  0  0  0  0  0  0  0  0  0
   57.5359    3.0453   17.5529 H   0  0  0  0  0  0  0  0  0  0  0  0
   54.0006    4.3174    7.6775 H   0  0  0  0  0  0  0  0  0  0  0  0
   52.5847    5.3515    7.8679 H   0  0  0  0  0  0  0  0  0  0  0  0
   55.7113    2.1783   18.8938 H   0  0  0  0  0  0  0  0  0  0  0  0
   56.3084    5.4928    7.2419 H   0  0  0  0  0  0  0  0  0  0  0  0
   56.1807    8.9643    5.0296 H   0  0  0  0  0  0  0  0  0  0  0  0
   53.4699   -1.0550   17.6966 H   0  0  0  0  0  0  0  0  0  0  0  0
   52.5494    7.5562    6.8251 H   0  0  0  0  0  0  0  0  0  0  0  0
   56.3427    0.5629   14.9505 H   0  0  0  0  0  0  0  0  0  0  0  0
   54.1450    9.3509   10.5738 H   0  0  0  0  0  0  0  0  0  0  0  0
   53.9498    9.1567   12.3198 H   0  0  0  0  0  0  0  0  0  0  0  0
   55.5738    8.9677   11.5473 H   0  0  0  0  0  0  0  0  0  0  0  0
   53.7339    9.2537    5.4425 H   0  0  0  0  0  0  0  0  0  0  0  0
   54.5808   -1.1232   15.4585 H   0  0  0  0  0  0  0  0  0  0  0  0
  2  1  1  0
  3  1  2  0
  4  5  1  0
  5  3  1  0
  6  2  1  0
  7  4  1  0
  8  1  1  0
  9  2  2  0
 10  4  2  0
 11 21  2  0
 12 20  2  0
 13 14  1  0
 14  8  2  0
 15 18  1  0
 16 17  1  0
 17  7  1  0
 18  6  1  0
 19  8  1  0
 20 16  1  0
 21 15  1  0
 22 27  2  0
 23 28  2  0
 24 15  2  0
 25 16  2  0
 26 19  1  0
 27 24  1  0
 28 25  1  0
  5 13  2  0
 11 22  1  0
 12 23  1  0
  3 29  1  0
  6 30  1  0
  7 31  1  0
 13 32  1  0
 14 33  1  0
 17 34  1  0
 17 35  1  0
 18 36  1  0
 18 37  1  0
 20 38  1  0
 21 39  1  0
 22 40  1  0
 23 41  1  0
 24 42  1  0
 25 43  1  0
 26 44  1  0
 26 45  1  0
 26 46  1  0
 27 47  1  0
 28 48  1  0
M  END
> <Uni-Dock RESULT> 
ENERGY=   -4.063  LOWER_BOUND=   10.101  UPPER_BOUND=   12.627
INTER + INTRA:          -4.063
INTER:                  -4.063
INTRA:                   0.000
UNBOUND:                 0.000

$$$$

     RDKit          3D

 48 50  0  0  0  0  0  0  0  0999 V2000
   46.8168    8.6062   13.4970 C   0  0  0  0  0  0  0  0  0  0  0  0
   47.8134    9.2923   14.3802 C   0  0  0  0  0  0  0  0  0  0  0  0
   46.0013    9.4395   12.7104 C   0  0  0  0  0  0  0  0  0  0  0  0
   44.1825    9.8294   11.0661 C   0  0  0  0  0  0  0  0  0  0  0  0
   45.0280    8.8990   11.8635 C   0  0  0  0  0  0  0  0  0  0  0  0
   48.3609    8.5581   15.4052 N   0  0  0  0  0  0  0  0  0  0  0  0
   42.9077    9.3928   10.7714 N   0  0  0  0  0  0  0  0  0  0  0  0
   46.6743    7.2077   13.3978 C   0  0  0  0  0  0  0  0  0  0  0  0
   48.1053   10.4675   14.1826 O   0  0  0  0  0  0  0  0  0  0  0  0
   44.6169   10.9268   10.7389 O   0  0  0  0  0  0  0  0  0  0  0  0
   52.5900    8.5310   14.1912 N   0  0  0  0  0  0  0  0  0  0  0  0
   38.8493   10.9063   12.2305 N   0  0  0  0  0  0  0  0  0  0  0  0
   44.8837    7.5121   11.7770 C   0  0  0  0  0  0  0  0  0  0  0  0
   45.6978    6.6734   12.5448 C   0  0  0  0  0  0  0  0  0  0  0  0
   50.7572    8.4951   15.7793 C   0  0  0  0  0  0  0  0  0  0  0  0
   41.0224   10.8785   11.1539 C   0  0  0  0  0  0  0  0  0  0  0  0
   41.9436   10.2680   10.1393 C   0  0  0  0  0  0  0  0  0  0  0  0
   49.4392    9.0601   16.2224 C   0  0  0  0  0  0  0  0  0  0  0  0
   47.4763    6.4094   14.1753 O   0  0  0  0  0  0  0  0  0  0  0  0
   39.7222   10.4133   11.3226 C   0  0  0  0  0  0  0  0  0  0  0  0
   51.4072    8.9986   14.6559 C   0  0  0  0  0  0  0  0  0  0  0  0
   53.1525    7.5130   14.8759 C   0  0  0  0  0  0  0  0  0  0  0  0
   39.2925   11.9168   13.0095 C   0  0  0  0  0  0  0  0  0  0  0  0
   51.3672    7.4331   16.4538 C   0  0  0  0  0  0  0  0  0  0  0  0
   41.4431   11.9221   11.9841 C   0  0  0  0  0  0  0  0  0  0  0  0
   47.8417    5.1513   13.6053 C   0  0  0  0  0  0  0  0  0  0  0  0
   52.5854    6.9347   15.9994 C   0  0  0  0  0  0  0  0  0  0  0  0
   40.5670   12.4524   12.9256 C   0  0  0  0  0  0  0  0  0  0  0  0
   46.1190   10.5222   12.7657 H   0  0  0  0  0  0  0  0  0  0  0  0
   48.1682    7.5621   15.4262 H   0  0  0  0  0  0  0  0  0  0  0  0
   42.5398    8.5957   11.2706 H   0  0  0  0  0  0  0  0  0  0  0  0
   44.1596    7.0647   11.1010 H   0  0  0  0  0  0  0  0  0  0  0  0
   45.5437    5.6011   12.4644 H   0  0  0  0  0  0  0  0  0  0  0  0
   42.4464   11.0542    9.5654 H   0  0  0  0  0  0  0  0  0  0  0  0
   41.3793    9.6570    9.4259 H   0  0  0  0  0  0  0  0  0  0  0  0
   49.4717   10.1553   16.2013 H   0  0  0  0  0  0  0  0  0  0  0  0
   49.2244    8.7623   17.2545 H   0  0  0  0  0  0  0  0  0  0  0  0
   39.3271    9.6023   10.7160 H   0  0  0  0  0  0  0  0  0  0  0  0
   50.9788    9.8148   14.0777 H   0  0  0  0  0  0  0  0  0  0  0  0
   54.1033    7.1626   14.4838 H   0  0  0  0  0  0  0  0  0  0  0  0
   38.5717   12.2990   13.7273 H   0  0  0  0  0  0  0  0  0  0  0  0
   50.9022    6.9937   17.3329 H   0  0  0  0  0  0  0  0  0  0  0  0
   42.4528   12.3210   11.8976 H   0  0  0  0  0  0  0  0  0  0  0  0
   48.6995    4.7687   14.1678 H   0  0  0  0  0  0  0  0  0  0  0  0
   47.0259    4.4284   13.7123 H   0  0  0  0  0  0  0  0  0  0  0  0
   48.1462    5.2526   12.5567 H   0  0  0  0  0  0  0  0  0  0  0  0
   53.0819    6.1173   16.5098 H   0  0  0  0  0  0  0  0  0  0  0  0
   40.8729   13.2629   13.5775 H   0  0  0  0  0  0  0  0  0  0  0  0
  2  1  1  0
  3  1  2  0
  4  5  1  0
  5  3  1  0
  6  2  1  0
  7  4  1  0
  8  1  1  0
  9  2  2  0
 10  4  2  0
 11 21  2  0
 12 20  2  0
 13 14  1  0
 14  8  2  0
 15 18  1  0
 16 17  1  0
 17  7  1  0
 18  6  1  0
 19  8  1  0
 20 16  1  0
 21 15  1  0
 22 27  2  0
 23 28  2  0
 24 15  2  0
 25 16  2  0
 26 19  1  0
 27 24  1  0
 28 25  1  0
  5 13  2  0
 11 22  1  0
 12 23  1  0
  3 29  1  0
  6 30  1  0
  7 31  1  0
 13 32  1  0
 14 33  1  0
 17 34  1  0
 17 35  1  0
 18 36  1  0
 18 37  1  0
 20 38  1  0
 21 39  1  0
 22 40  1  0
 23 41  1  0
 24 42  1  0
 25 43  1  0
 26 44  1  0
 26 45  1  0
 26 46  1  0
 27 47  1  0
 28 48  1  0
M  END
> <Uni-Dock RESULT> 
ENERGY=   -4.037  LOWER_BOUND=    2.260  UPPER_BOUND=    9.450
INTER + INTRA:          -4.037
INTER:                  -4.037
INTRA:                   0.000
UNBOUND:                 0.000

$$$$

     RDKit          3D

 48 50  0  0  0  0  0  0  0  0999 V2000
   51.1673    4.5496   17.9774 C   0  0  0  0  0  0  0  0  0  0  0  0
   51.3276    6.0080   18.2800 C   0  0  0  0  0  0  0  0  0  0  0  0
   52.2868    3.7341   18.2223 C   0  0  0  0  0  0  0  0  0  0  0  0
   53.4659    1.5494   18.2212 C   0  0  0  0  0  0  0  0  0  0  0  0
   52.2461    2.3611   17.9580 C   0  0  0  0  0  0  0  0  0  0  0  0
   50.4125    6.8726   17.7281 N   0  0  0  0  0  0  0  0  0  0  0  0
   53.6446    0.4410   17.4199 N   0  0  0  0  0  0  0  0  0  0  0  0
   49.9788    3.9647   17.4966 C   0  0  0  0  0  0  0  0  0  0  0  0
   52.2538    6.3922   18.9870 O   0  0  0  0  0  0  0  0  0  0  0  0
   54.2610    1.8977   19.0853 O   0  0  0  0  0  0  0  0  0  0  0  0
   48.5285    8.4658   21.3712 N   0  0  0  0  0  0  0  0  0  0  0  0
   56.7813   -0.4150   14.2077 N   0  0  0  0  0  0  0  0  0  0  0  0
   51.0685    1.7880   17.4713 C   0  0  0  0  0  0  0  0  0  0  0  0
   49.9451    2.5870   17.2363 C   0  0  0  0  0  0  0  0  0  0  0  0
   49.2876    8.5525   19.0693 C   0  0  0  0  0  0  0  0  0  0  0  0
   55.8071    0.0620   16.3769 C   0  0  0  0  0  0  0  0  0  0  0  0
   54.8653   -0.3347   17.4754 C   0  0  0  0  0  0  0  0  0  0  0  0
   50.3725    8.2740   18.0703 C   0  0  0  0  0  0  0  0  0  0  0  0
   48.8968    4.7760   17.2601 O   0  0  0  0  0  0  0  0  0  0  0  0
   55.9648   -0.7248   15.2405 C   0  0  0  0  0  0  0  0  0  0  0  0
   49.4659    8.2538   20.4172 C   0  0  0  0  0  0  0  0  0  0  0  0
   47.3572    8.9991   20.9646 C   0  0  0  0  0  0  0  0  0  0  0  0
   57.4793    0.7367   14.3124 C   0  0  0  0  0  0  0  0  0  0  0  0
   48.0559    9.0928   18.6872 C   0  0  0  0  0  0  0  0  0  0  0  0
   56.5439    1.2485   16.4431 C   0  0  0  0  0  0  0  0  0  0  0  0
   47.6152    4.1840   17.4797 C   0  0  0  0  0  0  0  0  0  0  0  0
   47.0751    9.3240   19.6482 C   0  0  0  0  0  0  0  0  0  0  0  0
   57.3949    1.5928   15.3978 C   0  0  0  0  0  0  0  0  0  0  0  0
   53.2039    4.1754   18.6137 H   0  0  0  0  0  0  0  0  0  0  0  0
   49.6053    6.4702   17.2633 H   0  0  0  0  0  0  0  0  0  0  0  0
   53.0866    0.3520   16.5828 H   0  0  0  0  0  0  0  0  0  0  0  0
   50.9983    0.7185   17.2908 H   0  0  0  0  0  0  0  0  0  0  0  0
   49.0538    2.1087   16.8405 H   0  0  0  0  0  0  0  0  0  0  0  0
   55.3546   -0.2246   18.4494 H   0  0  0  0  0  0  0  0  0  0  0  0
   54.5781   -1.3872   17.3744 H   0  0  0  0  0  0  0  0  0  0  0  0
   51.3397    8.6115   18.4594 H   0  0  0  0  0  0  0  0  0  0  0  0
   50.1867    8.8252   17.1420 H   0  0  0  0  0  0  0  0  0  0  0  0
   55.4218   -1.6586   15.1176 H   0  0  0  0  0  0  0  0  0  0  0  0
   50.3953    7.8179   20.7779 H   0  0  0  0  0  0  0  0  0  0  0  0
   46.6268    9.1634   21.7520 H   0  0  0  0  0  0  0  0  0  0  0  0
   58.1316    0.9611   13.4728 H   0  0  0  0  0  0  0  0  0  0  0  0
   47.8563    9.3386   17.6471 H   0  0  0  0  0  0  0  0  0  0  0  0
   56.4546    1.9041   17.3081 H   0  0  0  0  0  0  0  0  0  0  0  0
   46.8839    4.9949   17.5580 H   0  0  0  0  0  0  0  0  0  0  0  0
   47.3280    3.5597   16.6269 H   0  0  0  0  0  0  0  0  0  0  0  0
   47.5854    3.6136   18.4158 H   0  0  0  0  0  0  0  0  0  0  0  0
   46.1152    9.7495   19.3781 H   0  0  0  0  0  0  0  0  0  0  0  0
   57.9764    2.5074   15.4304 H   0  0  0  0  0  0  0  0  0  0  0  0
  2  1  1  0
  3  1  2  0
  4  5  1  0
  5  3  1  0
  6  2  1  0
  7  4  1  0
  8  1  1  0
  9  2  2  0
 10  4  2  0
 11 21  2  0
 12 20  2  0
 13 14  1  0
 14  8  2  0
 15 18  1  0
 16 17  1  0
 17  7  1  0
 18  6  1  0
 19  8  1  0
 20 16  1  0
 21 15  1  0
 22 27  2  0
 23 28  2  0
 24 15  2  0
 25 16  2  0
 26 19  1  0
 27 24  1  0
 28 25  1  0
  5 13  2  0
 11 22  1  0
 12 23  1  0
  3 29  1  0
  6 30  1  0
  7 31  1  0
 13 32  1  0
 14 33  1  0
 17 34  1  0
 17 35  1  0
 18 36  1  0
 18 37  1  0
 20 38  1  0
 21 39  1  0
 22 40  1  0
 23 41  1  0
 24 42  1  0
 25 43  1  0
 26 44  1  0
 26 45  1  0
 26 46  1  0
 27 47  1  0
 28 48  1  0
M  END
> <Uni-Dock RESULT> 
ENERGY=   -3.999  LOWER_BOUND=    8.657  UPPER_BOUND=   10.784
INTER + INTRA:          -3.999
INTER:                  -3.999
INTRA:                   0.000
UNBOUND:                 0.000

$$$$

     RDKit          3D

 48 50  0  0  0  0  0  0  0  0999 V2000
   46.7777    8.7447   13.3815 C   0  0  0  0  0  0  0  0  0  0  0  0
   47.7829    9.4444   14.2441 C   0  0  0  0  0  0  0  0  0  0  0  0
   45.9220    9.5672   12.6268 C   0  0  0  0  0  0  0  0  0  0  0  0
   44.0496    9.9321   11.0380 C   0  0  0  0  0  0  0  0  0  0  0  0
   44.9378    9.0133   11.8015 C   0  0  0  0  0  0  0  0  0  0  0  0
   48.3753    8.7124   15.2455 N   0  0  0  0  0  0  0  0  0  0  0  0
   42.7772    9.4696   10.7740 N   0  0  0  0  0  0  0  0  0  0  0  0
   46.6640    7.3444   13.2712 C   0  0  0  0  0  0  0  0  0  0  0  0
   48.0426   10.6278   14.0512 O   0  0  0  0  0  0  0  0  0  0  0  0
   44.4498   11.0424   10.7107 O   0  0  0  0  0  0  0  0  0  0  0  0
   52.5683    8.7942   13.9145 N   0  0  0  0  0  0  0  0  0  0  0  0
   38.7281   10.8751   12.3613 N   0  0  0  0  0  0  0  0  0  0  0  0
   44.8224    7.6243   11.7040 C   0  0  0  0  0  0  0  0  0  0  0  0
   45.6763    6.7966   12.4399 C   0  0  0  0  0  0  0  0  0  0  0  0
   50.7819    8.7003   15.5523 C   0  0  0  0  0  0  0  0  0  0  0  0
   40.8704   10.9079   11.2247 C   0  0  0  0  0  0  0  0  0  0  0  0
   41.7763   10.3289   10.1783 C   0  0  0  0  0  0  0  0  0  0  0  0
   49.4644    9.2305   16.0379 C   0  0  0  0  0  0  0  0  0  0  0  0
   47.5052    6.5567   14.0174 O   0  0  0  0  0  0  0  0  0  0  0  0
   39.5862   10.4115   11.4243 C   0  0  0  0  0  0  0  0  0  0  0  0
   51.3887    9.2299   14.4168 C   0  0  0  0  0  0  0  0  0  0  0  0
   53.1725    7.7824   14.5723 C   0  0  0  0  0  0  0  0  0  0  0  0
   39.1701   11.8875   13.1386 C   0  0  0  0  0  0  0  0  0  0  0  0
   51.4343    7.6457   16.1981 C   0  0  0  0  0  0  0  0  0  0  0  0
   41.2905   11.9523   12.0541 C   0  0  0  0  0  0  0  0  0  0  0  0
   47.8829    5.3132   13.4240 C   0  0  0  0  0  0  0  0  0  0  0  0
   52.6502    7.1799   15.7047 C   0  0  0  0  0  0  0  0  0  0  0  0
   40.4293   12.4529   13.0252 C   0  0  0  0  0  0  0  0  0  0  0  0
   46.0168   10.6516   12.6906 H   0  0  0  0  0  0  0  0  0  0  0  0
   48.2057    7.7121   15.2610 H   0  0  0  0  0  0  0  0  0  0  0  0
   42.4415    8.6593   11.2746 H   0  0  0  0  0  0  0  0  0  0  0  0
   44.0900    7.1674   11.0435 H   0  0  0  0  0  0  0  0  0  0  0  0
   45.5443    5.7220   12.3521 H   0  0  0  0  0  0  0  0  0  0  0  0
   42.2451   11.1322    9.5993 H   0  0  0  0  0  0  0  0  0  0  0  0
   41.2063    9.7125    9.4743 H   0  0  0  0  0  0  0  0  0  0  0  0
   49.4716   10.3263   16.0277 H   0  0  0  0  0  0  0  0  0  0  0  0
   49.2853    8.9175   17.0722 H   0  0  0  0  0  0  0  0  0  0  0  0
   39.1926    9.5978   10.8201 H   0  0  0  0  0  0  0  0  0  0  0  0
   50.9260   10.0420   13.8596 H   0  0  0  0  0  0  0  0  0  0  0  0
   54.1196    7.4578   14.1502 H   0  0  0  0  0  0  0  0  0  0  0  0
   38.4612   12.2458   13.8803 H   0  0  0  0  0  0  0  0  0  0  0  0
   51.0041    7.1869   17.0850 H   0  0  0  0  0  0  0  0  0  0  0  0
   42.2881   12.3751   11.9439 H   0  0  0  0  0  0  0  0  0  0  0  0
   48.7644    4.9445   13.9583 H   0  0  0  0  0  0  0  0  0  0  0  0
   47.0869    4.5708   13.5457 H   0  0  0  0  0  0  0  0  0  0  0  0
   48.1555    5.4320   12.3685 H   0  0  0  0  0  0  0  0  0  0  0  0
   53.1791    6.3689   16.1924 H   0  0  0  0  0  0  0  0  0  0  0  0
   40.7350   13.2635   13.6771 H   0  0  0  0  0  0  0  0  0  0  0  0
  2  1  1  0
  3  1  2  0
  4  5  1  0
  5  3  1  0
  6  2  1  0
  7  4  1  0
  8  1  1  0
  9  2  2  0
 10  4  2  0
 11 21  2  0
 12 20  2  0
 13 14  1  0
 14  8  2  0
 15 18  1  0
 16 17  1  0
 17  7  1  0
 18  6  1  0
 19  8  1  0
 20 16  1  0
 21 15  1  0
 22 27  2  0
 23 28  2  0
 24 15  2  0
 25 16  2  0
 26 19  1  0
 27 24  1  0
 28 25  1  0
  5 13  2  0
 11 22  1  0
 12 23  1  0
  3 29  1  0
  6 30  1  0
  7 31  1  0
 13 32  1  0
 14 33  1  0
 17 34  1  0
 17 35  1  0
 18 36  1  0
 18 37  1  0
 20 38  1  0
 21 39  1  0
 22 40  1  0
 23 41  1  0
 24 42  1  0
 25 43  1  0
 26 44  1  0
 26 45  1  0
 26 46  1  0
 27 47  1  0
 28 48  1  0
M  END
> <Uni-Dock RESULT> 
ENERGY=   -3.965  LOWER_BOUND=    2.143  UPPER_BOUND=    9.457
INTER + INTRA:          -3.965
INTER:                  -3.965
INTRA:                   0.000
UNBOUND:                 0.000

$$$$

     RDKit          3D

 48 50  0  0  0  0  0  0  0  0999 V2000
   42.8412   11.4422    9.1336 C   0  0  0  0  0  0  0  0  0  0  0  0
   43.4657   12.3283    8.0996 C   0  0  0  0  0  0  0  0  0  0  0  0
   43.6762   10.4658    9.7060 C   0  0  0  0  0  0  0  0  0  0  0  0
   44.1107    8.5541   11.2292 C   0  0  0  0  0  0  0  0  0  0  0  0
   43.1862    9.5778   10.6693 C   0  0  0  0  0  0  0  0  0  0  0  0
   42.6199   13.0312    7.2751 N   0  0  0  0  0  0  0  0  0  0  0  0
   43.5335    7.3690   11.6352 N   0  0  0  0  0  0  0  0  0  0  0  0
   41.5049   11.5489    9.5679 C   0  0  0  0  0  0  0  0  0  0  0  0
   44.6870   12.3988    8.0052 O   0  0  0  0  0  0  0  0  0  0  0  0
   45.3145    8.7744   11.2777 O   0  0  0  0  0  0  0  0  0  0  0  0
   43.6507   17.1553    8.4106 N   0  0  0  0  0  0  0  0  0  0  0  0
   43.8931    3.1550    9.9022 N   0  0  0  0  0  0  0  0  0  0  0  0
   41.8574    9.6810   11.0887 C   0  0  0  0  0  0  0  0  0  0  0  0
   41.0217   10.6564   10.5358 C   0  0  0  0  0  0  0  0  0  0  0  0
   42.9050   15.4111    6.8992 C   0  0  0  0  0  0  0  0  0  0  0  0
   44.5176    5.2619   10.9284 C   0  0  0  0  0  0  0  0  0  0  0  0
   44.3444    6.2439   12.0494 C   0  0  0  0  0  0  0  0  0  0  0  0
   43.0993   14.0285    6.3486 C   0  0  0  0  0  0  0  0  0  0  0  0
   40.7032   12.5055    8.9961 O   0  0  0  0  0  0  0  0  0  0  0  0
   43.7978    4.0720   10.8918 C   0  0  0  0  0  0  0  0  0  0  0  0
   43.7714   15.9237    7.8609 C   0  0  0  0  0  0  0  0  0  0  0  0
   42.6181   17.9127    7.9844 C   0  0  0  0  0  0  0  0  0  0  0  0
   44.7516    3.4355    8.8978 C   0  0  0  0  0  0  0  0  0  0  0  0
   41.8414   16.2227    6.4931 C   0  0  0  0  0  0  0  0  0  0  0  0
   45.3913    5.5161    9.8667 C   0  0  0  0  0  0  0  0  0  0  0  0
   39.7052   13.0713    9.8477 C   0  0  0  0  0  0  0  0  0  0  0  0
   41.6954   17.4949    7.0398 C   0  0  0  0  0  0  0  0  0  0  0  0
   45.5137    4.5903    8.8355 C   0  0  0  0  0  0  0  0  0  0  0  0
   44.7172   10.3897    9.3904 H   0  0  0  0  0  0  0  0  0  0  0  0
   41.6297   13.0205    7.4966 H   0  0  0  0  0  0  0  0  0  0  0  0
   42.5871    7.1660   11.3467 H   0  0  0  0  0  0  0  0  0  0  0  0
   41.4607    9.0270   11.8609 H   0  0  0  0  0  0  0  0  0  0  0  0
   39.9900   10.6940   10.8737 H   0  0  0  0  0  0  0  0  0  0  0  0
   45.3226    6.5792   12.4112 H   0  0  0  0  0  0  0  0  0  0  0  0
   43.8295    5.7751   12.8953 H   0  0  0  0  0  0  0  0  0  0  0  0
   44.1550   13.8639    6.1052 H   0  0  0  0  0  0  0  0  0  0  0  0
   42.5299   13.9040    5.4211 H   0  0  0  0  0  0  0  0  0  0  0  0
   43.0972    3.8087   11.6803 H   0  0  0  0  0  0  0  0  0  0  0  0
   44.6104   15.3378    8.2306 H   0  0  0  0  0  0  0  0  0  0  0  0
   42.5498   18.8976    8.4382 H   0  0  0  0  0  0  0  0  0  0  0  0
   44.8141    2.6817    8.1176 H   0  0  0  0  0  0  0  0  0  0  0  0
   41.1281   15.8726    5.7509 H   0  0  0  0  0  0  0  0  0  0  0  0
   45.9757    6.4347    9.8429 H   0  0  0  0  0  0  0  0  0  0  0  0
   39.3615   14.0014    9.3839 H   0  0  0  0  0  0  0  0  0  0  0  0
   38.8421   12.4018    9.9274 H   0  0  0  0  0  0  0  0  0  0  0  0
   40.1073   13.3185   10.8375 H   0  0  0  0  0  0  0  0  0  0  0  0
   40.8837   18.1460    6.7352 H   0  0  0  0  0  0  0  0  0  0  0  0
   46.1868    4.7674    8.0042 H   0  0  0  0  0  0  0  0  0  0  0  0
  2  1  1  0
  3  1  2  0
  4  5  1  0
  5  3  1  0
  6  2  1  0
  7  4  1  0
  8  1  1  0
  9  2  2  0
 10  4  2  0
 11 21  2  0
 12 20  2  0
 13 14  1  0
 14  8  2  0
 15 18  1  0
 16 17  1  0
 17  7  1  0
 18  6  1  0
 19  8  1  0
 20 16  1  0
 21 15  1  0
 22 27  2  0
 23 28  2  0
 24 15  2  0
 25 16  2  0
 26 19  1  0
 27 24  1  0
 28 25  1  0
  5 13  2  0
 11 22  1  0
 12 23  1  0
  3 29  1  0
  6 30  1  0
  7 31  1  0
 13 32  1  0
 14 33  1  0
 17 34  1  0
 17 35  1  0
 18 36  1  0
 18 37  1  0
 20 38  1  0
 21 39  1  0
 22 40  1  0
 23 41  1  0
 24 42  1  0
 25 43  1  0
 26 44  1  0
 26 45  1  0
 26 46  1  0
 27 47  1  0
 28 48  1  0
M  END
> <Uni-Dock RESULT> 
ENERGY=   -3.939  LOWER_BOUND=    4.733  UPPER_BOUND=    6.770
INTER + INTRA:          -3.939
INTER:                  -3.939
INTRA:                   0.000
UNBOUND:                 0.000

$$$$

     RDKit          3D

 48 50  0  0  0  0  0  0  0  0999 V2000
   49.5477    7.8341   14.4956 C   0  0  0  0  0  0  0  0  0  0  0  0
   49.8879    7.7770   15.9534 C   0  0  0  0  0  0  0  0  0  0  0  0
   48.1795    7.7975   14.1716 C   0  0  0  0  0  0  0  0  0  0  0  0
   46.2965    7.7717   12.5539 C   0  0  0  0  0  0  0  0  0  0  0  0
   47.7565    7.8294   12.8387 C   0  0  0  0  0  0  0  0  0  0  0  0
   51.1801    7.4496   16.2887 N   0  0  0  0  0  0  0  0  0  0  0  0
   45.9314    7.1842   11.3605 N   0  0  0  0  0  0  0  0  0  0  0  0
   50.4994    7.9441   13.4621 C   0  0  0  0  0  0  0  0  0  0  0  0
   49.0266    8.0073   16.7964 O   0  0  0  0  0  0  0  0  0  0  0  0
   45.4933    8.2001   13.3733 O   0  0  0  0  0  0  0  0  0  0  0  0
   52.4479   11.1621   18.2812 N   0  0  0  0  0  0  0  0  0  0  0  0
   43.7283    3.2640   10.5429 N   0  0  0  0  0  0  0  0  0  0  0  0
   48.7048    7.9277   11.8174 C   0  0  0  0  0  0  0  0  0  0  0  0
   50.0673    7.9779   12.1284 C   0  0  0  0  0  0  0  0  0  0  0  0
   52.4497    8.7702   17.8795 C   0  0  0  0  0  0  0  0  0  0  0  0
   44.1707    5.5087   11.3480 C   0  0  0  0  0  0  0  0  0  0  0  0
   44.5419    6.9303   11.0446 C   0  0  0  0  0  0  0  0  0  0  0  0
   51.6635    7.5131   17.6470 C   0  0  0  0  0  0  0  0  0  0  0  0
   51.8306    7.9753   13.7963 O   0  0  0  0  0  0  0  0  0  0  0  0
   44.0411    4.5634   10.3355 C   0  0  0  0  0  0  0  0  0  0  0  0
   51.8048    9.9879   18.0783 C   0  0  0  0  0  0  0  0  0  0  0  0
   53.7970   11.1236   18.2852 C   0  0  0  0  0  0  0  0  0  0  0  0
   43.5314    2.8861   11.8247 C   0  0  0  0  0  0  0  0  0  0  0  0
   53.8479    8.7750   17.8791 C   0  0  0  0  0  0  0  0  0  0  0  0
   43.9637    5.0749   12.6610 C   0  0  0  0  0  0  0  0  0  0  0  0
   52.6679    8.7587   12.9440 C   0  0  0  0  0  0  0  0  0  0  0  0
   54.5347    9.9680   18.0885 C   0  0  0  0  0  0  0  0  0  0  0  0
   43.6374    3.7449   12.9061 C   0  0  0  0  0  0  0  0  0  0  0  0
   47.4356    7.7331   14.9663 H   0  0  0  0  0  0  0  0  0  0  0  0
   51.8626    7.3994   15.5397 H   0  0  0  0  0  0  0  0  0  0  0  0
   46.6190    6.6443   10.8547 H   0  0  0  0  0  0  0  0  0  0  0  0
   48.4022    7.9899   10.7752 H   0  0  0  0  0  0  0  0  0  0  0  0
   50.7754    8.0357   11.3066 H   0  0  0  0  0  0  0  0  0  0  0  0
   43.8851    7.6162   11.5909 H   0  0  0  0  0  0  0  0  0  0  0  0
   44.4148    7.1417    9.9770 H   0  0  0  0  0  0  0  0  0  0  0  0
   50.8360    7.4476   18.3624 H   0  0  0  0  0  0  0  0  0  0  0  0
   52.2968    6.6330   17.8031 H   0  0  0  0  0  0  0  0  0  0  0  0
   44.1911    4.8268    9.2914 H   0  0  0  0  0  0  0  0  0  0  0  0
   50.7188   10.0555   18.0753 H   0  0  0  0  0  0  0  0  0  0  0  0
   54.2856   12.0789   18.4560 H   0  0  0  0  0  0  0  0  0  0  0  0
   43.2765    1.8391   11.9652 H   0  0  0  0  0  0  0  0  0  0  0  0
   54.4059    7.8554   17.7209 H   0  0  0  0  0  0  0  0  0  0  0  0
   44.0573    5.7724   13.4921 H   0  0  0  0  0  0  0  0  0  0  0  0
   53.6036    8.9474   13.4801 H   0  0  0  0  0  0  0  0  0  0  0  0
   52.9144    8.2051   12.0316 H   0  0  0  0  0  0  0  0  0  0  0  0
   52.2147    9.7290   12.7082 H   0  0  0  0  0  0  0  0  0  0  0  0
   55.6184    9.9960   18.1008 H   0  0  0  0  0  0  0  0  0  0  0  0
   43.4711    3.3888   13.9166 H   0  0  0  0  0  0  0  0  0  0  0  0
  2  1  1  0
  3  1  2  0
  4  5  1  0
  5  3  1  0
  6  2  1  0
  7  4  1  0
  8  1  1  0
  9  2  2  0
 10  4  2  0
 11 21  2  0
 12 20  2  0
 13 14  1  0
 14  8  2  0
 15 18  1  0
 16 17  1  0
 17  7  1  0
 18  6  1  0
 19  8  1  0
 20 16  1  0
 21 15  1  0
 22 27  2  0
 23 28  2  0
 24 15  2  0
 25 16  2  0
 26 19  1  0
 27 24  1  0
 28 25  1  0
  5 13  2  0
 11 22  1  0
 12 23  1  0
  3 29  1  0
  6 30  1  0
  7 31  1  0
 13 32  1  0
 14 33  1  0
 17 34  1  0
 17 35  1  0
 18 36  1  0
 18 37  1  0
 20 38  1  0
 21 39  1  0
 22 40  1  0
 23 41  1  0
 24 42  1  0
 25 43  1  0
 26 44  1  0
 26 45  1  0
 26 46  1  0
 27 47  1  0
 28 48  1  0
M  END
> <Uni-Dock RESULT> 
ENERGY=   -3.936  LOWER_BOUND=    4.124  UPPER_BOUND=    9.923
INTER + INTRA:          -3.936
INTER:                  -3.936
INTRA:                   0.000
UNBOUND:                 0.000

$$$$

     RDKit          3D

 48 50  0  0  0  0  0  0  0  0999 V2000
   45.8672   10.4970   11.9120 C   0  0  0  0  0  0  0  0  0  0  0  0
   46.2650    9.1082   12.3082 C   0  0  0  0  0  0  0  0  0  0  0  0
   46.9012   11.4482   11.8465 C   0  0  0  0  0  0  0  0  0  0  0  0
   47.7641   13.7444   11.4638 C   0  0  0  0  0  0  0  0  0  0  0  0
   46.6332   12.7771   11.5017 C   0  0  0  0  0  0  0  0  0  0  0  0
   45.2680    8.2608   12.7291 N   0  0  0  0  0  0  0  0  0  0  0  0
   47.4535   15.0564   11.7550 N   0  0  0  0  0  0  0  0  0  0  0  0
   44.5516   10.8837   11.5870 C   0  0  0  0  0  0  0  0  0  0  0  0
   47.4427    8.7674   12.2602 O   0  0  0  0  0  0  0  0  0  0  0  0
   48.8988   13.3537   11.2188 O   0  0  0  0  0  0  0  0  0  0  0  0
   45.4729    5.1767    9.5976 N   0  0  0  0  0  0  0  0  0  0  0  0
   48.6084   17.6465   15.3394 N   0  0  0  0  0  0  0  0  0  0  0  0
   45.3253   13.1576   11.1908 C   0  0  0  0  0  0  0  0  0  0  0  0
   44.2913   12.2174   11.2400 C   0  0  0  0  0  0  0  0  0  0  0  0
   45.0505    6.0165   11.8334 C   0  0  0  0  0  0  0  0  0  0  0  0
   48.8232   16.2788   13.3480 C   0  0  0  0  0  0  0  0  0  0  0  0
   48.4893   16.0566   11.9023 C   0  0  0  0  0  0  0  0  0  0  0  0
   45.5046    6.8609   12.9881 C   0  0  0  0  0  0  0  0  0  0  0  0
   43.5542    9.9432   11.6594 O   0  0  0  0  0  0  0  0  0  0  0  0
   48.3599   17.3972   14.0335 C   0  0  0  0  0  0  0  0  0  0  0  0
   45.8244    5.9088   10.6812 C   0  0  0  0  0  0  0  0  0  0  0  0
   44.2947    4.5216    9.6626 C   0  0  0  0  0  0  0  0  0  0  0  0
   49.3595   16.7364   15.9969 C   0  0  0  0  0  0  0  0  0  0  0  0
   43.8315    5.3320   11.8563 C   0  0  0  0  0  0  0  0  0  0  0  0
   49.5926   15.3589   14.0669 C   0  0  0  0  0  0  0  0  0  0  0  0
   42.4895   10.0915   10.7183 C   0  0  0  0  0  0  0  0  0  0  0  0
   43.4469    4.5692   10.7567 C   0  0  0  0  0  0  0  0  0  0  0  0
   49.8681   15.5892   15.4110 C   0  0  0  0  0  0  0  0  0  0  0  0
   47.9254   11.1527   12.0765 H   0  0  0  0  0  0  0  0  0  0  0  0
   44.3084    8.5717   12.6199 H   0  0  0  0  0  0  0  0  0  0  0  0
   46.5596   15.2614   12.1781 H   0  0  0  0  0  0  0  0  0  0  0  0
   45.0948   14.1750   10.8855 H   0  0  0  0  0  0  0  0  0  0  0  0
   43.2848   12.5548   11.0094 H   0  0  0  0  0  0  0  0  0  0  0  0
   49.3898   15.7717   11.3470 H   0  0  0  0  0  0  0  0  0  0  0  0
   48.1078   16.9785   11.4496 H   0  0  0  0  0  0  0  0  0  0  0  0
   46.5634    6.6735   13.1994 H   0  0  0  0  0  0  0  0  0  0  0  0
   44.9433    6.6032   13.8929 H   0  0  0  0  0  0  0  0  0  0  0  0
   47.7530   18.1529   13.5410 H   0  0  0  0  0  0  0  0  0  0  0  0
   46.7764    6.4283   10.5934 H   0  0  0  0  0  0  0  0  0  0  0  0
   44.0418    3.9381    8.7817 H   0  0  0  0  0  0  0  0  0  0  0  0
   49.5493   16.9613   17.0430 H   0  0  0  0  0  0  0  0  0  0  0  0
   43.1812    5.3855   12.7260 H   0  0  0  0  0  0  0  0  0  0  0  0
   49.9766   14.4635   13.5804 H   0  0  0  0  0  0  0  0  0  0  0  0
   41.9490    9.1404   10.6759 H   0  0  0  0  0  0  0  0  0  0  0  0
   41.7838   10.8593   11.0528 H   0  0  0  0  0  0  0  0  0  0  0  0
   42.8641   10.3098    9.7110 H   0  0  0  0  0  0  0  0  0  0  0  0
   42.5105    4.0229   10.7536 H   0  0  0  0  0  0  0  0  0  0  0  0
   50.4643   14.8894   15.9858 H   0  0  0  0  0  0  0  0  0  0  0  0
  2  1  1  0
  3  1  2  0
  4  5  1  0
  5  3  1  0
  6  2  1  0
  7  4  1  0
  8  1  1  0
  9  2  2  0
 10  4  2  0
 11 21  2  0
 12 20  2  0
 13 14  1  0
 14  8  2  0
 15 18  1  0
 16 17  1  0
 17  7  1  0
 18  6  1  0
 19  8  1  0
 20 16  1  0
 21 15  1  0
 22 27  2  0
 23 28  2  0
 24 15  2  0
 25 16  2  0
 26 19  1  0
 27 24  1  0
 28 25  1  0
  5 13  2  0
 11 22  1  0
 12 23  1  0
  3 29  1  0
  6 30  1  0
  7 31  1  0
 13 32  1  0
 14 33  1  0
 17 34  1  0
 17 35  1  0
 18 36  1  0
 18 37  1  0
 20 38  1  0
 21 39  1  0
 22 40  1  0
 23 41  1  0
 24 42  1  0
 25 43  1  0
 26 44  1  0
 26 45  1  0
 26 46  1  0
 27 47  1  0
 28 48  1  0
M  END
> <Uni-Dock RESULT> 
ENERGY=   -3.896  LOWER_BOUND=    4.679  UPPER_BOUND=    6.708
INTER + INTRA:          -3.896
INTER:                  -3.896
INTRA:                   0.000
UNBOUND:                 0.000

$$$$

     RDKit          3D

 48 50  0  0  0  0  0  0  0  0999 V2000
   46.9007   10.0576   12.2687 C   0  0  0  0  0  0  0  0  0  0  0  0
   45.4753   10.4130   11.9753 C   0  0  0  0  0  0  0  0  0  0  0  0
   47.1075    8.9628   13.1272 C   0  0  0  0  0  0  0  0  0  0  0  0
   48.5593    7.4040   14.4022 C   0  0  0  0  0  0  0  0  0  0  0  0
   48.4004    8.5593   13.4770 C   0  0  0  0  0  0  0  0  0  0  0  0
   45.2293   11.6607   11.4538 N   0  0  0  0  0  0  0  0  0  0  0  0
   49.6813    7.4159   15.2045 N   0  0  0  0  0  0  0  0  0  0  0  0
   48.0142   10.7290   11.7253 C   0  0  0  0  0  0  0  0  0  0  0  0
   44.5791    9.6085   12.2099 O   0  0  0  0  0  0  0  0  0  0  0  0
   47.7031    6.5292   14.4455 O   0  0  0  0  0  0  0  0  0  0  0  0
   43.5732   10.5670    7.5268 N   0  0  0  0  0  0  0  0  0  0  0  0
   50.0787    7.9134   19.7305 N   0  0  0  0  0  0  0  0  0  0  0  0
   49.5008    9.2353   12.9438 C   0  0  0  0  0  0  0  0  0  0  0  0
   49.3072   10.3171   12.0790 C   0  0  0  0  0  0  0  0  0  0  0  0
   43.8307   11.9617    9.4943 C   0  0  0  0  0  0  0  0  0  0  0  0
   49.4481    6.9773   17.5838 C   0  0  0  0  0  0  0  0  0  0  0  0
   49.8653    6.4319   16.2499 C   0  0  0  0  0  0  0  0  0  0  0  0
   43.9219   12.0578   10.9893 C   0  0  0  0  0  0  0  0  0  0  0  0
   47.7939   11.7974   10.8918 O   0  0  0  0  0  0  0  0  0  0  0  0
   50.3883    7.3958   18.5200 C   0  0  0  0  0  0  0  0  0  0  0  0
   43.6519   10.7310    8.8686 C   0  0  0  0  0  0  0  0  0  0  0  0
   43.6788   11.6803    6.7711 C   0  0  0  0  0  0  0  0  0  0  0  0
   48.7647    8.0176   20.0260 C   0  0  0  0  0  0  0  0  0  0  0  0
   43.9471   13.0890    8.6755 C   0  0  0  0  0  0  0  0  0  0  0  0
   48.0990    7.1072   17.9273 C   0  0  0  0  0  0  0  0  0  0  0  0
   48.7578   11.9863    9.8543 C   0  0  0  0  0  0  0  0  0  0  0  0
   43.8667   12.9496    7.2924 C   0  0  0  0  0  0  0  0  0  0  0  0
   47.7489    7.6332   19.1667 C   0  0  0  0  0  0  0  0  0  0  0  0
   46.2516    8.4248   13.5358 H   0  0  0  0  0  0  0  0  0  0  0  0
   46.0280   12.2179   11.1689 H   0  0  0  0  0  0  0  0  0  0  0  0
   50.2092    8.2728   15.2882 H   0  0  0  0  0  0  0  0  0  0  0  0
   50.5161    8.9206   13.1710 H   0  0  0  0  0  0  0  0  0  0  0  0
   50.1868   10.8290   11.6992 H   0  0  0  0  0  0  0  0  0  0  0  0
   49.3083    5.5153   16.0265 H   0  0  0  0  0  0  0  0  0  0  0  0
   50.9293    6.1706   16.2568 H   0  0  0  0  0  0  0  0  0  0  0  0
   43.1378   11.4504   11.4552 H   0  0  0  0  0  0  0  0  0  0  0  0
   43.7667   13.0921   11.3150 H   0  0  0  0  0  0  0  0  0  0  0  0
   51.4550    7.3286   18.3212 H   0  0  0  0  0  0  0  0  0  0  0  0
   43.5689    9.8133    9.4474 H   0  0  0  0  0  0  0  0  0  0  0  0
   43.6061   11.5191    5.6990 H   0  0  0  0  0  0  0  0  0  0  0  0
   48.5416    8.4316   21.0057 H   0  0  0  0  0  0  0  0  0  0  0  0
   44.0960   14.0757    9.1074 H   0  0  0  0  0  0  0  0  0  0  0  0
   47.3215    6.7995   17.2296 H   0  0  0  0  0  0  0  0  0  0  0  0
   48.3132   12.6489    9.1047 H   0  0  0  0  0  0  0  0  0  0  0  0
   49.6528   12.4817   10.2455 H   0  0  0  0  0  0  0  0  0  0  0  0
   49.0126   11.0420    9.3585 H   0  0  0  0  0  0  0  0  0  0  0  0
   43.9459   13.8094    6.6369 H   0  0  0  0  0  0  0  0  0  0  0  0
   46.7087    7.7406   19.4531 H   0  0  0  0  0  0  0  0  0  0  0  0
  2  1  1  0
  3  1  2  0
  4  5  1  0
  5  3  1  0
  6  2  1  0
  7  4  1  0
  8  1  1  0
  9  2  2  0
 10  4  2  0
 11 21  2  0
 12 20  2  0
 13 14  1  0
 14  8  2  0
 15 18  1  0
 16 17  1  0
 17  7  1  0
 18  6  1  0
 19  8  1  0
 20 16  1  0
 21 15  1  0
 22 27  2  0
 23 28  2  0
 24 15  2  0
 25 16  2  0
 26 19  1  0
 27 24  1  0
 28 25  1  0
  5 13  2  0
 11 22  1  0
 12 23  1  0
  3 29  1  0
  6 30  1  0
  7 31  1  0
 13 32  1  0
 14 33  1  0
 17 34  1  0
 17 35  1  0
 18 36  1  0
 18 37  1  0
 20 38  1  0
 21 39  1  0
 22 40  1  0
 23 41  1  0
 24 42  1  0
 25 43  1  0
 26 44  1  0
 26 45  1  0
 26 46  1  0
 27 47  1  0
 28 48  1  0
M  END
> <Uni-Dock RESULT> 
ENERGY=   -3.663  LOWER_BOUND=    3.582  UPPER_BOUND=    5.808
INTER + INTRA:          -3.663
INTER:                  -3.663
INTRA:                   0.000
UNBOUND:                 0.000

$$$$
