
     RDKit          3D

 21 16  0  0  0  0  0  0  0  0999 V2000
   47.3426    2.8289    6.6585 O   0  0  0  0  0  0  0  0  0  0  0  0
   47.6382    1.9677    6.8285 C   0  0  0  0  0  0  0  0  0  0  0  0
   47.2017    0.8494    7.2187 O   0  0  0  0  0  0  0  0  0  0  0  0
   48.7839    2.2872    6.4037 O   0  0  0  0  0  0  0  0  0  0  0  0
   46.6355    3.1075    6.8752 C   0  0  0  0  0  0  0  0  0  0  0  0
   47.5313    1.9100    6.6723 C   0  0  0  0  0  0  0  0  0  0  0  0
   47.3461    0.9444    7.4650 O   0  0  0  0  0  0  0  0  0  0  0  0
   48.2862    1.9972    5.6644 O   0  0  0  0  0  0  0  0  0  0  0  0
   46.7188    3.1547    6.9839 C   0  0  0  0  0  0  0  0  0  0  0  0
   47.0604    2.6283    6.8545 Zn  0  0  0  0  0 15  0  0  0  0  0  0
   47.3421    2.8294    6.6584 O   0  0  0  0  0  0  0  0  0  0  0  0
   46.4621    3.1386    6.9190 H   0  0  0  0  0  0  0  0  0  0  0  0
   47.3766    1.9176    6.9861 H   0  0  0  0  0  0  0  0  0  0  0  0
   46.4943    3.5181    5.8710 H   0  0  0  0  0  0  0  0  0  0  0  0
   47.0046    3.8989    7.5343 H   0  0  0  0  0  0  0  0  0  0  0  0
   45.6647    2.7696    7.2504 H   0  0  0  0  0  0  0  0  0  0  0  0
   46.9676    3.5187    7.9851 H   0  0  0  0  0  0  0  0  0  0  0  0
   46.9221    3.9541    6.2648 H   0  0  0  0  0  0  0  0  0  0  0  0
   45.6509    2.9192    6.9464 H   0  0  0  0  0  0  0  0  0  0  0  0
   47.3777    1.9179    6.9855 H   0  0  0  0  0  0  0  0  0  0  0  0
   46.4614    3.1377    6.9196 H   0  0  0  0  0  0  0  0  0  0  0  0
  3  2  1  0
  4  2  2  0
  5  2  1  0
  7  6  1  0
  8  6  2  0
  9  6  1  0
  1 12  1  0
  1 13  1  0
  5 14  1  0
  5 15  1  0
  5 16  1  0
  9 17  1  0
  9 18  1  0
  9 19  1  0
 11 20  1  0
 11 21  1  0
M  CHG  3   3  -1   7  -1  10   2
M  END
> <Uni-Dock RESULT> 
ENERGY=   -5.502  LOWER_BOUND=    0.000  UPPER_BOUND=    0.000
INTER + INTRA:          -5.502
INTER:                  -5.502
INTRA:                   0.000
UNBOUND:                 0.000

$$$$

     RDKit          3D

 21 16  0  0  0  0  0  0  0  0999 V2000
   47.0995    2.6848    6.9035 O   0  0  0  0  0  0  0  0  0  0  0  0
   47.5705    2.2708    6.2219 C   0  0  0  0  0  0  0  0  0  0  0  0
   48.2042    2.5533    5.1673 O   0  0  0  0  0  0  0  0  0  0  0  0
   47.4300    1.1623    6.8107 O   0  0  0  0  0  0  0  0  0  0  0  0
   46.8673    3.4401    6.8890 C   0  0  0  0  0  0  0  0  0  0  0  0
   47.7335    2.3562    6.2950 C   0  0  0  0  0  0  0  0  0  0  0  0
   47.9484    2.4431    5.0535 O   0  0  0  0  0  0  0  0  0  0  0  0
   48.2118    1.5559    7.1459 O   0  0  0  0  0  0  0  0  0  0  0  0
   46.7474    3.3730    6.8433 C   0  0  0  0  0  0  0  0  0  0  0  0
   47.1631    2.9451    6.6095 Zn  0  0  0  0  0 15  0  0  0  0  0  0
   47.0992    2.6853    6.9039 O   0  0  0  0  0  0  0  0  0  0  0  0
   46.8439    3.6188    6.8678 H   0  0  0  0  0  0  0  0  0  0  0  0
   47.5459    2.5317    6.0572 H   0  0  0  0  0  0  0  0  0  0  0  0
   47.2521    3.5734    7.9045 H   0  0  0  0  0  0  0  0  0  0  0  0
   45.7918    3.2459    6.9390 H   0  0  0  0  0  0  0  0  0  0  0  0
   47.0256    4.3698    6.3342 H   0  0  0  0  0  0  0  0  0  0  0  0
   45.7790    3.2544    6.3483 H   0  0  0  0  0  0  0  0  0  0  0  0
   46.6028    3.2475    7.9207 H   0  0  0  0  0  0  0  0  0  0  0  0
   47.1188    4.3856    6.6599 H   0  0  0  0  0  0  0  0  0  0  0  0
   47.5458    2.5306    6.0580 H   0  0  0  0  0  0  0  0  0  0  0  0
   46.8442    3.6194    6.8666 H   0  0  0  0  0  0  0  0  0  0  0  0
  3  2  1  0
  4  2  2  0
  5  2  1  0
  7  6  1  0
  8  6  2  0
  9  6  1  0
  1 12  1  0
  1 13  1  0
  5 14  1  0
  5 15  1  0
  5 16  1  0
  9 17  1  0
  9 18  1  0
  9 19  1  0
 11 20  1  0
 11 21  1  0
M  CHG  3   3  -1   7  -1  10   2
M  END
> <Uni-Dock RESULT> 
ENERGY=   -5.477  LOWER_BOUND=    0.615  UPPER_BOUND=    1.469
INTER + INTRA:          -5.477
INTER:                  -5.477
INTRA:                   0.000
UNBOUND:                 0.000

$$$$

     RDKit          3D

 21 16  0  0  0  0  0  0  0  0999 V2000
   42.8214    4.7757   11.4635 O   0  0  0  0  0  0  0  0  0  0  0  0
   42.7229    5.3194   12.2069 C   0  0  0  0  0  0  0  0  0  0  0  0
   43.2335    5.5117   13.3451 O   0  0  0  0  0  0  0  0  0  0  0  0
   41.8257    5.9697   11.6007 O   0  0  0  0  0  0  0  0  0  0  0  0
   43.2676    4.1237   11.4452 C   0  0  0  0  0  0  0  0  0  0  0  0
   42.8970    5.4006   12.1592 C   0  0  0  0  0  0  0  0  0  0  0  0
   42.9789    5.3695   13.4191 O   0  0  0  0  0  0  0  0  0  0  0  0
   42.6469    6.3676   11.3874 O   0  0  0  0  0  0  0  0  0  0  0  0
   43.1369    4.0675   11.4722 C   0  0  0  0  0  0  0  0  0  0  0  0
   43.0361    4.6287   11.7644 Zn  0  0  0  0  0 15  0  0  0  0  0  0
   42.8216    4.7752   11.4631 O   0  0  0  0  0  0  0  0  0  0  0  0
   43.3909    3.9918   11.4631 H   0  0  0  0  0  0  0  0  0  0  0  0
   42.8960    5.1187   12.3667 H   0  0  0  0  0  0  0  0  0  0  0  0
   43.7057    4.4554   10.4991 H   0  0  0  0  0  0  0  0  0  0  0  0
   42.4580    3.4187   11.2342 H   0  0  0  0  0  0  0  0  0  0  0  0
   44.0392    3.6026   12.0198 H   0  0  0  0  0  0  0  0  0  0  0  0
   42.4005    3.3354   11.8164 H   0  0  0  0  0  0  0  0  0  0  0  0
   43.0524    4.1582   10.3850 H   0  0  0  0  0  0  0  0  0  0  0  0
   44.1401    3.7024   11.7119 H   0  0  0  0  0  0  0  0  0  0  0  0
   42.8952    5.1195   12.3659 H   0  0  0  0  0  0  0  0  0  0  0  0
   43.3915    3.9915   11.4643 H   0  0  0  0  0  0  0  0  0  0  0  0
  3  2  1  0
  4  2  2  0
  5  2  1  0
  7  6  1  0
  8  6  2  0
  9  6  1  0
  1 12  1  0
  1 13  1  0
  5 14  1  0
  5 15  1  0
  5 16  1  0
  9 17  1  0
  9 18  1  0
  9 19  1  0
 11 20  1  0
 11 21  1  0
M  CHG  3   3  -1   7  -1  10   2
M  END
> <Uni-Dock RESULT> 
ENERGY=   -4.301  LOWER_BOUND=    7.144  UPPER_BOUND=    7.722
INTER + INTRA:          -4.301
INTER:                  -4.301
INTRA:                   0.000
UNBOUND:                 0.000

$$$$

     RDKit          3D

 21 16  0  0  0  0  0  0  0  0999 V2000
   45.7816    3.1130    7.9853 O   0  0  0  0  0  0  0  0  0  0  0  0
   45.0700    3.4072    8.5000 C   0  0  0  0  0  0  0  0  0  0  0  0
   44.1337    4.2533    8.4711 O   0  0  0  0  0  0  0  0  0  0  0  0
   45.3155    2.4985    9.3421 O   0  0  0  0  0  0  0  0  0  0  0  0
   46.0554    3.4906    7.3473 C   0  0  0  0  0  0  0  0  0  0  0  0
   44.9504    3.3296    8.3627 C   0  0  0  0  0  0  0  0  0  0  0  0
   44.3237    4.3837    8.6646 O   0  0  0  0  0  0  0  0  0  0  0  0
   44.7350    2.1334    8.7032 O   0  0  0  0  0  0  0  0  0  0  0  0
   46.1458    3.5389    7.4495 C   0  0  0  0  0  0  0  0  0  0  0  0
   45.6411    3.4533    7.8347 Zn  0  0  0  0  0 15  0  0  0  0  0  0
   45.7821    3.1130    7.9848 O   0  0  0  0  0  0  0  0  0  0  0  0
   46.0845    3.5862    7.1959 H   0  0  0  0  0  0  0  0  0  0  0  0
   45.0570    3.6606    8.3228 H   0  0  0  0  0  0  0  0  0  0  0  0
   46.0614    2.5455    6.7960 H   0  0  0  0  0  0  0  0  0  0  0  0
   47.0609    3.6838    7.7327 H   0  0  0  0  0  0  0  0  0  0  0  0
   45.7905    4.2941    6.6534 H   0  0  0  0  0  0  0  0  0  0  0  0
   46.8674    4.2059    7.9305 H   0  0  0  0  0  0  0  0  0  0  0  0
   46.6465    2.5922    7.2246 H   0  0  0  0  0  0  0  0  0  0  0  0
   45.8183    3.9892    6.5076 H   0  0  0  0  0  0  0  0  0  0  0  0
   45.0572    3.6596    8.3236 H   0  0  0  0  0  0  0  0  0  0  0  0
   46.0839    3.5873    7.1956 H   0  0  0  0  0  0  0  0  0  0  0  0
  3  2  1  0
  4  2  2  0
  5  2  1  0
  7  6  1  0
  8  6  2  0
  9  6  1  0
  1 12  1  0
  1 13  1  0
  5 14  1  0
  5 15  1  0
  5 16  1  0
  9 17  1  0
  9 18  1  0
  9 19  1  0
 11 20  1  0
 11 21  1  0
M  CHG  3   3  -1   7  -1  10   2
M  END
> <Uni-Dock RESULT> 
ENERGY=   -4.262  LOWER_BOUND=    2.606  UPPER_BOUND=    3.359
INTER + INTRA:          -4.262
INTER:                  -4.262
INTRA:                   0.000
UNBOUND:                 0.000

$$$$

     RDKit          3D

 21 16  0  0  0  0  0  0  0  0999 V2000
   44.6158    3.1790    8.9762 O   0  0  0  0  0  0  0  0  0  0  0  0
   44.8870    2.3072    9.1323 C   0  0  0  0  0  0  0  0  0  0  0  0
   45.7201    1.4580    8.7102 O   0  0  0  0  0  0  0  0  0  0  0  0
   44.0917    2.2451   10.1115 O   0  0  0  0  0  0  0  0  0  0  0  0
   44.8279    3.6047    8.3451 C   0  0  0  0  0  0  0  0  0  0  0  0
   45.0575    2.3820    9.1994 C   0  0  0  0  0  0  0  0  0  0  0  0
   45.4649    1.3539    8.5894 O   0  0  0  0  0  0  0  0  0  0  0  0
   44.9037    2.5823   10.4361 O   0  0  0  0  0  0  0  0  0  0  0  0
   44.6989    3.5542    8.3029 C   0  0  0  0  0  0  0  0  0  0  0  0
   44.8508    3.0583    8.6789 Zn  0  0  0  0  0 15  0  0  0  0  0  0
   44.6157    3.1796    8.9759 O   0  0  0  0  0  0  0  0  0  0  0  0
   44.9069    3.6847    8.2027 H   0  0  0  0  0  0  0  0  0  0  0  0
   45.0299    2.3110    8.8578 H   0  0  0  0  0  0  0  0  0  0  0  0
   45.0706    4.4468    9.0001 H   0  0  0  0  0  0  0  0  0  0  0  0
   43.8213    3.7473    7.9409 H   0  0  0  0  0  0  0  0  0  0  0  0
   45.5375    3.5986    7.5122 H   0  0  0  0  0  0  0  0  0  0  0  0
   43.9018    3.2627    7.6126 H   0  0  0  0  0  0  0  0  0  0  0  0
   44.3535    4.4124    8.8874 H   0  0  0  0  0  0  0  0  0  0  0  0
   45.5758    3.8602    7.7245 H   0  0  0  0  0  0  0  0  0  0  0  0
   45.0291    2.3110    8.8589 H   0  0  0  0  0  0  0  0  0  0  0  0
   44.9077    3.6841    8.2018 H   0  0  0  0  0  0  0  0  0  0  0  0
  3  2  1  0
  4  2  2  0
  5  2  1  0
  7  6  1  0
  8  6  2  0
  9  6  1  0
  1 12  1  0
  1 13  1  0
  5 14  1  0
  5 15  1  0
  5 16  1  0
  9 17  1  0
  9 18  1  0
  9 19  1  0
 11 20  1  0
 11 21  1  0
M  CHG  3   3  -1   7  -1  10   2
M  END
> <Uni-Dock RESULT> 
ENERGY=   -4.220  LOWER_BOUND=    3.148  UPPER_BOUND=    3.714
INTER + INTRA:          -4.220
INTER:                  -4.220
INTRA:                   0.000
UNBOUND:                 0.000

$$$$

     RDKit          3D

 21 16  0  0  0  0  0  0  0  0999 V2000
   42.8915    5.5284   12.6005 O   0  0  0  0  0  0  0  0  0  0  0  0
   42.8880    5.4524   11.6774 C   0  0  0  0  0  0  0  0  0  0  0  0
   43.0525    4.5877   10.7726 O   0  0  0  0  0  0  0  0  0  0  0  0
   42.5298    6.6603   11.5887 O   0  0  0  0  0  0  0  0  0  0  0  0
   43.1614    4.9713   13.0918 C   0  0  0  0  0  0  0  0  0  0  0  0
   42.7238    5.3434   11.6962 C   0  0  0  0  0  0  0  0  0  0  0  0
   43.3121    4.7390   10.7562 O   0  0  0  0  0  0  0  0  0  0  0  0
   41.7498    6.1454   11.6592 O   0  0  0  0  0  0  0  0  0  0  0  0
   43.2769    5.0580   13.0816 C   0  0  0  0  0  0  0  0  0  0  0  0
   43.0454    5.1767   12.4961 Zn  0  0  0  0  0 15  0  0  0  0  0  0
   42.8916    5.5282   12.6012 O   0  0  0  0  0  0  0  0  0  0  0  0
   43.2111    4.8209   13.1804 H   0  0  0  0  0  0  0  0  0  0  0  0
   43.0336    5.1809   11.7072 H   0  0  0  0  0  0  0  0  0  0  0  0
   42.2580    5.0760   13.6999 H   0  0  0  0  0  0  0  0  0  0  0  0
   43.9617    5.5690   13.5382 H   0  0  0  0  0  0  0  0  0  0  0  0
   43.4666    3.9206   13.1037 H   0  0  0  0  0  0  0  0  0  0  0  0
   44.3292    5.3537   13.1286 H   0  0  0  0  0  0  0  0  0  0  0  0
   42.7281    5.6090   13.8514 H   0  0  0  0  0  0  0  0  0  0  0  0
   43.1980    3.9887   13.2991 H   0  0  0  0  0  0  0  0  0  0  0  0
   43.0331    5.1822   11.7072 H   0  0  0  0  0  0  0  0  0  0  0  0
   43.2116    4.8199   13.1798 H   0  0  0  0  0  0  0  0  0  0  0  0
  3  2  1  0
  4  2  2  0
  5  2  1  0
  7  6  1  0
  8  6  2  0
  9  6  1  0
  1 12  1  0
  1 13  1  0
  5 14  1  0
  5 15  1  0
  5 16  1  0
  9 17  1  0
  9 18  1  0
  9 19  1  0
 11 20  1  0
 11 21  1  0
M  CHG  3   3  -1   7  -1  10   2
M  END
> <Uni-Dock RESULT> 
ENERGY=   -4.066  LOWER_BOUND=    7.228  UPPER_BOUND=    7.809
INTER + INTRA:          -4.066
INTER:                  -4.066
INTRA:                   0.000
UNBOUND:                 0.000

$$$$

     RDKit          3D

 21 16  0  0  0  0  0  0  0  0999 V2000
   43.3356    4.7475   12.2048 O   0  0  0  0  0  0  0  0  0  0  0  0
   42.7897    5.2767   11.6758 C   0  0  0  0  0  0  0  0  0  0  0  0
   42.0308    6.2817   11.7622 O   0  0  0  0  0  0  0  0  0  0  0  0
   43.1615    4.6269   10.6586 O   0  0  0  0  0  0  0  0  0  0  0  0
   43.3435    4.7667   12.9948 C   0  0  0  0  0  0  0  0  0  0  0  0
   42.9203    5.4229   11.7033 C   0  0  0  0  0  0  0  0  0  0  0  0
   41.8297    6.0588   11.7415 O   0  0  0  0  0  0  0  0  0  0  0  0
   43.7712    5.3290   10.7757 O   0  0  0  0  0  0  0  0  0  0  0  0
   43.2545    4.6551   12.9704 C   0  0  0  0  0  0  0  0  0  0  0  0
   43.1112    4.9799   12.4370 Zn  0  0  0  0  0 15  0  0  0  0  0  0
   43.3359    4.7472   12.2054 O   0  0  0  0  0  0  0  0  0  0  0  0
   43.3385    4.8054   13.1721 H   0  0  0  0  0  0  0  0  0  0  0  0
   42.6596    5.3868   11.9341 H   0  0  0  0  0  0  0  0  0  0  0  0
   44.4367    4.8081   12.9785 H   0  0  0  0  0  0  0  0  0  0  0  0
   43.0293    3.7307   13.1528 H   0  0  0  0  0  0  0  0  0  0  0  0
   42.9870    5.3684   13.8364 H   0  0  0  0  0  0  0  0  0  0  0  0
   42.4703    3.9207   13.1765 H   0  0  0  0  0  0  0  0  0  0  0  0
   44.2078    4.1260   12.8764 H   0  0  0  0  0  0  0  0  0  0  0  0
   43.3248    5.3468   13.8152 H   0  0  0  0  0  0  0  0  0  0  0  0
   42.6602    5.3862   11.9330 H   0  0  0  0  0  0  0  0  0  0  0  0
   43.3376    4.8063   13.1726 H   0  0  0  0  0  0  0  0  0  0  0  0
  3  2  1  0
  4  2  2  0
  5  2  1  0
  7  6  1  0
  8  6  2  0
  9  6  1  0
  1 12  1  0
  1 13  1  0
  5 14  1  0
  5 15  1  0
  5 16  1  0
  9 17  1  0
  9 18  1  0
  9 19  1  0
 11 20  1  0
 11 21  1  0
M  CHG  3   3  -1   7  -1  10   2
M  END
> <Uni-Dock RESULT> 
ENERGY=   -3.796  LOWER_BOUND=    7.025  UPPER_BOUND=    7.603
INTER + INTRA:          -3.796
INTER:                  -3.796
INTRA:                   0.000
UNBOUND:                 0.000

$$$$

     RDKit          3D

 21 16  0  0  0  0  0  0  0  0999 V2000
   43.1130    3.6166   11.6976 O   0  0  0  0  0  0  0  0  0  0  0  0
   43.7195    3.0145   11.3404 C   0  0  0  0  0  0  0  0  0  0  0  0
   44.8543    2.9899   10.7881 O   0  0  0  0  0  0  0  0  0  0  0  0
   42.9766    2.0619   11.7088 O   0  0  0  0  0  0  0  0  0  0  0  0
   43.1568    4.4002   11.6049 C   0  0  0  0  0  0  0  0  0  0  0  0
   43.8387    3.0585   11.4922 C   0  0  0  0  0  0  0  0  0  0  0  0
   44.6738    2.9437   10.5518 O   0  0  0  0  0  0  0  0  0  0  0  0
   43.5515    2.2558   12.4231 O   0  0  0  0  0  0  0  0  0  0  0  0
   43.0637    4.3646   11.4998 C   0  0  0  0  0  0  0  0  0  0  0  0
   43.3920    3.8144   11.4944 Zn  0  0  0  0  0 15  0  0  0  0  0  0
   43.1127    3.6172   11.6978 O   0  0  0  0  0  0  0  0  0  0  0  0
   43.2016    4.5748   11.5843 H   0  0  0  0  0  0  0  0  0  0  0  0
   43.8612    3.2520   11.2014 H   0  0  0  0  0  0  0  0  0  0  0  0
   42.9861    4.5322   12.6775 H   0  0  0  0  0  0  0  0  0  0  0  0
   42.2067    4.5213   11.0761 H   0  0  0  0  0  0  0  0  0  0  0  0
   43.8438    5.1812   11.2652 H   0  0  0  0  0  0  0  0  0  0  0  0
   42.5016    4.4675   10.5669 H   0  0  0  0  0  0  0  0  0  0  0  0
   42.3579    4.4048   12.3351 H   0  0  0  0  0  0  0  0  0  0  0  0
   43.7568    5.2062   11.5920 H   0  0  0  0  0  0  0  0  0  0  0  0
   43.8605    3.2510   11.2020 H   0  0  0  0  0  0  0  0  0  0  0  0
   43.2027    4.5752   11.5835 H   0  0  0  0  0  0  0  0  0  0  0  0
  3  2  1  0
  4  2  2  0
  5  2  1  0
  7  6  1  0
  8  6  2  0
  9  6  1  0
  1 12  1  0
  1 13  1  0
  5 14  1  0
  5 15  1  0
  5 16  1  0
  9 17  1  0
  9 18  1  0
  9 19  1  0
 11 20  1  0
 11 21  1  0
M  CHG  3   3  -1   7  -1  10   2
M  END
> <Uni-Dock RESULT> 
ENERGY=   -3.660  LOWER_BOUND=    5.807  UPPER_BOUND=    6.354
INTER + INTRA:          -3.660
INTER:                  -3.660
INTRA:                   0.000
UNBOUND:                 0.000

$$$$

     RDKit          3D

 21 16  0  0  0  0  0  0  0  0999 V2000
   39.3316   12.6426   16.0598 O   0  0  0  0  0  0  0  0  0  0  0  0
   39.7615   12.4008   15.2758 C   0  0  0  0  0  0  0  0  0  0  0  0
   39.6070   12.4597   14.0244 O   0  0  0  0  0  0  0  0  0  0  0  0
   40.7499   12.0002   15.9525 O   0  0  0  0  0  0  0  0  0  0  0  0
   38.5804   12.8848   16.0988 C   0  0  0  0  0  0  0  0  0  0  0  0
   39.7879   12.5939   15.2415 C   0  0  0  0  0  0  0  0  0  0  0  0
   39.5458   12.1697   14.0768 O   0  0  0  0  0  0  0  0  0  0  0  0
   40.8867   12.9105   15.7762 O   0  0  0  0  0  0  0  0  0  0  0  0
   38.5663   12.7444   16.1313 C   0  0  0  0  0  0  0  0  0  0  0  0
   39.0801   12.6801   15.7539 Zn  0  0  0  0  0 15  0  0  0  0  0  0
   39.3312   12.6429   16.0602 O   0  0  0  0  0  0  0  0  0  0  0  0
   38.4145   12.9547   16.0762 H   0  0  0  0  0  0  0  0  0  0  0  0
   39.4942   12.4428   15.1257 H   0  0  0  0  0  0  0  0  0  0  0  0
   38.8881   13.7231   16.7310 H   0  0  0  0  0  0  0  0  0  0  0  0
   38.2157   12.0739   16.7362 H   0  0  0  0  0  0  0  0  0  0  0  0
   37.7580   13.2181   15.4585 H   0  0  0  0  0  0  0  0  0  0  0  0
   38.0705   11.7761   16.2470 H   0  0  0  0  0  0  0  0  0  0  0  0
   38.8394   13.1140   17.1244 H   0  0  0  0  0  0  0  0  0  0  0  0
   37.8641   13.4519   15.6801 H   0  0  0  0  0  0  0  0  0  0  0  0
   39.4953   12.4426   15.1264 H   0  0  0  0  0  0  0  0  0  0  0  0
   38.4138   12.9548   16.0751 H   0  0  0  0  0  0  0  0  0  0  0  0
  3  2  1  0
  4  2  2  0
  5  2  1  0
  7  6  1  0
  8  6  2  0
  9  6  1  0
  1 12  1  0
  1 13  1  0
  5 14  1  0
  5 15  1  0
  5 16  1  0
  9 17  1  0
  9 18  1  0
  9 19  1  0
 11 20  1  0
 11 21  1  0
M  CHG  3   3  -1   7  -1  10   2
M  END
> <Uni-Dock RESULT> 
ENERGY=   -3.642  LOWER_BOUND=   15.077  UPPER_BOUND=   15.709
INTER + INTRA:          -3.642
INTER:                  -3.642
INTRA:                   0.000
UNBOUND:                 0.000

$$$$
