
     RDKit          3D

 21 16  0  0  0  0  0  0  0  0999 V2000
   47.4716    1.0833    7.0186 O   0  0  0  0  0  0  0  0  0  0  0  0
   46.7832    1.0102    7.6744 C   0  0  0  0  0  0  0  0  0  0  0  0
   46.7600   -0.2448    7.5410 O   0  0  0  0  0  0  0  0  0  0  0  0
   46.1330    1.7538    8.4613 O   0  0  0  0  0  0  0  0  0  0  0  0
   47.7384    1.7433    6.7487 C   0  0  0  0  0  0  0  0  0  0  0  0
   46.8028    0.9626    7.6538 C   0  0  0  0  0  0  0  0  0  0  0  0
   46.9994   -0.2841    7.6067 O   0  0  0  0  0  0  0  0  0  0  0  0
   45.9626    1.6255    8.3231 O   0  0  0  0  0  0  0  0  0  0  0  0
   47.7207    1.7860    6.7672 C   0  0  0  0  0  0  0  0  0  0  0  0
   47.3347    1.4364    7.1404 Zn  0  0  0  0  0 15  0  0  0  0  0  0
   47.4721    1.0836    7.0181 O   0  0  0  0  0  0  0  0  0  0  0  0
   47.7596    1.9644    6.7365 H   0  0  0  0  0  0  0  0  0  0  0  0
   46.7729    1.2615    7.6659 H   0  0  0  0  0  0  0  0  0  0  0  0
   47.1815    2.4488    6.1249 H   0  0  0  0  0  0  0  0  0  0  0  0
   48.4757    2.2957    7.3390 H   0  0  0  0  0  0  0  0  0  0  0  0
   48.2711    1.0477    6.0931 H   0  0  0  0  0  0  0  0  0  0  0  0
   47.5925    1.4876    5.7225 H   0  0  0  0  0  0  0  0  0  0  0  0
   48.7624    1.6219    7.0585 H   0  0  0  0  0  0  0  0  0  0  0  0
   47.5025    2.8551    6.8509 H   0  0  0  0  0  0  0  0  0  0  0  0
   47.7588    1.9655    6.7373 H   0  0  0  0  0  0  0  0  0  0  0  0
   46.7732    1.2599    7.6657 H   0  0  0  0  0  0  0  0  0  0  0  0
  3  2  1  0
  4  2  2  0
  5  2  1  0
  7  6  1  0
  8  6  2  0
  9  6  1  0
  1 12  1  0
  1 13  1  0
  5 14  1  0
  5 15  1  0
  5 16  1  0
  9 17  1  0
  9 18  1  0
  9 19  1  0
 11 20  1  0
 11 21  1  0
M  CHG  3   3  -1   7  -1  10   2
M  END
> <Uni-Dock RESULT> 
ENERGY=   -6.196  LOWER_BOUND=    0.000  UPPER_BOUND=    0.000
INTER + INTRA:          -6.196
INTER:                  -6.196
INTRA:                   0.000
UNBOUND:                 0.000

$$$$

     RDKit          3D

 21 16  0  0  0  0  0  0  0  0999 V2000
   47.1858    3.1441    6.2023 O   0  0  0  0  0  0  0  0  0  0  0  0
   47.7037    2.3459    6.2649 C   0  0  0  0  0  0  0  0  0  0  0  0
   48.0052    2.4202    5.0415 O   0  0  0  0  0  0  0  0  0  0  0  0
   48.0700    1.5132    7.1409 O   0  0  0  0  0  0  0  0  0  0  0  0
   46.7546    3.4208    6.7655 C   0  0  0  0  0  0  0  0  0  0  0  0
   47.7041    2.3718    6.2159 C   0  0  0  0  0  0  0  0  0  0  0  0
   48.1190    2.6440    5.0546 O   0  0  0  0  0  0  0  0  0  0  0  0
   47.9579    1.3807    6.9552 O   0  0  0  0  0  0  0  0  0  0  0  0
   46.7542    3.3975    6.8095 C   0  0  0  0  0  0  0  0  0  0  0  0
   47.1551    2.9663    6.5568 Zn  0  0  0  0  0 15  0  0  0  0  0  0
   47.1853    3.1447    6.2025 O   0  0  0  0  0  0  0  0  0  0  0  0
   46.6713    3.4315    6.9715 H   0  0  0  0  0  0  0  0  0  0  0  0
   47.6083    2.3233    6.4967 H   0  0  0  0  0  0  0  0  0  0  0  0
   45.8444    2.9578    7.1581 H   0  0  0  0  0  0  0  0  0  0  0  0
   47.2338    3.9958    7.5636 H   0  0  0  0  0  0  0  0  0  0  0  0
   46.4739    4.1101    5.9633 H   0  0  0  0  0  0  0  0  0  0  0  0
   45.8684    3.4934    6.1745 H   0  0  0  0  0  0  0  0  0  0  0  0
   47.2519    4.3696    6.8745 H   0  0  0  0  0  0  0  0  0  0  0  0
   46.4302    3.1070    7.8136 H   0  0  0  0  0  0  0  0  0  0  0  0
   46.6715    3.4305    6.9727 H   0  0  0  0  0  0  0  0  0  0  0  0
   47.6086    2.3236    6.4952 H   0  0  0  0  0  0  0  0  0  0  0  0
  3  2  1  0
  4  2  2  0
  5  2  1  0
  7  6  1  0
  8  6  2  0
  9  6  1  0
  1 12  1  0
  1 13  1  0
  5 14  1  0
  5 15  1  0
  5 16  1  0
  9 17  1  0
  9 18  1  0
  9 19  1  0
 11 20  1  0
 11 21  1  0
M  CHG  3   3  -1   7  -1  10   2
M  END
> <Uni-Dock RESULT> 
ENERGY=   -6.073  LOWER_BOUND=    1.774  UPPER_BOUND=    2.562
INTER + INTRA:          -6.073
INTER:                  -6.073
INTRA:                   0.000
UNBOUND:                 0.000

$$$$

     RDKit          3D

 21 16  0  0  0  0  0  0  0  0999 V2000
   47.1906    2.7611    6.9558 O   0  0  0  0  0  0  0  0  0  0  0  0
   47.7228    2.3674    6.2695 C   0  0  0  0  0  0  0  0  0  0  0  0
   48.1369    1.4825    7.0687 O   0  0  0  0  0  0  0  0  0  0  0  0
   47.9551    2.5196    5.0375 O   0  0  0  0  0  0  0  0  0  0  0  0
   46.8036    3.4122    6.8780 C   0  0  0  0  0  0  0  0  0  0  0  0
   47.7225    2.3414    6.3184 C   0  0  0  0  0  0  0  0  0  0  0  0
   47.9111    1.3858    7.1224 O   0  0  0  0  0  0  0  0  0  0  0  0
   48.1797    2.5246    5.1563 O   0  0  0  0  0  0  0  0  0  0  0  0
   46.8039    3.4355    6.8340 C   0  0  0  0  0  0  0  0  0  0  0  0
   47.1912    2.9726    6.6189 Zn  0  0  0  0  0 15  0  0  0  0  0  0
   47.1901    2.7616    6.9561 O   0  0  0  0  0  0  0  0  0  0  0  0
   46.7219    3.5885    6.7699 H   0  0  0  0  0  0  0  0  0  0  0  0
   47.6610    2.5682    6.1309 H   0  0  0  0  0  0  0  0  0  0  0  0
   47.2452    4.4065    6.7627 H   0  0  0  0  0  0  0  0  0  0  0  0
   45.8340    3.3928    6.3715 H   0  0  0  0  0  0  0  0  0  0  0  0
   46.6406    3.2275    7.9443 H   0  0  0  0  0  0  0  0  0  0  0  0
   47.2221    3.8711    7.7464 H   0  0  0  0  0  0  0  0  0  0  0  0
   45.8187    3.0166    7.0594 H   0  0  0  0  0  0  0  0  0  0  0  0
   46.6799    4.2332    6.0953 H   0  0  0  0  0  0  0  0  0  0  0  0
   46.7221    3.5891    6.7685 H   0  0  0  0  0  0  0  0  0  0  0  0
   47.6613    2.5671    6.1320 H   0  0  0  0  0  0  0  0  0  0  0  0
  3  2  1  0
  4  2  2  0
  5  2  1  0
  7  6  1  0
  8  6  2  0
  9  6  1  0
  1 12  1  0
  1 13  1  0
  5 14  1  0
  5 15  1  0
  5 16  1  0
  9 17  1  0
  9 18  1  0
  9 19  1  0
 11 20  1  0
 11 21  1  0
M  CHG  3   3  -1   7  -1  10   2
M  END
> <Uni-Dock RESULT> 
ENERGY=   -6.038  LOWER_BOUND=    1.662  UPPER_BOUND=    2.436
INTER + INTRA:          -6.038
INTER:                  -6.038
INTRA:                   0.000
UNBOUND:                 0.000

$$$$

     RDKit          3D

 21 16  0  0  0  0  0  0  0  0999 V2000
   47.5895    1.5334    6.5584 O   0  0  0  0  0  0  0  0  0  0  0  0
   47.5376    2.4506    6.3029 C   0  0  0  0  0  0  0  0  0  0  0  0
   48.3642    2.2590    5.3684 O   0  0  0  0  0  0  0  0  0  0  0  0
   46.9078    3.4964    6.6263 O   0  0  0  0  0  0  0  0  0  0  0  0
   47.2533    1.2405    7.1756 C   0  0  0  0  0  0  0  0  0  0  0  0
   47.5692    2.4179    6.2712 C   0  0  0  0  0  0  0  0  0  0  0  0
   48.2277    2.0874    5.2455 O   0  0  0  0  0  0  0  0  0  0  0  0
   47.1554    3.5527    6.6374 O   0  0  0  0  0  0  0  0  0  0  0  0
   47.2250    1.2699    7.2041 C   0  0  0  0  0  0  0  0  0  0  0  0
   47.3715    1.7524    6.8089 Zn  0  0  0  0  0 15  0  0  0  0  0  0
   47.5893    1.5327    6.5589 O   0  0  0  0  0  0  0  0  0  0  0  0
   47.1227    1.2410    7.3557 H   0  0  0  0  0  0  0  0  0  0  0  0
   47.4024    2.4830    6.5127 H   0  0  0  0  0  0  0  0  0  0  0  0
   47.5224    1.4604    8.2130 H   0  0  0  0  0  0  0  0  0  0  0  0
   46.1888    0.9921    7.1294 H   0  0  0  0  0  0  0  0  0  0  0  0
   47.8266    0.3682    6.8470 H   0  0  0  0  0  0  0  0  0  0  0  0
   48.1434    0.7942    7.5609 H   0  0  0  0  0  0  0  0  0  0  0  0
   46.6236    0.5271    6.6716 H   0  0  0  0  0  0  0  0  0  0  0  0
   46.6562    1.6179    8.0718 H   0  0  0  0  0  0  0  0  0  0  0  0
   47.1219    1.2422    7.3564 H   0  0  0  0  0  0  0  0  0  0  0  0
   47.4033    2.4825    6.5115 H   0  0  0  0  0  0  0  0  0  0  0  0
  3  2  1  0
  4  2  2  0
  5  2  1  0
  7  6  1  0
  8  6  2  0
  9  6  1  0
  1 12  1  0
  1 13  1  0
  5 14  1  0
  5 15  1  0
  5 16  1  0
  9 17  1  0
  9 18  1  0
  9 19  1  0
 11 20  1  0
 11 21  1  0
M  CHG  3   3  -1   7  -1  10   2
M  END
> <Uni-Dock RESULT> 
ENERGY=   -5.977  LOWER_BOUND=    1.527  UPPER_BOUND=    2.192
INTER + INTRA:          -5.977
INTER:                  -5.977
INTRA:                   0.000
UNBOUND:                 0.000

$$$$

     RDKit          3D

 21 16  0  0  0  0  0  0  0  0999 V2000
   47.2633    1.9025    7.1880 O   0  0  0  0  0  0  0  0  0  0  0  0
   47.6862    2.3290    6.4474 C   0  0  0  0  0  0  0  0  0  0  0  0
   47.3691    3.4662    6.8939 O   0  0  0  0  0  0  0  0  0  0  0  0
   48.3639    2.0185    5.4279 O   0  0  0  0  0  0  0  0  0  0  0  0
   47.1771    1.1492    7.2571 C   0  0  0  0  0  0  0  0  0  0  0  0
   47.6651    2.3624    6.4863 C   0  0  0  0  0  0  0  0  0  0  0  0
   47.4916    3.4454    7.1123 O   0  0  0  0  0  0  0  0  0  0  0  0
   48.1669    2.1569    5.3465 O   0  0  0  0  0  0  0  0  0  0  0  0
   47.1961    1.1192    7.2221 C   0  0  0  0  0  0  0  0  0  0  0  0
   47.3931    1.6452    6.9138 Zn  0  0  0  0  0 15  0  0  0  0  0  0
   47.2631    1.9019    7.1885 O   0  0  0  0  0  0  0  0  0  0  0  0
   47.2038    0.9354    7.2016 H   0  0  0  0  0  0  0  0  0  0  0  0
   47.7122    2.0976    6.3517 H   0  0  0  0  0  0  0  0  0  0  0  0
   46.5345    0.5211    6.6329 H   0  0  0  0  0  0  0  0  0  0  0  0
   48.0218    0.5514    7.6123 H   0  0  0  0  0  0  0  0  0  0  0  0
   46.5989    1.4809    8.1250 H   0  0  0  0  0  0  0  0  0  0  0  0
   46.1244    1.1935    7.4294 H   0  0  0  0  0  0  0  0  0  0  0  0
   47.7355    1.0235    8.1691 H   0  0  0  0  0  0  0  0  0  0  0  0
   47.3722    0.2154    6.6308 H   0  0  0  0  0  0  0  0  0  0  0  0
   47.2044    0.9348    7.2003 H   0  0  0  0  0  0  0  0  0  0  0  0
   47.7118    2.0989    6.3526 H   0  0  0  0  0  0  0  0  0  0  0  0
  3  2  1  0
  4  2  2  0
  5  2  1  0
  7  6  1  0
  8  6  2  0
  9  6  1  0
  1 12  1  0
  1 13  1  0
  5 14  1  0
  5 15  1  0
  5 16  1  0
  9 17  1  0
  9 18  1  0
  9 19  1  0
 11 20  1  0
 11 21  1  0
M  CHG  3   3  -1   7  -1  10   2
M  END
> <Uni-Dock RESULT> 
ENERGY=   -5.865  LOWER_BOUND=    1.446  UPPER_BOUND=    2.500
INTER + INTRA:          -5.865
INTER:                  -5.865
INTRA:                   0.000
UNBOUND:                 0.000

$$$$

     RDKit          3D

 21 16  0  0  0  0  0  0  0  0999 V2000
   47.4277    2.0654    6.2973 O   0  0  0  0  0  0  0  0  0  0  0  0
   47.1347    2.9715    6.3459 C   0  0  0  0  0  0  0  0  0  0  0  0
   47.1955    3.0809    5.0899 O   0  0  0  0  0  0  0  0  0  0  0  0
   46.7524    3.8047    7.2145 O   0  0  0  0  0  0  0  0  0  0  0  0
   47.5901    1.6341    6.9033 C   0  0  0  0  0  0  0  0  0  0  0  0
   47.1420    2.9507    6.2950 C   0  0  0  0  0  0  0  0  0  0  0  0
   47.0300    2.8989    5.0382 O   0  0  0  0  0  0  0  0  0  0  0  0
   46.9437    3.9132    7.0871 O   0  0  0  0  0  0  0  0  0  0  0  0
   47.5835    1.6529    6.9490 C   0  0  0  0  0  0  0  0  0  0  0  0
   47.3974    2.1992    6.6707 Zn  0  0  0  0  0 15  0  0  0  0  0  0
   47.4279    2.0647    6.2975 O   0  0  0  0  0  0  0  0  0  0  0  0
   47.6040    1.5842    7.1197 H   0  0  0  0  0  0  0  0  0  0  0  0
   47.1606    2.9479    6.5951 H   0  0  0  0  0  0  0  0  0  0  0  0
   48.4321    1.7844    7.5855 H   0  0  0  0  0  0  0  0  0  0  0  0
   46.7689    1.1618    7.4507 H   0  0  0  0  0  0  0  0  0  0  0  0
   47.9084    0.9568    6.1049 H   0  0  0  0  0  0  0  0  0  0  0  0
   48.5615    1.3554    6.5589 H   0  0  0  0  0  0  0  0  0  0  0  0
   46.8587    0.8629    6.7313 H   0  0  0  0  0  0  0  0  0  0  0  0
   47.6625    1.7602    8.0351 H   0  0  0  0  0  0  0  0  0  0  0  0
   47.6038    1.5851    7.1209 H   0  0  0  0  0  0  0  0  0  0  0  0
   47.1606    2.9478    6.5935 H   0  0  0  0  0  0  0  0  0  0  0  0
  3  2  1  0
  4  2  2  0
  5  2  1  0
  7  6  1  0
  8  6  2  0
  9  6  1  0
  1 12  1  0
  1 13  1  0
  5 14  1  0
  5 15  1  0
  5 16  1  0
  9 17  1  0
  9 18  1  0
  9 19  1  0
 11 20  1  0
 11 21  1  0
M  CHG  3   3  -1   7  -1  10   2
M  END
> <Uni-Dock RESULT> 
ENERGY=   -5.613  LOWER_BOUND=    1.816  UPPER_BOUND=    2.401
INTER + INTRA:          -5.613
INTER:                  -5.613
INTRA:                   0.000
UNBOUND:                 0.000

$$$$

     RDKit          3D

 21 16  0  0  0  0  0  0  0  0999 V2000
   47.5481    2.8481    6.3162 O   0  0  0  0  0  0  0  0  0  0  0  0
   46.9230    2.7821    7.0332 C   0  0  0  0  0  0  0  0  0  0  0  0
   46.7039    4.0243    6.9847 O   0  0  0  0  0  0  0  0  0  0  0  0
   46.3971    1.8942    7.7612 O   0  0  0  0  0  0  0  0  0  0  0  0
   47.9806    2.2719    6.0700 C   0  0  0  0  0  0  0  0  0  0  0  0
   46.9288    2.8322    7.0102 C   0  0  0  0  0  0  0  0  0  0  0  0
   46.6214    4.0286    6.7473 O   0  0  0  0  0  0  0  0  0  0  0  0
   46.5004    2.0662    7.9172 O   0  0  0  0  0  0  0  0  0  0  0  0
   47.9753    2.2269    6.0908 C   0  0  0  0  0  0  0  0  0  0  0  0
   47.5340    2.4846    6.4773 Zn  0  0  0  0  0 15  0  0  0  0  0  0
   47.5486    2.8478    6.3157 O   0  0  0  0  0  0  0  0  0  0  0  0
   48.0528    2.0617    6.0596 H   0  0  0  0  0  0  0  0  0  0  0  0
   47.0011    2.5440    7.0560 H   0  0  0  0  0  0  0  0  0  0  0  0
   48.7952    1.8020    6.6291 H   0  0  0  0  0  0  0  0  0  0  0  0
   47.5405    1.5326    5.3941 H   0  0  0  0  0  0  0  0  0  0  0  0
   48.3979    3.0852    5.4685 H   0  0  0  0  0  0  0  0  0  0  0  0
   48.9003    2.8084    6.1486 H   0  0  0  0  0  0  0  0  0  0  0  0
   47.6126    2.2377    5.0587 H   0  0  0  0  0  0  0  0  0  0  0  0
   48.1993    1.1923    6.3679 H   0  0  0  0  0  0  0  0  0  0  0  0
   48.0525    2.0605    6.0605 H   0  0  0  0  0  0  0  0  0  0  0  0
   47.0009    2.5455    7.0557 H   0  0  0  0  0  0  0  0  0  0  0  0
  3  2  1  0
  4  2  2  0
  5  2  1  0
  7  6  1  0
  8  6  2  0
  9  6  1  0
  1 12  1  0
  1 13  1  0
  5 14  1  0
  5 15  1  0
  5 16  1  0
  9 17  1  0
  9 18  1  0
  9 19  1  0
 11 20  1  0
 11 21  1  0
M  CHG  3   3  -1   7  -1  10   2
M  END
> <Uni-Dock RESULT> 
ENERGY=   -5.288  LOWER_BOUND=    1.676  UPPER_BOUND=    2.278
INTER + INTRA:          -5.288
INTER:                  -5.288
INTRA:                   0.000
UNBOUND:                 0.000

$$$$

     RDKit          3D

 21 16  0  0  0  0  0  0  0  0999 V2000
   45.8938    3.4820    7.3660 O   0  0  0  0  0  0  0  0  0  0  0  0
   45.5627    4.0514    8.0555 C   0  0  0  0  0  0  0  0  0  0  0  0
   44.4455    3.4643    8.0331 O   0  0  0  0  0  0  0  0  0  0  0  0
   45.9741    4.9829    8.8025 O   0  0  0  0  0  0  0  0  0  0  0  0
   46.5708    3.5667    7.0280 C   0  0  0  0  0  0  0  0  0  0  0  0
   45.5286    4.0112    8.0383 C   0  0  0  0  0  0  0  0  0  0  0  0
   44.5330    3.2360    8.0913 O   0  0  0  0  0  0  0  0  0  0  0  0
   45.7667    5.0694    8.6837 O   0  0  0  0  0  0  0  0  0  0  0  0
   46.6013    3.6029    7.0435 C   0  0  0  0  0  0  0  0  0  0  0  0
   46.1473    3.7730    7.4624 Zn  0  0  0  0  0 15  0  0  0  0  0  0
   45.8943    3.4817    7.3654 O   0  0  0  0  0  0  0  0  0  0  0  0
   46.7724    3.6551    6.9957 H   0  0  0  0  0  0  0  0  0  0  0  0
   45.7758    4.1819    8.0256 H   0  0  0  0  0  0  0  0  0  0  0  0
   46.8560    4.3932    6.3704 H   0  0  0  0  0  0  0  0  0  0  0  0
   47.4646    3.1906    7.5347 H   0  0  0  0  0  0  0  0  0  0  0  0
   46.1575    2.7617    6.4127 H   0  0  0  0  0  0  0  0  0  0  0  0
   46.1775    3.5672    6.0354 H   0  0  0  0  0  0  0  0  0  0  0  0
   46.9885    2.6128    7.3016 H   0  0  0  0  0  0  0  0  0  0  0  0
   47.4354    4.3113    7.0432 H   0  0  0  0  0  0  0  0  0  0  0  0
   46.7730    3.6563    6.9963 H   0  0  0  0  0  0  0  0  0  0  0  0
   45.7745    4.1810    8.0255 H   0  0  0  0  0  0  0  0  0  0  0  0
  3  2  1  0
  4  2  2  0
  5  2  1  0
  7  6  1  0
  8  6  2  0
  9  6  1  0
  1 12  1  0
  1 13  1  0
  5 14  1  0
  5 15  1  0
  5 16  1  0
  9 17  1  0
  9 18  1  0
  9 19  1  0
 11 20  1  0
 11 21  1  0
M  CHG  3   3  -1   7  -1  10   2
M  END
> <Uni-Dock RESULT> 
ENERGY=   -4.851  LOWER_BOUND=    2.796  UPPER_BOUND=    3.243
INTER + INTRA:          -4.851
INTER:                  -4.851
INTRA:                   0.000
UNBOUND:                 0.000

$$$$

     RDKit          3D

 21 16  0  0  0  0  0  0  0  0999 V2000
   44.6458    2.9212    8.9897 O   0  0  0  0  0  0  0  0  0  0  0  0
   44.9536    3.5415    8.3342 C   0  0  0  0  0  0  0  0  0  0  0  0
   44.0330    4.3504    8.6366 O   0  0  0  0  0  0  0  0  0  0  0  0
   45.8973    3.6613    7.5035 O   0  0  0  0  0  0  0  0  0  0  0  0
   44.9268    2.2195    9.0814 C   0  0  0  0  0  0  0  0  0  0  0  0
   44.9110    3.5580    8.3656 C   0  0  0  0  0  0  0  0  0  0  0  0
   44.0998    4.3798    8.8771 O   0  0  0  0  0  0  0  0  0  0  0  0
   45.6805    3.6899    7.3739 O   0  0  0  0  0  0  0  0  0  0  0  0
   44.9650    2.2048    9.0531 C   0  0  0  0  0  0  0  0  0  0  0  0
   44.9403    2.7764    8.7649 Zn  0  0  0  0  0 15  0  0  0  0  0  0
   44.6458    2.9205    8.9901 O   0  0  0  0  0  0  0  0  0  0  0  0
   45.0659    2.0498    9.0452 H   0  0  0  0  0  0  0  0  0  0  0  0
   45.1093    3.3584    8.2597 H   0  0  0  0  0  0  0  0  0  0  0  0
   44.8253    1.3941    8.3705 H   0  0  0  0  0  0  0  0  0  0  0  0
   45.8570    2.0925    9.6433 H   0  0  0  0  0  0  0  0  0  0  0  0
   44.0893    2.1756    9.7844 H   0  0  0  0  0  0  0  0  0  0  0  0
   43.9784    1.7330    9.0207 H   0  0  0  0  0  0  0  0  0  0  0  0
   45.2643    2.3314   10.0978 H   0  0  0  0  0  0  0  0  0  0  0  0
   45.6833    1.5383    8.5659 H   0  0  0  0  0  0  0  0  0  0  0  0
   45.0670    2.0496    9.0441 H   0  0  0  0  0  0  0  0  0  0  0  0
   45.1082    3.3593    8.2603 H   0  0  0  0  0  0  0  0  0  0  0  0
  3  2  1  0
  4  2  2  0
  5  2  1  0
  7  6  1  0
  8  6  2  0
  9  6  1  0
  1 12  1  0
  1 13  1  0
  5 14  1  0
  5 15  1  0
  5 16  1  0
  9 17  1  0
  9 18  1  0
  9 19  1  0
 11 20  1  0
 11 21  1  0
M  CHG  3   3  -1   7  -1  10   2
M  END
> <Uni-Dock RESULT> 
ENERGY=   -4.575  LOWER_BOUND=    3.149  UPPER_BOUND=    3.809
INTER + INTRA:          -4.575
INTER:                  -4.575
INTRA:                   0.000
UNBOUND:                 0.000

$$$$
