
     RDKit          3D

 21 16  0  0  0  0  0  0  0  0999 V2000
   47.5010    1.1887    6.8879 O   0  0  0  0  0  0  0  0  0  0  0  0
   46.8497    1.1201    7.5400 C   0  0  0  0  0  0  0  0  0  0  0  0
   47.1285   -0.0978    7.7247 O   0  0  0  0  0  0  0  0  0  0  0  0
   45.8846    1.8056    7.9779 O   0  0  0  0  0  0  0  0  0  0  0  0
   47.8291    1.8705    6.6543 C   0  0  0  0  0  0  0  0  0  0  0  0
   46.8717    1.1129    7.5576 C   0  0  0  0  0  0  0  0  0  0  0  0
   46.3132    1.8041    8.4539 O   0  0  0  0  0  0  0  0  0  0  0  0
   46.7677   -0.1195    7.3015 O   0  0  0  0  0  0  0  0  0  0  0  0
   47.8147    1.8758    6.6434 C   0  0  0  0  0  0  0  0  0  0  0  0
   47.4174    1.5516    7.0277 Zn  0  0  0  0  0 15  0  0  0  0  0  0
   47.4966    1.1853    6.8943 O   0  0  0  0  0  0  0  0  0  0  0  0
   46.9851    1.4211    7.6746 H   0  0  0  0  0  0  0  0  0  0  0  0
   47.7662    2.0452    6.5205 H   0  0  0  0  0  0  0  0  0  0  0  0
   47.8667    1.4042    5.6654 H   0  0  0  0  0  0  0  0  0  0  0  0
   48.8282    1.8415    7.0993 H   0  0  0  0  0  0  0  0  0  0  0  0
   47.5350    2.9173    6.5322 H   0  0  0  0  0  0  0  0  0  0  0  0
   47.8626    2.9349    6.9141 H   0  0  0  0  0  0  0  0  0  0  0  0
   48.8219    1.4546    6.7152 H   0  0  0  0  0  0  0  0  0  0  0  0
   47.4701    1.7987    5.6078 H   0  0  0  0  0  0  0  0  0  0  0  0
   46.9839    1.4375    7.6770 H   0  0  0  0  0  0  0  0  0  0  0  0
   47.7716    2.0321    6.5117 H   0  0  0  0  0  0  0  0  0  0  0  0
  3  2  1  0
  4  2  2  0
  5  2  1  0
  7  6  1  0
  8  6  2  0
  9  6  1  0
  1 12  1  0
  1 13  1  0
  5 14  1  0
  5 15  1  0
  5 16  1  0
  9 17  1  0
  9 18  1  0
  9 19  1  0
 11 20  1  0
 11 21  1  0
M  CHG  3   3  -1   7  -1  10   2
M  END
> <Uni-Dock RESULT> 
ENERGY=   -5.921  LOWER_BOUND=    0.000  UPPER_BOUND=    0.000
INTER + INTRA:          -5.921
INTER:                  -5.921
INTRA:                   0.000
UNBOUND:                 0.000

$$$$

     RDKit          3D

 21 16  0  0  0  0  0  0  0  0999 V2000
   47.1638    3.1021    6.1980 O   0  0  0  0  0  0  0  0  0  0  0  0
   47.6548    2.3214    6.2573 C   0  0  0  0  0  0  0  0  0  0  0  0
   48.3130    2.6282    5.2241 O   0  0  0  0  0  0  0  0  0  0  0  0
   47.6191    1.2374    6.9028 O   0  0  0  0  0  0  0  0  0  0  0  0
   46.7722    3.4305    6.8029 C   0  0  0  0  0  0  0  0  0  0  0  0
   47.6777    2.3390    6.2597 C   0  0  0  0  0  0  0  0  0  0  0  0
   48.1390    1.5409    7.1217 O   0  0  0  0  0  0  0  0  0  0  0  0
   47.8631    2.3795    5.0110 O   0  0  0  0  0  0  0  0  0  0  0  0
   46.7575    3.4187    6.8021 C   0  0  0  0  0  0  0  0  0  0  0  0
   47.1454    2.9643    6.5707 Zn  0  0  0  0  0 15  0  0  0  0  0  0
   47.1699    3.0966    6.1964 O   0  0  0  0  0  0  0  0  0  0  0  0
   47.6971    2.4012    6.6021 H   0  0  0  0  0  0  0  0  0  0  0  0
   46.5752    3.3896    6.9120 H   0  0  0  0  0  0  0  0  0  0  0  0
   46.0431    3.7308    6.0445 H   0  0  0  0  0  0  0  0  0  0  0  0
   47.3864    4.2963    7.0680 H   0  0  0  0  0  0  0  0  0  0  0  0
   46.2290    3.1053    7.6953 H   0  0  0  0  0  0  0  0  0  0  0  0
   46.6362    3.3318    7.8861 H   0  0  0  0  0  0  0  0  0  0  0  0
   47.1725    4.4061    6.5786 H   0  0  0  0  0  0  0  0  0  0  0  0
   45.7713    3.3339    6.3358 H   0  0  0  0  0  0  0  0  0  0  0  0
   47.6931    2.3984    6.6181 H   0  0  0  0  0  0  0  0  0  0  0  0
   46.5730    3.3978    6.8977 H   0  0  0  0  0  0  0  0  0  0  0  0
  3  2  1  0
  4  2  2  0
  5  2  1  0
  7  6  1  0
  8  6  2  0
  9  6  1  0
  1 12  1  0
  1 13  1  0
  5 14  1  0
  5 15  1  0
  5 16  1  0
  9 17  1  0
  9 18  1  0
  9 19  1  0
 11 20  1  0
 11 21  1  0
M  CHG  3   3  -1   7  -1  10   2
M  END
> <Uni-Dock RESULT> 
ENERGY=   -5.848  LOWER_BOUND=    1.644  UPPER_BOUND=    2.391
INTER + INTRA:          -5.848
INTER:                  -5.848
INTRA:                   0.000
UNBOUND:                 0.000

$$$$

     RDKit          3D

 21 16  0  0  0  0  0  0  0  0999 V2000
   47.2277    2.7508    6.9765 O   0  0  0  0  0  0  0  0  0  0  0  0
   47.6913    2.3237    6.3007 C   0  0  0  0  0  0  0  0  0  0  0  0
   47.6912    1.2414    6.9517 O   0  0  0  0  0  0  0  0  0  0  0  0
   48.3119    2.6350    5.2467 O   0  0  0  0  0  0  0  0  0  0  0  0
   46.8074    3.4149    6.8793 C   0  0  0  0  0  0  0  0  0  0  0  0
   47.6681    2.3062    6.2995 C   0  0  0  0  0  0  0  0  0  0  0  0
   47.7927    2.3195    5.0436 O   0  0  0  0  0  0  0  0  0  0  0  0
   48.1396    1.5028    7.1524 O   0  0  0  0  0  0  0  0  0  0  0  0
   46.8223    3.4265    6.8793 C   0  0  0  0  0  0  0  0  0  0  0  0
   47.1795    2.9529    6.6373 Zn  0  0  0  0  0 15  0  0  0  0  0  0
   47.2310    2.7444    6.9722 O   0  0  0  0  0  0  0  0  0  0  0  0
   47.4553    2.4702    6.0774 H   0  0  0  0  0  0  0  0  0  0  0  0
   46.8556    3.6376    6.8579 H   0  0  0  0  0  0  0  0  0  0  0  0
   47.1363    3.6593    7.8937 H   0  0  0  0  0  0  0  0  0  0  0  0
   45.7695    3.0708    6.9154 H   0  0  0  0  0  0  0  0  0  0  0  0
   46.8492    4.3250    6.2734 H   0  0  0  0  0  0  0  0  0  0  0  0
   46.4432    4.0874    6.0940 H   0  0  0  0  0  0  0  0  0  0  0  0
   45.9686    3.0051    7.4187 H   0  0  0  0  0  0  0  0  0  0  0  0
   47.4222    4.0226    7.5735 H   0  0  0  0  0  0  0  0  0  0  0  0
   47.4517    2.4817    6.0659 H   0  0  0  0  0  0  0  0  0  0  0  0
   46.8560    3.6325    6.8738 H   0  0  0  0  0  0  0  0  0  0  0  0
  3  2  1  0
  4  2  2  0
  5  2  1  0
  7  6  1  0
  8  6  2  0
  9  6  1  0
  1 12  1  0
  1 13  1  0
  5 14  1  0
  5 15  1  0
  5 16  1  0
  9 17  1  0
  9 18  1  0
  9 19  1  0
 11 20  1  0
 11 21  1  0
M  CHG  3   3  -1   7  -1  10   2
M  END
> <Uni-Dock RESULT> 
ENERGY=   -5.783  LOWER_BOUND=    1.525  UPPER_BOUND=    2.273
INTER + INTRA:          -5.783
INTER:                  -5.783
INTRA:                   0.000
UNBOUND:                 0.000

$$$$

     RDKit          3D

 21 16  0  0  0  0  0  0  0  0999 V2000
   46.3764    4.0345    7.6192 O   0  0  0  0  0  0  0  0  0  0  0  0
   45.5687    3.9297    8.0560 C   0  0  0  0  0  0  0  0  0  0  0  0
   45.6400    5.1020    8.5203 O   0  0  0  0  0  0  0  0  0  0  0  0
   44.7669    2.9955    8.3344 O   0  0  0  0  0  0  0  0  0  0  0  0
   46.6098    3.5981    7.0009 C   0  0  0  0  0  0  0  0  0  0  0  0
   45.5600    3.9521    8.0397 C   0  0  0  0  0  0  0  0  0  0  0  0
   44.4525    3.3604    7.9121 O   0  0  0  0  0  0  0  0  0  0  0  0
   45.9289    4.8068    8.8933 O   0  0  0  0  0  0  0  0  0  0  0  0
   46.6149    3.5831    7.0112 C   0  0  0  0  0  0  0  0  0  0  0  0
   46.1717    3.7405    7.4463 Zn  0  0  0  0  0 15  0  0  0  0  0  0
   46.3695    4.0367    7.6235 O   0  0  0  0  0  0  0  0  0  0  0  0
   45.4450    3.8000    7.7479 H   0  0  0  0  0  0  0  0  0  0  0  0
   46.6935    3.3871    6.9717 H   0  0  0  0  0  0  0  0  0  0  0  0
   47.6131    3.7075    7.4233 H   0  0  0  0  0  0  0  0  0  0  0  0
   46.5058    4.2790    6.1509 H   0  0  0  0  0  0  0  0  0  0  0  0
   46.4971    2.5720    6.6382 H   0  0  0  0  0  0  0  0  0  0  0  0
   46.2373    2.8411    6.3012 H   0  0  0  0  0  0  0  0  0  0  0  0
   46.9156    4.4745    6.4526 H   0  0  0  0  0  0  0  0  0  0  0  0
   47.4925    3.1657    7.5138 H   0  0  0  0  0  0  0  0  0  0  0  0
   45.4403    3.7869    7.7387 H   0  0  0  0  0  0  0  0  0  0  0  0
   46.7052    3.3980    6.9767 H   0  0  0  0  0  0  0  0  0  0  0  0
  3  2  1  0
  4  2  2  0
  5  2  1  0
  7  6  1  0
  8  6  2  0
  9  6  1  0
  1 12  1  0
  1 13  1  0
  5 14  1  0
  5 15  1  0
  5 16  1  0
  9 17  1  0
  9 18  1  0
  9 19  1  0
 11 20  1  0
 11 21  1  0
M  CHG  3   3  -1   7  -1  10   2
M  END
> <Uni-Dock RESULT> 
ENERGY=   -4.845  LOWER_BOUND=    2.782  UPPER_BOUND=    3.325
INTER + INTRA:          -4.845
INTER:                  -4.845
INTRA:                   0.000
UNBOUND:                 0.000

$$$$

     RDKit          3D

 21 16  0  0  0  0  0  0  0  0999 V2000
   45.6789    3.8549    7.6766 O   0  0  0  0  0  0  0  0  0  0  0  0
   45.2075    3.3548    8.2946 C   0  0  0  0  0  0  0  0  0  0  0  0
   44.2302    4.1521    8.2304 O   0  0  0  0  0  0  0  0  0  0  0  0
   45.4266    2.4047    9.0960 O   0  0  0  0  0  0  0  0  0  0  0  0
   46.2812    3.5776    7.2436 C   0  0  0  0  0  0  0  0  0  0  0  0
   45.1879    3.3518    8.2733 C   0  0  0  0  0  0  0  0  0  0  0  0
   45.0393    2.1565    8.6503 O   0  0  0  0  0  0  0  0  0  0  0  0
   44.5573    4.3927    8.6109 O   0  0  0  0  0  0  0  0  0  0  0  0
   46.2940    3.5787    7.2575 C   0  0  0  0  0  0  0  0  0  0  0  0
   45.8268    3.4857    7.6860 Zn  0  0  0  0  0 15  0  0  0  0  0  0
   45.6723    3.8523    7.6811 O   0  0  0  0  0  0  0  0  0  0  0  0
   45.2992    3.0704    8.1003 H   0  0  0  0  0  0  0  0  0  0  0  0
   46.5024    3.5319    7.2810 H   0  0  0  0  0  0  0  0  0  0  0  0
   46.6928    4.5865    7.3426 H   0  0  0  0  0  0  0  0  0  0  0  0
   45.8503    3.4659    6.2442 H   0  0  0  0  0  0  0  0  0  0  0  0
   47.0989    2.8584    7.3503 H   0  0  0  0  0  0  0  0  0  0  0  0
   46.8021    2.6430    7.0054 H   0  0  0  0  0  0  0  0  0  0  0  0
   45.8736    4.0020    6.3403 H   0  0  0  0  0  0  0  0  0  0  0  0
   47.0334    4.2752    7.6640 H   0  0  0  0  0  0  0  0  0  0  0  0
   45.3086    3.0568    8.0983 H   0  0  0  0  0  0  0  0  0  0  0  0
   46.4995    3.5481    7.2785 H   0  0  0  0  0  0  0  0  0  0  0  0
  3  2  1  0
  4  2  2  0
  5  2  1  0
  7  6  1  0
  8  6  2  0
  9  6  1  0
  1 12  1  0
  1 13  1  0
  5 14  1  0
  5 15  1  0
  5 16  1  0
  9 17  1  0
  9 18  1  0
  9 19  1  0
 11 20  1  0
 11 21  1  0
M  CHG  3   3  -1   7  -1  10   2
M  END
> <Uni-Dock RESULT> 
ENERGY=   -4.732  LOWER_BOUND=    2.597  UPPER_BOUND=    3.219
INTER + INTRA:          -4.732
INTER:                  -4.732
INTRA:                   0.000
UNBOUND:                 0.000

$$$$

     RDKit          3D

 21 16  0  0  0  0  0  0  0  0999 V2000
   44.6368    2.9294    8.9512 O   0  0  0  0  0  0  0  0  0  0  0  0
   44.9743    3.5165    8.3223 C   0  0  0  0  0  0  0  0  0  0  0  0
   44.4229    4.4933    8.9026 O   0  0  0  0  0  0  0  0  0  0  0  0
   45.5503    3.4607    7.2006 O   0  0  0  0  0  0  0  0  0  0  0  0
   44.9359    2.2109    9.0974 C   0  0  0  0  0  0  0  0  0  0  0  0
   44.9876    3.5290    8.3449 C   0  0  0  0  0  0  0  0  0  0  0  0
   45.9951    3.6878    7.6016 O   0  0  0  0  0  0  0  0  0  0  0  0
   44.0171    4.3049    8.5717 O   0  0  0  0  0  0  0  0  0  0  0  0
   44.9280    2.2026    9.0823 C   0  0  0  0  0  0  0  0  0  0  0  0
   44.9507    2.7629    8.7724 Zn  0  0  0  0  0 15  0  0  0  0  0  0
   44.6388    2.9368    8.9477 O   0  0  0  0  0  0  0  0  0  0  0  0
   45.2873    3.3530    8.3711 H   0  0  0  0  0  0  0  0  0  0  0  0
   44.9281    2.0063    8.9949 H   0  0  0  0  0  0  0  0  0  0  0  0
   43.8974    1.9201    9.2821 H   0  0  0  0  0  0  0  0  0  0  0  0
   45.4465    2.3345   10.0570 H   0  0  0  0  0  0  0  0  0  0  0  0
   45.4278    1.4046    8.5450 H   0  0  0  0  0  0  0  0  0  0  0  0
   45.7932    1.5758    8.8461 H   0  0  0  0  0  0  0  0  0  0  0  0
   44.9134    2.3792   10.1620 H   0  0  0  0  0  0  0  0  0  0  0  0
   44.0207    1.6611    8.7984 H   0  0  0  0  0  0  0  0  0  0  0  0
   45.2989    3.3424    8.3657 H   0  0  0  0  0  0  0  0  0  0  0  0
   44.9144    2.0095    9.0039 H   0  0  0  0  0  0  0  0  0  0  0  0
  3  2  1  0
  4  2  2  0
  5  2  1  0
  7  6  1  0
  8  6  2  0
  9  6  1  0
  1 12  1  0
  1 13  1  0
  5 14  1  0
  5 15  1  0
  5 16  1  0
  9 17  1  0
  9 18  1  0
  9 19  1  0
 11 20  1  0
 11 21  1  0
M  CHG  3   3  -1   7  -1  10   2
M  END
> <Uni-Dock RESULT> 
ENERGY=   -4.490  LOWER_BOUND=    3.132  UPPER_BOUND=    3.773
INTER + INTRA:          -4.490
INTER:                  -4.490
INTRA:                   0.000
UNBOUND:                 0.000

$$$$

     RDKit          3D

 21 16  0  0  0  0  0  0  0  0999 V2000
   42.8728    4.8011   11.4655 O   0  0  0  0  0  0  0  0  0  0  0  0
   42.8053    5.3491   12.2066 C   0  0  0  0  0  0  0  0  0  0  0  0
   41.8879    6.0206   11.6566 O   0  0  0  0  0  0  0  0  0  0  0  0
   43.4496    5.5752   13.2681 O   0  0  0  0  0  0  0  0  0  0  0  0
   43.1882    4.0747   11.4743 C   0  0  0  0  0  0  0  0  0  0  0  0
   42.7779    5.3396   12.2079 C   0  0  0  0  0  0  0  0  0  0  0  0
   42.9043    5.3015   13.4631 O   0  0  0  0  0  0  0  0  0  0  0  0
   42.3489    6.2659   11.4640 O   0  0  0  0  0  0  0  0  0  0  0  0
   43.2062    4.0806   11.4742 C   0  0  0  0  0  0  0  0  0  0  0  0
   43.0248    4.6129   11.7813 Zn  0  0  0  0  0 15  0  0  0  0  0  0
   42.8695    4.8069   11.4706 O   0  0  0  0  0  0  0  0  0  0  0  0
   42.8016    5.0494   12.3994 H   0  0  0  0  0  0  0  0  0  0  0  0
   43.4001    3.9882   11.4789 H   0  0  0  0  0  0  0  0  0  0  0  0
   43.5385    4.3174   10.4666 H   0  0  0  0  0  0  0  0  0  0  0  0
   42.3187    3.4150   11.3991 H   0  0  0  0  0  0  0  0  0  0  0  0
   43.9853    3.5382   11.9978 H   0  0  0  0  0  0  0  0  0  0  0  0
   43.5671    3.3170   12.1698 H   0  0  0  0  0  0  0  0  0  0  0  0
   42.3584    3.6691   10.9183 H   0  0  0  0  0  0  0  0  0  0  0  0
   44.0110    4.3167   10.7716 H   0  0  0  0  0  0  0  0  0  0  0  0
   42.8094    5.0387   12.4096 H   0  0  0  0  0  0  0  0  0  0  0  0
   43.3955    3.9931   11.4636 H   0  0  0  0  0  0  0  0  0  0  0  0
  3  2  1  0
  4  2  2  0
  5  2  1  0
  7  6  1  0
  8  6  2  0
  9  6  1  0
  1 12  1  0
  1 13  1  0
  5 14  1  0
  5 15  1  0
  5 16  1  0
  9 17  1  0
  9 18  1  0
  9 19  1  0
 11 20  1  0
 11 21  1  0
M  CHG  3   3  -1   7  -1  10   2
M  END
> <Uni-Dock RESULT> 
ENERGY=   -4.418  LOWER_BOUND=    6.802  UPPER_BOUND=    7.559
INTER + INTRA:          -4.418
INTER:                  -4.418
INTRA:                   0.000
UNBOUND:                 0.000

$$$$

     RDKit          3D

 21 16  0  0  0  0  0  0  0  0999 V2000
   42.7607    5.3033   12.5992 O   0  0  0  0  0  0  0  0  0  0  0  0
   42.8063    5.4146   11.6829 C   0  0  0  0  0  0  0  0  0  0  0  0
   42.1162    6.4701   11.7525 O   0  0  0  0  0  0  0  0  0  0  0  0
   43.1690    4.7489   10.6738 O   0  0  0  0  0  0  0  0  0  0  0  0
   43.2683    4.8664   13.0219 C   0  0  0  0  0  0  0  0  0  0  0  0
   42.8193    5.4398   11.6893 C   0  0  0  0  0  0  0  0  0  0  0  0
   43.5966    5.2238   10.7186 O   0  0  0  0  0  0  0  0  0  0  0  0
   41.7271    6.0730   11.7278 O   0  0  0  0  0  0  0  0  0  0  0  0
   43.2605    4.8498   13.0174 C   0  0  0  0  0  0  0  0  0  0  0  0
   43.0721    5.0997   12.4583 Zn  0  0  0  0  0 15  0  0  0  0  0  0
   42.7600    5.3072   12.5918 O   0  0  0  0  0  0  0  0  0  0  0  0
   43.1558    5.3531   11.7158 H   0  0  0  0  0  0  0  0  0  0  0  0
   43.2998    4.6429   13.0599 H   0  0  0  0  0  0  0  0  0  0  0  0
   42.4005    4.6329   13.6460 H   0  0  0  0  0  0  0  0  0  0  0  0
   43.8847    5.6110   13.5344 H   0  0  0  0  0  0  0  0  0  0  0  0
   43.8598    3.9544   12.8968 H   0  0  0  0  0  0  0  0  0  0  0  0
   44.2103    4.3151   12.9204 H   0  0  0  0  0  0  0  0  0  0  0  0
   43.3871    5.6488   13.7541 H   0  0  0  0  0  0  0  0  0  0  0  0
   42.5039    4.1479   13.3808 H   0  0  0  0  0  0  0  0  0  0  0  0
   43.1689    5.3428   11.7140 H   0  0  0  0  0  0  0  0  0  0  0  0
   43.2875    4.6493   13.0692 H   0  0  0  0  0  0  0  0  0  0  0  0
  3  2  1  0
  4  2  2  0
  5  2  1  0
  7  6  1  0
  8  6  2  0
  9  6  1  0
  1 12  1  0
  1 13  1  0
  5 14  1  0
  5 15  1  0
  5 16  1  0
  9 17  1  0
  9 18  1  0
  9 19  1  0
 11 20  1  0
 11 21  1  0
M  CHG  3   3  -1   7  -1  10   2
M  END
> <Uni-Dock RESULT> 
ENERGY=   -4.246  LOWER_BOUND=    6.910  UPPER_BOUND=    7.775
INTER + INTRA:          -4.246
INTER:                  -4.246
INTRA:                   0.000
UNBOUND:                 0.000

$$$$

     RDKit          3D

 21 16  0  0  0  0  0  0  0  0999 V2000
   44.7839    3.9243    8.6047 O   0  0  0  0  0  0  0  0  0  0  0  0
   45.1502    3.0867    8.4697 C   0  0  0  0  0  0  0  0  0  0  0  0
   45.8565    3.5223    7.5177 O   0  0  0  0  0  0  0  0  0  0  0  0
   44.9449    1.9006    8.8493 O   0  0  0  0  0  0  0  0  0  0  0  0
   44.4413    4.1587    9.2792 C   0  0  0  0  0  0  0  0  0  0  0  0
   45.1756    3.0997    8.4755 C   0  0  0  0  0  0  0  0  0  0  0  0
   45.5028    2.0639    9.1181 O   0  0  0  0  0  0  0  0  0  0  0  0
   45.3760    3.3999    7.2651 O   0  0  0  0  0  0  0  0  0  0  0  0
   44.4250    4.1497    9.2761 C   0  0  0  0  0  0  0  0  0  0  0  0
   44.7415    3.7084    8.9361 Zn  0  0  0  0  0 15  0  0  0  0  0  0
   44.7892    3.9185    8.6017 O   0  0  0  0  0  0  0  0  0  0  0  0
   45.2011    3.0773    8.8224 H   0  0  0  0  0  0  0  0  0  0  0  0
   44.2394    4.1235    9.3812 H   0  0  0  0  0  0  0  0  0  0  0  0
   43.7729    4.7319    8.6298 H   0  0  0  0  0  0  0  0  0  0  0  0
   45.1773    4.8377    9.7199 H   0  0  0  0  0  0  0  0  0  0  0  0
   43.8473    3.7208   10.0870 H   0  0  0  0  0  0  0  0  0  0  0  0
   44.2824    3.8334   10.3138 H   0  0  0  0  0  0  0  0  0  0  0  0
   44.9870    5.0884    9.2748 H   0  0  0  0  0  0  0  0  0  0  0  0
   43.4415    4.3236    8.8292 H   0  0  0  0  0  0  0  0  0  0  0  0
   45.1966    3.0715    8.8374 H   0  0  0  0  0  0  0  0  0  0  0  0
   44.2386    4.1351    9.3691 H   0  0  0  0  0  0  0  0  0  0  0  0
  3  2  1  0
  4  2  2  0
  5  2  1  0
  7  6  1  0
  8  6  2  0
  9  6  1  0
  1 12  1  0
  1 13  1  0
  5 14  1  0
  5 15  1  0
  5 16  1  0
  9 17  1  0
  9 18  1  0
  9 19  1  0
 11 20  1  0
 11 21  1  0
M  CHG  3   3  -1   7  -1  10   2
M  END
> <Uni-Dock RESULT> 
ENERGY=   -4.170  LOWER_BOUND=    2.909  UPPER_BOUND=    3.635
INTER + INTRA:          -4.170
INTER:                  -4.170
INTRA:                   0.000
UNBOUND:                 0.000

$$$$
