
     RDKit          3D

 21 16  0  0  0  0  0  0  0  0999 V2000
   47.2111    3.1781    6.2586 O   0  0  0  0  0  0  0  0  0  0  0  0
   47.7530    2.3867    6.3231 C   0  0  0  0  0  0  0  0  0  0  0  0
   48.1867    2.5535    5.1495 O   0  0  0  0  0  0  0  0  0  0  0  0
   48.0600    1.5154    7.1844 O   0  0  0  0  0  0  0  0  0  0  0  0
   46.7001    3.3842    6.7736 C   0  0  0  0  0  0  0  0  0  0  0  0
   47.5926    2.3271    6.1778 C   0  0  0  0  0  0  0  0  0  0  0  0
   47.8038    1.2983    6.8792 O   0  0  0  0  0  0  0  0  0  0  0  0
   47.9265    2.5781    4.9867 O   0  0  0  0  0  0  0  0  0  0  0  0
   46.8173    3.4283    6.8799 C   0  0  0  0  0  0  0  0  0  0  0  0
   47.1442    2.9622    6.5860 Zn  0  0  0  0  0 15  0  0  0  0  0  0
   47.2091    3.1807    6.2599 O   0  0  0  0  0  0  0  0  0  0  0  0
   46.6744    3.4144    7.0300 H   0  0  0  0  0  0  0  0  0  0  0  0
   47.5472    2.2940    6.4693 H   0  0  0  0  0  0  0  0  0  0  0  0
   45.7786    2.8569    7.0374 H   0  0  0  0  0  0  0  0  0  0  0  0
   47.0598    3.9320    7.6498 H   0  0  0  0  0  0  0  0  0  0  0  0
   46.4714    4.1065    5.9840 H   0  0  0  0  0  0  0  0  0  0  0  0
   47.3620    3.7551    7.7708 H   0  0  0  0  0  0  0  0  0  0  0  0
   46.6730    4.2937    6.2260 H   0  0  0  0  0  0  0  0  0  0  0  0
   45.8341    3.0548    7.1814 H   0  0  0  0  0  0  0  0  0  0  0  0
   46.6742    3.4094    7.0349 H   0  0  0  0  0  0  0  0  0  0  0  0
   47.5493    2.2964    6.4631 H   0  0  0  0  0  0  0  0  0  0  0  0
  3  2  1  0
  4  2  2  0
  5  2  1  0
  7  6  1  0
  8  6  2  0
  9  6  1  0
  1 12  1  0
  1 13  1  0
  5 14  1  0
  5 15  1  0
  5 16  1  0
  9 17  1  0
  9 18  1  0
  9 19  1  0
 11 20  1  0
 11 21  1  0
M  CHG  3   3  -1   7  -1  10   2
M  END
> <Uni-Dock RESULT> 
ENERGY=   -5.991  LOWER_BOUND=    0.000  UPPER_BOUND=    0.000
INTER + INTRA:          -5.991
INTER:                  -5.991
INTRA:                   0.000
UNBOUND:                 0.000

$$$$

     RDKit          3D

 21 16  0  0  0  0  0  0  0  0999 V2000
   47.6000    1.6987    6.3882 O   0  0  0  0  0  0  0  0  0  0  0  0
   47.3261    2.5710    6.0909 C   0  0  0  0  0  0  0  0  0  0  0  0
   48.0224    2.4639    5.0436 O   0  0  0  0  0  0  0  0  0  0  0  0
   46.5423    3.4930    6.4523 O   0  0  0  0  0  0  0  0  0  0  0  0
   47.4457    1.4163    7.0702 C   0  0  0  0  0  0  0  0  0  0  0  0
   47.5421    2.6007    6.1445 C   0  0  0  0  0  0  0  0  0  0  0  0
   46.9601    3.6597    6.5117 O   0  0  0  0  0  0  0  0  0  0  0  0
   48.3000    2.3937    5.1567 O   0  0  0  0  0  0  0  0  0  0  0  0
   47.2877    1.3941    7.0311 C   0  0  0  0  0  0  0  0  0  0  0  0
   47.3934    1.9046    6.6587 Zn  0  0  0  0  0 15  0  0  0  0  0  0
   47.5998    1.6958    6.3902 O   0  0  0  0  0  0  0  0  0  0  0  0
   47.2474    1.3857    7.2347 H   0  0  0  0  0  0  0  0  0  0  0  0
   47.3330    2.6295    6.3533 H   0  0  0  0  0  0  0  0  0  0  0  0
   47.8080    1.7843    8.0348 H   0  0  0  0  0  0  0  0  0  0  0  0
   46.4668    0.9488    7.2129 H   0  0  0  0  0  0  0  0  0  0  0  0
   48.1427    0.6553    6.7064 H   0  0  0  0  0  0  0  0  0  0  0  0
   46.2161    1.1757    7.0616 H   0  0  0  0  0  0  0  0  0  0  0  0
   47.8107    0.5080    6.6585 H   0  0  0  0  0  0  0  0  0  0  0  0
   47.6376    1.6005    8.0470 H   0  0  0  0  0  0  0  0  0  0  0  0
   47.2440    1.3906    7.2383 H   0  0  0  0  0  0  0  0  0  0  0  0
   47.3366    2.6275    6.3477 H   0  0  0  0  0  0  0  0  0  0  0  0
  3  2  1  0
  4  2  2  0
  5  2  1  0
  7  6  1  0
  8  6  2  0
  9  6  1  0
  1 12  1  0
  1 13  1  0
  5 14  1  0
  5 15  1  0
  5 16  1  0
  9 17  1  0
  9 18  1  0
  9 19  1  0
 11 20  1  0
 11 21  1  0
M  CHG  3   3  -1   7  -1  10   2
M  END
> <Uni-Dock RESULT> 
ENERGY=   -5.937  LOWER_BOUND=    0.775  UPPER_BOUND=    1.612
INTER + INTRA:          -5.937
INTER:                  -5.937
INTRA:                   0.000
UNBOUND:                 0.000

$$$$

     RDKit          3D

 21 16  0  0  0  0  0  0  0  0999 V2000
   47.1533    2.7281    6.9389 O   0  0  0  0  0  0  0  0  0  0  0  0
   47.6335    2.2971    6.2262 C   0  0  0  0  0  0  0  0  0  0  0  0
   47.9141    1.3166    6.9699 O   0  0  0  0  0  0  0  0  0  0  0  0
   47.8781    2.4811    5.0009 O   0  0  0  0  0  0  0  0  0  0  0  0
   46.8870    3.4328    6.9042 C   0  0  0  0  0  0  0  0  0  0  0  0
   47.7964    2.3584    6.3679 C   0  0  0  0  0  0  0  0  0  0  0  0
   48.2746    2.5407    5.2133 O   0  0  0  0  0  0  0  0  0  0  0  0
   48.0430    1.4542    7.2133 O   0  0  0  0  0  0  0  0  0  0  0  0
   46.7674    3.3881    6.8008 C   0  0  0  0  0  0  0  0  0  0  0  0
   47.2018    2.9550    6.6158 Zn  0  0  0  0  0 15  0  0  0  0  0  0
   47.1511    2.7305    6.9403 O   0  0  0  0  0  0  0  0  0  0  0  0
   46.7501    3.5882    6.7479 H   0  0  0  0  0  0  0  0  0  0  0  0
   47.7020    2.5487    6.1606 H   0  0  0  0  0  0  0  0  0  0  0  0
   47.4693    4.3560    6.8295 H   0  0  0  0  0  0  0  0  0  0  0  0
   45.9189    3.5826    6.4169 H   0  0  0  0  0  0  0  0  0  0  0  0
   46.7119    3.2190    7.9629 H   0  0  0  0  0  0  0  0  0  0  0  0
   45.9252    3.3870    6.1023 H   0  0  0  0  0  0  0  0  0  0  0  0
   46.3853    3.1730    7.8034 H   0  0  0  0  0  0  0  0  0  0  0  0
   47.2207    4.3838    6.8097 H   0  0  0  0  0  0  0  0  0  0  0  0
   46.7521    3.5908    6.7417 H   0  0  0  0  0  0  0  0  0  0  0  0
   47.7023    2.5437    6.1654 H   0  0  0  0  0  0  0  0  0  0  0  0
  3  2  1  0
  4  2  2  0
  5  2  1  0
  7  6  1  0
  8  6  2  0
  9  6  1  0
  1 12  1  0
  1 13  1  0
  5 14  1  0
  5 15  1  0
  5 16  1  0
  9 17  1  0
  9 18  1  0
  9 19  1  0
 11 20  1  0
 11 21  1  0
M  CHG  3   3  -1   7  -1  10   2
M  END
> <Uni-Dock RESULT> 
ENERGY=   -5.908  LOWER_BOUND=    0.358  UPPER_BOUND=    1.444
INTER + INTRA:          -5.908
INTER:                  -5.908
INTRA:                   0.000
UNBOUND:                 0.000

$$$$

     RDKit          3D

 21 16  0  0  0  0  0  0  0  0999 V2000
   47.1718    1.7602    7.2279 O   0  0  0  0  0  0  0  0  0  0  0  0
   46.7531    0.9494    7.5305 C   0  0  0  0  0  0  0  0  0  0  0  0
   45.9959    1.5962    8.3061 O   0  0  0  0  0  0  0  0  0  0  0  0
   46.7883   -0.2874    7.2772 O   0  0  0  0  0  0  0  0  0  0  0  0
   47.7817    1.7817    6.7850 C   0  0  0  0  0  0  0  0  0  0  0  0
   46.8721    1.0153    7.7091 C   0  0  0  0  0  0  0  0  0  0  0  0
   46.9705   -0.2437    7.6905 O   0  0  0  0  0  0  0  0  0  0  0  0
   46.1967    1.7639    8.4684 O   0  0  0  0  0  0  0  0  0  0  0  0
   47.6948    1.7340    6.6540 C   0  0  0  0  0  0  0  0  0  0  0  0
   47.3487    1.4284    7.0982 Zn  0  0  0  0  0 15  0  0  0  0  0  0
   47.1738    1.7622    7.2258 O   0  0  0  0  0  0  0  0  0  0  0  0
   47.8745    1.6784    6.5658 H   0  0  0  0  0  0  0  0  0  0  0  0
   46.9998    0.8465    7.5010 H   0  0  0  0  0  0  0  0  0  0  0  0
   48.7893    1.4335    7.0311 H   0  0  0  0  0  0  0  0  0  0  0  0
   47.6254    1.6846    5.7064 H   0  0  0  0  0  0  0  0  0  0  0  0
   47.7070    2.8404    7.0514 H   0  0  0  0  0  0  0  0  0  0  0  0
   47.3885    1.4042    5.6568 H   0  0  0  0  0  0  0  0  0  0  0  0
   47.5624    2.8185    6.7154 H   0  0  0  0  0  0  0  0  0  0  0  0
   48.7560    1.5066    6.7933 H   0  0  0  0  0  0  0  0  0  0  0  0
   47.8764    1.6718    6.5647 H   0  0  0  0  0  0  0  0  0  0  0  0
   46.9959    0.8512    7.5042 H   0  0  0  0  0  0  0  0  0  0  0  0
  3  2  1  0
  4  2  2  0
  5  2  1  0
  7  6  1  0
  8  6  2  0
  9  6  1  0
  1 12  1  0
  1 13  1  0
  5 14  1  0
  5 15  1  0
  5 16  1  0
  9 17  1  0
  9 18  1  0
  9 19  1  0
 11 20  1  0
 11 21  1  0
M  CHG  3   3  -1   7  -1  10   2
M  END
> <Uni-Dock RESULT> 
ENERGY=   -5.783  LOWER_BOUND=    1.713  UPPER_BOUND=    2.434
INTER + INTRA:          -5.783
INTER:                  -5.783
INTRA:                   0.000
UNBOUND:                 0.000

$$$$

     RDKit          3D

 21 16  0  0  0  0  0  0  0  0999 V2000
   46.3824    4.0881    7.5148 O   0  0  0  0  0  0  0  0  0  0  0  0
   45.5300    4.0280    7.9555 C   0  0  0  0  0  0  0  0  0  0  0  0
   45.7623    5.0815    8.6107 O   0  0  0  0  0  0  0  0  0  0  0  0
   44.4934    3.3073    7.9204 O   0  0  0  0  0  0  0  0  0  0  0  0
   46.6688    3.5491    7.0720 C   0  0  0  0  0  0  0  0  0  0  0  0
   45.6758    3.9803    8.1194 C   0  0  0  0  0  0  0  0  0  0  0  0
   44.6902    3.2162    8.3190 O   0  0  0  0  0  0  0  0  0  0  0  0
   46.0344    5.0189    8.7405 O   0  0  0  0  0  0  0  0  0  0  0  0
   46.5625    3.5841    6.9517 C   0  0  0  0  0  0  0  0  0  0  0  0
   46.1868    3.7491    7.4438 Zn  0  0  0  0  0 15  0  0  0  0  0  0
   46.3847    4.0873    7.5124 O   0  0  0  0  0  0  0  0  0  0  0  0
   46.6021    3.3957    6.8736 H   0  0  0  0  0  0  0  0  0  0  0  0
   45.5761    3.7633    7.9431 H   0  0  0  0  0  0  0  0  0  0  0  0
   46.9703    2.5405    7.3700 H   0  0  0  0  0  0  0  0  0  0  0  0
   46.3439    3.5291    6.0274 H   0  0  0  0  0  0  0  0  0  0  0  0
   47.5390    4.2078    7.1510 H   0  0  0  0  0  0  0  0  0  0  0  0
   45.9758    3.5714    6.0283 H   0  0  0  0  0  0  0  0  0  0  0  0
   47.3920    4.2863    6.8246 H   0  0  0  0  0  0  0  0  0  0  0  0
   46.9772    2.5862    7.1233 H   0  0  0  0  0  0  0  0  0  0  0  0
   46.5976    3.3904    6.8737 H   0  0  0  0  0  0  0  0  0  0  0  0
   45.5782    3.7694    7.9455 H   0  0  0  0  0  0  0  0  0  0  0  0
  3  2  1  0
  4  2  2  0
  5  2  1  0
  7  6  1  0
  8  6  2  0
  9  6  1  0
  1 12  1  0
  1 13  1  0
  5 14  1  0
  5 15  1  0
  5 16  1  0
  9 17  1  0
  9 18  1  0
  9 19  1  0
 11 20  1  0
 11 21  1  0
M  CHG  3   3  -1   7  -1  10   2
M  END
> <Uni-Dock RESULT> 
ENERGY=   -4.928  LOWER_BOUND=    2.292  UPPER_BOUND=    3.147
INTER + INTRA:          -4.928
INTER:                  -4.928
INTRA:                   0.000
UNBOUND:                 0.000

$$$$

     RDKit          3D

 21 16  0  0  0  0  0  0  0  0999 V2000
   45.6619    3.8005    7.5653 O   0  0  0  0  0  0  0  0  0  0  0  0
   45.2091    3.2163    8.1801 C   0  0  0  0  0  0  0  0  0  0  0  0
   44.2789    4.0550    8.3364 O   0  0  0  0  0  0  0  0  0  0  0  0
   45.3355    2.0497    8.6471 O   0  0  0  0  0  0  0  0  0  0  0  0
   46.3549    3.6758    7.2954 C   0  0  0  0  0  0  0  0  0  0  0  0
   45.2830    3.3822    8.3121 C   0  0  0  0  0  0  0  0  0  0  0  0
   45.4188    2.3286    8.9952 O   0  0  0  0  0  0  0  0  0  0  0  0
   44.4332    4.3098    8.4141 O   0  0  0  0  0  0  0  0  0  0  0  0
   46.3011    3.5547    7.1984 C   0  0  0  0  0  0  0  0  0  0  0  0
   45.8728    3.4796    7.6690 Zn  0  0  0  0  0 15  0  0  0  0  0  0
   45.6643    3.8013    7.5629 O   0  0  0  0  0  0  0  0  0  0  0  0
   46.4975    3.4879    7.1872 H   0  0  0  0  0  0  0  0  0  0  0  0
   45.4590    3.1502    8.2544 H   0  0  0  0  0  0  0  0  0  0  0  0
   47.2909    3.6578    7.8618 H   0  0  0  0  0  0  0  0  0  0  0  0
   46.4480    3.0084    6.4334 H   0  0  0  0  0  0  0  0  0  0  0  0
   46.1922    4.6938    6.9287 H   0  0  0  0  0  0  0  0  0  0  0  0
   46.2363    2.7124    6.5031 H   0  0  0  0  0  0  0  0  0  0  0  0
   46.1275    4.4790    6.6390 H   0  0  0  0  0  0  0  0  0  0  0  0
   47.3098    3.5903    7.6208 H   0  0  0  0  0  0  0  0  0  0  0  0
   46.4999    3.4821    7.1902 H   0  0  0  0  0  0  0  0  0  0  0  0
   45.4543    3.1552    8.2539 H   0  0  0  0  0  0  0  0  0  0  0  0
  3  2  1  0
  4  2  2  0
  5  2  1  0
  7  6  1  0
  8  6  2  0
  9  6  1  0
  1 12  1  0
  1 13  1  0
  5 14  1  0
  5 15  1  0
  5 16  1  0
  9 17  1  0
  9 18  1  0
  9 19  1  0
 11 20  1  0
 11 21  1  0
M  CHG  3   3  -1   7  -1  10   2
M  END
> <Uni-Dock RESULT> 
ENERGY=   -4.781  LOWER_BOUND=    2.512  UPPER_BOUND=    3.165
INTER + INTRA:          -4.781
INTER:                  -4.781
INTRA:                   0.000
UNBOUND:                 0.000

$$$$

     RDKit          3D

 21 16  0  0  0  0  0  0  0  0999 V2000
   45.5481    3.9404    7.8108 O   0  0  0  0  0  0  0  0  0  0  0  0
   46.2107    3.2676    7.6304 C   0  0  0  0  0  0  0  0  0  0  0  0
   46.8297    4.0452    6.8524 O   0  0  0  0  0  0  0  0  0  0  0  0
   46.5034    2.0993    8.0106 O   0  0  0  0  0  0  0  0  0  0  0  0
   44.9139    3.8163    8.1995 C   0  0  0  0  0  0  0  0  0  0  0  0
   46.0976    3.2812    7.4370 C   0  0  0  0  0  0  0  0  0  0  0  0
   46.3615    2.0546    7.5819 O   0  0  0  0  0  0  0  0  0  0  0  0
   46.6079    4.1330    6.6578 O   0  0  0  0  0  0  0  0  0  0  0  0
   44.9963    3.8068    8.3412 C   0  0  0  0  0  0  0  0  0  0  0  0
   45.4606    3.5825    7.9608 Zn  0  0  0  0  0 15  0  0  0  0  0  0
   45.5454    3.9418    7.8126 O   0  0  0  0  0  0  0  0  0  0  0  0
   44.8317    3.7079    8.4204 H   0  0  0  0  0  0  0  0  0  0  0  0
   46.0019    3.0993    7.6512 H   0  0  0  0  0  0  0  0  0  0  0  0
   44.0799    3.1685    7.9132 H   0  0  0  0  0  0  0  0  0  0  0  0
   44.9756    3.8551    9.2912 H   0  0  0  0  0  0  0  0  0  0  0  0
   44.7110    4.8256    7.8284 H   0  0  0  0  0  0  0  0  0  0  0  0
   45.2761    3.6618    9.3889 H   0  0  0  0  0  0  0  0  0  0  0  0
   44.8192    4.8738    8.1751 H   0  0  0  0  0  0  0  0  0  0  0  0
   44.0655    3.2668    8.1437 H   0  0  0  0  0  0  0  0  0  0  0  0
   44.8316    3.7011    8.4220 H   0  0  0  0  0  0  0  0  0  0  0  0
   46.0047    3.1046    7.6478 H   0  0  0  0  0  0  0  0  0  0  0  0
  3  2  1  0
  4  2  2  0
  5  2  1  0
  7  6  1  0
  8  6  2  0
  9  6  1  0
  1 12  1  0
  1 13  1  0
  5 14  1  0
  5 15  1  0
  5 16  1  0
  9 17  1  0
  9 18  1  0
  9 19  1  0
 11 20  1  0
 11 21  1  0
M  CHG  3   3  -1   7  -1  10   2
M  END
> <Uni-Dock RESULT> 
ENERGY=   -4.519  LOWER_BOUND=    1.884  UPPER_BOUND=    2.291
INTER + INTRA:          -4.519
INTER:                  -4.519
INTRA:                   0.000
UNBOUND:                 0.000

$$$$

     RDKit          3D

 21 16  0  0  0  0  0  0  0  0999 V2000
   44.6907    2.9332    9.0155 O   0  0  0  0  0  0  0  0  0  0  0  0
   45.0631    3.5691    8.3981 C   0  0  0  0  0  0  0  0  0  0  0  0
   44.2540    4.4586    8.7821 O   0  0  0  0  0  0  0  0  0  0  0  0
   46.0124    3.6408    7.5682 O   0  0  0  0  0  0  0  0  0  0  0  0
   44.8696    2.2007    9.0277 C   0  0  0  0  0  0  0  0  0  0  0  0
   44.8609    3.5253    8.3108 C   0  0  0  0  0  0  0  0  0  0  0  0
   45.6335    3.6411    7.3184 O   0  0  0  0  0  0  0  0  0  0  0  0
   43.9821    4.3177    8.7499 O   0  0  0  0  0  0  0  0  0  0  0  0
   45.0173    2.2324    9.0920 C   0  0  0  0  0  0  0  0  0  0  0  0
   44.9533    2.7770    8.7607 Zn  0  0  0  0  0 15  0  0  0  0  0  0
   44.6907    2.9302    9.0173 O   0  0  0  0  0  0  0  0  0  0  0  0
   45.0767    2.0445    9.0264 H   0  0  0  0  0  0  0  0  0  0  0  0
   45.0924    3.3534    8.2402 H   0  0  0  0  0  0  0  0  0  0  0  0
   44.6698    1.4589    8.2486 H   0  0  0  0  0  0  0  0  0  0  0  0
   45.7745    1.9114    9.5705 H   0  0  0  0  0  0  0  0  0  0  0  0
   44.0300    2.1997    9.7296 H   0  0  0  0  0  0  0  0  0  0  0  0
   46.0400    2.1501    9.4720 H   0  0  0  0  0  0  0  0  0  0  0  0
   44.3288    2.1940    9.9417 H   0  0  0  0  0  0  0  0  0  0  0  0
   44.8104    1.3783    8.4402 H   0  0  0  0  0  0  0  0  0  0  0  0
   45.0812    2.0434    9.0211 H   0  0  0  0  0  0  0  0  0  0  0  0
   45.0880    3.3575    8.2436 H   0  0  0  0  0  0  0  0  0  0  0  0
  3  2  1  0
  4  2  2  0
  5  2  1  0
  7  6  1  0
  8  6  2  0
  9  6  1  0
  1 12  1  0
  1 13  1  0
  5 14  1  0
  5 15  1  0
  5 16  1  0
  9 17  1  0
  9 18  1  0
  9 19  1  0
 11 20  1  0
 11 21  1  0
M  CHG  3   3  -1   7  -1  10   2
M  END
> <Uni-Dock RESULT> 
ENERGY=   -4.483  LOWER_BOUND=    3.160  UPPER_BOUND=    3.904
INTER + INTRA:          -4.483
INTER:                  -4.483
INTRA:                   0.000
UNBOUND:                 0.000

$$$$

     RDKit          3D

 21 16  0  0  0  0  0  0  0  0999 V2000
   43.1454    4.4487   12.0890 O   0  0  0  0  0  0  0  0  0  0  0  0
   42.8861    5.3745   12.0955 C   0  0  0  0  0  0  0  0  0  0  0  0
   42.8992    5.3989   13.3574 O   0  0  0  0  0  0  0  0  0  0  0  0
   42.6776    6.3064   11.2689 O   0  0  0  0  0  0  0  0  0  0  0  0
   43.1629    4.0185   11.4700 C   0  0  0  0  0  0  0  0  0  0  0  0
   42.7028    5.2695   12.1716 C   0  0  0  0  0  0  0  0  0  0  0  0
   42.2705    6.2056   11.4422 O   0  0  0  0  0  0  0  0  0  0  0  0
   42.7157    5.1623   13.4291 O   0  0  0  0  0  0  0  0  0  0  0  0
   43.2972    4.0948   11.4143 C   0  0  0  0  0  0  0  0  0  0  0  0
   43.0459    4.5916   11.7314 Zn  0  0  0  0  0 15  0  0  0  0  0  0
   43.1466    4.4458   12.0875 O   0  0  0  0  0  0  0  0  0  0  0  0
   43.2502    4.0216   11.2257 H   0  0  0  0  0  0  0  0  0  0  0  0
   42.7421    5.3045   11.8794 H   0  0  0  0  0  0  0  0  0  0  0  0
   42.3122    3.7142   10.8529 H   0  0  0  0  0  0  0  0  0  0  0  0
   44.0561    4.0763   10.8406 H   0  0  0  0  0  0  0  0  0  0  0  0
   43.3272    3.2528   12.2342 H   0  0  0  0  0  0  0  0  0  0  0  0
   44.1366    4.4357   10.8008 H   0  0  0  0  0  0  0  0  0  0  0  0
   43.6605    3.3219   12.0985 H   0  0  0  0  0  0  0  0  0  0  0  0
   42.5380    3.6514   10.7632 H   0  0  0  0  0  0  0  0  0  0  0  0
   43.2480    4.0255   11.2204 H   0  0  0  0  0  0  0  0  0  0  0  0
   42.7432    5.3036   11.8862 H   0  0  0  0  0  0  0  0  0  0  0  0
  3  2  1  0
  4  2  2  0
  5  2  1  0
  7  6  1  0
  8  6  2  0
  9  6  1  0
  1 12  1  0
  1 13  1  0
  5 14  1  0
  5 15  1  0
  5 16  1  0
  9 17  1  0
  9 18  1  0
  9 19  1  0
 11 20  1  0
 11 21  1  0
M  CHG  3   3  -1   7  -1  10   2
M  END
> <Uni-Dock RESULT> 
ENERGY=   -4.236  LOWER_BOUND=    7.287  UPPER_BOUND=    8.009
INTER + INTRA:          -4.236
INTER:                  -4.236
INTRA:                   0.000
UNBOUND:                 0.000

$$$$
