
     RDKit          3D

 21 16  0  0  0  0  0  0  0  0999 V2000
   47.4943    1.1256    7.0025 O   0  0  0  0  0  0  0  0  0  0  0  0
   46.8581    1.0318    7.6392 C   0  0  0  0  0  0  0  0  0  0  0  0
   46.2307    1.7287    8.4853 O   0  0  0  0  0  0  0  0  0  0  0  0
   46.8615   -0.2179    7.4619 O   0  0  0  0  0  0  0  0  0  0  0  0
   47.7425    1.8239    6.6920 C   0  0  0  0  0  0  0  0  0  0  0  0
   46.7705    1.0842    7.5897 C   0  0  0  0  0  0  0  0  0  0  0  0
   45.9072    1.8476    8.1064 O   0  0  0  0  0  0  0  0  0  0  0  0
   46.9021   -0.1680    7.6794 O   0  0  0  0  0  0  0  0  0  0  0  0
   47.8072    1.7854    6.7293 C   0  0  0  0  0  0  0  0  0  0  0  0
   47.3687    1.4920    7.0928 Zn  0  0  0  0  0 15  0  0  0  0  0  0
   47.4928    1.1246    7.0043 O   0  0  0  0  0  0  0  0  0  0  0  0
   47.7708    1.9657    6.6067 H   0  0  0  0  0  0  0  0  0  0  0  0
   46.8408    1.3847    7.6693 H   0  0  0  0  0  0  0  0  0  0  0  0
   48.2583    1.1671    5.9849 H   0  0  0  0  0  0  0  0  0  0  0  0
   47.1346    2.5343    6.1240 H   0  0  0  0  0  0  0  0  0  0  0  0
   48.4950    2.3765    7.2626 H   0  0  0  0  0  0  0  0  0  0  0  0
   47.3129    2.3044    5.9026 H   0  0  0  0  0  0  0  0  0  0  0  0
   48.5256    1.0739    6.3110 H   0  0  0  0  0  0  0  0  0  0  0  0
   48.3551    2.5166    7.3312 H   0  0  0  0  0  0  0  0  0  0  0  0
   46.8401    1.3897    7.6695 H   0  0  0  0  0  0  0  0  0  0  0  0
   47.7731    1.9617    6.6047 H   0  0  0  0  0  0  0  0  0  0  0  0
  3  2  1  0
  4  2  2  0
  5  2  1  0
  7  6  1  0
  8  6  2  0
  9  6  1  0
  1 12  1  0
  1 13  1  0
  5 14  1  0
  5 15  1  0
  5 16  1  0
  9 17  1  0
  9 18  1  0
  9 19  1  0
 11 20  1  0
 11 21  1  0
M  CHG  3   3  -1   7  -1  10   2
M  END
> <Uni-Dock RESULT> 
ENERGY=   -6.145  LOWER_BOUND=    0.000  UPPER_BOUND=    0.000
INTER + INTRA:          -6.145
INTER:                  -6.145
INTRA:                   0.000
UNBOUND:                 0.000

$$$$

     RDKit          3D

 21 16  0  0  0  0  0  0  0  0999 V2000
   47.2046    3.1361    6.2324 O   0  0  0  0  0  0  0  0  0  0  0  0
   47.7166    2.3901    6.2507 C   0  0  0  0  0  0  0  0  0  0  0  0
   48.1538    1.5407    7.0769 O   0  0  0  0  0  0  0  0  0  0  0  0
   47.9801    2.5381    5.0251 O   0  0  0  0  0  0  0  0  0  0  0  0
   46.7215    3.3835    6.8248 C   0  0  0  0  0  0  0  0  0  0  0  0
   47.6381    2.3108    6.2707 C   0  0  0  0  0  0  0  0  0  0  0  0
   47.7078    1.2956    7.0187 O   0  0  0  0  0  0  0  0  0  0  0  0
   48.1710    2.5274    5.1471 O   0  0  0  0  0  0  0  0  0  0  0  0
   46.7801    3.4419    6.8105 C   0  0  0  0  0  0  0  0  0  0  0  0
   47.1416    2.9632    6.5850 Zn  0  0  0  0  0 15  0  0  0  0  0  0
   47.2063    3.1343    6.2318 O   0  0  0  0  0  0  0  0  0  0  0  0
   46.5990    3.4168    6.9348 H   0  0  0  0  0  0  0  0  0  0  0  0
   47.6210    2.3367    6.5879 H   0  0  0  0  0  0  0  0  0  0  0  0
   46.3801    4.0914    6.0634 H   0  0  0  0  0  0  0  0  0  0  0  0
   45.8503    2.8506    7.2171 H   0  0  0  0  0  0  0  0  0  0  0  0
   47.1885    3.9482    7.6373 H   0  0  0  0  0  0  0  0  0  0  0  0
   45.7545    3.0908    6.9586 H   0  0  0  0  0  0  0  0  0  0  0  0
   46.7589    4.2907    6.1204 H   0  0  0  0  0  0  0  0  0  0  0  0
   47.1802    3.7855    7.7691 H   0  0  0  0  0  0  0  0  0  0  0  0
   47.6194    2.3355    6.5926 H   0  0  0  0  0  0  0  0  0  0  0  0
   46.5990    3.4199    6.9307 H   0  0  0  0  0  0  0  0  0  0  0  0
  3  2  1  0
  4  2  2  0
  5  2  1  0
  7  6  1  0
  8  6  2  0
  9  6  1  0
  1 12  1  0
  1 13  1  0
  5 14  1  0
  5 15  1  0
  5 16  1  0
  9 17  1  0
  9 18  1  0
  9 19  1  0
 11 20  1  0
 11 21  1  0
M  CHG  3   3  -1   7  -1  10   2
M  END
> <Uni-Dock RESULT> 
ENERGY=   -6.042  LOWER_BOUND=    1.721  UPPER_BOUND=    2.491
INTER + INTRA:          -6.042
INTER:                  -6.042
INTRA:                   0.000
UNBOUND:                 0.000

$$$$

     RDKit          3D

 21 16  0  0  0  0  0  0  0  0999 V2000
   47.0729    2.5275    7.0409 O   0  0  0  0  0  0  0  0  0  0  0  0
   47.6034    2.0043    6.5274 C   0  0  0  0  0  0  0  0  0  0  0  0
   48.1204    1.9917    5.3752 O   0  0  0  0  0  0  0  0  0  0  0  0
   47.5846    1.1086    7.4166 O   0  0  0  0  0  0  0  0  0  0  0  0
   46.8974    3.2978    6.8946 C   0  0  0  0  0  0  0  0  0  0  0  0
   47.6991    2.0651    6.5266 C   0  0  0  0  0  0  0  0  0  0  0  0
   48.5007    2.2721    5.5729 O   0  0  0  0  0  0  0  0  0  0  0  0
   47.5137    1.0253    7.2179 O   0  0  0  0  0  0  0  0  0  0  0  0
   46.8266    3.2526    6.8944 C   0  0  0  0  0  0  0  0  0  0  0  0
   47.1959    2.7531    6.7372 Zn  0  0  0  0  0 15  0  0  0  0  0  0
   47.0741    2.5255    7.0399 O   0  0  0  0  0  0  0  0  0  0  0  0
   46.8870    3.4648    6.8803 H   0  0  0  0  0  0  0  0  0  0  0  0
   47.6278    2.2670    6.2905 H   0  0  0  0  0  0  0  0  0  0  0  0
   46.4712    3.2478    7.9012 H   0  0  0  0  0  0  0  0  0  0  0  0
   47.6068    4.1300    6.8602 H   0  0  0  0  0  0  0  0  0  0  0  0
   46.0871    3.4919    6.1854 H   0  0  0  0  0  0  0  0  0  0  0  0
   47.4559    4.0969    7.1916 H   0  0  0  0  0  0  0  0  0  0  0  0
   46.1553    3.0125    7.7244 H   0  0  0  0  0  0  0  0  0  0  0  0
   46.2198    3.5475    6.0330 H   0  0  0  0  0  0  0  0  0  0  0  0
   47.6287    2.2708    6.2873 H   0  0  0  0  0  0  0  0  0  0  0  0
   46.8848    3.4630    6.8845 H   0  0  0  0  0  0  0  0  0  0  0  0
  3  2  1  0
  4  2  2  0
  5  2  1  0
  7  6  1  0
  8  6  2  0
  9  6  1  0
  1 12  1  0
  1 13  1  0
  5 14  1  0
  5 15  1  0
  5 16  1  0
  9 17  1  0
  9 18  1  0
  9 19  1  0
 11 20  1  0
 11 21  1  0
M  CHG  3   3  -1   7  -1  10   2
M  END
> <Uni-Dock RESULT> 
ENERGY=   -5.838  LOWER_BOUND=    1.363  UPPER_BOUND=    2.105
INTER + INTRA:          -5.838
INTER:                  -5.838
INTRA:                   0.000
UNBOUND:                 0.000

$$$$

     RDKit          3D

 21 16  0  0  0  0  0  0  0  0999 V2000
   47.3844    2.3694    7.0527 O   0  0  0  0  0  0  0  0  0  0  0  0
   47.2019    2.9744    6.4049 C   0  0  0  0  0  0  0  0  0  0  0  0
   47.2524    3.0859    5.1479 O   0  0  0  0  0  0  0  0  0  0  0  0
   46.9332    3.8387    7.2847 O   0  0  0  0  0  0  0  0  0  0  0  0
   47.5129    1.5851    6.9340 C   0  0  0  0  0  0  0  0  0  0  0  0
   47.1099    2.9280    6.3577 C   0  0  0  0  0  0  0  0  0  0  0  0
   46.7934    2.8589    5.1369 O   0  0  0  0  0  0  0  0  0  0  0  0
   47.0940    3.9152    7.1441 O   0  0  0  0  0  0  0  0  0  0  0  0
   47.5813    1.6197    6.9684 C   0  0  0  0  0  0  0  0  0  0  0  0
   47.3821    2.1703    6.7083 Zn  0  0  0  0  0 15  0  0  0  0  0  0
   47.3839    2.3715    7.0515 O   0  0  0  0  0  0  0  0  0  0  0  0
   47.5084    1.4187    6.9119 H   0  0  0  0  0  0  0  0  0  0  0  0
   47.2534    2.7230    6.1602 H   0  0  0  0  0  0  0  0  0  0  0  0
   47.4533    1.5517    8.0262 H   0  0  0  0  0  0  0  0  0  0  0  0
   46.7976    0.8646    6.5264 H   0  0  0  0  0  0  0  0  0  0  0  0
   48.5233    1.2919    6.6338 H   0  0  0  0  0  0  0  0  0  0  0  0
   46.7895    0.8685    6.8919 H   0  0  0  0  0  0  0  0  0  0  0  0
   47.8405    1.7429    8.0243 H   0  0  0  0  0  0  0  0  0  0  0  0
   48.4659    1.2592    6.4349 H   0  0  0  0  0  0  0  0  0  0  0  0
   47.2536    2.7195    6.1566 H   0  0  0  0  0  0  0  0  0  0  0  0
   47.5087    1.4201    6.9168 H   0  0  0  0  0  0  0  0  0  0  0  0
  3  2  1  0
  4  2  2  0
  5  2  1  0
  7  6  1  0
  8  6  2  0
  9  6  1  0
  1 12  1  0
  1 13  1  0
  5 14  1  0
  5 15  1  0
  5 16  1  0
  9 17  1  0
  9 18  1  0
  9 19  1  0
 11 20  1  0
 11 21  1  0
M  CHG  3   3  -1   7  -1  10   2
M  END
> <Uni-Dock RESULT> 
ENERGY=   -5.601  LOWER_BOUND=    1.760  UPPER_BOUND=    2.570
INTER + INTRA:          -5.601
INTER:                  -5.601
INTRA:                   0.000
UNBOUND:                 0.000

$$$$

     RDKit          3D

 21 16  0  0  0  0  0  0  0  0999 V2000
   47.3680    2.4160    6.4880 O   0  0  0  0  0  0  0  0  0  0  0  0
   47.0470    1.7905    7.0578 C   0  0  0  0  0  0  0  0  0  0  0  0
   46.9511    0.5351    7.1569 O   0  0  0  0  0  0  0  0  0  0  0  0
   46.5634    2.7000    7.7873 O   0  0  0  0  0  0  0  0  0  0  0  0
   47.8718    2.2750    5.8781 C   0  0  0  0  0  0  0  0  0  0  0  0
   47.1435    1.7468    7.0981 C   0  0  0  0  0  0  0  0  0  0  0  0
   47.4255    0.5417    7.3499 O   0  0  0  0  0  0  0  0  0  0  0  0
   46.4020    2.5533    7.7250 O   0  0  0  0  0  0  0  0  0  0  0  0
   47.8000    2.3067    5.8482 C   0  0  0  0  0  0  0  0  0  0  0  0
   47.5243    2.0681    6.3750 Zn  0  0  0  0  0 15  0  0  0  0  0  0
   47.3667    2.4148    6.4898 O   0  0  0  0  0  0  0  0  0  0  0  0
   47.9996    2.2497    5.7722 H   0  0  0  0  0  0  0  0  0  0  0  0
   47.2051    1.5384    6.8650 H   0  0  0  0  0  0  0  0  0  0  0  0
   47.9179    3.3679    5.8457 H   0  0  0  0  0  0  0  0  0  0  0  0
   48.8921    1.8879    5.9553 H   0  0  0  0  0  0  0  0  0  0  0  0
   47.4265    1.9200    4.9439 H   0  0  0  0  0  0  0  0  0  0  0  0
   48.8884    2.2533    5.9456 H   0  0  0  0  0  0  0  0  0  0  0  0
   47.5182    3.3511    5.6833 H   0  0  0  0  0  0  0  0  0  0  0  0
   47.4923    1.7235    4.9751 H   0  0  0  0  0  0  0  0  0  0  0  0
   47.2077    1.5347    6.8626 H   0  0  0  0  0  0  0  0  0  0  0  0
   47.9984    2.2546    5.7727 H   0  0  0  0  0  0  0  0  0  0  0  0
  3  2  1  0
  4  2  2  0
  5  2  1  0
  7  6  1  0
  8  6  2  0
  9  6  1  0
  1 12  1  0
  1 13  1  0
  5 14  1  0
  5 15  1  0
  5 16  1  0
  9 17  1  0
  9 18  1  0
  9 19  1  0
 11 20  1  0
 11 21  1  0
M  CHG  3   3  -1   7  -1  10   2
M  END
> <Uni-Dock RESULT> 
ENERGY=   -5.367  LOWER_BOUND=    1.001  UPPER_BOUND=    1.735
INTER + INTRA:          -5.367
INTER:                  -5.367
INTRA:                   0.000
UNBOUND:                 0.000

$$$$

     RDKit          3D

 21 16  0  0  0  0  0  0  0  0999 V2000
   46.3839    4.0691    7.5418 O   0  0  0  0  0  0  0  0  0  0  0  0
   45.6027    4.0350    7.9974 C   0  0  0  0  0  0  0  0  0  0  0  0
   44.4947    3.4296    7.9675 O   0  0  0  0  0  0  0  0  0  0  0  0
   45.9816    4.9956    8.7234 O   0  0  0  0  0  0  0  0  0  0  0  0
   46.6340    3.5252    7.0058 C   0  0  0  0  0  0  0  0  0  0  0  0
   45.6118    3.9339    8.0479 C   0  0  0  0  0  0  0  0  0  0  0  0
   44.7239    3.0545    8.2304 O   0  0  0  0  0  0  0  0  0  0  0  0
   45.7834    5.0438    8.6241 O   0  0  0  0  0  0  0  0  0  0  0  0
   46.6265    3.5999    6.9682 C   0  0  0  0  0  0  0  0  0  0  0  0
   46.1971    3.7384    7.4232 Zn  0  0  0  0  0 15  0  0  0  0  0  0
   46.3820    4.0696    7.5433 O   0  0  0  0  0  0  0  0  0  0  0  0
   46.6984    3.3968    6.9188 H   0  0  0  0  0  0  0  0  0  0  0  0
   45.5091    3.7495    7.8091 H   0  0  0  0  0  0  0  0  0  0  0  0
   47.5699    4.0874    7.0792 H   0  0  0  0  0  0  0  0  0  0  0  0
   46.8477    2.4704    7.2027 H   0  0  0  0  0  0  0  0  0  0  0  0
   46.2493    3.6258    5.9864 H   0  0  0  0  0  0  0  0  0  0  0  0
   47.1502    2.6744    7.2255 H   0  0  0  0  0  0  0  0  0  0  0  0
   47.3675    4.3973    6.8569 H   0  0  0  0  0  0  0  0  0  0  0  0
   46.1167    3.4652    6.0095 H   0  0  0  0  0  0  0  0  0  0  0  0
   45.5078    3.7452    7.8068 H   0  0  0  0  0  0  0  0  0  0  0  0
   46.7017    3.4006    6.9195 H   0  0  0  0  0  0  0  0  0  0  0  0
  3  2  1  0
  4  2  2  0
  5  2  1  0
  7  6  1  0
  8  6  2  0
  9  6  1  0
  1 12  1  0
  1 13  1  0
  5 14  1  0
  5 15  1  0
  5 16  1  0
  9 17  1  0
  9 18  1  0
  9 19  1  0
 11 20  1  0
 11 21  1  0
M  CHG  3   3  -1   7  -1  10   2
M  END
> <Uni-Dock RESULT> 
ENERGY=   -5.021  LOWER_BOUND=    2.810  UPPER_BOUND=    3.360
INTER + INTRA:          -5.021
INTER:                  -5.021
INTRA:                   0.000
UNBOUND:                 0.000

$$$$

     RDKit          3D

 21 16  0  0  0  0  0  0  0  0999 V2000
   45.5804    3.8086    7.6603 O   0  0  0  0  0  0  0  0  0  0  0  0
   45.1045    3.3278    8.2615 C   0  0  0  0  0  0  0  0  0  0  0  0
   45.0320    2.1511    8.7145 O   0  0  0  0  0  0  0  0  0  0  0  0
   44.3562    4.3230    8.4685 O   0  0  0  0  0  0  0  0  0  0  0  0
   46.2731    3.5786    7.3244 C   0  0  0  0  0  0  0  0  0  0  0  0
   45.1822    3.3121    8.3425 C   0  0  0  0  0  0  0  0  0  0  0  0
   45.4064    2.2823    9.0385 O   0  0  0  0  0  0  0  0  0  0  0  0
   44.2336    4.1424    8.4066 O   0  0  0  0  0  0  0  0  0  0  0  0
   46.2154    3.5895    7.2644 C   0  0  0  0  0  0  0  0  0  0  0  0
   45.7809    3.4702    7.7200 Zn  0  0  0  0  0 15  0  0  0  0  0  0
   45.5786    3.8078    7.6619 O   0  0  0  0  0  0  0  0  0  0  0  0
   46.4312    3.5439    7.2794 H   0  0  0  0  0  0  0  0  0  0  0  0
   45.3310    3.0582    8.2203 H   0  0  0  0  0  0  0  0  0  0  0  0
   46.2822    4.6125    6.9660 H   0  0  0  0  0  0  0  0  0  0  0  0
   47.2149    3.3852    7.8464 H   0  0  0  0  0  0  0  0  0  0  0  0
   46.2033    2.9133    6.4586 H   0  0  0  0  0  0  0  0  0  0  0  0
   47.1997    3.7284    7.7214 H   0  0  0  0  0  0  0  0  0  0  0  0
   45.9671    4.4914    6.6967 H   0  0  0  0  0  0  0  0  0  0  0  0
   46.2619    2.7455    6.5698 H   0  0  0  0  0  0  0  0  0  0  0  0
   45.3345    3.0544    8.2202 H   0  0  0  0  0  0  0  0  0  0  0  0
   46.4296    3.5485    7.2779 H   0  0  0  0  0  0  0  0  0  0  0  0
  3  2  1  0
  4  2  2  0
  5  2  1  0
  7  6  1  0
  8  6  2  0
  9  6  1  0
  1 12  1  0
  1 13  1  0
  5 14  1  0
  5 15  1  0
  5 16  1  0
  9 17  1  0
  9 18  1  0
  9 19  1  0
 11 20  1  0
 11 21  1  0
M  CHG  3   3  -1   7  -1  10   2
M  END
> <Uni-Dock RESULT> 
ENERGY=   -4.804  LOWER_BOUND=    2.603  UPPER_BOUND=    3.234
INTER + INTRA:          -4.804
INTER:                  -4.804
INTRA:                   0.000
UNBOUND:                 0.000

$$$$

     RDKit          3D

 21 16  0  0  0  0  0  0  0  0999 V2000
   45.0861    2.8519    8.4188 O   0  0  0  0  0  0  0  0  0  0  0  0
   44.9868    2.3256    9.1483 C   0  0  0  0  0  0  0  0  0  0  0  0
   44.5774    2.3979   10.3409 O   0  0  0  0  0  0  0  0  0  0  0  0
   45.5623    1.3776    8.5454 O   0  0  0  0  0  0  0  0  0  0  0  0
   44.7476    3.5734    8.3161 C   0  0  0  0  0  0  0  0  0  0  0  0
   44.8740    2.3150    9.1518 C   0  0  0  0  0  0  0  0  0  0  0  0
   44.1069    2.3175   10.1551 O   0  0  0  0  0  0  0  0  0  0  0  0
   45.6677    1.4236    8.7410 O   0  0  0  0  0  0  0  0  0  0  0  0
   44.8311    3.5813    8.3142 C   0  0  0  0  0  0  0  0  0  0  0  0
   44.8474    3.0482    8.6693 Zn  0  0  0  0  0 15  0  0  0  0  0  0
   45.0863    2.8501    8.4205 O   0  0  0  0  0  0  0  0  0  0  0  0
   44.6526    3.7078    8.2829 H   0  0  0  0  0  0  0  0  0  0  0  0
   44.8034    2.5847    9.3063 H   0  0  0  0  0  0  0  0  0  0  0  0
   45.1229    3.4501    7.2956 H   0  0  0  0  0  0  0  0  0  0  0  0
   43.6756    3.7863    8.2671 H   0  0  0  0  0  0  0  0  0  0  0  0
   45.2591    4.4265    8.7718 H   0  0  0  0  0  0  0  0  0  0  0  0
   43.8177    3.7397    7.9335 H   0  0  0  0  0  0  0  0  0  0  0  0
   45.5151    3.5194    7.4624 H   0  0  0  0  0  0  0  0  0  0  0  0
   45.1190    4.4408    8.9270 H   0  0  0  0  0  0  0  0  0  0  0  0
   44.8003    2.5881    9.3085 H   0  0  0  0  0  0  0  0  0  0  0  0
   44.6554    3.7063    8.2789 H   0  0  0  0  0  0  0  0  0  0  0  0
  3  2  1  0
  4  2  2  0
  5  2  1  0
  7  6  1  0
  8  6  2  0
  9  6  1  0
  1 12  1  0
  1 13  1  0
  5 14  1  0
  5 15  1  0
  5 16  1  0
  9 17  1  0
  9 18  1  0
  9 19  1  0
 11 20  1  0
 11 21  1  0
M  CHG  3   3  -1   7  -1  10   2
M  END
> <Uni-Dock RESULT> 
ENERGY=   -4.423  LOWER_BOUND=    2.655  UPPER_BOUND=    3.045
INTER + INTRA:          -4.423
INTER:                  -4.423
INTRA:                   0.000
UNBOUND:                 0.000

$$$$

     RDKit          3D

 21 16  0  0  0  0  0  0  0  0999 V2000
   44.7388    2.4039    9.7868 O   0  0  0  0  0  0  0  0  0  0  0  0
   44.8528    2.5748    8.9054 C   0  0  0  0  0  0  0  0  0  0  0  0
   44.4167    3.3508    8.0095 O   0  0  0  0  0  0  0  0  0  0  0  0
   45.6280    1.5831    8.8111 O   0  0  0  0  0  0  0  0  0  0  0  0
   44.3671    2.8871   10.3102 C   0  0  0  0  0  0  0  0  0  0  0  0
   44.9071    2.6742    8.9098 C   0  0  0  0  0  0  0  0  0  0  0  0
   44.7640    3.6899    8.1729 O   0  0  0  0  0  0  0  0  0  0  0  0
   45.4571    1.5653    8.6629 O   0  0  0  0  0  0  0  0  0  0  0  0
   44.3265    2.8137   10.3063 C   0  0  0  0  0  0  0  0  0  0  0  0
   44.5706    2.7574    9.7166 Zn  0  0  0  0  0 15  0  0  0  0  0  0
   44.7394    2.4036    9.7843 O   0  0  0  0  0  0  0  0  0  0  0  0
   44.3178    3.0013   10.4230 H   0  0  0  0  0  0  0  0  0  0  0  0
   44.6551    2.8671    8.9398 H   0  0  0  0  0  0  0  0  0  0  0  0
   44.7777    2.1826   11.0400 H   0  0  0  0  0  0  0  0  0  0  0  0
   44.6763    3.8977   10.5931 H   0  0  0  0  0  0  0  0  0  0  0  0
   43.2753    2.8259   10.3469 H   0  0  0  0  0  0  0  0  0  0  0  0
   44.8072    3.6480   10.8259 H   0  0  0  0  0  0  0  0  0  0  0  0
   44.4809    1.9044   10.8951 H   0  0  0  0  0  0  0  0  0  0  0  0
   43.2514    3.0064   10.2431 H   0  0  0  0  0  0  0  0  0  0  0  0
   44.6527    2.8716    8.9403 H   0  0  0  0  0  0  0  0  0  0  0  0
   44.3196    2.9971   10.4251 H   0  0  0  0  0  0  0  0  0  0  0  0
  3  2  1  0
  4  2  2  0
  5  2  1  0
  7  6  1  0
  8  6  2  0
  9  6  1  0
  1 12  1  0
  1 13  1  0
  5 14  1  0
  5 15  1  0
  5 16  1  0
  9 17  1  0
  9 18  1  0
  9 19  1  0
 11 20  1  0
 11 21  1  0
M  CHG  3   3  -1   7  -1  10   2
M  END
> <Uni-Dock RESULT> 
ENERGY=   -4.343  LOWER_BOUND=    2.815  UPPER_BOUND=    3.581
INTER + INTRA:          -4.343
INTER:                  -4.343
INTRA:                   0.000
UNBOUND:                 0.000

$$$$
