
     RDKit          3D

 21 16  0  0  0  0  0  0  0  0999 V2000
   47.4348    1.1135    6.9391 O   0  0  0  0  0  0  0  0  0  0  0  0
   46.8298    1.0138    7.6587 C   0  0  0  0  0  0  0  0  0  0  0  0
   46.2036    1.7284    8.4908 O   0  0  0  0  0  0  0  0  0  0  0  0
   46.8096   -0.2366    7.4877 O   0  0  0  0  0  0  0  0  0  0  0  0
   47.7464    1.7819    6.7225 C   0  0  0  0  0  0  0  0  0  0  0  0
   46.7899    1.0177    7.6199 C   0  0  0  0  0  0  0  0  0  0  0  0
   45.9007    1.7178    8.1791 O   0  0  0  0  0  0  0  0  0  0  0  0
   46.9904   -0.2283    7.6689 O   0  0  0  0  0  0  0  0  0  0  0  0
   47.7721    1.7872    6.7539 C   0  0  0  0  0  0  0  0  0  0  0  0
   47.3590    1.4602    7.1186 Zn  0  0  0  0  0 15  0  0  0  0  0  0
   47.4306    1.1102    6.9437 O   0  0  0  0  0  0  0  0  0  0  0  0
   46.8677    1.2759    7.7078 H   0  0  0  0  0  0  0  0  0  0  0  0
   47.7745    1.9913    6.7092 H   0  0  0  0  0  0  0  0  0  0  0  0
   48.2596    1.1105    6.0272 H   0  0  0  0  0  0  0  0  0  0  0  0
   47.1631    2.5020    6.1409 H   0  0  0  0  0  0  0  0  0  0  0  0
   48.5009    2.3215    7.3026 H   0  0  0  0  0  0  0  0  0  0  0  0
   47.5475    2.8581    6.7514 H   0  0  0  0  0  0  0  0  0  0  0  0
   48.7888    1.6479    7.1334 H   0  0  0  0  0  0  0  0  0  0  0  0
   47.7237    1.4213    5.7240 H   0  0  0  0  0  0  0  0  0  0  0  0
   46.8672    1.2894    7.7115 H   0  0  0  0  0  0  0  0  0  0  0  0
   47.7791    1.9811    6.7008 H   0  0  0  0  0  0  0  0  0  0  0  0
  3  2  1  0
  4  2  2  0
  5  2  1  0
  7  6  1  0
  8  6  2  0
  9  6  1  0
  1 12  1  0
  1 13  1  0
  5 14  1  0
  5 15  1  0
  5 16  1  0
  9 17  1  0
  9 18  1  0
  9 19  1  0
 11 20  1  0
 11 21  1  0
M  CHG  3   3  -1   7  -1  10   2
M  END
> <Uni-Dock RESULT> 
ENERGY=   -5.834  LOWER_BOUND=    0.000  UPPER_BOUND=    0.000
INTER + INTRA:          -5.834
INTER:                  -5.834
INTRA:                   0.000
UNBOUND:                 0.000

$$$$

     RDKit          3D

 21 16  0  0  0  0  0  0  0  0999 V2000
   47.6107    1.3926    6.7277 O   0  0  0  0  0  0  0  0  0  0  0  0
   47.6406    2.3011    6.4675 C   0  0  0  0  0  0  0  0  0  0  0  0
   47.1703    3.4171    6.8259 O   0  0  0  0  0  0  0  0  0  0  0  0
   48.4406    2.0218    5.5319 O   0  0  0  0  0  0  0  0  0  0  0  0
   47.1679    1.1164    7.2920 C   0  0  0  0  0  0  0  0  0  0  0  0
   47.6848    2.3048    6.5014 C   0  0  0  0  0  0  0  0  0  0  0  0
   47.5373    3.4276    7.0588 O   0  0  0  0  0  0  0  0  0  0  0  0
   48.2232    2.0125    5.3969 O   0  0  0  0  0  0  0  0  0  0  0  0
   47.1316    1.1195    7.2734 C   0  0  0  0  0  0  0  0  0  0  0  0
   47.3658    1.6179    6.9457 Zn  0  0  0  0  0 15  0  0  0  0  0  0
   47.6125    1.3983    6.7239 O   0  0  0  0  0  0  0  0  0  0  0  0
   47.4448    2.3439    6.6472 H   0  0  0  0  0  0  0  0  0  0  0  0
   47.0420    1.1171    7.4622 H   0  0  0  0  0  0  0  0  0  0  0  0
   47.6083    0.1806    6.9345 H   0  0  0  0  0  0  0  0  0  0  0  0
   47.4542    1.2556    8.3388 H   0  0  0  0  0  0  0  0  0  0  0  0
   46.0788    1.0323    7.2295 H   0  0  0  0  0  0  0  0  0  0  0  0
   46.6793    1.4353    8.2185 H   0  0  0  0  0  0  0  0  0  0  0  0
   46.3675    0.6125    6.6766 H   0  0  0  0  0  0  0  0  0  0  0  0
   47.9370    0.4129    7.4946 H   0  0  0  0  0  0  0  0  0  0  0  0
   47.4354    2.3487    6.6566 H   0  0  0  0  0  0  0  0  0  0  0  0
   47.0494    1.1066    7.4566 H   0  0  0  0  0  0  0  0  0  0  0  0
  3  2  1  0
  4  2  2  0
  5  2  1  0
  7  6  1  0
  8  6  2  0
  9  6  1  0
  1 12  1  0
  1 13  1  0
  5 14  1  0
  5 15  1  0
  5 16  1  0
  9 17  1  0
  9 18  1  0
  9 19  1  0
 11 20  1  0
 11 21  1  0
M  CHG  3   3  -1   7  -1  10   2
M  END
> <Uni-Dock RESULT> 
ENERGY=   -5.743  LOWER_BOUND=    1.346  UPPER_BOUND=    2.061
INTER + INTRA:          -5.743
INTER:                  -5.743
INTRA:                   0.000
UNBOUND:                 0.000

$$$$

     RDKit          3D

 21 16  0  0  0  0  0  0  0  0999 V2000
   47.1220    3.1034    6.1944 O   0  0  0  0  0  0  0  0  0  0  0  0
   47.7126    2.3675    6.2545 C   0  0  0  0  0  0  0  0  0  0  0  0
   48.1268    1.5381    7.1122 O   0  0  0  0  0  0  0  0  0  0  0  0
   47.9754    2.4592    5.0234 O   0  0  0  0  0  0  0  0  0  0  0  0
   46.7507    3.4127    6.7922 C   0  0  0  0  0  0  0  0  0  0  0  0
   47.6683    2.3365    6.2407 C   0  0  0  0  0  0  0  0  0  0  0  0
   47.7886    1.3089    6.9639 O   0  0  0  0  0  0  0  0  0  0  0  0
   48.1722    2.5970    5.1122 O   0  0  0  0  0  0  0  0  0  0  0  0
   46.7825    3.4308    6.8105 C   0  0  0  0  0  0  0  0  0  0  0  0
   47.1567    2.9707    6.5679 Zn  0  0  0  0  0 15  0  0  0  0  0  0
   47.1267    3.0985    6.1923 O   0  0  0  0  0  0  0  0  0  0  0  0
   47.6757    2.3783    6.5210 H   0  0  0  0  0  0  0  0  0  0  0  0
   46.6723    3.4302    6.9880 H   0  0  0  0  0  0  0  0  0  0  0  0
   46.4280    4.1003    6.0044 H   0  0  0  0  0  0  0  0  0  0  0  0
   45.8651    2.9226    7.2075 H   0  0  0  0  0  0  0  0  0  0  0  0
   47.2380    3.9941    7.5805 H   0  0  0  0  0  0  0  0  0  0  0  0
   46.3766    3.1475    7.7864 H   0  0  0  0  0  0  0  0  0  0  0  0
   47.3616    4.3513    6.9306 H   0  0  0  0  0  0  0  0  0  0  0  0
   45.9469    3.6226    6.1308 H   0  0  0  0  0  0  0  0  0  0  0  0
   47.6745    2.3763    6.5349 H   0  0  0  0  0  0  0  0  0  0  0  0
   46.6689    3.4372    6.9763 H   0  0  0  0  0  0  0  0  0  0  0  0
  3  2  1  0
  4  2  2  0
  5  2  1  0
  7  6  1  0
  8  6  2  0
  9  6  1  0
  1 12  1  0
  1 13  1  0
  5 14  1  0
  5 15  1  0
  5 16  1  0
  9 17  1  0
  9 18  1  0
  9 19  1  0
 11 20  1  0
 11 21  1  0
M  CHG  3   3  -1   7  -1  10   2
M  END
> <Uni-Dock RESULT> 
ENERGY=   -5.694  LOWER_BOUND=    1.731  UPPER_BOUND=    2.516
INTER + INTRA:          -5.694
INTER:                  -5.694
INTRA:                   0.000
UNBOUND:                 0.000

$$$$

     RDKit          3D

 21 16  0  0  0  0  0  0  0  0999 V2000
   47.2809    1.7667    7.3287 O   0  0  0  0  0  0  0  0  0  0  0  0
   46.8063    0.9979    7.6072 C   0  0  0  0  0  0  0  0  0  0  0  0
   46.7421   -0.2361    7.3463 O   0  0  0  0  0  0  0  0  0  0  0  0
   46.1864    1.6763    8.4725 O   0  0  0  0  0  0  0  0  0  0  0  0
   47.7803    1.7814    6.7446 C   0  0  0  0  0  0  0  0  0  0  0  0
   46.8472    0.9915    7.6445 C   0  0  0  0  0  0  0  0  0  0  0  0
   47.0421   -0.2555    7.6604 O   0  0  0  0  0  0  0  0  0  0  0  0
   46.0122    1.6897    8.2852 O   0  0  0  0  0  0  0  0  0  0  0  0
   47.7537    1.7781    6.7136 C   0  0  0  0  0  0  0  0  0  0  0  0
   47.3701    1.4486    7.1071 Zn  0  0  0  0  0 15  0  0  0  0  0  0
   47.2763    1.7628    7.3324 O   0  0  0  0  0  0  0  0  0  0  0  0
   46.9185    0.8707    7.3981 H   0  0  0  0  0  0  0  0  0  0  0  0
   47.9107    1.7082    6.5946 H   0  0  0  0  0  0  0  0  0  0  0  0
   47.7913    2.8411    7.0173 H   0  0  0  0  0  0  0  0  0  0  0  0
   48.7910    1.3815    6.8701 H   0  0  0  0  0  0  0  0  0  0  0  0
   47.4931    1.6980    5.6921 H   0  0  0  0  0  0  0  0  0  0  0  0
   48.4529    1.1204    6.1883 H   0  0  0  0  0  0  0  0  0  0  0  0
   47.1511    2.3074    5.9695 H   0  0  0  0  0  0  0  0  0  0  0  0
   48.3311    2.5083    7.2883 H   0  0  0  0  0  0  0  0  0  0  0  0
   46.9239    0.8618    7.3886 H   0  0  0  0  0  0  0  0  0  0  0  0
   47.9099    1.7210    6.6004 H   0  0  0  0  0  0  0  0  0  0  0  0
  3  2  1  0
  4  2  2  0
  5  2  1  0
  7  6  1  0
  8  6  2  0
  9  6  1  0
  1 12  1  0
  1 13  1  0
  5 14  1  0
  5 15  1  0
  5 16  1  0
  9 17  1  0
  9 18  1  0
  9 19  1  0
 11 20  1  0
 11 21  1  0
M  CHG  3   3  -1   7  -1  10   2
M  END
> <Uni-Dock RESULT> 
ENERGY=   -5.654  LOWER_BOUND=    0.339  UPPER_BOUND=    1.420
INTER + INTRA:          -5.654
INTER:                  -5.654
INTRA:                   0.000
UNBOUND:                 0.000

$$$$

     RDKit          3D

 21 16  0  0  0  0  0  0  0  0999 V2000
   47.1608    2.5780    7.0949 O   0  0  0  0  0  0  0  0  0  0  0  0
   47.6337    2.0067    6.5085 C   0  0  0  0  0  0  0  0  0  0  0  0
   48.1217    2.0197    5.3437 O   0  0  0  0  0  0  0  0  0  0  0  0
   47.6620    1.1025    7.3887 O   0  0  0  0  0  0  0  0  0  0  0  0
   46.9014    3.2765    6.9062 C   0  0  0  0  0  0  0  0  0  0  0  0
   47.6796    2.0280    6.5318 C   0  0  0  0  0  0  0  0  0  0  0  0
   48.4727    2.1595    5.5587 O   0  0  0  0  0  0  0  0  0  0  0  0
   47.4533    1.0234    7.2631 O   0  0  0  0  0  0  0  0  0  0  0  0
   46.8708    3.2652    6.8813 C   0  0  0  0  0  0  0  0  0  0  0  0
   47.2109    2.7419    6.7359 Zn  0  0  0  0  0 15  0  0  0  0  0  0
   47.1642    2.5722    7.0927 O   0  0  0  0  0  0  0  0  0  0  0  0
   47.5923    2.1923    6.3178 H   0  0  0  0  0  0  0  0  0  0  0  0
   46.8794    3.4554    6.7951 H   0  0  0  0  0  0  0  0  0  0  0  0
   46.5023    3.2050    7.9226 H   0  0  0  0  0  0  0  0  0  0  0  0
   47.5865    4.1285    6.8628 H   0  0  0  0  0  0  0  0  0  0  0  0
   46.0686    3.4546    6.2194 H   0  0  0  0  0  0  0  0  0  0  0  0
   47.1102    4.0995    6.2150 H   0  0  0  0  0  0  0  0  0  0  0  0
   45.8025    3.0468    6.7922 H   0  0  0  0  0  0  0  0  0  0  0  0
   47.0868    3.5708    7.9094 H   0  0  0  0  0  0  0  0  0  0  0  0
   47.5923    2.2009    6.3066 H   0  0  0  0  0  0  0  0  0  0  0  0
   46.8761    3.4526    6.8084 H   0  0  0  0  0  0  0  0  0  0  0  0
  3  2  1  0
  4  2  2  0
  5  2  1  0
  7  6  1  0
  8  6  2  0
  9  6  1  0
  1 12  1  0
  1 13  1  0
  5 14  1  0
  5 15  1  0
  5 16  1  0
  9 17  1  0
  9 18  1  0
  9 19  1  0
 11 20  1  0
 11 21  1  0
M  CHG  3   3  -1   7  -1  10   2
M  END
> <Uni-Dock RESULT> 
ENERGY=   -5.605  LOWER_BOUND=    1.373  UPPER_BOUND=    2.133
INTER + INTRA:          -5.605
INTER:                  -5.605
INTRA:                   0.000
UNBOUND:                 0.000

$$$$

     RDKit          3D

 21 16  0  0  0  0  0  0  0  0999 V2000
   47.1777    1.8734    7.1617 O   0  0  0  0  0  0  0  0  0  0  0  0
   47.7021    2.3143    6.5102 C   0  0  0  0  0  0  0  0  0  0  0  0
   48.4520    2.0346    5.5332 O   0  0  0  0  0  0  0  0  0  0  0  0
   47.3443    3.4375    6.9612 O   0  0  0  0  0  0  0  0  0  0  0  0
   47.1483    1.1107    7.2528 C   0  0  0  0  0  0  0  0  0  0  0  0
   47.6557    2.3143    6.4792 C   0  0  0  0  0  0  0  0  0  0  0  0
   48.0773    2.0675    5.3153 O   0  0  0  0  0  0  0  0  0  0  0  0
   47.5636    3.4150    7.0915 O   0  0  0  0  0  0  0  0  0  0  0  0
   47.1856    1.1050    7.2689 C   0  0  0  0  0  0  0  0  0  0  0  0
   47.3833    1.6168    6.9378 Zn  0  0  0  0  0 15  0  0  0  0  0  0
   47.1806    1.8788    7.1581 O   0  0  0  0  0  0  0  0  0  0  0  0
   47.7980    2.0715    6.4442 H   0  0  0  0  0  0  0  0  0  0  0  0
   47.1742    0.9055    7.2076 H   0  0  0  0  0  0  0  0  0  0  0  0
   46.5080    1.4162    8.0859 H   0  0  0  0  0  0  0  0  0  0  0  0
   46.5566    0.4939    6.5699 H   0  0  0  0  0  0  0  0  0  0  0  0
   47.9715    0.5103    7.6514 H   0  0  0  0  0  0  0  0  0  0  0  0
   47.2896    0.1840    6.6873 H   0  0  0  0  0  0  0  0  0  0  0  0
   47.7787    1.0059    8.1829 H   0  0  0  0  0  0  0  0  0  0  0  0
   46.1325    1.2259    7.5397 H   0  0  0  0  0  0  0  0  0  0  0  0
   47.8036    2.0600    6.4383 H   0  0  0  0  0  0  0  0  0  0  0  0
   47.1658    0.9117    7.2170 H   0  0  0  0  0  0  0  0  0  0  0  0
  3  2  1  0
  4  2  2  0
  5  2  1  0
  7  6  1  0
  8  6  2  0
  9  6  1  0
  1 12  1  0
  1 13  1  0
  5 14  1  0
  5 15  1  0
  5 16  1  0
  9 17  1  0
  9 18  1  0
  9 19  1  0
 11 20  1  0
 11 21  1  0
M  CHG  3   3  -1   7  -1  10   2
M  END
> <Uni-Dock RESULT> 
ENERGY=   -5.451  LOWER_BOUND=    1.390  UPPER_BOUND=    2.451
INTER + INTRA:          -5.451
INTER:                  -5.451
INTRA:                   0.000
UNBOUND:                 0.000

$$$$

     RDKit          3D

 21 16  0  0  0  0  0  0  0  0999 V2000
   44.5729    2.8972    8.9530 O   0  0  0  0  0  0  0  0  0  0  0  0
   44.9321    3.5789    8.4051 C   0  0  0  0  0  0  0  0  0  0  0  0
   45.9076    3.7681    7.6255 O   0  0  0  0  0  0  0  0  0  0  0  0
   43.9778    4.3468    8.7099 O   0  0  0  0  0  0  0  0  0  0  0  0
   44.9082    2.2166    9.0761 C   0  0  0  0  0  0  0  0  0  0  0  0
   44.8995    3.5577    8.3650 C   0  0  0  0  0  0  0  0  0  0  0  0
   45.6214    3.6239    7.3317 O   0  0  0  0  0  0  0  0  0  0  0  0
   44.1463    4.4282    8.8847 O   0  0  0  0  0  0  0  0  0  0  0  0
   44.9390    2.2291    9.0999 C   0  0  0  0  0  0  0  0  0  0  0  0
   44.9206    2.7906    8.7917 Zn  0  0  0  0  0 15  0  0  0  0  0  0
   44.5734    2.9035    8.9498 O   0  0  0  0  0  0  0  0  0  0  0  0
   45.1474    3.4202    8.3738 H   0  0  0  0  0  0  0  0  0  0  0  0
   45.0414    2.0544    9.0483 H   0  0  0  0  0  0  0  0  0  0  0  0
   44.0423    2.1128    9.7371 H   0  0  0  0  0  0  0  0  0  0  0  0
   44.8598    1.4303    8.3169 H   0  0  0  0  0  0  0  0  0  0  0  0
   45.8160    2.0807    9.6714 H   0  0  0  0  0  0  0  0  0  0  0  0
   45.6065    1.5184    8.6032 H   0  0  0  0  0  0  0  0  0  0  0  0
   45.2958    2.3820   10.1228 H   0  0  0  0  0  0  0  0  0  0  0  0
   43.9354    1.7948    9.1345 H   0  0  0  0  0  0  0  0  0  0  0  0
   45.1590    3.4133    8.3699 H   0  0  0  0  0  0  0  0  0  0  0  0
   45.0293    2.0550    9.0553 H   0  0  0  0  0  0  0  0  0  0  0  0
  3  2  1  0
  4  2  2  0
  5  2  1  0
  7  6  1  0
  8  6  2  0
  9  6  1  0
  1 12  1  0
  1 13  1  0
  5 14  1  0
  5 15  1  0
  5 16  1  0
  9 17  1  0
  9 18  1  0
  9 19  1  0
 11 20  1  0
 11 21  1  0
M  CHG  3   3  -1   7  -1  10   2
M  END
> <Uni-Dock RESULT> 
ENERGY=   -4.368  LOWER_BOUND=    3.203  UPPER_BOUND=    3.830
INTER + INTRA:          -4.368
INTER:                  -4.368
INTRA:                   0.000
UNBOUND:                 0.000

$$$$

     RDKit          3D

 21 16  0  0  0  0  0  0  0  0999 V2000
   46.0366    3.0768    7.6676 O   0  0  0  0  0  0  0  0  0  0  0  0
   45.3122    3.2758    8.2417 C   0  0  0  0  0  0  0  0  0  0  0  0
   44.5229    4.2287    8.4944 O   0  0  0  0  0  0  0  0  0  0  0  0
   45.3599    2.1124    8.7290 O   0  0  0  0  0  0  0  0  0  0  0  0
   46.3635    3.5818    7.1891 C   0  0  0  0  0  0  0  0  0  0  0  0
   45.2800    3.2552    8.2010 C   0  0  0  0  0  0  0  0  0  0  0  0
   44.2832    4.0294    8.1913 O   0  0  0  0  0  0  0  0  0  0  0  0
   45.5038    2.2306    8.9048 O   0  0  0  0  0  0  0  0  0  0  0  0
   46.3828    3.6049    7.2168 C   0  0  0  0  0  0  0  0  0  0  0  0
   45.9190    3.4552    7.6329 Zn  0  0  0  0  0 15  0  0  0  0  0  0
   46.0317    3.0758    7.6726 O   0  0  0  0  0  0  0  0  0  0  0  0
   45.3328    3.5301    8.1556 H   0  0  0  0  0  0  0  0  0  0  0  0
   46.3875    3.7588    7.0754 H   0  0  0  0  0  0  0  0  0  0  0  0
   47.0153    2.7203    7.0143 H   0  0  0  0  0  0  0  0  0  0  0  0
   45.8771    3.8447    6.2450 H   0  0  0  0  0  0  0  0  0  0  0  0
   46.9821    4.4227    7.5166 H   0  0  0  0  0  0  0  0  0  0  0  0
   46.1318    4.4989    6.6379 H   0  0  0  0  0  0  0  0  0  0  0  0
   47.3155    3.7931    7.7569 H   0  0  0  0  0  0  0  0  0  0  0  0
   46.5359    2.7743    6.5214 H   0  0  0  0  0  0  0  0  0  0  0  0
   45.3313    3.5436    8.1519 H   0  0  0  0  0  0  0  0  0  0  0  0
   46.3939    3.7463    7.0742 H   0  0  0  0  0  0  0  0  0  0  0  0
  3  2  1  0
  4  2  2  0
  5  2  1  0
  7  6  1  0
  8  6  2  0
  9  6  1  0
  1 12  1  0
  1 13  1  0
  5 14  1  0
  5 15  1  0
  5 16  1  0
  9 17  1  0
  9 18  1  0
  9 19  1  0
 11 20  1  0
 11 21  1  0
M  CHG  3   3  -1   7  -1  10   2
M  END
> <Uni-Dock RESULT> 
ENERGY=   -4.351  LOWER_BOUND=    2.409  UPPER_BOUND=    2.717
INTER + INTRA:          -4.351
INTER:                  -4.351
INTRA:                   0.000
UNBOUND:                 0.000

$$$$

     RDKit          3D

 21 16  0  0  0  0  0  0  0  0999 V2000
   44.9691    2.8501    8.3938 O   0  0  0  0  0  0  0  0  0  0  0  0
   44.9133    2.3411    9.1886 C   0  0  0  0  0  0  0  0  0  0  0  0
   44.4739    2.4494   10.3677 O   0  0  0  0  0  0  0  0  0  0  0  0
   45.4650    1.3605    8.6165 O   0  0  0  0  0  0  0  0  0  0  0  0
   44.7503    3.5844    8.3316 C   0  0  0  0  0  0  0  0  0  0  0  0
   44.8646    2.3229    9.1683 C   0  0  0  0  0  0  0  0  0  0  0  0
   44.1172    2.2814   10.1846 O   0  0  0  0  0  0  0  0  0  0  0  0
   45.6747    1.4627    8.7221 O   0  0  0  0  0  0  0  0  0  0  0  0
   44.7806    3.6016    8.3531 C   0  0  0  0  0  0  0  0  0  0  0  0
   44.8179    3.0612    8.6952 Zn  0  0  0  0  0 15  0  0  0  0  0  0
   44.9699    2.8446    8.3982 O   0  0  0  0  0  0  0  0  0  0  0  0
   44.8281    2.5661    9.3095 H   0  0  0  0  0  0  0  0  0  0  0  0
   44.6565    3.7672    8.3825 H   0  0  0  0  0  0  0  0  0  0  0  0
   45.1485    3.4293    7.3242 H   0  0  0  0  0  0  0  0  0  0  0  0
   43.6900    3.8409    8.2486 H   0  0  0  0  0  0  0  0  0  0  0  0
   45.2842    4.4226    8.7893 H   0  0  0  0  0  0  0  0  0  0  0  0
   44.0646    4.3056    8.7881 H   0  0  0  0  0  0  0  0  0  0  0  0
   45.7621    4.0838    8.3179 H   0  0  0  0  0  0  0  0  0  0  0  0
   44.4614    3.3701    7.3325 H   0  0  0  0  0  0  0  0  0  0  0  0
   44.8225    2.5762    9.3175 H   0  0  0  0  0  0  0  0  0  0  0  0
   44.6613    3.7627    8.3700 H   0  0  0  0  0  0  0  0  0  0  0  0
  3  2  1  0
  4  2  2  0
  5  2  1  0
  7  6  1  0
  8  6  2  0
  9  6  1  0
  1 12  1  0
  1 13  1  0
  5 14  1  0
  5 15  1  0
  5 16  1  0
  9 17  1  0
  9 18  1  0
  9 19  1  0
 11 20  1  0
 11 21  1  0
M  CHG  3   3  -1   7  -1  10   2
M  END
> <Uni-Dock RESULT> 
ENERGY=   -4.312  LOWER_BOUND=    2.710  UPPER_BOUND=    3.089
INTER + INTRA:          -4.312
INTER:                  -4.312
INTRA:                   0.000
UNBOUND:                 0.000

$$$$
