
     RDKit          3D

 21 16  0  0  0  0  0  0  0  0999 V2000
   47.2248    2.7571    7.0211 O   0  0  0  0  0  0  0  0  0  0  0  0
   47.7452    2.3310    6.2904 C   0  0  0  0  0  0  0  0  0  0  0  0
   48.1312    1.4111    7.0648 O   0  0  0  0  0  0  0  0  0  0  0  0
   48.0347    2.5466    5.0808 O   0  0  0  0  0  0  0  0  0  0  0  0
   46.7855    3.3287    6.9152 C   0  0  0  0  0  0  0  0  0  0  0  0
   47.6507    2.1897    6.4409 C   0  0  0  0  0  0  0  0  0  0  0  0
   48.2482    2.2389    5.3300 O   0  0  0  0  0  0  0  0  0  0  0  0
   47.6111    1.2645    7.2996 O   0  0  0  0  0  0  0  0  0  0  0  0
   46.8559    3.4316    6.8055 C   0  0  0  0  0  0  0  0  0  0  0  0
   47.1905    2.9065    6.6540 Zn  0  0  0  0  0 15  0  0  0  0  0  0
   47.2246    2.7573    7.0212 O   0  0  0  0  0  0  0  0  0  0  0  0
   46.7629    3.5632    6.7457 H   0  0  0  0  0  0  0  0  0  0  0  0
   47.5837    2.3991    6.1952 H   0  0  0  0  0  0  0  0  0  0  0  0
   46.4861    4.0978    6.1968 H   0  0  0  0  0  0  0  0  0  0  0  0
   47.2642    3.8193    7.7679 H   0  0  0  0  0  0  0  0  0  0  0  0
   45.8863    2.8107    7.2620 H   0  0  0  0  0  0  0  0  0  0  0  0
   46.9281    4.1947    6.0246 H   0  0  0  0  0  0  0  0  0  0  0  0
   45.8016    3.1710    6.9381 H   0  0  0  0  0  0  0  0  0  0  0  0
   47.2377    3.8549    7.7393 H   0  0  0  0  0  0  0  0  0  0  0  0
   47.5838    2.3988    6.1957 H   0  0  0  0  0  0  0  0  0  0  0  0
   46.7630    3.5632    6.7451 H   0  0  0  0  0  0  0  0  0  0  0  0
  3  2  1  0
  4  2  2  0
  5  2  1  0
  7  6  1  0
  8  6  2  0
  9  6  1  0
  1 12  1  0
  1 13  1  0
  5 14  1  0
  5 15  1  0
  5 16  1  0
  9 17  1  0
  9 18  1  0
  9 19  1  0
 11 20  1  0
 11 21  1  0
M  CHG  3   3  -1   7  -1  10   2
M  END
> <Uni-Dock RESULT> 
ENERGY=   -5.706  LOWER_BOUND=    0.000  UPPER_BOUND=    0.000
INTER + INTRA:          -5.706
INTER:                  -5.706
INTRA:                   0.000
UNBOUND:                 0.000

$$$$

     RDKit          3D

 21 16  0  0  0  0  0  0  0  0999 V2000
   47.6114    1.3817    6.8302 O   0  0  0  0  0  0  0  0  0  0  0  0
   47.6188    2.3706    6.7397 C   0  0  0  0  0  0  0  0  0  0  0  0
   48.5242    2.3107    5.8613 O   0  0  0  0  0  0  0  0  0  0  0  0
   47.0623    3.3759    7.2623 O   0  0  0  0  0  0  0  0  0  0  0  0
   47.1275    1.0238    7.2409 C   0  0  0  0  0  0  0  0  0  0  0  0
   47.6587    2.2530    6.5496 C   0  0  0  0  0  0  0  0  0  0  0  0
   47.4242    3.4097    6.9973 O   0  0  0  0  0  0  0  0  0  0  0  0
   48.2885    1.8967    5.5146 O   0  0  0  0  0  0  0  0  0  0  0  0
   47.0997    1.1105    7.3798 C   0  0  0  0  0  0  0  0  0  0  0  0
   47.3365    1.5907    7.0278 Zn  0  0  0  0  0 15  0  0  0  0  0  0
   47.6113    1.3815    6.8303 O   0  0  0  0  0  0  0  0  0  0  0  0
   46.9726    1.0595    7.4837 H   0  0  0  0  0  0  0  0  0  0  0  0
   47.4257    2.3309    6.7695 H   0  0  0  0  0  0  0  0  0  0  0  0
   46.3446    1.1407    7.9963 H   0  0  0  0  0  0  0  0  0  0  0  0
   47.9583    0.4689    7.6869 H   0  0  0  0  0  0  0  0  0  0  0  0
   46.7199    0.4443    6.4072 H   0  0  0  0  0  0  0  0  0  0  0  0
   46.5657    1.4813    8.2600 H   0  0  0  0  0  0  0  0  0  0  0  0
   46.4038    0.5200    6.7764 H   0  0  0  0  0  0  0  0  0  0  0  0
   47.9151    0.4638    7.7169 H   0  0  0  0  0  0  0  0  0  0  0  0
   47.4261    2.3306    6.7691 H   0  0  0  0  0  0  0  0  0  0  0  0
   46.9722    1.0600    7.4839 H   0  0  0  0  0  0  0  0  0  0  0  0
  3  2  1  0
  4  2  2  0
  5  2  1  0
  7  6  1  0
  8  6  2  0
  9  6  1  0
  1 12  1  0
  1 13  1  0
  5 14  1  0
  5 15  1  0
  5 16  1  0
  9 17  1  0
  9 18  1  0
  9 19  1  0
 11 20  1  0
 11 21  1  0
M  CHG  3   3  -1   7  -1  10   2
M  END
> <Uni-Dock RESULT> 
ENERGY=   -5.621  LOWER_BOUND=    0.883  UPPER_BOUND=    1.791
INTER + INTRA:          -5.621
INTER:                  -5.621
INTRA:                   0.000
UNBOUND:                 0.000

$$$$

     RDKit          3D

 21 16  0  0  0  0  0  0  0  0999 V2000
   47.2953    1.8293    7.3011 O   0  0  0  0  0  0  0  0  0  0  0  0
   46.8745    0.9851    7.6117 C   0  0  0  0  0  0  0  0  0  0  0  0
   46.2134    1.6061    8.4905 O   0  0  0  0  0  0  0  0  0  0  0  0
   46.9339   -0.2516    7.3660 O   0  0  0  0  0  0  0  0  0  0  0  0
   47.7274    1.8661    6.7155 C   0  0  0  0  0  0  0  0  0  0  0  0
   46.7442    1.1708    7.6216 C   0  0  0  0  0  0  0  0  0  0  0  0
   46.7299   -0.0866    7.7313 O   0  0  0  0  0  0  0  0  0  0  0  0
   45.9983    2.0396    8.1544 O   0  0  0  0  0  0  0  0  0  0  0  0
   47.8225    1.7301    6.7097 C   0  0  0  0  0  0  0  0  0  0  0  0
   47.3667    1.4967    7.0949 Zn  0  0  0  0  0 15  0  0  0  0  0  0
   47.2955    1.8295    7.3009 O   0  0  0  0  0  0  0  0  0  0  0  0
   47.9176    1.7030    6.5691 H   0  0  0  0  0  0  0  0  0  0  0  0
   46.8872    0.9578    7.4146 H   0  0  0  0  0  0  0  0  0  0  0  0
   48.2729    1.2728    5.9754 H   0  0  0  0  0  0  0  0  0  0  0  0
   48.4536    2.4172    7.3204 H   0  0  0  0  0  0  0  0  0  0  0  0
   47.0914    2.5809    6.1848 H   0  0  0  0  0  0  0  0  0  0  0  0
   48.4339    0.9315    6.2787 H   0  0  0  0  0  0  0  0  0  0  0  0
   47.3614    2.2923    5.8922 H   0  0  0  0  0  0  0  0  0  0  0  0
   48.4768    2.3991    7.2765 H   0  0  0  0  0  0  0  0  0  0  0  0
   46.8871    0.9582    7.4149 H   0  0  0  0  0  0  0  0  0  0  0  0
   47.9176    1.7024    6.5689 H   0  0  0  0  0  0  0  0  0  0  0  0
  3  2  1  0
  4  2  2  0
  5  2  1  0
  7  6  1  0
  8  6  2  0
  9  6  1  0
  1 12  1  0
  1 13  1  0
  5 14  1  0
  5 15  1  0
  5 16  1  0
  9 17  1  0
  9 18  1  0
  9 19  1  0
 11 20  1  0
 11 21  1  0
M  CHG  3   3  -1   7  -1  10   2
M  END
> <Uni-Dock RESULT> 
ENERGY=   -5.598  LOWER_BOUND=    1.454  UPPER_BOUND=    2.256
INTER + INTRA:          -5.598
INTER:                  -5.598
INTRA:                   0.000
UNBOUND:                 0.000

$$$$

     RDKit          3D

 21 16  0  0  0  0  0  0  0  0999 V2000
   47.2522    2.9026    6.3939 O   0  0  0  0  0  0  0  0  0  0  0  0
   47.5364    1.9813    6.6324 C   0  0  0  0  0  0  0  0  0  0  0  0
   48.2267    1.8922    5.5785 O   0  0  0  0  0  0  0  0  0  0  0  0
   47.3225    1.1259    7.5356 O   0  0  0  0  0  0  0  0  0  0  0  0
   46.8620    3.3263    6.8401 C   0  0  0  0  0  0  0  0  0  0  0  0
   47.6900    2.1077    6.5229 C   0  0  0  0  0  0  0  0  0  0  0  0
   47.5268    1.0234    7.1482 O   0  0  0  0  0  0  0  0  0  0  0  0
   48.5170    2.4035    5.6154 O   0  0  0  0  0  0  0  0  0  0  0  0
   46.7497    3.2328    6.9191 C   0  0  0  0  0  0  0  0  0  0  0  0
   47.1476    2.7598    6.7501 Zn  0  0  0  0  0 15  0  0  0  0  0  0
   47.2521    2.9028    6.3939 O   0  0  0  0  0  0  0  0  0  0  0  0
   46.6597    3.3041    7.0470 H   0  0  0  0  0  0  0  0  0  0  0  0
   47.5308    2.0727    6.8095 H   0  0  0  0  0  0  0  0  0  0  0  0
   46.2822    3.3426    7.7679 H   0  0  0  0  0  0  0  0  0  0  0  0
   46.1856    3.5345    6.0058 H   0  0  0  0  0  0  0  0  0  0  0  0
   47.6177    4.1158    6.8906 H   0  0  0  0  0  0  0  0  0  0  0  0
   46.0597    2.9169    7.7075 H   0  0  0  0  0  0  0  0  0  0  0  0
   47.3273    4.0863    7.2865 H   0  0  0  0  0  0  0  0  0  0  0  0
   46.1626    3.5479    6.0514 H   0  0  0  0  0  0  0  0  0  0  0  0
   47.5311    2.0728    6.8090 H   0  0  0  0  0  0  0  0  0  0  0  0
   46.6596    3.3038    7.0475 H   0  0  0  0  0  0  0  0  0  0  0  0
  3  2  1  0
  4  2  2  0
  5  2  1  0
  7  6  1  0
  8  6  2  0
  9  6  1  0
  1 12  1  0
  1 13  1  0
  5 14  1  0
  5 15  1  0
  5 16  1  0
  9 17  1  0
  9 18  1  0
  9 19  1  0
 11 20  1  0
 11 21  1  0
M  CHG  3   3  -1   7  -1  10   2
M  END
> <Uni-Dock RESULT> 
ENERGY=   -5.479  LOWER_BOUND=    0.461  UPPER_BOUND=    1.430
INTER + INTRA:          -5.479
INTER:                  -5.479
INTRA:                   0.000
UNBOUND:                 0.000

$$$$

     RDKit          3D

 21 16  0  0  0  0  0  0  0  0999 V2000
   45.5673    3.8113    7.8516 O   0  0  0  0  0  0  0  0  0  0  0  0
   45.1232    3.1552    8.4503 C   0  0  0  0  0  0  0  0  0  0  0  0
   44.3396    4.0438    8.8878 O   0  0  0  0  0  0  0  0  0  0  0  0
   45.2363    1.9417    8.7788 O   0  0  0  0  0  0  0  0  0  0  0  0
   46.0733    3.6237    7.3620 C   0  0  0  0  0  0  0  0  0  0  0  0
   44.9896    3.3168    8.3632 C   0  0  0  0  0  0  0  0  0  0  0  0
   44.9823    2.2326    9.0095 O   0  0  0  0  0  0  0  0  0  0  0  0
   44.1641    4.2725    8.3740 O   0  0  0  0  0  0  0  0  0  0  0  0
   46.1707    3.5060    7.4271 C   0  0  0  0  0  0  0  0  0  0  0  0
   45.6714    3.4286    7.8213 Zn  0  0  0  0  0 15  0  0  0  0  0  0
   45.5675    3.8114    7.8514 O   0  0  0  0  0  0  0  0  0  0  0  0
   46.2842    3.4280    7.3243 H   0  0  0  0  0  0  0  0  0  0  0  0
   45.1627    3.0465    8.2879 H   0  0  0  0  0  0  0  0  0  0  0  0
   46.7233    2.8113    7.0231 H   0  0  0  0  0  0  0  0  0  0  0  0
   46.7022    4.4340    7.7427 H   0  0  0  0  0  0  0  0  0  0  0  0
   45.5020    3.9904    6.5039 H   0  0  0  0  0  0  0  0  0  0  0  0
   46.8480    2.6473    7.4612 H   0  0  0  0  0  0  0  0  0  0  0  0
   45.8139    3.6246    6.3997 H   0  0  0  0  0  0  0  0  0  0  0  0
   46.7314    4.4004    7.7142 H   0  0  0  0  0  0  0  0  0  0  0  0
   45.1625    3.0470    8.2880 H   0  0  0  0  0  0  0  0  0  0  0  0
   46.2842    3.4273    7.3244 H   0  0  0  0  0  0  0  0  0  0  0  0
  3  2  1  0
  4  2  2  0
  5  2  1  0
  7  6  1  0
  8  6  2  0
  9  6  1  0
  1 12  1  0
  1 13  1  0
  5 14  1  0
  5 15  1  0
  5 16  1  0
  9 17  1  0
  9 18  1  0
  9 19  1  0
 11 20  1  0
 11 21  1  0
M  CHG  3   3  -1   7  -1  10   2
M  END
> <Uni-Dock RESULT> 
ENERGY=   -4.428  LOWER_BOUND=    2.626  UPPER_BOUND=    3.461
INTER + INTRA:          -4.428
INTER:                  -4.428
INTRA:                   0.000
UNBOUND:                 0.000

$$$$

     RDKit          3D

 21 16  0  0  0  0  0  0  0  0999 V2000
   45.8992    3.0409    7.7334 O   0  0  0  0  0  0  0  0  0  0  0  0
   45.1032    3.3188    8.2581 C   0  0  0  0  0  0  0  0  0  0  0  0
   44.9834    2.1585    8.7423 O   0  0  0  0  0  0  0  0  0  0  0  0
   44.3795    4.3410    8.4155 O   0  0  0  0  0  0  0  0  0  0  0  0
   46.3037    3.5080    7.3473 C   0  0  0  0  0  0  0  0  0  0  0  0
   45.2381    3.1646    8.3560 C   0  0  0  0  0  0  0  0  0  0  0  0
   44.2583    3.9333    8.5619 O   0  0  0  0  0  0  0  0  0  0  0  0
   45.5412    2.0713    8.9109 O   0  0  0  0  0  0  0  0  0  0  0  0
   46.2039    3.6199    7.2758 C   0  0  0  0  0  0  0  0  0  0  0  0
   45.7980    3.4256    7.7319 Zn  0  0  0  0  0 15  0  0  0  0  0  0
   45.8994    3.0409    7.7332 O   0  0  0  0  0  0  0  0  0  0  0  0
   46.2757    3.7549    7.1973 H   0  0  0  0  0  0  0  0  0  0  0  0
   45.2190    3.4809    8.2651 H   0  0  0  0  0  0  0  0  0  0  0  0
   46.3545    4.5308    6.9618 H   0  0  0  0  0  0  0  0  0  0  0  0
   46.2366    2.8213    6.4983 H   0  0  0  0  0  0  0  0  0  0  0  0
   47.2247    3.3007    7.9003 H   0  0  0  0  0  0  0  0  0  0  0  0
   45.8892    4.5704    6.8343 H   0  0  0  0  0  0  0  0  0  0  0  0
   47.2026    3.7507    7.7029 H   0  0  0  0  0  0  0  0  0  0  0  0
   46.2524    2.8689    6.4817 H   0  0  0  0  0  0  0  0  0  0  0  0
   45.2191    3.4803    8.2652 H   0  0  0  0  0  0  0  0  0  0  0  0
   46.2754    3.7554    7.1975 H   0  0  0  0  0  0  0  0  0  0  0  0
  3  2  1  0
  4  2  2  0
  5  2  1  0
  7  6  1  0
  8  6  2  0
  9  6  1  0
  1 12  1  0
  1 13  1  0
  5 14  1  0
  5 15  1  0
  5 16  1  0
  9 17  1  0
  9 18  1  0
  9 19  1  0
 11 20  1  0
 11 21  1  0
M  CHG  3   3  -1   7  -1  10   2
M  END
> <Uni-Dock RESULT> 
ENERGY=   -4.304  LOWER_BOUND=    2.306  UPPER_BOUND=    3.151
INTER + INTRA:          -4.304
INTER:                  -4.304
INTRA:                   0.000
UNBOUND:                 0.000

$$$$

     RDKit          3D

 21 16  0  0  0  0  0  0  0  0999 V2000
   45.0047    2.8601    8.3837 O   0  0  0  0  0  0  0  0  0  0  0  0
   44.7574    2.3546    9.2019 C   0  0  0  0  0  0  0  0  0  0  0  0
   45.3139    1.3112    8.7586 O   0  0  0  0  0  0  0  0  0  0  0  0
   44.1108    2.5363   10.2707 O   0  0  0  0  0  0  0  0  0  0  0  0
   44.8891    3.5755    8.3082 C   0  0  0  0  0  0  0  0  0  0  0  0
   44.9563    2.2996    9.1072 C   0  0  0  0  0  0  0  0  0  0  0  0
   44.2366    2.1280   10.1300 O   0  0  0  0  0  0  0  0  0  0  0  0
   45.8294    1.5447    8.5945 O   0  0  0  0  0  0  0  0  0  0  0  0
   44.7431    3.6144    8.3773 C   0  0  0  0  0  0  0  0  0  0  0  0
   44.8350    3.0590    8.6834 Zn  0  0  0  0  0 15  0  0  0  0  0  0
   45.0047    2.8603    8.3835 O   0  0  0  0  0  0  0  0  0  0  0  0
   44.7022    3.7806    8.3933 H   0  0  0  0  0  0  0  0  0  0  0  0
   44.7980    2.5364    9.2733 H   0  0  0  0  0  0  0  0  0  0  0  0
   44.3901    4.4456    8.7455 H   0  0  0  0  0  0  0  0  0  0  0  0
   44.4370    3.3714    7.3330 H   0  0  0  0  0  0  0  0  0  0  0  0
   45.9464    3.8184    8.1661 H   0  0  0  0  0  0  0  0  0  0  0  0
   43.9778    4.2234    8.8680 H   0  0  0  0  0  0  0  0  0  0  0  0
   45.6777    4.1830    8.3578 H   0  0  0  0  0  0  0  0  0  0  0  0
   44.4238    3.4200    7.3492 H   0  0  0  0  0  0  0  0  0  0  0  0
   44.7982    2.5360    9.2729 H   0  0  0  0  0  0  0  0  0  0  0  0
   44.7019    3.7807    8.3938 H   0  0  0  0  0  0  0  0  0  0  0  0
  3  2  1  0
  4  2  2  0
  5  2  1  0
  7  6  1  0
  8  6  2  0
  9  6  1  0
  1 12  1  0
  1 13  1  0
  5 14  1  0
  5 15  1  0
  5 16  1  0
  9 17  1  0
  9 18  1  0
  9 19  1  0
 11 20  1  0
 11 21  1  0
M  CHG  3   3  -1   7  -1  10   2
M  END
> <Uni-Dock RESULT> 
ENERGY=   -4.290  LOWER_BOUND=    3.131  UPPER_BOUND=    3.871
INTER + INTRA:          -4.290
INTER:                  -4.290
INTRA:                   0.000
UNBOUND:                 0.000

$$$$

     RDKit          3D

 21 16  0  0  0  0  0  0  0  0999 V2000
   45.2012    2.6918    8.6188 O   0  0  0  0  0  0  0  0  0  0  0  0
   44.8160    3.6005    8.5088 C   0  0  0  0  0  0  0  0  0  0  0  0
   45.6159    3.8550    7.5652 O   0  0  0  0  0  0  0  0  0  0  0  0
   43.9449    4.3345    9.0527 O   0  0  0  0  0  0  0  0  0  0  0  0
   44.9224    2.1941    9.0721 C   0  0  0  0  0  0  0  0  0  0  0  0
   44.8867    3.4986    8.3185 C   0  0  0  0  0  0  0  0  0  0  0  0
   44.2474    4.4934    8.7603 O   0  0  0  0  0  0  0  0  0  0  0  0
   45.5395    3.3660    7.2456 O   0  0  0  0  0  0  0  0  0  0  0  0
   44.8716    2.2697    9.2110 C   0  0  0  0  0  0  0  0  0  0  0  0
   44.8795    2.7868    8.8327 Zn  0  0  0  0  0 15  0  0  0  0  0  0
   45.2012    2.6915    8.6190 O   0  0  0  0  0  0  0  0  0  0  0  0
   44.7814    2.1783    9.3252 H   0  0  0  0  0  0  0  0  0  0  0  0
   44.6560    3.4903    8.5540 H   0  0  0  0  0  0  0  0  0  0  0  0
   44.2050    2.0337    9.8825 H   0  0  0  0  0  0  0  0  0  0  0  0
   45.9301    2.0272    9.4641 H   0  0  0  0  0  0  0  0  0  0  0  0
   44.7223    1.4628    8.2833 H   0  0  0  0  0  0  0  0  0  0  0  0
   44.2915    2.4455   10.1219 H   0  0  0  0  0  0  0  0  0  0  0  0
   44.4255    1.4273    8.6739 H   0  0  0  0  0  0  0  0  0  0  0  0
   45.8943    2.0072    9.4974 H   0  0  0  0  0  0  0  0  0  0  0  0
   44.6565    3.4902    8.5536 H   0  0  0  0  0  0  0  0  0  0  0  0
   44.7809    2.1787    9.3254 H   0  0  0  0  0  0  0  0  0  0  0  0
  3  2  1  0
  4  2  2  0
  5  2  1  0
  7  6  1  0
  8  6  2  0
  9  6  1  0
  1 12  1  0
  1 13  1  0
  5 14  1  0
  5 15  1  0
  5 16  1  0
  9 17  1  0
  9 18  1  0
  9 19  1  0
 11 20  1  0
 11 21  1  0
M  CHG  3   3  -1   7  -1  10   2
M  END
> <Uni-Dock RESULT> 
ENERGY=   -4.256  LOWER_BOUND=    2.986  UPPER_BOUND=    3.834
INTER + INTRA:          -4.256
INTER:                  -4.256
INTRA:                   0.000
UNBOUND:                 0.000

$$$$

     RDKit          3D

 21 16  0  0  0  0  0  0  0  0999 V2000
   43.0134    4.2589   12.0809 O   0  0  0  0  0  0  0  0  0  0  0  0
   42.8359    5.2198   11.9035 C   0  0  0  0  0  0  0  0  0  0  0  0
   42.5209    5.4126   13.1112 O   0  0  0  0  0  0  0  0  0  0  0  0
   42.8264    6.0187   10.9262 O   0  0  0  0  0  0  0  0  0  0  0  0
   43.2959    3.8083   11.5828 C   0  0  0  0  0  0  0  0  0  0  0  0
   42.9219    5.1705   12.1078 C   0  0  0  0  0  0  0  0  0  0  0  0
   42.6453    6.1214   11.3250 O   0  0  0  0  0  0  0  0  0  0  0  0
   42.9810    5.1500   13.3692 O   0  0  0  0  0  0  0  0  0  0  0  0
   43.2318    3.8450   11.4341 C   0  0  0  0  0  0  0  0  0  0  0  0
   43.1015    4.4030   11.7207 Zn  0  0  0  0  0 15  0  0  0  0  0  0
   43.0135    4.2586   12.0808 O   0  0  0  0  0  0  0  0  0  0  0  0
   43.2986    3.7684   11.2954 H   0  0  0  0  0  0  0  0  0  0  0  0
   42.9923    5.1817   11.7859 H   0  0  0  0  0  0  0  0  0  0  0  0
   43.5561    3.7043   10.5251 H   0  0  0  0  0  0  0  0  0  0  0  0
   42.4977    3.0968   11.8143 H   0  0  0  0  0  0  0  0  0  0  0  0
   44.1774    3.5608   12.1818 H   0  0  0  0  0  0  0  0  0  0  0  0
   43.1654    3.9261   10.3449 H   0  0  0  0  0  0  0  0  0  0  0  0
   44.2445    3.5241   11.6959 H   0  0  0  0  0  0  0  0  0  0  0  0
   42.5203    3.0841   11.7683 H   0  0  0  0  0  0  0  0  0  0  0  0
   42.9922    5.1816   11.7865 H   0  0  0  0  0  0  0  0  0  0  0  0
   43.2987    3.7688   11.2949 H   0  0  0  0  0  0  0  0  0  0  0  0
  3  2  1  0
  4  2  2  0
  5  2  1  0
  7  6  1  0
  8  6  2  0
  9  6  1  0
  1 12  1  0
  1 13  1  0
  5 14  1  0
  5 15  1  0
  5 16  1  0
  9 17  1  0
  9 18  1  0
  9 19  1  0
 11 20  1  0
 11 21  1  0
M  CHG  3   3  -1   7  -1  10   2
M  END
> <Uni-Dock RESULT> 
ENERGY=   -4.177  LOWER_BOUND=    7.137  UPPER_BOUND=    7.659
INTER + INTRA:          -4.177
INTER:                  -4.177
INTRA:                   0.000
UNBOUND:                 0.000

$$$$
