
     RDKit          3D

 21 16  0  0  0  0  0  0  0  0999 V2000
   47.6207    1.4672    6.8746 O   0  0  0  0  0  0  0  0  0  0  0  0
   47.4765    2.2531    6.4312 C   0  0  0  0  0  0  0  0  0  0  0  0
   46.8457    3.3305    6.6168 O   0  0  0  0  0  0  0  0  0  0  0  0
   48.3879    1.9802    5.6003 O   0  0  0  0  0  0  0  0  0  0  0  0
   47.0832    1.1053    7.3448 C   0  0  0  0  0  0  0  0  0  0  0  0
   47.4674    2.3255    6.5337 C   0  0  0  0  0  0  0  0  0  0  0  0
   48.7046    2.5149    6.3709 O   0  0  0  0  0  0  0  0  0  0  0  0
   46.4851    3.0358    6.1790 O   0  0  0  0  0  0  0  0  0  0  0  0
   47.0978    1.0487    7.2684 C   0  0  0  0  0  0  0  0  0  0  0  0
   47.2510    1.5880    6.9582 Zn  0  0  0  0  0 15  0  0  0  0  0  0
   47.6205    1.4663    6.8751 O   0  0  0  0  0  0  0  0  0  0  0  0
   47.2043    2.3130    6.6507 H   0  0  0  0  0  0  0  0  0  0  0  0
   46.9280    0.9837    7.3493 H   0  0  0  0  0  0  0  0  0  0  0  0
   46.7208    0.2636    6.7473 H   0  0  0  0  0  0  0  0  0  0  0  0
   46.2920    1.4021    8.0400 H   0  0  0  0  0  0  0  0  0  0  0  0
   47.9511    0.7807    7.9267 H   0  0  0  0  0  0  0  0  0  0  0  0
   47.9882    0.4778    7.5486 H   0  0  0  0  0  0  0  0  0  0  0  0
   46.4717    0.4205    6.6276 H   0  0  0  0  0  0  0  0  0  0  0  0
   46.5424    1.2926    8.1789 H   0  0  0  0  0  0  0  0  0  0  0  0
   47.2062    2.3129    6.6500 H   0  0  0  0  0  0  0  0  0  0  0  0
   46.9264    0.9847    7.3494 H   0  0  0  0  0  0  0  0  0  0  0  0
  3  2  1  0
  4  2  2  0
  5  2  1  0
  7  6  1  0
  8  6  2  0
  9  6  1  0
  1 12  1  0
  1 13  1  0
  5 14  1  0
  5 15  1  0
  5 16  1  0
  9 17  1  0
  9 18  1  0
  9 19  1  0
 11 20  1  0
 11 21  1  0
M  CHG  3   3  -1   7  -1  10   2
M  END
> <Uni-Dock RESULT> 
ENERGY=   -5.880  LOWER_BOUND=    0.000  UPPER_BOUND=    0.000
INTER + INTRA:          -5.880
INTER:                  -5.880
INTRA:                   0.000
UNBOUND:                 0.000

$$$$

     RDKit          3D

 21 16  0  0  0  0  0  0  0  0999 V2000
   47.3316    2.9027    6.5293 O   0  0  0  0  0  0  0  0  0  0  0  0
   47.6249    2.0525    6.6909 C   0  0  0  0  0  0  0  0  0  0  0  0
   47.1236    0.9119    6.8929 O   0  0  0  0  0  0  0  0  0  0  0  0
   48.8071    2.3758    6.3856 O   0  0  0  0  0  0  0  0  0  0  0  0
   46.6630    3.2189    6.8360 C   0  0  0  0  0  0  0  0  0  0  0  0
   47.5302    1.9937    6.6327 C   0  0  0  0  0  0  0  0  0  0  0  0
   48.2887    2.0136    5.6240 O   0  0  0  0  0  0  0  0  0  0  0  0
   47.3271    1.0759    7.4762 O   0  0  0  0  0  0  0  0  0  0  0  0
   46.7377    3.2667    6.8735 C   0  0  0  0  0  0  0  0  0  0  0  0
   47.0709    2.7285    6.7741 Zn  0  0  0  0  0 15  0  0  0  0  0  0
   47.3312    2.9036    6.5295 O   0  0  0  0  0  0  0  0  0  0  0  0
   47.2971    1.9732    6.8009 H   0  0  0  0  0  0  0  0  0  0  0  0
   46.5839    3.3097    6.9921 H   0  0  0  0  0  0  0  0  0  0  0  0
   47.0157    3.8947    7.6207 H   0  0  0  0  0  0  0  0  0  0  0  0
   45.6579    2.8764    7.1003 H   0  0  0  0  0  0  0  0  0  0  0  0
   46.6037    3.7699    5.8925 H   0  0  0  0  0  0  0  0  0  0  0  0
   46.9558    4.0223    6.1126 H   0  0  0  0  0  0  0  0  0  0  0  0
   46.9904    3.6806    7.8542 H   0  0  0  0  0  0  0  0  0  0  0  0
   45.6662    3.0470    6.8457 H   0  0  0  0  0  0  0  0  0  0  0  0
   47.2986    1.9736    6.7997 H   0  0  0  0  0  0  0  0  0  0  0  0
   46.5829    3.3084    6.9932 H   0  0  0  0  0  0  0  0  0  0  0  0
  3  2  1  0
  4  2  2  0
  5  2  1  0
  7  6  1  0
  8  6  2  0
  9  6  1  0
  1 12  1  0
  1 13  1  0
  5 14  1  0
  5 15  1  0
  5 16  1  0
  9 17  1  0
  9 18  1  0
  9 19  1  0
 11 20  1  0
 11 21  1  0
M  CHG  3   3  -1   7  -1  10   2
M  END
> <Uni-Dock RESULT> 
ENERGY=   -5.738  LOWER_BOUND=    0.799  UPPER_BOUND=    1.663
INTER + INTRA:          -5.738
INTER:                  -5.738
INTRA:                   0.000
UNBOUND:                 0.000

$$$$

     RDKit          3D

 21 16  0  0  0  0  0  0  0  0999 V2000
   47.1316    2.6837    6.9596 O   0  0  0  0  0  0  0  0  0  0  0  0
   47.5954    2.2360    6.3118 C   0  0  0  0  0  0  0  0  0  0  0  0
   48.4168    2.5066    5.3925 O   0  0  0  0  0  0  0  0  0  0  0  0
   47.3002    1.1244    6.8338 O   0  0  0  0  0  0  0  0  0  0  0  0
   46.8438    3.4266    6.8814 C   0  0  0  0  0  0  0  0  0  0  0  0
   47.6961    2.3113    6.3122 C   0  0  0  0  0  0  0  0  0  0  0  0
   48.1643    1.4904    7.1489 O   0  0  0  0  0  0  0  0  0  0  0  0
   47.8800    2.3916    5.0652 O   0  0  0  0  0  0  0  0  0  0  0  0
   46.7686    3.3670    6.8885 C   0  0  0  0  0  0  0  0  0  0  0  0
   47.1596    2.9227    6.6429 Zn  0  0  0  0  0 15  0  0  0  0  0  0
   47.1310    2.6843    6.9600 O   0  0  0  0  0  0  0  0  0  0  0  0
   47.6534    2.5486    6.1543 H   0  0  0  0  0  0  0  0  0  0  0  0
   46.6938    3.5358    6.8146 H   0  0  0  0  0  0  0  0  0  0  0  0
   45.7680    3.2889    6.7379 H   0  0  0  0  0  0  0  0  0  0  0  0
   47.1418    4.3582    6.3907 H   0  0  0  0  0  0  0  0  0  0  0  0
   47.0509    3.5180    7.9519 H   0  0  0  0  0  0  0  0  0  0  0  0
   46.6490    3.2456    7.9693 H   0  0  0  0  0  0  0  0  0  0  0  0
   45.7827    3.2892    6.4205 H   0  0  0  0  0  0  0  0  0  0  0  0
   47.1763    4.3637    6.6953 H   0  0  0  0  0  0  0  0  0  0  0  0
   47.6536    2.5471    6.1556 H   0  0  0  0  0  0  0  0  0  0  0  0
   46.6942    3.5366    6.8129 H   0  0  0  0  0  0  0  0  0  0  0  0
  3  2  1  0
  4  2  2  0
  5  2  1  0
  7  6  1  0
  8  6  2  0
  9  6  1  0
  1 12  1  0
  1 13  1  0
  5 14  1  0
  5 15  1  0
  5 16  1  0
  9 17  1  0
  9 18  1  0
  9 19  1  0
 11 20  1  0
 11 21  1  0
M  CHG  3   3  -1   7  -1  10   2
M  END
> <Uni-Dock RESULT> 
ENERGY=   -5.713  LOWER_BOUND=    0.988  UPPER_BOUND=    1.662
INTER + INTRA:          -5.713
INTER:                  -5.713
INTRA:                   0.000
UNBOUND:                 0.000

$$$$

     RDKit          3D

 21 16  0  0  0  0  0  0  0  0999 V2000
   47.4649    2.1773    6.8936 O   0  0  0  0  0  0  0  0  0  0  0  0
   46.9907    1.4822    7.2500 C   0  0  0  0  0  0  0  0  0  0  0  0
   47.2046    0.2933    7.6157 O   0  0  0  0  0  0  0  0  0  0  0  0
   46.0143    2.2437    7.4990 O   0  0  0  0  0  0  0  0  0  0  0  0
   48.0706    2.0964    6.3762 C   0  0  0  0  0  0  0  0  0  0  0  0
   47.0856    1.4334    7.3167 C   0  0  0  0  0  0  0  0  0  0  0  0
   46.6461    2.1534    8.2556 O   0  0  0  0  0  0  0  0  0  0  0  0
   46.8831    0.2115    7.0693 O   0  0  0  0  0  0  0  0  0  0  0  0
   47.9984    2.1402    6.3299 C   0  0  0  0  0  0  0  0  0  0  0  0
   47.6136    1.8397    6.7448 Zn  0  0  0  0  0 15  0  0  0  0  0  0
   47.4655    2.1779    6.8929 O   0  0  0  0  0  0  0  0  0  0  0  0
   47.2565    1.2677    7.1543 H   0  0  0  0  0  0  0  0  0  0  0  0
   48.1193    2.0741    6.1865 H   0  0  0  0  0  0  0  0  0  0  0  0
   47.6455    2.3868    5.4109 H   0  0  0  0  0  0  0  0  0  0  0  0
   48.8873    1.3908    6.1964 H   0  0  0  0  0  0  0  0  0  0  0  0
   48.4822    2.9846    6.8650 H   0  0  0  0  0  0  0  0  0  0  0  0
   48.1350    3.1927    6.5963 H   0  0  0  0  0  0  0  0  0  0  0  0
   47.5674    2.0908    5.3255 H   0  0  0  0  0  0  0  0  0  0  0  0
   48.9794    1.6558    6.3201 H   0  0  0  0  0  0  0  0  0  0  0  0
   47.2555    1.2690    7.1553 H   0  0  0  0  0  0  0  0  0  0  0  0
   48.1197    2.0722    6.1861 H   0  0  0  0  0  0  0  0  0  0  0  0
  3  2  1  0
  4  2  2  0
  5  2  1  0
  7  6  1  0
  8  6  2  0
  9  6  1  0
  1 12  1  0
  1 13  1  0
  5 14  1  0
  5 15  1  0
  5 16  1  0
  9 17  1  0
  9 18  1  0
  9 19  1  0
 11 20  1  0
 11 21  1  0
M  CHG  3   3  -1   7  -1  10   2
M  END
> <Uni-Dock RESULT> 
ENERGY=   -5.438  LOWER_BOUND=    1.062  UPPER_BOUND=    2.059
INTER + INTRA:          -5.438
INTER:                  -5.438
INTRA:                   0.000
UNBOUND:                 0.000

$$$$

     RDKit          3D

 21 16  0  0  0  0  0  0  0  0999 V2000
   45.3047    2.6710    8.5361 O   0  0  0  0  0  0  0  0  0  0  0  0
   45.0350    3.5105    8.2960 C   0  0  0  0  0  0  0  0  0  0  0  0
   44.5761    4.5429    8.8586 O   0  0  0  0  0  0  0  0  0  0  0  0
   45.5368    3.3695    7.1455 O   0  0  0  0  0  0  0  0  0  0  0  0
   44.9772    2.2396    9.1257 C   0  0  0  0  0  0  0  0  0  0  0  0
   45.0698    3.5673    8.4026 C   0  0  0  0  0  0  0  0  0  0  0  0
   46.1529    3.7923    7.7948 O   0  0  0  0  0  0  0  0  0  0  0  0
   44.0604    4.3096    8.5618 O   0  0  0  0  0  0  0  0  0  0  0  0
   44.9582    2.1945    9.0427 C   0  0  0  0  0  0  0  0  0  0  0  0
   45.0028    2.7743    8.7736 Zn  0  0  0  0  0 15  0  0  0  0  0  0
   45.3047    2.6701    8.5365 O   0  0  0  0  0  0  0  0  0  0  0  0
   44.8729    3.5352    8.6106 H   0  0  0  0  0  0  0  0  0  0  0  0
   44.8307    2.1167    9.1741 H   0  0  0  0  0  0  0  0  0  0  0  0
   44.3726    1.4876    8.6100 H   0  0  0  0  0  0  0  0  0  0  0  0
   44.5341    2.4250   10.1088 H   0  0  0  0  0  0  0  0  0  0  0  0
   45.9875    1.8453    9.2704 H   0  0  0  0  0  0  0  0  0  0  0  0
   45.8605    1.5998    8.8708 H   0  0  0  0  0  0  0  0  0  0  0  0
   44.1040    1.6571    8.6202 H   0  0  0  0  0  0  0  0  0  0  0  0
   44.8136    2.2996   10.1221 H   0  0  0  0  0  0  0  0  0  0  0  0
   44.8743    3.5352    8.6093 H   0  0  0  0  0  0  0  0  0  0  0  0
   44.8293    2.1177    9.1750 H   0  0  0  0  0  0  0  0  0  0  0  0
  3  2  1  0
  4  2  2  0
  5  2  1  0
  7  6  1  0
  8  6  2  0
  9  6  1  0
  1 12  1  0
  1 13  1  0
  5 14  1  0
  5 15  1  0
  5 16  1  0
  9 17  1  0
  9 18  1  0
  9 19  1  0
 11 20  1  0
 11 21  1  0
M  CHG  3   3  -1   7  -1  10   2
M  END
> <Uni-Dock RESULT> 
ENERGY=   -4.386  LOWER_BOUND=    2.883  UPPER_BOUND=    3.249
INTER + INTRA:          -4.386
INTER:                  -4.386
INTRA:                   0.000
UNBOUND:                 0.000

$$$$

     RDKit          3D

 21 16  0  0  0  0  0  0  0  0999 V2000
   42.8751    4.7747   11.4669 O   0  0  0  0  0  0  0  0  0  0  0  0
   42.7617    5.3285   12.1849 C   0  0  0  0  0  0  0  0  0  0  0  0
   43.3934    5.6473   13.2301 O   0  0  0  0  0  0  0  0  0  0  0  0
   41.7851    5.8987   11.6223 O   0  0  0  0  0  0  0  0  0  0  0  0
   43.2463    4.0659   11.4936 C   0  0  0  0  0  0  0  0  0  0  0  0
   42.8835    5.3550   12.2015 C   0  0  0  0  0  0  0  0  0  0  0  0
   42.6516    6.3483   11.4581 O   0  0  0  0  0  0  0  0  0  0  0  0
   42.9260    5.2778   13.4614 O   0  0  0  0  0  0  0  0  0  0  0  0
   43.1536    4.0494   11.4740 C   0  0  0  0  0  0  0  0  0  0  0  0
   43.0400    4.5989   11.7833 Zn  0  0  0  0  0 15  0  0  0  0  0  0
   42.8752    4.7739   11.4663 O   0  0  0  0  0  0  0  0  0  0  0  0
   43.0190    5.1481   12.3494 H   0  0  0  0  0  0  0  0  0  0  0  0
   43.2257    3.8739   11.5337 H   0  0  0  0  0  0  0  0  0  0  0  0
   42.4362    3.3318   11.4522 H   0  0  0  0  0  0  0  0  0  0  0  0
   44.0913    3.6189   12.0263 H   0  0  0  0  0  0  0  0  0  0  0  0
   43.5656    4.3010   10.4738 H   0  0  0  0  0  0  0  0  0  0  0  0
   43.1029    4.1797   10.3887 H   0  0  0  0  0  0  0  0  0  0  0  0
   42.4112    3.3012   11.7675 H   0  0  0  0  0  0  0  0  0  0  0  0
   44.1509    3.6809   11.7319 H   0  0  0  0  0  0  0  0  0  0  0  0
   43.0182    5.1493   12.3481 H   0  0  0  0  0  0  0  0  0  0  0  0
   43.2264    3.8735   11.5355 H   0  0  0  0  0  0  0  0  0  0  0  0
  3  2  1  0
  4  2  2  0
  5  2  1  0
  7  6  1  0
  8  6  2  0
  9  6  1  0
  1 12  1  0
  1 13  1  0
  5 14  1  0
  5 15  1  0
  5 16  1  0
  9 17  1  0
  9 18  1  0
  9 19  1  0
 11 20  1  0
 11 21  1  0
M  CHG  3   3  -1   7  -1  10   2
M  END
> <Uni-Dock RESULT> 
ENERGY=   -4.282  LOWER_BOUND=    7.188  UPPER_BOUND=    7.824
INTER + INTRA:          -4.282
INTER:                  -4.282
INTRA:                   0.000
UNBOUND:                 0.000

$$$$

     RDKit          3D

 21 16  0  0  0  0  0  0  0  0999 V2000
   43.1934    4.4766   12.1535 O   0  0  0  0  0  0  0  0  0  0  0  0
   42.8868    5.3361   12.2032 C   0  0  0  0  0  0  0  0  0  0  0  0
   41.9579    6.0289   11.7030 O   0  0  0  0  0  0  0  0  0  0  0  0
   43.6194    5.5657   13.2062 O   0  0  0  0  0  0  0  0  0  0  0  0
   43.1714    4.0236   11.4938 C   0  0  0  0  0  0  0  0  0  0  0  0
   42.7654    5.3086   12.1853 C   0  0  0  0  0  0  0  0  0  0  0  0
   42.7072    5.2647   13.4454 O   0  0  0  0  0  0  0  0  0  0  0  0
   42.4722    6.2472   11.3926 O   0  0  0  0  0  0  0  0  0  0  0  0
   43.2639    4.0406   11.5143 C   0  0  0  0  0  0  0  0  0  0  0  0
   43.0533    4.5768   11.7949 Zn  0  0  0  0  0 15  0  0  0  0  0  0
   43.1938    4.4758   12.1531 O   0  0  0  0  0  0  0  0  0  0  0  0
   42.7031    5.2749   11.9059 H   0  0  0  0  0  0  0  0  0  0  0  0
   43.2635    3.9787   11.3253 H   0  0  0  0  0  0  0  0  0  0  0  0
   44.2052    4.0124   11.1359 H   0  0  0  0  0  0  0  0  0  0  0  0
   42.5069    3.8816   10.6361 H   0  0  0  0  0  0  0  0  0  0  0  0
   43.0258    3.1890   12.1861 H   0  0  0  0  0  0  0  0  0  0  0  0
   43.5011    3.2666   12.2505 H   0  0  0  0  0  0  0  0  0  0  0  0
   44.1678    4.2576   10.9372 H   0  0  0  0  0  0  0  0  0  0  0  0
   42.4958    3.6521   10.8390 H   0  0  0  0  0  0  0  0  0  0  0  0
   42.7036    5.2749   11.9078 H   0  0  0  0  0  0  0  0  0  0  0  0
   43.2626    3.9796   11.3237 H   0  0  0  0  0  0  0  0  0  0  0  0
  3  2  1  0
  4  2  2  0
  5  2  1  0
  7  6  1  0
  8  6  2  0
  9  6  1  0
  1 12  1  0
  1 13  1  0
  5 14  1  0
  5 15  1  0
  5 16  1  0
  9 17  1  0
  9 18  1  0
  9 19  1  0
 11 20  1  0
 11 21  1  0
M  CHG  3   3  -1   7  -1  10   2
M  END
> <Uni-Dock RESULT> 
ENERGY=   -4.219  LOWER_BOUND=    7.231  UPPER_BOUND=    7.806
INTER + INTRA:          -4.219
INTER:                  -4.219
INTRA:                   0.000
UNBOUND:                 0.000

$$$$

     RDKit          3D

 21 16  0  0  0  0  0  0  0  0999 V2000
   42.7672    4.8893   11.5935 O   0  0  0  0  0  0  0  0  0  0  0  0
   43.2538    4.3043   12.0996 C   0  0  0  0  0  0  0  0  0  0  0  0
   43.3489    3.9711   13.3133 O   0  0  0  0  0  0  0  0  0  0  0  0
   43.6729    3.7174   11.0627 O   0  0  0  0  0  0  0  0  0  0  0  0
   42.5239    5.6108   11.8408 C   0  0  0  0  0  0  0  0  0  0  0  0
   43.1643    4.2821   12.1852 C   0  0  0  0  0  0  0  0  0  0  0  0
   42.8549    3.3095   11.4426 O   0  0  0  0  0  0  0  0  0  0  0  0
   43.8819    4.3125   13.2241 O   0  0  0  0  0  0  0  0  0  0  0  0
   42.5876    5.6244   11.7699 C   0  0  0  0  0  0  0  0  0  0  0  0
   42.8322    5.0593   11.9472 Zn  0  0  0  0  0 15  0  0  0  0  0  0
   42.7668    4.8901   11.5932 O   0  0  0  0  0  0  0  0  0  0  0  0
   43.1546    4.4884   12.3861 H   0  0  0  0  0  0  0  0  0  0  0  0
   42.5748    5.8002   11.8621 H   0  0  0  0  0  0  0  0  0  0  0  0
   43.1903    6.3129   11.3311 H   0  0  0  0  0  0  0  0  0  0  0  0
   42.1858    6.0705   12.7745 H   0  0  0  0  0  0  0  0  0  0  0  0
   41.6496    5.4280   11.2088 H   0  0  0  0  0  0  0  0  0  0  0  0
   41.9774    5.5339   10.8662 H   0  0  0  0  0  0  0  0  0  0  0  0
   43.3992    6.3304   11.5699 H   0  0  0  0  0  0  0  0  0  0  0  0
   41.9600    6.0223   12.5728 H   0  0  0  0  0  0  0  0  0  0  0  0
   43.1545    4.4872   12.3846 H   0  0  0  0  0  0  0  0  0  0  0  0
   42.5753    5.8005   11.8639 H   0  0  0  0  0  0  0  0  0  0  0  0
  3  2  1  0
  4  2  2  0
  5  2  1  0
  7  6  1  0
  8  6  2  0
  9  6  1  0
  1 12  1  0
  1 13  1  0
  5 14  1  0
  5 15  1  0
  5 16  1  0
  9 17  1  0
  9 18  1  0
  9 19  1  0
 11 20  1  0
 11 21  1  0
M  CHG  3   3  -1   7  -1  10   2
M  END
> <Uni-Dock RESULT> 
ENERGY=   -3.903  LOWER_BOUND=    7.020  UPPER_BOUND=    7.592
INTER + INTRA:          -3.903
INTER:                  -3.903
INTRA:                   0.000
UNBOUND:                 0.000

$$$$

     RDKit          3D

 21 16  0  0  0  0  0  0  0  0999 V2000
   41.1547   15.9143   23.9265 O   0  0  0  0  0  0  0  0  0  0  0  0
   40.9132   16.2886   23.1286 C   0  0  0  0  0  0  0  0  0  0  0  0
   41.3431   16.3224   21.9424 O   0  0  0  0  0  0  0  0  0  0  0  0
   39.7780   16.5968   23.5885 O   0  0  0  0  0  0  0  0  0  0  0  0
   41.9104   15.8034   24.1664 C   0  0  0  0  0  0  0  0  0  0  0  0
   40.9585   16.1966   23.0558 C   0  0  0  0  0  0  0  0  0  0  0  0
   39.7926   15.7190   23.1311 O   0  0  0  0  0  0  0  0  0  0  0  0
   41.4865   16.9078   22.1554 O   0  0  0  0  0  0  0  0  0  0  0  0
   41.8706   15.8686   24.2250 C   0  0  0  0  0  0  0  0  0  0  0  0
   41.4878   16.0084   23.7305 Zn  0  0  0  0  0 15  0  0  0  0  0  0
   41.1553   15.9140   23.9273 O   0  0  0  0  0  0  0  0  0  0  0  0
   41.2421   16.2237   23.0124 H   0  0  0  0  0  0  0  0  0  0  0  0
   42.0667   15.8873   24.2527 H   0  0  0  0  0  0  0  0  0  0  0  0
   42.0767   16.5846   24.9141 H   0  0  0  0  0  0  0  0  0  0  0  0
   42.8721   15.5525   23.7086 H   0  0  0  0  0  0  0  0  0  0  0  0
   41.5214   14.9108   24.6653 H   0  0  0  0  0  0  0  0  0  0  0  0
   41.3582   15.2523   24.9699 H   0  0  0  0  0  0  0  0  0  0  0  0
   42.2001   16.7931   24.7085 H   0  0  0  0  0  0  0  0  0  0  0  0
   42.7484   15.3217   23.8681 H   0  0  0  0  0  0  0  0  0  0  0  0
   41.2402   16.2234   23.0130 H   0  0  0  0  0  0  0  0  0  0  0  0
   42.0680   15.8878   24.2513 H   0  0  0  0  0  0  0  0  0  0  0  0
  3  2  1  0
  4  2  2  0
  5  2  1  0
  7  6  1  0
  8  6  2  0
  9  6  1  0
  1 12  1  0
  1 13  1  0
  5 14  1  0
  5 15  1  0
  5 16  1  0
  9 17  1  0
  9 18  1  0
  9 19  1  0
 11 20  1  0
 11 21  1  0
M  CHG  3   3  -1   7  -1  10   2
M  END
> <Uni-Dock RESULT> 
ENERGY=   -3.807  LOWER_BOUND=   22.267  UPPER_BOUND=   22.852
INTER + INTRA:          -3.807
INTER:                  -3.807
INTRA:                   0.000
UNBOUND:                 0.000

$$$$
