
     RDKit          3D

 21 16  0  0  0  0  0  0  0  0999 V2000
   47.5624    1.3755    6.6997 O   0  0  0  0  0  0  0  0  0  0  0  0
   47.4078    2.2413    6.2670 C   0  0  0  0  0  0  0  0  0  0  0  0
   48.3397    2.0483    5.4379 O   0  0  0  0  0  0  0  0  0  0  0  0
   46.5667    3.1809    6.3369 O   0  0  0  0  0  0  0  0  0  0  0  0
   47.2731    1.1842    7.3492 C   0  0  0  0  0  0  0  0  0  0  0  0
   47.7192    2.3162    6.5078 C   0  0  0  0  0  0  0  0  0  0  0  0
   48.3954    2.0257    5.4814 O   0  0  0  0  0  0  0  0  0  0  0  0
   47.5224    3.4349    7.0584 O   0  0  0  0  0  0  0  0  0  0  0  0
   47.0405    1.1347    7.1787 C   0  0  0  0  0  0  0  0  0  0  0  0
   47.3278    1.6315    6.8937 Zn  0  0  0  0  0 15  0  0  0  0  0  0
   47.5633    1.3777    6.6979 O   0  0  0  0  0  0  0  0  0  0  0  0
   47.4433    2.3221    6.5302 H   0  0  0  0  0  0  0  0  0  0  0  0
   46.9778    1.1969    7.4515 H   0  0  0  0  0  0  0  0  0  0  0  0
   47.3974    1.6441    8.3341 H   0  0  0  0  0  0  0  0  0  0  0  0
   48.0273    0.3995    7.2363 H   0  0  0  0  0  0  0  0  0  0  0  0
   46.2828    0.7224    7.2949 H   0  0  0  0  0  0  0  0  0  0  0  0
   46.4719    1.4487    8.0593 H   0  0  0  0  0  0  0  0  0  0  0  0
   46.3529    0.6544    6.4762 H   0  0  0  0  0  0  0  0  0  0  0  0
   47.7927    0.4057    7.4945 H   0  0  0  0  0  0  0  0  0  0  0  0
   46.9806    1.1923    7.4496 H   0  0  0  0  0  0  0  0  0  0  0  0
   47.4395    2.3246    6.5338 H   0  0  0  0  0  0  0  0  0  0  0  0
  3  2  1  0
  4  2  2  0
  5  2  1  0
  7  6  1  0
  8  6  2  0
  9  6  1  0
  1 12  1  0
  1 13  1  0
  5 14  1  0
  5 15  1  0
  5 16  1  0
  9 17  1  0
  9 18  1  0
  9 19  1  0
 11 20  1  0
 11 21  1  0
M  CHG  3   3  -1   7  -1  10   2
M  END
> <Uni-Dock RESULT> 
ENERGY=   -5.601  LOWER_BOUND=    0.000  UPPER_BOUND=    0.000
INTER + INTRA:          -5.601
INTER:                  -5.601
INTRA:                   0.000
UNBOUND:                 0.000

$$$$

     RDKit          3D

 21 16  0  0  0  0  0  0  0  0999 V2000
   47.1484    3.1948    6.2492 O   0  0  0  0  0  0  0  0  0  0  0  0
   47.7394    2.4135    6.2808 C   0  0  0  0  0  0  0  0  0  0  0  0
   48.0941    2.5724    5.0799 O   0  0  0  0  0  0  0  0  0  0  0  0
   48.1564    1.5950    7.1476 O   0  0  0  0  0  0  0  0  0  0  0  0
   46.6430    3.3476    6.7624 C   0  0  0  0  0  0  0  0  0  0  0  0
   47.4112    2.2699    6.1015 C   0  0  0  0  0  0  0  0  0  0  0  0
   48.0292    2.5820    5.0452 O   0  0  0  0  0  0  0  0  0  0  0  0
   47.1686    1.1324    6.5921 O   0  0  0  0  0  0  0  0  0  0  0  0
   46.8807    3.4475    6.9007 C   0  0  0  0  0  0  0  0  0  0  0  0
   47.1056    2.9524    6.5617 Zn  0  0  0  0  0 15  0  0  0  0  0  0
   47.1500    3.1927    6.2478 O   0  0  0  0  0  0  0  0  0  0  0  0
   47.5001    2.2989    6.3621 H   0  0  0  0  0  0  0  0  0  0  0  0
   46.6682    3.3634    7.0737 H   0  0  0  0  0  0  0  0  0  0  0  0
   45.7756    2.7649    7.0866 H   0  0  0  0  0  0  0  0  0  0  0  0
   46.3239    4.0305    5.9691 H   0  0  0  0  0  0  0  0  0  0  0  0
   47.0068    3.9427    7.6053 H   0  0  0  0  0  0  0  0  0  0  0  0
   46.3564    3.1144    7.8014 H   0  0  0  0  0  0  0  0  0  0  0  0
   47.7100    4.0942    7.2024 H   0  0  0  0  0  0  0  0  0  0  0  0
   46.1830    4.0265    6.2884 H   0  0  0  0  0  0  0  0  0  0  0  0
   46.6681    3.3677    7.0700 H   0  0  0  0  0  0  0  0  0  0  0  0
   47.4987    2.2965    6.3672 H   0  0  0  0  0  0  0  0  0  0  0  0
  3  2  1  0
  4  2  2  0
  5  2  1  0
  7  6  1  0
  8  6  2  0
  9  6  1  0
  1 12  1  0
  1 13  1  0
  5 14  1  0
  5 15  1  0
  5 16  1  0
  9 17  1  0
  9 18  1  0
  9 19  1  0
 11 20  1  0
 11 21  1  0
M  CHG  3   3  -1   7  -1  10   2
M  END
> <Uni-Dock RESULT> 
ENERGY=   -5.463  LOWER_BOUND=    0.953  UPPER_BOUND=    1.731
INTER + INTRA:          -5.463
INTER:                  -5.463
INTRA:                   0.000
UNBOUND:                 0.000

$$$$

     RDKit          3D

 21 16  0  0  0  0  0  0  0  0999 V2000
   47.8449    1.6465    6.5241 O   0  0  0  0  0  0  0  0  0  0  0  0
   47.2176    1.7741    7.2664 C   0  0  0  0  0  0  0  0  0  0  0  0
   47.1435    0.5325    7.4812 O   0  0  0  0  0  0  0  0  0  0  0  0
   46.7251    2.7397    7.9146 O   0  0  0  0  0  0  0  0  0  0  0  0
   48.0213    2.1736    6.0412 C   0  0  0  0  0  0  0  0  0  0  0  0
   46.9767    1.6746    6.9622 C   0  0  0  0  0  0  0  0  0  0  0  0
   47.1323    0.5051    7.4132 O   0  0  0  0  0  0  0  0  0  0  0  0
   45.9674    2.4314    7.0040 O   0  0  0  0  0  0  0  0  0  0  0  0
   48.1938    2.2547    6.2631 C   0  0  0  0  0  0  0  0  0  0  0  0
   47.6817    2.0077    6.5586 Zn  0  0  0  0  0 15  0  0  0  0  0  0
   47.8428    1.6454    6.5260 O   0  0  0  0  0  0  0  0  0  0  0  0
   47.0840    1.9087    7.0638 H   0  0  0  0  0  0  0  0  0  0  0  0
   48.1165    2.4678    6.0877 H   0  0  0  0  0  0  0  0  0  0  0  0
   47.3846    2.7269    5.3445 H   0  0  0  0  0  0  0  0  0  0  0  0
   48.4205    1.2965    5.5227 H   0  0  0  0  0  0  0  0  0  0  0  0
   48.8595    2.8104    6.3393 H   0  0  0  0  0  0  0  0  0  0  0  0
   47.9979    3.2664    5.8951 H   0  0  0  0  0  0  0  0  0  0  0  0
   49.0362    2.2972    6.9600 H   0  0  0  0  0  0  0  0  0  0  0  0
   48.4680    1.6241    5.4122 H   0  0  0  0  0  0  0  0  0  0  0  0
   48.1197    2.4633    6.0864 H   0  0  0  0  0  0  0  0  0  0  0  0
   47.0826    1.9143    7.0634 H   0  0  0  0  0  0  0  0  0  0  0  0
  3  2  1  0
  4  2  2  0
  5  2  1  0
  7  6  1  0
  8  6  2  0
  9  6  1  0
  1 12  1  0
  1 13  1  0
  5 14  1  0
  5 15  1  0
  5 16  1  0
  9 17  1  0
  9 18  1  0
  9 19  1  0
 11 20  1  0
 11 21  1  0
M  CHG  3   3  -1   7  -1  10   2
M  END
> <Uni-Dock RESULT> 
ENERGY=   -5.178  LOWER_BOUND=    0.879  UPPER_BOUND=    1.693
INTER + INTRA:          -5.178
INTER:                  -5.178
INTRA:                   0.000
UNBOUND:                 0.000

$$$$

     RDKit          3D

 21 16  0  0  0  0  0  0  0  0999 V2000
   47.0994    3.3486    6.3894 O   0  0  0  0  0  0  0  0  0  0  0  0
   46.3722    3.5123    7.0260 C   0  0  0  0  0  0  0  0  0  0  0  0
   46.9374    4.5454    7.4805 O   0  0  0  0  0  0  0  0  0  0  0  0
   45.2313    3.0341    7.2805 O   0  0  0  0  0  0  0  0  0  0  0  0
   47.1849    2.7187    6.0177 C   0  0  0  0  0  0  0  0  0  0  0  0
   46.6506    3.3341    7.2524 C   0  0  0  0  0  0  0  0  0  0  0  0
   47.0068    4.5219    7.4920 O   0  0  0  0  0  0  0  0  0  0  0  0
   46.0671    2.4976    7.9961 O   0  0  0  0  0  0  0  0  0  0  0  0
   46.9765    2.8414    5.8532 C   0  0  0  0  0  0  0  0  0  0  0  0
   46.8401    3.0517    6.4429 Zn  0  0  0  0  0 15  0  0  0  0  0  0
   47.0983    3.3500    6.3918 O   0  0  0  0  0  0  0  0  0  0  0  0
   46.4399    3.2516    7.0928 H   0  0  0  0  0  0  0  0  0  0  0  0
   46.9810    2.5549    5.8464 H   0  0  0  0  0  0  0  0  0  0  0  0
   47.3465    1.7025    6.3896 H   0  0  0  0  0  0  0  0  0  0  0  0
   48.1607    3.1810    5.8397 H   0  0  0  0  0  0  0  0  0  0  0  0
   46.6474    2.6680    5.0662 H   0  0  0  0  0  0  0  0  0  0  0  0
   46.6448    1.8091    5.7064 H   0  0  0  0  0  0  0  0  0  0  0  0
   46.4779    3.4736    5.1123 H   0  0  0  0  0  0  0  0  0  0  0  0
   48.0571    2.8844    5.6875 H   0  0  0  0  0  0  0  0  0  0  0  0
   46.9851    2.5584    5.8445 H   0  0  0  0  0  0  0  0  0  0  0  0
   46.4368    3.2468    7.0923 H   0  0  0  0  0  0  0  0  0  0  0  0
  3  2  1  0
  4  2  2  0
  5  2  1  0
  7  6  1  0
  8  6  2  0
  9  6  1  0
  1 12  1  0
  1 13  1  0
  5 14  1  0
  5 15  1  0
  5 16  1  0
  9 17  1  0
  9 18  1  0
  9 19  1  0
 11 20  1  0
 11 21  1  0
M  CHG  3   3  -1   7  -1  10   2
M  END
> <Uni-Dock RESULT> 
ENERGY=   -4.522  LOWER_BOUND=    1.630  UPPER_BOUND=    2.273
INTER + INTRA:          -4.522
INTER:                  -4.522
INTRA:                   0.000
UNBOUND:                 0.000

$$$$

     RDKit          3D

 21 16  0  0  0  0  0  0  0  0999 V2000
   42.8652    4.7513   11.4368 O   0  0  0  0  0  0  0  0  0  0  0  0
   42.6660    5.1964   12.2871 C   0  0  0  0  0  0  0  0  0  0  0  0
   41.9706    6.0819   11.7166 O   0  0  0  0  0  0  0  0  0  0  0  0
   42.8575    4.9839   13.5173 O   0  0  0  0  0  0  0  0  0  0  0  0
   43.3851    4.2362   11.3556 C   0  0  0  0  0  0  0  0  0  0  0  0
   42.9633    5.4192   12.1373 C   0  0  0  0  0  0  0  0  0  0  0  0
   42.0144    6.1030   11.6606 O   0  0  0  0  0  0  0  0  0  0  0  0
   43.7601    5.6854   13.0794 O   0  0  0  0  0  0  0  0  0  0  0  0
   43.1736    4.0705   11.4714 C   0  0  0  0  0  0  0  0  0  0  0  0
   43.0828    4.6400   11.7507 Zn  0  0  0  0  0 15  0  0  0  0  0  0
   42.8642    4.7537   11.4384 O   0  0  0  0  0  0  0  0  0  0  0  0
   42.9433    5.1931   12.2958 H   0  0  0  0  0  0  0  0  0  0  0  0
   43.4398    3.9755   11.5194 H   0  0  0  0  0  0  0  0  0  0  0  0
   44.4649    4.2988   11.5204 H   0  0  0  0  0  0  0  0  0  0  0  0
   43.1813    4.4708   10.3063 H   0  0  0  0  0  0  0  0  0  0  0  0
   43.0542    3.2120   11.5516 H   0  0  0  0  0  0  0  0  0  0  0  0
   44.0071    3.5268   11.9264 H   0  0  0  0  0  0  0  0  0  0  0  0
   42.2691    3.4631   11.5708 H   0  0  0  0  0  0  0  0  0  0  0  0
   43.3918    4.2119   10.4088 H   0  0  0  0  0  0  0  0  0  0  0  0
   43.4372    3.9760   11.5144 H   0  0  0  0  0  0  0  0  0  0  0  0
   42.9469    5.1903   12.2995 H   0  0  0  0  0  0  0  0  0  0  0  0
  3  2  1  0
  4  2  2  0
  5  2  1  0
  7  6  1  0
  8  6  2  0
  9  6  1  0
  1 12  1  0
  1 13  1  0
  5 14  1  0
  5 15  1  0
  5 16  1  0
  9 17  1  0
  9 18  1  0
  9 19  1  0
 11 20  1  0
 11 21  1  0
M  CHG  3   3  -1   7  -1  10   2
M  END
> <Uni-Dock RESULT> 
ENERGY=   -4.277  LOWER_BOUND=    7.237  UPPER_BOUND=    7.933
INTER + INTRA:          -4.277
INTER:                  -4.277
INTRA:                   0.000
UNBOUND:                 0.000

$$$$

     RDKit          3D

 21 16  0  0  0  0  0  0  0  0999 V2000
   42.8112    5.2322   12.6616 O   0  0  0  0  0  0  0  0  0  0  0  0
   43.0015    5.5902   11.7692 C   0  0  0  0  0  0  0  0  0  0  0  0
   41.9000    6.2052   11.7277 O   0  0  0  0  0  0  0  0  0  0  0  0
   43.9706    5.6076   10.9594 O   0  0  0  0  0  0  0  0  0  0  0  0
   43.1965    4.6894   12.9764 C   0  0  0  0  0  0  0  0  0  0  0  0
   42.7616    5.2790   11.6911 C   0  0  0  0  0  0  0  0  0  0  0  0
   41.8518    6.1531   11.7492 O   0  0  0  0  0  0  0  0  0  0  0  0
   43.2343    4.6665   10.6938 O   0  0  0  0  0  0  0  0  0  0  0  0
   43.3786    4.9121   13.0296 C   0  0  0  0  0  0  0  0  0  0  0  0
   43.1167    5.0687   12.4662 Zn  0  0  0  0  0 15  0  0  0  0  0  0
   42.8103    5.2335   12.6590 O   0  0  0  0  0  0  0  0  0  0  0  0
   43.0339    5.3186   11.7224 H   0  0  0  0  0  0  0  0  0  0  0  0
   43.5050    4.6553   13.0146 H   0  0  0  0  0  0  0  0  0  0  0  0
   43.3493    3.6571   12.6477 H   0  0  0  0  0  0  0  0  0  0  0  0
   42.3258    4.7161   13.6387 H   0  0  0  0  0  0  0  0  0  0  0  0
   44.0731    5.0153   13.5442 H   0  0  0  0  0  0  0  0  0  0  0  0
   44.1578    4.1525   12.9148 H   0  0  0  0  0  0  0  0  0  0  0  0
   43.8256    5.7997   13.4873 H   0  0  0  0  0  0  0  0  0  0  0  0
   42.6071    4.5181   13.6977 H   0  0  0  0  0  0  0  0  0  0  0  0
   43.5012    4.6570   13.0185 H   0  0  0  0  0  0  0  0  0  0  0  0
   43.0386    5.3156   11.7209 H   0  0  0  0  0  0  0  0  0  0  0  0
  3  2  1  0
  4  2  2  0
  5  2  1  0
  7  6  1  0
  8  6  2  0
  9  6  1  0
  1 12  1  0
  1 13  1  0
  5 14  1  0
  5 15  1  0
  5 16  1  0
  9 17  1  0
  9 18  1  0
  9 19  1  0
 11 20  1  0
 11 21  1  0
M  CHG  3   3  -1   7  -1  10   2
M  END
> <Uni-Dock RESULT> 
ENERGY=   -4.192  LOWER_BOUND=    7.351  UPPER_BOUND=    8.061
INTER + INTRA:          -4.192
INTER:                  -4.192
INTRA:                   0.000
UNBOUND:                 0.000

$$$$

     RDKit          3D

 21 16  0  0  0  0  0  0  0  0999 V2000
   45.0024    2.9114    8.4341 O   0  0  0  0  0  0  0  0  0  0  0  0
   45.1336    2.4440    9.2856 C   0  0  0  0  0  0  0  0  0  0  0  0
   45.5286    1.3952    8.7048 O   0  0  0  0  0  0  0  0  0  0  0  0
   45.0894    2.7210   10.5171 O   0  0  0  0  0  0  0  0  0  0  0  0
   44.6337    3.5452    8.3668 C   0  0  0  0  0  0  0  0  0  0  0  0
   44.7784    2.3061    9.1620 C   0  0  0  0  0  0  0  0  0  0  0  0
   45.4771    1.3856    8.6524 O   0  0  0  0  0  0  0  0  0  0  0  0
   44.0054    2.2787   10.1595 O   0  0  0  0  0  0  0  0  0  0  0  0
   44.8889    3.6504    8.4638 C   0  0  0  0  0  0  0  0  0  0  0  0
   44.8441    3.0822    8.7566 Zn  0  0  0  0  0 15  0  0  0  0  0  0
   45.0028    2.9089    8.4357 O   0  0  0  0  0  0  0  0  0  0  0  0
   44.8683    2.5214    9.3110 H   0  0  0  0  0  0  0  0  0  0  0  0
   44.6614    3.8138    8.5246 H   0  0  0  0  0  0  0  0  0  0  0  0
   43.5898    3.7763    8.5992 H   0  0  0  0  0  0  0  0  0  0  0  0
   44.6962    3.2468    7.3159 H   0  0  0  0  0  0  0  0  0  0  0  0
   45.2371    4.4470    8.5067 H   0  0  0  0  0  0  0  0  0  0  0  0
   44.2626    4.4048    8.9495 H   0  0  0  0  0  0  0  0  0  0  0  0
   45.9268    3.9956    8.4868 H   0  0  0  0  0  0  0  0  0  0  0  0
   44.5693    3.5541    7.4219 H   0  0  0  0  0  0  0  0  0  0  0  0
   44.6634    3.8126    8.5194 H   0  0  0  0  0  0  0  0  0  0  0  0
   44.8659    2.5251    9.3148 H   0  0  0  0  0  0  0  0  0  0  0  0
  3  2  1  0
  4  2  2  0
  5  2  1  0
  7  6  1  0
  8  6  2  0
  9  6  1  0
  1 12  1  0
  1 13  1  0
  5 14  1  0
  5 15  1  0
  5 16  1  0
  9 17  1  0
  9 18  1  0
  9 19  1  0
 11 20  1  0
 11 21  1  0
M  CHG  3   3  -1   7  -1  10   2
M  END
> <Uni-Dock RESULT> 
ENERGY=   -4.082  LOWER_BOUND=    3.413  UPPER_BOUND=    3.965
INTER + INTRA:          -4.082
INTER:                  -4.082
INTRA:                   0.000
UNBOUND:                 0.000

$$$$

     RDKit          3D

 21 16  0  0  0  0  0  0  0  0999 V2000
   46.3758    3.0612    7.4751 O   0  0  0  0  0  0  0  0  0  0  0  0
   45.7181    3.2766    8.1693 C   0  0  0  0  0  0  0  0  0  0  0  0
   45.7943    2.1199    8.6687 O   0  0  0  0  0  0  0  0  0  0  0  0
   45.0919    4.2954    8.5755 O   0  0  0  0  0  0  0  0  0  0  0  0
   46.4976    3.4797    6.8816 C   0  0  0  0  0  0  0  0  0  0  0  0
   45.4997    3.0792    7.8976 C   0  0  0  0  0  0  0  0  0  0  0  0
   45.7884    2.0763    8.6091 O   0  0  0  0  0  0  0  0  0  0  0  0
   44.4029    3.6898    7.7650 O   0  0  0  0  0  0  0  0  0  0  0  0
   46.6527    3.6316    7.0778 C   0  0  0  0  0  0  0  0  0  0  0  0
   46.1679    3.3966    7.4247 Zn  0  0  0  0  0 15  0  0  0  0  0  0
   46.3739    3.0603    7.4772 O   0  0  0  0  0  0  0  0  0  0  0  0
   45.5741    3.3423    7.9413 H   0  0  0  0  0  0  0  0  0  0  0  0
   46.5540    3.7864    6.8577 H   0  0  0  0  0  0  0  0  0  0  0  0
   45.8152    3.7701    6.0772 H   0  0  0  0  0  0  0  0  0  0  0  0
   47.0169    2.5646    6.5812 H   0  0  0  0  0  0  0  0  0  0  0  0
   47.2415    4.2700    7.0195 H   0  0  0  0  0  0  0  0  0  0  0  0
   46.3416    4.4965    6.4841 H   0  0  0  0  0  0  0  0  0  0  0  0
   47.4645    3.9421    7.7424 H   0  0  0  0  0  0  0  0  0  0  0  0
   47.0259    2.8608    6.3969 H   0  0  0  0  0  0  0  0  0  0  0  0
   46.5577    3.7822    6.8574 H   0  0  0  0  0  0  0  0  0  0  0  0
   45.5721    3.3474    7.9396 H   0  0  0  0  0  0  0  0  0  0  0  0
  3  2  1  0
  4  2  2  0
  5  2  1  0
  7  6  1  0
  8  6  2  0
  9  6  1  0
  1 12  1  0
  1 13  1  0
  5 14  1  0
  5 15  1  0
  5 16  1  0
  9 17  1  0
  9 18  1  0
  9 19  1  0
 11 20  1  0
 11 21  1  0
M  CHG  3   3  -1   7  -1  10   2
M  END
> <Uni-Dock RESULT> 
ENERGY=   -4.069  LOWER_BOUND=    2.274  UPPER_BOUND=    2.926
INTER + INTRA:          -4.069
INTER:                  -4.069
INTRA:                   0.000
UNBOUND:                 0.000

$$$$
