
     RDKit          3D

 21 16  0  0  0  0  0  0  0  0999 V2000
   47.5414    1.1117    7.0636 O   0  0  0  0  0  0  0  0  0  0  0  0
   46.7805    0.9734    7.5737 C   0  0  0  0  0  0  0  0  0  0  0  0
   46.0891    1.6314    8.4010 O   0  0  0  0  0  0  0  0  0  0  0  0
   46.7827   -0.2636    7.3227 O   0  0  0  0  0  0  0  0  0  0  0  0
   47.7575    1.8025    6.7585 C   0  0  0  0  0  0  0  0  0  0  0  0
   46.8512    1.0276    7.6910 C   0  0  0  0  0  0  0  0  0  0  0  0
   46.1126    1.7698    8.3973 O   0  0  0  0  0  0  0  0  0  0  0  0
   46.9863   -0.2273    7.7025 O   0  0  0  0  0  0  0  0  0  0  0  0
   47.7062    1.7628    6.6736 C   0  0  0  0  0  0  0  0  0  0  0  0
   47.3445    1.4550    7.1037 Zn  0  0  0  0  0 15  0  0  0  0  0  0
   47.5429    1.1128    7.0615 O   0  0  0  0  0  0  0  0  0  0  0  0
   46.8321    1.3232    7.6891 H   0  0  0  0  0  0  0  0  0  0  0  0
   47.6599    1.9302    6.5585 H   0  0  0  0  0  0  0  0  0  0  0  0
   48.3239    1.1790    6.0600 H   0  0  0  0  0  0  0  0  0  0  0  0
   47.2131    2.5581    6.1842 H   0  0  0  0  0  0  0  0  0  0  0  0
   48.4645    2.3043    7.4259 H   0  0  0  0  0  0  0  0  0  0  0  0
   47.0650    2.3212    5.9850 H   0  0  0  0  0  0  0  0  0  0  0  0
   48.3721    2.4632    7.1864 H   0  0  0  0  0  0  0  0  0  0  0  0
   48.3178    1.0679    6.0902 H   0  0  0  0  0  0  0  0  0  0  0  0
   47.6564    1.9341    6.5601 H   0  0  0  0  0  0  0  0  0  0  0  0
   46.8340    1.3181    7.6895 H   0  0  0  0  0  0  0  0  0  0  0  0
  3  2  1  0
  4  2  2  0
  5  2  1  0
  7  6  1  0
  8  6  2  0
  9  6  1  0
  1 12  1  0
  1 13  1  0
  5 14  1  0
  5 15  1  0
  5 16  1  0
  9 17  1  0
  9 18  1  0
  9 19  1  0
 11 20  1  0
 11 21  1  0
M  CHG  3   3  -1   7  -1  10   2
M  END
> <Uni-Dock RESULT> 
ENERGY=   -6.189  LOWER_BOUND=    0.000  UPPER_BOUND=    0.000
INTER + INTRA:          -6.189
INTER:                  -6.189
INTRA:                   0.000
UNBOUND:                 0.000

$$$$

     RDKit          3D

 21 16  0  0  0  0  0  0  0  0999 V2000
   47.0931    2.6998    6.8723 O   0  0  0  0  0  0  0  0  0  0  0  0
   47.7555    2.3748    6.3121 C   0  0  0  0  0  0  0  0  0  0  0  0
   48.0861    2.5013    5.0997 O   0  0  0  0  0  0  0  0  0  0  0  0
   48.1218    1.5211    7.1667 O   0  0  0  0  0  0  0  0  0  0  0  0
   46.7652    3.4112    6.8136 C   0  0  0  0  0  0  0  0  0  0  0  0
   47.6527    2.3429    6.2116 C   0  0  0  0  0  0  0  0  0  0  0  0
   48.0286    2.6127    5.0364 O   0  0  0  0  0  0  0  0  0  0  0  0
   47.8490    1.3082    6.9073 O   0  0  0  0  0  0  0  0  0  0  0  0
   46.8398    3.4339    6.8866 C   0  0  0  0  0  0  0  0  0  0  0  0
   47.1830    2.9751    6.5996 Zn  0  0  0  0  0 15  0  0  0  0  0  0
   47.0918    2.7018    6.8738 O   0  0  0  0  0  0  0  0  0  0  0  0
   47.5942    2.5848    6.0509 H   0  0  0  0  0  0  0  0  0  0  0  0
   46.8616    3.6408    6.8754 H   0  0  0  0  0  0  0  0  0  0  0  0
   46.5202    3.2512    7.8681 H   0  0  0  0  0  0  0  0  0  0  0  0
   47.1909    4.4133    6.7057 H   0  0  0  0  0  0  0  0  0  0  0  0
   45.8409    3.3530    6.2310 H   0  0  0  0  0  0  0  0  0  0  0  0
   47.4298    4.3535    6.9447 H   0  0  0  0  0  0  0  0  0  0  0  0
   45.9315    3.6301    6.3091 H   0  0  0  0  0  0  0  0  0  0  0  0
   46.5492    3.1447    7.9011 H   0  0  0  0  0  0  0  0  0  0  0  0
   46.8635    3.6434    6.8710 H   0  0  0  0  0  0  0  0  0  0  0  0
   47.5937    2.5802    6.0539 H   0  0  0  0  0  0  0  0  0  0  0  0
  3  2  1  0
  4  2  2  0
  5  2  1  0
  7  6  1  0
  8  6  2  0
  9  6  1  0
  1 12  1  0
  1 13  1  0
  5 14  1  0
  5 15  1  0
  5 16  1  0
  9 17  1  0
  9 18  1  0
  9 19  1  0
 11 20  1  0
 11 21  1  0
M  CHG  3   3  -1   7  -1  10   2
M  END
> <Uni-Dock RESULT> 
ENERGY=   -5.982  LOWER_BOUND=    1.640  UPPER_BOUND=    2.420
INTER + INTRA:          -5.982
INTER:                  -5.982
INTRA:                   0.000
UNBOUND:                 0.000

$$$$

     RDKit          3D

 21 16  0  0  0  0  0  0  0  0999 V2000
   47.4324    2.9461    6.4610 O   0  0  0  0  0  0  0  0  0  0  0  0
   47.5945    2.0343    6.4370 C   0  0  0  0  0  0  0  0  0  0  0  0
   47.5496    1.0651    7.2457 O   0  0  0  0  0  0  0  0  0  0  0  0
   48.1320    2.1144    5.2978 O   0  0  0  0  0  0  0  0  0  0  0  0
   46.8925    3.2941    6.9132 C   0  0  0  0  0  0  0  0  0  0  0  0
   47.6744    2.0469    6.5602 C   0  0  0  0  0  0  0  0  0  0  0  0
   47.4754    1.0915    7.3620 O   0  0  0  0  0  0  0  0  0  0  0  0
   48.4619    2.1286    5.5771 O   0  0  0  0  0  0  0  0  0  0  0  0
   46.8350    3.2849    6.8237 C   0  0  0  0  0  0  0  0  0  0  0  0
   47.1880    2.7613    6.7147 Zn  0  0  0  0  0 15  0  0  0  0  0  0
   47.4308    2.9484    6.4612 O   0  0  0  0  0  0  0  0  0  0  0  0
   47.4942    2.0387    6.7951 H   0  0  0  0  0  0  0  0  0  0  0  0
   46.6373    3.2992    6.8878 H   0  0  0  0  0  0  0  0  0  0  0  0
   46.9635    4.0950    6.1709 H   0  0  0  0  0  0  0  0  0  0  0  0
   45.8343    3.0829    7.0940 H   0  0  0  0  0  0  0  0  0  0  0  0
   47.3494    3.6436    7.8439 H   0  0  0  0  0  0  0  0  0  0  0  0
   45.7723    3.0326    6.7603 H   0  0  0  0  0  0  0  0  0  0  0  0
   47.0495    3.6717    7.8244 H   0  0  0  0  0  0  0  0  0  0  0  0
   47.0474    4.0732    6.0951 H   0  0  0  0  0  0  0  0  0  0  0  0
   46.6349    3.2955    6.8911 H   0  0  0  0  0  0  0  0  0  0  0  0
   47.4982    2.0401    6.7917 H   0  0  0  0  0  0  0  0  0  0  0  0
  3  2  1  0
  4  2  2  0
  5  2  1  0
  7  6  1  0
  8  6  2  0
  9  6  1  0
  1 12  1  0
  1 13  1  0
  5 14  1  0
  5 15  1  0
  5 16  1  0
  9 17  1  0
  9 18  1  0
  9 19  1  0
 11 20  1  0
 11 21  1  0
M  CHG  3   3  -1   7  -1  10   2
M  END
> <Uni-Dock RESULT> 
ENERGY=   -5.945  LOWER_BOUND=    1.487  UPPER_BOUND=    2.185
INTER + INTRA:          -5.945
INTER:                  -5.945
INTRA:                   0.000
UNBOUND:                 0.000

$$$$

     RDKit          3D

 21 16  0  0  0  0  0  0  0  0999 V2000
   47.1019    1.7326    7.1855 O   0  0  0  0  0  0  0  0  0  0  0  0
   46.8314    1.0105    7.6989 C   0  0  0  0  0  0  0  0  0  0  0  0
   46.8215   -0.2481    7.5929 O   0  0  0  0  0  0  0  0  0  0  0  0
   46.2232    1.7596    8.5126 O   0  0  0  0  0  0  0  0  0  0  0  0
   47.7118    1.7276    6.6903 C   0  0  0  0  0  0  0  0  0  0  0  0
   46.7631    0.9543    7.5811 C   0  0  0  0  0  0  0  0  0  0  0  0
   46.9069   -0.2974    7.4929 O   0  0  0  0  0  0  0  0  0  0  0  0
   45.9192    1.6287    8.2341 O   0  0  0  0  0  0  0  0  0  0  0  0
   47.7609    1.7684    6.7759 C   0  0  0  0  0  0  0  0  0  0  0  0
   47.3411    1.4226    7.1147 Zn  0  0  0  0  0 15  0  0  0  0  0  0
   47.1038    1.7343    7.1842 O   0  0  0  0  0  0  0  0  0  0  0  0
   46.9581    0.8028    7.4176 H   0  0  0  0  0  0  0  0  0  0  0  0
   47.9632    1.7325    6.7412 H   0  0  0  0  0  0  0  0  0  0  0  0
   47.6809    2.8120    6.8339 H   0  0  0  0  0  0  0  0  0  0  0  0
   48.7480    1.3937    6.7994 H   0  0  0  0  0  0  0  0  0  0  0  0
   47.3708    1.5032    5.6752 H   0  0  0  0  0  0  0  0  0  0  0  0
   48.7784    1.5410    7.1078 H   0  0  0  0  0  0  0  0  0  0  0  0
   47.6696    1.5211    5.7141 H   0  0  0  0  0  0  0  0  0  0  0  0
   47.5895    2.8423    6.8971 H   0  0  0  0  0  0  0  0  0  0  0  0
   47.9654    1.7274    6.7409 H   0  0  0  0  0  0  0  0  0  0  0  0
   46.9541    0.8062    7.4191 H   0  0  0  0  0  0  0  0  0  0  0  0
  3  2  1  0
  4  2  2  0
  5  2  1  0
  7  6  1  0
  8  6  2  0
  9  6  1  0
  1 12  1  0
  1 13  1  0
  5 14  1  0
  5 15  1  0
  5 16  1  0
  9 17  1  0
  9 18  1  0
  9 19  1  0
 11 20  1  0
 11 21  1  0
M  CHG  3   3  -1   7  -1  10   2
M  END
> <Uni-Dock RESULT> 
ENERGY=   -5.824  LOWER_BOUND=    0.352  UPPER_BOUND=    1.427
INTER + INTRA:          -5.824
INTER:                  -5.824
INTRA:                   0.000
UNBOUND:                 0.000

$$$$

     RDKit          3D

 21 16  0  0  0  0  0  0  0  0999 V2000
   47.1352    3.0296    6.9102 O   0  0  0  0  0  0  0  0  0  0  0  0
   47.6675    2.4702    6.3983 C   0  0  0  0  0  0  0  0  0  0  0  0
   47.8793    2.2633    5.1704 O   0  0  0  0  0  0  0  0  0  0  0  0
   47.9760    1.7708    7.4026 O   0  0  0  0  0  0  0  0  0  0  0  0
   46.9277    3.7599    6.7084 C   0  0  0  0  0  0  0  0  0  0  0  0
   47.5503    2.4372    6.3153 C   0  0  0  0  0  0  0  0  0  0  0  0
   47.8348    2.3670    5.0868 O   0  0  0  0  0  0  0  0  0  0  0  0
   47.6443    1.5619    7.2199 O   0  0  0  0  0  0  0  0  0  0  0  0
   47.0127    3.7834    6.7686 C   0  0  0  0  0  0  0  0  0  0  0  0
   47.2397    3.2164    6.5748 Zn  0  0  0  0  0 15  0  0  0  0  0  0
   47.1344    3.0321    6.9113 O   0  0  0  0  0  0  0  0  0  0  0  0
   47.5162    2.6447    6.1067 H   0  0  0  0  0  0  0  0  0  0  0  0
   47.0677    3.9749    6.7077 H   0  0  0  0  0  0  0  0  0  0  0  0
   46.7767    3.8840    7.7851 H   0  0  0  0  0  0  0  0  0  0  0  0
   47.5022    4.6146    6.3389 H   0  0  0  0  0  0  0  0  0  0  0  0
   45.9485    3.7519    6.2203 H   0  0  0  0  0  0  0  0  0  0  0  0
   47.7523    4.5644    6.5684 H   0  0  0  0  0  0  0  0  0  0  0  0
   46.0927    4.0171    6.2247 H   0  0  0  0  0  0  0  0  0  0  0  0
   46.7908    3.7838    7.8402 H   0  0  0  0  0  0  0  0  0  0  0  0
   47.0695    3.9761    6.7026 H   0  0  0  0  0  0  0  0  0  0  0  0
   47.5152    2.6411    6.1106 H   0  0  0  0  0  0  0  0  0  0  0  0
  3  2  1  0
  4  2  2  0
  5  2  1  0
  7  6  1  0
  8  6  2  0
  9  6  1  0
  1 12  1  0
  1 13  1  0
  5 14  1  0
  5 15  1  0
  5 16  1  0
  9 17  1  0
  9 18  1  0
  9 19  1  0
 11 20  1  0
 11 21  1  0
M  CHG  3   3  -1   7  -1  10   2
M  END
> <Uni-Dock RESULT> 
ENERGY=   -5.276  LOWER_BOUND=    1.728  UPPER_BOUND=    2.464
INTER + INTRA:          -5.276
INTER:                  -5.276
INTRA:                   0.000
UNBOUND:                 0.000

$$$$

     RDKit          3D

 21 16  0  0  0  0  0  0  0  0999 V2000
   45.9895    3.4078    7.4393 O   0  0  0  0  0  0  0  0  0  0  0  0
   45.5588    4.0280    7.9762 C   0  0  0  0  0  0  0  0  0  0  0  0
   45.8867    5.0024    8.7100 O   0  0  0  0  0  0  0  0  0  0  0  0
   44.4680    3.3967    7.9075 O   0  0  0  0  0  0  0  0  0  0  0  0
   46.6478    3.5460    7.0337 C   0  0  0  0  0  0  0  0  0  0  0  0
   45.6563    4.0006    8.0832 C   0  0  0  0  0  0  0  0  0  0  0  0
   46.0163    5.0506    8.6858 O   0  0  0  0  0  0  0  0  0  0  0  0
   44.6517    3.2609    8.2748 O   0  0  0  0  0  0  0  0  0  0  0  0
   46.5769    3.5656    6.9563 C   0  0  0  0  0  0  0  0  0  0  0  0
   46.1901    3.7513    7.4323 Zn  0  0  0  0  0 15  0  0  0  0  0  0
   45.9909    3.4069    7.4371 O   0  0  0  0  0  0  0  0  0  0  0  0
   45.8994    4.1639    8.0386 H   0  0  0  0  0  0  0  0  0  0  0  0
   46.6815    3.6821    6.8188 H   0  0  0  0  0  0  0  0  0  0  0  0
   46.3042    2.7045    6.4243 H   0  0  0  0  0  0  0  0  0  0  0  0
   46.9453    4.3588    6.3644 H   0  0  0  0  0  0  0  0  0  0  0  0
   47.5200    3.2225    7.6097 H   0  0  0  0  0  0  0  0  0  0  0  0
   46.6419    4.3575    6.2042 H   0  0  0  0  0  0  0  0  0  0  0  0
   47.5777    3.3673    7.3512 H   0  0  0  0  0  0  0  0  0  0  0  0
   46.2102    2.6563    6.4704 H   0  0  0  0  0  0  0  0  0  0  0  0
   46.6834    3.6871    6.8199 H   0  0  0  0  0  0  0  0  0  0  0  0
   45.8961    4.1597    8.0398 H   0  0  0  0  0  0  0  0  0  0  0  0
  3  2  1  0
  4  2  2  0
  5  2  1  0
  7  6  1  0
  8  6  2  0
  9  6  1  0
  1 12  1  0
  1 13  1  0
  5 14  1  0
  5 15  1  0
  5 16  1  0
  9 17  1  0
  9 18  1  0
  9 19  1  0
 11 20  1  0
 11 21  1  0
M  CHG  3   3  -1   7  -1  10   2
M  END
> <Uni-Dock RESULT> 
ENERGY=   -4.799  LOWER_BOUND=    2.713  UPPER_BOUND=    3.192
INTER + INTRA:          -4.799
INTER:                  -4.799
INTRA:                   0.000
UNBOUND:                 0.000

$$$$

     RDKit          3D

 21 16  0  0  0  0  0  0  0  0999 V2000
   42.8109    4.7760   11.4300 O   0  0  0  0  0  0  0  0  0  0  0  0
   42.7963    5.3712   12.1398 C   0  0  0  0  0  0  0  0  0  0  0  0
   42.8366    5.3084   13.4007 O   0  0  0  0  0  0  0  0  0  0  0  0
   42.4742    6.3313   11.3864 O   0  0  0  0  0  0  0  0  0  0  0  0
   43.1981    4.0926   11.4255 C   0  0  0  0  0  0  0  0  0  0  0  0
   42.6940    5.2879   12.2054 C   0  0  0  0  0  0  0  0  0  0  0  0
   42.8830    5.1854   13.4500 O   0  0  0  0  0  0  0  0  0  0  0  0
   42.0998    6.1866   11.5477 O   0  0  0  0  0  0  0  0  0  0  0  0
   43.2721    4.1532   11.3778 C   0  0  0  0  0  0  0  0  0  0  0  0
   43.0291    4.6308   11.7292 Zn  0  0  0  0  0 15  0  0  0  0  0  0
   42.8120    4.7741   11.4282 O   0  0  0  0  0  0  0  0  0  0  0  0
   42.8265    5.0684   12.3537 H   0  0  0  0  0  0  0  0  0  0  0  0
   43.4499    4.0479   11.4041 H   0  0  0  0  0  0  0  0  0  0  0  0
   43.1458    4.2096   10.3387 H   0  0  0  0  0  0  0  0  0  0  0  0
   44.2239    3.8239   11.6953 H   0  0  0  0  0  0  0  0  0  0  0  0
   42.5286    3.2783   11.7183 H   0  0  0  0  0  0  0  0  0  0  0  0
   44.3538    4.0960   11.5316 H   0  0  0  0  0  0  0  0  0  0  0  0
   42.8191    3.2049   11.6819 H   0  0  0  0  0  0  0  0  0  0  0  0
   43.0817    4.3011   10.3104 H   0  0  0  0  0  0  0  0  0  0  0  0
   43.4522    4.0470   11.4090 H   0  0  0  0  0  0  0  0  0  0  0  0
   42.8230    5.0712   12.3505 H   0  0  0  0  0  0  0  0  0  0  0  0
  3  2  1  0
  4  2  2  0
  5  2  1  0
  7  6  1  0
  8  6  2  0
  9  6  1  0
  1 12  1  0
  1 13  1  0
  5 14  1  0
  5 15  1  0
  5 16  1  0
  9 17  1  0
  9 18  1  0
  9 19  1  0
 11 20  1  0
 11 21  1  0
M  CHG  3   3  -1   7  -1  10   2
M  END
> <Uni-Dock RESULT> 
ENERGY=   -4.486  LOWER_BOUND=    6.746  UPPER_BOUND=    7.520
INTER + INTRA:          -4.486
INTER:                  -4.486
INTRA:                   0.000
UNBOUND:                 0.000

$$$$

     RDKit          3D

 21 16  0  0  0  0  0  0  0  0999 V2000
   44.7651    2.9827    9.0689 O   0  0  0  0  0  0  0  0  0  0  0  0
   44.8511    3.5347    8.3299 C   0  0  0  0  0  0  0  0  0  0  0  0
   45.6420    3.6557    7.3526 O   0  0  0  0  0  0  0  0  0  0  0  0
   43.9776    4.3332    8.7688 O   0  0  0  0  0  0  0  0  0  0  0  0
   44.9738    2.2257    9.0902 C   0  0  0  0  0  0  0  0  0  0  0  0
   44.9938    3.5525    8.3618 C   0  0  0  0  0  0  0  0  0  0  0  0
   45.7223    3.5427    7.3302 O   0  0  0  0  0  0  0  0  0  0  0  0
   44.3554    4.5028    8.8936 O   0  0  0  0  0  0  0  0  0  0  0  0
   44.8703    2.2131    9.0671 C   0  0  0  0  0  0  0  0  0  0  0  0
   44.9240    2.7771    8.7677 Zn  0  0  0  0  0 15  0  0  0  0  0  0
   44.7646    2.9803    9.0703 O   0  0  0  0  0  0  0  0  0  0  0  0
   45.1486    3.3270    8.2484 H   0  0  0  0  0  0  0  0  0  0  0  0
   44.8584    2.0217    8.9858 H   0  0  0  0  0  0  0  0  0  0  0  0
   44.2634    2.1790    9.9212 H   0  0  0  0  0  0  0  0  0  0  0  0
   44.7747    1.3862    8.4173 H   0  0  0  0  0  0  0  0  0  0  0  0
   45.9857    2.1252    9.4941 H   0  0  0  0  0  0  0  0  0  0  0  0
   44.4442    1.4724    8.3839 H   0  0  0  0  0  0  0  0  0  0  0  0
   45.8584    1.8721    9.3901 H   0  0  0  0  0  0  0  0  0  0  0  0
   44.2240    2.2840    9.9473 H   0  0  0  0  0  0  0  0  0  0  0  0
   44.8608    2.0202    8.9811 H   0  0  0  0  0  0  0  0  0  0  0  0
   45.1468    3.3308    8.2518 H   0  0  0  0  0  0  0  0  0  0  0  0
  3  2  1  0
  4  2  2  0
  5  2  1  0
  7  6  1  0
  8  6  2  0
  9  6  1  0
  1 12  1  0
  1 13  1  0
  5 14  1  0
  5 15  1  0
  5 16  1  0
  9 17  1  0
  9 18  1  0
  9 19  1  0
 11 20  1  0
 11 21  1  0
M  CHG  3   3  -1   7  -1  10   2
M  END
> <Uni-Dock RESULT> 
ENERGY=   -4.470  LOWER_BOUND=    3.148  UPPER_BOUND=    3.825
INTER + INTRA:          -4.470
INTER:                  -4.470
INTRA:                   0.000
UNBOUND:                 0.000

$$$$

     RDKit          3D

 21 16  0  0  0  0  0  0  0  0999 V2000
   45.1741    2.9489    8.5154 O   0  0  0  0  0  0  0  0  0  0  0  0
   44.8739    2.2824    9.0845 C   0  0  0  0  0  0  0  0  0  0  0  0
   44.2281    2.2123   10.1678 O   0  0  0  0  0  0  0  0  0  0  0  0
   45.5657    1.4060    8.4957 O   0  0  0  0  0  0  0  0  0  0  0  0
   44.8041    3.6299    8.3876 C   0  0  0  0  0  0  0  0  0  0  0  0
   44.9278    2.3580    9.1989 C   0  0  0  0  0  0  0  0  0  0  0  0
   44.1577    2.3296   10.1997 O   0  0  0  0  0  0  0  0  0  0  0  0
   45.8084    1.5320    8.8308 O   0  0  0  0  0  0  0  0  0  0  0  0
   44.7653    3.5748    8.3047 C   0  0  0  0  0  0  0  0  0  0  0  0
   44.8319    3.0624    8.6836 Zn  0  0  0  0  0 15  0  0  0  0  0  0
   45.1739    2.9510    8.5135 O   0  0  0  0  0  0  0  0  0  0  0  0
   44.7297    2.5611    9.2842 H   0  0  0  0  0  0  0  0  0  0  0  0
   44.5920    3.6772    8.2512 H   0  0  0  0  0  0  0  0  0  0  0  0
   45.3792    3.6277    7.4566 H   0  0  0  0  0  0  0  0  0  0  0  0
   43.7635    3.8712    8.1506 H   0  0  0  0  0  0  0  0  0  0  0  0
   45.2090    4.4073    9.0425 H   0  0  0  0  0  0  0  0  0  0  0  0
   43.7421    3.6181    7.9199 H   0  0  0  0  0  0  0  0  0  0  0  0
   44.9688    4.4849    8.8769 H   0  0  0  0  0  0  0  0  0  0  0  0
   45.4534    3.5396    7.4545 H   0  0  0  0  0  0  0  0  0  0  0  0
   44.5876    3.6776    8.2545 H   0  0  0  0  0  0  0  0  0  0  0  0
   44.7344    2.5586    9.2828 H   0  0  0  0  0  0  0  0  0  0  0  0
  3  2  1  0
  4  2  2  0
  5  2  1  0
  7  6  1  0
  8  6  2  0
  9  6  1  0
  1 12  1  0
  1 13  1  0
  5 14  1  0
  5 15  1  0
  5 16  1  0
  9 17  1  0
  9 18  1  0
  9 19  1  0
 11 20  1  0
 11 21  1  0
M  CHG  3   3  -1   7  -1  10   2
M  END
> <Uni-Dock RESULT> 
ENERGY=   -4.383  LOWER_BOUND=    2.666  UPPER_BOUND=    3.074
INTER + INTRA:          -4.383
INTER:                  -4.383
INTRA:                   0.000
UNBOUND:                 0.000

$$$$
