
     RDKit          3D

 44 19  0  0  0  0  0  0  0  0999 V2000
   38.7926    4.0513    5.4707 Mg  0  0  0  0  0 15  0  0  0  0  0  0
   38.8048    4.0560    5.4654 C   0  0  0  0  0  0  0  0  0  0  0  0
   38.0951    5.1512    5.0379 O   0  0  0  0  0  0  0  0  0  0  0  0
   38.2427    2.9918    6.1645 O   0  0  0  0  0  0  0  0  0  0  0  0
   40.0278    4.0060    5.2150 O   0  0  0  0  0  0  0  0  0  0  0  0
   38.8121    3.6123    5.7035 O   0  0  0  0  0  0  0  0  0  0  0  0
   38.8122    3.6106    5.7044 O   0  0  0  0  0  0  0  0  0  0  0  0
   38.8119    3.6165    5.7013 O   0  0  0  0  0  0  0  0  0  0  0  0
   38.7926    4.0513    5.4707 Mg  0  0  0  0  0 15  0  0  0  0  0  0
   38.7926    4.0513    5.4707 Mg  0  0  0  0  0 15  0  0  0  0  0  0
   38.8122    3.6116    5.7039 O   0  0  0  0  0  0  0  0  0  0  0  0
   38.8121    3.6123    5.7035 O   0  0  0  0  0  0  0  0  0  0  0  0
   38.8120    3.6157    5.7017 O   0  0  0  0  0  0  0  0  0  0  0  0
   38.8119    3.6177    5.7007 O   0  0  0  0  0  0  0  0  0  0  0  0
   38.8120    3.6153    5.7019 O   0  0  0  0  0  0  0  0  0  0  0  0
   38.8121    3.6119    5.7037 O   0  0  0  0  0  0  0  0  0  0  0  0
   38.8120    3.6151    5.7020 O   0  0  0  0  0  0  0  0  0  0  0  0
   38.8121    3.6125    5.7034 O   0  0  0  0  0  0  0  0  0  0  0  0
   38.8122    3.6113    5.7040 O   0  0  0  0  0  0  0  0  0  0  0  0
   38.8119    3.6177    5.7007 O   0  0  0  0  0  0  0  0  0  0  0  0
   38.8121    3.6126    5.7033 O   0  0  0  0  0  0  0  0  0  0  0  0
   38.8121    3.6122    5.7036 O   0  0  0  0  0  0  0  0  0  0  0  0
   38.8119    3.6180    5.7005 O   0  0  0  0  0  0  0  0  0  0  0  0
   38.7926    4.0513    5.4707 Al  0  0  0  0  0 15  0  0  0  0  0  0
   38.7926    4.0513    5.4707 Al  0  0  0  0  0 15  0  0  0  0  0  0
   38.7926    4.0513    5.4707 Mg  0  0  0  0  0 15  0  0  0  0  0  0
   38.7926    4.0513    5.4707 Mg  0  0  0  0  0 15  0  0  0  0  0  0
   38.7926    4.0513    5.4707 Mg  0  0  0  0  0 15  0  0  0  0  0  0
   38.7731    4.4903    5.2378 H   0  0  0  0  0  0  0  0  0  0  0  0
   38.7730    4.4919    5.2369 H   0  0  0  0  0  0  0  0  0  0  0  0
   38.7733    4.4860    5.2401 H   0  0  0  0  0  0  0  0  0  0  0  0
   38.7731    4.4910    5.2375 H   0  0  0  0  0  0  0  0  0  0  0  0
   38.7731    4.4903    5.2378 H   0  0  0  0  0  0  0  0  0  0  0  0
   38.7732    4.4868    5.2397 H   0  0  0  0  0  0  0  0  0  0  0  0
   38.7733    4.4849    5.2407 H   0  0  0  0  0  0  0  0  0  0  0  0
   38.7732    4.4873    5.2394 H   0  0  0  0  0  0  0  0  0  0  0  0
   38.7731    4.4906    5.2376 H   0  0  0  0  0  0  0  0  0  0  0  0
   38.7732    4.4874    5.2393 H   0  0  0  0  0  0  0  0  0  0  0  0
   38.7731    4.4901    5.2379 H   0  0  0  0  0  0  0  0  0  0  0  0
   38.7731    4.4912    5.2373 H   0  0  0  0  0  0  0  0  0  0  0  0
   38.7733    4.4849    5.2407 H   0  0  0  0  0  0  0  0  0  0  0  0
   38.7731    4.4899    5.2380 H   0  0  0  0  0  0  0  0  0  0  0  0
   38.7731    4.4903    5.2378 H   0  0  0  0  0  0  0  0  0  0  0  0
   38.7733    4.4845    5.2409 H   0  0  0  0  0  0  0  0  0  0  0  0
  3  2  1  0
  4  2  1  0
  5  2  2  0
  6 29  1  0
  7 30  1  0
  8 31  1  0
 11 32  1  0
 12 33  1  0
 13 34  1  0
 14 35  1  0
 15 36  1  0
 16 37  1  0
 17 38  1  0
 18 39  1  0
 19 40  1  0
 20 41  1  0
 21 42  1  0
 22 43  1  0
 23 44  1  0
M  CHG  8   1   2   3  -1   4  -1   6  -1   7  -1   8  -1   9   2  10   2
M  CHG  8  11  -1  12  -1  13  -1  14  -1  15  -1  16  -1  17  -1  18  -1
M  CHG  8  19  -1  20  -1  21  -1  22  -1  23  -1  24   3  25   3  26   2
M  CHG  2  27   2  28   2
M  END
> <Uni-Dock RESULT> 
ENERGY=  -14.013  LOWER_BOUND=    0.000  UPPER_BOUND=    0.000
INTER + INTRA:         -14.013
INTER:                 -14.013
INTRA:                   0.000
UNBOUND:                 0.000

$$$$

     RDKit          3D

 44 19  0  0  0  0  0  0  0  0999 V2000
   47.0296    0.6313    7.6767 Mg  0  0  0  0  0 15  0  0  0  0  0  0
   47.0240    0.6424    7.6835 C   0  0  0  0  0  0  0  0  0  0  0  0
   48.0179    1.3950    7.1078 O   0  0  0  0  0  0  0  0  0  0  0  0
   46.8661   -0.7246    7.4744 O   0  0  0  0  0  0  0  0  0  0  0  0
   46.2102    1.2125    8.4408 O   0  0  0  0  0  0  0  0  0  0  0  0
   46.8013    0.1946    7.7437 O   0  0  0  0  0  0  0  0  0  0  0  0
   46.8004    0.1930    7.7439 O   0  0  0  0  0  0  0  0  0  0  0  0
   46.8035    0.1988    7.7430 O   0  0  0  0  0  0  0  0  0  0  0  0
   47.0296    0.6313    7.6767 Mg  0  0  0  0  0 15  0  0  0  0  0  0
   47.0296    0.6313    7.6767 Mg  0  0  0  0  0 15  0  0  0  0  0  0
   46.8009    0.1939    7.7438 O   0  0  0  0  0  0  0  0  0  0  0  0
   46.8013    0.1946    7.7437 O   0  0  0  0  0  0  0  0  0  0  0  0
   46.8031    0.1981    7.7432 O   0  0  0  0  0  0  0  0  0  0  0  0
   46.8041    0.2000    7.7429 O   0  0  0  0  0  0  0  0  0  0  0  0
   46.8028    0.1976    7.7432 O   0  0  0  0  0  0  0  0  0  0  0  0
   46.8011    0.1943    7.7437 O   0  0  0  0  0  0  0  0  0  0  0  0
   46.8027    0.1974    7.7433 O   0  0  0  0  0  0  0  0  0  0  0  0
   46.8014    0.1948    7.7437 O   0  0  0  0  0  0  0  0  0  0  0  0
   46.8008    0.1937    7.7438 O   0  0  0  0  0  0  0  0  0  0  0  0
   46.8041    0.2000    7.7429 O   0  0  0  0  0  0  0  0  0  0  0  0
   46.8015    0.1950    7.7436 O   0  0  0  0  0  0  0  0  0  0  0  0
   46.8012    0.1945    7.7437 O   0  0  0  0  0  0  0  0  0  0  0  0
   46.8043    0.2003    7.7428 O   0  0  0  0  0  0  0  0  0  0  0  0
   47.0296    0.6313    7.6767 Al  0  0  0  0  0 15  0  0  0  0  0  0
   47.0296    0.6313    7.6767 Al  0  0  0  0  0 15  0  0  0  0  0  0
   47.0296    0.6313    7.6767 Mg  0  0  0  0  0 15  0  0  0  0  0  0
   47.0296    0.6313    7.6767 Mg  0  0  0  0  0 15  0  0  0  0  0  0
   47.0296    0.6313    7.6767 Mg  0  0  0  0  0 15  0  0  0  0  0  0
   47.2578    1.0680    7.6096 H   0  0  0  0  0  0  0  0  0  0  0  0
   47.2587    1.0697    7.6094 H   0  0  0  0  0  0  0  0  0  0  0  0
   47.2556    1.0638    7.6103 H   0  0  0  0  0  0  0  0  0  0  0  0
   47.2582    1.0687    7.6095 H   0  0  0  0  0  0  0  0  0  0  0  0
   47.2578    1.0680    7.6096 H   0  0  0  0  0  0  0  0  0  0  0  0
   47.2560    1.0646    7.6102 H   0  0  0  0  0  0  0  0  0  0  0  0
   47.2550    1.0627    7.6105 H   0  0  0  0  0  0  0  0  0  0  0  0
   47.2563    1.0650    7.6101 H   0  0  0  0  0  0  0  0  0  0  0  0
   47.2580    1.0684    7.6096 H   0  0  0  0  0  0  0  0  0  0  0  0
   47.2564    1.0652    7.6101 H   0  0  0  0  0  0  0  0  0  0  0  0
   47.2577    1.0679    7.6097 H   0  0  0  0  0  0  0  0  0  0  0  0
   47.2583    1.0690    7.6095 H   0  0  0  0  0  0  0  0  0  0  0  0
   47.2550    1.0627    7.6105 H   0  0  0  0  0  0  0  0  0  0  0  0
   47.2576    1.0677    7.6097 H   0  0  0  0  0  0  0  0  0  0  0  0
   47.2579    1.0681    7.6096 H   0  0  0  0  0  0  0  0  0  0  0  0
   47.2548    1.0623    7.6105 H   0  0  0  0  0  0  0  0  0  0  0  0
  3  2  1  0
  4  2  1  0
  5  2  2  0
  6 29  1  0
  7 30  1  0
  8 31  1  0
 11 32  1  0
 12 33  1  0
 13 34  1  0
 14 35  1  0
 15 36  1  0
 16 37  1  0
 17 38  1  0
 18 39  1  0
 19 40  1  0
 20 41  1  0
 21 42  1  0
 22 43  1  0
 23 44  1  0
M  CHG  8   1   2   3  -1   4  -1   6  -1   7  -1   8  -1   9   2  10   2
M  CHG  8  11  -1  12  -1  13  -1  14  -1  15  -1  16  -1  17  -1  18  -1
M  CHG  8  19  -1  20  -1  21  -1  22  -1  23  -1  24   3  25   3  26   2
M  CHG  2  27   2  28   2
M  END
> <Uni-Dock RESULT> 
ENERGY=  -13.739  LOWER_BOUND=    8.595  UPPER_BOUND=    9.058
INTER + INTRA:         -13.739
INTER:                 -13.739
INTRA:                   0.000
UNBOUND:                 0.000

$$$$

     RDKit          3D

 44 19  0  0  0  0  0  0  0  0999 V2000
   47.5312    1.5266    7.2908 Mg  0  0  0  0  0 15  0  0  0  0  0  0
   47.5241    1.5153    7.2954 C   0  0  0  0  0  0  0  0  0  0  0  0
   46.5741    2.4014    7.7407 O   0  0  0  0  0  0  0  0  0  0  0  0
   48.6904    1.8940    6.6369 O   0  0  0  0  0  0  0  0  0  0  0  0
   47.3362    0.2955    7.4900 O   0  0  0  0  0  0  0  0  0  0  0  0
   47.9635    1.4339    7.0630 O   0  0  0  0  0  0  0  0  0  0  0  0
   47.9651    1.4335    7.0622 O   0  0  0  0  0  0  0  0  0  0  0  0
   47.9593    1.4348    7.0652 O   0  0  0  0  0  0  0  0  0  0  0  0
   47.5312    1.5266    7.2908 Mg  0  0  0  0  0 15  0  0  0  0  0  0
   47.5312    1.5266    7.2908 Mg  0  0  0  0  0 15  0  0  0  0  0  0
   47.9642    1.4337    7.0627 O   0  0  0  0  0  0  0  0  0  0  0  0
   47.9635    1.4339    7.0630 O   0  0  0  0  0  0  0  0  0  0  0  0
   47.9601    1.4346    7.0648 O   0  0  0  0  0  0  0  0  0  0  0  0
   47.9582    1.4350    7.0658 O   0  0  0  0  0  0  0  0  0  0  0  0
   47.9605    1.4345    7.0646 O   0  0  0  0  0  0  0  0  0  0  0  0
   47.9638    1.4338    7.0629 O   0  0  0  0  0  0  0  0  0  0  0  0
   47.9607    1.4345    7.0645 O   0  0  0  0  0  0  0  0  0  0  0  0
   47.9633    1.4339    7.0631 O   0  0  0  0  0  0  0  0  0  0  0  0
   47.9644    1.4337    7.0625 O   0  0  0  0  0  0  0  0  0  0  0  0
   47.9582    1.4350    7.0658 O   0  0  0  0  0  0  0  0  0  0  0  0
   47.9631    1.4339    7.0632 O   0  0  0  0  0  0  0  0  0  0  0  0
   47.9636    1.4338    7.0630 O   0  0  0  0  0  0  0  0  0  0  0  0
   47.9578    1.4351    7.0660 O   0  0  0  0  0  0  0  0  0  0  0  0
   47.5312    1.5266    7.2908 Al  0  0  0  0  0 15  0  0  0  0  0  0
   47.5312    1.5266    7.2908 Al  0  0  0  0  0 15  0  0  0  0  0  0
   47.5312    1.5266    7.2908 Mg  0  0  0  0  0 15  0  0  0  0  0  0
   47.5312    1.5266    7.2908 Mg  0  0  0  0  0 15  0  0  0  0  0  0
   47.5312    1.5266    7.2908 Mg  0  0  0  0  0 15  0  0  0  0  0  0
   47.0989    1.6193    7.5185 H   0  0  0  0  0  0  0  0  0  0  0  0
   47.0973    1.6196    7.5194 H   0  0  0  0  0  0  0  0  0  0  0  0
   47.1031    1.6184    7.5163 H   0  0  0  0  0  0  0  0  0  0  0  0
   47.0982    1.6194    7.5189 H   0  0  0  0  0  0  0  0  0  0  0  0
   47.0989    1.6193    7.5185 H   0  0  0  0  0  0  0  0  0  0  0  0
   47.1023    1.6185    7.5167 H   0  0  0  0  0  0  0  0  0  0  0  0
   47.1042    1.6181    7.5157 H   0  0  0  0  0  0  0  0  0  0  0  0
   47.1019    1.6186    7.5169 H   0  0  0  0  0  0  0  0  0  0  0  0
   47.0986    1.6193    7.5187 H   0  0  0  0  0  0  0  0  0  0  0  0
   47.1017    1.6187    7.5170 H   0  0  0  0  0  0  0  0  0  0  0  0
   47.0991    1.6192    7.5184 H   0  0  0  0  0  0  0  0  0  0  0  0
   47.0980    1.6195    7.5190 H   0  0  0  0  0  0  0  0  0  0  0  0
   47.1042    1.6181    7.5157 H   0  0  0  0  0  0  0  0  0  0  0  0
   47.0993    1.6192    7.5183 H   0  0  0  0  0  0  0  0  0  0  0  0
   47.0988    1.6193    7.5185 H   0  0  0  0  0  0  0  0  0  0  0  0
   47.1046    1.6180    7.5155 H   0  0  0  0  0  0  0  0  0  0  0  0
  3  2  1  0
  4  2  1  0
  5  2  2  0
  6 29  1  0
  7 30  1  0
  8 31  1  0
 11 32  1  0
 12 33  1  0
 13 34  1  0
 14 35  1  0
 15 36  1  0
 16 37  1  0
 17 38  1  0
 18 39  1  0
 19 40  1  0
 20 41  1  0
 21 42  1  0
 22 43  1  0
 23 44  1  0
M  CHG  8   1   2   3  -1   4  -1   6  -1   7  -1   8  -1   9   2  10   2
M  CHG  8  11  -1  12  -1  13  -1  14  -1  15  -1  16  -1  17  -1  18  -1
M  CHG  8  19  -1  20  -1  21  -1  22  -1  23  -1  24   3  25   3  26   2
M  CHG  2  27   2  28   2
M  END
> <Uni-Dock RESULT> 
ENERGY=  -11.941  LOWER_BOUND=    8.758  UPPER_BOUND=    9.428
INTER + INTRA:         -11.941
INTER:                 -11.941
INTRA:                   0.000
UNBOUND:                 0.000

$$$$

     RDKit          3D

 44 19  0  0  0  0  0  0  0  0999 V2000
   42.3415    5.4842   12.1438 Mg  0  0  0  0  0 15  0  0  0  0  0  0
   42.3457    5.4712   12.1400 C   0  0  0  0  0  0  0  0  0  0  0  0
   42.8438    5.3449   13.4135 O   0  0  0  0  0  0  0  0  0  0  0  0
   41.6871    6.6052   11.6734 O   0  0  0  0  0  0  0  0  0  0  0  0
   42.4892    4.5153   11.3485 O   0  0  0  0  0  0  0  0  0  0  0  0
   42.1034    5.7489   11.7966 O   0  0  0  0  0  0  0  0  0  0  0  0
   42.1025    5.7499   11.7953 O   0  0  0  0  0  0  0  0  0  0  0  0
   42.1057    5.7464   11.8000 O   0  0  0  0  0  0  0  0  0  0  0  0
   42.3415    5.4842   12.1438 Mg  0  0  0  0  0 15  0  0  0  0  0  0
   42.3415    5.4842   12.1438 Mg  0  0  0  0  0 15  0  0  0  0  0  0
   42.1031    5.7494   11.7961 O   0  0  0  0  0  0  0  0  0  0  0  0
   42.1034    5.7489   11.7966 O   0  0  0  0  0  0  0  0  0  0  0  0
   42.1053    5.7469   11.7994 O   0  0  0  0  0  0  0  0  0  0  0  0
   42.1064    5.7457   11.8009 O   0  0  0  0  0  0  0  0  0  0  0  0
   42.1051    5.7471   11.7990 O   0  0  0  0  0  0  0  0  0  0  0  0
   42.1032    5.7491   11.7964 O   0  0  0  0  0  0  0  0  0  0  0  0
   42.1050    5.7472   11.7989 O   0  0  0  0  0  0  0  0  0  0  0  0
   42.1035    5.7488   11.7968 O   0  0  0  0  0  0  0  0  0  0  0  0
   42.1029    5.7495   11.7959 O   0  0  0  0  0  0  0  0  0  0  0  0
   42.1064    5.7457   11.8009 O   0  0  0  0  0  0  0  0  0  0  0  0
   42.1036    5.7487   11.7969 O   0  0  0  0  0  0  0  0  0  0  0  0
   42.1034    5.7490   11.7966 O   0  0  0  0  0  0  0  0  0  0  0  0
   42.1065    5.7455   11.8012 O   0  0  0  0  0  0  0  0  0  0  0  0
   42.3415    5.4842   12.1438 Al  0  0  0  0  0 15  0  0  0  0  0  0
   42.3415    5.4842   12.1438 Al  0  0  0  0  0 15  0  0  0  0  0  0
   42.3415    5.4842   12.1438 Mg  0  0  0  0  0 15  0  0  0  0  0  0
   42.3415    5.4842   12.1438 Mg  0  0  0  0  0 15  0  0  0  0  0  0
   42.3415    5.4842   12.1438 Mg  0  0  0  0  0 15  0  0  0  0  0  0
   42.5795    5.2194   12.4910 H   0  0  0  0  0  0  0  0  0  0  0  0
   42.5804    5.2184   12.4924 H   0  0  0  0  0  0  0  0  0  0  0  0
   42.5772    5.2219   12.4877 H   0  0  0  0  0  0  0  0  0  0  0  0
   42.5799    5.2190   12.4916 H   0  0  0  0  0  0  0  0  0  0  0  0
   42.5795    5.2194   12.4910 H   0  0  0  0  0  0  0  0  0  0  0  0
   42.5776    5.2215   12.4883 H   0  0  0  0  0  0  0  0  0  0  0  0
   42.5766    5.2226   12.4868 H   0  0  0  0  0  0  0  0  0  0  0  0
   42.5779    5.2212   12.4887 H   0  0  0  0  0  0  0  0  0  0  0  0
   42.5797    5.2192   12.4913 H   0  0  0  0  0  0  0  0  0  0  0  0
   42.5780    5.2211   12.4888 H   0  0  0  0  0  0  0  0  0  0  0  0
   42.5794    5.2195   12.4909 H   0  0  0  0  0  0  0  0  0  0  0  0
   42.5800    5.2188   12.4918 H   0  0  0  0  0  0  0  0  0  0  0  0
   42.5766    5.2226   12.4868 H   0  0  0  0  0  0  0  0  0  0  0  0
   42.5793    5.2196   12.4907 H   0  0  0  0  0  0  0  0  0  0  0  0
   42.5795    5.2193   12.4911 H   0  0  0  0  0  0  0  0  0  0  0  0
   42.5764    5.2228   12.4865 H   0  0  0  0  0  0  0  0  0  0  0  0
  3  2  1  0
  4  2  1  0
  5  2  2  0
  6 29  1  0
  7 30  1  0
  8 31  1  0
 11 32  1  0
 12 33  1  0
 13 34  1  0
 14 35  1  0
 15 36  1  0
 16 37  1  0
 17 38  1  0
 18 39  1  0
 19 40  1  0
 20 41  1  0
 21 42  1  0
 22 43  1  0
 23 44  1  0
M  CHG  8   1   2   3  -1   4  -1   6  -1   7  -1   8  -1   9   2  10   2
M  CHG  8  11  -1  12  -1  13  -1  14  -1  15  -1  16  -1  17  -1  18  -1
M  CHG  8  19  -1  20  -1  21  -1  22  -1  23  -1  24   3  25   3  26   2
M  CHG  2  27   2  28   2
M  END
> <Uni-Dock RESULT> 
ENERGY=  -11.023  LOWER_BOUND=    7.357  UPPER_BOUND=    7.477
INTER + INTRA:         -11.023
INTER:                 -11.023
INTRA:                   0.000
UNBOUND:                 0.000

$$$$
