
     RDKit          3D

 44 19  0  0  0  0  0  0  0  0999 V2000
   46.9688    0.6247    7.6892 Mg  0  0  0  0  0 15  0  0  0  0  0  0
   46.9440    0.6401    7.7123 C   0  0  0  0  0  0  0  0  0  0  0  0
   46.8434   -0.7237    7.5511 O   0  0  0  0  0  0  0  0  0  0  0  0
   47.9389    1.3283    7.0191 O   0  0  0  0  0  0  0  0  0  0  0  0
   46.1490    1.2542    8.4744 O   0  0  0  0  0  0  0  0  0  0  0  0
   46.8090    0.1538    7.7381 O   0  0  0  0  0  0  0  0  0  0  0  0
   46.8090    0.1538    7.7381 O   0  0  0  0  0  0  0  0  0  0  0  0
   46.8091    0.1541    7.7381 O   0  0  0  0  0  0  0  0  0  0  0  0
   46.9688    0.6247    7.6892 Mg  0  0  0  0  0 15  0  0  0  0  0  0
   46.9688    0.6247    7.6892 Mg  0  0  0  0  0 15  0  0  0  0  0  0
   46.8094    0.1550    7.7380 O   0  0  0  0  0  0  0  0  0  0  0  0
   46.8101    0.1568    7.7378 O   0  0  0  0  0  0  0  0  0  0  0  0
   46.8114    0.1609    7.7374 O   0  0  0  0  0  0  0  0  0  0  0  0
   46.8112    0.1601    7.7375 O   0  0  0  0  0  0  0  0  0  0  0  0
   46.8092    0.1544    7.7381 O   0  0  0  0  0  0  0  0  0  0  0  0
   46.8121    0.1629    7.7372 O   0  0  0  0  0  0  0  0  0  0  0  0
   46.8102    0.1574    7.7378 O   0  0  0  0  0  0  0  0  0  0  0  0
   46.8109    0.1595    7.7376 O   0  0  0  0  0  0  0  0  0  0  0  0
   46.8097    0.1559    7.7379 O   0  0  0  0  0  0  0  0  0  0  0  0
   46.8102    0.1571    7.7378 O   0  0  0  0  0  0  0  0  0  0  0  0
   46.8112    0.1601    7.7375 O   0  0  0  0  0  0  0  0  0  0  0  0
   46.8109    0.1594    7.7376 O   0  0  0  0  0  0  0  0  0  0  0  0
   46.8101    0.1570    7.7378 O   0  0  0  0  0  0  0  0  0  0  0  0
   46.9688    0.6247    7.6892 Al  0  0  0  0  0 15  0  0  0  0  0  0
   46.9688    0.6247    7.6892 Al  0  0  0  0  0 15  0  0  0  0  0  0
   46.9688    0.6247    7.6892 Mg  0  0  0  0  0 15  0  0  0  0  0  0
   46.9688    0.6247    7.6892 Mg  0  0  0  0  0 15  0  0  0  0  0  0
   46.9688    0.6247    7.6892 Mg  0  0  0  0  0 15  0  0  0  0  0  0
   47.1286    1.0957    7.6403 H   0  0  0  0  0  0  0  0  0  0  0  0
   47.1286    1.0957    7.6403 H   0  0  0  0  0  0  0  0  0  0  0  0
   47.1285    1.0954    7.6404 H   0  0  0  0  0  0  0  0  0  0  0  0
   47.1282    1.0945    7.6405 H   0  0  0  0  0  0  0  0  0  0  0  0
   47.1276    1.0927    7.6407 H   0  0  0  0  0  0  0  0  0  0  0  0
   47.1262    1.0886    7.6411 H   0  0  0  0  0  0  0  0  0  0  0  0
   47.1264    1.0894    7.6410 H   0  0  0  0  0  0  0  0  0  0  0  0
   47.1284    1.0951    7.6404 H   0  0  0  0  0  0  0  0  0  0  0  0
   47.1255    1.0866    7.6413 H   0  0  0  0  0  0  0  0  0  0  0  0
   47.1274    1.0921    7.6407 H   0  0  0  0  0  0  0  0  0  0  0  0
   47.1267    1.0900    7.6409 H   0  0  0  0  0  0  0  0  0  0  0  0
   47.1279    1.0936    7.6406 H   0  0  0  0  0  0  0  0  0  0  0  0
   47.1275    1.0924    7.6407 H   0  0  0  0  0  0  0  0  0  0  0  0
   47.1264    1.0894    7.6410 H   0  0  0  0  0  0  0  0  0  0  0  0
   47.1267    1.0901    7.6409 H   0  0  0  0  0  0  0  0  0  0  0  0
   47.1275    1.0925    7.6407 H   0  0  0  0  0  0  0  0  0  0  0  0
  3  2  1  0
  4  2  1  0
  5  2  2  0
  6 29  1  0
  7 30  1  0
  8 31  1  0
 11 32  1  0
 12 33  1  0
 13 34  1  0
 14 35  1  0
 15 36  1  0
 16 37  1  0
 17 38  1  0
 18 39  1  0
 19 40  1  0
 20 41  1  0
 21 42  1  0
 22 43  1  0
 23 44  1  0
M  CHG  8   1   2   3  -1   4  -1   6  -1   7  -1   8  -1   9   2  10   2
M  CHG  8  11  -1  12  -1  13  -1  14  -1  15  -1  16  -1  17  -1  18  -1
M  CHG  8  19  -1  20  -1  21  -1  22  -1  23  -1  24   3  25   3  26   2
M  CHG  2  27   2  28   2
M  END
> <Uni-Dock RESULT> 
ENERGY=  -13.872  LOWER_BOUND=    0.000  UPPER_BOUND=    0.000
INTER + INTRA:         -13.872
INTER:                 -13.872
INTRA:                   0.000
UNBOUND:                 0.000

$$$$

     RDKit          3D

 44 19  0  0  0  0  0  0  0  0999 V2000
   47.0134    0.6155    7.5707 Mg  0  0  0  0  0 15  0  0  0  0  0  0
   46.9943    0.6399    7.5914 C   0  0  0  0  0  0  0  0  0  0  0  0
   48.0483    1.1589    6.8731 O   0  0  0  0  0  0  0  0  0  0  0  0
   46.7231   -0.7245    7.4979 O   0  0  0  0  0  0  0  0  0  0  0  0
   46.2878    1.3876    8.3206 O   0  0  0  0  0  0  0  0  0  0  0  0
   47.3414    0.9420    7.3825 O   0  0  0  0  0  0  0  0  0  0  0  0
   47.3414    0.9420    7.3825 O   0  0  0  0  0  0  0  0  0  0  0  0
   47.3412    0.9418    7.3826 O   0  0  0  0  0  0  0  0  0  0  0  0
   47.0134    0.6155    7.5707 Mg  0  0  0  0  0 15  0  0  0  0  0  0
   47.0134    0.6155    7.5707 Mg  0  0  0  0  0 15  0  0  0  0  0  0
   47.3406    0.9412    7.3830 O   0  0  0  0  0  0  0  0  0  0  0  0
   47.3393    0.9399    7.3837 O   0  0  0  0  0  0  0  0  0  0  0  0
   47.3365    0.9371    7.3853 O   0  0  0  0  0  0  0  0  0  0  0  0
   47.3370    0.9376    7.3850 O   0  0  0  0  0  0  0  0  0  0  0  0
   47.3410    0.9416    7.3827 O   0  0  0  0  0  0  0  0  0  0  0  0
   47.3351    0.9358    7.3861 O   0  0  0  0  0  0  0  0  0  0  0  0
   47.3389    0.9395    7.3839 O   0  0  0  0  0  0  0  0  0  0  0  0
   47.3375    0.9381    7.3848 O   0  0  0  0  0  0  0  0  0  0  0  0
   47.3400    0.9406    7.3833 O   0  0  0  0  0  0  0  0  0  0  0  0
   47.3391    0.9397    7.3838 O   0  0  0  0  0  0  0  0  0  0  0  0
   47.3370    0.9376    7.3850 O   0  0  0  0  0  0  0  0  0  0  0  0
   47.3376    0.9382    7.3847 O   0  0  0  0  0  0  0  0  0  0  0  0
   47.3392    0.9398    7.3838 O   0  0  0  0  0  0  0  0  0  0  0  0
   47.0134    0.6155    7.5707 Al  0  0  0  0  0 15  0  0  0  0  0  0
   47.0134    0.6155    7.5707 Al  0  0  0  0  0 15  0  0  0  0  0  0
   47.0134    0.6155    7.5707 Mg  0  0  0  0  0 15  0  0  0  0  0  0
   47.0134    0.6155    7.5707 Mg  0  0  0  0  0 15  0  0  0  0  0  0
   47.0134    0.6155    7.5707 Mg  0  0  0  0  0 15  0  0  0  0  0  0
   46.6853    0.2889    7.7590 H   0  0  0  0  0  0  0  0  0  0  0  0
   46.6853    0.2889    7.7590 H   0  0  0  0  0  0  0  0  0  0  0  0
   46.6855    0.2891    7.7589 H   0  0  0  0  0  0  0  0  0  0  0  0
   46.6861    0.2898    7.7585 H   0  0  0  0  0  0  0  0  0  0  0  0
   46.6874    0.2910    7.7578 H   0  0  0  0  0  0  0  0  0  0  0  0
   46.6902    0.2938    7.7562 H   0  0  0  0  0  0  0  0  0  0  0  0
   46.6897    0.2933    7.7565 H   0  0  0  0  0  0  0  0  0  0  0  0
   46.6857    0.2893    7.7588 H   0  0  0  0  0  0  0  0  0  0  0  0
   46.6916    0.2952    7.7554 H   0  0  0  0  0  0  0  0  0  0  0  0
   46.6878    0.2914    7.7576 H   0  0  0  0  0  0  0  0  0  0  0  0
   46.6892    0.2929    7.7567 H   0  0  0  0  0  0  0  0  0  0  0  0
   46.6867    0.2904    7.7582 H   0  0  0  0  0  0  0  0  0  0  0  0
   46.6876    0.2912    7.7577 H   0  0  0  0  0  0  0  0  0  0  0  0
   46.6897    0.2933    7.7565 H   0  0  0  0  0  0  0  0  0  0  0  0
   46.6892    0.2928    7.7568 H   0  0  0  0  0  0  0  0  0  0  0  0
   46.6875    0.2912    7.7577 H   0  0  0  0  0  0  0  0  0  0  0  0
  3  2  1  0
  4  2  1  0
  5  2  2  0
  6 29  1  0
  7 30  1  0
  8 31  1  0
 11 32  1  0
 12 33  1  0
 13 34  1  0
 14 35  1  0
 15 36  1  0
 16 37  1  0
 17 38  1  0
 18 39  1  0
 19 40  1  0
 20 41  1  0
 21 42  1  0
 22 43  1  0
 23 44  1  0
M  CHG  8   1   2   3  -1   4  -1   6  -1   7  -1   8  -1   9   2  10   2
M  CHG  8  11  -1  12  -1  13  -1  14  -1  15  -1  16  -1  17  -1  18  -1
M  CHG  8  19  -1  20  -1  21  -1  22  -1  23  -1  24   3  25   3  26   2
M  CHG  2  27   2  28   2
M  END
> <Uni-Dock RESULT> 
ENERGY=  -12.250  LOWER_BOUND=    0.701  UPPER_BOUND=    0.997
INTER + INTRA:         -12.250
INTER:                 -12.250
INTRA:                   0.000
UNBOUND:                 0.000

$$$$

     RDKit          3D

 44 19  0  0  0  0  0  0  0  0999 V2000
   39.2020    4.5188    5.4401 Mg  0  0  0  0  0 15  0  0  0  0  0  0
   39.1793    4.5467    5.4302 C   0  0  0  0  0  0  0  0  0  0  0  0
   40.5258    4.7967    5.2871 O   0  0  0  0  0  0  0  0  0  0  0  0
   38.7735    3.3067    5.9219 O   0  0  0  0  0  0  0  0  0  0  0  0
   38.3294    5.4253    5.1212 O   0  0  0  0  0  0  0  0  0  0  0  0
   39.6302    4.7532    5.3333 O   0  0  0  0  0  0  0  0  0  0  0  0
   39.6302    4.7532    5.3333 O   0  0  0  0  0  0  0  0  0  0  0  0
   39.6300    4.7531    5.3333 O   0  0  0  0  0  0  0  0  0  0  0  0
   39.2020    4.5188    5.4401 Mg  0  0  0  0  0 15  0  0  0  0  0  0
   39.2020    4.5188    5.4401 Mg  0  0  0  0  0 15  0  0  0  0  0  0
   39.6291    4.7526    5.3335 O   0  0  0  0  0  0  0  0  0  0  0  0
   39.6275    4.7517    5.3339 O   0  0  0  0  0  0  0  0  0  0  0  0
   39.6238    4.7497    5.3349 O   0  0  0  0  0  0  0  0  0  0  0  0
   39.6245    4.7501    5.3347 O   0  0  0  0  0  0  0  0  0  0  0  0
   39.6297    4.7530    5.3334 O   0  0  0  0  0  0  0  0  0  0  0  0
   39.6220    4.7487    5.3353 O   0  0  0  0  0  0  0  0  0  0  0  0
   39.6270    4.7515    5.3341 O   0  0  0  0  0  0  0  0  0  0  0  0
   39.6251    4.7504    5.3345 O   0  0  0  0  0  0  0  0  0  0  0  0
   39.6283    4.7522    5.3337 O   0  0  0  0  0  0  0  0  0  0  0  0
   39.6272    4.7516    5.3340 O   0  0  0  0  0  0  0  0  0  0  0  0
   39.6245    4.7501    5.3347 O   0  0  0  0  0  0  0  0  0  0  0  0
   39.6252    4.7505    5.3345 O   0  0  0  0  0  0  0  0  0  0  0  0
   39.6273    4.7517    5.3340 O   0  0  0  0  0  0  0  0  0  0  0  0
   39.2020    4.5188    5.4401 Al  0  0  0  0  0 15  0  0  0  0  0  0
   39.2020    4.5188    5.4401 Al  0  0  0  0  0 15  0  0  0  0  0  0
   39.2020    4.5188    5.4401 Mg  0  0  0  0  0 15  0  0  0  0  0  0
   39.2020    4.5188    5.4401 Mg  0  0  0  0  0 15  0  0  0  0  0  0
   39.2020    4.5188    5.4401 Mg  0  0  0  0  0 15  0  0  0  0  0  0
   38.7738    4.2844    5.5468 H   0  0  0  0  0  0  0  0  0  0  0  0
   38.7738    4.2844    5.5468 H   0  0  0  0  0  0  0  0  0  0  0  0
   38.7741    4.2846    5.5468 H   0  0  0  0  0  0  0  0  0  0  0  0
   38.7750    4.2850    5.5466 H   0  0  0  0  0  0  0  0  0  0  0  0
   38.7766    4.2859    5.5462 H   0  0  0  0  0  0  0  0  0  0  0  0
   38.7803    4.2879    5.5452 H   0  0  0  0  0  0  0  0  0  0  0  0
   38.7796    4.2876    5.5454 H   0  0  0  0  0  0  0  0  0  0  0  0
   38.7744    4.2847    5.5467 H   0  0  0  0  0  0  0  0  0  0  0  0
   38.7821    4.2889    5.5448 H   0  0  0  0  0  0  0  0  0  0  0  0
   38.7771    4.2862    5.5460 H   0  0  0  0  0  0  0  0  0  0  0  0
   38.7790    4.2872    5.5456 H   0  0  0  0  0  0  0  0  0  0  0  0
   38.7757    4.2854    5.5464 H   0  0  0  0  0  0  0  0  0  0  0  0
   38.7768    4.2861    5.5461 H   0  0  0  0  0  0  0  0  0  0  0  0
   38.7796    4.2876    5.5454 H   0  0  0  0  0  0  0  0  0  0  0  0
   38.7789    4.2872    5.5456 H   0  0  0  0  0  0  0  0  0  0  0  0
   38.7768    4.2860    5.5461 H   0  0  0  0  0  0  0  0  0  0  0  0
  3  2  1  0
  4  2  1  0
  5  2  2  0
  6 29  1  0
  7 30  1  0
  8 31  1  0
 11 32  1  0
 12 33  1  0
 13 34  1  0
 14 35  1  0
 15 36  1  0
 16 37  1  0
 17 38  1  0
 18 39  1  0
 19 40  1  0
 20 41  1  0
 21 42  1  0
 22 43  1  0
 23 44  1  0
M  CHG  8   1   2   3  -1   4  -1   6  -1   7  -1   8  -1   9   2  10   2
M  CHG  8  11  -1  12  -1  13  -1  14  -1  15  -1  16  -1  17  -1  18  -1
M  CHG  8  19  -1  20  -1  21  -1  22  -1  23  -1  24   3  25   3  26   2
M  CHG  2  27   2  28   2
M  END
> <Uni-Dock RESULT> 
ENERGY=  -12.137  LOWER_BOUND=    8.446  UPPER_BOUND=    8.935
INTER + INTRA:         -12.137
INTER:                 -12.137
INTRA:                   0.000
UNBOUND:                 0.000

$$$$

     RDKit          3D

 44 19  0  0  0  0  0  0  0  0999 V2000
   47.9424    1.9274    6.8541 Mg  0  0  0  0  0 15  0  0  0  0  0  0
   47.9592    1.9218    6.8213 C   0  0  0  0  0  0  0  0  0  0  0  0
   47.8316    0.8108    7.6248 O   0  0  0  0  0  0  0  0  0  0  0  0
   47.4689    3.1439    7.2796 O   0  0  0  0  0  0  0  0  0  0  0  0
   48.5102    1.8332    5.6906 O   0  0  0  0  0  0  0  0  0  0  0  0
   47.9711    1.4554    7.0155 O   0  0  0  0  0  0  0  0  0  0  0  0
   47.9711    1.4554    7.0155 O   0  0  0  0  0  0  0  0  0  0  0  0
   47.9711    1.4557    7.0154 O   0  0  0  0  0  0  0  0  0  0  0  0
   47.9424    1.9274    6.8541 Mg  0  0  0  0  0 15  0  0  0  0  0  0
   47.9424    1.9274    6.8541 Mg  0  0  0  0  0 15  0  0  0  0  0  0
   47.9710    1.4566    7.0151 O   0  0  0  0  0  0  0  0  0  0  0  0
   47.9709    1.4584    7.0144 O   0  0  0  0  0  0  0  0  0  0  0  0
   47.9706    1.4625    7.0131 O   0  0  0  0  0  0  0  0  0  0  0  0
   47.9707    1.4617    7.0133 O   0  0  0  0  0  0  0  0  0  0  0  0
   47.9710    1.4559    7.0153 O   0  0  0  0  0  0  0  0  0  0  0  0
   47.9705    1.4645    7.0124 O   0  0  0  0  0  0  0  0  0  0  0  0
   47.9708    1.4590    7.0143 O   0  0  0  0  0  0  0  0  0  0  0  0
   47.9707    1.4611    7.0135 O   0  0  0  0  0  0  0  0  0  0  0  0
   47.9709    1.4575    7.0148 O   0  0  0  0  0  0  0  0  0  0  0  0
   47.9709    1.4587    7.0144 O   0  0  0  0  0  0  0  0  0  0  0  0
   47.9707    1.4617    7.0133 O   0  0  0  0  0  0  0  0  0  0  0  0
   47.9707    1.4610    7.0136 O   0  0  0  0  0  0  0  0  0  0  0  0
   47.9709    1.4586    7.0144 O   0  0  0  0  0  0  0  0  0  0  0  0
   47.9424    1.9274    6.8541 Al  0  0  0  0  0 15  0  0  0  0  0  0
   47.9424    1.9274    6.8541 Al  0  0  0  0  0 15  0  0  0  0  0  0
   47.9424    1.9274    6.8541 Mg  0  0  0  0  0 15  0  0  0  0  0  0
   47.9424    1.9274    6.8541 Mg  0  0  0  0  0 15  0  0  0  0  0  0
   47.9424    1.9274    6.8541 Mg  0  0  0  0  0 15  0  0  0  0  0  0
   47.9138    2.3995    6.6926 H   0  0  0  0  0  0  0  0  0  0  0  0
   47.9138    2.3995    6.6926 H   0  0  0  0  0  0  0  0  0  0  0  0
   47.9138    2.3992    6.6927 H   0  0  0  0  0  0  0  0  0  0  0  0
   47.9139    2.3982    6.6930 H   0  0  0  0  0  0  0  0  0  0  0  0
   47.9140    2.3964    6.6937 H   0  0  0  0  0  0  0  0  0  0  0  0
   47.9142    2.3924    6.6950 H   0  0  0  0  0  0  0  0  0  0  0  0
   47.9142    2.3931    6.6948 H   0  0  0  0  0  0  0  0  0  0  0  0
   47.9138    2.3989    6.6928 H   0  0  0  0  0  0  0  0  0  0  0  0
   47.9143    2.3904    6.6957 H   0  0  0  0  0  0  0  0  0  0  0  0
   47.9140    2.3959    6.6939 H   0  0  0  0  0  0  0  0  0  0  0  0
   47.9141    2.3938    6.6946 H   0  0  0  0  0  0  0  0  0  0  0  0
   47.9139    2.3974    6.6933 H   0  0  0  0  0  0  0  0  0  0  0  0
   47.9140    2.3962    6.6938 H   0  0  0  0  0  0  0  0  0  0  0  0
   47.9142    2.3931    6.6948 H   0  0  0  0  0  0  0  0  0  0  0  0
   47.9141    2.3939    6.6945 H   0  0  0  0  0  0  0  0  0  0  0  0
   47.9140    2.3962    6.6937 H   0  0  0  0  0  0  0  0  0  0  0  0
  3  2  1  0
  4  2  1  0
  5  2  2  0
  6 29  1  0
  7 30  1  0
  8 31  1  0
 11 32  1  0
 12 33  1  0
 13 34  1  0
 14 35  1  0
 15 36  1  0
 16 37  1  0
 17 38  1  0
 18 39  1  0
 19 40  1  0
 20 41  1  0
 21 42  1  0
 22 43  1  0
 23 44  1  0
M  CHG  8   1   2   3  -1   4  -1   6  -1   7  -1   8  -1   9   2  10   2
M  CHG  8  11  -1  12  -1  13  -1  14  -1  15  -1  16  -1  17  -1  18  -1
M  CHG  8  19  -1  20  -1  21  -1  22  -1  23  -1  24   3  25   3  26   2
M  CHG  2  27   2  28   2
M  END
> <Uni-Dock RESULT> 
ENERGY=  -11.833  LOWER_BOUND=    1.476  UPPER_BOUND=    1.962
INTER + INTRA:         -11.833
INTER:                 -11.833
INTRA:                   0.000
UNBOUND:                 0.000

$$$$

     RDKit          3D

 44 19  0  0  0  0  0  0  0  0999 V2000
   42.3540    5.4323   12.1072 Mg  0  0  0  0  0 15  0  0  0  0  0  0
   42.3583    5.4051   12.0821 C   0  0  0  0  0  0  0  0  0  0  0  0
   41.6813    6.5205   11.6419 O   0  0  0  0  0  0  0  0  0  0  0  0
   42.8211    5.3740   13.3970 O   0  0  0  0  0  0  0  0  0  0  0  0
   42.5552    4.4296   11.3078 O   0  0  0  0  0  0  0  0  0  0  0  0
   42.1055    5.7469   11.8090 O   0  0  0  0  0  0  0  0  0  0  0  0
   42.1055    5.7469   11.8090 O   0  0  0  0  0  0  0  0  0  0  0  0
   42.1056    5.7467   11.8091 O   0  0  0  0  0  0  0  0  0  0  0  0
   42.3540    5.4323   12.1072 Mg  0  0  0  0  0 15  0  0  0  0  0  0
   42.3540    5.4323   12.1072 Mg  0  0  0  0  0 15  0  0  0  0  0  0
   42.1061    5.7461   11.8097 O   0  0  0  0  0  0  0  0  0  0  0  0
   42.1071    5.7449   11.8109 O   0  0  0  0  0  0  0  0  0  0  0  0
   42.1092    5.7422   11.8134 O   0  0  0  0  0  0  0  0  0  0  0  0
   42.1088    5.7427   11.8130 O   0  0  0  0  0  0  0  0  0  0  0  0
   42.1058    5.7466   11.8093 O   0  0  0  0  0  0  0  0  0  0  0  0
   42.1103    5.7409   11.8147 O   0  0  0  0  0  0  0  0  0  0  0  0
   42.1074    5.7445   11.8112 O   0  0  0  0  0  0  0  0  0  0  0  0
   42.1085    5.7432   11.8125 O   0  0  0  0  0  0  0  0  0  0  0  0
   42.1066    5.7456   11.8103 O   0  0  0  0  0  0  0  0  0  0  0  0
   42.1072    5.7447   11.8110 O   0  0  0  0  0  0  0  0  0  0  0  0
   42.1088    5.7427   11.8130 O   0  0  0  0  0  0  0  0  0  0  0  0
   42.1084    5.7432   11.8125 O   0  0  0  0  0  0  0  0  0  0  0  0
   42.1072    5.7448   11.8110 O   0  0  0  0  0  0  0  0  0  0  0  0
   42.3540    5.4323   12.1072 Al  0  0  0  0  0 15  0  0  0  0  0  0
   42.3540    5.4323   12.1072 Al  0  0  0  0  0 15  0  0  0  0  0  0
   42.3540    5.4323   12.1072 Mg  0  0  0  0  0 15  0  0  0  0  0  0
   42.3540    5.4323   12.1072 Mg  0  0  0  0  0 15  0  0  0  0  0  0
   42.3540    5.4323   12.1072 Mg  0  0  0  0  0 15  0  0  0  0  0  0
   42.6025    5.1177   12.4054 H   0  0  0  0  0  0  0  0  0  0  0  0
   42.6025    5.1177   12.4054 H   0  0  0  0  0  0  0  0  0  0  0  0
   42.6024    5.1179   12.4053 H   0  0  0  0  0  0  0  0  0  0  0  0
   42.6019    5.1185   12.4047 H   0  0  0  0  0  0  0  0  0  0  0  0
   42.6009    5.1197   12.4035 H   0  0  0  0  0  0  0  0  0  0  0  0
   42.5988    5.1224   12.4010 H   0  0  0  0  0  0  0  0  0  0  0  0
   42.5992    5.1219   12.4014 H   0  0  0  0  0  0  0  0  0  0  0  0
   42.6022    5.1181   12.4051 H   0  0  0  0  0  0  0  0  0  0  0  0
   42.5978    5.1237   12.3997 H   0  0  0  0  0  0  0  0  0  0  0  0
   42.6006    5.1201   12.4032 H   0  0  0  0  0  0  0  0  0  0  0  0
   42.5996    5.1215   12.4019 H   0  0  0  0  0  0  0  0  0  0  0  0
   42.6014    5.1191   12.4041 H   0  0  0  0  0  0  0  0  0  0  0  0
   42.6008    5.1199   12.4034 H   0  0  0  0  0  0  0  0  0  0  0  0
   42.5992    5.1219   12.4014 H   0  0  0  0  0  0  0  0  0  0  0  0
   42.5996    5.1214   12.4019 H   0  0  0  0  0  0  0  0  0  0  0  0
   42.6008    5.1198   12.4034 H   0  0  0  0  0  0  0  0  0  0  0  0
  3  2  1  0
  4  2  1  0
  5  2  2  0
  6 29  1  0
  7 30  1  0
  8 31  1  0
 11 32  1  0
 12 33  1  0
 13 34  1  0
 14 35  1  0
 15 36  1  0
 16 37  1  0
 17 38  1  0
 18 39  1  0
 19 40  1  0
 20 41  1  0
 21 42  1  0
 22 43  1  0
 23 44  1  0
M  CHG  8   1   2   3  -1   4  -1   6  -1   7  -1   8  -1   9   2  10   2
M  CHG  8  11  -1  12  -1  13  -1  14  -1  15  -1  16  -1  17  -1  18  -1
M  CHG  8  19  -1  20  -1  21  -1  22  -1  23  -1  24   3  25   3  26   2
M  CHG  2  27   2  28   2
M  END
> <Uni-Dock RESULT> 
ENERGY=  -11.065  LOWER_BOUND=    7.336  UPPER_BOUND=    8.244
INTER + INTRA:         -11.065
INTER:                 -11.065
INTRA:                   0.000
UNBOUND:                 0.000

$$$$

     RDKit          3D

 44 19  0  0  0  0  0  0  0  0999 V2000
   40.1373   12.3032   15.7152 Mg  0  0  0  0  0 15  0  0  0  0  0  0
   40.1464   12.3148   15.6810 C   0  0  0  0  0  0  0  0  0  0  0  0
   41.1610   11.7229   16.3995 O   0  0  0  0  0  0  0  0  0  0  0  0
   38.8871   12.4338   16.2674 O   0  0  0  0  0  0  0  0  0  0  0  0
   40.3548   12.7413   14.5129 O   0  0  0  0  0  0  0  0  0  0  0  0
   40.5869   12.1215   15.8360 O   0  0  0  0  0  0  0  0  0  0  0  0
   40.5869   12.1215   15.8360 O   0  0  0  0  0  0  0  0  0  0  0  0
   40.5866   12.1216   15.8359 O   0  0  0  0  0  0  0  0  0  0  0  0
   40.1373   12.3032   15.7152 Mg  0  0  0  0  0 15  0  0  0  0  0  0
   40.1373   12.3032   15.7152 Mg  0  0  0  0  0 15  0  0  0  0  0  0
   40.5857   12.1220   15.8356 O   0  0  0  0  0  0  0  0  0  0  0  0
   40.5840   12.1227   15.8352 O   0  0  0  0  0  0  0  0  0  0  0  0
   40.5801   12.1242   15.8341 O   0  0  0  0  0  0  0  0  0  0  0  0
   40.5808   12.1239   15.8343 O   0  0  0  0  0  0  0  0  0  0  0  0
   40.5863   12.1217   15.8358 O   0  0  0  0  0  0  0  0  0  0  0  0
   40.5782   12.1250   15.8336 O   0  0  0  0  0  0  0  0  0  0  0  0
   40.5835   12.1229   15.8350 O   0  0  0  0  0  0  0  0  0  0  0  0
   40.5815   12.1237   15.8345 O   0  0  0  0  0  0  0  0  0  0  0  0
   40.5849   12.1223   15.8354 O   0  0  0  0  0  0  0  0  0  0  0  0
   40.5837   12.1228   15.8351 O   0  0  0  0  0  0  0  0  0  0  0  0
   40.5808   12.1239   15.8343 O   0  0  0  0  0  0  0  0  0  0  0  0
   40.5816   12.1236   15.8345 O   0  0  0  0  0  0  0  0  0  0  0  0
   40.5838   12.1227   15.8351 O   0  0  0  0  0  0  0  0  0  0  0  0
   40.1373   12.3032   15.7152 Al  0  0  0  0  0 15  0  0  0  0  0  0
   40.1373   12.3032   15.7152 Al  0  0  0  0  0 15  0  0  0  0  0  0
   40.1373   12.3032   15.7152 Mg  0  0  0  0  0 15  0  0  0  0  0  0
   40.1373   12.3032   15.7152 Mg  0  0  0  0  0 15  0  0  0  0  0  0
   40.1373   12.3032   15.7152 Mg  0  0  0  0  0 15  0  0  0  0  0  0
   39.6878   12.4849   15.5944 H   0  0  0  0  0  0  0  0  0  0  0  0
   39.6878   12.4849   15.5944 H   0  0  0  0  0  0  0  0  0  0  0  0
   39.6880   12.4848   15.5945 H   0  0  0  0  0  0  0  0  0  0  0  0
   39.6889   12.4844   15.5947 H   0  0  0  0  0  0  0  0  0  0  0  0
   39.6906   12.4837   15.5952 H   0  0  0  0  0  0  0  0  0  0  0  0
   39.6945   12.4821   15.5962 H   0  0  0  0  0  0  0  0  0  0  0  0
   39.6938   12.4824   15.5960 H   0  0  0  0  0  0  0  0  0  0  0  0
   39.6883   12.4846   15.5945 H   0  0  0  0  0  0  0  0  0  0  0  0
   39.6964   12.4814   15.5967 H   0  0  0  0  0  0  0  0  0  0  0  0
   39.6912   12.4835   15.5953 H   0  0  0  0  0  0  0  0  0  0  0  0
   39.6931   12.4827   15.5958 H   0  0  0  0  0  0  0  0  0  0  0  0
   39.6897   12.4841   15.5949 H   0  0  0  0  0  0  0  0  0  0  0  0
   39.6909   12.4836   15.5952 H   0  0  0  0  0  0  0  0  0  0  0  0
   39.6938   12.4824   15.5960 H   0  0  0  0  0  0  0  0  0  0  0  0
   39.6931   12.4827   15.5958 H   0  0  0  0  0  0  0  0  0  0  0  0
   39.6908   12.4836   15.5952 H   0  0  0  0  0  0  0  0  0  0  0  0
  3  2  1  0
  4  2  1  0
  5  2  2  0
  6 29  1  0
  7 30  1  0
  8 31  1  0
 11 32  1  0
 12 33  1  0
 13 34  1  0
 14 35  1  0
 15 36  1  0
 16 37  1  0
 17 38  1  0
 18 39  1  0
 19 40  1  0
 20 41  1  0
 21 42  1  0
 22 43  1  0
 23 44  1  0
M  CHG  8   1   2   3  -1   4  -1   6  -1   7  -1   8  -1   9   2  10   2
M  CHG  8  11  -1  12  -1  13  -1  14  -1  15  -1  16  -1  17  -1  18  -1
M  CHG  8  19  -1  20  -1  21  -1  22  -1  23  -1  24   3  25   3  26   2
M  CHG  2  27   2  28   2
M  END
> <Uni-Dock RESULT> 
ENERGY=  -10.946  LOWER_BOUND=   15.563  UPPER_BOUND=   15.748
INTER + INTRA:         -10.946
INTER:                 -10.946
INTRA:                   0.000
UNBOUND:                 0.000

$$$$
