
     RDKit          3D

 44 19  0  0  0  0  0  0  0  0999 V2000
   39.0705    3.9123    5.4569 Mg  0  0  0  0  0 15  0  0  0  0  0  0
   39.0465    3.9380    5.4386 C   0  0  0  0  0  0  0  0  0  0  0  0
   38.7938    2.8642    6.2691 O   0  0  0  0  0  0  0  0  0  0  0  0
   40.3650    4.2344    5.1455 O   0  0  0  0  0  0  0  0  0  0  0  0
   38.0767    4.6127    4.9744 O   0  0  0  0  0  0  0  0  0  0  0  0
   38.7490    3.6234    5.7084 O   0  0  0  0  0  0  0  0  0  0  0  0
   38.7547    3.6286    5.7040 O   0  0  0  0  0  0  0  0  0  0  0  0
   38.7492    3.6236    5.7083 O   0  0  0  0  0  0  0  0  0  0  0  0
   39.0705    3.9123    5.4569 Mg  0  0  0  0  0 15  0  0  0  0  0  0
   39.0705    3.9123    5.4569 Mg  0  0  0  0  0 15  0  0  0  0  0  0
   38.7546    3.6285    5.7040 O   0  0  0  0  0  0  0  0  0  0  0  0
   38.7549    3.6287    5.7038 O   0  0  0  0  0  0  0  0  0  0  0  0
   38.7507    3.6250    5.7071 O   0  0  0  0  0  0  0  0  0  0  0  0
   38.7525    3.6266    5.7057 O   0  0  0  0  0  0  0  0  0  0  0  0
   38.7496    3.6239    5.7080 O   0  0  0  0  0  0  0  0  0  0  0  0
   38.7508    3.6250    5.7070 O   0  0  0  0  0  0  0  0  0  0  0  0
   38.7494    3.6238    5.7081 O   0  0  0  0  0  0  0  0  0  0  0  0
   38.7531    3.6271    5.7052 O   0  0  0  0  0  0  0  0  0  0  0  0
   38.7553    3.6291    5.7035 O   0  0  0  0  0  0  0  0  0  0  0  0
   38.7500    3.6243    5.7076 O   0  0  0  0  0  0  0  0  0  0  0  0
   38.7537    3.6277    5.7047 O   0  0  0  0  0  0  0  0  0  0  0  0
   38.7528    3.6269    5.7054 O   0  0  0  0  0  0  0  0  0  0  0  0
   38.7521    3.6262    5.7060 O   0  0  0  0  0  0  0  0  0  0  0  0
   39.0705    3.9123    5.4569 Al  0  0  0  0  0 15  0  0  0  0  0  0
   39.0705    3.9123    5.4569 Al  0  0  0  0  0 15  0  0  0  0  0  0
   39.0705    3.9123    5.4569 Mg  0  0  0  0  0 15  0  0  0  0  0  0
   39.0705    3.9123    5.4569 Mg  0  0  0  0  0 15  0  0  0  0  0  0
   39.0705    3.9123    5.4569 Mg  0  0  0  0  0 15  0  0  0  0  0  0
   39.3920    4.2013    5.2054 H   0  0  0  0  0  0  0  0  0  0  0  0
   39.3863    4.1961    5.2099 H   0  0  0  0  0  0  0  0  0  0  0  0
   39.3918    4.2011    5.2055 H   0  0  0  0  0  0  0  0  0  0  0  0
   39.3863    4.1962    5.2098 H   0  0  0  0  0  0  0  0  0  0  0  0
   39.3861    4.1959    5.2100 H   0  0  0  0  0  0  0  0  0  0  0  0
   39.3902    4.1997    5.2067 H   0  0  0  0  0  0  0  0  0  0  0  0
   39.3884    4.1981    5.2082 H   0  0  0  0  0  0  0  0  0  0  0  0
   39.3914    4.2007    5.2058 H   0  0  0  0  0  0  0  0  0  0  0  0
   39.3902    4.1996    5.2068 H   0  0  0  0  0  0  0  0  0  0  0  0
   39.3916    4.2009    5.2057 H   0  0  0  0  0  0  0  0  0  0  0  0
   39.3879    4.1976    5.2086 H   0  0  0  0  0  0  0  0  0  0  0  0
   39.3856    4.1955    5.2104 H   0  0  0  0  0  0  0  0  0  0  0  0
   39.3910    4.2003    5.2062 H   0  0  0  0  0  0  0  0  0  0  0  0
   39.3872    4.1970    5.2091 H   0  0  0  0  0  0  0  0  0  0  0  0
   39.3881    4.1978    5.2084 H   0  0  0  0  0  0  0  0  0  0  0  0
   39.3889    4.1985    5.2078 H   0  0  0  0  0  0  0  0  0  0  0  0
  3  2  1  0
  4  2  1  0
  5  2  2  0
  6 29  1  0
  7 30  1  0
  8 31  1  0
 11 32  1  0
 12 33  1  0
 13 34  1  0
 14 35  1  0
 15 36  1  0
 16 37  1  0
 17 38  1  0
 18 39  1  0
 19 40  1  0
 20 41  1  0
 21 42  1  0
 22 43  1  0
 23 44  1  0
M  CHG  8   1   2   3  -1   4  -1   6  -1   7  -1   8  -1   9   2  10   2
M  CHG  8  11  -1  12  -1  13  -1  14  -1  15  -1  16  -1  17  -1  18  -1
M  CHG  8  19  -1  20  -1  21  -1  22  -1  23  -1  24   3  25   3  26   2
M  CHG  2  27   2  28   2
M  END
> <Uni-Dock RESULT> 
ENERGY=  -13.731  LOWER_BOUND=    0.000  UPPER_BOUND=    0.000
INTER + INTRA:         -13.731
INTER:                 -13.731
INTRA:                   0.000
UNBOUND:                 0.000

$$$$

     RDKit          3D

 44 19  0  0  0  0  0  0  0  0999 V2000
   47.0172    0.5945    7.6941 Mg  0  0  0  0  0 15  0  0  0  0  0  0
   46.9973    0.6198    7.7172 C   0  0  0  0  0  0  0  0  0  0  0  0
   46.8257   -0.7250    7.4552 O   0  0  0  0  0  0  0  0  0  0  0  0
   48.0415    1.2742    7.0897 O   0  0  0  0  0  0  0  0  0  0  0  0
   46.2043    1.2090    8.5142 O   0  0  0  0  0  0  0  0  0  0  0  0
   46.7757    0.1636    7.7724 O   0  0  0  0  0  0  0  0  0  0  0  0
   46.7800    0.1713    7.7710 O   0  0  0  0  0  0  0  0  0  0  0  0
   46.7758    0.1639    7.7724 O   0  0  0  0  0  0  0  0  0  0  0  0
   47.0172    0.5945    7.6941 Mg  0  0  0  0  0 15  0  0  0  0  0  0
   47.0172    0.5945    7.6941 Mg  0  0  0  0  0 15  0  0  0  0  0  0
   46.7799    0.1712    7.7710 O   0  0  0  0  0  0  0  0  0  0  0  0
   46.7801    0.1716    7.7710 O   0  0  0  0  0  0  0  0  0  0  0  0
   46.7770    0.1660    7.7720 O   0  0  0  0  0  0  0  0  0  0  0  0
   46.7784    0.1684    7.7716 O   0  0  0  0  0  0  0  0  0  0  0  0
   46.7761    0.1644    7.7723 O   0  0  0  0  0  0  0  0  0  0  0  0
   46.7771    0.1660    7.7720 O   0  0  0  0  0  0  0  0  0  0  0  0
   46.7760    0.1642    7.7723 O   0  0  0  0  0  0  0  0  0  0  0  0
   46.7788    0.1691    7.7714 O   0  0  0  0  0  0  0  0  0  0  0  0
   46.7805    0.1722    7.7709 O   0  0  0  0  0  0  0  0  0  0  0  0
   46.7765    0.1650    7.7722 O   0  0  0  0  0  0  0  0  0  0  0  0
   46.7793    0.1700    7.7713 O   0  0  0  0  0  0  0  0  0  0  0  0
   46.7786    0.1688    7.7715 O   0  0  0  0  0  0  0  0  0  0  0  0
   46.7780    0.1678    7.7717 O   0  0  0  0  0  0  0  0  0  0  0  0
   47.0172    0.5945    7.6941 Al  0  0  0  0  0 15  0  0  0  0  0  0
   47.0172    0.5945    7.6941 Al  0  0  0  0  0 15  0  0  0  0  0  0
   47.0172    0.5945    7.6941 Mg  0  0  0  0  0 15  0  0  0  0  0  0
   47.0172    0.5945    7.6941 Mg  0  0  0  0  0 15  0  0  0  0  0  0
   47.0172    0.5945    7.6941 Mg  0  0  0  0  0 15  0  0  0  0  0  0
   47.2587    1.0254    7.6158 H   0  0  0  0  0  0  0  0  0  0  0  0
   47.2544    1.0177    7.6171 H   0  0  0  0  0  0  0  0  0  0  0  0
   47.2585    1.0251    7.6158 H   0  0  0  0  0  0  0  0  0  0  0  0
   47.2544    1.0178    7.6171 H   0  0  0  0  0  0  0  0  0  0  0  0
   47.2542    1.0174    7.6172 H   0  0  0  0  0  0  0  0  0  0  0  0
   47.2574    1.0230    7.6162 H   0  0  0  0  0  0  0  0  0  0  0  0
   47.2560    1.0206    7.6166 H   0  0  0  0  0  0  0  0  0  0  0  0
   47.2583    1.0246    7.6159 H   0  0  0  0  0  0  0  0  0  0  0  0
   47.2573    1.0229    7.6162 H   0  0  0  0  0  0  0  0  0  0  0  0
   47.2584    1.0248    7.6158 H   0  0  0  0  0  0  0  0  0  0  0  0
   47.2556    1.0198    7.6168 H   0  0  0  0  0  0  0  0  0  0  0  0
   47.2539    1.0168    7.6173 H   0  0  0  0  0  0  0  0  0  0  0  0
   47.2579    1.0240    7.6160 H   0  0  0  0  0  0  0  0  0  0  0  0
   47.2551    1.0190    7.6169 H   0  0  0  0  0  0  0  0  0  0  0  0
   47.2558    1.0202    7.6167 H   0  0  0  0  0  0  0  0  0  0  0  0
   47.2564    1.0212    7.6165 H   0  0  0  0  0  0  0  0  0  0  0  0
  3  2  1  0
  4  2  1  0
  5  2  2  0
  6 29  1  0
  7 30  1  0
  8 31  1  0
 11 32  1  0
 12 33  1  0
 13 34  1  0
 14 35  1  0
 15 36  1  0
 16 37  1  0
 17 38  1  0
 18 39  1  0
 19 40  1  0
 20 41  1  0
 21 42  1  0
 22 43  1  0
 23 44  1  0
M  CHG  8   1   2   3  -1   4  -1   6  -1   7  -1   8  -1   9   2  10   2
M  CHG  8  11  -1  12  -1  13  -1  14  -1  15  -1  16  -1  17  -1  18  -1
M  CHG  8  19  -1  20  -1  21  -1  22  -1  23  -1  24   3  25   3  26   2
M  CHG  2  27   2  28   2
M  END
> <Uni-Dock RESULT> 
ENERGY=  -13.026  LOWER_BOUND=    8.511  UPPER_BOUND=    8.951
INTER + INTRA:         -13.026
INTER:                 -13.026
INTRA:                   0.000
UNBOUND:                 0.000

$$$$

     RDKit          3D

 44 19  0  0  0  0  0  0  0  0999 V2000
   47.5354    1.5581    7.2688 Mg  0  0  0  0  0 15  0  0  0  0  0  0
   47.5211    1.5227    7.2793 C   0  0  0  0  0  0  0  0  0  0  0  0
   48.6852    1.8980    6.6385 O   0  0  0  0  0  0  0  0  0  0  0  0
   46.6401    2.5189    7.6586 O   0  0  0  0  0  0  0  0  0  0  0  0
   47.2953    0.2930    7.4989 O   0  0  0  0  0  0  0  0  0  0  0  0
   47.9752    1.4403    7.0618 O   0  0  0  0  0  0  0  0  0  0  0  0
   47.9673    1.4424    7.0655 O   0  0  0  0  0  0  0  0  0  0  0  0
   47.9749    1.4404    7.0619 O   0  0  0  0  0  0  0  0  0  0  0  0
   47.5354    1.5581    7.2688 Mg  0  0  0  0  0 15  0  0  0  0  0  0
   47.5354    1.5581    7.2688 Mg  0  0  0  0  0 15  0  0  0  0  0  0
   47.9674    1.4424    7.0655 O   0  0  0  0  0  0  0  0  0  0  0  0
   47.9671    1.4425    7.0656 O   0  0  0  0  0  0  0  0  0  0  0  0
   47.9728    1.4410    7.0629 O   0  0  0  0  0  0  0  0  0  0  0  0
   47.9703    1.4416    7.0641 O   0  0  0  0  0  0  0  0  0  0  0  0
   47.9744    1.4406    7.0622 O   0  0  0  0  0  0  0  0  0  0  0  0
   47.9727    1.4410    7.0630 O   0  0  0  0  0  0  0  0  0  0  0  0
   47.9746    1.4405    7.0621 O   0  0  0  0  0  0  0  0  0  0  0  0
   47.9695    1.4419    7.0645 O   0  0  0  0  0  0  0  0  0  0  0  0
   47.9665    1.4427    7.0659 O   0  0  0  0  0  0  0  0  0  0  0  0
   47.9738    1.4407    7.0625 O   0  0  0  0  0  0  0  0  0  0  0  0
   47.9687    1.4421    7.0649 O   0  0  0  0  0  0  0  0  0  0  0  0
   47.9699    1.4418    7.0643 O   0  0  0  0  0  0  0  0  0  0  0  0
   47.9710    1.4415    7.0638 O   0  0  0  0  0  0  0  0  0  0  0  0
   47.5354    1.5581    7.2688 Al  0  0  0  0  0 15  0  0  0  0  0  0
   47.5354    1.5581    7.2688 Al  0  0  0  0  0 15  0  0  0  0  0  0
   47.5354    1.5581    7.2688 Mg  0  0  0  0  0 15  0  0  0  0  0  0
   47.5354    1.5581    7.2688 Mg  0  0  0  0  0 15  0  0  0  0  0  0
   47.5354    1.5581    7.2688 Mg  0  0  0  0  0 15  0  0  0  0  0  0
   47.0957    1.6759    7.4759 H   0  0  0  0  0  0  0  0  0  0  0  0
   47.1035    1.6738    7.4722 H   0  0  0  0  0  0  0  0  0  0  0  0
   47.0960    1.6759    7.4758 H   0  0  0  0  0  0  0  0  0  0  0  0
   47.1035    1.6739    7.4722 H   0  0  0  0  0  0  0  0  0  0  0  0
   47.1038    1.6738    7.4721 H   0  0  0  0  0  0  0  0  0  0  0  0
   47.0981    1.6753    7.4748 H   0  0  0  0  0  0  0  0  0  0  0  0
   47.1005    1.6746    7.4736 H   0  0  0  0  0  0  0  0  0  0  0  0
   47.0965    1.6757    7.4755 H   0  0  0  0  0  0  0  0  0  0  0  0
   47.0982    1.6753    7.4747 H   0  0  0  0  0  0  0  0  0  0  0  0
   47.0962    1.6758    7.4756 H   0  0  0  0  0  0  0  0  0  0  0  0
   47.1013    1.6744    7.4732 H   0  0  0  0  0  0  0  0  0  0  0  0
   47.1044    1.6736    7.4718 H   0  0  0  0  0  0  0  0  0  0  0  0
   47.0971    1.6755    7.4752 H   0  0  0  0  0  0  0  0  0  0  0  0
   47.1022    1.6742    7.4728 H   0  0  0  0  0  0  0  0  0  0  0  0
   47.1010    1.6745    7.4734 H   0  0  0  0  0  0  0  0  0  0  0  0
   47.0999    1.6748    7.4739 H   0  0  0  0  0  0  0  0  0  0  0  0
  3  2  1  0
  4  2  1  0
  5  2  2  0
  6 29  1  0
  7 30  1  0
  8 31  1  0
 11 32  1  0
 12 33  1  0
 13 34  1  0
 14 35  1  0
 15 36  1  0
 16 37  1  0
 17 38  1  0
 18 39  1  0
 19 40  1  0
 20 41  1  0
 21 42  1  0
 22 43  1  0
 23 44  1  0
M  CHG  8   1   2   3  -1   4  -1   6  -1   7  -1   8  -1   9   2  10   2
M  CHG  8  11  -1  12  -1  13  -1  14  -1  15  -1  16  -1  17  -1  18  -1
M  CHG  8  19  -1  20  -1  21  -1  22  -1  23  -1  24   3  25   3  26   2
M  CHG  2  27   2  28   2
M  END
> <Uni-Dock RESULT> 
ENERGY=  -11.968  LOWER_BOUND=    8.512  UPPER_BOUND=    9.351
INTER + INTRA:         -11.968
INTER:                 -11.968
INTRA:                   0.000
UNBOUND:                 0.000

$$$$

     RDKit          3D

 44 19  0  0  0  0  0  0  0  0999 V2000
   42.3516    5.4753   12.1483 Mg  0  0  0  0  0 15  0  0  0  0  0  0
   42.3604    5.4413   12.1300 C   0  0  0  0  0  0  0  0  0  0  0  0
   41.6725    6.5645   11.7153 O   0  0  0  0  0  0  0  0  0  0  0  0
   42.8662    5.4296   13.4170 O   0  0  0  0  0  0  0  0  0  0  0  0
   42.5070    4.4660   11.3309 O   0  0  0  0  0  0  0  0  0  0  0  0
   42.1083    5.7297   11.7931 O   0  0  0  0  0  0  0  0  0  0  0  0
   42.1126    5.7252   11.7994 O   0  0  0  0  0  0  0  0  0  0  0  0
   42.1084    5.7296   11.7933 O   0  0  0  0  0  0  0  0  0  0  0  0
   42.3516    5.4753   12.1483 Mg  0  0  0  0  0 15  0  0  0  0  0  0
   42.3516    5.4753   12.1483 Mg  0  0  0  0  0 15  0  0  0  0  0  0
   42.1125    5.7252   11.7993 O   0  0  0  0  0  0  0  0  0  0  0  0
   42.1127    5.7250   11.7996 O   0  0  0  0  0  0  0  0  0  0  0  0
   42.1096    5.7283   11.7950 O   0  0  0  0  0  0  0  0  0  0  0  0
   42.1109    5.7269   11.7970 O   0  0  0  0  0  0  0  0  0  0  0  0
   42.1087    5.7293   11.7937 O   0  0  0  0  0  0  0  0  0  0  0  0
   42.1096    5.7283   11.7950 O   0  0  0  0  0  0  0  0  0  0  0  0
   42.1086    5.7294   11.7935 O   0  0  0  0  0  0  0  0  0  0  0  0
   42.1114    5.7265   11.7976 O   0  0  0  0  0  0  0  0  0  0  0  0
   42.1131    5.7247   11.8001 O   0  0  0  0  0  0  0  0  0  0  0  0
   42.1090    5.7289   11.7942 O   0  0  0  0  0  0  0  0  0  0  0  0
   42.1119    5.7260   11.7983 O   0  0  0  0  0  0  0  0  0  0  0  0
   42.1112    5.7267   11.7973 O   0  0  0  0  0  0  0  0  0  0  0  0
   42.1106    5.7273   11.7965 O   0  0  0  0  0  0  0  0  0  0  0  0
   42.3516    5.4753   12.1483 Al  0  0  0  0  0 15  0  0  0  0  0  0
   42.3516    5.4753   12.1483 Al  0  0  0  0  0 15  0  0  0  0  0  0
   42.3516    5.4753   12.1483 Mg  0  0  0  0  0 15  0  0  0  0  0  0
   42.3516    5.4753   12.1483 Mg  0  0  0  0  0 15  0  0  0  0  0  0
   42.3516    5.4753   12.1483 Mg  0  0  0  0  0 15  0  0  0  0  0  0
   42.5949    5.2210   12.5036 H   0  0  0  0  0  0  0  0  0  0  0  0
   42.5905    5.2255   12.4972 H   0  0  0  0  0  0  0  0  0  0  0  0
   42.5947    5.2211   12.5033 H   0  0  0  0  0  0  0  0  0  0  0  0
   42.5906    5.2255   12.4973 H   0  0  0  0  0  0  0  0  0  0  0  0
   42.5904    5.2257   12.4970 H   0  0  0  0  0  0  0  0  0  0  0  0
   42.5935    5.2224   12.5016 H   0  0  0  0  0  0  0  0  0  0  0  0
   42.5922    5.2238   12.4996 H   0  0  0  0  0  0  0  0  0  0  0  0
   42.5944    5.2214   12.5029 H   0  0  0  0  0  0  0  0  0  0  0  0
   42.5935    5.2224   12.5016 H   0  0  0  0  0  0  0  0  0  0  0  0
   42.5946    5.2213   12.5031 H   0  0  0  0  0  0  0  0  0  0  0  0
   42.5917    5.2242   12.4990 H   0  0  0  0  0  0  0  0  0  0  0  0
   42.5900    5.2260   12.4965 H   0  0  0  0  0  0  0  0  0  0  0  0
   42.5941    5.2218   12.5024 H   0  0  0  0  0  0  0  0  0  0  0  0
   42.5913    5.2247   12.4983 H   0  0  0  0  0  0  0  0  0  0  0  0
   42.5919    5.2240   12.4993 H   0  0  0  0  0  0  0  0  0  0  0  0
   42.5925    5.2234   12.5001 H   0  0  0  0  0  0  0  0  0  0  0  0
  3  2  1  0
  4  2  1  0
  5  2  2  0
  6 29  1  0
  7 30  1  0
  8 31  1  0
 11 32  1  0
 12 33  1  0
 13 34  1  0
 14 35  1  0
 15 36  1  0
 16 37  1  0
 17 38  1  0
 18 39  1  0
 19 40  1  0
 20 41  1  0
 21 42  1  0
 22 43  1  0
 23 44  1  0
M  CHG  8   1   2   3  -1   4  -1   6  -1   7  -1   8  -1   9   2  10   2
M  CHG  8  11  -1  12  -1  13  -1  14  -1  15  -1  16  -1  17  -1  18  -1
M  CHG  8  19  -1  20  -1  21  -1  22  -1  23  -1  24   3  25   3  26   2
M  CHG  2  27   2  28   2
M  END
> <Uni-Dock RESULT> 
ENERGY=  -11.014  LOWER_BOUND=    7.272  UPPER_BOUND=    7.450
INTER + INTRA:         -11.014
INTER:                 -11.014
INTRA:                   0.000
UNBOUND:                 0.000

$$$$

     RDKit          3D

 44 19  0  0  0  0  0  0  0  0999 V2000
   40.1197   12.2867   15.7800 Mg  0  0  0  0  0 15  0  0  0  0  0  0
   40.1194   12.3044   15.7446 C   0  0  0  0  0  0  0  0  0  0  0  0
   41.1216   11.6793   16.4599 O   0  0  0  0  0  0  0  0  0  0  0  0
   38.8582   12.3597   16.3090 O   0  0  0  0  0  0  0  0  0  0  0  0
   40.3796   12.8032   14.6067 O   0  0  0  0  0  0  0  0  0  0  0  0
   40.5922   12.1275   15.8182 O   0  0  0  0  0  0  0  0  0  0  0  0
   40.5838   12.1303   15.8175 O   0  0  0  0  0  0  0  0  0  0  0  0
   40.5920   12.1276   15.8182 O   0  0  0  0  0  0  0  0  0  0  0  0
   40.1197   12.2867   15.7800 Mg  0  0  0  0  0 15  0  0  0  0  0  0
   40.1197   12.2867   15.7800 Mg  0  0  0  0  0 15  0  0  0  0  0  0
   40.5839   12.1303   15.8175 O   0  0  0  0  0  0  0  0  0  0  0  0
   40.5836   12.1304   15.8175 O   0  0  0  0  0  0  0  0  0  0  0  0
   40.5897   12.1283   15.8180 O   0  0  0  0  0  0  0  0  0  0  0  0
   40.5871   12.1292   15.8178 O   0  0  0  0  0  0  0  0  0  0  0  0
   40.5914   12.1278   15.8181 O   0  0  0  0  0  0  0  0  0  0  0  0
   40.5896   12.1284   15.8180 O   0  0  0  0  0  0  0  0  0  0  0  0
   40.5917   12.1277   15.8181 O   0  0  0  0  0  0  0  0  0  0  0  0
   40.5862   12.1295   15.8177 O   0  0  0  0  0  0  0  0  0  0  0  0
   40.5829   12.1306   15.8174 O   0  0  0  0  0  0  0  0  0  0  0  0
   40.5907   12.1280   15.8181 O   0  0  0  0  0  0  0  0  0  0  0  0
   40.5853   12.1298   15.8176 O   0  0  0  0  0  0  0  0  0  0  0  0
   40.5866   12.1294   15.8177 O   0  0  0  0  0  0  0  0  0  0  0  0
   40.5877   12.1290   15.8178 O   0  0  0  0  0  0  0  0  0  0  0  0
   40.1197   12.2867   15.7800 Al  0  0  0  0  0 15  0  0  0  0  0  0
   40.1197   12.2867   15.7800 Al  0  0  0  0  0 15  0  0  0  0  0  0
   40.1197   12.2867   15.7800 Mg  0  0  0  0  0 15  0  0  0  0  0  0
   40.1197   12.2867   15.7800 Mg  0  0  0  0  0 15  0  0  0  0  0  0
   40.1197   12.2867   15.7800 Mg  0  0  0  0  0 15  0  0  0  0  0  0
   39.6471   12.4458   15.7419 H   0  0  0  0  0  0  0  0  0  0  0  0
   39.6556   12.4430   15.7425 H   0  0  0  0  0  0  0  0  0  0  0  0
   39.6474   12.4457   15.7419 H   0  0  0  0  0  0  0  0  0  0  0  0
   39.6555   12.4430   15.7425 H   0  0  0  0  0  0  0  0  0  0  0  0
   39.6558   12.4429   15.7426 H   0  0  0  0  0  0  0  0  0  0  0  0
   39.6497   12.4450   15.7421 H   0  0  0  0  0  0  0  0  0  0  0  0
   39.6523   12.4441   15.7423 H   0  0  0  0  0  0  0  0  0  0  0  0
   39.6480   12.4456   15.7419 H   0  0  0  0  0  0  0  0  0  0  0  0
   39.6498   12.4450   15.7421 H   0  0  0  0  0  0  0  0  0  0  0  0
   39.6477   12.4457   15.7419 H   0  0  0  0  0  0  0  0  0  0  0  0
   39.6532   12.4438   15.7424 H   0  0  0  0  0  0  0  0  0  0  0  0
   39.6565   12.4427   15.7426 H   0  0  0  0  0  0  0  0  0  0  0  0
   39.6487   12.4453   15.7420 H   0  0  0  0  0  0  0  0  0  0  0  0
   39.6541   12.4435   15.7424 H   0  0  0  0  0  0  0  0  0  0  0  0
   39.6528   12.4439   15.7423 H   0  0  0  0  0  0  0  0  0  0  0  0
   39.6517   12.4443   15.7422 H   0  0  0  0  0  0  0  0  0  0  0  0
  3  2  1  0
  4  2  1  0
  5  2  2  0
  6 29  1  0
  7 30  1  0
  8 31  1  0
 11 32  1  0
 12 33  1  0
 13 34  1  0
 14 35  1  0
 15 36  1  0
 16 37  1  0
 17 38  1  0
 18 39  1  0
 19 40  1  0
 20 41  1  0
 21 42  1  0
 22 43  1  0
 23 44  1  0
M  CHG  8   1   2   3  -1   4  -1   6  -1   7  -1   8  -1   9   2  10   2
M  CHG  8  11  -1  12  -1  13  -1  14  -1  15  -1  16  -1  17  -1  18  -1
M  CHG  8  19  -1  20  -1  21  -1  22  -1  23  -1  24   3  25   3  26   2
M  CHG  2  27   2  28   2
M  END
> <Uni-Dock RESULT> 
ENERGY=  -10.909  LOWER_BOUND=   13.304  UPPER_BOUND=   13.352
INTER + INTRA:         -10.909
INTER:                 -10.909
INTRA:                   0.000
UNBOUND:                 0.000

$$$$
