
     RDKit          3D

 44 19  0  0  0  0  0  0  0  0999 V2000
   38.7813    4.0461    5.4636 Mg  0  0  0  0  0 15  0  0  0  0  0  0
   38.8190    4.0391    5.4595 C   0  0  0  0  0  0  0  0  0  0  0  0
   38.0565    5.1047    5.0522 O   0  0  0  0  0  0  0  0  0  0  0  0
   38.2002    3.0012    6.1371 O   0  0  0  0  0  0  0  0  0  0  0  0
   40.0497    4.0391    5.2055 O   0  0  0  0  0  0  0  0  0  0  0  0
   38.8146    3.6182    5.7016 O   0  0  0  0  0  0  0  0  0  0  0  0
   38.8152    3.6109    5.7057 O   0  0  0  0  0  0  0  0  0  0  0  0
   38.8148    3.6159    5.7029 O   0  0  0  0  0  0  0  0  0  0  0  0
   38.7813    4.0461    5.4636 Mg  0  0  0  0  0 15  0  0  0  0  0  0
   38.7813    4.0461    5.4636 Mg  0  0  0  0  0 15  0  0  0  0  0  0
   38.8150    3.6138    5.7041 O   0  0  0  0  0  0  0  0  0  0  0  0
   38.8151    3.6126    5.7047 O   0  0  0  0  0  0  0  0  0  0  0  0
   38.8148    3.6161    5.7028 O   0  0  0  0  0  0  0  0  0  0  0  0
   38.8151    3.6121    5.7050 O   0  0  0  0  0  0  0  0  0  0  0  0
   38.8151    3.6116    5.7053 O   0  0  0  0  0  0  0  0  0  0  0  0
   38.8149    3.6144    5.7037 O   0  0  0  0  0  0  0  0  0  0  0  0
   38.8147    3.6177    5.7019 O   0  0  0  0  0  0  0  0  0  0  0  0
   38.8149    3.6147    5.7036 O   0  0  0  0  0  0  0  0  0  0  0  0
   38.8147    3.6178    5.7018 O   0  0  0  0  0  0  0  0  0  0  0  0
   38.8146    3.6185    5.7014 O   0  0  0  0  0  0  0  0  0  0  0  0
   38.8152    3.6110    5.7056 O   0  0  0  0  0  0  0  0  0  0  0  0
   38.8151    3.6125    5.7048 O   0  0  0  0  0  0  0  0  0  0  0  0
   38.8150    3.6128    5.7046 O   0  0  0  0  0  0  0  0  0  0  0  0
   38.7813    4.0461    5.4636 Al  0  0  0  0  0 15  0  0  0  0  0  0
   38.7813    4.0461    5.4636 Al  0  0  0  0  0 15  0  0  0  0  0  0
   38.7813    4.0461    5.4636 Mg  0  0  0  0  0 15  0  0  0  0  0  0
   38.7813    4.0461    5.4636 Mg  0  0  0  0  0 15  0  0  0  0  0  0
   38.7813    4.0461    5.4636 Mg  0  0  0  0  0 15  0  0  0  0  0  0
   38.7481    4.4740    5.2255 H   0  0  0  0  0  0  0  0  0  0  0  0
   38.7475    4.4812    5.2215 H   0  0  0  0  0  0  0  0  0  0  0  0
   38.7479    4.4762    5.2243 H   0  0  0  0  0  0  0  0  0  0  0  0
   38.7477    4.4783    5.2231 H   0  0  0  0  0  0  0  0  0  0  0  0
   38.7476    4.4795    5.2224 H   0  0  0  0  0  0  0  0  0  0  0  0
   38.7479    4.4761    5.2244 H   0  0  0  0  0  0  0  0  0  0  0  0
   38.7476    4.4800    5.2222 H   0  0  0  0  0  0  0  0  0  0  0  0
   38.7475    4.4805    5.2219 H   0  0  0  0  0  0  0  0  0  0  0  0
   38.7478    4.4777    5.2234 H   0  0  0  0  0  0  0  0  0  0  0  0
   38.7480    4.4744    5.2253 H   0  0  0  0  0  0  0  0  0  0  0  0
   38.7478    4.4775    5.2236 H   0  0  0  0  0  0  0  0  0  0  0  0
   38.7480    4.4743    5.2253 H   0  0  0  0  0  0  0  0  0  0  0  0
   38.7481    4.4736    5.2257 H   0  0  0  0  0  0  0  0  0  0  0  0
   38.7475    4.4811    5.2215 H   0  0  0  0  0  0  0  0  0  0  0  0
   38.7476    4.4796    5.2224 H   0  0  0  0  0  0  0  0  0  0  0  0
   38.7476    4.4793    5.2226 H   0  0  0  0  0  0  0  0  0  0  0  0
  3  2  1  0
  4  2  1  0
  5  2  2  0
  6 29  1  0
  7 30  1  0
  8 31  1  0
 11 32  1  0
 12 33  1  0
 13 34  1  0
 14 35  1  0
 15 36  1  0
 16 37  1  0
 17 38  1  0
 18 39  1  0
 19 40  1  0
 20 41  1  0
 21 42  1  0
 22 43  1  0
 23 44  1  0
M  CHG  8   1   2   3  -1   4  -1   6  -1   7  -1   8  -1   9   2  10   2
M  CHG  8  11  -1  12  -1  13  -1  14  -1  15  -1  16  -1  17  -1  18  -1
M  CHG  8  19  -1  20  -1  21  -1  22  -1  23  -1  24   3  25   3  26   2
M  CHG  2  27   2  28   2
M  END
> <Uni-Dock RESULT> 
ENERGY=  -13.986  LOWER_BOUND=    0.000  UPPER_BOUND=    0.000
INTER + INTRA:         -13.986
INTER:                 -13.986
INTRA:                   0.000
UNBOUND:                 0.000

$$$$

     RDKit          3D

 44 19  0  0  0  0  0  0  0  0999 V2000
   46.9783    0.6174    7.7408 Mg  0  0  0  0  0 15  0  0  0  0  0  0
   46.9491    0.6263    7.7641 C   0  0  0  0  0  0  0  0  0  0  0  0
   47.9372    1.4134    7.2286 O   0  0  0  0  0  0  0  0  0  0  0  0
   46.9374   -0.7245    7.4568 O   0  0  0  0  0  0  0  0  0  0  0  0
   46.0896    1.1543    8.5135 O   0  0  0  0  0  0  0  0  0  0  0  0
   46.7618    0.1783    7.7758 O   0  0  0  0  0  0  0  0  0  0  0  0
   46.7582    0.1709    7.7764 O   0  0  0  0  0  0  0  0  0  0  0  0
   46.7607    0.1760    7.7760 O   0  0  0  0  0  0  0  0  0  0  0  0
   46.9783    0.6174    7.7408 Mg  0  0  0  0  0 15  0  0  0  0  0  0
   46.9783    0.6174    7.7408 Mg  0  0  0  0  0 15  0  0  0  0  0  0
   46.7596    0.1738    7.7762 O   0  0  0  0  0  0  0  0  0  0  0  0
   46.7590    0.1726    7.7763 O   0  0  0  0  0  0  0  0  0  0  0  0
   46.7608    0.1761    7.7760 O   0  0  0  0  0  0  0  0  0  0  0  0
   46.7588    0.1721    7.7763 O   0  0  0  0  0  0  0  0  0  0  0  0
   46.7585    0.1716    7.7764 O   0  0  0  0  0  0  0  0  0  0  0  0
   46.7599    0.1744    7.7761 O   0  0  0  0  0  0  0  0  0  0  0  0
   46.7616    0.1778    7.7759 O   0  0  0  0  0  0  0  0  0  0  0  0
   46.7601    0.1747    7.7761 O   0  0  0  0  0  0  0  0  0  0  0  0
   46.7616    0.1779    7.7759 O   0  0  0  0  0  0  0  0  0  0  0  0
   46.7620    0.1787    7.7758 O   0  0  0  0  0  0  0  0  0  0  0  0
   46.7582    0.1710    7.7764 O   0  0  0  0  0  0  0  0  0  0  0  0
   46.7590    0.1725    7.7763 O   0  0  0  0  0  0  0  0  0  0  0  0
   46.7591    0.1728    7.7763 O   0  0  0  0  0  0  0  0  0  0  0  0
   46.9783    0.6174    7.7408 Al  0  0  0  0  0 15  0  0  0  0  0  0
   46.9783    0.6174    7.7408 Al  0  0  0  0  0 15  0  0  0  0  0  0
   46.9783    0.6174    7.7408 Mg  0  0  0  0  0 15  0  0  0  0  0  0
   46.9783    0.6174    7.7408 Mg  0  0  0  0  0 15  0  0  0  0  0  0
   46.9783    0.6174    7.7408 Mg  0  0  0  0  0 15  0  0  0  0  0  0
   47.1948    1.0564    7.7057 H   0  0  0  0  0  0  0  0  0  0  0  0
   47.1985    1.0638    7.7051 H   0  0  0  0  0  0  0  0  0  0  0  0
   47.1960    1.0588    7.7055 H   0  0  0  0  0  0  0  0  0  0  0  0
   47.1970    1.0609    7.7053 H   0  0  0  0  0  0  0  0  0  0  0  0
   47.1977    1.0621    7.7052 H   0  0  0  0  0  0  0  0  0  0  0  0
   47.1959    1.0586    7.7055 H   0  0  0  0  0  0  0  0  0  0  0  0
   47.1979    1.0626    7.7052 H   0  0  0  0  0  0  0  0  0  0  0  0
   47.1981    1.0631    7.7051 H   0  0  0  0  0  0  0  0  0  0  0  0
   47.1967    1.0603    7.7054 H   0  0  0  0  0  0  0  0  0  0  0  0
   47.1951    1.0569    7.7056 H   0  0  0  0  0  0  0  0  0  0  0  0
   47.1966    1.0600    7.7054 H   0  0  0  0  0  0  0  0  0  0  0  0
   47.1950    1.0568    7.7057 H   0  0  0  0  0  0  0  0  0  0  0  0
   47.1947    1.0561    7.7057 H   0  0  0  0  0  0  0  0  0  0  0  0
   47.1985    1.0638    7.7051 H   0  0  0  0  0  0  0  0  0  0  0  0
   47.1977    1.0622    7.7052 H   0  0  0  0  0  0  0  0  0  0  0  0
   47.1975    1.0619    7.7052 H   0  0  0  0  0  0  0  0  0  0  0  0
  3  2  1  0
  4  2  1  0
  5  2  2  0
  6 29  1  0
  7 30  1  0
  8 31  1  0
 11 32  1  0
 12 33  1  0
 13 34  1  0
 14 35  1  0
 15 36  1  0
 16 37  1  0
 17 38  1  0
 18 39  1  0
 19 40  1  0
 20 41  1  0
 21 42  1  0
 22 43  1  0
 23 44  1  0
M  CHG  8   1   2   3  -1   4  -1   6  -1   7  -1   8  -1   9   2  10   2
M  CHG  8  11  -1  12  -1  13  -1  14  -1  15  -1  16  -1  17  -1  18  -1
M  CHG  8  19  -1  20  -1  21  -1  22  -1  23  -1  24   3  25   3  26   2
M  CHG  2  27   2  28   2
M  END
> <Uni-Dock RESULT> 
ENERGY=  -13.598  LOWER_BOUND=    8.546  UPPER_BOUND=    9.039
INTER + INTRA:         -13.598
INTER:                 -13.598
INTRA:                   0.000
UNBOUND:                 0.000

$$$$

     RDKit          3D

 44 19  0  0  0  0  0  0  0  0999 V2000
   46.7141    0.5607    7.7990 Mg  0  0  0  0  0 15  0  0  0  0  0  0
   46.7157    0.5228    7.7922 C   0  0  0  0  0  0  0  0  0  0  0  0
   45.8156    1.2613    8.5184 O   0  0  0  0  0  0  0  0  0  0  0  0
   47.7661    1.1801    7.1724 O   0  0  0  0  0  0  0  0  0  0  0  0
   46.5588   -0.7215    7.7132 O   0  0  0  0  0  0  0  0  0  0  0  0
   47.1086    0.5451    7.5076 O   0  0  0  0  0  0  0  0  0  0  0  0
   47.1153    0.5448    7.5026 O   0  0  0  0  0  0  0  0  0  0  0  0
   47.1107    0.5450    7.5060 O   0  0  0  0  0  0  0  0  0  0  0  0
   46.7141    0.5607    7.7990 Mg  0  0  0  0  0 15  0  0  0  0  0  0
   46.7141    0.5607    7.7990 Mg  0  0  0  0  0 15  0  0  0  0  0  0
   47.1126    0.5449    7.5046 O   0  0  0  0  0  0  0  0  0  0  0  0
   47.1138    0.5449    7.5038 O   0  0  0  0  0  0  0  0  0  0  0  0
   47.1106    0.5450    7.5062 O   0  0  0  0  0  0  0  0  0  0  0  0
   47.1142    0.5449    7.5035 O   0  0  0  0  0  0  0  0  0  0  0  0
   47.1147    0.5449    7.5031 O   0  0  0  0  0  0  0  0  0  0  0  0
   47.1121    0.5450    7.5050 O   0  0  0  0  0  0  0  0  0  0  0  0
   47.1090    0.5451    7.5073 O   0  0  0  0  0  0  0  0  0  0  0  0
   47.1118    0.5450    7.5052 O   0  0  0  0  0  0  0  0  0  0  0  0
   47.1089    0.5451    7.5073 O   0  0  0  0  0  0  0  0  0  0  0  0
   47.1083    0.5451    7.5078 O   0  0  0  0  0  0  0  0  0  0  0  0
   47.1152    0.5448    7.5027 O   0  0  0  0  0  0  0  0  0  0  0  0
   47.1138    0.5449    7.5037 O   0  0  0  0  0  0  0  0  0  0  0  0
   47.1135    0.5449    7.5040 O   0  0  0  0  0  0  0  0  0  0  0  0
   46.7141    0.5607    7.7990 Al  0  0  0  0  0 15  0  0  0  0  0  0
   46.7141    0.5607    7.7990 Al  0  0  0  0  0 15  0  0  0  0  0  0
   46.7141    0.5607    7.7990 Mg  0  0  0  0  0 15  0  0  0  0  0  0
   46.7141    0.5607    7.7990 Mg  0  0  0  0  0 15  0  0  0  0  0  0
   46.7141    0.5607    7.7990 Mg  0  0  0  0  0 15  0  0  0  0  0  0
   46.3195    0.5763    8.0905 H   0  0  0  0  0  0  0  0  0  0  0  0
   46.3128    0.5765    8.0954 H   0  0  0  0  0  0  0  0  0  0  0  0
   46.3174    0.5763    8.0921 H   0  0  0  0  0  0  0  0  0  0  0  0
   46.3155    0.5764    8.0935 H   0  0  0  0  0  0  0  0  0  0  0  0
   46.3143    0.5765    8.0943 H   0  0  0  0  0  0  0  0  0  0  0  0
   46.3175    0.5763    8.0919 H   0  0  0  0  0  0  0  0  0  0  0  0
   46.3139    0.5765    8.0946 H   0  0  0  0  0  0  0  0  0  0  0  0
   46.3134    0.5765    8.0950 H   0  0  0  0  0  0  0  0  0  0  0  0
   46.3160    0.5764    8.0931 H   0  0  0  0  0  0  0  0  0  0  0  0
   46.3191    0.5763    8.0908 H   0  0  0  0  0  0  0  0  0  0  0  0
   46.3163    0.5764    8.0929 H   0  0  0  0  0  0  0  0  0  0  0  0
   46.3192    0.5763    8.0907 H   0  0  0  0  0  0  0  0  0  0  0  0
   46.3198    0.5763    8.0903 H   0  0  0  0  0  0  0  0  0  0  0  0
   46.3129    0.5765    8.0954 H   0  0  0  0  0  0  0  0  0  0  0  0
   46.3143    0.5765    8.0944 H   0  0  0  0  0  0  0  0  0  0  0  0
   46.3146    0.5765    8.0941 H   0  0  0  0  0  0  0  0  0  0  0  0
  3  2  1  0
  4  2  1  0
  5  2  2  0
  6 29  1  0
  7 30  1  0
  8 31  1  0
 11 32  1  0
 12 33  1  0
 13 34  1  0
 14 35  1  0
 15 36  1  0
 16 37  1  0
 17 38  1  0
 18 39  1  0
 19 40  1  0
 20 41  1  0
 21 42  1  0
 22 43  1  0
 23 44  1  0
M  CHG  8   1   2   3  -1   4  -1   6  -1   7  -1   8  -1   9   2  10   2
M  CHG  8  11  -1  12  -1  13  -1  14  -1  15  -1  16  -1  17  -1  18  -1
M  CHG  8  19  -1  20  -1  21  -1  22  -1  23  -1  24   3  25   3  26   2
M  CHG  2  27   2  28   2
M  END
> <Uni-Dock RESULT> 
ENERGY=  -12.787  LOWER_BOUND=    8.446  UPPER_BOUND=    9.029
INTER + INTRA:         -12.787
INTER:                 -12.787
INTRA:                   0.000
UNBOUND:                 0.000

$$$$

     RDKit          3D

 44 19  0  0  0  0  0  0  0  0999 V2000
   47.8937    1.9237    6.9152 Mg  0  0  0  0  0 15  0  0  0  0  0  0
   47.9141    1.9141    6.8841 C   0  0  0  0  0  0  0  0  0  0  0  0
   47.4125    3.1275    7.2826 O   0  0  0  0  0  0  0  0  0  0  0  0
   47.6866    0.8068    7.6850 O   0  0  0  0  0  0  0  0  0  0  0  0
   48.5613    1.8465    5.8090 O   0  0  0  0  0  0  0  0  0  0  0  0
   47.9641    1.4465    7.0057 O   0  0  0  0  0  0  0  0  0  0  0  0
   47.9653    1.4385    7.0072 O   0  0  0  0  0  0  0  0  0  0  0  0
   47.9645    1.4440    7.0062 O   0  0  0  0  0  0  0  0  0  0  0  0
   47.8937    1.9237    6.9152 Mg  0  0  0  0  0 15  0  0  0  0  0  0
   47.8937    1.9237    6.9152 Mg  0  0  0  0  0 15  0  0  0  0  0  0
   47.9648    1.4417    7.0066 O   0  0  0  0  0  0  0  0  0  0  0  0
   47.9650    1.4403    7.0069 O   0  0  0  0  0  0  0  0  0  0  0  0
   47.9645    1.4442    7.0062 O   0  0  0  0  0  0  0  0  0  0  0  0
   47.9651    1.4398    7.0070 O   0  0  0  0  0  0  0  0  0  0  0  0
   47.9652    1.4392    7.0071 O   0  0  0  0  0  0  0  0  0  0  0  0
   47.9647    1.4423    7.0065 O   0  0  0  0  0  0  0  0  0  0  0  0
   47.9642    1.4460    7.0058 O   0  0  0  0  0  0  0  0  0  0  0  0
   47.9647    1.4426    7.0065 O   0  0  0  0  0  0  0  0  0  0  0  0
   47.9642    1.4461    7.0058 O   0  0  0  0  0  0  0  0  0  0  0  0
   47.9641    1.4469    7.0056 O   0  0  0  0  0  0  0  0  0  0  0  0
   47.9653    1.4385    7.0072 O   0  0  0  0  0  0  0  0  0  0  0  0
   47.9651    1.4402    7.0069 O   0  0  0  0  0  0  0  0  0  0  0  0
   47.9650    1.4406    7.0068 O   0  0  0  0  0  0  0  0  0  0  0  0
   47.8937    1.9237    6.9152 Al  0  0  0  0  0 15  0  0  0  0  0  0
   47.8937    1.9237    6.9152 Al  0  0  0  0  0 15  0  0  0  0  0  0
   47.8937    1.9237    6.9152 Mg  0  0  0  0  0 15  0  0  0  0  0  0
   47.8937    1.9237    6.9152 Mg  0  0  0  0  0 15  0  0  0  0  0  0
   47.8937    1.9237    6.9152 Mg  0  0  0  0  0 15  0  0  0  0  0  0
   47.8232    2.4009    6.8247 H   0  0  0  0  0  0  0  0  0  0  0  0
   47.8220    2.4090    6.8231 H   0  0  0  0  0  0  0  0  0  0  0  0
   47.8228    2.4035    6.8242 H   0  0  0  0  0  0  0  0  0  0  0  0
   47.8225    2.4058    6.8238 H   0  0  0  0  0  0  0  0  0  0  0  0
   47.8223    2.4072    6.8235 H   0  0  0  0  0  0  0  0  0  0  0  0
   47.8228    2.4033    6.8242 H   0  0  0  0  0  0  0  0  0  0  0  0
   47.8222    2.4076    6.8234 H   0  0  0  0  0  0  0  0  0  0  0  0
   47.8221    2.4082    6.8233 H   0  0  0  0  0  0  0  0  0  0  0  0
   47.8226    2.4051    6.8239 H   0  0  0  0  0  0  0  0  0  0  0  0
   47.8231    2.4014    6.8246 H   0  0  0  0  0  0  0  0  0  0  0  0
   47.8226    2.4048    6.8239 H   0  0  0  0  0  0  0  0  0  0  0  0
   47.8231    2.4013    6.8246 H   0  0  0  0  0  0  0  0  0  0  0  0
   47.8232    2.4005    6.8247 H   0  0  0  0  0  0  0  0  0  0  0  0
   47.8220    2.4089    6.8232 H   0  0  0  0  0  0  0  0  0  0  0  0
   47.8223    2.4073    6.8235 H   0  0  0  0  0  0  0  0  0  0  0  0
   47.8223    2.4069    6.8235 H   0  0  0  0  0  0  0  0  0  0  0  0
  3  2  1  0
  4  2  1  0
  5  2  2  0
  6 29  1  0
  7 30  1  0
  8 31  1  0
 11 32  1  0
 12 33  1  0
 13 34  1  0
 14 35  1  0
 15 36  1  0
 16 37  1  0
 17 38  1  0
 18 39  1  0
 19 40  1  0
 20 41  1  0
 21 42  1  0
 22 43  1  0
 23 44  1  0
M  CHG  8   1   2   3  -1   4  -1   6  -1   7  -1   8  -1   9   2  10   2
M  CHG  8  11  -1  12  -1  13  -1  14  -1  15  -1  16  -1  17  -1  18  -1
M  CHG  8  19  -1  20  -1  21  -1  22  -1  23  -1  24   3  25   3  26   2
M  CHG  2  27   2  28   2
M  END
> <Uni-Dock RESULT> 
ENERGY=  -11.848  LOWER_BOUND=    9.013  UPPER_BOUND=    9.487
INTER + INTRA:         -11.848
INTER:                 -11.848
INTRA:                   0.000
UNBOUND:                 0.000

$$$$

     RDKit          3D

 44 19  0  0  0  0  0  0  0  0999 V2000
   42.3540    5.4845   12.1456 Mg  0  0  0  0  0 15  0  0  0  0  0  0
   42.3551    5.4586   12.1171 C   0  0  0  0  0  0  0  0  0  0  0  0
   42.8375    5.3952   13.4001 O   0  0  0  0  0  0  0  0  0  0  0  0
   41.7123    6.6152   11.7066 O   0  0  0  0  0  0  0  0  0  0  0  0
   42.5114    4.4690   11.3586 O   0  0  0  0  0  0  0  0  0  0  0  0
   42.1075    5.7304   11.7997 O   0  0  0  0  0  0  0  0  0  0  0  0
   42.1033    5.7345   11.7939 O   0  0  0  0  0  0  0  0  0  0  0  0
   42.1062    5.7317   11.7979 O   0  0  0  0  0  0  0  0  0  0  0  0
   42.3540    5.4845   12.1456 Mg  0  0  0  0  0 15  0  0  0  0  0  0
   42.3540    5.4845   12.1456 Mg  0  0  0  0  0 15  0  0  0  0  0  0
   42.1050    5.7329   11.7962 O   0  0  0  0  0  0  0  0  0  0  0  0
   42.1043    5.7336   11.7952 O   0  0  0  0  0  0  0  0  0  0  0  0
   42.1063    5.7316   11.7980 O   0  0  0  0  0  0  0  0  0  0  0  0
   42.1040    5.7338   11.7948 O   0  0  0  0  0  0  0  0  0  0  0  0
   42.1037    5.7341   11.7944 O   0  0  0  0  0  0  0  0  0  0  0  0
   42.1053    5.7325   11.7967 O   0  0  0  0  0  0  0  0  0  0  0  0
   42.1072    5.7306   11.7994 O   0  0  0  0  0  0  0  0  0  0  0  0
   42.1055    5.7324   11.7969 O   0  0  0  0  0  0  0  0  0  0  0  0
   42.1073    5.7306   11.7994 O   0  0  0  0  0  0  0  0  0  0  0  0
   42.1077    5.7302   11.8000 O   0  0  0  0  0  0  0  0  0  0  0  0
   42.1034    5.7345   11.7939 O   0  0  0  0  0  0  0  0  0  0  0  0
   42.1042    5.7336   11.7951 O   0  0  0  0  0  0  0  0  0  0  0  0
   42.1044    5.7334   11.7954 O   0  0  0  0  0  0  0  0  0  0  0  0
   42.3540    5.4845   12.1456 Al  0  0  0  0  0 15  0  0  0  0  0  0
   42.3540    5.4845   12.1456 Al  0  0  0  0  0 15  0  0  0  0  0  0
   42.3540    5.4845   12.1456 Mg  0  0  0  0  0 15  0  0  0  0  0  0
   42.3540    5.4845   12.1456 Mg  0  0  0  0  0 15  0  0  0  0  0  0
   42.3540    5.4845   12.1456 Mg  0  0  0  0  0 15  0  0  0  0  0  0
   42.6006    5.2386   12.4915 H   0  0  0  0  0  0  0  0  0  0  0  0
   42.6047    5.2344   12.4973 H   0  0  0  0  0  0  0  0  0  0  0  0
   42.6019    5.2373   12.4933 H   0  0  0  0  0  0  0  0  0  0  0  0
   42.6031    5.2361   12.4950 H   0  0  0  0  0  0  0  0  0  0  0  0
   42.6038    5.2354   12.4960 H   0  0  0  0  0  0  0  0  0  0  0  0
   42.6018    5.2374   12.4932 H   0  0  0  0  0  0  0  0  0  0  0  0
   42.6040    5.2351   12.4964 H   0  0  0  0  0  0  0  0  0  0  0  0
   42.6043    5.2348   12.4968 H   0  0  0  0  0  0  0  0  0  0  0  0
   42.6027    5.2364   12.4945 H   0  0  0  0  0  0  0  0  0  0  0  0
   42.6008    5.2383   12.4918 H   0  0  0  0  0  0  0  0  0  0  0  0
   42.6026    5.2366   12.4943 H   0  0  0  0  0  0  0  0  0  0  0  0
   42.6008    5.2384   12.4918 H   0  0  0  0  0  0  0  0  0  0  0  0
   42.6004    5.2388   12.4912 H   0  0  0  0  0  0  0  0  0  0  0  0
   42.6047    5.2345   12.4973 H   0  0  0  0  0  0  0  0  0  0  0  0
   42.6038    5.2353   12.4961 H   0  0  0  0  0  0  0  0  0  0  0  0
   42.6036    5.2355   12.4958 H   0  0  0  0  0  0  0  0  0  0  0  0
  3  2  1  0
  4  2  1  0
  5  2  2  0
  6 29  1  0
  7 30  1  0
  8 31  1  0
 11 32  1  0
 12 33  1  0
 13 34  1  0
 14 35  1  0
 15 36  1  0
 16 37  1  0
 17 38  1  0
 18 39  1  0
 19 40  1  0
 20 41  1  0
 21 42  1  0
 22 43  1  0
 23 44  1  0
M  CHG  8   1   2   3  -1   4  -1   6  -1   7  -1   8  -1   9   2  10   2
M  CHG  8  11  -1  12  -1  13  -1  14  -1  15  -1  16  -1  17  -1  18  -1
M  CHG  8  19  -1  20  -1  21  -1  22  -1  23  -1  24   3  25   3  26   2
M  CHG  2  27   2  28   2
M  END
> <Uni-Dock RESULT> 
ENERGY=  -11.064  LOWER_BOUND=    7.358  UPPER_BOUND=    7.481
INTER + INTRA:         -11.064
INTER:                 -11.064
INTRA:                   0.000
UNBOUND:                 0.000

$$$$

     RDKit          3D

 44 19  0  0  0  0  0  0  0  0999 V2000
   47.9256    2.3258    5.6789 Mg  0  0  0  0  0 15  0  0  0  0  0  0
   47.9432    2.3175    5.6456 C   0  0  0  0  0  0  0  0  0  0  0  0
   47.0152    3.2812    5.9506 O   0  0  0  0  0  0  0  0  0  0  0  0
   48.3670    1.4631    6.6504 O   0  0  0  0  0  0  0  0  0  0  0  0
   48.3771    2.2414    4.4687 O   0  0  0  0  0  0  0  0  0  0  0  0
   48.2172    1.9597    5.8266 O   0  0  0  0  0  0  0  0  0  0  0  0
   48.2221    1.9535    5.8291 O   0  0  0  0  0  0  0  0  0  0  0  0
   48.2187    1.9577    5.8274 O   0  0  0  0  0  0  0  0  0  0  0  0
   47.9256    2.3258    5.6789 Mg  0  0  0  0  0 15  0  0  0  0  0  0
   47.9256    2.3258    5.6789 Mg  0  0  0  0  0 15  0  0  0  0  0  0
   48.2202    1.9560    5.8281 O   0  0  0  0  0  0  0  0  0  0  0  0
   48.2210    1.9549    5.8285 O   0  0  0  0  0  0  0  0  0  0  0  0
   48.2186    1.9579    5.8273 O   0  0  0  0  0  0  0  0  0  0  0  0
   48.2213    1.9545    5.8287 O   0  0  0  0  0  0  0  0  0  0  0  0
   48.2216    1.9541    5.8289 O   0  0  0  0  0  0  0  0  0  0  0  0
   48.2197    1.9565    5.8279 O   0  0  0  0  0  0  0  0  0  0  0  0
   48.2175    1.9593    5.8268 O   0  0  0  0  0  0  0  0  0  0  0  0
   48.2196    1.9567    5.8278 O   0  0  0  0  0  0  0  0  0  0  0  0
   48.2174    1.9594    5.8267 O   0  0  0  0  0  0  0  0  0  0  0  0
   48.2170    1.9600    5.8265 O   0  0  0  0  0  0  0  0  0  0  0  0
   48.2221    1.9536    5.8291 O   0  0  0  0  0  0  0  0  0  0  0  0
   48.2211    1.9548    5.8286 O   0  0  0  0  0  0  0  0  0  0  0  0
   48.2208    1.9551    5.8284 O   0  0  0  0  0  0  0  0  0  0  0  0
   47.9256    2.3258    5.6789 Al  0  0  0  0  0 15  0  0  0  0  0  0
   47.9256    2.3258    5.6789 Al  0  0  0  0  0 15  0  0  0  0  0  0
   47.9256    2.3258    5.6789 Mg  0  0  0  0  0 15  0  0  0  0  0  0
   47.9256    2.3258    5.6789 Mg  0  0  0  0  0 15  0  0  0  0  0  0
   47.9256    2.3258    5.6789 Mg  0  0  0  0  0 15  0  0  0  0  0  0
   47.6340    2.6919    5.5311 H   0  0  0  0  0  0  0  0  0  0  0  0
   47.6291    2.6981    5.5286 H   0  0  0  0  0  0  0  0  0  0  0  0
   47.6325    2.6939    5.5303 H   0  0  0  0  0  0  0  0  0  0  0  0
   47.6311    2.6957    5.5296 H   0  0  0  0  0  0  0  0  0  0  0  0
   47.6302    2.6967    5.5292 H   0  0  0  0  0  0  0  0  0  0  0  0
   47.6326    2.6937    5.5304 H   0  0  0  0  0  0  0  0  0  0  0  0
   47.6299    2.6971    5.5290 H   0  0  0  0  0  0  0  0  0  0  0  0
   47.6296    2.6975    5.5289 H   0  0  0  0  0  0  0  0  0  0  0  0
   47.6315    2.6951    5.5298 H   0  0  0  0  0  0  0  0  0  0  0  0
   47.6338    2.6923    5.5310 H   0  0  0  0  0  0  0  0  0  0  0  0
   47.6317    2.6949    5.5299 H   0  0  0  0  0  0  0  0  0  0  0  0
   47.6338    2.6922    5.5310 H   0  0  0  0  0  0  0  0  0  0  0  0
   47.6343    2.6916    5.5312 H   0  0  0  0  0  0  0  0  0  0  0  0
   47.6292    2.6980    5.5287 H   0  0  0  0  0  0  0  0  0  0  0  0
   47.6302    2.6968    5.5292 H   0  0  0  0  0  0  0  0  0  0  0  0
   47.6304    2.6965    5.5293 H   0  0  0  0  0  0  0  0  0  0  0  0
  3  2  1  0
  4  2  1  0
  5  2  2  0
  6 29  1  0
  7 30  1  0
  8 31  1  0
 11 32  1  0
 12 33  1  0
 13 34  1  0
 14 35  1  0
 15 36  1  0
 16 37  1  0
 17 38  1  0
 18 39  1  0
 19 40  1  0
 20 41  1  0
 21 42  1  0
 22 43  1  0
 23 44  1  0
M  CHG  8   1   2   3  -1   4  -1   6  -1   7  -1   8  -1   9   2  10   2
M  CHG  8  11  -1  12  -1  13  -1  14  -1  15  -1  16  -1  17  -1  18  -1
M  CHG  8  19  -1  20  -1  21  -1  22  -1  23  -1  24   3  25   3  26   2
M  CHG  2  27   2  28   2
M  END
> <Uni-Dock RESULT> 
ENERGY=  -11.011  LOWER_BOUND=    8.709  UPPER_BOUND=    9.453
INTER + INTRA:         -11.011
INTER:                 -11.011
INTRA:                   0.000
UNBOUND:                 0.000

$$$$
