
     RDKit          3D

 44 19  0  0  0  0  0  0  0  0999 V2000
   38.8033    4.0455    5.4625 Mg  0  0  0  0  0 15  0  0  0  0  0  0
   38.8324    4.0408    5.4589 C   0  0  0  0  0  0  0  0  0  0  0  0
   38.0718    5.1123    5.0483 O   0  0  0  0  0  0  0  0  0  0  0  0
   38.2499    2.9947    6.1366 O   0  0  0  0  0  0  0  0  0  0  0  0
   40.0593    4.0341    5.2061 O   0  0  0  0  0  0  0  0  0  0  0  0
   38.8097    3.6165    5.7041 O   0  0  0  0  0  0  0  0  0  0  0  0
   38.8097    3.6180    5.7033 O   0  0  0  0  0  0  0  0  0  0  0  0
   38.8097    3.6174    5.7036 O   0  0  0  0  0  0  0  0  0  0  0  0
   38.8033    4.0455    5.4625 Mg  0  0  0  0  0 15  0  0  0  0  0  0
   38.8033    4.0455    5.4625 Mg  0  0  0  0  0 15  0  0  0  0  0  0
   38.8097    3.6178    5.7034 O   0  0  0  0  0  0  0  0  0  0  0  0
   38.8097    3.6150    5.7050 O   0  0  0  0  0  0  0  0  0  0  0  0
   38.8098    3.6101    5.7077 O   0  0  0  0  0  0  0  0  0  0  0  0
   38.8098    3.6121    5.7066 O   0  0  0  0  0  0  0  0  0  0  0  0
   38.8097    3.6169    5.7039 O   0  0  0  0  0  0  0  0  0  0  0  0
   38.8097    3.6157    5.7046 O   0  0  0  0  0  0  0  0  0  0  0  0
   38.8097    3.6139    5.7056 O   0  0  0  0  0  0  0  0  0  0  0  0
   38.8098    3.6113    5.7070 O   0  0  0  0  0  0  0  0  0  0  0  0
   38.8097    3.6160    5.7044 O   0  0  0  0  0  0  0  0  0  0  0  0
   38.8098    3.6117    5.7068 O   0  0  0  0  0  0  0  0  0  0  0  0
   38.8098    3.6099    5.7078 O   0  0  0  0  0  0  0  0  0  0  0  0
   38.8098    3.6116    5.7069 O   0  0  0  0  0  0  0  0  0  0  0  0
   38.8097    3.6166    5.7041 O   0  0  0  0  0  0  0  0  0  0  0  0
   38.8033    4.0455    5.4625 Al  0  0  0  0  0 15  0  0  0  0  0  0
   38.8033    4.0455    5.4625 Al  0  0  0  0  0 15  0  0  0  0  0  0
   38.8033    4.0455    5.4625 Mg  0  0  0  0  0 15  0  0  0  0  0  0
   38.8033    4.0455    5.4625 Mg  0  0  0  0  0 15  0  0  0  0  0  0
   38.8033    4.0455    5.4625 Mg  0  0  0  0  0 15  0  0  0  0  0  0
   38.7970    4.4744    5.2209 H   0  0  0  0  0  0  0  0  0  0  0  0
   38.7970    4.4730    5.2217 H   0  0  0  0  0  0  0  0  0  0  0  0
   38.7970    4.4735    5.2214 H   0  0  0  0  0  0  0  0  0  0  0  0
   38.7970    4.4731    5.2216 H   0  0  0  0  0  0  0  0  0  0  0  0
   38.7970    4.4759    5.2200 H   0  0  0  0  0  0  0  0  0  0  0  0
   38.7969    4.4808    5.2173 H   0  0  0  0  0  0  0  0  0  0  0  0
   38.7969    4.4788    5.2184 H   0  0  0  0  0  0  0  0  0  0  0  0
   38.7970    4.4740    5.2211 H   0  0  0  0  0  0  0  0  0  0  0  0
   38.7970    4.4752    5.2204 H   0  0  0  0  0  0  0  0  0  0  0  0
   38.7969    4.4770    5.2194 H   0  0  0  0  0  0  0  0  0  0  0  0
   38.7969    4.4796    5.2180 H   0  0  0  0  0  0  0  0  0  0  0  0
   38.7970    4.4749    5.2206 H   0  0  0  0  0  0  0  0  0  0  0  0
   38.7969    4.4792    5.2182 H   0  0  0  0  0  0  0  0  0  0  0  0
   38.7969    4.4810    5.2172 H   0  0  0  0  0  0  0  0  0  0  0  0
   38.7969    4.4793    5.2181 H   0  0  0  0  0  0  0  0  0  0  0  0
   38.7970    4.4743    5.2209 H   0  0  0  0  0  0  0  0  0  0  0  0
  3  2  1  0
  4  2  1  0
  5  2  2  0
  6 29  1  0
  7 30  1  0
  8 31  1  0
 11 32  1  0
 12 33  1  0
 13 34  1  0
 14 35  1  0
 15 36  1  0
 16 37  1  0
 17 38  1  0
 18 39  1  0
 19 40  1  0
 20 41  1  0
 21 42  1  0
 22 43  1  0
 23 44  1  0
M  CHG  8   1   2   3  -1   4  -1   6  -1   7  -1   8  -1   9   2  10   2
M  CHG  8  11  -1  12  -1  13  -1  14  -1  15  -1  16  -1  17  -1  18  -1
M  CHG  8  19  -1  20  -1  21  -1  22  -1  23  -1  24   3  25   3  26   2
M  CHG  2  27   2  28   2
M  END
> <Uni-Dock RESULT> 
ENERGY=  -14.039  LOWER_BOUND=    0.000  UPPER_BOUND=    0.000
INTER + INTRA:         -14.039
INTER:                 -14.039
INTRA:                   0.000
UNBOUND:                 0.000

$$$$

     RDKit          3D

 44 19  0  0  0  0  0  0  0  0999 V2000
   47.0235    0.6246    7.6806 Mg  0  0  0  0  0 15  0  0  0  0  0  0
   47.0024    0.6348    7.6986 C   0  0  0  0  0  0  0  0  0  0  0  0
   48.0117    1.3272    7.0686 O   0  0  0  0  0  0  0  0  0  0  0  0
   46.8810   -0.7249    7.5273 O   0  0  0  0  0  0  0  0  0  0  0  0
   46.1991    1.2612    8.4278 O   0  0  0  0  0  0  0  0  0  0  0  0
   46.8047    0.1882    7.7452 O   0  0  0  0  0  0  0  0  0  0  0  0
   46.8055    0.1897    7.7450 O   0  0  0  0  0  0  0  0  0  0  0  0
   46.8052    0.1892    7.7451 O   0  0  0  0  0  0  0  0  0  0  0  0
   47.0235    0.6246    7.6806 Mg  0  0  0  0  0 15  0  0  0  0  0  0
   47.0235    0.6246    7.6806 Mg  0  0  0  0  0 15  0  0  0  0  0  0
   46.8054    0.1896    7.7451 O   0  0  0  0  0  0  0  0  0  0  0  0
   46.8040    0.1867    7.7455 O   0  0  0  0  0  0  0  0  0  0  0  0
   46.8015    0.1818    7.7462 O   0  0  0  0  0  0  0  0  0  0  0  0
   46.8025    0.1838    7.7459 O   0  0  0  0  0  0  0  0  0  0  0  0
   46.8050    0.1887    7.7452 O   0  0  0  0  0  0  0  0  0  0  0  0
   46.8043    0.1874    7.7454 O   0  0  0  0  0  0  0  0  0  0  0  0
   46.8035    0.1857    7.7456 O   0  0  0  0  0  0  0  0  0  0  0  0
   46.8021    0.1830    7.7460 O   0  0  0  0  0  0  0  0  0  0  0  0
   46.8045    0.1878    7.7453 O   0  0  0  0  0  0  0  0  0  0  0  0
   46.8023    0.1834    7.7460 O   0  0  0  0  0  0  0  0  0  0  0  0
   46.8014    0.1816    7.7462 O   0  0  0  0  0  0  0  0  0  0  0  0
   46.8023    0.1833    7.7460 O   0  0  0  0  0  0  0  0  0  0  0  0
   46.8048    0.1883    7.7452 O   0  0  0  0  0  0  0  0  0  0  0  0
   47.0235    0.6246    7.6806 Al  0  0  0  0  0 15  0  0  0  0  0  0
   47.0235    0.6246    7.6806 Al  0  0  0  0  0 15  0  0  0  0  0  0
   47.0235    0.6246    7.6806 Mg  0  0  0  0  0 15  0  0  0  0  0  0
   47.0235    0.6246    7.6806 Mg  0  0  0  0  0 15  0  0  0  0  0  0
   47.0235    0.6246    7.6806 Mg  0  0  0  0  0 15  0  0  0  0  0  0
   47.2423    1.0609    7.6160 H   0  0  0  0  0  0  0  0  0  0  0  0
   47.2416    1.0594    7.6162 H   0  0  0  0  0  0  0  0  0  0  0  0
   47.2419    1.0600    7.6161 H   0  0  0  0  0  0  0  0  0  0  0  0
   47.2417    1.0596    7.6162 H   0  0  0  0  0  0  0  0  0  0  0  0
   47.2431    1.0625    7.6157 H   0  0  0  0  0  0  0  0  0  0  0  0
   47.2456    1.0674    7.6150 H   0  0  0  0  0  0  0  0  0  0  0  0
   47.2446    1.0654    7.6153 H   0  0  0  0  0  0  0  0  0  0  0  0
   47.2421    1.0605    7.6160 H   0  0  0  0  0  0  0  0  0  0  0  0
   47.2427    1.0617    7.6158 H   0  0  0  0  0  0  0  0  0  0  0  0
   47.2436    1.0635    7.6156 H   0  0  0  0  0  0  0  0  0  0  0  0
   47.2450    1.0662    7.6152 H   0  0  0  0  0  0  0  0  0  0  0  0
   47.2426    1.0614    7.6159 H   0  0  0  0  0  0  0  0  0  0  0  0
   47.2448    1.0658    7.6152 H   0  0  0  0  0  0  0  0  0  0  0  0
   47.2457    1.0676    7.6150 H   0  0  0  0  0  0  0  0  0  0  0  0
   47.2448    1.0659    7.6152 H   0  0  0  0  0  0  0  0  0  0  0  0
   47.2423    1.0609    7.6160 H   0  0  0  0  0  0  0  0  0  0  0  0
  3  2  1  0
  4  2  1  0
  5  2  2  0
  6 29  1  0
  7 30  1  0
  8 31  1  0
 11 32  1  0
 12 33  1  0
 13 34  1  0
 14 35  1  0
 15 36  1  0
 16 37  1  0
 17 38  1  0
 18 39  1  0
 19 40  1  0
 20 41  1  0
 21 42  1  0
 22 43  1  0
 23 44  1  0
M  CHG  8   1   2   3  -1   4  -1   6  -1   7  -1   8  -1   9   2  10   2
M  CHG  8  11  -1  12  -1  13  -1  14  -1  15  -1  16  -1  17  -1  18  -1
M  CHG  8  19  -1  20  -1  21  -1  22  -1  23  -1  24   3  25   3  26   2
M  CHG  2  27   2  28   2
M  END
> <Uni-Dock RESULT> 
ENERGY=  -13.774  LOWER_BOUND=    8.572  UPPER_BOUND=    9.058
INTER + INTRA:         -13.774
INTER:                 -13.774
INTRA:                   0.000
UNBOUND:                 0.000

$$$$

     RDKit          3D

 44 19  0  0  0  0  0  0  0  0999 V2000
   47.0379    0.5959    7.5364 Mg  0  0  0  0  0 15  0  0  0  0  0  0
   47.0248    0.6173    7.5522 C   0  0  0  0  0  0  0  0  0  0  0  0
   46.7243   -0.7250    7.4966 O   0  0  0  0  0  0  0  0  0  0  0  0
   48.0592    1.1290    6.8032 O   0  0  0  0  0  0  0  0  0  0  0  0
   46.3432    1.3624    8.2934 O   0  0  0  0  0  0  0  0  0  0  0  0
   47.3385    0.9549    7.3840 O   0  0  0  0  0  0  0  0  0  0  0  0
   47.3375    0.9536    7.3845 O   0  0  0  0  0  0  0  0  0  0  0  0
   47.3379    0.9541    7.3844 O   0  0  0  0  0  0  0  0  0  0  0  0
   47.0379    0.5959    7.5364 Mg  0  0  0  0  0 15  0  0  0  0  0  0
   47.0379    0.5959    7.5364 Mg  0  0  0  0  0 15  0  0  0  0  0  0
   47.3376    0.9538    7.3845 O   0  0  0  0  0  0  0  0  0  0  0  0
   47.3396    0.9561    7.3835 O   0  0  0  0  0  0  0  0  0  0  0  0
   47.3430    0.9602    7.3818 O   0  0  0  0  0  0  0  0  0  0  0  0
   47.3416    0.9585    7.3825 O   0  0  0  0  0  0  0  0  0  0  0  0
   47.3382    0.9545    7.3842 O   0  0  0  0  0  0  0  0  0  0  0  0
   47.3391    0.9555    7.3837 O   0  0  0  0  0  0  0  0  0  0  0  0
   47.3403    0.9570    7.3831 O   0  0  0  0  0  0  0  0  0  0  0  0
   47.3421    0.9592    7.3822 O   0  0  0  0  0  0  0  0  0  0  0  0
   47.3388    0.9552    7.3839 O   0  0  0  0  0  0  0  0  0  0  0  0
   47.3419    0.9589    7.3823 O   0  0  0  0  0  0  0  0  0  0  0  0
   47.3431    0.9603    7.3817 O   0  0  0  0  0  0  0  0  0  0  0  0
   47.3420    0.9590    7.3823 O   0  0  0  0  0  0  0  0  0  0  0  0
   47.3385    0.9548    7.3841 O   0  0  0  0  0  0  0  0  0  0  0  0
   47.0379    0.5959    7.5364 Al  0  0  0  0  0 15  0  0  0  0  0  0
   47.0379    0.5959    7.5364 Al  0  0  0  0  0 15  0  0  0  0  0  0
   47.0379    0.5959    7.5364 Mg  0  0  0  0  0 15  0  0  0  0  0  0
   47.0379    0.5959    7.5364 Mg  0  0  0  0  0 15  0  0  0  0  0  0
   47.0379    0.5959    7.5364 Mg  0  0  0  0  0 15  0  0  0  0  0  0
   46.7372    0.2370    7.6887 H   0  0  0  0  0  0  0  0  0  0  0  0
   46.7383    0.2382    7.6882 H   0  0  0  0  0  0  0  0  0  0  0  0
   46.7379    0.2378    7.6884 H   0  0  0  0  0  0  0  0  0  0  0  0
   46.7381    0.2381    7.6883 H   0  0  0  0  0  0  0  0  0  0  0  0
   46.7362    0.2357    7.6893 H   0  0  0  0  0  0  0  0  0  0  0  0
   46.7328    0.2316    7.6910 H   0  0  0  0  0  0  0  0  0  0  0  0
   46.7342    0.2333    7.6903 H   0  0  0  0  0  0  0  0  0  0  0  0
   46.7375    0.2373    7.6886 H   0  0  0  0  0  0  0  0  0  0  0  0
   46.7367    0.2363    7.6890 H   0  0  0  0  0  0  0  0  0  0  0  0
   46.7354    0.2349    7.6896 H   0  0  0  0  0  0  0  0  0  0  0  0
   46.7336    0.2327    7.6906 H   0  0  0  0  0  0  0  0  0  0  0  0
   46.7369    0.2366    7.6889 H   0  0  0  0  0  0  0  0  0  0  0  0
   46.7339    0.2330    7.6904 H   0  0  0  0  0  0  0  0  0  0  0  0
   46.7326    0.2315    7.6911 H   0  0  0  0  0  0  0  0  0  0  0  0
   46.7338    0.2329    7.6905 H   0  0  0  0  0  0  0  0  0  0  0  0
   46.7373    0.2370    7.6887 H   0  0  0  0  0  0  0  0  0  0  0  0
  3  2  1  0
  4  2  1  0
  5  2  2  0
  6 29  1  0
  7 30  1  0
  8 31  1  0
 11 32  1  0
 12 33  1  0
 13 34  1  0
 14 35  1  0
 15 36  1  0
 16 37  1  0
 17 38  1  0
 18 39  1  0
 19 40  1  0
 20 41  1  0
 21 42  1  0
 22 43  1  0
 23 44  1  0
M  CHG  8   1   2   3  -1   4  -1   6  -1   7  -1   8  -1   9   2  10   2
M  CHG  8  11  -1  12  -1  13  -1  14  -1  15  -1  16  -1  17  -1  18  -1
M  CHG  8  19  -1  20  -1  21  -1  22  -1  23  -1  24   3  25   3  26   2
M  CHG  2  27   2  28   2
M  END
> <Uni-Dock RESULT> 
ENERGY=  -12.164  LOWER_BOUND=    8.606  UPPER_BOUND=    9.159
INTER + INTRA:         -12.164
INTER:                 -12.164
INTRA:                   0.000
UNBOUND:                 0.000

$$$$

     RDKit          3D

 44 19  0  0  0  0  0  0  0  0999 V2000
   47.9170    1.9287    6.8850 Mg  0  0  0  0  0 15  0  0  0  0  0  0
   47.9316    1.9214    6.8603 C   0  0  0  0  0  0  0  0  0  0  0  0
   47.4633    3.1539    7.2560 O   0  0  0  0  0  0  0  0  0  0  0  0
   47.7399    0.8168    7.6578 O   0  0  0  0  0  0  0  0  0  0  0  0
   48.5332    1.8227    5.7660 O   0  0  0  0  0  0  0  0  0  0  0  0
   47.9692    1.4534    7.0027 O   0  0  0  0  0  0  0  0  0  0  0  0
   47.9690    1.4551    7.0023 O   0  0  0  0  0  0  0  0  0  0  0  0
   47.9690    1.4545    7.0024 O   0  0  0  0  0  0  0  0  0  0  0  0
   47.9170    1.9287    6.8850 Mg  0  0  0  0  0 15  0  0  0  0  0  0
   47.9170    1.9287    6.8850 Mg  0  0  0  0  0 15  0  0  0  0  0  0
   47.9690    1.4549    7.0023 O   0  0  0  0  0  0  0  0  0  0  0  0
   47.9693    1.4518    7.0031 O   0  0  0  0  0  0  0  0  0  0  0  0
   47.9699    1.4464    7.0044 O   0  0  0  0  0  0  0  0  0  0  0  0
   47.9697    1.4486    7.0039 O   0  0  0  0  0  0  0  0  0  0  0  0
   47.9691    1.4539    7.0026 O   0  0  0  0  0  0  0  0  0  0  0  0
   47.9693    1.4525    7.0029 O   0  0  0  0  0  0  0  0  0  0  0  0
   47.9695    1.4506    7.0034 O   0  0  0  0  0  0  0  0  0  0  0  0
   47.9698    1.4477    7.0041 O   0  0  0  0  0  0  0  0  0  0  0  0
   47.9692    1.4529    7.0028 O   0  0  0  0  0  0  0  0  0  0  0  0
   47.9697    1.4481    7.0040 O   0  0  0  0  0  0  0  0  0  0  0  0
   47.9700    1.4462    7.0045 O   0  0  0  0  0  0  0  0  0  0  0  0
   47.9698    1.4480    7.0040 O   0  0  0  0  0  0  0  0  0  0  0  0
   47.9692    1.4535    7.0027 O   0  0  0  0  0  0  0  0  0  0  0  0
   47.9170    1.9287    6.8850 Al  0  0  0  0  0 15  0  0  0  0  0  0
   47.9170    1.9287    6.8850 Al  0  0  0  0  0 15  0  0  0  0  0  0
   47.9170    1.9287    6.8850 Mg  0  0  0  0  0 15  0  0  0  0  0  0
   47.9170    1.9287    6.8850 Mg  0  0  0  0  0 15  0  0  0  0  0  0
   47.9170    1.9287    6.8850 Mg  0  0  0  0  0 15  0  0  0  0  0  0
   47.8648    2.4040    6.7674 H   0  0  0  0  0  0  0  0  0  0  0  0
   47.8650    2.4023    6.7678 H   0  0  0  0  0  0  0  0  0  0  0  0
   47.8649    2.4029    6.7677 H   0  0  0  0  0  0  0  0  0  0  0  0
   47.8650    2.4025    6.7678 H   0  0  0  0  0  0  0  0  0  0  0  0
   47.8646    2.4056    6.7670 H   0  0  0  0  0  0  0  0  0  0  0  0
   47.8640    2.4110    6.7657 H   0  0  0  0  0  0  0  0  0  0  0  0
   47.8643    2.4088    6.7662 H   0  0  0  0  0  0  0  0  0  0  0  0
   47.8649    2.4035    6.7675 H   0  0  0  0  0  0  0  0  0  0  0  0
   47.8647    2.4049    6.7672 H   0  0  0  0  0  0  0  0  0  0  0  0
   47.8645    2.4068    6.7667 H   0  0  0  0  0  0  0  0  0  0  0  0
   47.8642    2.4097    6.7660 H   0  0  0  0  0  0  0  0  0  0  0  0
   47.8648    2.4045    6.7673 H   0  0  0  0  0  0  0  0  0  0  0  0
   47.8642    2.4093    6.7661 H   0  0  0  0  0  0  0  0  0  0  0  0
   47.8640    2.4112    6.7656 H   0  0  0  0  0  0  0  0  0  0  0  0
   47.8642    2.4094    6.7661 H   0  0  0  0  0  0  0  0  0  0  0  0
   47.8648    2.4039    6.7674 H   0  0  0  0  0  0  0  0  0  0  0  0
  3  2  1  0
  4  2  1  0
  5  2  2  0
  6 29  1  0
  7 30  1  0
  8 31  1  0
 11 32  1  0
 12 33  1  0
 13 34  1  0
 14 35  1  0
 15 36  1  0
 16 37  1  0
 17 38  1  0
 18 39  1  0
 19 40  1  0
 20 41  1  0
 21 42  1  0
 22 43  1  0
 23 44  1  0
M  CHG  8   1   2   3  -1   4  -1   6  -1   7  -1   8  -1   9   2  10   2
M  CHG  8  11  -1  12  -1  13  -1  14  -1  15  -1  16  -1  17  -1  18  -1
M  CHG  8  19  -1  20  -1  21  -1  22  -1  23  -1  24   3  25   3  26   2
M  CHG  2  27   2  28   2
M  END
> <Uni-Dock RESULT> 
ENERGY=  -11.854  LOWER_BOUND=    9.041  UPPER_BOUND=    9.489
INTER + INTRA:         -11.854
INTER:                 -11.854
INTRA:                   0.000
UNBOUND:                 0.000

$$$$

     RDKit          3D

 44 19  0  0  0  0  0  0  0  0999 V2000
   42.3522    5.4695   12.1332 Mg  0  0  0  0  0 15  0  0  0  0  0  0
   42.3537    5.4493   12.1116 C   0  0  0  0  0  0  0  0  0  0  0  0
   42.8303    5.3714   13.4007 O   0  0  0  0  0  0  0  0  0  0  0  0
   41.7060    6.5830   11.6779 O   0  0  0  0  0  0  0  0  0  0  0  0
   42.5189    4.4742   11.3426 O   0  0  0  0  0  0  0  0  0  0  0  0
   42.1054    5.7394   11.8035 O   0  0  0  0  0  0  0  0  0  0  0  0
   42.1063    5.7384   11.8046 O   0  0  0  0  0  0  0  0  0  0  0  0
   42.1060    5.7388   11.8042 O   0  0  0  0  0  0  0  0  0  0  0  0
   42.3522    5.4695   12.1332 Mg  0  0  0  0  0 15  0  0  0  0  0  0
   42.3522    5.4695   12.1332 Mg  0  0  0  0  0 15  0  0  0  0  0  0
   42.1062    5.7386   11.8045 O   0  0  0  0  0  0  0  0  0  0  0  0
   42.1046    5.7403   11.8023 O   0  0  0  0  0  0  0  0  0  0  0  0
   42.1018    5.7434   11.7986 O   0  0  0  0  0  0  0  0  0  0  0  0
   42.1029    5.7421   11.8001 O   0  0  0  0  0  0  0  0  0  0  0  0
   42.1057    5.7391   11.8038 O   0  0  0  0  0  0  0  0  0  0  0  0
   42.1050    5.7399   11.8029 O   0  0  0  0  0  0  0  0  0  0  0  0
   42.1040    5.7410   11.8015 O   0  0  0  0  0  0  0  0  0  0  0  0
   42.1025    5.7426   11.7995 O   0  0  0  0  0  0  0  0  0  0  0  0
   42.1052    5.7396   11.8032 O   0  0  0  0  0  0  0  0  0  0  0  0
   42.1027    5.7424   11.7998 O   0  0  0  0  0  0  0  0  0  0  0  0
   42.1017    5.7435   11.7985 O   0  0  0  0  0  0  0  0  0  0  0  0
   42.1026    5.7424   11.7997 O   0  0  0  0  0  0  0  0  0  0  0  0
   42.1055    5.7393   11.8036 O   0  0  0  0  0  0  0  0  0  0  0  0
   42.3522    5.4695   12.1332 Al  0  0  0  0  0 15  0  0  0  0  0  0
   42.3522    5.4695   12.1332 Al  0  0  0  0  0 15  0  0  0  0  0  0
   42.3522    5.4695   12.1332 Mg  0  0  0  0  0 15  0  0  0  0  0  0
   42.3522    5.4695   12.1332 Mg  0  0  0  0  0 15  0  0  0  0  0  0
   42.3522    5.4695   12.1332 Mg  0  0  0  0  0 15  0  0  0  0  0  0
   42.5990    5.1996   12.4629 H   0  0  0  0  0  0  0  0  0  0  0  0
   42.5982    5.2005   12.4618 H   0  0  0  0  0  0  0  0  0  0  0  0
   42.5985    5.2002   12.4622 H   0  0  0  0  0  0  0  0  0  0  0  0
   42.5983    5.2004   12.4619 H   0  0  0  0  0  0  0  0  0  0  0  0
   42.5999    5.1987   12.4641 H   0  0  0  0  0  0  0  0  0  0  0  0
   42.6027    5.1956   12.4678 H   0  0  0  0  0  0  0  0  0  0  0  0
   42.6015    5.1968   12.4663 H   0  0  0  0  0  0  0  0  0  0  0  0
   42.5988    5.1999   12.4626 H   0  0  0  0  0  0  0  0  0  0  0  0
   42.5995    5.1991   12.4635 H   0  0  0  0  0  0  0  0  0  0  0  0
   42.6005    5.1980   12.4649 H   0  0  0  0  0  0  0  0  0  0  0  0
   42.6020    5.1963   12.4669 H   0  0  0  0  0  0  0  0  0  0  0  0
   42.5993    5.1993   12.4633 H   0  0  0  0  0  0  0  0  0  0  0  0
   42.6018    5.1966   12.4666 H   0  0  0  0  0  0  0  0  0  0  0  0
   42.6028    5.1955   12.4679 H   0  0  0  0  0  0  0  0  0  0  0  0
   42.6018    5.1965   12.4667 H   0  0  0  0  0  0  0  0  0  0  0  0
   42.5990    5.1996   12.4629 H   0  0  0  0  0  0  0  0  0  0  0  0
  3  2  1  0
  4  2  1  0
  5  2  2  0
  6 29  1  0
  7 30  1  0
  8 31  1  0
 11 32  1  0
 12 33  1  0
 13 34  1  0
 14 35  1  0
 15 36  1  0
 16 37  1  0
 17 38  1  0
 18 39  1  0
 19 40  1  0
 20 41  1  0
 21 42  1  0
 22 43  1  0
 23 44  1  0
M  CHG  8   1   2   3  -1   4  -1   6  -1   7  -1   8  -1   9   2  10   2
M  CHG  8  11  -1  12  -1  13  -1  14  -1  15  -1  16  -1  17  -1  18  -1
M  CHG  8  19  -1  20  -1  21  -1  22  -1  23  -1  24   3  25   3  26   2
M  CHG  2  27   2  28   2
M  END
> <Uni-Dock RESULT> 
ENERGY=  -11.074  LOWER_BOUND=    7.350  UPPER_BOUND=    7.474
INTER + INTRA:         -11.074
INTER:                 -11.074
INTRA:                   0.000
UNBOUND:                 0.000

$$$$
