
     RDKit          3D

 44 19  0  0  0  0  0  0  0  0999 V2000
   46.9550    0.6414    7.7000 Mg  0  0  0  0  0 15  0  0  0  0  0  0
   46.9421    0.6553    7.7121 C   0  0  0  0  0  0  0  0  0  0  0  0
   47.9355    1.4200    7.1129 O   0  0  0  0  0  0  0  0  0  0  0  0
   46.8650   -0.7250    7.5214 O   0  0  0  0  0  0  0  0  0  0  0  0
   46.0774    1.2151    8.4537 O   0  0  0  0  0  0  0  0  0  0  0  0
   46.7865    0.1719    7.7197 O   0  0  0  0  0  0  0  0  0  0  0  0
   46.7888    0.1783    7.7194 O   0  0  0  0  0  0  0  0  0  0  0  0
   46.7870    0.1733    7.7196 O   0  0  0  0  0  0  0  0  0  0  0  0
   46.9550    0.6414    7.7000 Mg  0  0  0  0  0 15  0  0  0  0  0  0
   46.9550    0.6414    7.7000 Mg  0  0  0  0  0 15  0  0  0  0  0  0
   46.7874    0.1742    7.7196 O   0  0  0  0  0  0  0  0  0  0  0  0
   46.7893    0.1796    7.7193 O   0  0  0  0  0  0  0  0  0  0  0  0
   46.7892    0.1792    7.7194 O   0  0  0  0  0  0  0  0  0  0  0  0
   46.7868    0.1727    7.7196 O   0  0  0  0  0  0  0  0  0  0  0  0
   46.7864    0.1716    7.7197 O   0  0  0  0  0  0  0  0  0  0  0  0
   46.7874    0.1744    7.7196 O   0  0  0  0  0  0  0  0  0  0  0  0
   46.7892    0.1794    7.7194 O   0  0  0  0  0  0  0  0  0  0  0  0
   46.7893    0.1795    7.7194 O   0  0  0  0  0  0  0  0  0  0  0  0
   46.7872    0.1738    7.7196 O   0  0  0  0  0  0  0  0  0  0  0  0
   46.7886    0.1775    7.7194 O   0  0  0  0  0  0  0  0  0  0  0  0
   46.7881    0.1763    7.7195 O   0  0  0  0  0  0  0  0  0  0  0  0
   46.7896    0.1803    7.7193 O   0  0  0  0  0  0  0  0  0  0  0  0
   46.7863    0.1712    7.7197 O   0  0  0  0  0  0  0  0  0  0  0  0
   46.9550    0.6414    7.7000 Al  0  0  0  0  0 15  0  0  0  0  0  0
   46.9550    0.6414    7.7000 Al  0  0  0  0  0 15  0  0  0  0  0  0
   46.9550    0.6414    7.7000 Mg  0  0  0  0  0 15  0  0  0  0  0  0
   46.9550    0.6414    7.7000 Mg  0  0  0  0  0 15  0  0  0  0  0  0
   46.9550    0.6414    7.7000 Mg  0  0  0  0  0 15  0  0  0  0  0  0
   47.1236    1.1109    7.6804 H   0  0  0  0  0  0  0  0  0  0  0  0
   47.1213    1.1045    7.6806 H   0  0  0  0  0  0  0  0  0  0  0  0
   47.1230    1.1095    7.6804 H   0  0  0  0  0  0  0  0  0  0  0  0
   47.1227    1.1085    7.6804 H   0  0  0  0  0  0  0  0  0  0  0  0
   47.1208    1.1032    7.6807 H   0  0  0  0  0  0  0  0  0  0  0  0
   47.1209    1.1035    7.6807 H   0  0  0  0  0  0  0  0  0  0  0  0
   47.1232    1.1100    7.6804 H   0  0  0  0  0  0  0  0  0  0  0  0
   47.1236    1.1111    7.6803 H   0  0  0  0  0  0  0  0  0  0  0  0
   47.1226    1.1083    7.6805 H   0  0  0  0  0  0  0  0  0  0  0  0
   47.1208    1.1033    7.6807 H   0  0  0  0  0  0  0  0  0  0  0  0
   47.1208    1.1032    7.6807 H   0  0  0  0  0  0  0  0  0  0  0  0
   47.1229    1.1090    7.6804 H   0  0  0  0  0  0  0  0  0  0  0  0
   47.1215    1.1052    7.6806 H   0  0  0  0  0  0  0  0  0  0  0  0
   47.1220    1.1064    7.6805 H   0  0  0  0  0  0  0  0  0  0  0  0
   47.1205    1.1024    7.6807 H   0  0  0  0  0  0  0  0  0  0  0  0
   47.1238    1.1115    7.6803 H   0  0  0  0  0  0  0  0  0  0  0  0
  3  2  1  0
  4  2  1  0
  5  2  2  0
  6 29  1  0
  7 30  1  0
  8 31  1  0
 11 32  1  0
 12 33  1  0
 13 34  1  0
 14 35  1  0
 15 36  1  0
 16 37  1  0
 17 38  1  0
 18 39  1  0
 19 40  1  0
 20 41  1  0
 21 42  1  0
 22 43  1  0
 23 44  1  0
M  CHG  8   1   2   3  -1   4  -1   6  -1   7  -1   8  -1   9   2  10   2
M  CHG  8  11  -1  12  -1  13  -1  14  -1  15  -1  16  -1  17  -1  18  -1
M  CHG  8  19  -1  20  -1  21  -1  22  -1  23  -1  24   3  25   3  26   2
M  CHG  2  27   2  28   2
M  END
> <Uni-Dock RESULT> 
ENERGY=  -13.703  LOWER_BOUND=    0.000  UPPER_BOUND=    0.000
INTER + INTRA:         -13.703
INTER:                 -13.703
INTRA:                   0.000
UNBOUND:                 0.000

$$$$

     RDKit          3D

 44 19  0  0  0  0  0  0  0  0999 V2000
   39.0116    4.6296    5.3873 Mg  0  0  0  0  0 15  0  0  0  0  0  0
   39.0034    4.6103    5.3953 C   0  0  0  0  0  0  0  0  0  0  0  0
   37.9261    5.3759    4.9665 O   0  0  0  0  0  0  0  0  0  0  0  0
   40.3168    5.0701    5.2905 O   0  0  0  0  0  0  0  0  0  0  0  0
   38.8002    3.4621    5.8967 O   0  0  0  0  0  0  0  0  0  0  0  0
   39.5105    4.6379    5.4040 O   0  0  0  0  0  0  0  0  0  0  0  0
   39.5037    4.6378    5.4038 O   0  0  0  0  0  0  0  0  0  0  0  0
   39.5090    4.6379    5.4040 O   0  0  0  0  0  0  0  0  0  0  0  0
   39.0116    4.6296    5.3873 Mg  0  0  0  0  0 15  0  0  0  0  0  0
   39.0116    4.6296    5.3873 Mg  0  0  0  0  0 15  0  0  0  0  0  0
   39.5080    4.6379    5.4039 O   0  0  0  0  0  0  0  0  0  0  0  0
   39.5023    4.6378    5.4038 O   0  0  0  0  0  0  0  0  0  0  0  0
   39.5027    4.6378    5.4038 O   0  0  0  0  0  0  0  0  0  0  0  0
   39.5096    4.6379    5.4040 O   0  0  0  0  0  0  0  0  0  0  0  0
   39.5108    4.6380    5.4040 O   0  0  0  0  0  0  0  0  0  0  0  0
   39.5078    4.6379    5.4039 O   0  0  0  0  0  0  0  0  0  0  0  0
   39.5025    4.6378    5.4038 O   0  0  0  0  0  0  0  0  0  0  0  0
   39.5024    4.6378    5.4038 O   0  0  0  0  0  0  0  0  0  0  0  0
   39.5085    4.6379    5.4040 O   0  0  0  0  0  0  0  0  0  0  0  0
   39.5045    4.6378    5.4038 O   0  0  0  0  0  0  0  0  0  0  0  0
   39.5058    4.6379    5.4039 O   0  0  0  0  0  0  0  0  0  0  0  0
   39.5015    4.6378    5.4037 O   0  0  0  0  0  0  0  0  0  0  0  0
   39.5112    4.6380    5.4041 O   0  0  0  0  0  0  0  0  0  0  0  0
   39.0116    4.6296    5.3873 Al  0  0  0  0  0 15  0  0  0  0  0  0
   39.0116    4.6296    5.3873 Al  0  0  0  0  0 15  0  0  0  0  0  0
   39.0116    4.6296    5.3873 Mg  0  0  0  0  0 15  0  0  0  0  0  0
   39.0116    4.6296    5.3873 Mg  0  0  0  0  0 15  0  0  0  0  0  0
   39.0116    4.6296    5.3873 Mg  0  0  0  0  0 15  0  0  0  0  0  0
   38.5128    4.6213    5.3705 H   0  0  0  0  0  0  0  0  0  0  0  0
   38.5196    4.6214    5.3707 H   0  0  0  0  0  0  0  0  0  0  0  0
   38.5143    4.6213    5.3706 H   0  0  0  0  0  0  0  0  0  0  0  0
   38.5153    4.6213    5.3706 H   0  0  0  0  0  0  0  0  0  0  0  0
   38.5210    4.6214    5.3708 H   0  0  0  0  0  0  0  0  0  0  0  0
   38.5206    4.6214    5.3708 H   0  0  0  0  0  0  0  0  0  0  0  0
   38.5137    4.6213    5.3705 H   0  0  0  0  0  0  0  0  0  0  0  0
   38.5125    4.6213    5.3705 H   0  0  0  0  0  0  0  0  0  0  0  0
   38.5155    4.6213    5.3706 H   0  0  0  0  0  0  0  0  0  0  0  0
   38.5208    4.6214    5.3708 H   0  0  0  0  0  0  0  0  0  0  0  0
   38.5209    4.6214    5.3708 H   0  0  0  0  0  0  0  0  0  0  0  0
   38.5148    4.6213    5.3706 H   0  0  0  0  0  0  0  0  0  0  0  0
   38.5188    4.6214    5.3707 H   0  0  0  0  0  0  0  0  0  0  0  0
   38.5175    4.6213    5.3707 H   0  0  0  0  0  0  0  0  0  0  0  0
   38.5218    4.6214    5.3708 H   0  0  0  0  0  0  0  0  0  0  0  0
   38.5121    4.6213    5.3705 H   0  0  0  0  0  0  0  0  0  0  0  0
  3  2  1  0
  4  2  1  0
  5  2  2  0
  6 29  1  0
  7 30  1  0
  8 31  1  0
 11 32  1  0
 12 33  1  0
 13 34  1  0
 14 35  1  0
 15 36  1  0
 16 37  1  0
 17 38  1  0
 18 39  1  0
 19 40  1  0
 20 41  1  0
 21 42  1  0
 22 43  1  0
 23 44  1  0
M  CHG  8   1   2   3  -1   4  -1   6  -1   7  -1   8  -1   9   2  10   2
M  CHG  8  11  -1  12  -1  13  -1  14  -1  15  -1  16  -1  17  -1  18  -1
M  CHG  8  19  -1  20  -1  21  -1  22  -1  23  -1  24   3  25   3  26   2
M  CHG  2  27   2  28   2
M  END
> <Uni-Dock RESULT> 
ENERGY=  -12.162  LOWER_BOUND=    8.703  UPPER_BOUND=    9.020
INTER + INTRA:         -12.162
INTER:                 -12.162
INTRA:                   0.000
UNBOUND:                 0.000

$$$$

     RDKit          3D

 44 19  0  0  0  0  0  0  0  0999 V2000
   47.9329    1.9250    6.8593 Mg  0  0  0  0  0 15  0  0  0  0  0  0
   47.9422    1.9276    6.8390 C   0  0  0  0  0  0  0  0  0  0  0  0
   47.4849    3.1723    7.2541 O   0  0  0  0  0  0  0  0  0  0  0  0
   47.7925    0.7899    7.6332 O   0  0  0  0  0  0  0  0  0  0  0  0
   48.5121    1.8101    5.7110 O   0  0  0  0  0  0  0  0  0  0  0  0
   47.9717    1.4536    7.0189 O   0  0  0  0  0  0  0  0  0  0  0  0
   47.9712    1.4600    7.0167 O   0  0  0  0  0  0  0  0  0  0  0  0
   47.9716    1.4550    7.0184 O   0  0  0  0  0  0  0  0  0  0  0  0
   47.9329    1.9250    6.8593 Mg  0  0  0  0  0 15  0  0  0  0  0  0
   47.9329    1.9250    6.8593 Mg  0  0  0  0  0 15  0  0  0  0  0  0
   47.9715    1.4559    7.0181 O   0  0  0  0  0  0  0  0  0  0  0  0
   47.9711    1.4613    7.0163 O   0  0  0  0  0  0  0  0  0  0  0  0
   47.9711    1.4609    7.0164 O   0  0  0  0  0  0  0  0  0  0  0  0
   47.9716    1.4544    7.0186 O   0  0  0  0  0  0  0  0  0  0  0  0
   47.9717    1.4533    7.0190 O   0  0  0  0  0  0  0  0  0  0  0  0
   47.9715    1.4561    7.0180 O   0  0  0  0  0  0  0  0  0  0  0  0
   47.9711    1.4611    7.0164 O   0  0  0  0  0  0  0  0  0  0  0  0
   47.9711    1.4612    7.0163 O   0  0  0  0  0  0  0  0  0  0  0  0
   47.9715    1.4555    7.0183 O   0  0  0  0  0  0  0  0  0  0  0  0
   47.9712    1.4592    7.0170 O   0  0  0  0  0  0  0  0  0  0  0  0
   47.9713    1.4580    7.0174 O   0  0  0  0  0  0  0  0  0  0  0  0
   47.9710    1.4621    7.0160 O   0  0  0  0  0  0  0  0  0  0  0  0
   47.9718    1.4529    7.0191 O   0  0  0  0  0  0  0  0  0  0  0  0
   47.9329    1.9250    6.8593 Al  0  0  0  0  0 15  0  0  0  0  0  0
   47.9329    1.9250    6.8593 Al  0  0  0  0  0 15  0  0  0  0  0  0
   47.9329    1.9250    6.8593 Mg  0  0  0  0  0 15  0  0  0  0  0  0
   47.9329    1.9250    6.8593 Mg  0  0  0  0  0 15  0  0  0  0  0  0
   47.9329    1.9250    6.8593 Mg  0  0  0  0  0 15  0  0  0  0  0  0
   47.8941    2.3964    6.6997 H   0  0  0  0  0  0  0  0  0  0  0  0
   47.8947    2.3900    6.7019 H   0  0  0  0  0  0  0  0  0  0  0  0
   47.8943    2.3950    6.7002 H   0  0  0  0  0  0  0  0  0  0  0  0
   47.8943    2.3940    6.7005 H   0  0  0  0  0  0  0  0  0  0  0  0
   47.8948    2.3886    6.7023 H   0  0  0  0  0  0  0  0  0  0  0  0
   47.8947    2.3890    6.7022 H   0  0  0  0  0  0  0  0  0  0  0  0
   47.8942    2.3955    6.7000 H   0  0  0  0  0  0  0  0  0  0  0  0
   47.8941    2.3967    6.6996 H   0  0  0  0  0  0  0  0  0  0  0  0
   47.8943    2.3938    6.7006 H   0  0  0  0  0  0  0  0  0  0  0  0
   47.8948    2.3888    6.7022 H   0  0  0  0  0  0  0  0  0  0  0  0
   47.8948    2.3887    6.7023 H   0  0  0  0  0  0  0  0  0  0  0  0
   47.8943    2.3945    6.7003 H   0  0  0  0  0  0  0  0  0  0  0  0
   47.8946    2.3907    6.7016 H   0  0  0  0  0  0  0  0  0  0  0  0
   47.8945    2.3919    6.7012 H   0  0  0  0  0  0  0  0  0  0  0  0
   47.8948    2.3879    6.7026 H   0  0  0  0  0  0  0  0  0  0  0  0
   47.8941    2.3970    6.6995 H   0  0  0  0  0  0  0  0  0  0  0  0
  3  2  1  0
  4  2  1  0
  5  2  2  0
  6 29  1  0
  7 30  1  0
  8 31  1  0
 11 32  1  0
 12 33  1  0
 13 34  1  0
 14 35  1  0
 15 36  1  0
 16 37  1  0
 17 38  1  0
 18 39  1  0
 19 40  1  0
 20 41  1  0
 21 42  1  0
 22 43  1  0
 23 44  1  0
M  CHG  8   1   2   3  -1   4  -1   6  -1   7  -1   8  -1   9   2  10   2
M  CHG  8  11  -1  12  -1  13  -1  14  -1  15  -1  16  -1  17  -1  18  -1
M  CHG  8  19  -1  20  -1  21  -1  22  -1  23  -1  24   3  25   3  26   2
M  CHG  2  27   2  28   2
M  END
> <Uni-Dock RESULT> 
ENERGY=  -11.846  LOWER_BOUND=    1.453  UPPER_BOUND=    1.952
INTER + INTRA:         -11.846
INTER:                 -11.846
INTRA:                   0.000
UNBOUND:                 0.000

$$$$

     RDKit          3D

 44 19  0  0  0  0  0  0  0  0999 V2000
   48.0957    2.1418    6.3028 Mg  0  0  0  0  0 15  0  0  0  0  0  0
   48.0926    2.1260    6.3186 C   0  0  0  0  0  0  0  0  0  0  0  0
   47.8113    3.3565    6.8995 O   0  0  0  0  0  0  0  0  0  0  0  0
   48.4837    2.0186    4.9832 O   0  0  0  0  0  0  0  0  0  0  0  0
   47.9950    1.0661    7.0099 O   0  0  0  0  0  0  0  0  0  0  0  0
   48.2224    1.9406    5.8639 O   0  0  0  0  0  0  0  0  0  0  0  0
   48.2207    1.9433    5.8699 O   0  0  0  0  0  0  0  0  0  0  0  0
   48.2220    1.9412    5.8652 O   0  0  0  0  0  0  0  0  0  0  0  0
   48.0957    2.1418    6.3028 Mg  0  0  0  0  0 15  0  0  0  0  0  0
   48.0957    2.1418    6.3028 Mg  0  0  0  0  0 15  0  0  0  0  0  0
   48.2218    1.9416    5.8661 O   0  0  0  0  0  0  0  0  0  0  0  0
   48.2203    1.9439    5.8711 O   0  0  0  0  0  0  0  0  0  0  0  0
   48.2204    1.9437    5.8707 O   0  0  0  0  0  0  0  0  0  0  0  0
   48.2222    1.9410    5.8647 O   0  0  0  0  0  0  0  0  0  0  0  0
   48.2225    1.9405    5.8636 O   0  0  0  0  0  0  0  0  0  0  0  0
   48.2217    1.9417    5.8663 O   0  0  0  0  0  0  0  0  0  0  0  0
   48.2204    1.9438    5.8709 O   0  0  0  0  0  0  0  0  0  0  0  0
   48.2204    1.9439    5.8710 O   0  0  0  0  0  0  0  0  0  0  0  0
   48.2219    1.9414    5.8656 O   0  0  0  0  0  0  0  0  0  0  0  0
   48.2209    1.9430    5.8692 O   0  0  0  0  0  0  0  0  0  0  0  0
   48.2212    1.9425    5.8680 O   0  0  0  0  0  0  0  0  0  0  0  0
   48.2201    1.9442    5.8718 O   0  0  0  0  0  0  0  0  0  0  0  0
   48.2226    1.9403    5.8633 O   0  0  0  0  0  0  0  0  0  0  0  0
   48.0957    2.1418    6.3028 Al  0  0  0  0  0 15  0  0  0  0  0  0
   48.0957    2.1418    6.3028 Al  0  0  0  0  0 15  0  0  0  0  0  0
   48.0957    2.1418    6.3028 Mg  0  0  0  0  0 15  0  0  0  0  0  0
   48.0957    2.1418    6.3028 Mg  0  0  0  0  0 15  0  0  0  0  0  0
   48.0957    2.1418    6.3028 Mg  0  0  0  0  0 15  0  0  0  0  0  0
   47.9690    2.3430    6.7417 H   0  0  0  0  0  0  0  0  0  0  0  0
   47.9707    2.3403    6.7358 H   0  0  0  0  0  0  0  0  0  0  0  0
   47.9694    2.3424    6.7404 H   0  0  0  0  0  0  0  0  0  0  0  0
   47.9696    2.3420    6.7395 H   0  0  0  0  0  0  0  0  0  0  0  0
   47.9711    2.3397    6.7345 H   0  0  0  0  0  0  0  0  0  0  0  0
   47.9710    2.3399    6.7349 H   0  0  0  0  0  0  0  0  0  0  0  0
   47.9692    2.3426    6.7409 H   0  0  0  0  0  0  0  0  0  0  0  0
   47.9689    2.3431    6.7420 H   0  0  0  0  0  0  0  0  0  0  0  0
   47.9697    2.3419    6.7394 H   0  0  0  0  0  0  0  0  0  0  0  0
   47.9710    2.3398    6.7347 H   0  0  0  0  0  0  0  0  0  0  0  0
   47.9710    2.3397    6.7346 H   0  0  0  0  0  0  0  0  0  0  0  0
   47.9695    2.3422    6.7400 H   0  0  0  0  0  0  0  0  0  0  0  0
   47.9705    2.3406    6.7365 H   0  0  0  0  0  0  0  0  0  0  0  0
   47.9702    2.3411    6.7376 H   0  0  0  0  0  0  0  0  0  0  0  0
   47.9713    2.3394    6.7338 H   0  0  0  0  0  0  0  0  0  0  0  0
   47.9688    2.3433    6.7424 H   0  0  0  0  0  0  0  0  0  0  0  0
  3  2  1  0
  4  2  1  0
  5  2  2  0
  6 29  1  0
  7 30  1  0
  8 31  1  0
 11 32  1  0
 12 33  1  0
 13 34  1  0
 14 35  1  0
 15 36  1  0
 16 37  1  0
 17 38  1  0
 18 39  1  0
 19 40  1  0
 20 41  1  0
 21 42  1  0
 22 43  1  0
 23 44  1  0
M  CHG  8   1   2   3  -1   4  -1   6  -1   7  -1   8  -1   9   2  10   2
M  CHG  8  11  -1  12  -1  13  -1  14  -1  15  -1  16  -1  17  -1  18  -1
M  CHG  8  19  -1  20  -1  21  -1  22  -1  23  -1  24   3  25   3  26   2
M  CHG  2  27   2  28   2
M  END
> <Uni-Dock RESULT> 
ENERGY=  -11.345  LOWER_BOUND=    1.929  UPPER_BOUND=    2.760
INTER + INTRA:         -11.345
INTER:                 -11.345
INTRA:                   0.000
UNBOUND:                 0.000

$$$$

     RDKit          3D

 44 19  0  0  0  0  0  0  0  0999 V2000
   42.3575    5.4410   12.1115 Mg  0  0  0  0  0 15  0  0  0  0  0  0
   42.3629    5.4217   12.1013 C   0  0  0  0  0  0  0  0  0  0  0  0
   42.8225    5.3405   13.4100 O   0  0  0  0  0  0  0  0  0  0  0  0
   41.6999    6.5542   11.6266 O   0  0  0  0  0  0  0  0  0  0  0  0
   42.5447    4.4475   11.3082 O   0  0  0  0  0  0  0  0  0  0  0  0
   42.1034    5.7456   11.8084 O   0  0  0  0  0  0  0  0  0  0  0  0
   42.1069    5.7414   11.8126 O   0  0  0  0  0  0  0  0  0  0  0  0
   42.1042    5.7447   11.8094 O   0  0  0  0  0  0  0  0  0  0  0  0
   42.3575    5.4410   12.1115 Mg  0  0  0  0  0 15  0  0  0  0  0  0
   42.3575    5.4410   12.1115 Mg  0  0  0  0  0 15  0  0  0  0  0  0
   42.1047    5.7440   11.8100 O   0  0  0  0  0  0  0  0  0  0  0  0
   42.1076    5.7406   11.8134 O   0  0  0  0  0  0  0  0  0  0  0  0
   42.1074    5.7408   11.8132 O   0  0  0  0  0  0  0  0  0  0  0  0
   42.1039    5.7450   11.8090 O   0  0  0  0  0  0  0  0  0  0  0  0
   42.1033    5.7457   11.8083 O   0  0  0  0  0  0  0  0  0  0  0  0
   42.1048    5.7439   11.8101 O   0  0  0  0  0  0  0  0  0  0  0  0
   42.1075    5.7407   11.8133 O   0  0  0  0  0  0  0  0  0  0  0  0
   42.1075    5.7406   11.8134 O   0  0  0  0  0  0  0  0  0  0  0  0
   42.1044    5.7443   11.8097 O   0  0  0  0  0  0  0  0  0  0  0  0
   42.1065    5.7419   11.8121 O   0  0  0  0  0  0  0  0  0  0  0  0
   42.1058    5.7427   11.8113 O   0  0  0  0  0  0  0  0  0  0  0  0
   42.1080    5.7401   11.8139 O   0  0  0  0  0  0  0  0  0  0  0  0
   42.1031    5.7460   11.8080 O   0  0  0  0  0  0  0  0  0  0  0  0
   42.3575    5.4410   12.1115 Al  0  0  0  0  0 15  0  0  0  0  0  0
   42.3575    5.4410   12.1115 Al  0  0  0  0  0 15  0  0  0  0  0  0
   42.3575    5.4410   12.1115 Mg  0  0  0  0  0 15  0  0  0  0  0  0
   42.3575    5.4410   12.1115 Mg  0  0  0  0  0 15  0  0  0  0  0  0
   42.3575    5.4410   12.1115 Mg  0  0  0  0  0 15  0  0  0  0  0  0
   42.6116    5.1364   12.4146 H   0  0  0  0  0  0  0  0  0  0  0  0
   42.6081    5.1406   12.4105 H   0  0  0  0  0  0  0  0  0  0  0  0
   42.6108    5.1373   12.4137 H   0  0  0  0  0  0  0  0  0  0  0  0
   42.6103    5.1379   12.4131 H   0  0  0  0  0  0  0  0  0  0  0  0
   42.6074    5.1414   12.4097 H   0  0  0  0  0  0  0  0  0  0  0  0
   42.6076    5.1412   12.4099 H   0  0  0  0  0  0  0  0  0  0  0  0
   42.6111    5.1370   12.4141 H   0  0  0  0  0  0  0  0  0  0  0  0
   42.6117    5.1362   12.4148 H   0  0  0  0  0  0  0  0  0  0  0  0
   42.6102    5.1381   12.4130 H   0  0  0  0  0  0  0  0  0  0  0  0
   42.6075    5.1413   12.4098 H   0  0  0  0  0  0  0  0  0  0  0  0
   42.6075    5.1414   12.4097 H   0  0  0  0  0  0  0  0  0  0  0  0
   42.6106    5.1376   12.4134 H   0  0  0  0  0  0  0  0  0  0  0  0
   42.6085    5.1401   12.4110 H   0  0  0  0  0  0  0  0  0  0  0  0
   42.6092    5.1393   12.4118 H   0  0  0  0  0  0  0  0  0  0  0  0
   42.6070    5.1419   12.4092 H   0  0  0  0  0  0  0  0  0  0  0  0
   42.6119    5.1360   12.4151 H   0  0  0  0  0  0  0  0  0  0  0  0
  3  2  1  0
  4  2  1  0
  5  2  2  0
  6 29  1  0
  7 30  1  0
  8 31  1  0
 11 32  1  0
 12 33  1  0
 13 34  1  0
 14 35  1  0
 15 36  1  0
 16 37  1  0
 17 38  1  0
 18 39  1  0
 19 40  1  0
 20 41  1  0
 21 42  1  0
 22 43  1  0
 23 44  1  0
M  CHG  8   1   2   3  -1   4  -1   6  -1   7  -1   8  -1   9   2  10   2
M  CHG  8  11  -1  12  -1  13  -1  14  -1  15  -1  16  -1  17  -1  18  -1
M  CHG  8  19  -1  20  -1  21  -1  22  -1  23  -1  24   3  25   3  26   2
M  CHG  2  27   2  28   2
M  END
> <Uni-Dock RESULT> 
ENERGY=  -11.046  LOWER_BOUND=    7.331  UPPER_BOUND=    8.227
INTER + INTRA:         -11.046
INTER:                 -11.046
INTRA:                   0.000
UNBOUND:                 0.000

$$$$

     RDKit          3D

 44 19  0  0  0  0  0  0  0  0999 V2000
   40.1295   12.2923   15.7209 Mg  0  0  0  0  0 15  0  0  0  0  0  0
   40.1285   12.2998   15.6997 C   0  0  0  0  0  0  0  0  0  0  0  0
   38.8837   12.5147   16.2782 O   0  0  0  0  0  0  0  0  0  0  0  0
   41.1766   11.7159   16.4125 O   0  0  0  0  0  0  0  0  0  0  0  0
   40.3294   12.6388   14.4931 O   0  0  0  0  0  0  0  0  0  0  0  0
   40.5853   12.1229   15.8341 O   0  0  0  0  0  0  0  0  0  0  0  0
   40.5790   12.1252   15.8326 O   0  0  0  0  0  0  0  0  0  0  0  0
   40.5839   12.1234   15.8338 O   0  0  0  0  0  0  0  0  0  0  0  0
   40.1295   12.2923   15.7209 Mg  0  0  0  0  0 15  0  0  0  0  0  0
   40.1295   12.2923   15.7209 Mg  0  0  0  0  0 15  0  0  0  0  0  0
   40.5830   12.1237   15.8336 O   0  0  0  0  0  0  0  0  0  0  0  0
   40.5778   12.1256   15.8323 O   0  0  0  0  0  0  0  0  0  0  0  0
   40.5781   12.1255   15.8324 O   0  0  0  0  0  0  0  0  0  0  0  0
   40.5844   12.1232   15.8339 O   0  0  0  0  0  0  0  0  0  0  0  0
   40.5855   12.1228   15.8342 O   0  0  0  0  0  0  0  0  0  0  0  0
   40.5828   12.1238   15.8335 O   0  0  0  0  0  0  0  0  0  0  0  0
   40.5779   12.1256   15.8323 O   0  0  0  0  0  0  0  0  0  0  0  0
   40.5779   12.1256   15.8323 O   0  0  0  0  0  0  0  0  0  0  0  0
   40.5834   12.1235   15.8337 O   0  0  0  0  0  0  0  0  0  0  0  0
   40.5798   12.1249   15.8328 O   0  0  0  0  0  0  0  0  0  0  0  0
   40.5810   12.1244   15.8331 O   0  0  0  0  0  0  0  0  0  0  0  0
   40.5770   12.1259   15.8321 O   0  0  0  0  0  0  0  0  0  0  0  0
   40.5859   12.1226   15.8343 O   0  0  0  0  0  0  0  0  0  0  0  0
   40.1295   12.2923   15.7209 Al  0  0  0  0  0 15  0  0  0  0  0  0
   40.1295   12.2923   15.7209 Al  0  0  0  0  0 15  0  0  0  0  0  0
   40.1295   12.2923   15.7209 Mg  0  0  0  0  0 15  0  0  0  0  0  0
   40.1295   12.2923   15.7209 Mg  0  0  0  0  0 15  0  0  0  0  0  0
   40.1295   12.2923   15.7209 Mg  0  0  0  0  0 15  0  0  0  0  0  0
   39.6738   12.4617   15.6076 H   0  0  0  0  0  0  0  0  0  0  0  0
   39.6800   12.4594   15.6092 H   0  0  0  0  0  0  0  0  0  0  0  0
   39.6752   12.4612   15.6080 H   0  0  0  0  0  0  0  0  0  0  0  0
   39.6761   12.4608   15.6082 H   0  0  0  0  0  0  0  0  0  0  0  0
   39.6813   12.4589   15.6095 H   0  0  0  0  0  0  0  0  0  0  0  0
   39.6809   12.4590   15.6094 H   0  0  0  0  0  0  0  0  0  0  0  0
   39.6746   12.4614   15.6078 H   0  0  0  0  0  0  0  0  0  0  0  0
   39.6736   12.4618   15.6075 H   0  0  0  0  0  0  0  0  0  0  0  0
   39.6763   12.4608   15.6082 H   0  0  0  0  0  0  0  0  0  0  0  0
   39.6811   12.4590   15.6094 H   0  0  0  0  0  0  0  0  0  0  0  0
   39.6812   12.4589   15.6095 H   0  0  0  0  0  0  0  0  0  0  0  0
   39.6757   12.4610   15.6081 H   0  0  0  0  0  0  0  0  0  0  0  0
   39.6793   12.4596   15.6090 H   0  0  0  0  0  0  0  0  0  0  0  0
   39.6781   12.4601   15.6087 H   0  0  0  0  0  0  0  0  0  0  0  0
   39.6820   12.4586   15.6097 H   0  0  0  0  0  0  0  0  0  0  0  0
   39.6732   12.4619   15.6075 H   0  0  0  0  0  0  0  0  0  0  0  0
  3  2  1  0
  4  2  1  0
  5  2  2  0
  6 29  1  0
  7 30  1  0
  8 31  1  0
 11 32  1  0
 12 33  1  0
 13 34  1  0
 14 35  1  0
 15 36  1  0
 16 37  1  0
 17 38  1  0
 18 39  1  0
 19 40  1  0
 20 41  1  0
 21 42  1  0
 22 43  1  0
 23 44  1  0
M  CHG  8   1   2   3  -1   4  -1   6  -1   7  -1   8  -1   9   2  10   2
M  CHG  8  11  -1  12  -1  13  -1  14  -1  15  -1  16  -1  17  -1  18  -1
M  CHG  8  19  -1  20  -1  21  -1  22  -1  23  -1  24   3  25   3  26   2
M  CHG  2  27   2  28   2
M  END
> <Uni-Dock RESULT> 
ENERGY=  -10.883  LOWER_BOUND=   15.543  UPPER_BOUND=   15.730
INTER + INTRA:         -10.883
INTER:                 -10.883
INTRA:                   0.000
UNBOUND:                 0.000

$$$$
