
     RDKit          3D

 44 19  0  0  0  0  0  0  0  0999 V2000
   38.7926    4.0514    5.4720 Mg  0  0  0  0  0 15  0  0  0  0  0  0
   38.8181    4.0489    5.4676 C   0  0  0  0  0  0  0  0  0  0  0  0
   38.2372    3.0052    6.1576 O   0  0  0  0  0  0  0  0  0  0  0  0
   38.0749    5.1279    5.0509 O   0  0  0  0  0  0  0  0  0  0  0  0
   40.0400    4.0237    5.2117 O   0  0  0  0  0  0  0  0  0  0  0  0
   38.8117    3.6169    5.7000 O   0  0  0  0  0  0  0  0  0  0  0  0
   38.8119    3.6113    5.7029 O   0  0  0  0  0  0  0  0  0  0  0  0
   38.8117    3.6164    5.7003 O   0  0  0  0  0  0  0  0  0  0  0  0
   38.7926    4.0514    5.4720 Mg  0  0  0  0  0 15  0  0  0  0  0  0
   38.7926    4.0514    5.4720 Mg  0  0  0  0  0 15  0  0  0  0  0  0
   38.8119    3.6110    5.7031 O   0  0  0  0  0  0  0  0  0  0  0  0
   38.8120    3.6093    5.7040 O   0  0  0  0  0  0  0  0  0  0  0  0
   38.8118    3.6143    5.7014 O   0  0  0  0  0  0  0  0  0  0  0  0
   38.8119    3.6108    5.7032 O   0  0  0  0  0  0  0  0  0  0  0  0
   38.8119    3.6109    5.7032 O   0  0  0  0  0  0  0  0  0  0  0  0
   38.8120    3.6096    5.7038 O   0  0  0  0  0  0  0  0  0  0  0  0
   38.8118    3.6147    5.7012 O   0  0  0  0  0  0  0  0  0  0  0  0
   38.8118    3.6128    5.7021 O   0  0  0  0  0  0  0  0  0  0  0  0
   38.8118    3.6138    5.7016 O   0  0  0  0  0  0  0  0  0  0  0  0
   38.8118    3.6128    5.7022 O   0  0  0  0  0  0  0  0  0  0  0  0
   38.8118    3.6132    5.7019 O   0  0  0  0  0  0  0  0  0  0  0  0
   38.8120    3.6090    5.7041 O   0  0  0  0  0  0  0  0  0  0  0  0
   38.8119    3.6112    5.7030 O   0  0  0  0  0  0  0  0  0  0  0  0
   38.7926    4.0514    5.4720 Al  0  0  0  0  0 15  0  0  0  0  0  0
   38.7926    4.0514    5.4720 Al  0  0  0  0  0 15  0  0  0  0  0  0
   38.7926    4.0514    5.4720 Mg  0  0  0  0  0 15  0  0  0  0  0  0
   38.7926    4.0514    5.4720 Mg  0  0  0  0  0 15  0  0  0  0  0  0
   38.7926    4.0514    5.4720 Mg  0  0  0  0  0 15  0  0  0  0  0  0
   38.7735    4.4860    5.2439 H   0  0  0  0  0  0  0  0  0  0  0  0
   38.7732    4.4915    5.2410 H   0  0  0  0  0  0  0  0  0  0  0  0
   38.7734    4.4865    5.2437 H   0  0  0  0  0  0  0  0  0  0  0  0
   38.7732    4.4919    5.2408 H   0  0  0  0  0  0  0  0  0  0  0  0
   38.7731    4.4936    5.2399 H   0  0  0  0  0  0  0  0  0  0  0  0
   38.7733    4.4886    5.2425 H   0  0  0  0  0  0  0  0  0  0  0  0
   38.7732    4.4921    5.2407 H   0  0  0  0  0  0  0  0  0  0  0  0
   38.7732    4.4920    5.2408 H   0  0  0  0  0  0  0  0  0  0  0  0
   38.7731    4.4933    5.2401 H   0  0  0  0  0  0  0  0  0  0  0  0
   38.7734    4.4882    5.2428 H   0  0  0  0  0  0  0  0  0  0  0  0
   38.7733    4.4900    5.2418 H   0  0  0  0  0  0  0  0  0  0  0  0
   38.7733    4.4891    5.2423 H   0  0  0  0  0  0  0  0  0  0  0  0
   38.7733    4.4901    5.2417 H   0  0  0  0  0  0  0  0  0  0  0  0
   38.7733    4.4897    5.2420 H   0  0  0  0  0  0  0  0  0  0  0  0
   38.7731    4.4938    5.2398 H   0  0  0  0  0  0  0  0  0  0  0  0
   38.7732    4.4916    5.2410 H   0  0  0  0  0  0  0  0  0  0  0  0
  3  2  1  0
  4  2  1  0
  5  2  2  0
  6 29  1  0
  7 30  1  0
  8 31  1  0
 11 32  1  0
 12 33  1  0
 13 34  1  0
 14 35  1  0
 15 36  1  0
 16 37  1  0
 17 38  1  0
 18 39  1  0
 19 40  1  0
 20 41  1  0
 21 42  1  0
 22 43  1  0
 23 44  1  0
M  CHG  8   1   2   3  -1   4  -1   6  -1   7  -1   8  -1   9   2  10   2
M  CHG  8  11  -1  12  -1  13  -1  14  -1  15  -1  16  -1  17  -1  18  -1
M  CHG  8  19  -1  20  -1  21  -1  22  -1  23  -1  24   3  25   3  26   2
M  CHG  2  27   2  28   2
M  END
> <Uni-Dock RESULT> 
ENERGY=  -14.034  LOWER_BOUND=    0.000  UPPER_BOUND=    0.000
INTER + INTRA:         -14.034
INTER:                 -14.034
INTRA:                   0.000
UNBOUND:                 0.000

$$$$

     RDKit          3D

 44 19  0  0  0  0  0  0  0  0999 V2000
   47.0198    0.6145    7.6832 Mg  0  0  0  0  0 15  0  0  0  0  0  0
   47.0015    0.6239    7.6992 C   0  0  0  0  0  0  0  0  0  0  0  0
   46.9013   -0.7249    7.4281 O   0  0  0  0  0  0  0  0  0  0  0  0
   48.0066    1.3870    7.1535 O   0  0  0  0  0  0  0  0  0  0  0  0
   46.1698    1.1720    8.4522 O   0  0  0  0  0  0  0  0  0  0  0  0
   46.8040    0.1761    7.7320 O   0  0  0  0  0  0  0  0  0  0  0  0
   46.8012    0.1705    7.7326 O   0  0  0  0  0  0  0  0  0  0  0  0
   46.8037    0.1755    7.7320 O   0  0  0  0  0  0  0  0  0  0  0  0
   47.0198    0.6145    7.6832 Mg  0  0  0  0  0 15  0  0  0  0  0  0
   47.0198    0.6145    7.6832 Mg  0  0  0  0  0 15  0  0  0  0  0  0
   46.8010    0.1701    7.7326 O   0  0  0  0  0  0  0  0  0  0  0  0
   46.8002    0.1684    7.7328 O   0  0  0  0  0  0  0  0  0  0  0  0
   46.8027    0.1734    7.7323 O   0  0  0  0  0  0  0  0  0  0  0  0
   46.8010    0.1699    7.7327 O   0  0  0  0  0  0  0  0  0  0  0  0
   46.8010    0.1700    7.7326 O   0  0  0  0  0  0  0  0  0  0  0  0
   46.8003    0.1687    7.7328 O   0  0  0  0  0  0  0  0  0  0  0  0
   46.8029    0.1739    7.7322 O   0  0  0  0  0  0  0  0  0  0  0  0
   46.8020    0.1720    7.7324 O   0  0  0  0  0  0  0  0  0  0  0  0
   46.8025    0.1730    7.7323 O   0  0  0  0  0  0  0  0  0  0  0  0
   46.8019    0.1719    7.7324 O   0  0  0  0  0  0  0  0  0  0  0  0
   46.8021    0.1723    7.7324 O   0  0  0  0  0  0  0  0  0  0  0  0
   46.8001    0.1681    7.7329 O   0  0  0  0  0  0  0  0  0  0  0  0
   46.8012    0.1704    7.7326 O   0  0  0  0  0  0  0  0  0  0  0  0
   47.0198    0.6145    7.6832 Al  0  0  0  0  0 15  0  0  0  0  0  0
   47.0198    0.6145    7.6832 Al  0  0  0  0  0 15  0  0  0  0  0  0
   47.0198    0.6145    7.6832 Mg  0  0  0  0  0 15  0  0  0  0  0  0
   47.0198    0.6145    7.6832 Mg  0  0  0  0  0 15  0  0  0  0  0  0
   47.0198    0.6145    7.6832 Mg  0  0  0  0  0 15  0  0  0  0  0  0
   47.2357    1.0529    7.6345 H   0  0  0  0  0  0  0  0  0  0  0  0
   47.2384    1.0586    7.6339 H   0  0  0  0  0  0  0  0  0  0  0  0
   47.2359    1.0535    7.6344 H   0  0  0  0  0  0  0  0  0  0  0  0
   47.2386    1.0589    7.6338 H   0  0  0  0  0  0  0  0  0  0  0  0
   47.2394    1.0606    7.6336 H   0  0  0  0  0  0  0  0  0  0  0  0
   47.2370    1.0556    7.6342 H   0  0  0  0  0  0  0  0  0  0  0  0
   47.2387    1.0591    7.6338 H   0  0  0  0  0  0  0  0  0  0  0  0
   47.2386    1.0590    7.6338 H   0  0  0  0  0  0  0  0  0  0  0  0
   47.2393    1.0604    7.6337 H   0  0  0  0  0  0  0  0  0  0  0  0
   47.2368    1.0552    7.6342 H   0  0  0  0  0  0  0  0  0  0  0  0
   47.2377    1.0570    7.6340 H   0  0  0  0  0  0  0  0  0  0  0  0
   47.2372    1.0561    7.6341 H   0  0  0  0  0  0  0  0  0  0  0  0
   47.2377    1.0571    7.6340 H   0  0  0  0  0  0  0  0  0  0  0  0
   47.2375    1.0567    7.6341 H   0  0  0  0  0  0  0  0  0  0  0  0
   47.2396    1.0609    7.6336 H   0  0  0  0  0  0  0  0  0  0  0  0
   47.2385    1.0587    7.6339 H   0  0  0  0  0  0  0  0  0  0  0  0
  3  2  1  0
  4  2  1  0
  5  2  2  0
  6 29  1  0
  7 30  1  0
  8 31  1  0
 11 32  1  0
 12 33  1  0
 13 34  1  0
 14 35  1  0
 15 36  1  0
 16 37  1  0
 17 38  1  0
 18 39  1  0
 19 40  1  0
 20 41  1  0
 21 42  1  0
 22 43  1  0
 23 44  1  0
M  CHG  8   1   2   3  -1   4  -1   6  -1   7  -1   8  -1   9   2  10   2
M  CHG  8  11  -1  12  -1  13  -1  14  -1  15  -1  16  -1  17  -1  18  -1
M  CHG  8  19  -1  20  -1  21  -1  22  -1  23  -1  24   3  25   3  26   2
M  CHG  2  27   2  28   2
M  END
> <Uni-Dock RESULT> 
ENERGY=  -13.750  LOWER_BOUND=    8.581  UPPER_BOUND=    9.062
INTER + INTRA:         -13.750
INTER:                 -13.750
INTRA:                   0.000
UNBOUND:                 0.000

$$$$

     RDKit          3D

 44 19  0  0  0  0  0  0  0  0999 V2000
   46.6987    0.5417    7.7969 Mg  0  0  0  0  0 15  0  0  0  0  0  0
   46.6977    0.5158    7.7939 C   0  0  0  0  0  0  0  0  0  0  0  0
   47.7483    1.1382    7.1522 O   0  0  0  0  0  0  0  0  0  0  0  0
   45.7880    1.2351    8.5324 O   0  0  0  0  0  0  0  0  0  0  0  0
   46.5609   -0.7224    7.7092 O   0  0  0  0  0  0  0  0  0  0  0  0
   47.1020    0.5357    7.5167 O   0  0  0  0  0  0  0  0  0  0  0  0
   47.1072    0.5357    7.5132 O   0  0  0  0  0  0  0  0  0  0  0  0
   47.1025    0.5357    7.5164 O   0  0  0  0  0  0  0  0  0  0  0  0
   46.6987    0.5417    7.7969 Mg  0  0  0  0  0 15  0  0  0  0  0  0
   46.6987    0.5417    7.7969 Mg  0  0  0  0  0 15  0  0  0  0  0  0
   47.1075    0.5356    7.5129 O   0  0  0  0  0  0  0  0  0  0  0  0
   47.1091    0.5356    7.5118 O   0  0  0  0  0  0  0  0  0  0  0  0
   47.1045    0.5357    7.5150 O   0  0  0  0  0  0  0  0  0  0  0  0
   47.1077    0.5356    7.5128 O   0  0  0  0  0  0  0  0  0  0  0  0
   47.1076    0.5356    7.5129 O   0  0  0  0  0  0  0  0  0  0  0  0
   47.1088    0.5356    7.5120 O   0  0  0  0  0  0  0  0  0  0  0  0
   47.1040    0.5357    7.5153 O   0  0  0  0  0  0  0  0  0  0  0  0
   47.1058    0.5357    7.5141 O   0  0  0  0  0  0  0  0  0  0  0  0
   47.1049    0.5357    7.5148 O   0  0  0  0  0  0  0  0  0  0  0  0
   47.1059    0.5357    7.5141 O   0  0  0  0  0  0  0  0  0  0  0  0
   47.1054    0.5357    7.5144 O   0  0  0  0  0  0  0  0  0  0  0  0
   47.1093    0.5356    7.5117 O   0  0  0  0  0  0  0  0  0  0  0  0
   47.1073    0.5357    7.5131 O   0  0  0  0  0  0  0  0  0  0  0  0
   46.6987    0.5417    7.7969 Al  0  0  0  0  0 15  0  0  0  0  0  0
   46.6987    0.5417    7.7969 Al  0  0  0  0  0 15  0  0  0  0  0  0
   46.6987    0.5417    7.7969 Mg  0  0  0  0  0 15  0  0  0  0  0  0
   46.6987    0.5417    7.7969 Mg  0  0  0  0  0 15  0  0  0  0  0  0
   46.6987    0.5417    7.7969 Mg  0  0  0  0  0 15  0  0  0  0  0  0
   46.2954    0.5476    8.0771 H   0  0  0  0  0  0  0  0  0  0  0  0
   46.2903    0.5477    8.0807 H   0  0  0  0  0  0  0  0  0  0  0  0
   46.2949    0.5476    8.0775 H   0  0  0  0  0  0  0  0  0  0  0  0
   46.2899    0.5477    8.0810 H   0  0  0  0  0  0  0  0  0  0  0  0
   46.2884    0.5477    8.0820 H   0  0  0  0  0  0  0  0  0  0  0  0
   46.2930    0.5477    8.0789 H   0  0  0  0  0  0  0  0  0  0  0  0
   46.2898    0.5477    8.0811 H   0  0  0  0  0  0  0  0  0  0  0  0
   46.2899    0.5477    8.0810 H   0  0  0  0  0  0  0  0  0  0  0  0
   46.2886    0.5477    8.0819 H   0  0  0  0  0  0  0  0  0  0  0  0
   46.2934    0.5477    8.0786 H   0  0  0  0  0  0  0  0  0  0  0  0
   46.2917    0.5477    8.0798 H   0  0  0  0  0  0  0  0  0  0  0  0
   46.2926    0.5477    8.0791 H   0  0  0  0  0  0  0  0  0  0  0  0
   46.2916    0.5477    8.0798 H   0  0  0  0  0  0  0  0  0  0  0  0
   46.2920    0.5477    8.0795 H   0  0  0  0  0  0  0  0  0  0  0  0
   46.2881    0.5477    8.0822 H   0  0  0  0  0  0  0  0  0  0  0  0
   46.2902    0.5477    8.0808 H   0  0  0  0  0  0  0  0  0  0  0  0
  3  2  1  0
  4  2  1  0
  5  2  2  0
  6 29  1  0
  7 30  1  0
  8 31  1  0
 11 32  1  0
 12 33  1  0
 13 34  1  0
 14 35  1  0
 15 36  1  0
 16 37  1  0
 17 38  1  0
 18 39  1  0
 19 40  1  0
 20 41  1  0
 21 42  1  0
 22 43  1  0
 23 44  1  0
M  CHG  8   1   2   3  -1   4  -1   6  -1   7  -1   8  -1   9   2  10   2
M  CHG  8  11  -1  12  -1  13  -1  14  -1  15  -1  16  -1  17  -1  18  -1
M  CHG  8  19  -1  20  -1  21  -1  22  -1  23  -1  24   3  25   3  26   2
M  CHG  2  27   2  28   2
M  END
> <Uni-Dock RESULT> 
ENERGY=  -12.796  LOWER_BOUND=    8.441  UPPER_BOUND=    9.023
INTER + INTRA:         -12.796
INTER:                 -12.796
INTRA:                   0.000
UNBOUND:                 0.000

$$$$

     RDKit          3D

 44 19  0  0  0  0  0  0  0  0999 V2000
   46.7671    0.6237    7.7367 Mg  0  0  0  0  0 15  0  0  0  0  0  0
   46.7669    0.5980    7.7328 C   0  0  0  0  0  0  0  0  0  0  0  0
   47.7822    1.2792    7.0940 O   0  0  0  0  0  0  0  0  0  0  0  0
   45.8498    1.2580    8.5162 O   0  0  0  0  0  0  0  0  0  0  0  0
   46.6696   -0.6402    7.6040 O   0  0  0  0  0  0  0  0  0  0  0  0
   47.1643    0.6419    7.4484 O   0  0  0  0  0  0  0  0  0  0  0  0
   47.1694    0.6422    7.4447 O   0  0  0  0  0  0  0  0  0  0  0  0
   47.1648    0.6419    7.4481 O   0  0  0  0  0  0  0  0  0  0  0  0
   46.7671    0.6237    7.7367 Mg  0  0  0  0  0 15  0  0  0  0  0  0
   46.7671    0.6237    7.7367 Mg  0  0  0  0  0 15  0  0  0  0  0  0
   47.1697    0.6422    7.4445 O   0  0  0  0  0  0  0  0  0  0  0  0
   47.1712    0.6422    7.4434 O   0  0  0  0  0  0  0  0  0  0  0  0
   47.1667    0.6420    7.4467 O   0  0  0  0  0  0  0  0  0  0  0  0
   47.1699    0.6422    7.4444 O   0  0  0  0  0  0  0  0  0  0  0  0
   47.1698    0.6422    7.4445 O   0  0  0  0  0  0  0  0  0  0  0  0
   47.1710    0.6422    7.4436 O   0  0  0  0  0  0  0  0  0  0  0  0
   47.1663    0.6420    7.4470 O   0  0  0  0  0  0  0  0  0  0  0  0
   47.1680    0.6421    7.4457 O   0  0  0  0  0  0  0  0  0  0  0  0
   47.1671    0.6421    7.4464 O   0  0  0  0  0  0  0  0  0  0  0  0
   47.1681    0.6421    7.4457 O   0  0  0  0  0  0  0  0  0  0  0  0
   47.1677    0.6421    7.4460 O   0  0  0  0  0  0  0  0  0  0  0  0
   47.1715    0.6423    7.4432 O   0  0  0  0  0  0  0  0  0  0  0  0
   47.1695    0.6422    7.4447 O   0  0  0  0  0  0  0  0  0  0  0  0
   46.7671    0.6237    7.7367 Al  0  0  0  0  0 15  0  0  0  0  0  0
   46.7671    0.6237    7.7367 Al  0  0  0  0  0 15  0  0  0  0  0  0
   46.7671    0.6237    7.7367 Mg  0  0  0  0  0 15  0  0  0  0  0  0
   46.7671    0.6237    7.7367 Mg  0  0  0  0  0 15  0  0  0  0  0  0
   46.7671    0.6237    7.7367 Mg  0  0  0  0  0 15  0  0  0  0  0  0
   46.3700    0.6056    8.0251 H   0  0  0  0  0  0  0  0  0  0  0  0
   46.3649    0.6053    8.0287 H   0  0  0  0  0  0  0  0  0  0  0  0
   46.3695    0.6055    8.0254 H   0  0  0  0  0  0  0  0  0  0  0  0
   46.3646    0.6053    8.0290 H   0  0  0  0  0  0  0  0  0  0  0  0
   46.3630    0.6052    8.0301 H   0  0  0  0  0  0  0  0  0  0  0  0
   46.3676    0.6055    8.0268 H   0  0  0  0  0  0  0  0  0  0  0  0
   46.3644    0.6053    8.0291 H   0  0  0  0  0  0  0  0  0  0  0  0
   46.3645    0.6053    8.0290 H   0  0  0  0  0  0  0  0  0  0  0  0
   46.3633    0.6053    8.0299 H   0  0  0  0  0  0  0  0  0  0  0  0
   46.3680    0.6055    8.0265 H   0  0  0  0  0  0  0  0  0  0  0  0
   46.3663    0.6054    8.0278 H   0  0  0  0  0  0  0  0  0  0  0  0
   46.3672    0.6054    8.0271 H   0  0  0  0  0  0  0  0  0  0  0  0
   46.3662    0.6054    8.0278 H   0  0  0  0  0  0  0  0  0  0  0  0
   46.3666    0.6054    8.0275 H   0  0  0  0  0  0  0  0  0  0  0  0
   46.3628    0.6052    8.0303 H   0  0  0  0  0  0  0  0  0  0  0  0
   46.3648    0.6053    8.0288 H   0  0  0  0  0  0  0  0  0  0  0  0
  3  2  1  0
  4  2  1  0
  5  2  2  0
  6 29  1  0
  7 30  1  0
  8 31  1  0
 11 32  1  0
 12 33  1  0
 13 34  1  0
 14 35  1  0
 15 36  1  0
 16 37  1  0
 17 38  1  0
 18 39  1  0
 19 40  1  0
 20 41  1  0
 21 42  1  0
 22 43  1  0
 23 44  1  0
M  CHG  8   1   2   3  -1   4  -1   6  -1   7  -1   8  -1   9   2  10   2
M  CHG  8  11  -1  12  -1  13  -1  14  -1  15  -1  16  -1  17  -1  18  -1
M  CHG  8  19  -1  20  -1  21  -1  22  -1  23  -1  24   3  25   3  26   2
M  CHG  2  27   2  28   2
M  END
> <Uni-Dock RESULT> 
ENERGY=  -12.673  LOWER_BOUND=    8.440  UPPER_BOUND=    9.033
INTER + INTRA:         -12.673
INTER:                 -12.673
INTRA:                   0.000
UNBOUND:                 0.000

$$$$

     RDKit          3D

 44 19  0  0  0  0  0  0  0  0999 V2000
   47.0856    0.6315    7.5327 Mg  0  0  0  0  0 15  0  0  0  0  0  0
   47.0731    0.6494    7.5468 C   0  0  0  0  0  0  0  0  0  0  0  0
   48.0828    1.1363    6.7428 O   0  0  0  0  0  0  0  0  0  0  0  0
   46.7709   -0.6915    7.5768 O   0  0  0  0  0  0  0  0  0  0  0  0
   46.4156    1.4317    8.2644 O   0  0  0  0  0  0  0  0  0  0  0  0
   47.3604    0.9966    7.3530 O   0  0  0  0  0  0  0  0  0  0  0  0
   47.3640    1.0013    7.3507 O   0  0  0  0  0  0  0  0  0  0  0  0
   47.3608    0.9971    7.3528 O   0  0  0  0  0  0  0  0  0  0  0  0
   47.0856    0.6315    7.5327 Mg  0  0  0  0  0 15  0  0  0  0  0  0
   47.0856    0.6315    7.5327 Mg  0  0  0  0  0 15  0  0  0  0  0  0
   47.3642    1.0016    7.3505 O   0  0  0  0  0  0  0  0  0  0  0  0
   47.3653    1.0030    7.3498 O   0  0  0  0  0  0  0  0  0  0  0  0
   47.3621    0.9988    7.3519 O   0  0  0  0  0  0  0  0  0  0  0  0
   47.3643    1.0017    7.3505 O   0  0  0  0  0  0  0  0  0  0  0  0
   47.3643    1.0017    7.3505 O   0  0  0  0  0  0  0  0  0  0  0  0
   47.3651    1.0028    7.3499 O   0  0  0  0  0  0  0  0  0  0  0  0
   47.3618    0.9985    7.3521 O   0  0  0  0  0  0  0  0  0  0  0  0
   47.3630    1.0000    7.3513 O   0  0  0  0  0  0  0  0  0  0  0  0
   47.3624    0.9992    7.3517 O   0  0  0  0  0  0  0  0  0  0  0  0
   47.3631    1.0001    7.3513 O   0  0  0  0  0  0  0  0  0  0  0  0
   47.3628    0.9997    7.3514 O   0  0  0  0  0  0  0  0  0  0  0  0
   47.3654    1.0032    7.3497 O   0  0  0  0  0  0  0  0  0  0  0  0
   47.3640    1.0014    7.3506 O   0  0  0  0  0  0  0  0  0  0  0  0
   47.0856    0.6315    7.5327 Al  0  0  0  0  0 15  0  0  0  0  0  0
   47.0856    0.6315    7.5327 Al  0  0  0  0  0 15  0  0  0  0  0  0
   47.0856    0.6315    7.5327 Mg  0  0  0  0  0 15  0  0  0  0  0  0
   47.0856    0.6315    7.5327 Mg  0  0  0  0  0 15  0  0  0  0  0  0
   47.0856    0.6315    7.5327 Mg  0  0  0  0  0 15  0  0  0  0  0  0
   46.8108    0.2663    7.7125 H   0  0  0  0  0  0  0  0  0  0  0  0
   46.8072    0.2616    7.7148 H   0  0  0  0  0  0  0  0  0  0  0  0
   46.8104    0.2659    7.7127 H   0  0  0  0  0  0  0  0  0  0  0  0
   46.8070    0.2613    7.7149 H   0  0  0  0  0  0  0  0  0  0  0  0
   46.8059    0.2599    7.7156 H   0  0  0  0  0  0  0  0  0  0  0  0
   46.8091    0.2641    7.7136 H   0  0  0  0  0  0  0  0  0  0  0  0
   46.8069    0.2612    7.7150 H   0  0  0  0  0  0  0  0  0  0  0  0
   46.8069    0.2613    7.7150 H   0  0  0  0  0  0  0  0  0  0  0  0
   46.8061    0.2602    7.7155 H   0  0  0  0  0  0  0  0  0  0  0  0
   46.8094    0.2645    7.7134 H   0  0  0  0  0  0  0  0  0  0  0  0
   46.8082    0.2629    7.7141 H   0  0  0  0  0  0  0  0  0  0  0  0
   46.8088    0.2637    7.7137 H   0  0  0  0  0  0  0  0  0  0  0  0
   46.8081    0.2628    7.7142 H   0  0  0  0  0  0  0  0  0  0  0  0
   46.8084    0.2632    7.7140 H   0  0  0  0  0  0  0  0  0  0  0  0
   46.8058    0.2597    7.7157 H   0  0  0  0  0  0  0  0  0  0  0  0
   46.8072    0.2616    7.7148 H   0  0  0  0  0  0  0  0  0  0  0  0
  3  2  1  0
  4  2  1  0
  5  2  2  0
  6 29  1  0
  7 30  1  0
  8 31  1  0
 11 32  1  0
 12 33  1  0
 13 34  1  0
 14 35  1  0
 15 36  1  0
 16 37  1  0
 17 38  1  0
 18 39  1  0
 19 40  1  0
 20 41  1  0
 21 42  1  0
 22 43  1  0
 23 44  1  0
M  CHG  8   1   2   3  -1   4  -1   6  -1   7  -1   8  -1   9   2  10   2
M  CHG  8  11  -1  12  -1  13  -1  14  -1  15  -1  16  -1  17  -1  18  -1
M  CHG  8  19  -1  20  -1  21  -1  22  -1  23  -1  24   3  25   3  26   2
M  CHG  2  27   2  28   2
M  END
> <Uni-Dock RESULT> 
ENERGY=  -12.096  LOWER_BOUND=    8.644  UPPER_BOUND=    9.176
INTER + INTRA:         -12.096
INTER:                 -12.096
INTRA:                   0.000
UNBOUND:                 0.000

$$$$

     RDKit          3D

 44 19  0  0  0  0  0  0  0  0999 V2000
   47.9180    1.9322    6.8926 Mg  0  0  0  0  0 15  0  0  0  0  0  0
   47.9311    1.9278    6.8705 C   0  0  0  0  0  0  0  0  0  0  0  0
   47.7327    0.8159    7.6625 O   0  0  0  0  0  0  0  0  0  0  0  0
   47.4609    3.1635    7.2476 O   0  0  0  0  0  0  0  0  0  0  0  0
   48.5474    1.8215    5.7898 O   0  0  0  0  0  0  0  0  0  0  0  0
   47.9655    1.4530    6.9890 O   0  0  0  0  0  0  0  0  0  0  0  0
   47.9661    1.4468    6.9903 O   0  0  0  0  0  0  0  0  0  0  0  0
   47.9655    1.4524    6.9892 O   0  0  0  0  0  0  0  0  0  0  0  0
   47.9180    1.9322    6.8926 Mg  0  0  0  0  0 15  0  0  0  0  0  0
   47.9180    1.9322    6.8926 Mg  0  0  0  0  0 15  0  0  0  0  0  0
   47.9661    1.4464    6.9904 O   0  0  0  0  0  0  0  0  0  0  0  0
   47.9663    1.4446    6.9907 O   0  0  0  0  0  0  0  0  0  0  0  0
   47.9657    1.4501    6.9896 O   0  0  0  0  0  0  0  0  0  0  0  0
   47.9661    1.4463    6.9904 O   0  0  0  0  0  0  0  0  0  0  0  0
   47.9661    1.4464    6.9904 O   0  0  0  0  0  0  0  0  0  0  0  0
   47.9663    1.4449    6.9907 O   0  0  0  0  0  0  0  0  0  0  0  0
   47.9657    1.4505    6.9895 O   0  0  0  0  0  0  0  0  0  0  0  0
   47.9659    1.4485    6.9899 O   0  0  0  0  0  0  0  0  0  0  0  0
   47.9658    1.4496    6.9897 O   0  0  0  0  0  0  0  0  0  0  0  0
   47.9659    1.4484    6.9900 O   0  0  0  0  0  0  0  0  0  0  0  0
   47.9659    1.4489    6.9899 O   0  0  0  0  0  0  0  0  0  0  0  0
   47.9663    1.4443    6.9908 O   0  0  0  0  0  0  0  0  0  0  0  0
   47.9661    1.4467    6.9903 O   0  0  0  0  0  0  0  0  0  0  0  0
   47.9180    1.9322    6.8926 Al  0  0  0  0  0 15  0  0  0  0  0  0
   47.9180    1.9322    6.8926 Al  0  0  0  0  0 15  0  0  0  0  0  0
   47.9180    1.9322    6.8926 Mg  0  0  0  0  0 15  0  0  0  0  0  0
   47.9180    1.9322    6.8926 Mg  0  0  0  0  0 15  0  0  0  0  0  0
   47.9180    1.9322    6.8926 Mg  0  0  0  0  0 15  0  0  0  0  0  0
   47.8706    2.4114    6.7961 H   0  0  0  0  0  0  0  0  0  0  0  0
   47.8700    2.4175    6.7949 H   0  0  0  0  0  0  0  0  0  0  0  0
   47.8706    2.4120    6.7960 H   0  0  0  0  0  0  0  0  0  0  0  0
   47.8700    2.4179    6.7948 H   0  0  0  0  0  0  0  0  0  0  0  0
   47.8698    2.4198    6.7945 H   0  0  0  0  0  0  0  0  0  0  0  0
   47.8704    2.4143    6.7956 H   0  0  0  0  0  0  0  0  0  0  0  0
   47.8700    2.4181    6.7948 H   0  0  0  0  0  0  0  0  0  0  0  0
   47.8700    2.4180    6.7948 H   0  0  0  0  0  0  0  0  0  0  0  0
   47.8698    2.4195    6.7945 H   0  0  0  0  0  0  0  0  0  0  0  0
   47.8704    2.4138    6.7957 H   0  0  0  0  0  0  0  0  0  0  0  0
   47.8702    2.4159    6.7952 H   0  0  0  0  0  0  0  0  0  0  0  0
   47.8703    2.4148    6.7955 H   0  0  0  0  0  0  0  0  0  0  0  0
   47.8702    2.4160    6.7952 H   0  0  0  0  0  0  0  0  0  0  0  0
   47.8702    2.4155    6.7953 H   0  0  0  0  0  0  0  0  0  0  0  0
   47.8698    2.4201    6.7944 H   0  0  0  0  0  0  0  0  0  0  0  0
   47.8700    2.4176    6.7949 H   0  0  0  0  0  0  0  0  0  0  0  0
  3  2  1  0
  4  2  1  0
  5  2  2  0
  6 29  1  0
  7 30  1  0
  8 31  1  0
 11 32  1  0
 12 33  1  0
 13 34  1  0
 14 35  1  0
 15 36  1  0
 16 37  1  0
 17 38  1  0
 18 39  1  0
 19 40  1  0
 20 41  1  0
 21 42  1  0
 22 43  1  0
 23 44  1  0
M  CHG  8   1   2   3  -1   4  -1   6  -1   7  -1   8  -1   9   2  10   2
M  CHG  8  11  -1  12  -1  13  -1  14  -1  15  -1  16  -1  17  -1  18  -1
M  CHG  8  19  -1  20  -1  21  -1  22  -1  23  -1  24   3  25   3  26   2
M  CHG  2  27   2  28   2
M  END
> <Uni-Dock RESULT> 
ENERGY=  -11.830  LOWER_BOUND=    9.042  UPPER_BOUND=    9.490
INTER + INTRA:         -11.830
INTER:                 -11.830
INTRA:                   0.000
UNBOUND:                 0.000

$$$$

     RDKit          3D

 44 19  0  0  0  0  0  0  0  0999 V2000
   42.3447    5.4798   12.1430 Mg  0  0  0  0  0 15  0  0  0  0  0  0
   42.3469    5.4609   12.1253 C   0  0  0  0  0  0  0  0  0  0  0  0
   41.6880    6.5920   11.6901 O   0  0  0  0  0  0  0  0  0  0  0  0
   42.8422    5.3735   13.4049 O   0  0  0  0  0  0  0  0  0  0  0  0
   42.5018    4.4931   11.3517 O   0  0  0  0  0  0  0  0  0  0  0  0
   42.1081    5.7405   11.8006 O   0  0  0  0  0  0  0  0  0  0  0  0
   42.1051    5.7439   11.7962 O   0  0  0  0  0  0  0  0  0  0  0  0
   42.1078    5.7409   11.8002 O   0  0  0  0  0  0  0  0  0  0  0  0
   42.3447    5.4798   12.1430 Mg  0  0  0  0  0 15  0  0  0  0  0  0
   42.3447    5.4798   12.1430 Mg  0  0  0  0  0 15  0  0  0  0  0  0
   42.1049    5.7441   11.7959 O   0  0  0  0  0  0  0  0  0  0  0  0
   42.1040    5.7451   11.7946 O   0  0  0  0  0  0  0  0  0  0  0  0
   42.1067    5.7421   11.7985 O   0  0  0  0  0  0  0  0  0  0  0  0
   42.1048    5.7442   11.7958 O   0  0  0  0  0  0  0  0  0  0  0  0
   42.1048    5.7442   11.7959 O   0  0  0  0  0  0  0  0  0  0  0  0
   42.1041    5.7450   11.7948 O   0  0  0  0  0  0  0  0  0  0  0  0
   42.1069    5.7419   11.7989 O   0  0  0  0  0  0  0  0  0  0  0  0
   42.1059    5.7430   11.7974 O   0  0  0  0  0  0  0  0  0  0  0  0
   42.1064    5.7424   11.7982 O   0  0  0  0  0  0  0  0  0  0  0  0
   42.1058    5.7430   11.7973 O   0  0  0  0  0  0  0  0  0  0  0  0
   42.1061    5.7428   11.7977 O   0  0  0  0  0  0  0  0  0  0  0  0
   42.1038    5.7453   11.7944 O   0  0  0  0  0  0  0  0  0  0  0  0
   42.1050    5.7439   11.7962 O   0  0  0  0  0  0  0  0  0  0  0  0
   42.3447    5.4798   12.1430 Al  0  0  0  0  0 15  0  0  0  0  0  0
   42.3447    5.4798   12.1430 Al  0  0  0  0  0 15  0  0  0  0  0  0
   42.3447    5.4798   12.1430 Mg  0  0  0  0  0 15  0  0  0  0  0  0
   42.3447    5.4798   12.1430 Mg  0  0  0  0  0 15  0  0  0  0  0  0
   42.3447    5.4798   12.1430 Mg  0  0  0  0  0 15  0  0  0  0  0  0
   42.5813    5.2191   12.4854 H   0  0  0  0  0  0  0  0  0  0  0  0
   42.5843    5.2158   12.4898 H   0  0  0  0  0  0  0  0  0  0  0  0
   42.5816    5.2188   12.4858 H   0  0  0  0  0  0  0  0  0  0  0  0
   42.5845    5.2156   12.4901 H   0  0  0  0  0  0  0  0  0  0  0  0
   42.5855    5.2146   12.4914 H   0  0  0  0  0  0  0  0  0  0  0  0
   42.5828    5.2175   12.4875 H   0  0  0  0  0  0  0  0  0  0  0  0
   42.5846    5.2155   12.4902 H   0  0  0  0  0  0  0  0  0  0  0  0
   42.5846    5.2155   12.4901 H   0  0  0  0  0  0  0  0  0  0  0  0
   42.5853    5.2147   12.4912 H   0  0  0  0  0  0  0  0  0  0  0  0
   42.5825    5.2178   12.4871 H   0  0  0  0  0  0  0  0  0  0  0  0
   42.5835    5.2167   12.4886 H   0  0  0  0  0  0  0  0  0  0  0  0
   42.5830    5.2173   12.4878 H   0  0  0  0  0  0  0  0  0  0  0  0
   42.5836    5.2166   12.4887 H   0  0  0  0  0  0  0  0  0  0  0  0
   42.5833    5.2169   12.4883 H   0  0  0  0  0  0  0  0  0  0  0  0
   42.5856    5.2144   12.4916 H   0  0  0  0  0  0  0  0  0  0  0  0
   42.5844    5.2157   12.4899 H   0  0  0  0  0  0  0  0  0  0  0  0
  3  2  1  0
  4  2  1  0
  5  2  2  0
  6 29  1  0
  7 30  1  0
  8 31  1  0
 11 32  1  0
 12 33  1  0
 13 34  1  0
 14 35  1  0
 15 36  1  0
 16 37  1  0
 17 38  1  0
 18 39  1  0
 19 40  1  0
 20 41  1  0
 21 42  1  0
 22 43  1  0
 23 44  1  0
M  CHG  8   1   2   3  -1   4  -1   6  -1   7  -1   8  -1   9   2  10   2
M  CHG  8  11  -1  12  -1  13  -1  14  -1  15  -1  16  -1  17  -1  18  -1
M  CHG  8  19  -1  20  -1  21  -1  22  -1  23  -1  24   3  25   3  26   2
M  CHG  2  27   2  28   2
M  END
> <Uni-Dock RESULT> 
ENERGY=  -11.040  LOWER_BOUND=    7.352  UPPER_BOUND=    7.475
INTER + INTRA:         -11.040
INTER:                 -11.040
INTRA:                   0.000
UNBOUND:                 0.000

$$$$
