
     RDKit          3D

 44 19  0  0  0  0  0  0  0  0999 V2000
   39.0166    3.9762    5.6443 Mg  0  0  0  0  0 15  0  0  0  0  0  0
   39.0195    3.9587    5.6016 C   0  0  0  0  0  0  0  0  0  0  0  0
   38.6985    3.0734    6.5900 O   0  0  0  0  0  0  0  0  0  0  0  0
   40.3247    4.2367    5.1841 O   0  0  0  0  0  0  0  0  0  0  0  0
   38.0838    4.5820    5.0090 O   0  0  0  0  0  0  0  0  0  0  0  0
   38.7195    3.5764    5.6639 O   0  0  0  0  0  0  0  0  0  0  0  0
   38.7234    3.5816    5.6637 O   0  0  0  0  0  0  0  0  0  0  0  0
   38.7229    3.5809    5.6637 O   0  0  0  0  0  0  0  0  0  0  0  0
   39.0166    3.9762    5.6443 Mg  0  0  0  0  0 15  0  0  0  0  0  0
   39.0166    3.9762    5.6443 Mg  0  0  0  0  0 15  0  0  0  0  0  0
   38.7233    3.5815    5.6637 O   0  0  0  0  0  0  0  0  0  0  0  0
   38.7205    3.5778    5.6639 O   0  0  0  0  0  0  0  0  0  0  0  0
   38.7196    3.5766    5.6639 O   0  0  0  0  0  0  0  0  0  0  0  0
   38.7207    3.5779    5.6638 O   0  0  0  0  0  0  0  0  0  0  0  0
   38.7188    3.5754    5.6640 O   0  0  0  0  0  0  0  0  0  0  0  0
   38.7226    3.5806    5.6637 O   0  0  0  0  0  0  0  0  0  0  0  0
   38.7231    3.5812    5.6637 O   0  0  0  0  0  0  0  0  0  0  0  0
   38.7224    3.5803    5.6637 O   0  0  0  0  0  0  0  0  0  0  0  0
   38.7206    3.5779    5.6639 O   0  0  0  0  0  0  0  0  0  0  0  0
   38.7216    3.5791    5.6638 O   0  0  0  0  0  0  0  0  0  0  0  0
   38.7199    3.5769    5.6639 O   0  0  0  0  0  0  0  0  0  0  0  0
   38.7206    3.5779    5.6639 O   0  0  0  0  0  0  0  0  0  0  0  0
   38.7216    3.5791    5.6638 O   0  0  0  0  0  0  0  0  0  0  0  0
   39.0166    3.9762    5.6443 Al  0  0  0  0  0 15  0  0  0  0  0  0
   39.0166    3.9762    5.6443 Al  0  0  0  0  0 15  0  0  0  0  0  0
   39.0166    3.9762    5.6443 Mg  0  0  0  0  0 15  0  0  0  0  0  0
   39.0166    3.9762    5.6443 Mg  0  0  0  0  0 15  0  0  0  0  0  0
   39.0166    3.9762    5.6443 Mg  0  0  0  0  0 15  0  0  0  0  0  0
   39.3137    4.3761    5.6246 H   0  0  0  0  0  0  0  0  0  0  0  0
   39.3098    4.3709    5.6248 H   0  0  0  0  0  0  0  0  0  0  0  0
   39.3103    4.3716    5.6248 H   0  0  0  0  0  0  0  0  0  0  0  0
   39.3099    4.3710    5.6248 H   0  0  0  0  0  0  0  0  0  0  0  0
   39.3126    4.3747    5.6246 H   0  0  0  0  0  0  0  0  0  0  0  0
   39.3135    4.3759    5.6246 H   0  0  0  0  0  0  0  0  0  0  0  0
   39.3125    4.3746    5.6247 H   0  0  0  0  0  0  0  0  0  0  0  0
   39.3144    4.3771    5.6245 H   0  0  0  0  0  0  0  0  0  0  0  0
   39.3106    4.3719    5.6248 H   0  0  0  0  0  0  0  0  0  0  0  0
   39.3101    4.3713    5.6248 H   0  0  0  0  0  0  0  0  0  0  0  0
   39.3108    4.3722    5.6248 H   0  0  0  0  0  0  0  0  0  0  0  0
   39.3126    4.3746    5.6247 H   0  0  0  0  0  0  0  0  0  0  0  0
   39.3116    4.3734    5.6247 H   0  0  0  0  0  0  0  0  0  0  0  0
   39.3133    4.3756    5.6246 H   0  0  0  0  0  0  0  0  0  0  0  0
   39.3126    4.3746    5.6247 H   0  0  0  0  0  0  0  0  0  0  0  0
   39.3116    4.3734    5.6247 H   0  0  0  0  0  0  0  0  0  0  0  0
  3  2  1  0
  4  2  1  0
  5  2  2  0
  6 29  1  0
  7 30  1  0
  8 31  1  0
 11 32  1  0
 12 33  1  0
 13 34  1  0
 14 35  1  0
 15 36  1  0
 16 37  1  0
 17 38  1  0
 18 39  1  0
 19 40  1  0
 20 41  1  0
 21 42  1  0
 22 43  1  0
 23 44  1  0
M  CHG  8   1   2   3  -1   4  -1   6  -1   7  -1   8  -1   9   2  10   2
M  CHG  8  11  -1  12  -1  13  -1  14  -1  15  -1  16  -1  17  -1  18  -1
M  CHG  8  19  -1  20  -1  21  -1  22  -1  23  -1  24   3  25   3  26   2
M  CHG  2  27   2  28   2
M  END
> <Uni-Dock RESULT> 
ENERGY=  -13.638  LOWER_BOUND=    0.000  UPPER_BOUND=    0.000
INTER + INTRA:         -13.638
INTER:                 -13.638
INTRA:                   0.000
UNBOUND:                 0.000

$$$$

     RDKit          3D

 44 19  0  0  0  0  0  0  0  0999 V2000
   46.6073    0.5946    7.7061 Mg  0  0  0  0  0 15  0  0  0  0  0  0
   46.6335    0.6048    7.7427 C   0  0  0  0  0  0  0  0  0  0  0  0
   46.4486   -0.7241    7.4908 O   0  0  0  0  0  0  0  0  0  0  0  0
   45.8121    1.3724    8.5742 O   0  0  0  0  0  0  0  0  0  0  0  0
   47.6119    1.2026    7.1945 O   0  0  0  0  0  0  0  0  0  0  0  0
   46.8976    0.1923    7.7544 O   0  0  0  0  0  0  0  0  0  0  0  0
   46.8938    0.1976    7.7538 O   0  0  0  0  0  0  0  0  0  0  0  0
   46.8944    0.1968    7.7539 O   0  0  0  0  0  0  0  0  0  0  0  0
   46.6073    0.5946    7.7061 Mg  0  0  0  0  0 15  0  0  0  0  0  0
   46.6073    0.5946    7.7061 Mg  0  0  0  0  0 15  0  0  0  0  0  0
   46.8939    0.1974    7.7538 O   0  0  0  0  0  0  0  0  0  0  0  0
   46.8966    0.1937    7.7543 O   0  0  0  0  0  0  0  0  0  0  0  0
   46.8975    0.1925    7.7544 O   0  0  0  0  0  0  0  0  0  0  0  0
   46.8965    0.1939    7.7542 O   0  0  0  0  0  0  0  0  0  0  0  0
   46.8984    0.1913    7.7545 O   0  0  0  0  0  0  0  0  0  0  0  0
   46.8946    0.1965    7.7539 O   0  0  0  0  0  0  0  0  0  0  0  0
   46.8941    0.1972    7.7538 O   0  0  0  0  0  0  0  0  0  0  0  0
   46.8948    0.1962    7.7540 O   0  0  0  0  0  0  0  0  0  0  0  0
   46.8966    0.1938    7.7542 O   0  0  0  0  0  0  0  0  0  0  0  0
   46.8956    0.1951    7.7541 O   0  0  0  0  0  0  0  0  0  0  0  0
   46.8973    0.1928    7.7544 O   0  0  0  0  0  0  0  0  0  0  0  0
   46.8966    0.1938    7.7542 O   0  0  0  0  0  0  0  0  0  0  0  0
   46.8956    0.1951    7.7541 O   0  0  0  0  0  0  0  0  0  0  0  0
   46.6073    0.5946    7.7061 Al  0  0  0  0  0 15  0  0  0  0  0  0
   46.6073    0.5946    7.7061 Al  0  0  0  0  0 15  0  0  0  0  0  0
   46.6073    0.5946    7.7061 Mg  0  0  0  0  0 15  0  0  0  0  0  0
   46.6073    0.5946    7.7061 Mg  0  0  0  0  0 15  0  0  0  0  0  0
   46.6073    0.5946    7.7061 Mg  0  0  0  0  0 15  0  0  0  0  0  0
   46.3169    0.9970    7.6577 H   0  0  0  0  0  0  0  0  0  0  0  0
   46.3207    0.9917    7.6583 H   0  0  0  0  0  0  0  0  0  0  0  0
   46.3202    0.9924    7.6582 H   0  0  0  0  0  0  0  0  0  0  0  0
   46.3206    0.9919    7.6583 H   0  0  0  0  0  0  0  0  0  0  0  0
   46.3179    0.9956    7.6579 H   0  0  0  0  0  0  0  0  0  0  0  0
   46.3170    0.9968    7.6577 H   0  0  0  0  0  0  0  0  0  0  0  0
   46.3180    0.9954    7.6579 H   0  0  0  0  0  0  0  0  0  0  0  0
   46.3161    0.9980    7.6576 H   0  0  0  0  0  0  0  0  0  0  0  0
   46.3199    0.9928    7.6582 H   0  0  0  0  0  0  0  0  0  0  0  0
   46.3204    0.9921    7.6583 H   0  0  0  0  0  0  0  0  0  0  0  0
   46.3197    0.9931    7.6582 H   0  0  0  0  0  0  0  0  0  0  0  0
   46.3180    0.9955    7.6579 H   0  0  0  0  0  0  0  0  0  0  0  0
   46.3189    0.9942    7.6580 H   0  0  0  0  0  0  0  0  0  0  0  0
   46.3172    0.9965    7.6578 H   0  0  0  0  0  0  0  0  0  0  0  0
   46.3180    0.9955    7.6579 H   0  0  0  0  0  0  0  0  0  0  0  0
   46.3189    0.9942    7.6580 H   0  0  0  0  0  0  0  0  0  0  0  0
  3  2  1  0
  4  2  1  0
  5  2  2  0
  6 29  1  0
  7 30  1  0
  8 31  1  0
 11 32  1  0
 12 33  1  0
 13 34  1  0
 14 35  1  0
 15 36  1  0
 16 37  1  0
 17 38  1  0
 18 39  1  0
 19 40  1  0
 20 41  1  0
 21 42  1  0
 22 43  1  0
 23 44  1  0
M  CHG  8   1   2   3  -1   4  -1   6  -1   7  -1   8  -1   9   2  10   2
M  CHG  8  11  -1  12  -1  13  -1  14  -1  15  -1  16  -1  17  -1  18  -1
M  CHG  8  19  -1  20  -1  21  -1  22  -1  23  -1  24   3  25   3  26   2
M  CHG  2  27   2  28   2
M  END
> <Uni-Dock RESULT> 
ENERGY=  -13.483  LOWER_BOUND=    8.241  UPPER_BOUND=    8.894
INTER + INTRA:         -13.483
INTER:                 -13.483
INTRA:                   0.000
UNBOUND:                 0.000

$$$$

     RDKit          3D

 44 19  0  0  0  0  0  0  0  0999 V2000
   47.5628    1.2858    7.0888 Mg  0  0  0  0  0 15  0  0  0  0  0  0
   47.5801    1.2769    7.1307 C   0  0  0  0  0  0  0  0  0  0  0  0
   48.4963    1.5258    6.1497 O   0  0  0  0  0  0  0  0  0  0  0  0
   47.0982    0.0053    7.4566 O   0  0  0  0  0  0  0  0  0  0  0  0
   47.1223    2.2526    7.8042 O   0  0  0  0  0  0  0  0  0  0  0  0
   48.0053    1.5153    7.0824 O   0  0  0  0  0  0  0  0  0  0  0  0
   47.9996    1.5123    7.0825 O   0  0  0  0  0  0  0  0  0  0  0  0
   48.0004    1.5127    7.0825 O   0  0  0  0  0  0  0  0  0  0  0  0
   47.5628    1.2858    7.0888 Mg  0  0  0  0  0 15  0  0  0  0  0  0
   47.5628    1.2858    7.0888 Mg  0  0  0  0  0 15  0  0  0  0  0  0
   47.9997    1.5124    7.0825 O   0  0  0  0  0  0  0  0  0  0  0  0
   48.0038    1.5145    7.0824 O   0  0  0  0  0  0  0  0  0  0  0  0
   48.0052    1.5152    7.0824 O   0  0  0  0  0  0  0  0  0  0  0  0
   48.0036    1.5144    7.0824 O   0  0  0  0  0  0  0  0  0  0  0  0
   48.0065    1.5159    7.0824 O   0  0  0  0  0  0  0  0  0  0  0  0
   48.0007    1.5129    7.0825 O   0  0  0  0  0  0  0  0  0  0  0  0
   48.0000    1.5125    7.0825 O   0  0  0  0  0  0  0  0  0  0  0  0
   48.0011    1.5131    7.0824 O   0  0  0  0  0  0  0  0  0  0  0  0
   48.0037    1.5145    7.0824 O   0  0  0  0  0  0  0  0  0  0  0  0
   48.0023    1.5137    7.0824 O   0  0  0  0  0  0  0  0  0  0  0  0
   48.0048    1.5150    7.0824 O   0  0  0  0  0  0  0  0  0  0  0  0
   48.0037    1.5145    7.0824 O   0  0  0  0  0  0  0  0  0  0  0  0
   48.0023    1.5137    7.0824 O   0  0  0  0  0  0  0  0  0  0  0  0
   47.5628    1.2858    7.0888 Al  0  0  0  0  0 15  0  0  0  0  0  0
   47.5628    1.2858    7.0888 Al  0  0  0  0  0 15  0  0  0  0  0  0
   47.5628    1.2858    7.0888 Mg  0  0  0  0  0 15  0  0  0  0  0  0
   47.5628    1.2858    7.0888 Mg  0  0  0  0  0 15  0  0  0  0  0  0
   47.5628    1.2858    7.0888 Mg  0  0  0  0  0 15  0  0  0  0  0  0
   47.1204    1.0563    7.0951 H   0  0  0  0  0  0  0  0  0  0  0  0
   47.1261    1.0593    7.0950 H   0  0  0  0  0  0  0  0  0  0  0  0
   47.1253    1.0589    7.0951 H   0  0  0  0  0  0  0  0  0  0  0  0
   47.1260    1.0592    7.0950 H   0  0  0  0  0  0  0  0  0  0  0  0
   47.1219    1.0571    7.0951 H   0  0  0  0  0  0  0  0  0  0  0  0
   47.1205    1.0564    7.0951 H   0  0  0  0  0  0  0  0  0  0  0  0
   47.1220    1.0572    7.0951 H   0  0  0  0  0  0  0  0  0  0  0  0
   47.1192    1.0557    7.0951 H   0  0  0  0  0  0  0  0  0  0  0  0
   47.1250    1.0587    7.0951 H   0  0  0  0  0  0  0  0  0  0  0  0
   47.1257    1.0591    7.0950 H   0  0  0  0  0  0  0  0  0  0  0  0
   47.1246    1.0585    7.0951 H   0  0  0  0  0  0  0  0  0  0  0  0
   47.1220    1.0571    7.0951 H   0  0  0  0  0  0  0  0  0  0  0  0
   47.1234    1.0579    7.0951 H   0  0  0  0  0  0  0  0  0  0  0  0
   47.1209    1.0566    7.0951 H   0  0  0  0  0  0  0  0  0  0  0  0
   47.1220    1.0571    7.0951 H   0  0  0  0  0  0  0  0  0  0  0  0
   47.1234    1.0579    7.0951 H   0  0  0  0  0  0  0  0  0  0  0  0
  3  2  1  0
  4  2  1  0
  5  2  2  0
  6 29  1  0
  7 30  1  0
  8 31  1  0
 11 32  1  0
 12 33  1  0
 13 34  1  0
 14 35  1  0
 15 36  1  0
 16 37  1  0
 17 38  1  0
 18 39  1  0
 19 40  1  0
 20 41  1  0
 21 42  1  0
 22 43  1  0
 23 44  1  0
M  CHG  8   1   2   3  -1   4  -1   6  -1   7  -1   8  -1   9   2  10   2
M  CHG  8  11  -1  12  -1  13  -1  14  -1  15  -1  16  -1  17  -1  18  -1
M  CHG  8  19  -1  20  -1  21  -1  22  -1  23  -1  24   3  25   3  26   2
M  CHG  2  27   2  28   2
M  END
> <Uni-Dock RESULT> 
ENERGY=  -11.962  LOWER_BOUND=    8.859  UPPER_BOUND=    9.417
INTER + INTRA:         -11.962
INTER:                 -11.962
INTRA:                   0.000
UNBOUND:                 0.000

$$$$

     RDKit          3D

 44 19  0  0  0  0  0  0  0  0999 V2000
   42.4840    5.5641   12.0583 Mg  0  0  0  0  0 15  0  0  0  0  0  0
   42.4495    5.5385   12.0755 C   0  0  0  0  0  0  0  0  0  0  0  0
   42.0886    6.7410   11.5394 O   0  0  0  0  0  0  0  0  0  0  0  0
   42.7826    5.3413   13.4192 O   0  0  0  0  0  0  0  0  0  0  0  0
   42.4917    4.5178   11.3195 O   0  0  0  0  0  0  0  0  0  0  0  0
   42.0856    5.7203   11.8026 O   0  0  0  0  0  0  0  0  0  0  0  0
   42.0908    5.7183   11.8059 O   0  0  0  0  0  0  0  0  0  0  0  0
   42.0901    5.7185   11.8055 O   0  0  0  0  0  0  0  0  0  0  0  0
   42.4840    5.5641   12.0583 Mg  0  0  0  0  0 15  0  0  0  0  0  0
   42.4840    5.5641   12.0583 Mg  0  0  0  0  0 15  0  0  0  0  0  0
   42.0906    5.7183   11.8058 O   0  0  0  0  0  0  0  0  0  0  0  0
   42.0870    5.7198   11.8035 O   0  0  0  0  0  0  0  0  0  0  0  0
   42.0858    5.7202   11.8027 O   0  0  0  0  0  0  0  0  0  0  0  0
   42.0871    5.7197   11.8036 O   0  0  0  0  0  0  0  0  0  0  0  0
   42.0846    5.7207   11.8019 O   0  0  0  0  0  0  0  0  0  0  0  0
   42.0898    5.7187   11.8053 O   0  0  0  0  0  0  0  0  0  0  0  0
   42.0904    5.7184   11.8057 O   0  0  0  0  0  0  0  0  0  0  0  0
   42.0895    5.7188   11.8051 O   0  0  0  0  0  0  0  0  0  0  0  0
   42.0871    5.7197   11.8035 O   0  0  0  0  0  0  0  0  0  0  0  0
   42.0883    5.7192   11.8043 O   0  0  0  0  0  0  0  0  0  0  0  0
   42.0861    5.7201   11.8029 O   0  0  0  0  0  0  0  0  0  0  0  0
   42.0871    5.7197   11.8035 O   0  0  0  0  0  0  0  0  0  0  0  0
   42.0883    5.7192   11.8043 O   0  0  0  0  0  0  0  0  0  0  0  0
   42.4840    5.5641   12.0583 Al  0  0  0  0  0 15  0  0  0  0  0  0
   42.4840    5.5641   12.0583 Al  0  0  0  0  0 15  0  0  0  0  0  0
   42.4840    5.5641   12.0583 Mg  0  0  0  0  0 15  0  0  0  0  0  0
   42.4840    5.5641   12.0583 Mg  0  0  0  0  0 15  0  0  0  0  0  0
   42.4840    5.5641   12.0583 Mg  0  0  0  0  0 15  0  0  0  0  0  0
   42.8823    5.4078   12.3141 H   0  0  0  0  0  0  0  0  0  0  0  0
   42.8771    5.4098   12.3107 H   0  0  0  0  0  0  0  0  0  0  0  0
   42.8779    5.4096   12.3112 H   0  0  0  0  0  0  0  0  0  0  0  0
   42.8773    5.4098   12.3108 H   0  0  0  0  0  0  0  0  0  0  0  0
   42.8810    5.4083   12.3132 H   0  0  0  0  0  0  0  0  0  0  0  0
   42.8822    5.4079   12.3140 H   0  0  0  0  0  0  0  0  0  0  0  0
   42.8808    5.4084   12.3131 H   0  0  0  0  0  0  0  0  0  0  0  0
   42.8834    5.4074   12.3147 H   0  0  0  0  0  0  0  0  0  0  0  0
   42.8782    5.4094   12.3114 H   0  0  0  0  0  0  0  0  0  0  0  0
   42.8775    5.4097   12.3110 H   0  0  0  0  0  0  0  0  0  0  0  0
   42.8785    5.4093   12.3116 H   0  0  0  0  0  0  0  0  0  0  0  0
   42.8809    5.4084   12.3131 H   0  0  0  0  0  0  0  0  0  0  0  0
   42.8796    5.4089   12.3123 H   0  0  0  0  0  0  0  0  0  0  0  0
   42.8819    5.4080   12.3138 H   0  0  0  0  0  0  0  0  0  0  0  0
   42.8809    5.4084   12.3131 H   0  0  0  0  0  0  0  0  0  0  0  0
   42.8796    5.4089   12.3123 H   0  0  0  0  0  0  0  0  0  0  0  0
  3  2  1  0
  4  2  1  0
  5  2  2  0
  6 29  1  0
  7 30  1  0
  8 31  1  0
 11 32  1  0
 12 33  1  0
 13 34  1  0
 14 35  1  0
 15 36  1  0
 16 37  1  0
 17 38  1  0
 18 39  1  0
 19 40  1  0
 20 41  1  0
 21 42  1  0
 22 43  1  0
 23 44  1  0
M  CHG  8   1   2   3  -1   4  -1   6  -1   7  -1   8  -1   9   2  10   2
M  CHG  8  11  -1  12  -1  13  -1  14  -1  15  -1  16  -1  17  -1  18  -1
M  CHG  8  19  -1  20  -1  21  -1  22  -1  23  -1  24   3  25   3  26   2
M  CHG  2  27   2  28   2
M  END
> <Uni-Dock RESULT> 
ENERGY=  -11.067  LOWER_BOUND=    7.060  UPPER_BOUND=    7.424
INTER + INTRA:         -11.067
INTER:                 -11.067
INTRA:                   0.000
UNBOUND:                 0.000

$$$$
