
     RDKit          3D

 44 19  0  0  0  0  0  0  0  0999 V2000
   46.9484    0.6256    7.7288 Mg  0  0  0  0  0 15  0  0  0  0  0  0
   46.9283    0.6282    7.7436 C   0  0  0  0  0  0  0  0  0  0  0  0
   46.9809   -0.7247    7.4565 O   0  0  0  0  0  0  0  0  0  0  0  0
   47.8712    1.5186    7.2310 O   0  0  0  0  0  0  0  0  0  0  0  0
   46.0131    1.0803    8.4841 O   0  0  0  0  0  0  0  0  0  0  0  0
   46.7574    0.1664    7.7585 O   0  0  0  0  0  0  0  0  0  0  0  0
   46.7569    0.1653    7.7586 O   0  0  0  0  0  0  0  0  0  0  0  0
   46.7574    0.1665    7.7585 O   0  0  0  0  0  0  0  0  0  0  0  0
   46.9484    0.6256    7.7288 Mg  0  0  0  0  0 15  0  0  0  0  0  0
   46.9484    0.6256    7.7288 Mg  0  0  0  0  0 15  0  0  0  0  0  0
   46.7604    0.1736    7.7581 O   0  0  0  0  0  0  0  0  0  0  0  0
   46.7600    0.1728    7.7581 O   0  0  0  0  0  0  0  0  0  0  0  0
   46.7592    0.1708    7.7582 O   0  0  0  0  0  0  0  0  0  0  0  0
   46.7588    0.1698    7.7583 O   0  0  0  0  0  0  0  0  0  0  0  0
   46.7584    0.1689    7.7584 O   0  0  0  0  0  0  0  0  0  0  0  0
   46.7567    0.1649    7.7586 O   0  0  0  0  0  0  0  0  0  0  0  0
   46.7593    0.1710    7.7582 O   0  0  0  0  0  0  0  0  0  0  0  0
   46.7575    0.1668    7.7585 O   0  0  0  0  0  0  0  0  0  0  0  0
   46.7574    0.1664    7.7585 O   0  0  0  0  0  0  0  0  0  0  0  0
   46.7600    0.1728    7.7581 O   0  0  0  0  0  0  0  0  0  0  0  0
   46.7594    0.1714    7.7582 O   0  0  0  0  0  0  0  0  0  0  0  0
   46.7576    0.1670    7.7585 O   0  0  0  0  0  0  0  0  0  0  0  0
   46.7595    0.1715    7.7582 O   0  0  0  0  0  0  0  0  0  0  0  0
   46.9484    0.6256    7.7288 Al  0  0  0  0  0 15  0  0  0  0  0  0
   46.9484    0.6256    7.7288 Al  0  0  0  0  0 15  0  0  0  0  0  0
   46.9484    0.6256    7.7288 Mg  0  0  0  0  0 15  0  0  0  0  0  0
   46.9484    0.6256    7.7288 Mg  0  0  0  0  0 15  0  0  0  0  0  0
   46.9484    0.6256    7.7288 Mg  0  0  0  0  0 15  0  0  0  0  0  0
   47.1394    1.0848    7.6991 H   0  0  0  0  0  0  0  0  0  0  0  0
   47.1398    1.0859    7.6990 H   0  0  0  0  0  0  0  0  0  0  0  0
   47.1393    1.0847    7.6991 H   0  0  0  0  0  0  0  0  0  0  0  0
   47.1364    1.0776    7.6996 H   0  0  0  0  0  0  0  0  0  0  0  0
   47.1367    1.0784    7.6995 H   0  0  0  0  0  0  0  0  0  0  0  0
   47.1376    1.0805    7.6994 H   0  0  0  0  0  0  0  0  0  0  0  0
   47.1380    1.0815    7.6993 H   0  0  0  0  0  0  0  0  0  0  0  0
   47.1383    1.0823    7.6993 H   0  0  0  0  0  0  0  0  0  0  0  0
   47.1400    1.0864    7.6990 H   0  0  0  0  0  0  0  0  0  0  0  0
   47.1374    1.0802    7.6994 H   0  0  0  0  0  0  0  0  0  0  0  0
   47.1392    1.0844    7.6991 H   0  0  0  0  0  0  0  0  0  0  0  0
   47.1394    1.0848    7.6991 H   0  0  0  0  0  0  0  0  0  0  0  0
   47.1367    1.0784    7.6995 H   0  0  0  0  0  0  0  0  0  0  0  0
   47.1373    1.0798    7.6994 H   0  0  0  0  0  0  0  0  0  0  0  0
   47.1391    1.0842    7.6991 H   0  0  0  0  0  0  0  0  0  0  0  0
   47.1372    1.0797    7.6994 H   0  0  0  0  0  0  0  0  0  0  0  0
  3  2  1  0
  4  2  1  0
  5  2  2  0
  6 29  1  0
  7 30  1  0
  8 31  1  0
 11 32  1  0
 12 33  1  0
 13 34  1  0
 14 35  1  0
 15 36  1  0
 16 37  1  0
 17 38  1  0
 18 39  1  0
 19 40  1  0
 20 41  1  0
 21 42  1  0
 22 43  1  0
 23 44  1  0
M  CHG  8   1   2   3  -1   4  -1   6  -1   7  -1   8  -1   9   2  10   2
M  CHG  8  11  -1  12  -1  13  -1  14  -1  15  -1  16  -1  17  -1  18  -1
M  CHG  8  19  -1  20  -1  21  -1  22  -1  23  -1  24   3  25   3  26   2
M  CHG  2  27   2  28   2
M  END
> <Uni-Dock RESULT> 
ENERGY=  -13.556  LOWER_BOUND=    0.000  UPPER_BOUND=    0.000
INTER + INTRA:         -13.556
INTER:                 -13.556
INTRA:                   0.000
UNBOUND:                 0.000

$$$$

     RDKit          3D

 44 19  0  0  0  0  0  0  0  0999 V2000
   47.0729    0.6133    7.5089 Mg  0  0  0  0  0 15  0  0  0  0  0  0
   47.0634    0.6330    7.5212 C   0  0  0  0  0  0  0  0  0  0  0  0
   48.1053    1.1543    6.7741 O   0  0  0  0  0  0  0  0  0  0  0  0
   46.7486   -0.7249    7.4835 O   0  0  0  0  0  0  0  0  0  0  0  0
   46.3744    1.3909    8.2569 O   0  0  0  0  0  0  0  0  0  0  0  0
   47.3648    0.9943    7.3752 O   0  0  0  0  0  0  0  0  0  0  0  0
   47.3655    0.9952    7.3749 O   0  0  0  0  0  0  0  0  0  0  0  0
   47.3647    0.9942    7.3752 O   0  0  0  0  0  0  0  0  0  0  0  0
   47.0729    0.6133    7.5089 Mg  0  0  0  0  0 15  0  0  0  0  0  0
   47.0729    0.6133    7.5089 Mg  0  0  0  0  0 15  0  0  0  0  0  0
   47.3602    0.9883    7.3773 O   0  0  0  0  0  0  0  0  0  0  0  0
   47.3607    0.9890    7.3770 O   0  0  0  0  0  0  0  0  0  0  0  0
   47.3620    0.9907    7.3764 O   0  0  0  0  0  0  0  0  0  0  0  0
   47.3627    0.9915    7.3761 O   0  0  0  0  0  0  0  0  0  0  0  0
   47.3632    0.9922    7.3759 O   0  0  0  0  0  0  0  0  0  0  0  0
   47.3658    0.9956    7.3747 O   0  0  0  0  0  0  0  0  0  0  0  0
   47.3619    0.9905    7.3765 O   0  0  0  0  0  0  0  0  0  0  0  0
   47.3646    0.9940    7.3753 O   0  0  0  0  0  0  0  0  0  0  0  0
   47.3648    0.9943    7.3752 O   0  0  0  0  0  0  0  0  0  0  0  0
   47.3607    0.9890    7.3770 O   0  0  0  0  0  0  0  0  0  0  0  0
   47.3616    0.9902    7.3766 O   0  0  0  0  0  0  0  0  0  0  0  0
   47.3644    0.9938    7.3753 O   0  0  0  0  0  0  0  0  0  0  0  0
   47.3616    0.9901    7.3767 O   0  0  0  0  0  0  0  0  0  0  0  0
   47.0729    0.6133    7.5089 Al  0  0  0  0  0 15  0  0  0  0  0  0
   47.0729    0.6133    7.5089 Al  0  0  0  0  0 15  0  0  0  0  0  0
   47.0729    0.6133    7.5089 Mg  0  0  0  0  0 15  0  0  0  0  0  0
   47.0729    0.6133    7.5089 Mg  0  0  0  0  0 15  0  0  0  0  0  0
   47.0729    0.6133    7.5089 Mg  0  0  0  0  0 15  0  0  0  0  0  0
   46.7810    0.2324    7.6427 H   0  0  0  0  0  0  0  0  0  0  0  0
   46.7803    0.2315    7.6430 H   0  0  0  0  0  0  0  0  0  0  0  0
   46.7811    0.2325    7.6426 H   0  0  0  0  0  0  0  0  0  0  0  0
   46.7856    0.2384    7.6406 H   0  0  0  0  0  0  0  0  0  0  0  0
   46.7851    0.2377    7.6408 H   0  0  0  0  0  0  0  0  0  0  0  0
   46.7838    0.2360    7.6414 H   0  0  0  0  0  0  0  0  0  0  0  0
   46.7831    0.2351    7.6417 H   0  0  0  0  0  0  0  0  0  0  0  0
   46.7826    0.2345    7.6419 H   0  0  0  0  0  0  0  0  0  0  0  0
   46.7800    0.2311    7.6431 H   0  0  0  0  0  0  0  0  0  0  0  0
   46.7839    0.2362    7.6413 H   0  0  0  0  0  0  0  0  0  0  0  0
   46.7812    0.2327    7.6426 H   0  0  0  0  0  0  0  0  0  0  0  0
   46.7810    0.2324    7.6427 H   0  0  0  0  0  0  0  0  0  0  0  0
   46.7851    0.2377    7.6408 H   0  0  0  0  0  0  0  0  0  0  0  0
   46.7842    0.2365    7.6412 H   0  0  0  0  0  0  0  0  0  0  0  0
   46.7814    0.2329    7.6425 H   0  0  0  0  0  0  0  0  0  0  0  0
   46.7842    0.2366    7.6412 H   0  0  0  0  0  0  0  0  0  0  0  0
  3  2  1  0
  4  2  1  0
  5  2  2  0
  6 29  1  0
  7 30  1  0
  8 31  1  0
 11 32  1  0
 12 33  1  0
 13 34  1  0
 14 35  1  0
 15 36  1  0
 16 37  1  0
 17 38  1  0
 18 39  1  0
 19 40  1  0
 20 41  1  0
 21 42  1  0
 22 43  1  0
 23 44  1  0
M  CHG  8   1   2   3  -1   4  -1   6  -1   7  -1   8  -1   9   2  10   2
M  CHG  8  11  -1  12  -1  13  -1  14  -1  15  -1  16  -1  17  -1  18  -1
M  CHG  8  19  -1  20  -1  21  -1  22  -1  23  -1  24   3  25   3  26   2
M  CHG  2  27   2  28   2
M  END
> <Uni-Dock RESULT> 
ENERGY=  -12.109  LOWER_BOUND=    0.739  UPPER_BOUND=    1.061
INTER + INTRA:         -12.109
INTER:                 -12.109
INTRA:                   0.000
UNBOUND:                 0.000

$$$$

     RDKit          3D

 44 19  0  0  0  0  0  0  0  0999 V2000
   42.3520    5.4859   12.1444 Mg  0  0  0  0  0 15  0  0  0  0  0  0
   42.3518    5.4706   12.1246 C   0  0  0  0  0  0  0  0  0  0  0  0
   41.7107    6.6165   11.6872 O   0  0  0  0  0  0  0  0  0  0  0  0
   42.8454    5.3634   13.4244 O   0  0  0  0  0  0  0  0  0  0  0  0
   42.5003    4.4934   11.3415 O   0  0  0  0  0  0  0  0  0  0  0  0
   42.1026    5.7390   11.7952 O   0  0  0  0  0  0  0  0  0  0  0  0
   42.1020    5.7396   11.7944 O   0  0  0  0  0  0  0  0  0  0  0  0
   42.1027    5.7389   11.7953 O   0  0  0  0  0  0  0  0  0  0  0  0
   42.3520    5.4859   12.1444 Mg  0  0  0  0  0 15  0  0  0  0  0  0
   42.3520    5.4859   12.1444 Mg  0  0  0  0  0 15  0  0  0  0  0  0
   42.1065    5.7350   11.8007 O   0  0  0  0  0  0  0  0  0  0  0  0
   42.1061    5.7355   11.8000 O   0  0  0  0  0  0  0  0  0  0  0  0
   42.1050    5.7366   11.7985 O   0  0  0  0  0  0  0  0  0  0  0  0
   42.1044    5.7372   11.7977 O   0  0  0  0  0  0  0  0  0  0  0  0
   42.1040    5.7376   11.7971 O   0  0  0  0  0  0  0  0  0  0  0  0
   42.1018    5.7398   11.7940 O   0  0  0  0  0  0  0  0  0  0  0  0
   42.1051    5.7364   11.7987 O   0  0  0  0  0  0  0  0  0  0  0  0
   42.1028    5.7388   11.7955 O   0  0  0  0  0  0  0  0  0  0  0  0
   42.1026    5.7390   11.7952 O   0  0  0  0  0  0  0  0  0  0  0  0
   42.1061    5.7355   11.8000 O   0  0  0  0  0  0  0  0  0  0  0  0
   42.1053    5.7362   11.7990 O   0  0  0  0  0  0  0  0  0  0  0  0
   42.1029    5.7387   11.7956 O   0  0  0  0  0  0  0  0  0  0  0  0
   42.1054    5.7362   11.7991 O   0  0  0  0  0  0  0  0  0  0  0  0
   42.3520    5.4859   12.1444 Al  0  0  0  0  0 15  0  0  0  0  0  0
   42.3520    5.4859   12.1444 Al  0  0  0  0  0 15  0  0  0  0  0  0
   42.3520    5.4859   12.1444 Mg  0  0  0  0  0 15  0  0  0  0  0  0
   42.3520    5.4859   12.1444 Mg  0  0  0  0  0 15  0  0  0  0  0  0
   42.3520    5.4859   12.1444 Mg  0  0  0  0  0 15  0  0  0  0  0  0
   42.6015    5.2329   12.4937 H   0  0  0  0  0  0  0  0  0  0  0  0
   42.6021    5.2323   12.4945 H   0  0  0  0  0  0  0  0  0  0  0  0
   42.6014    5.2330   12.4936 H   0  0  0  0  0  0  0  0  0  0  0  0
   42.5976    5.2369   12.4882 H   0  0  0  0  0  0  0  0  0  0  0  0
   42.5980    5.2364   12.4888 H   0  0  0  0  0  0  0  0  0  0  0  0
   42.5991    5.2353   12.4904 H   0  0  0  0  0  0  0  0  0  0  0  0
   42.5997    5.2347   12.4911 H   0  0  0  0  0  0  0  0  0  0  0  0
   42.6001    5.2343   12.4918 H   0  0  0  0  0  0  0  0  0  0  0  0
   42.6023    5.2321   12.4949 H   0  0  0  0  0  0  0  0  0  0  0  0
   42.5990    5.2355   12.4902 H   0  0  0  0  0  0  0  0  0  0  0  0
   42.6013    5.2331   12.4934 H   0  0  0  0  0  0  0  0  0  0  0  0
   42.6015    5.2329   12.4937 H   0  0  0  0  0  0  0  0  0  0  0  0
   42.5980    5.2364   12.4888 H   0  0  0  0  0  0  0  0  0  0  0  0
   42.5988    5.2357   12.4899 H   0  0  0  0  0  0  0  0  0  0  0  0
   42.6012    5.2332   12.4932 H   0  0  0  0  0  0  0  0  0  0  0  0
   42.5987    5.2357   12.4898 H   0  0  0  0  0  0  0  0  0  0  0  0
  3  2  1  0
  4  2  1  0
  5  2  2  0
  6 29  1  0
  7 30  1  0
  8 31  1  0
 11 32  1  0
 12 33  1  0
 13 34  1  0
 14 35  1  0
 15 36  1  0
 16 37  1  0
 17 38  1  0
 18 39  1  0
 19 40  1  0
 20 41  1  0
 21 42  1  0
 22 43  1  0
 23 44  1  0
M  CHG  8   1   2   3  -1   4  -1   6  -1   7  -1   8  -1   9   2  10   2
M  CHG  8  11  -1  12  -1  13  -1  14  -1  15  -1  16  -1  17  -1  18  -1
M  CHG  8  19  -1  20  -1  21  -1  22  -1  23  -1  24   3  25   3  26   2
M  CHG  2  27   2  28   2
M  END
> <Uni-Dock RESULT> 
ENERGY=  -11.037  LOWER_BOUND=    7.371  UPPER_BOUND=    8.219
INTER + INTRA:         -11.037
INTER:                 -11.037
INTRA:                   0.000
UNBOUND:                 0.000

$$$$

     RDKit          3D

 44 19  0  0  0  0  0  0  0  0999 V2000
   40.1080   12.2698   15.7785 Mg  0  0  0  0  0 15  0  0  0  0  0  0
   40.1180   12.2756   15.7563 C   0  0  0  0  0  0  0  0  0  0  0  0
   41.1516   11.6844   16.4618 O   0  0  0  0  0  0  0  0  0  0  0  0
   38.8521   12.4379   16.3182 O   0  0  0  0  0  0  0  0  0  0  0  0
   40.3103   12.6813   14.5778 O   0  0  0  0  0  0  0  0  0  0  0  0
   40.5847   12.1304   15.8175 O   0  0  0  0  0  0  0  0  0  0  0  0
   40.5858   12.1300   15.8176 O   0  0  0  0  0  0  0  0  0  0  0  0
   40.5846   12.1304   15.8175 O   0  0  0  0  0  0  0  0  0  0  0  0
   40.1080   12.2698   15.7785 Mg  0  0  0  0  0 15  0  0  0  0  0  0
   40.1080   12.2698   15.7785 Mg  0  0  0  0  0 15  0  0  0  0  0  0
   40.5772   12.1325   15.8169 O   0  0  0  0  0  0  0  0  0  0  0  0
   40.5781   12.1323   15.8170 O   0  0  0  0  0  0  0  0  0  0  0  0
   40.5802   12.1317   15.8171 O   0  0  0  0  0  0  0  0  0  0  0  0
   40.5813   12.1314   15.8172 O   0  0  0  0  0  0  0  0  0  0  0  0
   40.5821   12.1311   15.8173 O   0  0  0  0  0  0  0  0  0  0  0  0
   40.5863   12.1299   15.8176 O   0  0  0  0  0  0  0  0  0  0  0  0
   40.5799   12.1318   15.8171 O   0  0  0  0  0  0  0  0  0  0  0  0
   40.5843   12.1305   15.8175 O   0  0  0  0  0  0  0  0  0  0  0  0
   40.5847   12.1304   15.8175 O   0  0  0  0  0  0  0  0  0  0  0  0
   40.5781   12.1323   15.8170 O   0  0  0  0  0  0  0  0  0  0  0  0
   40.5795   12.1319   15.8171 O   0  0  0  0  0  0  0  0  0  0  0  0
   40.5841   12.1305   15.8175 O   0  0  0  0  0  0  0  0  0  0  0  0
   40.5794   12.1319   15.8171 O   0  0  0  0  0  0  0  0  0  0  0  0
   40.1080   12.2698   15.7785 Al  0  0  0  0  0 15  0  0  0  0  0  0
   40.1080   12.2698   15.7785 Al  0  0  0  0  0 15  0  0  0  0  0  0
   40.1080   12.2698   15.7785 Mg  0  0  0  0  0 15  0  0  0  0  0  0
   40.1080   12.2698   15.7785 Mg  0  0  0  0  0 15  0  0  0  0  0  0
   40.1080   12.2698   15.7785 Mg  0  0  0  0  0 15  0  0  0  0  0  0
   39.6313   12.4092   15.7396 H   0  0  0  0  0  0  0  0  0  0  0  0
   39.6302   12.4096   15.7395 H   0  0  0  0  0  0  0  0  0  0  0  0
   39.6314   12.4092   15.7396 H   0  0  0  0  0  0  0  0  0  0  0  0
   39.6388   12.4071   15.7402 H   0  0  0  0  0  0  0  0  0  0  0  0
   39.6379   12.4073   15.7401 H   0  0  0  0  0  0  0  0  0  0  0  0
   39.6358   12.4079   15.7399 H   0  0  0  0  0  0  0  0  0  0  0  0
   39.6348   12.4082   15.7398 H   0  0  0  0  0  0  0  0  0  0  0  0
   39.6339   12.4085   15.7398 H   0  0  0  0  0  0  0  0  0  0  0  0
   39.6297   12.4097   15.7394 H   0  0  0  0  0  0  0  0  0  0  0  0
   39.6361   12.4078   15.7399 H   0  0  0  0  0  0  0  0  0  0  0  0
   39.6317   12.4091   15.7396 H   0  0  0  0  0  0  0  0  0  0  0  0
   39.6313   12.4092   15.7396 H   0  0  0  0  0  0  0  0  0  0  0  0
   39.6379   12.4073   15.7401 H   0  0  0  0  0  0  0  0  0  0  0  0
   39.6365   12.4077   15.7400 H   0  0  0  0  0  0  0  0  0  0  0  0
   39.6319   12.4091   15.7396 H   0  0  0  0  0  0  0  0  0  0  0  0
   39.6366   12.4077   15.7400 H   0  0  0  0  0  0  0  0  0  0  0  0
  3  2  1  0
  4  2  1  0
  5  2  2  0
  6 29  1  0
  7 30  1  0
  8 31  1  0
 11 32  1  0
 12 33  1  0
 13 34  1  0
 14 35  1  0
 15 36  1  0
 16 37  1  0
 17 38  1  0
 18 39  1  0
 19 40  1  0
 20 41  1  0
 21 42  1  0
 22 43  1  0
 23 44  1  0
M  CHG  8   1   2   3  -1   4  -1   6  -1   7  -1   8  -1   9   2  10   2
M  CHG  8  11  -1  12  -1  13  -1  14  -1  15  -1  16  -1  17  -1  18  -1
M  CHG  8  19  -1  20  -1  21  -1  22  -1  23  -1  24   3  25   3  26   2
M  CHG  2  27   2  28   2
M  END
> <Uni-Dock RESULT> 
ENERGY=  -10.822  LOWER_BOUND=   15.541  UPPER_BOUND=   15.720
INTER + INTRA:         -10.822
INTER:                 -10.822
INTRA:                   0.000
UNBOUND:                 0.000

$$$$
