
     RDKit          3D

 44 19  0  0  0  0  0  0  0  0999 V2000
   38.8042    4.0388    5.4520 Mg  0  0  0  0  0 15  0  0  0  0  0  0
   38.8416    4.0463    5.4405 C   0  0  0  0  0  0  0  0  0  0  0  0
   38.2433    2.9837    6.0885 O   0  0  0  0  0  0  0  0  0  0  0  0
   38.0627    5.1265    5.0708 O   0  0  0  0  0  0  0  0  0  0  0  0
   40.0692    3.9987    5.2083 O   0  0  0  0  0  0  0  0  0  0  0  0
   38.8091    3.6158    5.7109 O   0  0  0  0  0  0  0  0  0  0  0  0
   38.8090    3.6195    5.7086 O   0  0  0  0  0  0  0  0  0  0  0  0
   38.8091    3.6124    5.7130 O   0  0  0  0  0  0  0  0  0  0  0  0
   38.8042    4.0388    5.4520 Mg  0  0  0  0  0 15  0  0  0  0  0  0
   38.8042    4.0388    5.4520 Mg  0  0  0  0  0 15  0  0  0  0  0  0
   38.8091    3.6132    5.7125 O   0  0  0  0  0  0  0  0  0  0  0  0
   38.8090    3.6176    5.7098 O   0  0  0  0  0  0  0  0  0  0  0  0
   38.8090    3.6193    5.7087 O   0  0  0  0  0  0  0  0  0  0  0  0
   38.8090    3.6182    5.7094 O   0  0  0  0  0  0  0  0  0  0  0  0
   38.8091    3.6155    5.7111 O   0  0  0  0  0  0  0  0  0  0  0  0
   38.8091    3.6158    5.7109 O   0  0  0  0  0  0  0  0  0  0  0  0
   38.8090    3.6183    5.7094 O   0  0  0  0  0  0  0  0  0  0  0  0
   38.8091    3.6145    5.7117 O   0  0  0  0  0  0  0  0  0  0  0  0
   38.8090    3.6202    5.7082 O   0  0  0  0  0  0  0  0  0  0  0  0
   38.8091    3.6146    5.7117 O   0  0  0  0  0  0  0  0  0  0  0  0
   38.8091    3.6142    5.7119 O   0  0  0  0  0  0  0  0  0  0  0  0
   38.8091    3.6155    5.7111 O   0  0  0  0  0  0  0  0  0  0  0  0
   38.8091    3.6155    5.7111 O   0  0  0  0  0  0  0  0  0  0  0  0
   38.8042    4.0388    5.4520 Al  0  0  0  0  0 15  0  0  0  0  0  0
   38.8042    4.0388    5.4520 Al  0  0  0  0  0 15  0  0  0  0  0  0
   38.8042    4.0388    5.4520 Mg  0  0  0  0  0 15  0  0  0  0  0  0
   38.8042    4.0388    5.4520 Mg  0  0  0  0  0 15  0  0  0  0  0  0
   38.8042    4.0388    5.4520 Mg  0  0  0  0  0 15  0  0  0  0  0  0
   38.7993    4.4618    5.1931 H   0  0  0  0  0  0  0  0  0  0  0  0
   38.7994    4.4581    5.1954 H   0  0  0  0  0  0  0  0  0  0  0  0
   38.7993    4.4652    5.1911 H   0  0  0  0  0  0  0  0  0  0  0  0
   38.7993    4.4644    5.1915 H   0  0  0  0  0  0  0  0  0  0  0  0
   38.7994    4.4600    5.1942 H   0  0  0  0  0  0  0  0  0  0  0  0
   38.7994    4.4582    5.1953 H   0  0  0  0  0  0  0  0  0  0  0  0
   38.7994    4.4594    5.1946 H   0  0  0  0  0  0  0  0  0  0  0  0
   38.7993    4.4621    5.1930 H   0  0  0  0  0  0  0  0  0  0  0  0
   38.7993    4.4618    5.1931 H   0  0  0  0  0  0  0  0  0  0  0  0
   38.7994    4.4593    5.1947 H   0  0  0  0  0  0  0  0  0  0  0  0
   38.7993    4.4631    5.1923 H   0  0  0  0  0  0  0  0  0  0  0  0
   38.7994    4.4574    5.1958 H   0  0  0  0  0  0  0  0  0  0  0  0
   38.7993    4.4630    5.1924 H   0  0  0  0  0  0  0  0  0  0  0  0
   38.7993    4.4634    5.1922 H   0  0  0  0  0  0  0  0  0  0  0  0
   38.7993    4.4621    5.1930 H   0  0  0  0  0  0  0  0  0  0  0  0
   38.7993    4.4621    5.1930 H   0  0  0  0  0  0  0  0  0  0  0  0
  3  2  1  0
  4  2  1  0
  5  2  2  0
  6 29  1  0
  7 30  1  0
  8 31  1  0
 11 32  1  0
 12 33  1  0
 13 34  1  0
 14 35  1  0
 15 36  1  0
 16 37  1  0
 17 38  1  0
 18 39  1  0
 19 40  1  0
 20 41  1  0
 21 42  1  0
 22 43  1  0
 23 44  1  0
M  CHG  8   1   2   3  -1   4  -1   6  -1   7  -1   8  -1   9   2  10   2
M  CHG  8  11  -1  12  -1  13  -1  14  -1  15  -1  16  -1  17  -1  18  -1
M  CHG  8  19  -1  20  -1  21  -1  22  -1  23  -1  24   3  25   3  26   2
M  CHG  2  27   2  28   2
M  END
> <Uni-Dock RESULT> 
ENERGY=  -14.001  LOWER_BOUND=    0.000  UPPER_BOUND=    0.000
INTER + INTRA:         -14.001
INTER:                 -14.001
INTRA:                   0.000
UNBOUND:                 0.000

$$$$

     RDKit          3D

 44 19  0  0  0  0  0  0  0  0999 V2000
   47.0353    0.6148    7.6838 Mg  0  0  0  0  0 15  0  0  0  0  0  0
   47.0149    0.6415    7.7050 C   0  0  0  0  0  0  0  0  0  0  0  0
   46.9002   -0.7247    7.5408 O   0  0  0  0  0  0  0  0  0  0  0  0
   48.0194    1.3124    7.0332 O   0  0  0  0  0  0  0  0  0  0  0  0
   46.2067    1.2299    8.4560 O   0  0  0  0  0  0  0  0  0  0  0  0
   46.8022    0.1793    7.7287 O   0  0  0  0  0  0  0  0  0  0  0  0
   46.8042    0.1831    7.7283 O   0  0  0  0  0  0  0  0  0  0  0  0
   46.8003    0.1759    7.7291 O   0  0  0  0  0  0  0  0  0  0  0  0
   47.0353    0.6148    7.6838 Mg  0  0  0  0  0 15  0  0  0  0  0  0
   47.0353    0.6148    7.6838 Mg  0  0  0  0  0 15  0  0  0  0  0  0
   46.8007    0.1767    7.7290 O   0  0  0  0  0  0  0  0  0  0  0  0
   46.8031    0.1811    7.7285 O   0  0  0  0  0  0  0  0  0  0  0  0
   46.8041    0.1830    7.7284 O   0  0  0  0  0  0  0  0  0  0  0  0
   46.8035    0.1818    7.7285 O   0  0  0  0  0  0  0  0  0  0  0  0
   46.8020    0.1790    7.7288 O   0  0  0  0  0  0  0  0  0  0  0  0
   46.8022    0.1793    7.7287 O   0  0  0  0  0  0  0  0  0  0  0  0
   46.8036    0.1819    7.7285 O   0  0  0  0  0  0  0  0  0  0  0  0
   46.8014    0.1780    7.7289 O   0  0  0  0  0  0  0  0  0  0  0  0
   46.8046    0.1839    7.7283 O   0  0  0  0  0  0  0  0  0  0  0  0
   46.8015    0.1781    7.7289 O   0  0  0  0  0  0  0  0  0  0  0  0
   46.8013    0.1777    7.7289 O   0  0  0  0  0  0  0  0  0  0  0  0
   46.8020    0.1790    7.7288 O   0  0  0  0  0  0  0  0  0  0  0  0
   46.8020    0.1790    7.7288 O   0  0  0  0  0  0  0  0  0  0  0  0
   47.0353    0.6148    7.6838 Al  0  0  0  0  0 15  0  0  0  0  0  0
   47.0353    0.6148    7.6838 Al  0  0  0  0  0 15  0  0  0  0  0  0
   47.0353    0.6148    7.6838 Mg  0  0  0  0  0 15  0  0  0  0  0  0
   47.0353    0.6148    7.6838 Mg  0  0  0  0  0 15  0  0  0  0  0  0
   47.0353    0.6148    7.6838 Mg  0  0  0  0  0 15  0  0  0  0  0  0
   47.2684    1.0503    7.6388 H   0  0  0  0  0  0  0  0  0  0  0  0
   47.2663    1.0464    7.6392 H   0  0  0  0  0  0  0  0  0  0  0  0
   47.2702    1.0537    7.6385 H   0  0  0  0  0  0  0  0  0  0  0  0
   47.2698    1.0529    7.6385 H   0  0  0  0  0  0  0  0  0  0  0  0
   47.2674    1.0484    7.6390 H   0  0  0  0  0  0  0  0  0  0  0  0
   47.2664    1.0466    7.6392 H   0  0  0  0  0  0  0  0  0  0  0  0
   47.2670    1.0477    7.6391 H   0  0  0  0  0  0  0  0  0  0  0  0
   47.2685    1.0505    7.6388 H   0  0  0  0  0  0  0  0  0  0  0  0
   47.2684    1.0503    7.6388 H   0  0  0  0  0  0  0  0  0  0  0  0
   47.2670    1.0476    7.6391 H   0  0  0  0  0  0  0  0  0  0  0  0
   47.2691    1.0516    7.6387 H   0  0  0  0  0  0  0  0  0  0  0  0
   47.2660    1.0457    7.6393 H   0  0  0  0  0  0  0  0  0  0  0  0
   47.2691    1.0515    7.6387 H   0  0  0  0  0  0  0  0  0  0  0  0
   47.2692    1.0518    7.6387 H   0  0  0  0  0  0  0  0  0  0  0  0
   47.2685    1.0505    7.6388 H   0  0  0  0  0  0  0  0  0  0  0  0
   47.2685    1.0505    7.6388 H   0  0  0  0  0  0  0  0  0  0  0  0
  3  2  1  0
  4  2  1  0
  5  2  2  0
  6 29  1  0
  7 30  1  0
  8 31  1  0
 11 32  1  0
 12 33  1  0
 13 34  1  0
 14 35  1  0
 15 36  1  0
 16 37  1  0
 17 38  1  0
 18 39  1  0
 19 40  1  0
 20 41  1  0
 21 42  1  0
 22 43  1  0
 23 44  1  0
M  CHG  8   1   2   3  -1   4  -1   6  -1   7  -1   8  -1   9   2  10   2
M  CHG  8  11  -1  12  -1  13  -1  14  -1  15  -1  16  -1  17  -1  18  -1
M  CHG  8  19  -1  20  -1  21  -1  22  -1  23  -1  24   3  25   3  26   2
M  CHG  2  27   2  28   2
M  END
> <Uni-Dock RESULT> 
ENERGY=  -13.744  LOWER_BOUND=    8.593  UPPER_BOUND=    9.063
INTER + INTRA:         -13.744
INTER:                 -13.744
INTRA:                   0.000
UNBOUND:                 0.000

$$$$

     RDKit          3D

 44 19  0  0  0  0  0  0  0  0999 V2000
   46.7374    0.5543    7.7973 Mg  0  0  0  0  0 15  0  0  0  0  0  0
   46.7253    0.5165    7.7995 C   0  0  0  0  0  0  0  0  0  0  0  0
   47.7950    1.1371    7.1852 O   0  0  0  0  0  0  0  0  0  0  0  0
   45.8289    1.2863    8.5165 O   0  0  0  0  0  0  0  0  0  0  0  0
   46.6003   -0.7226    7.6881 O   0  0  0  0  0  0  0  0  0  0  0  0
   47.1243    0.5706    7.4874 O   0  0  0  0  0  0  0  0  0  0  0  0
   47.1209    0.5705    7.4902 O   0  0  0  0  0  0  0  0  0  0  0  0
   47.1273    0.5707    7.4850 O   0  0  0  0  0  0  0  0  0  0  0  0
   46.7374    0.5543    7.7973 Mg  0  0  0  0  0 15  0  0  0  0  0  0
   46.7374    0.5543    7.7973 Mg  0  0  0  0  0 15  0  0  0  0  0  0
   47.1266    0.5707    7.4855 O   0  0  0  0  0  0  0  0  0  0  0  0
   47.1227    0.5705    7.4887 O   0  0  0  0  0  0  0  0  0  0  0  0
   47.1210    0.5705    7.4900 O   0  0  0  0  0  0  0  0  0  0  0  0
   47.1220    0.5705    7.4892 O   0  0  0  0  0  0  0  0  0  0  0  0
   47.1245    0.5706    7.4872 O   0  0  0  0  0  0  0  0  0  0  0  0
   47.1243    0.5706    7.4874 O   0  0  0  0  0  0  0  0  0  0  0  0
   47.1219    0.5705    7.4893 O   0  0  0  0  0  0  0  0  0  0  0  0
   47.1255    0.5707    7.4865 O   0  0  0  0  0  0  0  0  0  0  0  0
   47.1202    0.5704    7.4907 O   0  0  0  0  0  0  0  0  0  0  0  0
   47.1254    0.5707    7.4865 O   0  0  0  0  0  0  0  0  0  0  0  0
   47.1257    0.5707    7.4863 O   0  0  0  0  0  0  0  0  0  0  0  0
   47.1245    0.5706    7.4872 O   0  0  0  0  0  0  0  0  0  0  0  0
   47.1245    0.5706    7.4872 O   0  0  0  0  0  0  0  0  0  0  0  0
   46.7374    0.5543    7.7973 Al  0  0  0  0  0 15  0  0  0  0  0  0
   46.7374    0.5543    7.7973 Al  0  0  0  0  0 15  0  0  0  0  0  0
   46.7374    0.5543    7.7973 Mg  0  0  0  0  0 15  0  0  0  0  0  0
   46.7374    0.5543    7.7973 Mg  0  0  0  0  0 15  0  0  0  0  0  0
   46.7374    0.5543    7.7973 Mg  0  0  0  0  0 15  0  0  0  0  0  0
   46.3505    0.5380    8.1072 H   0  0  0  0  0  0  0  0  0  0  0  0
   46.3539    0.5382    8.1045 H   0  0  0  0  0  0  0  0  0  0  0  0
   46.3474    0.5379    8.1097 H   0  0  0  0  0  0  0  0  0  0  0  0
   46.3481    0.5379    8.1091 H   0  0  0  0  0  0  0  0  0  0  0  0
   46.3521    0.5381    8.1059 H   0  0  0  0  0  0  0  0  0  0  0  0
   46.3537    0.5382    8.1046 H   0  0  0  0  0  0  0  0  0  0  0  0
   46.3527    0.5381    8.1054 H   0  0  0  0  0  0  0  0  0  0  0  0
   46.3502    0.5380    8.1074 H   0  0  0  0  0  0  0  0  0  0  0  0
   46.3505    0.5380    8.1072 H   0  0  0  0  0  0  0  0  0  0  0  0
   46.3528    0.5381    8.1054 H   0  0  0  0  0  0  0  0  0  0  0  0
   46.3493    0.5380    8.1082 H   0  0  0  0  0  0  0  0  0  0  0  0
   46.3545    0.5382    8.1040 H   0  0  0  0  0  0  0  0  0  0  0  0
   46.3494    0.5380    8.1081 H   0  0  0  0  0  0  0  0  0  0  0  0
   46.3490    0.5380    8.1084 H   0  0  0  0  0  0  0  0  0  0  0  0
   46.3502    0.5380    8.1074 H   0  0  0  0  0  0  0  0  0  0  0  0
   46.3502    0.5380    8.1074 H   0  0  0  0  0  0  0  0  0  0  0  0
  3  2  1  0
  4  2  1  0
  5  2  2  0
  6 29  1  0
  7 30  1  0
  8 31  1  0
 11 32  1  0
 12 33  1  0
 13 34  1  0
 14 35  1  0
 15 36  1  0
 16 37  1  0
 17 38  1  0
 18 39  1  0
 19 40  1  0
 20 41  1  0
 21 42  1  0
 22 43  1  0
 23 44  1  0
M  CHG  8   1   2   3  -1   4  -1   6  -1   7  -1   8  -1   9   2  10   2
M  CHG  8  11  -1  12  -1  13  -1  14  -1  15  -1  16  -1  17  -1  18  -1
M  CHG  8  19  -1  20  -1  21  -1  22  -1  23  -1  24   3  25   3  26   2
M  CHG  2  27   2  28   2
M  END
> <Uni-Dock RESULT> 
ENERGY=  -12.748  LOWER_BOUND=    8.423  UPPER_BOUND=    9.031
INTER + INTRA:         -12.748
INTER:                 -12.748
INTRA:                   0.000
UNBOUND:                 0.000

$$$$

     RDKit          3D

 44 19  0  0  0  0  0  0  0  0999 V2000
   47.8965    1.9277    6.8950 Mg  0  0  0  0  0 15  0  0  0  0  0  0
   47.9141    1.9335    6.8598 C   0  0  0  0  0  0  0  0  0  0  0  0
   47.7245    0.8197    7.6537 O   0  0  0  0  0  0  0  0  0  0  0  0
   47.4218    3.1513    7.2899 O   0  0  0  0  0  0  0  0  0  0  0  0
   48.5254    1.8064    5.7765 O   0  0  0  0  0  0  0  0  0  0  0  0
   47.9782    1.4569    7.0278 O   0  0  0  0  0  0  0  0  0  0  0  0
   47.9775    1.4611    7.0266 O   0  0  0  0  0  0  0  0  0  0  0  0
   47.9788    1.4532    7.0288 O   0  0  0  0  0  0  0  0  0  0  0  0
   47.8965    1.9277    6.8950 Mg  0  0  0  0  0 15  0  0  0  0  0  0
   47.8965    1.9277    6.8950 Mg  0  0  0  0  0 15  0  0  0  0  0  0
   47.9787    1.4540    7.0286 O   0  0  0  0  0  0  0  0  0  0  0  0
   47.9779    1.4589    7.0272 O   0  0  0  0  0  0  0  0  0  0  0  0
   47.9775    1.4609    7.0266 O   0  0  0  0  0  0  0  0  0  0  0  0
   47.9777    1.4596    7.0270 O   0  0  0  0  0  0  0  0  0  0  0  0
   47.9783    1.4566    7.0278 O   0  0  0  0  0  0  0  0  0  0  0  0
   47.9782    1.4569    7.0278 O   0  0  0  0  0  0  0  0  0  0  0  0
   47.9777    1.4597    7.0270 O   0  0  0  0  0  0  0  0  0  0  0  0
   47.9785    1.4555    7.0282 O   0  0  0  0  0  0  0  0  0  0  0  0
   47.9773    1.4618    7.0264 O   0  0  0  0  0  0  0  0  0  0  0  0
   47.9784    1.4556    7.0281 O   0  0  0  0  0  0  0  0  0  0  0  0
   47.9785    1.4552    7.0282 O   0  0  0  0  0  0  0  0  0  0  0  0
   47.9783    1.4566    7.0278 O   0  0  0  0  0  0  0  0  0  0  0  0
   47.9783    1.4566    7.0278 O   0  0  0  0  0  0  0  0  0  0  0  0
   47.8965    1.9277    6.8950 Al  0  0  0  0  0 15  0  0  0  0  0  0
   47.8965    1.9277    6.8950 Al  0  0  0  0  0 15  0  0  0  0  0  0
   47.8965    1.9277    6.8950 Mg  0  0  0  0  0 15  0  0  0  0  0  0
   47.8965    1.9277    6.8950 Mg  0  0  0  0  0 15  0  0  0  0  0  0
   47.8965    1.9277    6.8950 Mg  0  0  0  0  0 15  0  0  0  0  0  0
   47.8147    2.3986    6.7622 H   0  0  0  0  0  0  0  0  0  0  0  0
   47.8155    2.3944    6.7634 H   0  0  0  0  0  0  0  0  0  0  0  0
   47.8141    2.4023    6.7612 H   0  0  0  0  0  0  0  0  0  0  0  0
   47.8142    2.4014    6.7614 H   0  0  0  0  0  0  0  0  0  0  0  0
   47.8151    2.3966    6.7628 H   0  0  0  0  0  0  0  0  0  0  0  0
   47.8154    2.3946    6.7633 H   0  0  0  0  0  0  0  0  0  0  0  0
   47.8152    2.3958    6.7630 H   0  0  0  0  0  0  0  0  0  0  0  0
   47.8147    2.3989    6.7621 H   0  0  0  0  0  0  0  0  0  0  0  0
   47.8147    2.3986    6.7622 H   0  0  0  0  0  0  0  0  0  0  0  0
   47.8152    2.3957    6.7630 H   0  0  0  0  0  0  0  0  0  0  0  0
   47.8145    2.4000    6.7618 H   0  0  0  0  0  0  0  0  0  0  0  0
   47.8156    2.3937    6.7636 H   0  0  0  0  0  0  0  0  0  0  0  0
   47.8145    2.3999    6.7618 H   0  0  0  0  0  0  0  0  0  0  0  0
   47.8144    2.4003    6.7617 H   0  0  0  0  0  0  0  0  0  0  0  0
   47.8147    2.3989    6.7621 H   0  0  0  0  0  0  0  0  0  0  0  0
   47.8147    2.3989    6.7621 H   0  0  0  0  0  0  0  0  0  0  0  0
  3  2  1  0
  4  2  1  0
  5  2  2  0
  6 29  1  0
  7 30  1  0
  8 31  1  0
 11 32  1  0
 12 33  1  0
 13 34  1  0
 14 35  1  0
 15 36  1  0
 16 37  1  0
 17 38  1  0
 18 39  1  0
 19 40  1  0
 20 41  1  0
 21 42  1  0
 22 43  1  0
 23 44  1  0
M  CHG  8   1   2   3  -1   4  -1   6  -1   7  -1   8  -1   9   2  10   2
M  CHG  8  11  -1  12  -1  13  -1  14  -1  15  -1  16  -1  17  -1  18  -1
M  CHG  8  19  -1  20  -1  21  -1  22  -1  23  -1  24   3  25   3  26   2
M  CHG  2  27   2  28   2
M  END
> <Uni-Dock RESULT> 
ENERGY=  -11.888  LOWER_BOUND=    9.012  UPPER_BOUND=    9.487
INTER + INTRA:         -11.888
INTER:                 -11.888
INTRA:                   0.000
UNBOUND:                 0.000

$$$$

     RDKit          3D

 44 19  0  0  0  0  0  0  0  0999 V2000
   42.3721    5.4673   12.1283 Mg  0  0  0  0  0 15  0  0  0  0  0  0
   42.3811    5.4326   12.1110 C   0  0  0  0  0  0  0  0  0  0  0  0
   41.7467    6.5768   11.6694 O   0  0  0  0  0  0  0  0  0  0  0  0
   42.8353    5.3825   13.4154 O   0  0  0  0  0  0  0  0  0  0  0  0
   42.5252    4.4771   11.3176 O   0  0  0  0  0  0  0  0  0  0  0  0
   42.1015    5.7297   11.8060 O   0  0  0  0  0  0  0  0  0  0  0  0
   42.1039    5.7274   11.8088 O   0  0  0  0  0  0  0  0  0  0  0  0
   42.0994    5.7318   11.8035 O   0  0  0  0  0  0  0  0  0  0  0  0
   42.3721    5.4673   12.1283 Mg  0  0  0  0  0 15  0  0  0  0  0  0
   42.3721    5.4673   12.1283 Mg  0  0  0  0  0 15  0  0  0  0  0  0
   42.0999    5.7313   11.8040 O   0  0  0  0  0  0  0  0  0  0  0  0
   42.1026    5.7286   11.8074 O   0  0  0  0  0  0  0  0  0  0  0  0
   42.1038    5.7275   11.8087 O   0  0  0  0  0  0  0  0  0  0  0  0
   42.1031    5.7282   11.8079 O   0  0  0  0  0  0  0  0  0  0  0  0
   42.1013    5.7299   11.8058 O   0  0  0  0  0  0  0  0  0  0  0  0
   42.1015    5.7297   11.8060 O   0  0  0  0  0  0  0  0  0  0  0  0
   42.1031    5.7282   11.8079 O   0  0  0  0  0  0  0  0  0  0  0  0
   42.1007    5.7305   11.8050 O   0  0  0  0  0  0  0  0  0  0  0  0
   42.1043    5.7270   11.8094 O   0  0  0  0  0  0  0  0  0  0  0  0
   42.1007    5.7305   11.8051 O   0  0  0  0  0  0  0  0  0  0  0  0
   42.1005    5.7307   11.8048 O   0  0  0  0  0  0  0  0  0  0  0  0
   42.1013    5.7299   11.8058 O   0  0  0  0  0  0  0  0  0  0  0  0
   42.1013    5.7299   11.8058 O   0  0  0  0  0  0  0  0  0  0  0  0
   42.3721    5.4673   12.1283 Al  0  0  0  0  0 15  0  0  0  0  0  0
   42.3721    5.4673   12.1283 Al  0  0  0  0  0 15  0  0  0  0  0  0
   42.3721    5.4673   12.1283 Mg  0  0  0  0  0 15  0  0  0  0  0  0
   42.3721    5.4673   12.1283 Mg  0  0  0  0  0 15  0  0  0  0  0  0
   42.3721    5.4673   12.1283 Mg  0  0  0  0  0 15  0  0  0  0  0  0
   42.6426    5.2048   12.4507 H   0  0  0  0  0  0  0  0  0  0  0  0
   42.6402    5.2071   12.4478 H   0  0  0  0  0  0  0  0  0  0  0  0
   42.6448    5.2027   12.4532 H   0  0  0  0  0  0  0  0  0  0  0  0
   42.6443    5.2032   12.4526 H   0  0  0  0  0  0  0  0  0  0  0  0
   42.6415    5.2059   12.4493 H   0  0  0  0  0  0  0  0  0  0  0  0
   42.6404    5.2070   12.4480 H   0  0  0  0  0  0  0  0  0  0  0  0
   42.6411    5.2063   12.4488 H   0  0  0  0  0  0  0  0  0  0  0  0
   42.6428    5.2046   12.4509 H   0  0  0  0  0  0  0  0  0  0  0  0
   42.6426    5.2048   12.4507 H   0  0  0  0  0  0  0  0  0  0  0  0
   42.6410    5.2064   12.4487 H   0  0  0  0  0  0  0  0  0  0  0  0
   42.6435    5.2040   12.4517 H   0  0  0  0  0  0  0  0  0  0  0  0
   42.6398    5.2075   12.4473 H   0  0  0  0  0  0  0  0  0  0  0  0
   42.6434    5.2040   12.4516 H   0  0  0  0  0  0  0  0  0  0  0  0
   42.6436    5.2038   12.4519 H   0  0  0  0  0  0  0  0  0  0  0  0
   42.6428    5.2046   12.4509 H   0  0  0  0  0  0  0  0  0  0  0  0
   42.6428    5.2046   12.4509 H   0  0  0  0  0  0  0  0  0  0  0  0
  3  2  1  0
  4  2  1  0
  5  2  2  0
  6 29  1  0
  7 30  1  0
  8 31  1  0
 11 32  1  0
 12 33  1  0
 13 34  1  0
 14 35  1  0
 15 36  1  0
 16 37  1  0
 17 38  1  0
 18 39  1  0
 19 40  1  0
 20 41  1  0
 21 42  1  0
 22 43  1  0
 23 44  1  0
M  CHG  8   1   2   3  -1   4  -1   6  -1   7  -1   8  -1   9   2  10   2
M  CHG  8  11  -1  12  -1  13  -1  14  -1  15  -1  16  -1  17  -1  18  -1
M  CHG  8  19  -1  20  -1  21  -1  22  -1  23  -1  24   3  25   3  26   2
M  CHG  2  27   2  28   2
M  END
> <Uni-Dock RESULT> 
ENERGY=  -11.094  LOWER_BOUND=    7.358  UPPER_BOUND=    7.477
INTER + INTRA:         -11.094
INTER:                 -11.094
INTRA:                   0.000
UNBOUND:                 0.000

$$$$
