
     RDKit          3D

 67 71  0  0  0  0  0  0  0  0999 V2000
   41.1295  -10.5711  -10.7141 C   0  0  0  0  0  0  0  0  0  0  0  0
   42.1302  -10.5377  -11.6930 C   0  0  0  0  0  0  0  0  0  0  0  0
   41.8367  -10.8310  -13.0370 C   0  0  0  0  0  0  0  0  0  0  0  0
   40.5135  -11.1712  -13.3707 C   0  0  0  0  0  0  0  0  0  0  0  0
   39.5126  -11.2002  -12.3980 C   0  0  0  0  0  0  0  0  0  0  0  0
   39.8193  -10.9002  -11.0712 C   0  0  0  0  0  0  0  0  0  0  0  0
   43.2433  -12.9954  -15.4277 C   0  0  0  0  0  0  0  0  0  0  0  0
   43.5130  -12.2396  -14.2785 C   0  0  0  0  0  0  0  0  0  0  0  0
   42.9165  -10.8432  -14.1266 C   0  0  2  0  0  0  0  0  0  0  0  0
   44.3184  -12.8098  -13.2724 C   0  0  0  0  0  0  0  0  0  0  0  0
   44.8298  -14.1156  -13.3783 C   0  0  0  0  0  0  0  0  0  0  0  0
   44.5228  -14.8459  -14.5311 C   0  0  0  0  0  0  0  0  0  0  0  0
   43.7484  -14.2878  -15.5493 C   0  0  0  0  0  0  0  0  0  0  0  0
   44.9137  -16.1115  -14.7111 F   0  0  0  0  0  0  0  0  0  0  0  0
   46.4581  -16.6034  -12.9677 O   0  0  0  0  0  0  0  0  0  0  0  0
   46.2874  -15.7480  -12.1153 C   0  0  0  0  0  0  0  0  0  0  0  0
   45.5857  -14.5664  -12.2705 N   0  0  0  0  0  0  0  0  0  0  0  0
   41.4516  -10.2726   -9.3495 C   0  0  0  0  0  0  0  0  0  0  0  0
   41.7159  -10.0380   -8.2445 N   0  0  0  0  0  0  0  0  0  0  0  0
   43.9313   -9.8036  -13.8823 N   0  0  0  0  0  0  0  0  0  0  0  0
   44.8759   -9.6028  -14.9849 C   0  0  0  0  0  0  0  0  0  0  0  0
   44.2037   -9.0545  -16.2070 C   0  0  0  0  0  0  0  0  0  0  0  0
   44.8310   -7.9323  -16.9981 C   0  0  0  0  0  0  0  0  0  0  0  0
   43.5796   -7.6795  -16.2024 C   0  0  0  0  0  0  0  0  0  0  0  0
   46.8296  -15.8931  -10.7815 C   0  0  0  0  0  0  0  0  0  0  0  0
   46.1650  -15.6745   -9.5851 C   0  0  0  0  0  0  0  0  0  0  0  0
   47.0189  -16.1436   -8.5645 C   0  0  0  0  0  0  0  0  0  0  0  0
   48.1697  -16.5928   -9.0872 N   0  0  0  0  0  0  0  0  0  0  0  0
   48.0860  -16.3806  -10.4367 N   0  0  0  0  0  0  0  0  0  0  0  0
   46.7142  -16.1864   -7.0895 C   0  0  0  0  0  0  0  0  0  0  0  0
   47.7891  -15.8881   -6.3143 F   0  0  0  0  0  0  0  0  0  0  0  0
   45.7414  -15.2916   -6.7587 F   0  0  0  0  0  0  0  0  0  0  0  0
   46.2604  -17.4054   -6.6961 F   0  0  0  0  0  0  0  0  0  0  0  0
   49.2593  -16.5914  -11.2283 C   0  0  0  0  0  0  0  0  0  0  0  0
   50.3427  -17.2859  -10.6592 C   0  0  0  0  0  0  0  0  0  0  0  0
   49.3978  -16.0776  -12.5239 C   0  0  0  0  0  0  0  0  0  0  0  0
   50.5764  -16.2896  -13.2469 C   0  0  0  0  0  0  0  0  0  0  0  0
   51.6301  -17.0060  -12.6817 C   0  0  0  0  0  0  0  0  0  0  0  0
   51.5254  -17.5135  -11.3822 C   0  0  0  0  0  0  0  0  0  0  0  0
   52.6762  -18.2618  -10.7584 C   0  0  0  0  0  0  0  0  0  0  0  0
   53.7270  -17.3455  -10.3386 N   0  0  0  0  0  0  0  0  0  0  0  0
   43.1500  -10.2855  -11.4048 H   0  0  0  0  0  0  0  0  0  0  0  0
   40.2539  -11.4271  -14.3973 H   0  0  0  0  0  0  0  0  0  0  0  0
   38.4940  -11.4652  -12.6759 H   0  0  0  0  0  0  0  0  0  0  0  0
   39.0329  -10.9293  -10.3190 H   0  0  0  0  0  0  0  0  0  0  0  0
   42.6339  -12.5892  -16.2311 H   0  0  0  0  0  0  0  0  0  0  0  0
   42.3877  -10.5829  -15.0547 H   0  0  0  0  0  0  0  0  0  0  0  0
   44.5398  -12.2093  -12.3913 H   0  0  0  0  0  0  0  0  0  0  0  0
   43.5380  -14.8846  -16.4347 H   0  0  0  0  0  0  0  0  0  0  0  0
   45.6694  -13.9092  -11.5084 H   0  0  0  0  0  0  0  0  0  0  0  0
   43.4415   -8.9226  -13.7307 H   0  0  0  0  0  0  0  0  0  0  0  0
   45.6387   -8.8964  -14.6317 H   0  0  0  0  0  0  0  0  0  0  0  0
   45.4144  -10.5250  -15.2308 H   0  0  0  0  0  0  0  0  0  0  0  0
   43.7093   -9.8307  -16.7797 H   0  0  0  0  0  0  0  0  0  0  0  0
   45.7517   -7.4838  -16.6394 H   0  0  0  0  0  0  0  0  0  0  0  0
   44.7469   -7.9559  -18.0802 H   0  0  0  0  0  0  0  0  0  0  0  0
   43.6811   -7.0449  -15.3298 H   0  0  0  0  0  0  0  0  0  0  0  0
   42.6490   -7.5435  -16.7440 H   0  0  0  0  0  0  0  0  0  0  0  0
   45.1543  -15.3040   -9.4627 H   0  0  0  0  0  0  0  0  0  0  0  0
   50.2735  -17.6722   -9.6444 H   0  0  0  0  0  0  0  0  0  0  0  0
   48.6302  -15.4839  -13.0078 H   0  0  0  0  0  0  0  0  0  0  0  0
   50.6737  -15.8881  -14.2528 H   0  0  0  0  0  0  0  0  0  0  0  0
   52.5463  -17.1530  -13.2511 H   0  0  0  0  0  0  0  0  0  0  0  0
   53.0798  -18.9814  -11.4796 H   0  0  0  0  0  0  0  0  0  0  0  0
   52.3266  -18.8464   -9.8995 H   0  0  0  0  0  0  0  0  0  0  0  0
   54.4582  -17.8524   -9.8516 H   0  0  0  0  0  0  0  0  0  0  0  0
   53.3385  -16.6781   -9.6720 H   0  0  0  0  0  0  0  0  0  0  0  0
  1  2  2  0
  2  3  1  0
  3  4  2  0
  4  5  1  0
  5  6  2  0
  1  6  1  0
  7  8  2  0
  8  9  1  0
  9  3  1  0
 10 11  2  0
 11 12  1  0
 12 13  2  0
  7 13  1  0
  8 10  1  0
 15 16  2  0
 16 17  1  0
 14 12  1  0
 17 11  1  0
  1 18  1  0
 18 19  3  0
  9 20  1  0
 20 21  1  0
 21 22  1  0
 22 23  1  0
 22 24  1  0
 23 24  1  0
 16 25  1  0
 26 27  1  0
 27 28  2  0
 28 29  1  0
 29 25  1  0
 26 25  2  0
 27 30  1  0
 30 31  1  0
 30 32  1  0
 30 33  1  0
 29 34  1  0
 36 37  1  0
 37 38  2  0
 38 39  1  0
 35 39  2  0
 35 34  1  0
 34 36  2  0
 39 40  1  0
 40 41  1  0
  2 42  1  0
  4 43  1  0
  5 44  1  0
  6 45  1  0
  7 46  1  0
  9 47  1  1
 10 48  1  0
 13 49  1  0
 17 50  1  0
 20 51  1  0
 21 52  1  0
 21 53  1  0
 22 54  1  0
 23 55  1  0
 23 56  1  0
 24 57  1  0
 24 58  1  0
 26 59  1  0
 35 60  1  0
 36 61  1  0
 37 62  1  0
 38 63  1  0
 40 64  1  0
 40 65  1  0
 41 66  1  0
 41 67  1  0
M  END
> <Uni-Dock RESULT> 
ENERGY=   -4.159  LOWER_BOUND=    0.000  UPPER_BOUND=    0.000
INTER + INTRA:          -4.159
INTER:                  -4.159
INTRA:                   0.000
UNBOUND:                 0.000

$$$$

     RDKit          3D

 67 71  0  0  0  0  0  0  0  0999 V2000
   41.8998   -7.7346   -7.9019 C   0  0  0  0  0  0  0  0  0  0  0  0
   43.2534   -8.0768   -8.0087 C   0  0  0  0  0  0  0  0  0  0  0  0
   44.1996   -7.1465   -8.4753 C   0  0  0  0  0  0  0  0  0  0  0  0
   43.7489   -5.8662   -8.8440 C   0  0  0  0  0  0  0  0  0  0  0  0
   42.4010   -5.5203   -8.7337 C   0  0  0  0  0  0  0  0  0  0  0  0
   41.4769   -6.4526   -8.2628 C   0  0  0  0  0  0  0  0  0  0  0  0
   46.6969   -7.2362  -10.9519 C   0  0  0  0  0  0  0  0  0  0  0  0
   45.9574   -8.0167  -10.0527 C   0  0  0  0  0  0  0  0  0  0  0  0
   45.6825   -7.5015   -8.6427 C   0  0  2  0  0  0  0  0  0  0  0  0
   45.4620   -9.2607  -10.4917 C   0  0  0  0  0  0  0  0  0  0  0  0
   45.6642   -9.7217  -11.8049 C   0  0  0  0  0  0  0  0  0  0  0  0
   46.3902   -8.9060  -12.6790 C   0  0  0  0  0  0  0  0  0  0  0  0
   46.9107   -7.6828  -12.2538 C   0  0  0  0  0  0  0  0  0  0  0  0
   46.5968   -9.2234  -13.9610 F   0  0  0  0  0  0  0  0  0  0  0  0
   45.8748  -11.4755  -14.2317 O   0  0  0  0  0  0  0  0  0  0  0  0
   45.1673  -11.7203  -13.2688 C   0  0  0  0  0  0  0  0  0  0  0  0
   45.0711  -10.9692  -12.1116 N   0  0  0  0  0  0  0  0  0  0  0  0
   40.9518   -8.6997   -7.4276 C   0  0  0  0  0  0  0  0  0  0  0  0
   40.1851   -9.4845   -7.0507 N   0  0  0  0  0  0  0  0  0  0  0  0
   46.1302   -8.4294   -7.5898 N   0  0  0  0  0  0  0  0  0  0  0  0
   47.5787   -8.6493   -7.5466 C   0  0  0  0  0  0  0  0  0  0  0  0
   48.3235   -7.4079   -7.1592 C   0  0  0  0  0  0  0  0  0  0  0  0
   49.4522   -7.4627   -6.1583 C   0  0  0  0  0  0  0  0  0  0  0  0
   48.1560   -6.7940   -5.7898 C   0  0  0  0  0  0  0  0  0  0  0  0
   44.3079  -12.8842  -13.2405 C   0  0  0  0  0  0  0  0  0  0  0  0
   42.9763  -12.9259  -12.8583 C   0  0  0  0  0  0  0  0  0  0  0  0
   42.5060  -14.2126  -13.1957 C   0  0  0  0  0  0  0  0  0  0  0  0
   43.4959  -14.9495  -13.7216 N   0  0  0  0  0  0  0  0  0  0  0  0
   44.6163  -14.1641  -13.6899 N   0  0  0  0  0  0  0  0  0  0  0  0
   41.0966  -14.7219  -13.0390 C   0  0  0  0  0  0  0  0  0  0  0  0
   41.0397  -16.0223  -12.6507 F   0  0  0  0  0  0  0  0  0  0  0  0
   40.4145  -14.0097  -12.0988 F   0  0  0  0  0  0  0  0  0  0  0  0
   40.3828  -14.6143  -14.1904 F   0  0  0  0  0  0  0  0  0  0  0  0
   45.8731  -14.7657  -14.0155 C   0  0  0  0  0  0  0  0  0  0  0  0
   45.8772  -16.0273  -14.6386 C   0  0  0  0  0  0  0  0  0  0  0  0
   47.1000  -14.1792  -13.6800 C   0  0  0  0  0  0  0  0  0  0  0  0
   48.3016  -14.8211  -13.9977 C   0  0  0  0  0  0  0  0  0  0  0  0
   48.2908  -16.0566  -14.6427 C   0  0  0  0  0  0  0  0  0  0  0  0
   47.0791  -16.6737  -14.9717 C   0  0  0  0  0  0  0  0  0  0  0  0
   47.0659  -18.0245  -15.6416 C   0  0  0  0  0  0  0  0  0  0  0  0
   47.3696  -19.0819  -14.6878 N   0  0  0  0  0  0  0  0  0  0  0  0
   43.5733   -9.0802   -7.7302 H   0  0  0  0  0  0  0  0  0  0  0  0
   44.4493   -5.1275   -9.2317 H   0  0  0  0  0  0  0  0  0  0  0  0
   42.0714   -4.5241   -9.0234 H   0  0  0  0  0  0  0  0  0  0  0  0
   40.4273   -6.1749   -8.1840 H   0  0  0  0  0  0  0  0  0  0  0  0
   47.1043   -6.2745  -10.6503 H   0  0  0  0  0  0  0  0  0  0  0  0
   46.2202   -6.5527   -8.5031 H   0  0  0  0  0  0  0  0  0  0  0  0
   44.9051   -9.8703   -9.7816 H   0  0  0  0  0  0  0  0  0  0  0  0
   47.4774   -7.0802  -12.9611 H   0  0  0  0  0  0  0  0  0  0  0  0
   44.5495  -11.3960  -11.3598 H   0  0  0  0  0  0  0  0  0  0  0  0
   45.8504   -8.0366   -6.6918 H   0  0  0  0  0  0  0  0  0  0  0  0
   47.7632   -9.4395   -6.8069 H   0  0  0  0  0  0  0  0  0  0  0  0
   47.9587   -9.0372   -8.4984 H   0  0  0  0  0  0  0  0  0  0  0  0
   48.4564   -6.7367   -7.9999 H   0  0  0  0  0  0  0  0  0  0  0  0
   49.6841   -8.4061   -5.6750 H   0  0  0  0  0  0  0  0  0  0  0  0
   50.3188   -6.8303   -6.3249 H   0  0  0  0  0  0  0  0  0  0  0  0
   47.5477   -7.2949   -5.0458 H   0  0  0  0  0  0  0  0  0  0  0  0
   48.1425   -5.7112   -5.7180 H   0  0  0  0  0  0  0  0  0  0  0  0
   42.3883  -12.1054  -12.4650 H   0  0  0  0  0  0  0  0  0  0  0  0
   44.9387  -16.5193  -14.8858 H   0  0  0  0  0  0  0  0  0  0  0  0
   47.1772  -13.2371  -13.1485 H   0  0  0  0  0  0  0  0  0  0  0  0
   49.2490  -14.3568  -13.7344 H   0  0  0  0  0  0  0  0  0  0  0  0
   49.2332  -16.5508  -14.8730 H   0  0  0  0  0  0  0  0  0  0  0  0
   47.8005  -18.0380  -16.4546 H   0  0  0  0  0  0  0  0  0  0  0  0
   46.0888  -18.2086  -16.1033 H   0  0  0  0  0  0  0  0  0  0  0  0
   47.2810  -19.9892  -15.1324 H   0  0  0  0  0  0  0  0  0  0  0  0
   46.6828  -19.0561  -13.9339 H   0  0  0  0  0  0  0  0  0  0  0  0
  1  2  2  0
  2  3  1  0
  3  4  2  0
  4  5  1  0
  5  6  2  0
  1  6  1  0
  7  8  2  0
  8  9  1  0
  9  3  1  0
 10 11  2  0
 11 12  1  0
 12 13  2  0
  7 13  1  0
  8 10  1  0
 15 16  2  0
 16 17  1  0
 14 12  1  0
 17 11  1  0
  1 18  1  0
 18 19  3  0
  9 20  1  0
 20 21  1  0
 21 22  1  0
 22 23  1  0
 22 24  1  0
 23 24  1  0
 16 25  1  0
 26 27  1  0
 27 28  2  0
 28 29  1  0
 29 25  1  0
 26 25  2  0
 27 30  1  0
 30 31  1  0
 30 32  1  0
 30 33  1  0
 29 34  1  0
 36 37  1  0
 37 38  2  0
 38 39  1  0
 35 39  2  0
 35 34  1  0
 34 36  2  0
 39 40  1  0
 40 41  1  0
  2 42  1  0
  4 43  1  0
  5 44  1  0
  6 45  1  0
  7 46  1  0
  9 47  1  1
 10 48  1  0
 13 49  1  0
 17 50  1  0
 20 51  1  0
 21 52  1  0
 21 53  1  0
 22 54  1  0
 23 55  1  0
 23 56  1  0
 24 57  1  0
 24 58  1  0
 26 59  1  0
 35 60  1  0
 36 61  1  0
 37 62  1  0
 38 63  1  0
 40 64  1  0
 40 65  1  0
 41 66  1  0
 41 67  1  0
M  END
> <Uni-Dock RESULT> 
ENERGY=   -3.971  LOWER_BOUND=    4.418  UPPER_BOUND=    6.727
INTER + INTRA:          -3.971
INTER:                  -3.971
INTRA:                   0.000
UNBOUND:                 0.000

$$$$

     RDKit          3D

 67 71  0  0  0  0  0  0  0  0999 V2000
   41.8651   -7.8161   -7.9154 C   0  0  0  0  0  0  0  0  0  0  0  0
   43.2232   -8.1397   -8.0237 C   0  0  0  0  0  0  0  0  0  0  0  0
   44.1564   -7.1955   -8.4884 C   0  0  0  0  0  0  0  0  0  0  0  0
   43.6883   -5.9205   -8.8534 C   0  0  0  0  0  0  0  0  0  0  0  0
   42.3359   -5.5931   -8.7415 C   0  0  0  0  0  0  0  0  0  0  0  0
   41.4248   -6.5390   -8.2726 C   0  0  0  0  0  0  0  0  0  0  0  0
   46.6534   -7.2449  -10.9666 C   0  0  0  0  0  0  0  0  0  0  0  0
   45.9250   -8.0377  -10.0690 C   0  0  0  0  0  0  0  0  0  0  0  0
   45.6440   -7.5299   -8.6575 C   0  0  2  0  0  0  0  0  0  0  0  0
   45.4461   -9.2871  -10.5112 C   0  0  0  0  0  0  0  0  0  0  0  0
   45.6538   -9.7418  -11.8256 C   0  0  0  0  0  0  0  0  0  0  0  0
   46.3682   -8.9141  -12.6980 C   0  0  0  0  0  0  0  0  0  0  0  0
   46.8724   -7.6851  -12.2698 C   0  0  0  0  0  0  0  0  0  0  0  0
   46.5783   -9.2252  -13.9810 F   0  0  0  0  0  0  0  0  0  0  0  0
   45.8867  -11.4862  -14.2572 O   0  0  0  0  0  0  0  0  0  0  0  0
   45.1831  -11.7431  -13.2946 C   0  0  0  0  0  0  0  0  0  0  0  0
   45.0775  -10.9964  -12.1354 N   0  0  0  0  0  0  0  0  0  0  0  0
   40.9305   -8.7952   -7.4431 C   0  0  0  0  0  0  0  0  0  0  0  0
   40.1747   -9.5913   -7.0679 N   0  0  0  0  0  0  0  0  0  0  0  0
   46.1047   -8.4546   -7.6073 N   0  0  0  0  0  0  0  0  0  0  0  0
   47.5561   -8.6550   -7.5655 C   0  0  0  0  0  0  0  0  0  0  0  0
   48.2843   -7.4047   -7.1752 C   0  0  0  0  0  0  0  0  0  0  0  0
   49.4142   -7.4468   -6.1751 C   0  0  0  0  0  0  0  0  0  0  0  0
   48.1092   -6.7967   -5.8041 C   0  0  0  0  0  0  0  0  0  0  0  0
   44.3396  -12.9185  -13.2689 C   0  0  0  0  0  0  0  0  0  0  0  0
   43.0089  -12.9792  -12.8861 C   0  0  0  0  0  0  0  0  0  0  0  0
   42.5558  -14.2713  -13.2268 C   0  0  0  0  0  0  0  0  0  0  0  0
   43.5552  -14.9933  -13.7551 N   0  0  0  0  0  0  0  0  0  0  0  0
   44.6649  -14.1929  -13.7219 N   0  0  0  0  0  0  0  0  0  0  0  0
   41.1535  -14.8000  -13.0706 C   0  0  0  0  0  0  0  0  0  0  0  0
   41.1144  -16.1021  -12.6857 F   0  0  0  0  0  0  0  0  0  0  0  0
   40.4624  -14.0996  -12.1282 F   0  0  0  0  0  0  0  0  0  0  0  0
   40.4377  -14.6990  -14.2213 F   0  0  0  0  0  0  0  0  0  0  0  0
   45.9296  -14.7766  -14.0499 C   0  0  0  0  0  0  0  0  0  0  0  0
   45.9503  -16.0364  -14.6763 C   0  0  0  0  0  0  0  0  0  0  0  0
   47.1486  -14.1745  -13.7134 C   0  0  0  0  0  0  0  0  0  0  0  0
   48.3586  -14.7992  -14.0334 C   0  0  0  0  0  0  0  0  0  0  0  0
   48.3641  -16.0331  -14.6817 C   0  0  0  0  0  0  0  0  0  0  0  0
   47.1607  -16.6656  -15.0118 C   0  0  0  0  0  0  0  0  0  0  0  0
   47.1654  -18.0147  -15.6852 C   0  0  0  0  0  0  0  0  0  0  0  0
   47.4839  -19.0704  -14.7345 N   0  0  0  0  0  0  0  0  0  0  0  0
   43.5568   -9.1394   -7.7481 H   0  0  0  0  0  0  0  0  0  0  0  0
   44.3784   -5.1713   -9.2395 H   0  0  0  0  0  0  0  0  0  0  0  0
   41.9927   -4.6007   -9.0283 H   0  0  0  0  0  0  0  0  0  0  0  0
   40.3715   -6.2757   -8.1925 H   0  0  0  0  0  0  0  0  0  0  0  0
   47.0479   -6.2786  -10.6627 H   0  0  0  0  0  0  0  0  0  0  0  0
   46.1688   -6.5744   -8.5157 H   0  0  0  0  0  0  0  0  0  0  0  0
   44.8980   -9.9060   -9.8023 H   0  0  0  0  0  0  0  0  0  0  0  0
   47.4304   -7.0730  -12.9758 H   0  0  0  0  0  0  0  0  0  0  0  0
   44.5620  -11.4322  -11.3844 H   0  0  0  0  0  0  0  0  0  0  0  0
   45.8201   -8.0680   -6.7081 H   0  0  0  0  0  0  0  0  0  0  0  0
   47.7516   -9.4446   -6.8280 H   0  0  0  0  0  0  0  0  0  0  0  0
   47.9408   -9.0351   -8.5186 H   0  0  0  0  0  0  0  0  0  0  0  0
   48.4076   -6.7295   -8.0142 H   0  0  0  0  0  0  0  0  0  0  0  0
   49.6590   -8.3883   -5.6945 H   0  0  0  0  0  0  0  0  0  0  0  0
   50.2720   -6.8023   -6.3404 H   0  0  0  0  0  0  0  0  0  0  0  0
   47.5082   -7.3077   -5.0611 H   0  0  0  0  0  0  0  0  0  0  0  0
   48.0812   -5.7144   -5.7294 H   0  0  0  0  0  0  0  0  0  0  0  0
   42.4100  -12.1678  -12.4903 H   0  0  0  0  0  0  0  0  0  0  0  0
   45.0185  -16.5403  -14.9243 H   0  0  0  0  0  0  0  0  0  0  0  0
   47.2134  -13.2328  -13.1794 H   0  0  0  0  0  0  0  0  0  0  0  0
   49.2998  -14.3228  -13.7695 H   0  0  0  0  0  0  0  0  0  0  0  0
   49.3130  -16.5138  -14.9139 H   0  0  0  0  0  0  0  0  0  0  0  0
   47.8997  -18.0160  -16.4987 H   0  0  0  0  0  0  0  0  0  0  0  0
   46.1906  -18.2108  -16.1469 H   0  0  0  0  0  0  0  0  0  0  0  0
   47.4073  -19.9776  -15.1814 H   0  0  0  0  0  0  0  0  0  0  0  0
   46.7972  -19.0559  -13.9801 H   0  0  0  0  0  0  0  0  0  0  0  0
  1  2  2  0
  2  3  1  0
  3  4  2  0
  4  5  1  0
  5  6  2  0
  1  6  1  0
  7  8  2  0
  8  9  1  0
  9  3  1  0
 10 11  2  0
 11 12  1  0
 12 13  2  0
  7 13  1  0
  8 10  1  0
 15 16  2  0
 16 17  1  0
 14 12  1  0
 17 11  1  0
  1 18  1  0
 18 19  3  0
  9 20  1  0
 20 21  1  0
 21 22  1  0
 22 23  1  0
 22 24  1  0
 23 24  1  0
 16 25  1  0
 26 27  1  0
 27 28  2  0
 28 29  1  0
 29 25  1  0
 26 25  2  0
 27 30  1  0
 30 31  1  0
 30 32  1  0
 30 33  1  0
 29 34  1  0
 36 37  1  0
 37 38  2  0
 38 39  1  0
 35 39  2  0
 35 34  1  0
 34 36  2  0
 39 40  1  0
 40 41  1  0
  2 42  1  0
  4 43  1  0
  5 44  1  0
  6 45  1  0
  7 46  1  0
  9 47  1  1
 10 48  1  0
 13 49  1  0
 17 50  1  0
 20 51  1  0
 21 52  1  0
 21 53  1  0
 22 54  1  0
 23 55  1  0
 23 56  1  0
 24 57  1  0
 24 58  1  0
 26 59  1  0
 35 60  1  0
 36 61  1  0
 37 62  1  0
 38 63  1  0
 40 64  1  0
 40 65  1  0
 41 66  1  0
 41 67  1  0
M  END
> <Uni-Dock RESULT> 
ENERGY=   -3.960  LOWER_BOUND=    4.417  UPPER_BOUND=    6.694
INTER + INTRA:          -3.960
INTER:                  -3.960
INTRA:                   0.000
UNBOUND:                 0.000

$$$$

     RDKit          3D

 67 71  0  0  0  0  0  0  0  0999 V2000
   50.4885  -17.9123  -11.9711 C   0  0  0  0  0  0  0  0  0  0  0  0
   49.4847  -17.7698  -11.0052 C   0  0  0  0  0  0  0  0  0  0  0  0
   48.4973  -18.7574  -10.8375 C   0  0  0  0  0  0  0  0  0  0  0  0
   48.5369  -19.8873  -11.6740 C   0  0  0  0  0  0  0  0  0  0  0  0
   49.5394  -20.0349  -12.6342 C   0  0  0  0  0  0  0  0  0  0  0  0
   50.5147  -19.0493  -12.7829 C   0  0  0  0  0  0  0  0  0  0  0  0
   44.9825  -18.6973  -10.6937 C   0  0  0  0  0  0  0  0  0  0  0  0
   46.1441  -17.9498  -10.4561 C   0  0  0  0  0  0  0  0  0  0  0  0
   47.3609  -18.6135   -9.8172 C   0  0  2  0  0  0  0  0  0  0  0  0
   46.1624  -16.5946  -10.8422 C   0  0  0  0  0  0  0  0  0  0  0  0
   45.0660  -15.9867  -11.4795 C   0  0  0  0  0  0  0  0  0  0  0  0
   43.9319  -16.7702  -11.7173 C   0  0  0  0  0  0  0  0  0  0  0  0
   43.8864  -18.1068  -11.3182 C   0  0  0  0  0  0  0  0  0  0  0  0
   42.8553  -16.3079  -12.3608 F   0  0  0  0  0  0  0  0  0  0  0  0
   43.1512  -13.9565  -12.5845 O   0  0  0  0  0  0  0  0  0  0  0  0
   44.3374  -13.7467  -12.3938 C   0  0  0  0  0  0  0  0  0  0  0  0
   45.2475  -14.6322  -11.8460 N   0  0  0  0  0  0  0  0  0  0  0  0
   51.4826  -16.8915  -12.1276 C   0  0  0  0  0  0  0  0  0  0  0  0
   52.2818  -16.0607  -12.2578 N   0  0  0  0  0  0  0  0  0  0  0  0
   47.8226  -17.9256   -8.5991 N   0  0  0  0  0  0  0  0  0  0  0  0
   46.8634  -17.9385   -7.4910 C   0  0  0  0  0  0  0  0  0  0  0  0
   46.6368  -19.3219   -6.9610 C   0  0  0  0  0  0  0  0  0  0  0  0
   46.5950  -19.5846   -5.4751 C   0  0  0  0  0  0  0  0  0  0  0  0
   47.7506  -20.0928   -6.2934 C   0  0  0  0  0  0  0  0  0  0  0  0
   44.9456  -12.4811  -12.7437 C   0  0  0  0  0  0  0  0  0  0  0  0
   46.1352  -12.2912  -13.4292 C   0  0  0  0  0  0  0  0  0  0  0  0
   46.2104  -10.9127  -13.7205 C   0  0  0  0  0  0  0  0  0  0  0  0
   45.1495  -10.2685  -13.2116 N   0  0  0  0  0  0  0  0  0  0  0  0
   44.4065  -11.2126  -12.5560 N   0  0  0  0  0  0  0  0  0  0  0  0
   47.2885  -10.2214  -14.5142 C   0  0  0  0  0  0  0  0  0  0  0  0
   47.6104   -8.9968  -14.0223 F   0  0  0  0  0  0  0  0  0  0  0  0
   48.4411  -10.9480  -14.5212 F   0  0  0  0  0  0  0  0  0  0  0  0
   46.9368  -10.0523  -15.8158 F   0  0  0  0  0  0  0  0  0  0  0  0
   43.3092  -10.7702  -11.7511 C   0  0  0  0  0  0  0  0  0  0  0  0
   42.8516   -9.4479  -11.9004 C   0  0  0  0  0  0  0  0  0  0  0  0
   42.7150  -11.5796  -10.7746 C   0  0  0  0  0  0  0  0  0  0  0  0
   41.6613  -11.0905   -9.9954 C   0  0  0  0  0  0  0  0  0  0  0  0
   41.1978   -9.7883  -10.1754 C   0  0  0  0  0  0  0  0  0  0  0  0
   41.7864   -8.9523  -11.1303 C   0  0  0  0  0  0  0  0  0  0  0  0
   41.3064   -7.5336  -11.3044 C   0  0  0  0  0  0  0  0  0  0  0  0
   41.7942   -6.6828  -10.2281 N   0  0  0  0  0  0  0  0  0  0  0  0
   49.4688  -16.8776  -10.3803 H   0  0  0  0  0  0  0  0  0  0  0  0
   47.7752  -20.6614  -11.5886 H   0  0  0  0  0  0  0  0  0  0  0  0
   49.5537  -20.9170  -13.2719 H   0  0  0  0  0  0  0  0  0  0  0  0
   51.2901  -19.1714  -13.5371 H   0  0  0  0  0  0  0  0  0  0  0  0
   44.9241  -19.7432  -10.4031 H   0  0  0  0  0  0  0  0  0  0  0  0
   47.0952  -19.6435   -9.5394 H   0  0  0  0  0  0  0  0  0  0  0  0
   47.0612  -16.0151  -10.6366 H   0  0  0  0  0  0  0  0  0  0  0  0
   42.9830  -18.6815  -11.5135 H   0  0  0  0  0  0  0  0  0  0  0  0
   46.1527  -14.2427  -11.6258 H   0  0  0  0  0  0  0  0  0  0  0  0
   48.6692  -18.3954   -8.2806 H   0  0  0  0  0  0  0  0  0  0  0  0
   47.2767  -17.3001   -6.6990 H   0  0  0  0  0  0  0  0  0  0  0  0
   45.9089  -17.4812   -7.7752 H   0  0  0  0  0  0  0  0  0  0  0  0
   45.9328  -19.8781   -7.5692 H   0  0  0  0  0  0  0  0  0  0  0  0
   46.7888  -18.7669   -4.7887 H   0  0  0  0  0  0  0  0  0  0  0  0
   45.8810  -20.3118   -5.1010 H   0  0  0  0  0  0  0  0  0  0  0  0
   48.7093  -19.6164   -6.1247 H   0  0  0  0  0  0  0  0  0  0  0  0
   47.8124  -21.1597   -6.4821 H   0  0  0  0  0  0  0  0  0  0  0  0
   46.8245  -13.0598  -13.7577 H   0  0  0  0  0  0  0  0  0  0  0  0
   43.3130   -8.7878  -12.6319 H   0  0  0  0  0  0  0  0  0  0  0  0
   43.0501  -12.5887  -10.5617 H   0  0  0  0  0  0  0  0  0  0  0  0
   41.2054  -11.7273   -9.2410 H   0  0  0  0  0  0  0  0  0  0  0  0
   40.3851   -9.4165   -9.5536 H   0  0  0  0  0  0  0  0  0  0  0  0
   40.2108   -7.5164  -11.3213 H   0  0  0  0  0  0  0  0  0  0  0  0
   41.6378   -7.1377  -12.2715 H   0  0  0  0  0  0  0  0  0  0  0  0
   41.5302   -5.7184  -10.3984 H   0  0  0  0  0  0  0  0  0  0  0  0
   42.8139   -6.7108  -10.2193 H   0  0  0  0  0  0  0  0  0  0  0  0
  1  2  2  0
  2  3  1  0
  3  4  2  0
  4  5  1  0
  5  6  2  0
  1  6  1  0
  7  8  2  0
  8  9  1  0
  9  3  1  0
 10 11  2  0
 11 12  1  0
 12 13  2  0
  7 13  1  0
  8 10  1  0
 15 16  2  0
 16 17  1  0
 14 12  1  0
 17 11  1  0
  1 18  1  0
 18 19  3  0
  9 20  1  0
 20 21  1  0
 21 22  1  0
 22 23  1  0
 22 24  1  0
 23 24  1  0
 16 25  1  0
 26 27  1  0
 27 28  2  0
 28 29  1  0
 29 25  1  0
 26 25  2  0
 27 30  1  0
 30 31  1  0
 30 32  1  0
 30 33  1  0
 29 34  1  0
 36 37  1  0
 37 38  2  0
 38 39  1  0
 35 39  2  0
 35 34  1  0
 34 36  2  0
 39 40  1  0
 40 41  1  0
  2 42  1  0
  4 43  1  0
  5 44  1  0
  6 45  1  0
  7 46  1  0
  9 47  1  1
 10 48  1  0
 13 49  1  0
 17 50  1  0
 20 51  1  0
 21 52  1  0
 21 53  1  0
 22 54  1  0
 23 55  1  0
 23 56  1  0
 24 57  1  0
 24 58  1  0
 26 59  1  0
 35 60  1  0
 36 61  1  0
 37 62  1  0
 38 63  1  0
 40 64  1  0
 40 65  1  0
 41 66  1  0
 41 67  1  0
M  END
> <Uni-Dock RESULT> 
ENERGY=   -3.950  LOWER_BOUND=    2.988  UPPER_BOUND=   10.271
INTER + INTRA:          -3.950
INTER:                  -3.950
INTRA:                   0.000
UNBOUND:                 0.000

$$$$

     RDKit          3D

 67 71  0  0  0  0  0  0  0  0999 V2000
   48.0190  -14.0436  -15.3419 C   0  0  0  0  0  0  0  0  0  0  0  0
   47.4896  -14.4099  -14.0984 C   0  0  0  0  0  0  0  0  0  0  0  0
   46.6948  -15.5624  -13.9622 C   0  0  0  0  0  0  0  0  0  0  0  0
   46.4350  -16.3316  -15.1106 C   0  0  0  0  0  0  0  0  0  0  0  0
   46.9657  -15.9720  -16.3507 C   0  0  0  0  0  0  0  0  0  0  0  0
   47.7573  -14.8299  -16.4670 C   0  0  0  0  0  0  0  0  0  0  0  0
   43.5422  -16.2006  -12.5366 C   0  0  0  0  0  0  0  0  0  0  0  0
   44.6701  -15.3704  -12.4792 C   0  0  0  0  0  0  0  0  0  0  0  0
   46.0663  -15.9695  -12.6234 C   0  0  2  0  0  0  0  0  0  0  0  0
   44.4771  -13.9844  -12.3124 C   0  0  0  0  0  0  0  0  0  0  0  0
   43.1936  -13.4154  -12.2316 C   0  0  0  0  0  0  0  0  0  0  0  0
   42.0922  -14.2738  -12.3125 C   0  0  0  0  0  0  0  0  0  0  0  0
   42.2649  -15.6517  -12.4514 C   0  0  0  0  0  0  0  0  0  0  0  0
   40.8299  -13.8341  -12.2981 F   0  0  0  0  0  0  0  0  0  0  0  0
   40.9176  -11.5256  -11.7237 O   0  0  0  0  0  0  0  0  0  0  0  0
   42.0698  -11.1745  -11.9152 C   0  0  0  0  0  0  0  0  0  0  0  0
   43.1577  -12.0064  -12.1077 N   0  0  0  0  0  0  0  0  0  0  0  0
   48.8232  -12.8627  -15.4587 C   0  0  0  0  0  0  0  0  0  0  0  0
   49.4675  -11.9025  -15.5525 N   0  0  0  0  0  0  0  0  0  0  0  0
   46.9560  -15.6420  -11.4958 N   0  0  0  0  0  0  0  0  0  0  0  0
   46.5311  -16.1906  -10.2048 C   0  0  0  0  0  0  0  0  0  0  0  0
   46.5935  -17.6878  -10.1833 C   0  0  0  0  0  0  0  0  0  0  0  0
   47.1693  -18.4219   -8.9966 C   0  0  0  0  0  0  0  0  0  0  0  0
   47.9115  -18.4147  -10.3052 C   0  0  0  0  0  0  0  0  0  0  0  0
   42.4336   -9.7749  -11.9656 C   0  0  0  0  0  0  0  0  0  0  0  0
   43.2336   -9.1570  -12.9139 C   0  0  0  0  0  0  0  0  0  0  0  0
   43.1302   -7.7697  -12.6782 C   0  0  0  0  0  0  0  0  0  0  0  0
   42.3435   -7.5328  -11.6178 N   0  0  0  0  0  0  0  0  0  0  0  0
   41.9684   -8.7583  -11.1378 N   0  0  0  0  0  0  0  0  0  0  0  0
   43.7651   -6.6720  -13.4921 C   0  0  0  0  0  0  0  0  0  0  0  0
   44.2112   -5.6365  -12.7345 F   0  0  0  0  0  0  0  0  0  0  0  0
   44.8427   -7.1316  -14.1878 F   0  0  0  0  0  0  0  0  0  0  0  0
   42.9085   -6.1572  -14.4128 F   0  0  0  0  0  0  0  0  0  0  0  0
   41.2765   -8.8114   -9.8864 C   0  0  0  0  0  0  0  0  0  0  0  0
   40.7466   -7.6205   -9.3561 C   0  0  0  0  0  0  0  0  0  0  0  0
   41.1623   -9.9889   -9.1365 C   0  0  0  0  0  0  0  0  0  0  0  0
   40.4980   -9.9822   -7.9055 C   0  0  0  0  0  0  0  0  0  0  0  0
   39.9511   -8.8011   -7.4068 C   0  0  0  0  0  0  0  0  0  0  0  0
   40.0678   -7.6070   -8.1263 C   0  0  0  0  0  0  0  0  0  0  0  0
   39.5037   -6.3227   -7.5733 C   0  0  0  0  0  0  0  0  0  0  0  0
   40.3532   -5.7932   -6.5160 N   0  0  0  0  0  0  0  0  0  0  0  0
   47.6942  -13.7881  -13.2276 H   0  0  0  0  0  0  0  0  0  0  0  0
   45.8045  -17.2177  -15.0477 H   0  0  0  0  0  0  0  0  0  0  0  0
   46.7540  -16.5805  -17.2281 H   0  0  0  0  0  0  0  0  0  0  0  0
   48.1635  -14.5554  -17.4389 H   0  0  0  0  0  0  0  0  0  0  0  0
   43.6477  -17.2760  -12.6555 H   0  0  0  0  0  0  0  0  0  0  0  0
   45.9767  -17.0642  -12.6718 H   0  0  0  0  0  0  0  0  0  0  0  0
   45.3586  -13.3481  -12.2491 H   0  0  0  0  0  0  0  0  0  0  0  0
   41.3832  -16.2878  -12.5024 H   0  0  0  0  0  0  0  0  0  0  0  0
   44.0584  -11.5499  -12.1048 H   0  0  0  0  0  0  0  0  0  0  0  0
   47.8766  -16.0255  -11.7067 H   0  0  0  0  0  0  0  0  0  0  0  0
   47.2054  -15.7796   -9.4419 H   0  0  0  0  0  0  0  0  0  0  0  0
   45.5265  -15.8498   -9.9299 H   0  0  0  0  0  0  0  0  0  0  0  0
   45.7253  -18.1359  -10.6528 H   0  0  0  0  0  0  0  0  0  0  0  0
   47.5933  -17.8506   -8.1773 H   0  0  0  0  0  0  0  0  0  0  0  0
   46.6978  -19.3495   -8.6870 H   0  0  0  0  0  0  0  0  0  0  0  0
   48.8367  -17.8511  -10.3335 H   0  0  0  0  0  0  0  0  0  0  0  0
   47.9328  -19.3318  -10.8850 H   0  0  0  0  0  0  0  0  0  0  0  0
   43.7593   -9.6363  -13.7310 H   0  0  0  0  0  0  0  0  0  0  0  0
   40.8449   -6.6856   -9.9038 H   0  0  0  0  0  0  0  0  0  0  0  0
   41.5941  -10.9324   -9.4515 H   0  0  0  0  0  0  0  0  0  0  0  0
   40.4132  -10.9020   -7.3316 H   0  0  0  0  0  0  0  0  0  0  0  0
   39.4474   -8.8078   -6.4417 H   0  0  0  0  0  0  0  0  0  0  0  0
   38.4960   -6.5030   -7.1822 H   0  0  0  0  0  0  0  0  0  0  0  0
   39.3979   -5.5803   -8.3730 H   0  0  0  0  0  0  0  0  0  0  0  0
   40.0055   -4.8919   -6.2071 H   0  0  0  0  0  0  0  0  0  0  0  0
   41.2888   -5.6343   -6.8903 H   0  0  0  0  0  0  0  0  0  0  0  0
  1  2  2  0
  2  3  1  0
  3  4  2  0
  4  5  1  0
  5  6  2  0
  1  6  1  0
  7  8  2  0
  8  9  1  0
  9  3  1  0
 10 11  2  0
 11 12  1  0
 12 13  2  0
  7 13  1  0
  8 10  1  0
 15 16  2  0
 16 17  1  0
 14 12  1  0
 17 11  1  0
  1 18  1  0
 18 19  3  0
  9 20  1  0
 20 21  1  0
 21 22  1  0
 22 23  1  0
 22 24  1  0
 23 24  1  0
 16 25  1  0
 26 27  1  0
 27 28  2  0
 28 29  1  0
 29 25  1  0
 26 25  2  0
 27 30  1  0
 30 31  1  0
 30 32  1  0
 30 33  1  0
 29 34  1  0
 36 37  1  0
 37 38  2  0
 38 39  1  0
 35 39  2  0
 35 34  1  0
 34 36  2  0
 39 40  1  0
 40 41  1  0
  2 42  1  0
  4 43  1  0
  5 44  1  0
  6 45  1  0
  7 46  1  0
  9 47  1  1
 10 48  1  0
 13 49  1  0
 17 50  1  0
 20 51  1  0
 21 52  1  0
 21 53  1  0
 22 54  1  0
 23 55  1  0
 23 56  1  0
 24 57  1  0
 24 58  1  0
 26 59  1  0
 35 60  1  0
 36 61  1  0
 37 62  1  0
 38 63  1  0
 40 64  1  0
 40 65  1  0
 41 66  1  0
 41 67  1  0
M  END
> <Uni-Dock RESULT> 
ENERGY=   -3.865  LOWER_BOUND=    4.054  UPPER_BOUND=   10.201
INTER + INTRA:          -3.865
INTER:                  -3.865
INTRA:                   0.000
UNBOUND:                 0.000

$$$$

     RDKit          3D

 67 71  0  0  0  0  0  0  0  0999 V2000
   47.6778  -15.9955   -8.9719 C   0  0  0  0  0  0  0  0  0  0  0  0
   47.1736  -16.1064  -10.2735 C   0  0  0  0  0  0  0  0  0  0  0  0
   48.0141  -16.4509  -11.3474 C   0  0  0  0  0  0  0  0  0  0  0  0
   49.3779  -16.6694  -11.0820 C   0  0  0  0  0  0  0  0  0  0  0  0
   49.8826  -16.5647   -9.7847 C   0  0  0  0  0  0  0  0  0  0  0  0
   49.0342  -16.2288   -8.7302 C   0  0  0  0  0  0  0  0  0  0  0  0
   48.6148  -15.0594  -14.5225 C   0  0  0  0  0  0  0  0  0  0  0  0
   47.6625  -15.2014  -13.5039 C   0  0  0  0  0  0  0  0  0  0  0  0
   47.5025  -16.5412  -12.7908 C   0  0  2  0  0  0  0  0  0  0  0  0
   46.8873  -14.0800  -13.1470 C   0  0  0  0  0  0  0  0  0  0  0  0
   47.0628  -12.8270  -13.7610 C   0  0  0  0  0  0  0  0  0  0  0  0
   48.0364  -12.7196  -14.7595 C   0  0  0  0  0  0  0  0  0  0  0  0
   48.7953  -13.8260  -15.1440 C   0  0  0  0  0  0  0  0  0  0  0  0
   48.3207  -11.5656  -15.3714 F   0  0  0  0  0  0  0  0  0  0  0  0
   46.6394  -10.0131  -14.7159 O   0  0  0  0  0  0  0  0  0  0  0  0
   46.1140  -10.4856  -13.7218 C   0  0  0  0  0  0  0  0  0  0  0  0
   46.2416  -11.7857  -13.2680 N   0  0  0  0  0  0  0  0  0  0  0  0
   46.8040  -15.6392   -7.8927 C   0  0  0  0  0  0  0  0  0  0  0  0
   46.0967  -15.3434   -7.0221 N   0  0  0  0  0  0  0  0  0  0  0  0
   46.1245  -17.0601  -12.8359 N   0  0  0  0  0  0  0  0  0  0  0  0
   45.6379  -17.3814  -14.1806 C   0  0  0  0  0  0  0  0  0  0  0  0
   46.3873  -18.5274  -14.7897 C   0  0  0  0  0  0  0  0  0  0  0  0
   45.6578  -19.6293  -15.5193 C   0  0  0  0  0  0  0  0  0  0  0  0
   46.3110  -19.9129  -14.1941 C   0  0  0  0  0  0  0  0  0  0  0  0
   45.2595   -9.6880  -12.8688 C   0  0  0  0  0  0  0  0  0  0  0  0
   45.2995   -9.6158  -11.4852 C   0  0  0  0  0  0  0  0  0  0  0  0
   44.4352   -8.5630  -11.1170 C   0  0  0  0  0  0  0  0  0  0  0  0
   43.8550   -8.0323  -12.2038 N   0  0  0  0  0  0  0  0  0  0  0  0
   44.3048   -8.7601  -13.2720 N   0  0  0  0  0  0  0  0  0  0  0  0
   44.1913   -8.0494   -9.7216 C   0  0  0  0  0  0  0  0  0  0  0  0
   42.8978   -7.6980   -9.5015 F   0  0  0  0  0  0  0  0  0  0  0  0
   44.4982   -8.9917   -8.7866 F   0  0  0  0  0  0  0  0  0  0  0  0
   44.9574   -6.9643   -9.4348 F   0  0  0  0  0  0  0  0  0  0  0  0
   43.6970   -8.5347  -14.5477 C   0  0  0  0  0  0  0  0  0  0  0  0
   42.8970   -7.3903  -14.7224 C   0  0  0  0  0  0  0  0  0  0  0  0
   43.8129   -9.4407  -15.6096 C   0  0  0  0  0  0  0  0  0  0  0  0
   43.1772   -9.1863  -16.8294 C   0  0  0  0  0  0  0  0  0  0  0  0
   42.4128   -8.0331  -16.9981 C   0  0  0  0  0  0  0  0  0  0  0  0
   42.2646   -7.1211  -15.9475 C   0  0  0  0  0  0  0  0  0  0  0  0
   41.4127   -5.8889  -16.1189 C   0  0  0  0  0  0  0  0  0  0  0  0
   39.9966   -6.2220  -16.0576 N   0  0  0  0  0  0  0  0  0  0  0  0
   46.1160  -15.9175  -10.4536 H   0  0  0  0  0  0  0  0  0  0  0  0
   50.0632  -16.9150  -11.8925 H   0  0  0  0  0  0  0  0  0  0  0  0
   50.9411  -16.7382   -9.5991 H   0  0  0  0  0  0  0  0  0  0  0  0
   49.4377  -16.1457   -7.7226 H   0  0  0  0  0  0  0  0  0  0  0  0
   49.2271  -15.9019  -14.8340 H   0  0  0  0  0  0  0  0  0  0  0  0
   48.1543  -17.2801  -13.2785 H   0  0  0  0  0  0  0  0  0  0  0  0
   46.1359  -14.2031  -12.3684 H   0  0  0  0  0  0  0  0  0  0  0  0
   49.5375  -13.7046  -15.9308 H   0  0  0  0  0  0  0  0  0  0  0  0
   45.6219  -12.0445  -12.5139 H   0  0  0  0  0  0  0  0  0  0  0  0
   46.0984  -17.9172  -12.2848 H   0  0  0  0  0  0  0  0  0  0  0  0
   44.5752  -17.6408  -14.0858 H   0  0  0  0  0  0  0  0  0  0  0  0
   45.6742  -16.5101  -14.8442 H   0  0  0  0  0  0  0  0  0  0  0  0
   47.3338  -18.2123  -15.2138 H   0  0  0  0  0  0  0  0  0  0  0  0
   44.5733  -19.6143  -15.5499 H   0  0  0  0  0  0  0  0  0  0  0  0
   46.1163  -20.0482  -16.4097 H   0  0  0  0  0  0  0  0  0  0  0  0
   45.6476  -20.1043  -13.3588 H   0  0  0  0  0  0  0  0  0  0  0  0
   47.2154  -20.5128  -14.1887 H   0  0  0  0  0  0  0  0  0  0  0  0
   45.9371  -10.1899  -10.8237 H   0  0  0  0  0  0  0  0  0  0  0  0
   42.7666   -6.6833  -13.9058 H   0  0  0  0  0  0  0  0  0  0  0  0
   44.3641  -10.3714  -15.5328 H   0  0  0  0  0  0  0  0  0  0  0  0
   43.2747   -9.8951  -17.6483 H   0  0  0  0  0  0  0  0  0  0  0  0
   41.9135   -7.8537  -17.9488 H   0  0  0  0  0  0  0  0  0  0  0  0
   41.6400   -5.4168  -17.0814 H   0  0  0  0  0  0  0  0  0  0  0  0
   41.6555   -5.1503  -15.3461 H   0  0  0  0  0  0  0  0  0  0  0  0
   39.4372   -5.3768  -16.0958 H   0  0  0  0  0  0  0  0  0  0  0  0
   39.7984   -6.6649  -15.1602 H   0  0  0  0  0  0  0  0  0  0  0  0
  1  2  2  0
  2  3  1  0
  3  4  2  0
  4  5  1  0
  5  6  2  0
  1  6  1  0
  7  8  2  0
  8  9  1  0
  9  3  1  0
 10 11  2  0
 11 12  1  0
 12 13  2  0
  7 13  1  0
  8 10  1  0
 15 16  2  0
 16 17  1  0
 14 12  1  0
 17 11  1  0
  1 18  1  0
 18 19  3  0
  9 20  1  0
 20 21  1  0
 21 22  1  0
 22 23  1  0
 22 24  1  0
 23 24  1  0
 16 25  1  0
 26 27  1  0
 27 28  2  0
 28 29  1  0
 29 25  1  0
 26 25  2  0
 27 30  1  0
 30 31  1  0
 30 32  1  0
 30 33  1  0
 29 34  1  0
 36 37  1  0
 37 38  2  0
 38 39  1  0
 35 39  2  0
 35 34  1  0
 34 36  2  0
 39 40  1  0
 40 41  1  0
  2 42  1  0
  4 43  1  0
  5 44  1  0
  6 45  1  0
  7 46  1  0
  9 47  1  1
 10 48  1  0
 13 49  1  0
 17 50  1  0
 20 51  1  0
 21 52  1  0
 21 53  1  0
 22 54  1  0
 23 55  1  0
 23 56  1  0
 24 57  1  0
 24 58  1  0
 26 59  1  0
 35 60  1  0
 36 61  1  0
 37 62  1  0
 38 63  1  0
 40 64  1  0
 40 65  1  0
 41 66  1  0
 41 67  1  0
M  END
> <Uni-Dock RESULT> 
ENERGY=   -3.858  LOWER_BOUND=    3.887  UPPER_BOUND=    9.520
INTER + INTRA:          -3.858
INTER:                  -3.858
INTRA:                   0.000
UNBOUND:                 0.000

$$$$

     RDKit          3D

 67 71  0  0  0  0  0  0  0  0999 V2000
   47.4266  -15.7768  -15.2581 C   0  0  0  0  0  0  0  0  0  0  0  0
   46.6739  -16.0374  -14.1065 C   0  0  0  0  0  0  0  0  0  0  0  0
   45.5630  -16.8991  -14.1487 C   0  0  0  0  0  0  0  0  0  0  0  0
   45.2198  -17.4833  -15.3812 C   0  0  0  0  0  0  0  0  0  0  0  0
   45.9714  -17.2296  -16.5299 C   0  0  0  0  0  0  0  0  0  0  0  0
   47.0740  -16.3780  -16.4692 C   0  0  0  0  0  0  0  0  0  0  0  0
   42.2216  -16.6302  -13.0803 C   0  0  0  0  0  0  0  0  0  0  0  0
   43.5306  -16.1878  -12.8451 C   0  0  0  0  0  0  0  0  0  0  0  0
   44.6932  -17.1740  -12.9153 C   0  0  2  0  0  0  0  0  0  0  0  0
   43.7397  -14.8213  -12.5713 C   0  0  0  0  0  0  0  0  0  0  0  0
   42.6823  -13.8943  -12.5563 C   0  0  0  0  0  0  0  0  0  0  0  0
   41.3926  -14.3701  -12.8150 C   0  0  0  0  0  0  0  0  0  0  0  0
   41.1635  -15.7245  -13.0623 C   0  0  0  0  0  0  0  0  0  0  0  0
   40.3245  -13.5686  -12.8758 F   0  0  0  0  0  0  0  0  0  0  0  0
   41.0267  -11.4347  -12.0883 O   0  0  0  0  0  0  0  0  0  0  0  0
   42.2452  -11.4405  -12.1411 C   0  0  0  0  0  0  0  0  0  0  0  0
   43.0520  -12.5512  -12.3086 N   0  0  0  0  0  0  0  0  0  0  0  0
   48.5528  -14.8921  -15.1932 C   0  0  0  0  0  0  0  0  0  0  0  0
   49.4591  -14.1700  -15.1402 N   0  0  0  0  0  0  0  0  0  0  0  0
   45.5049  -17.2004  -11.6863 N   0  0  0  0  0  0  0  0  0  0  0  0
   44.7918  -17.6689  -10.4946 C   0  0  0  0  0  0  0  0  0  0  0  0
   44.4044  -19.1126  -10.6038 C   0  0  0  0  0  0  0  0  0  0  0  0
   44.5969  -20.0560   -9.4413 C   0  0  0  0  0  0  0  0  0  0  0  0
   45.4524  -20.1977  -10.6707 C   0  0  0  0  0  0  0  0  0  0  0  0
   43.0110  -10.2177  -12.0307 C   0  0  0  0  0  0  0  0  0  0  0  0
   44.0612   -9.8178  -12.8419 C   0  0  0  0  0  0  0  0  0  0  0  0
   44.3477   -8.4814  -12.4914 C   0  0  0  0  0  0  0  0  0  0  0  0
   43.5508   -8.0794  -11.4901 N   0  0  0  0  0  0  0  0  0  0  0  0
   42.7768   -9.1586  -11.1597 N   0  0  0  0  0  0  0  0  0  0  0  0
   45.3683   -7.5830  -13.1409 C   0  0  0  0  0  0  0  0  0  0  0  0
   46.0117   -6.7793  -12.2548 F   0  0  0  0  0  0  0  0  0  0  0  0
   46.3332   -8.3069  -13.7744 F   0  0  0  0  0  0  0  0  0  0  0  0
   44.8140   -6.7782  -14.0852 F   0  0  0  0  0  0  0  0  0  0  0  0
   41.9619   -9.0725   -9.9866 C   0  0  0  0  0  0  0  0  0  0  0  0
   41.7521   -7.8104   -9.4007 C   0  0  0  0  0  0  0  0  0  0  0  0
   41.4187  -10.2015   -9.3605 C   0  0  0  0  0  0  0  0  0  0  0  0
   40.6500  -10.0657   -8.1997 C   0  0  0  0  0  0  0  0  0  0  0  0
   40.4248   -8.8059   -7.6475 C   0  0  0  0  0  0  0  0  0  0  0  0
   40.9719   -7.6636   -8.2418 C   0  0  0  0  0  0  0  0  0  0  0  0
   40.7547   -6.3036   -7.6280 C   0  0  0  0  0  0  0  0  0  0  0  0
   41.5963   -6.1216   -6.4539 N   0  0  0  0  0  0  0  0  0  0  0  0
   46.9527  -15.5602  -13.1677 H   0  0  0  0  0  0  0  0  0  0  0  0
   44.3519  -18.1373  -15.4568 H   0  0  0  0  0  0  0  0  0  0  0  0
   45.6905  -17.6917  -17.4746 H   0  0  0  0  0  0  0  0  0  0  0  0
   47.6517  -16.1832  -17.3710 H   0  0  0  0  0  0  0  0  0  0  0  0
   42.0162  -17.6776  -13.2864 H   0  0  0  0  0  0  0  0  0  0  0  0
   44.2891  -18.1846  -13.0711 H   0  0  0  0  0  0  0  0  0  0  0  0
   44.7569  -14.4886  -12.3702 H   0  0  0  0  0  0  0  0  0  0  0  0
   40.1447  -16.0577  -13.2511 H   0  0  0  0  0  0  0  0  0  0  0  0
   44.0410  -12.3917  -12.1821 H   0  0  0  0  0  0  0  0  0  0  0  0
   46.2882  -17.8328  -11.8463 H   0  0  0  0  0  0  0  0  0  0  0  0
   45.4658  -17.5287   -9.6392 H   0  0  0  0  0  0  0  0  0  0  0  0
   43.9090  -17.0553  -10.2826 H   0  0  0  0  0  0  0  0  0  0  0  0
   43.5020  -19.2463  -11.1893 H   0  0  0  0  0  0  0  0  0  0  0  0
   45.0747  -19.6905   -8.5382 H   0  0  0  0  0  0  0  0  0  0  0  0
   43.8394  -20.8126   -9.2616 H   0  0  0  0  0  0  0  0  0  0  0  0
   46.5000  -19.9420  -10.5631 H   0  0  0  0  0  0  0  0  0  0  0  0
   45.2669  -21.0417  -11.3272 H   0  0  0  0  0  0  0  0  0  0  0  0
   44.5109  -10.3852  -13.6479 H   0  0  0  0  0  0  0  0  0  0  0  0
   42.1852   -6.9191   -9.8499 H   0  0  0  0  0  0  0  0  0  0  0  0
   41.5842  -11.2113   -9.7193 H   0  0  0  0  0  0  0  0  0  0  0  0
   40.2312  -10.9483   -7.7219 H   0  0  0  0  0  0  0  0  0  0  0  0
   39.8349   -8.7160   -6.7369 H   0  0  0  0  0  0  0  0  0  0  0  0
   39.7011   -6.1914   -7.3484 H   0  0  0  0  0  0  0  0  0  0  0  0
   40.9660   -5.5183   -8.3631 H   0  0  0  0  0  0  0  0  0  0  0  0
   41.4987   -5.1771   -6.0973 H   0  0  0  0  0  0  0  0  0  0  0  0
   42.5733   -6.2333   -6.7253 H   0  0  0  0  0  0  0  0  0  0  0  0
  1  2  2  0
  2  3  1  0
  3  4  2  0
  4  5  1  0
  5  6  2  0
  1  6  1  0
  7  8  2  0
  8  9  1  0
  9  3  1  0
 10 11  2  0
 11 12  1  0
 12 13  2  0
  7 13  1  0
  8 10  1  0
 15 16  2  0
 16 17  1  0
 14 12  1  0
 17 11  1  0
  1 18  1  0
 18 19  3  0
  9 20  1  0
 20 21  1  0
 21 22  1  0
 22 23  1  0
 22 24  1  0
 23 24  1  0
 16 25  1  0
 26 27  1  0
 27 28  2  0
 28 29  1  0
 29 25  1  0
 26 25  2  0
 27 30  1  0
 30 31  1  0
 30 32  1  0
 30 33  1  0
 29 34  1  0
 36 37  1  0
 37 38  2  0
 38 39  1  0
 35 39  2  0
 35 34  1  0
 34 36  2  0
 39 40  1  0
 40 41  1  0
  2 42  1  0
  4 43  1  0
  5 44  1  0
  6 45  1  0
  7 46  1  0
  9 47  1  1
 10 48  1  0
 13 49  1  0
 17 50  1  0
 20 51  1  0
 21 52  1  0
 21 53  1  0
 22 54  1  0
 23 55  1  0
 23 56  1  0
 24 57  1  0
 24 58  1  0
 26 59  1  0
 35 60  1  0
 36 61  1  0
 37 62  1  0
 38 63  1  0
 40 64  1  0
 40 65  1  0
 41 66  1  0
 41 67  1  0
M  END
> <Uni-Dock RESULT> 
ENERGY=   -3.584  LOWER_BOUND=    4.320  UPPER_BOUND=    9.946
INTER + INTRA:          -3.584
INTER:                  -3.584
INTRA:                   0.000
UNBOUND:                 0.000

$$$$

     RDKit          3D

 67 71  0  0  0  0  0  0  0  0999 V2000
   43.8408   -8.5765   -9.1630 C   0  0  0  0  0  0  0  0  0  0  0  0
   43.9573   -9.0512  -10.4752 C   0  0  0  0  0  0  0  0  0  0  0  0
   42.8152   -9.3448  -11.2418 C   0  0  0  0  0  0  0  0  0  0  0  0
   41.5519   -9.1609  -10.6518 C   0  0  0  0  0  0  0  0  0  0  0  0
   41.4322   -8.6828   -9.3457 C   0  0  0  0  0  0  0  0  0  0  0  0
   42.5748   -8.3902   -8.6017 C   0  0  0  0  0  0  0  0  0  0  0  0
   41.7887  -12.1336  -13.1253 C   0  0  0  0  0  0  0  0  0  0  0  0
   42.9034  -11.4304  -12.6481 C   0  0  0  0  0  0  0  0  0  0  0  0
   42.9080   -9.9044  -12.6671 C   0  0  2  0  0  0  0  0  0  0  0  0
   43.9920  -12.1638  -12.1352 C   0  0  0  0  0  0  0  0  0  0  0  0
   43.9768  -13.5682  -12.0642 C   0  0  0  0  0  0  0  0  0  0  0  0
   42.8388  -14.2337  -12.5319 C   0  0  0  0  0  0  0  0  0  0  0  0
   41.7622  -13.5250  -13.0672 C   0  0  0  0  0  0  0  0  0  0  0  0
   42.6983  -15.5613  -12.4642 F   0  0  0  0  0  0  0  0  0  0  0  0
   44.8157  -16.4401  -11.8228 O   0  0  0  0  0  0  0  0  0  0  0  0
   45.4441  -15.5018  -11.3621 C   0  0  0  0  0  0  0  0  0  0  0  0
   45.1234  -14.1622  -11.4860 N   0  0  0  0  0  0  0  0  0  0  0  0
   45.0183   -8.2874   -8.3981 C   0  0  0  0  0  0  0  0  0  0  0  0
   45.9725   -8.0612   -7.7783 N   0  0  0  0  0  0  0  0  0  0  0  0
   44.0612   -9.3379  -13.3877 N   0  0  0  0  0  0  0  0  0  0  0  0
   44.0993   -9.6511  -14.8190 C   0  0  0  0  0  0  0  0  0  0  0  0
   42.9652   -9.0140  -15.5634 C   0  0  0  0  0  0  0  0  0  0  0  0
   43.1966   -8.3282  -16.8880 C   0  0  0  0  0  0  0  0  0  0  0  0
   42.8506   -7.5123  -15.6724 C   0  0  0  0  0  0  0  0  0  0  0  0
   46.6536  -15.7079  -10.5949 C   0  0  0  0  0  0  0  0  0  0  0  0
   46.9831  -15.1149   -9.3863 C   0  0  0  0  0  0  0  0  0  0  0  0
   48.1413  -15.7741   -8.9228 C   0  0  0  0  0  0  0  0  0  0  0  0
   48.5391  -16.6993   -9.8088 N   0  0  0  0  0  0  0  0  0  0  0  0
   47.6713  -16.6172  -10.8640 N   0  0  0  0  0  0  0  0  0  0  0  0
   48.8469  -15.5332   -7.6134 C   0  0  0  0  0  0  0  0  0  0  0  0
   50.1993  -15.6085   -7.7149 F   0  0  0  0  0  0  0  0  0  0  0  0
   48.5667  -14.2942   -7.1207 F   0  0  0  0  0  0  0  0  0  0  0  0
   48.4653  -16.4191   -6.6562 F   0  0  0  0  0  0  0  0  0  0  0  0
   47.9731  -17.3632  -12.0472 C   0  0  0  0  0  0  0  0  0  0  0  0
   48.9562  -18.3677  -11.9804 C   0  0  0  0  0  0  0  0  0  0  0  0
   47.3763  -17.0897  -13.2845 C   0  0  0  0  0  0  0  0  0  0  0  0
   47.7254  -17.8315  -14.4178 C   0  0  0  0  0  0  0  0  0  0  0  0
   48.6788  -18.8445  -14.3303 C   0  0  0  0  0  0  0  0  0  0  0  0
   49.3045  -19.1253  -13.1109 C   0  0  0  0  0  0  0  0  0  0  0  0
   50.3584  -20.2000  -13.0217 C   0  0  0  0  0  0  0  0  0  0  0  0
   51.6193  -19.7413  -13.5871 N   0  0  0  0  0  0  0  0  0  0  0  0
   44.9483   -9.1986  -10.9029 H   0  0  0  0  0  0  0  0  0  0  0  0
   40.6457   -9.4000  -11.2071 H   0  0  0  0  0  0  0  0  0  0  0  0
   40.4456   -8.5463   -8.9065 H   0  0  0  0  0  0  0  0  0  0  0  0
   42.4715   -8.0216   -7.5826 H   0  0  0  0  0  0  0  0  0  0  0  0
   40.9320  -11.6062  -13.5371 H   0  0  0  0  0  0  0  0  0  0  0  0
   41.9949   -9.5555  -13.1702 H   0  0  0  0  0  0  0  0  0  0  0  0
   44.8625  -11.6114  -11.7845 H   0  0  0  0  0  0  0  0  0  0  0  0
   40.8979  -14.0790  -13.4285 H   0  0  0  0  0  0  0  0  0  0  0  0
   45.8315  -13.5159  -11.1689 H   0  0  0  0  0  0  0  0  0  0  0  0
   44.0166   -8.3238  -13.2943 H   0  0  0  0  0  0  0  0  0  0  0  0
   45.0556   -9.2753  -15.2062 H   0  0  0  0  0  0  0  0  0  0  0  0
   44.1093  -10.7322  -14.9977 H   0  0  0  0  0  0  0  0  0  0  0  0
   42.0482   -9.5842  -15.4690 H   0  0  0  0  0  0  0  0  0  0  0  0
   44.2082   -8.2498  -17.2724 H   0  0  0  0  0  0  0  0  0  0  0  0
   42.4405   -8.4320  -17.6602 H   0  0  0  0  0  0  0  0  0  0  0  0
   43.6365   -6.8818  -15.2732 H   0  0  0  0  0  0  0  0  0  0  0  0
   41.8592   -7.0743  -15.6168 H   0  0  0  0  0  0  0  0  0  0  0  0
   46.4135  -14.3602   -8.8572 H   0  0  0  0  0  0  0  0  0  0  0  0
   49.4564  -18.5829  -11.0384 H   0  0  0  0  0  0  0  0  0  0  0  0
   46.6534  -16.2941  -13.4272 H   0  0  0  0  0  0  0  0  0  0  0  0
   47.2552  -17.6127  -15.3736 H   0  0  0  0  0  0  0  0  0  0  0  0
   48.9500  -19.4058  -15.2229 H   0  0  0  0  0  0  0  0  0  0  0  0
   50.0171  -21.0937  -13.5562 H   0  0  0  0  0  0  0  0  0  0  0  0
   50.5056  -20.5002  -11.9777 H   0  0  0  0  0  0  0  0  0  0  0  0
   52.3389  -20.4429  -13.4507 H   0  0  0  0  0  0  0  0  0  0  0  0
   51.9240  -18.9069  -13.0853 H   0  0  0  0  0  0  0  0  0  0  0  0
  1  2  2  0
  2  3  1  0
  3  4  2  0
  4  5  1  0
  5  6  2  0
  1  6  1  0
  7  8  2  0
  8  9  1  0
  9  3  1  0
 10 11  2  0
 11 12  1  0
 12 13  2  0
  7 13  1  0
  8 10  1  0
 15 16  2  0
 16 17  1  0
 14 12  1  0
 17 11  1  0
  1 18  1  0
 18 19  3  0
  9 20  1  0
 20 21  1  0
 21 22  1  0
 22 23  1  0
 22 24  1  0
 23 24  1  0
 16 25  1  0
 26 27  1  0
 27 28  2  0
 28 29  1  0
 29 25  1  0
 26 25  2  0
 27 30  1  0
 30 31  1  0
 30 32  1  0
 30 33  1  0
 29 34  1  0
 36 37  1  0
 37 38  2  0
 38 39  1  0
 35 39  2  0
 35 34  1  0
 34 36  2  0
 39 40  1  0
 40 41  1  0
  2 42  1  0
  4 43  1  0
  5 44  1  0
  6 45  1  0
  7 46  1  0
  9 47  1  1
 10 48  1  0
 13 49  1  0
 17 50  1  0
 20 51  1  0
 21 52  1  0
 21 53  1  0
 22 54  1  0
 23 55  1  0
 23 56  1  0
 24 57  1  0
 24 58  1  0
 26 59  1  0
 35 60  1  0
 36 61  1  0
 37 62  1  0
 38 63  1  0
 40 64  1  0
 40 65  1  0
 41 66  1  0
 41 67  1  0
M  END
> <Uni-Dock RESULT> 
ENERGY=   -3.433  LOWER_BOUND=    2.229  UPPER_BOUND=    2.691
INTER + INTRA:          -3.433
INTER:                  -3.433
INTRA:                   0.000
UNBOUND:                 0.000

$$$$

     RDKit          3D

 67 71  0  0  0  0  0  0  0  0999 V2000
   42.1946   -9.3502   -9.5689 C   0  0  0  0  0  0  0  0  0  0  0  0
   42.0907   -9.7960  -10.8922 C   0  0  0  0  0  0  0  0  0  0  0  0
   40.8522  -10.1970  -11.4248 C   0  0  0  0  0  0  0  0  0  0  0  0
   39.7216  -10.1502  -10.5896 C   0  0  0  0  0  0  0  0  0  0  0  0
   39.8209   -9.7013   -9.2715 C   0  0  0  0  0  0  0  0  0  0  0  0
   41.0554   -9.3011   -8.7611 C   0  0  0  0  0  0  0  0  0  0  0  0
   39.7470  -13.0557  -13.1526 C   0  0  0  0  0  0  0  0  0  0  0  0
   40.8602  -12.2470  -12.8852 C   0  0  0  0  0  0  0  0  0  0  0  0
   40.7107  -10.7285  -12.8569 C   0  0  2  0  0  0  0  0  0  0  0  0
   42.0966  -12.8703  -12.6227 C   0  0  0  0  0  0  0  0  0  0  0  0
   42.2343  -14.2695  -12.5941 C   0  0  0  0  0  0  0  0  0  0  0  0
   41.0965  -15.0432  -12.8464 C   0  0  0  0  0  0  0  0  0  0  0  0
   39.8698  -14.4430  -13.1340 C   0  0  0  0  0  0  0  0  0  0  0  0
   41.1039  -16.3789  -12.7938 F   0  0  0  0  0  0  0  0  0  0  0  0
   43.3830  -17.0425  -12.6148 O   0  0  0  0  0  0  0  0  0  0  0  0
   43.9958  -16.0497  -12.2593 C   0  0  0  0  0  0  0  0  0  0  0  0
   43.5266  -14.7489  -12.2747 N   0  0  0  0  0  0  0  0  0  0  0  0
   43.4677   -8.9501   -9.0452 C   0  0  0  0  0  0  0  0  0  0  0  0
   44.5001   -8.6339   -8.6211 N   0  0  0  0  0  0  0  0  0  0  0  0
   41.6337  -10.0387  -13.7746 N   0  0  0  0  0  0  0  0  0  0  0  0
   41.4135  -10.3306  -15.1940 C   0  0  0  0  0  0  0  0  0  0  0  0
   40.0957   -9.8053  -15.6772 C   0  0  0  0  0  0  0  0  0  0  0  0
   39.9870   -9.0849  -16.9992 C   0  0  0  0  0  0  0  0  0  0  0  0
   39.8143   -8.3221  -15.7141 C   0  0  0  0  0  0  0  0  0  0  0  0
   45.3493  -16.1389  -11.7552 C   0  0  0  0  0  0  0  0  0  0  0  0
   45.8554  -15.5285  -10.6184 C   0  0  0  0  0  0  0  0  0  0  0  0
   47.1423  -16.0703  -10.4158 C   0  0  0  0  0  0  0  0  0  0  0  0
   47.4427  -16.9400  -11.3919 N   0  0  0  0  0  0  0  0  0  0  0  0
   46.3765  -16.9359  -12.2499 N   0  0  0  0  0  0  0  0  0  0  0  0
   48.0699  -15.7726   -9.2663 C   0  0  0  0  0  0  0  0  0  0  0  0
   49.3750  -15.7075   -9.6375 F   0  0  0  0  0  0  0  0  0  0  0  0
   47.7741  -14.5744   -8.6891 F   0  0  0  0  0  0  0  0  0  0  0  0
   47.9780  -16.7034   -8.2805 F   0  0  0  0  0  0  0  0  0  0  0  0
   46.5058  -17.6340  -13.4924 C   0  0  0  0  0  0  0  0  0  0  0  0
   47.5762  -18.5329  -13.6542 C   0  0  0  0  0  0  0  0  0  0  0  0
   45.6482  -17.4097  -14.5768 C   0  0  0  0  0  0  0  0  0  0  0  0
   45.8332  -18.0993  -15.7797 C   0  0  0  0  0  0  0  0  0  0  0  0
   46.8797  -19.0099  -15.9156 C   0  0  0  0  0  0  0  0  0  0  0  0
   47.7626  -19.2383  -14.8546 C   0  0  0  0  0  0  0  0  0  0  0  0
   48.9133  -20.2000  -15.0108 C   0  0  0  0  0  0  0  0  0  0  0  0
   49.9832  -19.6080  -15.8014 N   0  0  0  0  0  0  0  0  0  0  0  0
   42.9849   -9.8362  -11.5132 H   0  0  0  0  0  0  0  0  0  0  0  0
   38.7503  -10.4751  -10.9605 H   0  0  0  0  0  0  0  0  0  0  0  0
   38.9344   -9.6717   -8.6405 H   0  0  0  0  0  0  0  0  0  0  0  0
   41.1237   -8.9562   -7.7308 H   0  0  0  0  0  0  0  0  0  0  0  0
   38.7773  -12.6145  -13.3688 H   0  0  0  0  0  0  0  0  0  0  0  0
   39.6851  -10.4697  -13.1569 H   0  0  0  0  0  0  0  0  0  0  0  0
   42.9612  -12.2352  -12.4352 H   0  0  0  0  0  0  0  0  0  0  0  0
   39.0092  -15.0788  -13.3331 H   0  0  0  0  0  0  0  0  0  0  0  0
   44.2168  -14.0368  -12.0849 H   0  0  0  0  0  0  0  0  0  0  0  0
   41.5093   -9.0356  -13.6425 H   0  0  0  0  0  0  0  0  0  0  0  0
   42.2306   -9.8544  -15.7519 H   0  0  0  0  0  0  0  0  0  0  0  0
   41.4937  -11.4030  -15.4049 H   0  0  0  0  0  0  0  0  0  0  0  0
   39.2771  -10.4676  -15.4199 H   0  0  0  0  0  0  0  0  0  0  0  0
   40.8879   -8.8987  -17.5747 H   0  0  0  0  0  0  0  0  0  0  0  0
   39.1050   -9.2573  -17.6082 H   0  0  0  0  0  0  0  0  0  0  0  0
   40.5985   -7.6187  -15.4599 H   0  0  0  0  0  0  0  0  0  0  0  0
   38.8162   -7.9889  -15.4484 H   0  0  0  0  0  0  0  0  0  0  0  0
   45.3326  -14.8422   -9.9631 H   0  0  0  0  0  0  0  0  0  0  0  0
   48.2745  -18.7059  -12.8380 H   0  0  0  0  0  0  0  0  0  0  0  0
   44.8366  -16.6910  -14.5477 H   0  0  0  0  0  0  0  0  0  0  0  0
   45.1610  -17.9194  -16.6153 H   0  0  0  0  0  0  0  0  0  0  0  0
   47.0194  -19.5306  -16.8615 H   0  0  0  0  0  0  0  0  0  0  0  0
   48.5611  -21.1181  -15.4944 H   0  0  0  0  0  0  0  0  0  0  0  0
   49.2965  -20.4949  -14.0270 H   0  0  0  0  0  0  0  0  0  0  0  0
   50.7810  -20.2335  -15.8332 H   0  0  0  0  0  0  0  0  0  0  0  0
   50.2991  -18.7524  -15.3444 H   0  0  0  0  0  0  0  0  0  0  0  0
  1  2  2  0
  2  3  1  0
  3  4  2  0
  4  5  1  0
  5  6  2  0
  1  6  1  0
  7  8  2  0
  8  9  1  0
  9  3  1  0
 10 11  2  0
 11 12  1  0
 12 13  2  0
  7 13  1  0
  8 10  1  0
 15 16  2  0
 16 17  1  0
 14 12  1  0
 17 11  1  0
  1 18  1  0
 18 19  3  0
  9 20  1  0
 20 21  1  0
 21 22  1  0
 22 23  1  0
 22 24  1  0
 23 24  1  0
 16 25  1  0
 26 27  1  0
 27 28  2  0
 28 29  1  0
 29 25  1  0
 26 25  2  0
 27 30  1  0
 30 31  1  0
 30 32  1  0
 30 33  1  0
 29 34  1  0
 36 37  1  0
 37 38  2  0
 38 39  1  0
 35 39  2  0
 35 34  1  0
 34 36  2  0
 39 40  1  0
 40 41  1  0
  2 42  1  0
  4 43  1  0
  5 44  1  0
  6 45  1  0
  7 46  1  0
  9 47  1  1
 10 48  1  0
 13 49  1  0
 17 50  1  0
 20 51  1  0
 21 52  1  0
 21 53  1  0
 22 54  1  0
 23 55  1  0
 23 56  1  0
 24 57  1  0
 24 58  1  0
 26 59  1  0
 35 60  1  0
 36 61  1  0
 37 62  1  0
 38 63  1  0
 40 64  1  0
 40 65  1  0
 41 66  1  0
 41 67  1  0
M  END
> <Uni-Dock RESULT> 
ENERGY=   -3.343  LOWER_BOUND=    2.898  UPPER_BOUND=    3.630
INTER + INTRA:          -3.343
INTER:                  -3.343
INTRA:                   0.000
UNBOUND:                 0.000

$$$$
