
     RDKit          3D

 67 71  0  0  0  0  0  0  0  0999 V2000
   44.0250  -18.8416  -11.7402 C   0  0  0  0  0  0  0  0  0  0  0  0
   44.4474  -17.5320  -11.4740 C   0  0  0  0  0  0  0  0  0  0  0  0
   45.7559  -17.2747  -11.0255 C   0  0  0  0  0  0  0  0  0  0  0  0
   46.6329  -18.3631  -10.8736 C   0  0  0  0  0  0  0  0  0  0  0  0
   46.2142  -19.6682  -11.1377 C   0  0  0  0  0  0  0  0  0  0  0  0
   44.9099  -19.9091  -11.5666 C   0  0  0  0  0  0  0  0  0  0  0  0
   47.4636  -15.6564  -12.9800 C   0  0  0  0  0  0  0  0  0  0  0  0
   46.5876  -15.0908  -12.0370 C   0  0  0  0  0  0  0  0  0  0  0  0
   46.1924  -15.8332  -10.7527 C   0  0  2  0  0  0  0  0  0  0  0  0
   46.1198  -13.7749  -12.2446 C   0  0  0  0  0  0  0  0  0  0  0  0
   46.5024  -13.0477  -13.3731 C   0  0  0  0  0  0  0  0  0  0  0  0
   47.3539  -13.6548  -14.3029 C   0  0  0  0  0  0  0  0  0  0  0  0
   47.8368  -14.9432  -14.1172 C   0  0  0  0  0  0  0  0  0  0  0  0
   47.7313  -12.9690  -15.3949 F   0  0  0  0  0  0  0  0  0  0  0  0
   44.7697  -11.2165  -11.8325 O   0  0  0  0  0  0  0  0  0  0  0  0
   45.3173  -10.8871  -12.8778 C   0  0  0  0  0  0  0  0  0  0  0  0
   46.1129  -11.7171  -13.6437 N   0  0  0  0  0  0  0  0  0  0  0  0
   42.6867  -19.0881  -12.1918 C   0  0  0  0  0  0  0  0  0  0  0  0
   41.6041  -19.2888  -12.5577 N   0  0  0  0  0  0  0  0  0  0  0  0
   47.2929  -15.7233   -9.7729 N   0  0  0  0  0  0  0  0  0  0  0  0
   46.8284  -15.5236   -8.3981 C   0  0  0  0  0  0  0  0  0  0  0  0
   46.2728  -16.7751   -7.7964 C   0  0  0  0  0  0  0  0  0  0  0  0
   47.1857  -17.8974   -7.3673 C   0  0  0  0  0  0  0  0  0  0  0  0
   46.4790  -17.0695   -6.3301 C   0  0  0  0  0  0  0  0  0  0  0  0
   45.2063   -9.5529  -13.4240 C   0  0  0  0  0  0  0  0  0  0  0  0
   46.2302   -8.7898  -13.9657 C   0  0  0  0  0  0  0  0  0  0  0  0
   45.6977   -7.5026  -14.1806 C   0  0  0  0  0  0  0  0  0  0  0  0
   44.4069   -7.4656  -13.8201 N   0  0  0  0  0  0  0  0  0  0  0  0
   44.0809   -8.7333  -13.4250 N   0  0  0  0  0  0  0  0  0  0  0  0
   46.4356   -6.2959  -14.7002 C   0  0  0  0  0  0  0  0  0  0  0  0
   46.5860   -5.3329  -13.7534 F   0  0  0  0  0  0  0  0  0  0  0  0
   47.6917   -6.6241  -15.1164 F   0  0  0  0  0  0  0  0  0  0  0  0
   45.8174   -5.7215  -15.7656 F   0  0  0  0  0  0  0  0  0  0  0  0
   42.7041   -9.0202  -13.1527 C   0  0  0  0  0  0  0  0  0  0  0  0
   42.2055  -10.3250  -13.0608 C   0  0  0  0  0  0  0  0  0  0  0  0
   41.8071   -7.9474  -13.0033 C   0  0  0  0  0  0  0  0  0  0  0  0
   40.4547   -8.1755  -12.7388 C   0  0  0  0  0  0  0  0  0  0  0  0
   39.9774   -9.4780  -12.6209 C   0  0  0  0  0  0  0  0  0  0  0  0
   40.8484  -10.5631  -12.7697 C   0  0  0  0  0  0  0  0  0  0  0  0
   40.3377  -11.9750  -12.6446 C   0  0  0  0  0  0  0  0  0  0  0  0
   39.9618  -12.5215  -13.9409 N   0  0  0  0  0  0  0  0  0  0  0  0
   43.7535  -16.7037  -11.6151 H   0  0  0  0  0  0  0  0  0  0  0  0
   47.6547  -18.1943  -10.5336 H   0  0  0  0  0  0  0  0  0  0  0  0
   46.9059  -20.4954  -11.0018 H   0  0  0  0  0  0  0  0  0  0  0  0
   44.5933  -20.9316  -11.7656 H   0  0  0  0  0  0  0  0  0  0  0  0
   47.8671  -16.6552  -12.8304 H   0  0  0  0  0  0  0  0  0  0  0  0
   45.3099  -15.3151  -10.3510 H   0  0  0  0  0  0  0  0  0  0  0  0
   45.4623  -13.3397  -11.4989 H   0  0  0  0  0  0  0  0  0  0  0  0
   48.5073  -15.3806  -14.8491 H   0  0  0  0  0  0  0  0  0  0  0  0
   46.4766  -11.3463  -14.5153 H   0  0  0  0  0  0  0  0  0  0  0  0
   47.8373  -14.8954  -10.0173 H   0  0  0  0  0  0  0  0  0  0  0  0
   47.6940  -15.1964   -7.8110 H   0  0  0  0  0  0  0  0  0  0  0  0
   46.0973  -14.7097   -8.3368 H   0  0  0  0  0  0  0  0  0  0  0  0
   45.3034  -17.0360   -8.2067 H   0  0  0  0  0  0  0  0  0  0  0  0
   46.8440  -18.9126   -7.5336 H   0  0  0  0  0  0  0  0  0  0  0  0
   48.2548  -17.7644   -7.4906 H   0  0  0  0  0  0  0  0  0  0  0  0
   45.6551  -17.5215   -5.7903 H   0  0  0  0  0  0  0  0  0  0  0  0
   47.0721  -16.3822   -5.7372 H   0  0  0  0  0  0  0  0  0  0  0  0
   47.2591   -9.0944  -14.1131 H   0  0  0  0  0  0  0  0  0  0  0  0
   42.8335  -11.1934  -13.2183 H   0  0  0  0  0  0  0  0  0  0  0  0
   42.1508   -6.9150  -13.0698 H   0  0  0  0  0  0  0  0  0  0  0  0
   39.7786   -7.3330  -12.6132 H   0  0  0  0  0  0  0  0  0  0  0  0
   38.9254   -9.6452  -12.4022 H   0  0  0  0  0  0  0  0  0  0  0  0
   41.1045  -12.6101  -12.1864 H   0  0  0  0  0  0  0  0  0  0  0  0
   39.4728  -12.0084  -11.9697 H   0  0  0  0  0  0  0  0  0  0  0  0
   39.2379  -11.9311  -14.3472 H   0  0  0  0  0  0  0  0  0  0  0  0
   40.7567  -12.4595  -14.5746 H   0  0  0  0  0  0  0  0  0  0  0  0
  1  2  2  0
  2  3  1  0
  3  4  2  0
  4  5  1  0
  5  6  2  0
  1  6  1  0
  7  8  2  0
  8  9  1  0
  9  3  1  0
 10 11  2  0
 11 12  1  0
 12 13  2  0
  7 13  1  0
  8 10  1  0
 15 16  2  0
 16 17  1  0
 14 12  1  0
 17 11  1  0
  1 18  1  0
 18 19  3  0
  9 20  1  0
 20 21  1  0
 21 22  1  0
 22 23  1  0
 22 24  1  0
 23 24  1  0
 16 25  1  0
 26 27  1  0
 27 28  2  0
 28 29  1  0
 29 25  1  0
 26 25  2  0
 27 30  1  0
 30 31  1  0
 30 32  1  0
 30 33  1  0
 29 34  1  0
 36 37  1  0
 37 38  2  0
 38 39  1  0
 35 39  2  0
 35 34  1  0
 34 36  2  0
 39 40  1  0
 40 41  1  0
  2 42  1  0
  4 43  1  0
  5 44  1  0
  6 45  1  0
  7 46  1  0
  9 47  1  1
 10 48  1  0
 13 49  1  0
 17 50  1  0
 20 51  1  0
 21 52  1  0
 21 53  1  0
 22 54  1  0
 23 55  1  0
 23 56  1  0
 24 57  1  0
 24 58  1  0
 26 59  1  0
 35 60  1  0
 36 61  1  0
 37 62  1  0
 38 63  1  0
 40 64  1  0
 40 65  1  0
 41 66  1  0
 41 67  1  0
M  END
> <Uni-Dock RESULT> 
ENERGY=   -4.214  LOWER_BOUND=    0.000  UPPER_BOUND=    0.000
INTER + INTRA:          -4.214
INTER:                  -4.214
INTRA:                   0.000
UNBOUND:                 0.000

$$$$

     RDKit          3D

 67 71  0  0  0  0  0  0  0  0999 V2000
   46.4368  -16.6546   -8.5240 C   0  0  0  0  0  0  0  0  0  0  0  0
   46.6010  -15.8128   -9.6325 C   0  0  0  0  0  0  0  0  0  0  0  0
   46.4669  -16.3114  -10.9413 C   0  0  0  0  0  0  0  0  0  0  0  0
   46.1421  -17.6695  -11.1056 C   0  0  0  0  0  0  0  0  0  0  0  0
   45.9787  -18.5098  -10.0030 C   0  0  0  0  0  0  0  0  0  0  0  0
   46.1300  -18.0047   -8.7125 C   0  0  0  0  0  0  0  0  0  0  0  0
   44.1067  -15.1459  -12.4991 C   0  0  0  0  0  0  0  0  0  0  0  0
   45.3754  -14.5458  -12.4163 C   0  0  0  0  0  0  0  0  0  0  0  0
   46.6416  -15.3662  -12.1325 C   0  0  2  0  0  0  0  0  0  0  0  0
   45.4934  -13.1628  -12.6751 C   0  0  0  0  0  0  0  0  0  0  0  0
   44.3718  -12.3944  -12.9917 C   0  0  0  0  0  0  0  0  0  0  0  0
   43.1222  -13.0225  -13.0377 C   0  0  0  0  0  0  0  0  0  0  0  0
   42.9802  -14.3827  -12.7981 C   0  0  0  0  0  0  0  0  0  0  0  0
   42.0323  -12.2972  -13.3402 F   0  0  0  0  0  0  0  0  0  0  0  0
   46.6458  -10.5110  -13.0978 O   0  0  0  0  0  0  0  0  0  0  0  0
   45.4968  -10.1772  -13.3613 C   0  0  0  0  0  0  0  0  0  0  0  0
   44.4008  -11.0160  -13.2992 N   0  0  0  0  0  0  0  0  0  0  0  0
   46.5818  -16.1326   -7.1965 C   0  0  0  0  0  0  0  0  0  0  0  0
   46.6983  -15.7113   -6.1218 N   0  0  0  0  0  0  0  0  0  0  0  0
   47.0630  -16.0492  -13.3732 N   0  0  0  0  0  0  0  0  0  0  0  0
   48.5156  -16.0675  -13.5611 C   0  0  0  0  0  0  0  0  0  0  0  0
   49.1947  -17.0502  -12.6610 C   0  0  0  0  0  0  0  0  0  0  0  0
   49.1016  -18.5329  -12.9257 C   0  0  0  0  0  0  0  0  0  0  0  0
   50.4038  -17.8139  -13.1447 C   0  0  0  0  0  0  0  0  0  0  0  0
   45.1589   -8.8414  -13.7996 C   0  0  0  0  0  0  0  0  0  0  0  0
   44.2949   -8.4993  -14.8295 C   0  0  0  0  0  0  0  0  0  0  0  0
   44.4317   -7.1095  -15.0200 C   0  0  0  0  0  0  0  0  0  0  0  0
   45.3105   -6.6028  -14.1434 N   0  0  0  0  0  0  0  0  0  0  0  0
   45.7041   -7.6427  -13.3478 N   0  0  0  0  0  0  0  0  0  0  0  0
   43.7451   -6.2701  -16.0663 C   0  0  0  0  0  0  0  0  0  0  0  0
   44.6108   -5.7954  -17.0000 F   0  0  0  0  0  0  0  0  0  0  0  0
   42.8077   -6.9917  -16.7440 F   0  0  0  0  0  0  0  0  0  0  0  0
   43.0954   -5.2001  -15.5371 F   0  0  0  0  0  0  0  0  0  0  0  0
   46.5142   -7.3460  -12.2043 C   0  0  0  0  0  0  0  0  0  0  0  0
   46.7055   -8.2526  -11.1551 C   0  0  0  0  0  0  0  0  0  0  0  0
   47.1177   -6.0789  -12.1142 C   0  0  0  0  0  0  0  0  0  0  0  0
   47.9151   -5.7411  -11.0183 C   0  0  0  0  0  0  0  0  0  0  0  0
   48.1209   -6.6628   -9.9953 C   0  0  0  0  0  0  0  0  0  0  0  0
   47.5282   -7.9289  -10.0588 C   0  0  0  0  0  0  0  0  0  0  0  0
   47.7459   -8.9302   -8.9544 C   0  0  0  0  0  0  0  0  0  0  0  0
   46.6951   -8.8507   -7.9495 N   0  0  0  0  0  0  0  0  0  0  0  0
   46.8365  -14.7600   -9.4785 H   0  0  0  0  0  0  0  0  0  0  0  0
   46.0257  -18.0830  -12.1073 H   0  0  0  0  0  0  0  0  0  0  0  0
   45.7396  -19.5591  -10.1543 H   0  0  0  0  0  0  0  0  0  0  0  0
   46.0040  -18.6705   -7.8603 H   0  0  0  0  0  0  0  0  0  0  0  0
   43.9893  -16.2151  -12.3381 H   0  0  0  0  0  0  0  0  0  0  0  0
   47.4216  -14.6475  -11.8435 H   0  0  0  0  0  0  0  0  0  0  0  0
   46.4806  -12.7142  -12.6309 H   0  0  0  0  0  0  0  0  0  0  0  0
   41.9997  -14.8428  -12.8558 H   0  0  0  0  0  0  0  0  0  0  0  0
   43.4901  -10.6146  -13.4967 H   0  0  0  0  0  0  0  0  0  0  0  0
   46.6767  -15.5226  -14.1574 H   0  0  0  0  0  0  0  0  0  0  0  0
   48.7011  -16.3481  -14.6041 H   0  0  0  0  0  0  0  0  0  0  0  0
   48.9481  -15.0685  -13.4360 H   0  0  0  0  0  0  0  0  0  0  0  0
   49.2181  -16.7178  -11.6289 H   0  0  0  0  0  0  0  0  0  0  0  0
   49.0165  -19.1905  -12.0683 H   0  0  0  0  0  0  0  0  0  0  0  0
   48.5447  -18.8646  -13.7950 H   0  0  0  0  0  0  0  0  0  0  0  0
   51.2056  -17.9819  -12.4353 H   0  0  0  0  0  0  0  0  0  0  0  0
   50.7397  -17.6692  -14.1655 H   0  0  0  0  0  0  0  0  0  0  0  0
   43.6985   -9.1763  -15.4288 H   0  0  0  0  0  0  0  0  0  0  0  0
   46.2261   -9.2238  -11.1391 H   0  0  0  0  0  0  0  0  0  0  0  0
   46.9936   -5.3406  -12.9066 H   0  0  0  0  0  0  0  0  0  0  0  0
   48.3843   -4.7611  -10.9724 H   0  0  0  0  0  0  0  0  0  0  0  0
   48.7536   -6.3951   -9.1525 H   0  0  0  0  0  0  0  0  0  0  0  0
   47.7804   -9.9435   -9.3706 H   0  0  0  0  0  0  0  0  0  0  0  0
   48.7204   -8.7647   -8.4773 H   0  0  0  0  0  0  0  0  0  0  0  0
   46.6854   -7.9094   -7.5601 H   0  0  0  0  0  0  0  0  0  0  0  0
   45.7899   -8.9726   -8.4001 H   0  0  0  0  0  0  0  0  0  0  0  0
  1  2  2  0
  2  3  1  0
  3  4  2  0
  4  5  1  0
  5  6  2  0
  1  6  1  0
  7  8  2  0
  8  9  1  0
  9  3  1  0
 10 11  2  0
 11 12  1  0
 12 13  2  0
  7 13  1  0
  8 10  1  0
 15 16  2  0
 16 17  1  0
 14 12  1  0
 17 11  1  0
  1 18  1  0
 18 19  3  0
  9 20  1  0
 20 21  1  0
 21 22  1  0
 22 23  1  0
 22 24  1  0
 23 24  1  0
 16 25  1  0
 26 27  1  0
 27 28  2  0
 28 29  1  0
 29 25  1  0
 26 25  2  0
 27 30  1  0
 30 31  1  0
 30 32  1  0
 30 33  1  0
 29 34  1  0
 36 37  1  0
 37 38  2  0
 38 39  1  0
 35 39  2  0
 35 34  1  0
 34 36  2  0
 39 40  1  0
 40 41  1  0
  2 42  1  0
  4 43  1  0
  5 44  1  0
  6 45  1  0
  7 46  1  0
  9 47  1  1
 10 48  1  0
 13 49  1  0
 17 50  1  0
 20 51  1  0
 21 52  1  0
 21 53  1  0
 22 54  1  0
 23 55  1  0
 23 56  1  0
 24 57  1  0
 24 58  1  0
 26 59  1  0
 35 60  1  0
 36 61  1  0
 37 62  1  0
 38 63  1  0
 40 64  1  0
 40 65  1  0
 41 66  1  0
 41 67  1  0
M  END
> <Uni-Dock RESULT> 
ENERGY=   -4.142  LOWER_BOUND=    2.803  UPPER_BOUND=    4.923
INTER + INTRA:          -4.142
INTER:                  -4.142
INTRA:                   0.000
UNBOUND:                 0.000

$$$$

     RDKit          3D

 67 71  0  0  0  0  0  0  0  0999 V2000
   50.5044  -14.2617   -7.1458 C   0  0  0  0  0  0  0  0  0  0  0  0
   49.9320  -15.1017   -8.1107 C   0  0  0  0  0  0  0  0  0  0  0  0
   50.0603  -16.4995   -8.0156 C   0  0  0  0  0  0  0  0  0  0  0  0
   50.7580  -17.0301   -6.9163 C   0  0  0  0  0  0  0  0  0  0  0  0
   51.3294  -16.1953   -5.9545 C   0  0  0  0  0  0  0  0  0  0  0  0
   51.2071  -14.8115   -6.0704 C   0  0  0  0  0  0  0  0  0  0  0  0
   47.4222  -17.9805   -7.5660 C   0  0  0  0  0  0  0  0  0  0  0  0
   47.9164  -17.6076   -8.8282 C   0  0  0  0  0  0  0  0  0  0  0  0
   49.4157  -17.3924   -9.0787 C   0  0  2  0  0  0  0  0  0  0  0  0
   47.0145  -17.5016   -9.9093 C   0  0  0  0  0  0  0  0  0  0  0  0
   45.6513  -17.7447   -9.7322 C   0  0  0  0  0  0  0  0  0  0  0  0
   45.1935  -18.0870   -8.4549 C   0  0  0  0  0  0  0  0  0  0  0  0
   46.0608  -18.2085   -7.3775 C   0  0  0  0  0  0  0  0  0  0  0  0
   43.8843  -18.3235   -8.2670 F   0  0  0  0  0  0  0  0  0  0  0  0
   45.9517  -17.1218  -12.6046 O   0  0  0  0  0  0  0  0  0  0  0  0
   44.8762  -17.4242  -12.1016 C   0  0  0  0  0  0  0  0  0  0  0  0
   44.6845  -17.6969  -10.7610 N   0  0  0  0  0  0  0  0  0  0  0  0
   50.3692  -12.8388   -7.2593 C   0  0  0  0  0  0  0  0  0  0  0  0
   50.2601  -11.6872   -7.3498 N   0  0  0  0  0  0  0  0  0  0  0  0
   50.0744  -18.7067   -9.2265 N   0  0  0  0  0  0  0  0  0  0  0  0
   51.1045  -18.7260  -10.2679 C   0  0  0  0  0  0  0  0  0  0  0  0
   52.3562  -18.0249   -9.8450 C   0  0  0  0  0  0  0  0  0  0  0  0
   53.2961  -18.6564   -8.8476 C   0  0  0  0  0  0  0  0  0  0  0  0
   53.7033  -18.5407  -10.2903 C   0  0  0  0  0  0  0  0  0  0  0  0
   43.6654  -17.5547  -12.8811 C   0  0  0  0  0  0  0  0  0  0  0  0
   42.7153  -18.5600  -12.7769 C   0  0  0  0  0  0  0  0  0  0  0  0
   41.8284  -18.3845  -13.8581 C   0  0  0  0  0  0  0  0  0  0  0  0
   42.1844  -17.3154  -14.5846 N   0  0  0  0  0  0  0  0  0  0  0  0
   43.2626  -16.7617  -13.9522 N   0  0  0  0  0  0  0  0  0  0  0  0
   40.6574  -19.2625  -14.2165 C   0  0  0  0  0  0  0  0  0  0  0  0
   40.8564  -19.9448  -15.3747 F   0  0  0  0  0  0  0  0  0  0  0  0
   40.4277  -20.2000  -13.2537 F   0  0  0  0  0  0  0  0  0  0  0  0
   39.5000  -18.5634  -14.3535 F   0  0  0  0  0  0  0  0  0  0  0  0
   43.7407  -15.4954  -14.4212 C   0  0  0  0  0  0  0  0  0  0  0  0
   44.6060  -14.6878  -13.6738 C   0  0  0  0  0  0  0  0  0  0  0  0
   43.2980  -15.0268  -15.6710 C   0  0  0  0  0  0  0  0  0  0  0  0
   43.7340  -13.7977  -16.1711 C   0  0  0  0  0  0  0  0  0  0  0  0
   44.6176  -13.0174  -15.4303 C   0  0  0  0  0  0  0  0  0  0  0  0
   45.0698  -13.4589  -14.1817 C   0  0  0  0  0  0  0  0  0  0  0  0
   46.0250  -12.6185  -13.3747 C   0  0  0  0  0  0  0  0  0  0  0  0
   45.3153  -11.7521  -12.4441 N   0  0  0  0  0  0  0  0  0  0  0  0
   49.3820  -14.6665   -8.9448 H   0  0  0  0  0  0  0  0  0  0  0  0
   50.8686  -18.1095   -6.8125 H   0  0  0  0  0  0  0  0  0  0  0  0
   51.8746  -16.6274   -5.1194 H   0  0  0  0  0  0  0  0  0  0  0  0
   51.6603  -14.1703   -5.3162 H   0  0  0  0  0  0  0  0  0  0  0  0
   48.0972  -18.1031   -6.7221 H   0  0  0  0  0  0  0  0  0  0  0  0
   49.4987  -16.8476  -10.0300 H   0  0  0  0  0  0  0  0  0  0  0  0
   47.4100  -17.2355  -10.8843 H   0  0  0  0  0  0  0  0  0  0  0  0
   45.6768  -18.4898   -6.4028 H   0  0  0  0  0  0  0  0  0  0  0  0
   43.7380  -17.8919  -10.4518 H   0  0  0  0  0  0  0  0  0  0  0  0
   49.3594  -19.3755   -9.5147 H   0  0  0  0  0  0  0  0  0  0  0  0
   51.3339  -19.7777  -10.4734 H   0  0  0  0  0  0  0  0  0  0  0  0
   50.7296  -18.3095  -11.2095 H   0  0  0  0  0  0  0  0  0  0  0  0
   52.2385  -16.9470   -9.8219 H   0  0  0  0  0  0  0  0  0  0  0  0
   53.7733  -18.0035   -8.1259 H   0  0  0  0  0  0  0  0  0  0  0  0
   53.0485  -19.6385   -8.4602 H   0  0  0  0  0  0  0  0  0  0  0  0
   54.4580  -17.8080  -10.5508 H   0  0  0  0  0  0  0  0  0  0  0  0
   53.7462  -19.4489  -10.8812 H   0  0  0  0  0  0  0  0  0  0  0  0
   42.7050  -19.3721  -12.0602 H   0  0  0  0  0  0  0  0  0  0  0  0
   44.9413  -14.9671  -12.6824 H   0  0  0  0  0  0  0  0  0  0  0  0
   42.6218  -15.6211  -16.2858 H   0  0  0  0  0  0  0  0  0  0  0  0
   43.3911  -13.4579  -17.1456 H   0  0  0  0  0  0  0  0  0  0  0  0
   44.9613  -12.0680  -15.8337 H   0  0  0  0  0  0  0  0  0  0  0  0
   46.7152  -13.2654  -12.8211 H   0  0  0  0  0  0  0  0  0  0  0  0
   46.6489  -12.0072  -14.0392 H   0  0  0  0  0  0  0  0  0  0  0  0
   44.6903  -11.1461  -12.9732 H   0  0  0  0  0  0  0  0  0  0  0  0
   44.7129  -12.3193  -11.8502 H   0  0  0  0  0  0  0  0  0  0  0  0
  1  2  2  0
  2  3  1  0
  3  4  2  0
  4  5  1  0
  5  6  2  0
  1  6  1  0
  7  8  2  0
  8  9  1  0
  9  3  1  0
 10 11  2  0
 11 12  1  0
 12 13  2  0
  7 13  1  0
  8 10  1  0
 15 16  2  0
 16 17  1  0
 14 12  1  0
 17 11  1  0
  1 18  1  0
 18 19  3  0
  9 20  1  0
 20 21  1  0
 21 22  1  0
 22 23  1  0
 22 24  1  0
 23 24  1  0
 16 25  1  0
 26 27  1  0
 27 28  2  0
 28 29  1  0
 29 25  1  0
 26 25  2  0
 27 30  1  0
 30 31  1  0
 30 32  1  0
 30 33  1  0
 29 34  1  0
 36 37  1  0
 37 38  2  0
 38 39  1  0
 35 39  2  0
 35 34  1  0
 34 36  2  0
 39 40  1  0
 40 41  1  0
  2 42  1  0
  4 43  1  0
  5 44  1  0
  6 45  1  0
  7 46  1  0
  9 47  1  1
 10 48  1  0
 13 49  1  0
 17 50  1  0
 20 51  1  0
 21 52  1  0
 21 53  1  0
 22 54  1  0
 23 55  1  0
 23 56  1  0
 24 57  1  0
 24 58  1  0
 26 59  1  0
 35 60  1  0
 36 61  1  0
 37 62  1  0
 38 63  1  0
 40 64  1  0
 40 65  1  0
 41 66  1  0
 41 67  1  0
M  END
> <Uni-Dock RESULT> 
ENERGY=   -4.011  LOWER_BOUND=    5.448  UPPER_BOUND=    8.549
INTER + INTRA:          -4.011
INTER:                  -4.011
INTRA:                   0.000
UNBOUND:                 0.000

$$$$

     RDKit          3D

 67 71  0  0  0  0  0  0  0  0999 V2000
   48.1671   -7.8657   -8.3670 C   0  0  0  0  0  0  0  0  0  0  0  0
   47.1800   -8.6708   -8.9516 C   0  0  0  0  0  0  0  0  0  0  0  0
   46.1742   -8.1060   -9.7571 C   0  0  0  0  0  0  0  0  0  0  0  0
   46.1996   -6.7176   -9.9770 C   0  0  0  0  0  0  0  0  0  0  0  0
   47.1814   -5.9138   -9.3953 C   0  0  0  0  0  0  0  0  0  0  0  0
   48.1626   -6.4858   -8.5869 C   0  0  0  0  0  0  0  0  0  0  0  0
   46.2688   -8.9757  -12.6879 C   0  0  0  0  0  0  0  0  0  0  0  0
   45.6222   -9.6958  -11.6681 C   0  0  0  0  0  0  0  0  0  0  0  0
   45.1152   -9.0115  -10.3909 C   0  0  2  0  0  0  0  0  0  0  0  0
   45.3685  -11.0714  -11.8606 C   0  0  0  0  0  0  0  0  0  0  0  0
   45.7650  -11.7163  -13.0334 C   0  0  0  0  0  0  0  0  0  0  0  0
   46.4303  -10.9718  -14.0139 C   0  0  0  0  0  0  0  0  0  0  0  0
   46.6824   -9.6158  -13.8542 C   0  0  0  0  0  0  0  0  0  0  0  0
   46.8194  -11.5773  -15.1485 F   0  0  0  0  0  0  0  0  0  0  0  0
   44.4127  -13.7994  -11.4331 O   0  0  0  0  0  0  0  0  0  0  0  0
   44.8602  -14.0117  -12.5537 C   0  0  0  0  0  0  0  0  0  0  0  0
   45.5222  -13.0768  -13.3258 N   0  0  0  0  0  0  0  0  0  0  0  0
   49.1826   -8.4556   -7.5444 C   0  0  0  0  0  0  0  0  0  0  0  0
   50.0052   -8.9317   -6.8790 N   0  0  0  0  0  0  0  0  0  0  0  0
   43.8439   -8.3187  -10.6860 N   0  0  0  0  0  0  0  0  0  0  0  0
   42.8586   -8.4294   -9.6078 C   0  0  0  0  0  0  0  0  0  0  0  0
   43.1897   -7.5547   -8.4406 C   0  0  0  0  0  0  0  0  0  0  0  0
   42.9980   -6.0598   -8.5164 C   0  0  0  0  0  0  0  0  0  0  0  0
   42.0870   -6.8884   -7.6537 C   0  0  0  0  0  0  0  0  0  0  0  0
   44.7192  -15.2897  -13.2153 C   0  0  0  0  0  0  0  0  0  0  0  0
   44.3754  -15.5042  -14.5420 C   0  0  0  0  0  0  0  0  0  0  0  0
   44.1671  -16.8913  -14.6808 C   0  0  0  0  0  0  0  0  0  0  0  0
   44.3927  -17.5158  -13.5162 N   0  0  0  0  0  0  0  0  0  0  0  0
   44.8004  -16.5528  -12.6354 N   0  0  0  0  0  0  0  0  0  0  0  0
   43.7176  -17.6164  -15.9229 C   0  0  0  0  0  0  0  0  0  0  0  0
   42.4657  -18.1301  -15.7989 F   0  0  0  0  0  0  0  0  0  0  0  0
   43.6845  -16.7813  -17.0000 F   0  0  0  0  0  0  0  0  0  0  0  0
   44.5434  -18.6421  -16.2594 F   0  0  0  0  0  0  0  0  0  0  0  0
   45.2803  -16.9734  -11.3530 C   0  0  0  0  0  0  0  0  0  0  0  0
   46.0142  -16.1348  -10.5058 C   0  0  0  0  0  0  0  0  0  0  0  0
   45.0329  -18.2945  -10.9389 C   0  0  0  0  0  0  0  0  0  0  0  0
   45.4817  -18.7527   -9.6982 C   0  0  0  0  0  0  0  0  0  0  0  0
   46.1855  -17.8993   -8.8528 C   0  0  0  0  0  0  0  0  0  0  0  0
   46.4487  -16.5814   -9.2429 C   0  0  0  0  0  0  0  0  0  0  0  0
   47.2109  -15.6534   -8.3331 C   0  0  0  0  0  0  0  0  0  0  0  0
   48.6375  -15.6765   -8.6239 N   0  0  0  0  0  0  0  0  0  0  0  0
   47.1915   -9.7468   -8.7791 H   0  0  0  0  0  0  0  0  0  0  0  0
   45.4370   -6.2523  -10.6014 H   0  0  0  0  0  0  0  0  0  0  0  0
   47.1744   -4.8410   -9.5695 H   0  0  0  0  0  0  0  0  0  0  0  0
   48.9210   -5.8483   -8.1353 H   0  0  0  0  0  0  0  0  0  0  0  0
   46.4478   -7.9081  -12.5828 H   0  0  0  0  0  0  0  0  0  0  0  0
   44.9196   -9.8123   -9.6636 H   0  0  0  0  0  0  0  0  0  0  0  0
   44.8485  -11.6126  -11.0767 H   0  0  0  0  0  0  0  0  0  0  0  0
   47.1872   -9.0631  -14.6392 H   0  0  0  0  0  0  0  0  0  0  0  0
   45.8888  -13.3817  -14.2214 H   0  0  0  0  0  0  0  0  0  0  0  0
   43.4317   -8.7723  -11.5020 H   0  0  0  0  0  0  0  0  0  0  0  0
   41.8919   -8.1230  -10.0233 H   0  0  0  0  0  0  0  0  0  0  0  0
   42.7325   -9.4691   -9.2858 H   0  0  0  0  0  0  0  0  0  0  0  0
   44.0289   -7.9318   -7.8664 H   0  0  0  0  0  0  0  0  0  0  0  0
   43.7373   -5.4345   -8.0294 H   0  0  0  0  0  0  0  0  0  0  0  0
   42.5974   -5.6400   -9.4325 H   0  0  0  0  0  0  0  0  0  0  0  0
   42.2069   -6.8273   -6.5783 H   0  0  0  0  0  0  0  0  0  0  0  0
   41.0606   -7.0201   -7.9773 H   0  0  0  0  0  0  0  0  0  0  0  0
   44.2124  -14.7489  -15.3009 H   0  0  0  0  0  0  0  0  0  0  0  0
   46.2832  -15.1242  -10.7884 H   0  0  0  0  0  0  0  0  0  0  0  0
   44.4680  -18.9831  -11.5675 H   0  0  0  0  0  0  0  0  0  0  0  0
   45.2694  -19.7737   -9.3895 H   0  0  0  0  0  0  0  0  0  0  0  0
   46.5197  -18.2614   -7.8835 H   0  0  0  0  0  0  0  0  0  0  0  0
   46.8307  -14.6309   -8.4393 H   0  0  0  0  0  0  0  0  0  0  0  0
   47.0478  -15.9305   -7.2837 H   0  0  0  0  0  0  0  0  0  0  0  0
   48.9800  -16.6286   -8.5055 H   0  0  0  0  0  0  0  0  0  0  0  0
   48.7835  -15.4506   -9.6062 H   0  0  0  0  0  0  0  0  0  0  0  0
  1  2  2  0
  2  3  1  0
  3  4  2  0
  4  5  1  0
  5  6  2  0
  1  6  1  0
  7  8  2  0
  8  9  1  0
  9  3  1  0
 10 11  2  0
 11 12  1  0
 12 13  2  0
  7 13  1  0
  8 10  1  0
 15 16  2  0
 16 17  1  0
 14 12  1  0
 17 11  1  0
  1 18  1  0
 18 19  3  0
  9 20  1  0
 20 21  1  0
 21 22  1  0
 22 23  1  0
 22 24  1  0
 23 24  1  0
 16 25  1  0
 26 27  1  0
 27 28  2  0
 28 29  1  0
 29 25  1  0
 26 25  2  0
 27 30  1  0
 30 31  1  0
 30 32  1  0
 30 33  1  0
 29 34  1  0
 36 37  1  0
 37 38  2  0
 38 39  1  0
 35 39  2  0
 35 34  1  0
 34 36  2  0
 39 40  1  0
 40 41  1  0
  2 42  1  0
  4 43  1  0
  5 44  1  0
  6 45  1  0
  7 46  1  0
  9 47  1  1
 10 48  1  0
 13 49  1  0
 17 50  1  0
 20 51  1  0
 21 52  1  0
 21 53  1  0
 22 54  1  0
 23 55  1  0
 23 56  1  0
 24 57  1  0
 24 58  1  0
 26 59  1  0
 35 60  1  0
 36 61  1  0
 37 62  1  0
 38 63  1  0
 40 64  1  0
 40 65  1  0
 41 66  1  0
 41 67  1  0
M  END
> <Uni-Dock RESULT> 
ENERGY=   -3.811  LOWER_BOUND=    3.882  UPPER_BOUND=    9.492
INTER + INTRA:          -3.811
INTER:                  -3.811
INTRA:                   0.000
UNBOUND:                 0.000

$$$$

     RDKit          3D

 67 71  0  0  0  0  0  0  0  0999 V2000
   42.0379  -11.6114  -11.5420 C   0  0  0  0  0  0  0  0  0  0  0  0
   42.8396  -12.6975  -11.9188 C   0  0  0  0  0  0  0  0  0  0  0  0
   42.7652  -13.2304  -13.2188 C   0  0  0  0  0  0  0  0  0  0  0  0
   41.8826  -12.6303  -14.1341 C   0  0  0  0  0  0  0  0  0  0  0  0
   41.0829  -11.5488  -13.7608 C   0  0  0  0  0  0  0  0  0  0  0  0
   41.1564  -11.0416  -12.4644 C   0  0  0  0  0  0  0  0  0  0  0  0
   45.3244  -12.9076  -14.8625 C   0  0  0  0  0  0  0  0  0  0  0  0
   45.0841  -13.9670  -13.9700 C   0  0  0  0  0  0  0  0  0  0  0  0
   43.6604  -14.4104  -13.6051 C   0  0  2  0  0  0  0  0  0  0  0  0
   46.1840  -14.6876  -13.4555 C   0  0  0  0  0  0  0  0  0  0  0  0
   47.4914  -14.3491  -13.8087 C   0  0  0  0  0  0  0  0  0  0  0  0
   47.6914  -13.2711  -14.6783 C   0  0  0  0  0  0  0  0  0  0  0  0
   46.6270  -12.5531  -15.2068 C   0  0  0  0  0  0  0  0  0  0  0  0
   48.9435  -12.9316  -15.0279 F   0  0  0  0  0  0  0  0  0  0  0  0
   47.7615  -16.6830  -12.0173 O   0  0  0  0  0  0  0  0  0  0  0  0
   48.7233  -16.1422  -12.5498 C   0  0  0  0  0  0  0  0  0  0  0  0
   48.6466  -15.0346  -13.3718 N   0  0  0  0  0  0  0  0  0  0  0  0
   42.1215  -11.0828  -10.2118 C   0  0  0  0  0  0  0  0  0  0  0  0
   42.1886  -10.6538   -9.1359 N   0  0  0  0  0  0  0  0  0  0  0  0
   43.1139  -15.2331  -14.7040 N   0  0  0  0  0  0  0  0  0  0  0  0
   42.3243  -16.3751  -14.2370 C   0  0  0  0  0  0  0  0  0  0  0  0
   40.9783  -15.9676  -13.7277 C   0  0  0  0  0  0  0  0  0  0  0  0
   39.8853  -15.5506  -14.6808 C   0  0  0  0  0  0  0  0  0  0  0  0
   39.7805  -16.8596  -13.9486 C   0  0  0  0  0  0  0  0  0  0  0  0
   50.0743  -16.6320  -12.3901 C   0  0  0  0  0  0  0  0  0  0  0  0
   51.0319  -16.7658  -13.3849 C   0  0  0  0  0  0  0  0  0  0  0  0
   52.1135  -17.4603  -12.8067 C   0  0  0  0  0  0  0  0  0  0  0  0
   51.8621  -17.7244  -11.5165 N   0  0  0  0  0  0  0  0  0  0  0  0
   50.6496  -17.1580  -11.2366 N   0  0  0  0  0  0  0  0  0  0  0  0
   53.3762  -17.9023  -13.5000 C   0  0  0  0  0  0  0  0  0  0  0  0
   53.4563  -19.2536  -13.6193 F   0  0  0  0  0  0  0  0  0  0  0  0
   53.4486  -17.4006  -14.7656 F   0  0  0  0  0  0  0  0  0  0  0  0
   54.5000  -17.4864  -12.8588 F   0  0  0  0  0  0  0  0  0  0  0  0
   50.2156  -17.1373   -9.8716 C   0  0  0  0  0  0  0  0  0  0  0  0
   49.1746  -16.3179   -9.4196 C   0  0  0  0  0  0  0  0  0  0  0  0
   50.8835  -17.9496   -8.9378 C   0  0  0  0  0  0  0  0  0  0  0  0
   50.4989  -17.9631   -7.5951 C   0  0  0  0  0  0  0  0  0  0  0  0
   49.4427  -17.1649   -7.1643 C   0  0  0  0  0  0  0  0  0  0  0  0
   48.7645  -16.3442   -8.0726 C   0  0  0  0  0  0  0  0  0  0  0  0
   47.6216  -15.4772   -7.6123 C   0  0  0  0  0  0  0  0  0  0  0  0
   48.0783  -14.1423   -7.2520 N   0  0  0  0  0  0  0  0  0  0  0  0
   43.5277  -13.1348  -11.1957 H   0  0  0  0  0  0  0  0  0  0  0  0
   41.8076  -13.0173  -15.1503 H   0  0  0  0  0  0  0  0  0  0  0  0
   40.3991  -11.1084  -14.4817 H   0  0  0  0  0  0  0  0  0  0  0  0
   40.5250  -10.2003  -12.1835 H   0  0  0  0  0  0  0  0  0  0  0  0
   44.4963  -12.3558  -15.3014 H   0  0  0  0  0  0  0  0  0  0  0  0
   43.7488  -15.0370  -12.7061 H   0  0  0  0  0  0  0  0  0  0  0  0
   45.9861  -15.5180  -12.7853 H   0  0  0  0  0  0  0  0  0  0  0  0
   46.8144  -11.7318  -15.8900 H   0  0  0  0  0  0  0  0  0  0  0  0
   49.5172  -14.6463  -13.7195 H   0  0  0  0  0  0  0  0  0  0  0  0
   43.9060  -15.6202  -15.2181 H   0  0  0  0  0  0  0  0  0  0  0  0
   42.1959  -17.0481  -15.0923 H   0  0  0  0  0  0  0  0  0  0  0  0
   42.8645  -16.9517  -13.4779 H   0  0  0  0  0  0  0  0  0  0  0  0
   41.0339  -15.4678  -12.7668 H   0  0  0  0  0  0  0  0  0  0  0  0
   39.2366  -14.7381  -14.3746 H   0  0  0  0  0  0  0  0  0  0  0  0
   40.0967  -15.5717  -15.7442 H   0  0  0  0  0  0  0  0  0  0  0  0
   39.0601  -16.9379  -13.1428 H   0  0  0  0  0  0  0  0  0  0  0  0
   39.9070  -17.7731  -14.5189 H   0  0  0  0  0  0  0  0  0  0  0  0
   50.9345  -16.4741  -14.4234 H   0  0  0  0  0  0  0  0  0  0  0  0
   48.6557  -15.6311  -10.0773 H   0  0  0  0  0  0  0  0  0  0  0  0
   51.7015  -18.6015   -9.2448 H   0  0  0  0  0  0  0  0  0  0  0  0
   51.0186  -18.6078   -6.8901 H   0  0  0  0  0  0  0  0  0  0  0  0
   49.1424  -17.1919   -6.1196 H   0  0  0  0  0  0  0  0  0  0  0  0
   46.8653  -15.4060   -8.4024 H   0  0  0  0  0  0  0  0  0  0  0  0
   47.1188  -15.9358   -6.7513 H   0  0  0  0  0  0  0  0  0  0  0  0
   48.7679  -14.2227   -6.5064 H   0  0  0  0  0  0  0  0  0  0  0  0
   48.5726  -13.7319   -8.0423 H   0  0  0  0  0  0  0  0  0  0  0  0
  1  2  2  0
  2  3  1  0
  3  4  2  0
  4  5  1  0
  5  6  2  0
  1  6  1  0
  7  8  2  0
  8  9  1  0
  9  3  1  0
 10 11  2  0
 11 12  1  0
 12 13  2  0
  7 13  1  0
  8 10  1  0
 15 16  2  0
 16 17  1  0
 14 12  1  0
 17 11  1  0
  1 18  1  0
 18 19  3  0
  9 20  1  0
 20 21  1  0
 21 22  1  0
 22 23  1  0
 22 24  1  0
 23 24  1  0
 16 25  1  0
 26 27  1  0
 27 28  2  0
 28 29  1  0
 29 25  1  0
 26 25  2  0
 27 30  1  0
 30 31  1  0
 30 32  1  0
 30 33  1  0
 29 34  1  0
 36 37  1  0
 37 38  2  0
 38 39  1  0
 35 39  2  0
 35 34  1  0
 34 36  2  0
 39 40  1  0
 40 41  1  0
  2 42  1  0
  4 43  1  0
  5 44  1  0
  6 45  1  0
  7 46  1  0
  9 47  1  1
 10 48  1  0
 13 49  1  0
 17 50  1  0
 20 51  1  0
 21 52  1  0
 21 53  1  0
 22 54  1  0
 23 55  1  0
 23 56  1  0
 24 57  1  0
 24 58  1  0
 26 59  1  0
 35 60  1  0
 36 61  1  0
 37 62  1  0
 38 63  1  0
 40 64  1  0
 40 65  1  0
 41 66  1  0
 41 67  1  0
M  END
> <Uni-Dock RESULT> 
ENERGY=   -3.726  LOWER_BOUND=    3.903  UPPER_BOUND=    9.361
INTER + INTRA:          -3.726
INTER:                  -3.726
INTRA:                   0.000
UNBOUND:                 0.000

$$$$

     RDKit          3D

 67 71  0  0  0  0  0  0  0  0999 V2000
   47.9049   -7.8546   -9.3696 C   0  0  0  0  0  0  0  0  0  0  0  0
   46.9997   -8.8059   -9.8594 C   0  0  0  0  0  0  0  0  0  0  0  0
   46.0704   -8.4671  -10.8600 C   0  0  0  0  0  0  0  0  0  0  0  0
   46.0900   -7.1569  -11.3696 C   0  0  0  0  0  0  0  0  0  0  0  0
   46.9903   -6.2077  -10.8829 C   0  0  0  0  0  0  0  0  0  0  0  0
   47.8949   -6.5539   -9.8804 C   0  0  0  0  0  0  0  0  0  0  0  0
   46.4828   -9.9329  -13.5126 C   0  0  0  0  0  0  0  0  0  0  0  0
   45.7500  -10.4472  -12.4286 C   0  0  0  0  0  0  0  0  0  0  0  0
   45.1008   -9.5298  -11.3829 C   0  0  2  0  0  0  0  0  0  0  0  0
   45.5455  -11.8417  -12.3444 C   0  0  0  0  0  0  0  0  0  0  0  0
   46.0732  -12.7032  -13.3078 C   0  0  0  0  0  0  0  0  0  0  0  0
   46.8202  -12.1559  -14.3570 C   0  0  0  0  0  0  0  0  0  0  0  0
   47.0268  -10.7875  -14.4690 C   0  0  0  0  0  0  0  0  0  0  0  0
   47.3359  -12.9712  -15.2922 F   0  0  0  0  0  0  0  0  0  0  0  0
   44.6068  -14.4549  -11.4343 O   0  0  0  0  0  0  0  0  0  0  0  0
   45.1711  -14.8808  -12.4349 C   0  0  0  0  0  0  0  0  0  0  0  0
   45.8896  -14.1037  -13.3228 N   0  0  0  0  0  0  0  0  0  0  0  0
   48.8426   -8.2138   -8.3461 C   0  0  0  0  0  0  0  0  0  0  0  0
   49.6021   -8.5034   -7.5182 N   0  0  0  0  0  0  0  0  0  0  0  0
   43.8526   -8.9690  -11.9404 N   0  0  0  0  0  0  0  0  0  0  0  0
   42.7643   -8.8900  -10.9630 C   0  0  0  0  0  0  0  0  0  0  0  0
   42.9560   -7.7749   -9.9849 C   0  0  0  0  0  0  0  0  0  0  0  0
   42.7426   -6.3394  -10.3982 C   0  0  0  0  0  0  0  0  0  0  0  0
   41.7651   -7.0039   -9.4689 C   0  0  0  0  0  0  0  0  0  0  0  0
   45.1248  -16.2746  -12.8168 C   0  0  0  0  0  0  0  0  0  0  0  0
   44.9233  -16.7794  -14.0931 C   0  0  0  0  0  0  0  0  0  0  0  0
   44.7587  -18.1719  -13.9500 C   0  0  0  0  0  0  0  0  0  0  0  0
   44.8764  -18.5256  -12.6622 N   0  0  0  0  0  0  0  0  0  0  0  0
   45.1718  -17.3817  -11.9740 N   0  0  0  0  0  0  0  0  0  0  0  0
   44.4539  -19.1618  -15.0444 C   0  0  0  0  0  0  0  0  0  0  0  0
   43.2066  -19.6896  -14.9334 F   0  0  0  0  0  0  0  0  0  0  0  0
   44.5144  -18.5758  -16.2739 F   0  0  0  0  0  0  0  0  0  0  0  0
   45.3306  -20.2000  -15.0719 F   0  0  0  0  0  0  0  0  0  0  0  0
   45.5262  -17.5008  -10.5912 C   0  0  0  0  0  0  0  0  0  0  0  0
   46.1520  -16.4718   -9.8777 C   0  0  0  0  0  0  0  0  0  0  0  0
   45.2646  -18.7134   -9.9286 C   0  0  0  0  0  0  0  0  0  0  0  0
   45.5932  -18.8793   -8.5812 C   0  0  0  0  0  0  0  0  0  0  0  0
   46.1889  -17.8375   -7.8755 C   0  0  0  0  0  0  0  0  0  0  0  0
   46.4638  -16.6222   -8.5126 C   0  0  0  0  0  0  0  0  0  0  0  0
   47.1095  -15.4916   -7.7548 C   0  0  0  0  0  0  0  0  0  0  0  0
   48.5586  -15.5160   -7.8958 N   0  0  0  0  0  0  0  0  0  0  0  0
   47.0154   -9.8195   -9.4594 H   0  0  0  0  0  0  0  0  0  0  0  0
   45.3861   -6.8667  -12.1496 H   0  0  0  0  0  0  0  0  0  0  0  0
   46.9793   -5.1974  -11.2835 H   0  0  0  0  0  0  0  0  0  0  0  0
   48.5897   -5.8041   -9.5058 H   0  0  0  0  0  0  0  0  0  0  0  0
   46.6283   -8.8607  -13.6227 H   0  0  0  0  0  0  0  0  0  0  0  0
   44.8480  -10.1659  -10.5227 H   0  0  0  0  0  0  0  0  0  0  0  0
   44.9590  -12.2260  -11.5161 H   0  0  0  0  0  0  0  0  0  0  0  0
   47.5982  -10.3930  -15.3023 H   0  0  0  0  0  0  0  0  0  0  0  0
   46.3522  -14.5757  -14.0927 H   0  0  0  0  0  0  0  0  0  0  0  0
   43.5356   -9.6020  -12.6755 H   0  0  0  0  0  0  0  0  0  0  0  0
   41.8393   -8.7194  -11.5254 H   0  0  0  0  0  0  0  0  0  0  0  0
   42.6271   -9.8424  -10.4388 H   0  0  0  0  0  0  0  0  0  0  0  0
   43.7394   -7.9864   -9.2654 H   0  0  0  0  0  0  0  0  0  0  0  0
   43.4152   -5.5948   -9.9884 H   0  0  0  0  0  0  0  0  0  0  0  0
   42.4296   -6.1403  -11.4171 H   0  0  0  0  0  0  0  0  0  0  0  0
   41.7728   -6.7115   -8.4254 H   0  0  0  0  0  0  0  0  0  0  0  0
   40.7802   -7.2440   -9.8535 H   0  0  0  0  0  0  0  0  0  0  0  0
   44.8236  -16.2094  -15.0087 H   0  0  0  0  0  0  0  0  0  0  0  0
   46.4280  -15.5336  -10.3437 H   0  0  0  0  0  0  0  0  0  0  0  0
   44.7814  -19.5425  -10.4457 H   0  0  0  0  0  0  0  0  0  0  0  0
   45.3712  -19.8197   -8.0822 H   0  0  0  0  0  0  0  0  0  0  0  0
   46.4293  -17.9718   -6.8236 H   0  0  0  0  0  0  0  0  0  0  0  0
   46.7215  -14.5316   -8.1141 H   0  0  0  0  0  0  0  0  0  0  0  0
   46.8453  -15.5467   -6.6909 H   0  0  0  0  0  0  0  0  0  0  0  0
   48.9066  -16.4062   -7.5433 H   0  0  0  0  0  0  0  0  0  0  0  0
   48.8000  -15.4972   -8.8851 H   0  0  0  0  0  0  0  0  0  0  0  0
  1  2  2  0
  2  3  1  0
  3  4  2  0
  4  5  1  0
  5  6  2  0
  1  6  1  0
  7  8  2  0
  8  9  1  0
  9  3  1  0
 10 11  2  0
 11 12  1  0
 12 13  2  0
  7 13  1  0
  8 10  1  0
 15 16  2  0
 16 17  1  0
 14 12  1  0
 17 11  1  0
  1 18  1  0
 18 19  3  0
  9 20  1  0
 20 21  1  0
 21 22  1  0
 22 23  1  0
 22 24  1  0
 23 24  1  0
 16 25  1  0
 26 27  1  0
 27 28  2  0
 28 29  1  0
 29 25  1  0
 26 25  2  0
 27 30  1  0
 30 31  1  0
 30 32  1  0
 30 33  1  0
 29 34  1  0
 36 37  1  0
 37 38  2  0
 38 39  1  0
 35 39  2  0
 35 34  1  0
 34 36  2  0
 39 40  1  0
 40 41  1  0
  2 42  1  0
  4 43  1  0
  5 44  1  0
  6 45  1  0
  7 46  1  0
  9 47  1  1
 10 48  1  0
 13 49  1  0
 17 50  1  0
 20 51  1  0
 21 52  1  0
 21 53  1  0
 22 54  1  0
 23 55  1  0
 23 56  1  0
 24 57  1  0
 24 58  1  0
 26 59  1  0
 35 60  1  0
 36 61  1  0
 37 62  1  0
 38 63  1  0
 40 64  1  0
 40 65  1  0
 41 66  1  0
 41 67  1  0
M  END
> <Uni-Dock RESULT> 
ENERGY=   -3.724  LOWER_BOUND=    3.509  UPPER_BOUND=    9.756
INTER + INTRA:          -3.724
INTER:                  -3.724
INTRA:                   0.000
UNBOUND:                 0.000

$$$$

     RDKit          3D

 67 71  0  0  0  0  0  0  0  0999 V2000
   45.3819   -7.7317   -9.2592 C   0  0  0  0  0  0  0  0  0  0  0  0
   45.1193   -8.9972   -9.8013 C   0  0  0  0  0  0  0  0  0  0  0  0
   44.2310   -9.1473  -10.8820 C   0  0  0  0  0  0  0  0  0  0  0  0
   43.6325   -7.9926  -11.4162 C   0  0  0  0  0  0  0  0  0  0  0  0
   43.8921   -6.7314  -10.8775 C   0  0  0  0  0  0  0  0  0  0  0  0
   44.7628   -6.6002   -9.7968 C   0  0  0  0  0  0  0  0  0  0  0  0
   45.5384  -10.1478  -13.4597 C   0  0  0  0  0  0  0  0  0  0  0  0
   45.0763  -10.9848  -12.4290 C   0  0  0  0  0  0  0  0  0  0  0  0
   43.9715  -10.5407  -11.4600 C   0  0  2  0  0  0  0  0  0  0  0  0
   45.5926  -12.2954  -12.3320 C   0  0  0  0  0  0  0  0  0  0  0  0
   46.5580  -12.7539  -13.2300 C   0  0  0  0  0  0  0  0  0  0  0  0
   47.0128  -11.8822  -14.2257 C   0  0  0  0  0  0  0  0  0  0  0  0
   46.5138  -10.5924  -14.3496 C   0  0  0  0  0  0  0  0  0  0  0  0
   47.9424  -12.3074  -15.0977 F   0  0  0  0  0  0  0  0  0  0  0  0
   46.0200  -15.0471  -11.4464 O   0  0  0  0  0  0  0  0  0  0  0  0
   46.8015  -15.1096  -12.3879 C   0  0  0  0  0  0  0  0  0  0  0  0
   47.1033  -14.0570  -13.2301 N   0  0  0  0  0  0  0  0  0  0  0  0
   46.2858   -7.5956   -8.1546 C   0  0  0  0  0  0  0  0  0  0  0  0
   47.0175   -7.4842   -7.2610 N   0  0  0  0  0  0  0  0  0  0  0  0
   42.6609  -10.6688  -12.1302 N   0  0  0  0  0  0  0  0  0  0  0  0
   41.6039  -11.1684  -11.2475 C   0  0  0  0  0  0  0  0  0  0  0  0
   41.1298  -10.1301  -10.2810 C   0  0  0  0  0  0  0  0  0  0  0  0
   40.2600   -8.9861  -10.7411 C   0  0  0  0  0  0  0  0  0  0  0  0
   39.6752  -10.0721   -9.8813 C   0  0  0  0  0  0  0  0  0  0  0  0
   47.4918  -16.3297  -12.7424 C   0  0  0  0  0  0  0  0  0  0  0  0
   47.6759  -16.8382  -14.0198 C   0  0  0  0  0  0  0  0  0  0  0  0
   48.2206  -18.1284  -13.8610 C   0  0  0  0  0  0  0  0  0  0  0  0
   48.3940  -18.4047  -12.5606 N   0  0  0  0  0  0  0  0  0  0  0  0
   48.0185  -17.2829  -11.8751 N   0  0  0  0  0  0  0  0  0  0  0  0
   48.5441  -19.1125  -14.9554 C   0  0  0  0  0  0  0  0  0  0  0  0
   47.7254  -20.1968  -14.9360 F   0  0  0  0  0  0  0  0  0  0  0  0
   48.4030  -18.5472  -16.1879 F   0  0  0  0  0  0  0  0  0  0  0  0
   49.8220  -19.5702  -14.8884 F   0  0  0  0  0  0  0  0  0  0  0  0
   48.2701  -17.2397  -10.4656 C   0  0  0  0  0  0  0  0  0  0  0  0
   48.2348  -16.0522   -9.7253 C   0  0  0  0  0  0  0  0  0  0  0  0
   48.5987  -18.4348   -9.8010 C   0  0  0  0  0  0  0  0  0  0  0  0
   48.8545  -18.4443   -8.4278 C   0  0  0  0  0  0  0  0  0  0  0  0
   48.7875  -17.2606   -7.6980 C   0  0  0  0  0  0  0  0  0  0  0  0
   48.4670  -16.0572   -8.3362 C   0  0  0  0  0  0  0  0  0  0  0  0
   48.3942  -14.7727   -7.5522 C   0  0  0  0  0  0  0  0  0  0  0  0
   49.6661  -14.0641   -7.5730 N   0  0  0  0  0  0  0  0  0  0  0  0
   45.6084   -9.8751   -9.3798 H   0  0  0  0  0  0  0  0  0  0  0  0
   42.9446   -8.0768  -12.2575 H   0  0  0  0  0  0  0  0  0  0  0  0
   43.4088   -5.8539  -11.2992 H   0  0  0  0  0  0  0  0  0  0  0  0
   44.9547   -5.6118   -9.3824 H   0  0  0  0  0  0  0  0  0  0  0  0
   45.1350   -9.1451  -13.5804 H   0  0  0  0  0  0  0  0  0  0  0  0
   44.0023  -11.2372  -10.6101 H   0  0  0  0  0  0  0  0  0  0  0  0
   45.2123  -12.9407  -11.5467 H   0  0  0  0  0  0  0  0  0  0  0  0
   46.8763   -9.9457  -15.1414 H   0  0  0  0  0  0  0  0  0  0  0  0
   47.8015  -14.2157  -13.9491 H   0  0  0  0  0  0  0  0  0  0  0  0
   42.7654  -11.3584  -12.8752 H   0  0  0  0  0  0  0  0  0  0  0  0
   40.7676  -11.4718  -11.8876 H   0  0  0  0  0  0  0  0  0  0  0  0
   41.9204  -12.0729  -10.7161 H   0  0  0  0  0  0  0  0  0  0  0  0
   41.8517   -9.9367   -9.4951 H   0  0  0  0  0  0  0  0  0  0  0  0
   40.4323   -8.0141  -10.2934 H   0  0  0  0  0  0  0  0  0  0  0  0
   39.9739   -8.9476  -11.7864 H   0  0  0  0  0  0  0  0  0  0  0  0
   39.4498   -9.8392   -8.8472 H   0  0  0  0  0  0  0  0  0  0  0  0
   38.9787  -10.7649  -10.3404 H   0  0  0  0  0  0  0  0  0  0  0  0
   47.3791  -16.3743  -14.9525 H   0  0  0  0  0  0  0  0  0  0  0  0
   48.0402  -15.0918  -10.1870 H   0  0  0  0  0  0  0  0  0  0  0  0
   48.6406  -19.3825  -10.3381 H   0  0  0  0  0  0  0  0  0  0  0  0
   49.0941  -19.3804   -7.9288 H   0  0  0  0  0  0  0  0  0  0  0  0
   48.9758  -17.2803   -6.6272 H   0  0  0  0  0  0  0  0  0  0  0  0
   47.6080  -14.1288   -7.9627 H   0  0  0  0  0  0  0  0  0  0  0  0
   48.1072  -14.9771   -6.5128 H   0  0  0  0  0  0  0  0  0  0  0  0
   50.3833  -14.6676   -7.1741 H   0  0  0  0  0  0  0  0  0  0  0  0
   49.9455  -13.9043   -8.5392 H   0  0  0  0  0  0  0  0  0  0  0  0
  1  2  2  0
  2  3  1  0
  3  4  2  0
  4  5  1  0
  5  6  2  0
  1  6  1  0
  7  8  2  0
  8  9  1  0
  9  3  1  0
 10 11  2  0
 11 12  1  0
 12 13  2  0
  7 13  1  0
  8 10  1  0
 15 16  2  0
 16 17  1  0
 14 12  1  0
 17 11  1  0
  1 18  1  0
 18 19  3  0
  9 20  1  0
 20 21  1  0
 21 22  1  0
 22 23  1  0
 22 24  1  0
 23 24  1  0
 16 25  1  0
 26 27  1  0
 27 28  2  0
 28 29  1  0
 29 25  1  0
 26 25  2  0
 27 30  1  0
 30 31  1  0
 30 32  1  0
 30 33  1  0
 29 34  1  0
 36 37  1  0
 37 38  2  0
 38 39  1  0
 35 39  2  0
 35 34  1  0
 34 36  2  0
 39 40  1  0
 40 41  1  0
  2 42  1  0
  4 43  1  0
  5 44  1  0
  6 45  1  0
  7 46  1  0
  9 47  1  1
 10 48  1  0
 13 49  1  0
 17 50  1  0
 20 51  1  0
 21 52  1  0
 21 53  1  0
 22 54  1  0
 23 55  1  0
 23 56  1  0
 24 57  1  0
 24 58  1  0
 26 59  1  0
 35 60  1  0
 36 61  1  0
 37 62  1  0
 38 63  1  0
 40 64  1  0
 40 65  1  0
 41 66  1  0
 41 67  1  0
M  END
> <Uni-Dock RESULT> 
ENERGY=   -3.496  LOWER_BOUND=    3.307  UPPER_BOUND=    9.822
INTER + INTRA:          -3.496
INTER:                  -3.496
INTRA:                   0.000
UNBOUND:                 0.000

$$$$

     RDKit          3D

 67 71  0  0  0  0  0  0  0  0999 V2000
   48.5829  -17.0605   -9.9429 C   0  0  0  0  0  0  0  0  0  0  0  0
   48.2515  -15.9776  -10.7687 C   0  0  0  0  0  0  0  0  0  0  0  0
   47.7342  -16.1888  -12.0600 C   0  0  0  0  0  0  0  0  0  0  0  0
   47.5383  -17.5132  -12.4895 C   0  0  0  0  0  0  0  0  0  0  0  0
   47.8681  -18.5931  -11.6690 C   0  0  0  0  0  0  0  0  0  0  0  0
   48.3943  -18.3682  -10.3978 C   0  0  0  0  0  0  0  0  0  0  0  0
   44.8593  -15.2167  -12.4414 C   0  0  0  0  0  0  0  0  0  0  0  0
   45.9966  -14.4023  -12.5827 C   0  0  0  0  0  0  0  0  0  0  0  0
   47.3716  -14.9868  -12.9356 C   0  0  2  0  0  0  0  0  0  0  0  0
   45.8509  -13.0024  -12.4694 C   0  0  0  0  0  0  0  0  0  0  0  0
   44.6054  -12.4304  -12.2046 C   0  0  0  0  0  0  0  0  0  0  0  0
   43.5019  -13.2757  -12.0433 C   0  0  0  0  0  0  0  0  0  0  0  0
   43.6160  -14.6544  -12.1606 C   0  0  0  0  0  0  0  0  0  0  0  0
   42.2960  -12.7413  -11.7873 F   0  0  0  0  0  0  0  0  0  0  0  0
   46.4588  -10.1443  -12.4651 O   0  0  0  0  0  0  0  0  0  0  0  0
   45.2584  -10.0039  -12.2647 C   0  0  0  0  0  0  0  0  0  0  0  0
   44.3606  -11.0424  -12.1099 N   0  0  0  0  0  0  0  0  0  0  0  0
   49.1138  -16.8290   -8.6313 C   0  0  0  0  0  0  0  0  0  0  0  0
   49.5432  -16.6429   -7.5696 N   0  0  0  0  0  0  0  0  0  0  0  0
   47.4170  -15.2746  -14.3841 N   0  0  0  0  0  0  0  0  0  0  0  0
   48.7062  -14.9514  -15.0000 C   0  0  0  0  0  0  0  0  0  0  0  0
   49.7673  -15.9487  -14.6586 C   0  0  0  0  0  0  0  0  0  0  0  0
   49.7672  -17.3218  -15.2845 C   0  0  0  0  0  0  0  0  0  0  0  0
   50.8171  -16.3200  -15.6780 C   0  0  0  0  0  0  0  0  0  0  0  0
   44.6320   -8.7028  -12.1901 C   0  0  0  0  0  0  0  0  0  0  0  0
   43.4309   -8.3251  -12.7722 C   0  0  0  0  0  0  0  0  0  0  0  0
   43.3255   -6.9301  -12.6004 C   0  0  0  0  0  0  0  0  0  0  0  0
   44.3854   -6.4618  -11.9262 N   0  0  0  0  0  0  0  0  0  0  0  0
   45.1516   -7.5490  -11.6095 N   0  0  0  0  0  0  0  0  0  0  0  0
   42.2241   -6.0384  -13.1127 C   0  0  0  0  0  0  0  0  0  0  0  0
   42.6500   -5.2000  -14.0936 F   0  0  0  0  0  0  0  0  0  0  0  0
   41.2041   -6.7678  -13.6477 F   0  0  0  0  0  0  0  0  0  0  0  0
   41.6738   -5.2703  -12.1359 F   0  0  0  0  0  0  0  0  0  0  0  0
   46.2651   -7.3543  -10.7297 C   0  0  0  0  0  0  0  0  0  0  0  0
   46.9146   -8.4127  -10.0835 C   0  0  0  0  0  0  0  0  0  0  0  0
   46.7057   -6.0428  -10.4774 C   0  0  0  0  0  0  0  0  0  0  0  0
   47.7860   -5.8011   -9.6256 C   0  0  0  0  0  0  0  0  0  0  0  0
   48.4417   -6.8649   -9.0120 C   0  0  0  0  0  0  0  0  0  0  0  0
   48.0202   -8.1792   -9.2430 C   0  0  0  0  0  0  0  0  0  0  0  0
   48.7249   -9.3346   -8.5809 C   0  0  0  0  0  0  0  0  0  0  0  0
   48.0846   -9.6988   -7.3248 N   0  0  0  0  0  0  0  0  0  0  0  0
   48.3974  -14.9603  -10.4064 H   0  0  0  0  0  0  0  0  0  0  0  0
   47.1334  -17.7081  -13.4826 H   0  0  0  0  0  0  0  0  0  0  0  0
   47.7193  -19.6086  -12.0266 H   0  0  0  0  0  0  0  0  0  0  0  0
   48.6516  -19.2184   -9.7681 H   0  0  0  0  0  0  0  0  0  0  0  0
   44.9341  -16.2955  -12.5568 H   0  0  0  0  0  0  0  0  0  0  0  0
   48.1111  -14.2059  -12.7080 H   0  0  0  0  0  0  0  0  0  0  0  0
   46.7310  -12.3817  -12.6029 H   0  0  0  0  0  0  0  0  0  0  0  0
   42.7387  -15.2818  -12.0446 H   0  0  0  0  0  0  0  0  0  0  0  0
   43.3965  -10.8032  -11.9026 H   0  0  0  0  0  0  0  0  0  0  0  0
   46.7232  -14.6776  -14.8355 H   0  0  0  0  0  0  0  0  0  0  0  0
   48.5520  -14.9483  -16.0851 H   0  0  0  0  0  0  0  0  0  0  0  0
   49.0319  -13.9384  -14.7388 H   0  0  0  0  0  0  0  0  0  0  0  0
   50.1058  -15.8571  -13.6324 H   0  0  0  0  0  0  0  0  0  0  0  0
   50.0633  -18.1570  -14.6603 H   0  0  0  0  0  0  0  0  0  0  0  0
   48.9884  -17.5588  -16.0008 H   0  0  0  0  0  0  0  0  0  0  0  0
   51.8287  -16.4733  -15.3208 H   0  0  0  0  0  0  0  0  0  0  0  0
   50.7595  -15.8857  -16.6698 H   0  0  0  0  0  0  0  0  0  0  0  0
   42.7500   -8.9594  -13.3265 H   0  0  0  0  0  0  0  0  0  0  0  0
   46.5906   -9.4403  -10.1943 H   0  0  0  0  0  0  0  0  0  0  0  0
   46.2277   -5.1883  -10.9566 H   0  0  0  0  0  0  0  0  0  0  0  0
   48.1209   -4.7809   -9.4529 H   0  0  0  0  0  0  0  0  0  0  0  0
   49.2898   -6.6675   -8.3607 H   0  0  0  0  0  0  0  0  0  0  0  0
   48.7348  -10.2004   -9.2529 H   0  0  0  0  0  0  0  0  0  0  0  0
   49.7768   -9.0827   -8.3948 H   0  0  0  0  0  0  0  0  0  0  0  0
   48.0971   -8.8905   -6.7049 H   0  0  0  0  0  0  0  0  0  0  0  0
   47.1011   -9.9008   -7.4956 H   0  0  0  0  0  0  0  0  0  0  0  0
  1  2  2  0
  2  3  1  0
  3  4  2  0
  4  5  1  0
  5  6  2  0
  1  6  1  0
  7  8  2  0
  8  9  1  0
  9  3  1  0
 10 11  2  0
 11 12  1  0
 12 13  2  0
  7 13  1  0
  8 10  1  0
 15 16  2  0
 16 17  1  0
 14 12  1  0
 17 11  1  0
  1 18  1  0
 18 19  3  0
  9 20  1  0
 20 21  1  0
 21 22  1  0
 22 23  1  0
 22 24  1  0
 23 24  1  0
 16 25  1  0
 26 27  1  0
 27 28  2  0
 28 29  1  0
 29 25  1  0
 26 25  2  0
 27 30  1  0
 30 31  1  0
 30 32  1  0
 30 33  1  0
 29 34  1  0
 36 37  1  0
 37 38  2  0
 38 39  1  0
 35 39  2  0
 35 34  1  0
 34 36  2  0
 39 40  1  0
 40 41  1  0
  2 42  1  0
  4 43  1  0
  5 44  1  0
  6 45  1  0
  7 46  1  0
  9 47  1  1
 10 48  1  0
 13 49  1  0
 17 50  1  0
 20 51  1  0
 21 52  1  0
 21 53  1  0
 22 54  1  0
 23 55  1  0
 23 56  1  0
 24 57  1  0
 24 58  1  0
 26 59  1  0
 35 60  1  0
 36 61  1  0
 37 62  1  0
 38 63  1  0
 40 64  1  0
 40 65  1  0
 41 66  1  0
 41 67  1  0
M  END
> <Uni-Dock RESULT> 
ENERGY=   -3.421  LOWER_BOUND=    3.330  UPPER_BOUND=    5.685
INTER + INTRA:          -3.421
INTER:                  -3.421
INTRA:                   0.000
UNBOUND:                 0.000

$$$$
