
     RDKit          3D

 67 71  0  0  0  0  0  0  0  0999 V2000
   49.5986  -18.0041   -6.7369 C   0  0  0  0  0  0  0  0  0  0  0  0
   48.4553  -18.0655   -7.5440 C   0  0  0  0  0  0  0  0  0  0  0  0
   47.5882  -19.1716   -7.4823 C   0  0  0  0  0  0  0  0  0  0  0  0
   47.8822  -20.1982   -6.5676 C   0  0  0  0  0  0  0  0  0  0  0  0
   49.0192  -20.1367   -5.7594 C   0  0  0  0  0  0  0  0  0  0  0  0
   49.8796  -19.0436   -5.8466 C   0  0  0  0  0  0  0  0  0  0  0  0
   47.0850  -20.1991  -10.5818 C   0  0  0  0  0  0  0  0  0  0  0  0
   46.6473  -19.0848   -9.8406 C   0  0  0  0  0  0  0  0  0  0  0  0
   46.3315  -19.2684   -8.3513 C   0  0  2  0  0  0  0  0  0  0  0  0
   46.5713  -17.8329  -10.4871 C   0  0  0  0  0  0  0  0  0  0  0  0
   46.9090  -17.6947  -11.8356 C   0  0  0  0  0  0  0  0  0  0  0  0
   47.3378  -18.8266  -12.5370 C   0  0  0  0  0  0  0  0  0  0  0  0
   47.4270  -20.0709  -11.9267 C   0  0  0  0  0  0  0  0  0  0  0  0
   47.6726  -18.7121  -13.8323 F   0  0  0  0  0  0  0  0  0  0  0  0
   45.9160  -15.0420  -11.0065 O   0  0  0  0  0  0  0  0  0  0  0  0
   46.3968  -15.2532  -12.1130 C   0  0  0  0  0  0  0  0  0  0  0  0
   46.8613  -16.4778  -12.5509 N   0  0  0  0  0  0  0  0  0  0  0  0
   50.4823  -16.8792   -6.8292 C   0  0  0  0  0  0  0  0  0  0  0  0
   51.2033  -15.9737   -6.9107 N   0  0  0  0  0  0  0  0  0  0  0  0
   45.2975  -18.3843   -7.8024 N   0  0  0  0  0  0  0  0  0  0  0  0
   43.9601  -18.5673   -8.3532 C   0  0  0  0  0  0  0  0  0  0  0  0
   43.3740  -19.8839   -7.9415 C   0  0  0  0  0  0  0  0  0  0  0  0
   43.1250  -20.1983   -6.4870 C   0  0  0  0  0  0  0  0  0  0  0  0
   41.9632  -19.9612   -7.4101 C   0  0  0  0  0  0  0  0  0  0  0  0
   46.5279  -14.2153  -13.1074 C   0  0  0  0  0  0  0  0  0  0  0  0
   47.6409  -13.9401  -13.8867 C   0  0  0  0  0  0  0  0  0  0  0  0
   47.3615  -12.7354  -14.5650 C   0  0  0  0  0  0  0  0  0  0  0  0
   46.1378  -12.2915  -14.2431 N   0  0  0  0  0  0  0  0  0  0  0  0
   45.5950  -13.2312  -13.4138 N   0  0  0  0  0  0  0  0  0  0  0  0
   48.2865  -11.9941  -15.4946 C   0  0  0  0  0  0  0  0  0  0  0  0
   49.0720  -11.1077  -14.8287 F   0  0  0  0  0  0  0  0  0  0  0  0
   47.6336  -11.3017  -16.4640 F   0  0  0  0  0  0  0  0  0  0  0  0
   49.1313  -12.8508  -16.1346 F   0  0  0  0  0  0  0  0  0  0  0  0
   44.2086  -13.1121  -13.0749 C   0  0  0  0  0  0  0  0  0  0  0  0
   43.5511  -11.8939  -13.3350 C   0  0  0  0  0  0  0  0  0  0  0  0
   43.4675  -14.1735  -12.5447 C   0  0  0  0  0  0  0  0  0  0  0  0
   42.1092  -14.0104  -12.2536 C   0  0  0  0  0  0  0  0  0  0  0  0
   41.4732  -12.7950  -12.4994 C   0  0  0  0  0  0  0  0  0  0  0  0
   42.1882  -11.7226  -13.0406 C   0  0  0  0  0  0  0  0  0  0  0  0
   41.4991  -10.4188  -13.3497 C   0  0  0  0  0  0  0  0  0  0  0  0
   40.9829  -10.4069  -14.7134 N   0  0  0  0  0  0  0  0  0  0  0  0
   48.2420  -17.2432   -8.2244 H   0  0  0  0  0  0  0  0  0  0  0  0
   47.2156  -21.0539   -6.4731 H   0  0  0  0  0  0  0  0  0  0  0  0
   49.2311  -20.9410   -5.0585 H   0  0  0  0  0  0  0  0  0  0  0  0
   50.7638  -19.0069   -5.2128 H   0  0  0  0  0  0  0  0  0  0  0  0
   47.1717  -21.1749  -10.1065 H   0  0  0  0  0  0  0  0  0  0  0  0
   45.9654  -20.2985   -8.2453 H   0  0  0  0  0  0  0  0  0  0  0  0
   46.2581  -16.9688   -9.9118 H   0  0  0  0  0  0  0  0  0  0  0  0
   47.7670  -20.9288  -12.4980 H   0  0  0  0  0  0  0  0  0  0  0  0
   47.1689  -16.5453  -13.5163 H   0  0  0  0  0  0  0  0  0  0  0  0
   45.5833  -17.4145   -7.9071 H   0  0  0  0  0  0  0  0  0  0  0  0
   43.9420  -18.4725   -9.4441 H   0  0  0  0  0  0  0  0  0  0  0  0
   43.3333  -17.7537   -7.9691 H   0  0  0  0  0  0  0  0  0  0  0  0
   43.6970  -20.6934   -8.5864 H   0  0  0  0  0  0  0  0  0  0  0  0
   43.3570  -19.4366   -5.7507 H   0  0  0  0  0  0  0  0  0  0  0  0
   43.3130  -21.2106   -6.1499 H   0  0  0  0  0  0  0  0  0  0  0  0
   41.3990  -19.0446   -7.2813 H   0  0  0  0  0  0  0  0  0  0  0  0
   41.3592  -20.8158   -7.6946 H   0  0  0  0  0  0  0  0  0  0  0  0
   48.5712  -14.4943  -13.9085 H   0  0  0  0  0  0  0  0  0  0  0  0
   44.0974  -11.0544  -13.7654 H   0  0  0  0  0  0  0  0  0  0  0  0
   43.8894  -15.1553  -12.3657 H   0  0  0  0  0  0  0  0  0  0  0  0
   41.5433  -14.8417  -11.8396 H   0  0  0  0  0  0  0  0  0  0  0  0
   40.4145  -12.6904  -12.2724 H   0  0  0  0  0  0  0  0  0  0  0  0
   40.6762  -10.2507  -12.6448 H   0  0  0  0  0  0  0  0  0  0  0  0
   42.1951   -9.5833  -13.2128 H   0  0  0  0  0  0  0  0  0  0  0  0
   41.7588  -10.5674  -15.3550 H   0  0  0  0  0  0  0  0  0  0  0  0
   40.3611  -11.2050  -14.8355 H   0  0  0  0  0  0  0  0  0  0  0  0
  1  2  2  0
  2  3  1  0
  3  4  2  0
  4  5  1  0
  5  6  2  0
  1  6  1  0
  7  8  2  0
  8  9  1  0
  9  3  1  0
 10 11  2  0
 11 12  1  0
 12 13  2  0
  7 13  1  0
  8 10  1  0
 15 16  2  0
 16 17  1  0
 14 12  1  0
 17 11  1  0
  1 18  1  0
 18 19  3  0
  9 20  1  0
 20 21  1  0
 21 22  1  0
 22 23  1  0
 22 24  1  0
 23 24  1  0
 16 25  1  0
 26 27  1  0
 27 28  2  0
 28 29  1  0
 29 25  1  0
 26 25  2  0
 27 30  1  0
 30 31  1  0
 30 32  1  0
 30 33  1  0
 29 34  1  0
 36 37  1  0
 37 38  2  0
 38 39  1  0
 35 39  2  0
 35 34  1  0
 34 36  2  0
 39 40  1  0
 40 41  1  0
  2 42  1  0
  4 43  1  0
  5 44  1  0
  6 45  1  0
  7 46  1  0
  9 47  1  6
 10 48  1  0
 13 49  1  0
 17 50  1  0
 20 51  1  0
 21 52  1  0
 21 53  1  0
 22 54  1  0
 23 55  1  0
 23 56  1  0
 24 57  1  0
 24 58  1  0
 26 59  1  0
 35 60  1  0
 36 61  1  0
 37 62  1  0
 38 63  1  0
 40 64  1  0
 40 65  1  0
 41 66  1  0
 41 67  1  0
M  END
> <Uni-Dock RESULT> 
ENERGY=   -5.046  LOWER_BOUND=    0.000  UPPER_BOUND=    0.000
INTER + INTRA:          -5.046
INTER:                  -5.046
INTRA:                   0.000
UNBOUND:                 0.000

$$$$

     RDKit          3D

 67 71  0  0  0  0  0  0  0  0999 V2000
   48.3312  -16.0031   -8.2014 C   0  0  0  0  0  0  0  0  0  0  0  0
   47.5176  -15.9019   -9.3372 C   0  0  0  0  0  0  0  0  0  0  0  0
   47.1588  -17.0474  -10.0710 C   0  0  0  0  0  0  0  0  0  0  0  0
   47.6122  -18.2984   -9.6168 C   0  0  0  0  0  0  0  0  0  0  0  0
   48.4198  -18.4015   -8.4824 C   0  0  0  0  0  0  0  0  0  0  0  0
   48.7835  -17.2553   -7.7776 C   0  0  0  0  0  0  0  0  0  0  0  0
   47.8133  -16.4228  -13.2487 C   0  0  0  0  0  0  0  0  0  0  0  0
   46.8211  -15.9815  -12.3523 C   0  0  0  0  0  0  0  0  0  0  0  0
   46.2718  -16.9697  -11.3164 C   0  0  2  0  0  0  0  0  0  0  0  0
   46.4140  -14.6316  -12.4087 C   0  0  0  0  0  0  0  0  0  0  0  0
   46.9685  -13.7482  -13.3381 C   0  0  0  0  0  0  0  0  0  0  0  0
   47.9506  -14.2265  -14.2120 C   0  0  0  0  0  0  0  0  0  0  0  0
   48.3748  -15.5485  -14.1774 C   0  0  0  0  0  0  0  0  0  0  0  0
   48.4995  -13.3906  -15.1081 F   0  0  0  0  0  0  0  0  0  0  0  0
   44.8629  -12.2067  -11.9594 O   0  0  0  0  0  0  0  0  0  0  0  0
   45.6259  -11.7036  -12.7749 C   0  0  0  0  0  0  0  0  0  0  0  0
   46.6159  -12.3856  -13.4546 N   0  0  0  0  0  0  0  0  0  0  0  0
   48.7044  -14.8227   -7.4788 C   0  0  0  0  0  0  0  0  0  0  0  0
   49.0151  -13.8665   -6.8995 N   0  0  0  0  0  0  0  0  0  0  0  0
   44.8802  -16.7569  -10.9037 N   0  0  0  0  0  0  0  0  0  0  0  0
   43.8822  -16.9323  -11.9519 C   0  0  0  0  0  0  0  0  0  0  0  0
   43.7767  -18.3670  -12.3726 C   0  0  0  0  0  0  0  0  0  0  0  0
   43.3457  -19.4302  -11.3927 C   0  0  0  0  0  0  0  0  0  0  0  0
   42.4260  -19.0269  -12.5106 C   0  0  0  0  0  0  0  0  0  0  0  0
   45.5659  -10.3049  -13.1259 C   0  0  0  0  0  0  0  0  0  0  0  0
   46.6301   -9.4224  -13.2282 C   0  0  0  0  0  0  0  0  0  0  0  0
   46.0669   -8.1418  -13.4088 C   0  0  0  0  0  0  0  0  0  0  0  0
   44.7286   -8.2203  -13.4362 N   0  0  0  0  0  0  0  0  0  0  0  0
   44.4202   -9.5475  -13.3414 N   0  0  0  0  0  0  0  0  0  0  0  0
   46.8163   -6.8397  -13.5191 C   0  0  0  0  0  0  0  0  0  0  0  0
   47.0221   -6.2680  -12.3037 F   0  0  0  0  0  0  0  0  0  0  0  0
   46.1848   -5.9194  -14.2933 F   0  0  0  0  0  0  0  0  0  0  0  0
   48.0490   -7.0266  -14.0694 F   0  0  0  0  0  0  0  0  0  0  0  0
   43.0589   -9.9405  -13.5496 C   0  0  0  0  0  0  0  0  0  0  0  0
   42.0578   -8.9500  -13.5250 C   0  0  0  0  0  0  0  0  0  0  0  0
   42.6888  -11.2604  -13.8286 C   0  0  0  0  0  0  0  0  0  0  0  0
   41.3463  -11.5861  -14.0475 C   0  0  0  0  0  0  0  0  0  0  0  0
   40.3622  -10.6004  -14.0039 C   0  0  0  0  0  0  0  0  0  0  0  0
   40.7072   -9.2717  -13.7396 C   0  0  0  0  0  0  0  0  0  0  0  0
   39.6557   -8.1926  -13.7331 C   0  0  0  0  0  0  0  0  0  0  0  0
   39.5002   -7.6016  -15.0571 N   0  0  0  0  0  0  0  0  0  0  0  0
   47.1624  -14.9216   -9.6493 H   0  0  0  0  0  0  0  0  0  0  0  0
   47.3277  -19.2076  -10.1441 H   0  0  0  0  0  0  0  0  0  0  0  0
   48.7621  -19.3778   -8.1467 H   0  0  0  0  0  0  0  0  0  0  0  0
   49.4146  -17.3474   -6.8956 H   0  0  0  0  0  0  0  0  0  0  0  0
   48.1617  -17.4539  -13.2178 H   0  0  0  0  0  0  0  0  0  0  0  0
   46.3209  -17.9602  -11.7886 H   0  0  0  0  0  0  0  0  0  0  0  0
   45.6679  -14.2838  -11.7031 H   0  0  0  0  0  0  0  0  0  0  0  0
   49.1415  -15.8872  -14.8669 H   0  0  0  0  0  0  0  0  0  0  0  0
   47.1362  -11.8757  -14.1620 H   0  0  0  0  0  0  0  0  0  0  0  0
   44.7825  -15.8355  -10.4859 H   0  0  0  0  0  0  0  0  0  0  0  0
   44.0773  -16.2985  -12.8234 H   0  0  0  0  0  0  0  0  0  0  0  0
   42.9192  -16.6000  -11.5465 H   0  0  0  0  0  0  0  0  0  0  0  0
   44.5261  -18.6318  -13.1100 H   0  0  0  0  0  0  0  0  0  0  0  0
   43.0896  -19.1247  -10.3841 H   0  0  0  0  0  0  0  0  0  0  0  0
   43.8301  -20.3975  -11.4518 H   0  0  0  0  0  0  0  0  0  0  0  0
   41.5369  -18.4641  -12.2504 H   0  0  0  0  0  0  0  0  0  0  0  0
   42.2833  -19.7264  -13.3269 H   0  0  0  0  0  0  0  0  0  0  0  0
   47.6811   -9.6564  -13.1108 H   0  0  0  0  0  0  0  0  0  0  0  0
   42.3173   -7.9096  -13.3289 H   0  0  0  0  0  0  0  0  0  0  0  0
   43.4062  -12.0677  -13.9156 H   0  0  0  0  0  0  0  0  0  0  0  0
   41.0697  -12.6159  -14.2615 H   0  0  0  0  0  0  0  0  0  0  0  0
   39.3245  -10.8730  -14.1836 H   0  0  0  0  0  0  0  0  0  0  0  0
   38.6953   -8.6037  -13.4001 H   0  0  0  0  0  0  0  0  0  0  0  0
   39.9216   -7.4121  -13.0110 H   0  0  0  0  0  0  0  0  0  0  0  0
   40.4013   -7.2274  -15.3527 H   0  0  0  0  0  0  0  0  0  0  0  0
   39.2827   -8.3417  -15.7229 H   0  0  0  0  0  0  0  0  0  0  0  0
  1  2  2  0
  2  3  1  0
  3  4  2  0
  4  5  1  0
  5  6  2  0
  1  6  1  0
  7  8  2  0
  8  9  1  0
  9  3  1  0
 10 11  2  0
 11 12  1  0
 12 13  2  0
  7 13  1  0
  8 10  1  0
 15 16  2  0
 16 17  1  0
 14 12  1  0
 17 11  1  0
  1 18  1  0
 18 19  3  0
  9 20  1  0
 20 21  1  0
 21 22  1  0
 22 23  1  0
 22 24  1  0
 23 24  1  0
 16 25  1  0
 26 27  1  0
 27 28  2  0
 28 29  1  0
 29 25  1  0
 26 25  2  0
 27 30  1  0
 30 31  1  0
 30 32  1  0
 30 33  1  0
 29 34  1  0
 36 37  1  0
 37 38  2  0
 38 39  1  0
 35 39  2  0
 35 34  1  0
 34 36  2  0
 39 40  1  0
 40 41  1  0
  2 42  1  0
  4 43  1  0
  5 44  1  0
  6 45  1  0
  7 46  1  0
  9 47  1  6
 10 48  1  0
 13 49  1  0
 17 50  1  0
 20 51  1  0
 21 52  1  0
 21 53  1  0
 22 54  1  0
 23 55  1  0
 23 56  1  0
 24 57  1  0
 24 58  1  0
 26 59  1  0
 35 60  1  0
 36 61  1  0
 37 62  1  0
 38 63  1  0
 40 64  1  0
 40 65  1  0
 41 66  1  0
 41 67  1  0
M  END
> <Uni-Dock RESULT> 
ENERGY=   -3.724  LOWER_BOUND=    2.868  UPPER_BOUND=    4.138
INTER + INTRA:          -3.724
INTER:                  -3.724
INTRA:                   0.000
UNBOUND:                 0.000

$$$$

     RDKit          3D

 67 71  0  0  0  0  0  0  0  0999 V2000
   49.7504  -16.5621   -7.0549 C   0  0  0  0  0  0  0  0  0  0  0  0
   48.6343  -16.8379   -7.8552 C   0  0  0  0  0  0  0  0  0  0  0  0
   48.0379  -18.1121   -7.8455 C   0  0  0  0  0  0  0  0  0  0  0  0
   48.5718  -19.0910   -6.9890 C   0  0  0  0  0  0  0  0  0  0  0  0
   49.6817  -18.8164   -6.1875 C   0  0  0  0  0  0  0  0  0  0  0  0
   50.2741  -17.5552   -6.2233 C   0  0  0  0  0  0  0  0  0  0  0  0
   47.7169  -19.0700  -10.9912 C   0  0  0  0  0  0  0  0  0  0  0  0
   47.0556  -18.1208  -10.1885 C   0  0  0  0  0  0  0  0  0  0  0  0
   46.8180  -18.4448   -8.7087 C   0  0  2  0  0  0  0  0  0  0  0  0
   46.6890  -16.8871  -10.7671 C   0  0  0  0  0  0  0  0  0  0  0  0
   46.9608  -16.6095  -12.1089 C   0  0  0  0  0  0  0  0  0  0  0  0
   47.6182  -17.5797  -12.8727 C   0  0  0  0  0  0  0  0  0  0  0  0
   47.9954  -18.8013  -12.3300 C   0  0  0  0  0  0  0  0  0  0  0  0
   47.8936  -17.3284  -14.1627 F   0  0  0  0  0  0  0  0  0  0  0  0
   45.4161  -14.2920  -11.1324 O   0  0  0  0  0  0  0  0  0  0  0  0
   45.9103  -14.3344  -12.2522 C   0  0  0  0  0  0  0  0  0  0  0  0
   46.6283  -15.4001  -12.7582 N   0  0  0  0  0  0  0  0  0  0  0  0
   50.3582  -15.2644   -7.0942 C   0  0  0  0  0  0  0  0  0  0  0  0
   50.8566  -14.2173   -7.1331 N   0  0  0  0  0  0  0  0  0  0  0  0
   45.6233  -17.8438   -8.1056 N   0  0  0  0  0  0  0  0  0  0  0  0
   44.3502  -18.2945   -8.6549 C   0  0  0  0  0  0  0  0  0  0  0  0
   44.0816  -19.7279   -8.3092 C   0  0  0  0  0  0  0  0  0  0  0  0
   43.9377  -20.1624   -6.8715 C   0  0  0  0  0  0  0  0  0  0  0  0
   42.7345  -20.1463   -7.7716 C   0  0  0  0  0  0  0  0  0  0  0  0
   45.7865  -13.2451  -13.1911 C   0  0  0  0  0  0  0  0  0  0  0  0
   46.7943  -12.6887  -13.9634 C   0  0  0  0  0  0  0  0  0  0  0  0
   46.2395  -11.5449  -14.5746 C   0  0  0  0  0  0  0  0  0  0  0  0
   44.9540  -11.4036  -14.2200 N   0  0  0  0  0  0  0  0  0  0  0  0
   44.6513  -12.4814  -13.4375 N   0  0  0  0  0  0  0  0  0  0  0  0
   46.9569  -10.5694  -15.4706 C   0  0  0  0  0  0  0  0  0  0  0  0
   47.5371   -9.5638  -14.7647 F   0  0  0  0  0  0  0  0  0  0  0  0
   46.1469   -9.9936  -16.3968 F   0  0  0  0  0  0  0  0  0  0  0  0
   47.9593  -11.1817  -16.1617 F   0  0  0  0  0  0  0  0  0  0  0  0
   43.2803  -12.6935  -13.0821 C   0  0  0  0  0  0  0  0  0  0  0  0
   42.3621  -11.6424  -13.2720 C   0  0  0  0  0  0  0  0  0  0  0  0
   42.8059  -13.9192  -12.6033 C   0  0  0  0  0  0  0  0  0  0  0  0
   41.4514  -14.0798  -12.2933 C   0  0  0  0  0  0  0  0  0  0  0  0
   40.5551  -13.0274  -12.4692 C   0  0  0  0  0  0  0  0  0  0  0  0
   41.0014  -11.7962  -12.9583 C   0  0  0  0  0  0  0  0  0  0  0  0
   40.0322  -10.6665  -13.1923 C   0  0  0  0  0  0  0  0  0  0  0  0
   39.5000  -10.7026  -14.5495 N   0  0  0  0  0  0  0  0  0  0  0  0
   48.2292  -16.0515   -8.4893 H   0  0  0  0  0  0  0  0  0  0  0  0
   48.1154  -20.0780   -6.9349 H   0  0  0  0  0  0  0  0  0  0  0  0
   50.0818  -19.5867   -5.5320 H   0  0  0  0  0  0  0  0  0  0  0  0
   51.1397  -17.3527   -5.5953 H   0  0  0  0  0  0  0  0  0  0  0  0
   48.0289  -20.0239  -10.5691 H   0  0  0  0  0  0  0  0  0  0  0  0
   46.6937  -19.5348   -8.6547 H   0  0  0  0  0  0  0  0  0  0  0  0
   46.2018  -16.1453  -10.1443 H   0  0  0  0  0  0  0  0  0  0  0  0
   48.5074  -19.5313  -12.9487 H   0  0  0  0  0  0  0  0  0  0  0  0
   46.9243  -15.3485  -13.7281 H   0  0  0  0  0  0  0  0  0  0  0  0
   45.6828  -16.8306   -8.1608 H   0  0  0  0  0  0  0  0  0  0  0  0
   44.2902  -18.1517   -9.7390 H   0  0  0  0  0  0  0  0  0  0  0  0
   43.5650  -17.6625   -8.2233 H   0  0  0  0  0  0  0  0  0  0  0  0
   44.5648  -20.4110   -8.9987 H   0  0  0  0  0  0  0  0  0  0  0  0
   44.0077  -19.4060   -6.0976 H   0  0  0  0  0  0  0  0  0  0  0  0
   44.3538  -21.1223   -6.5901 H   0  0  0  0  0  0  0  0  0  0  0  0
   41.9822  -19.3873   -7.5900 H   0  0  0  0  0  0  0  0  0  0  0  0
   42.3315  -21.0993   -8.0964 H   0  0  0  0  0  0  0  0  0  0  0  0
   47.8245  -13.0182  -14.0218 H   0  0  0  0  0  0  0  0  0  0  0  0
   42.6983  -10.6814  -13.6615 H   0  0  0  0  0  0  0  0  0  0  0  0
   43.4400  -14.7891  -12.4799 H   0  0  0  0  0  0  0  0  0  0  0  0
   41.0940  -15.0366  -11.9197 H   0  0  0  0  0  0  0  0  0  0  0  0
   39.5044  -13.1745  -12.2288 H   0  0  0  0  0  0  0  0  0  0  0  0
   39.2065  -10.7228  -12.4731 H   0  0  0  0  0  0  0  0  0  0  0  0
   40.5263   -9.7040  -13.0167 H   0  0  0  0  0  0  0  0  0  0  0  0
   40.2795  -10.6526  -15.2047 H   0  0  0  0  0  0  0  0  0  0  0  0
   39.0702  -11.6127  -14.7089 H   0  0  0  0  0  0  0  0  0  0  0  0
  1  2  2  0
  2  3  1  0
  3  4  2  0
  4  5  1  0
  5  6  2  0
  1  6  1  0
  7  8  2  0
  8  9  1  0
  9  3  1  0
 10 11  2  0
 11 12  1  0
 12 13  2  0
  7 13  1  0
  8 10  1  0
 15 16  2  0
 16 17  1  0
 14 12  1  0
 17 11  1  0
  1 18  1  0
 18 19  3  0
  9 20  1  0
 20 21  1  0
 21 22  1  0
 22 23  1  0
 22 24  1  0
 23 24  1  0
 16 25  1  0
 26 27  1  0
 27 28  2  0
 28 29  1  0
 29 25  1  0
 26 25  2  0
 27 30  1  0
 30 31  1  0
 30 32  1  0
 30 33  1  0
 29 34  1  0
 36 37  1  0
 37 38  2  0
 38 39  1  0
 35 39  2  0
 35 34  1  0
 34 36  2  0
 39 40  1  0
 40 41  1  0
  2 42  1  0
  4 43  1  0
  5 44  1  0
  6 45  1  0
  7 46  1  0
  9 47  1  6
 10 48  1  0
 13 49  1  0
 17 50  1  0
 20 51  1  0
 21 52  1  0
 21 53  1  0
 22 54  1  0
 23 55  1  0
 23 56  1  0
 24 57  1  0
 24 58  1  0
 26 59  1  0
 35 60  1  0
 36 61  1  0
 37 62  1  0
 38 63  1  0
 40 64  1  0
 40 65  1  0
 41 66  1  0
 41 67  1  0
M  END
> <Uni-Dock RESULT> 
ENERGY=   -3.709  LOWER_BOUND=    1.172  UPPER_BOUND=    1.339
INTER + INTRA:          -3.709
INTER:                  -3.709
INTRA:                   0.000
UNBOUND:                 0.000

$$$$

     RDKit          3D

 67 71  0  0  0  0  0  0  0  0999 V2000
   46.2821  -17.2182   -7.7359 C   0  0  0  0  0  0  0  0  0  0  0  0
   45.8078  -16.9690   -9.0302 C   0  0  0  0  0  0  0  0  0  0  0  0
   45.6513  -18.0178   -9.9547 C   0  0  0  0  0  0  0  0  0  0  0  0
   45.9535  -19.3255   -9.5359 C   0  0  0  0  0  0  0  0  0  0  0  0
   46.4224  -19.5762   -8.2448 C   0  0  0  0  0  0  0  0  0  0  0  0
   46.5915  -18.5238   -7.3466 C   0  0  0  0  0  0  0  0  0  0  0  0
   47.1482  -17.0932  -12.7513 C   0  0  0  0  0  0  0  0  0  0  0  0
   45.9541  -16.7094  -12.1114 C   0  0  0  0  0  0  0  0  0  0  0  0
   45.1359  -17.7778  -11.3762 C   0  0  2  0  0  0  0  0  0  0  0  0
   45.5894  -15.3464  -12.1262 C   0  0  0  0  0  0  0  0  0  0  0  0
   46.3828  -14.3934  -12.7695 C   0  0  0  0  0  0  0  0  0  0  0  0
   47.5608  -14.8159  -13.3948 C   0  0  0  0  0  0  0  0  0  0  0  0
   47.9481  -16.1496  -13.3931 C   0  0  0  0  0  0  0  0  0  0  0  0
   48.3395  -13.9134  -14.0129 F   0  0  0  0  0  0  0  0  0  0  0  0
   43.9960  -12.9234  -11.8461 O   0  0  0  0  0  0  0  0  0  0  0  0
   44.9559  -12.3682  -12.3663 C   0  0  0  0  0  0  0  0  0  0  0  0
   46.0871  -13.0135  -12.8259 N   0  0  0  0  0  0  0  0  0  0  0  0
   46.4558  -16.1340   -6.8144 C   0  0  0  0  0  0  0  0  0  0  0  0
   46.6062  -15.2555   -6.0714 N   0  0  0  0  0  0  0  0  0  0  0  0
   43.6864  -17.5558  -11.3315 N   0  0  0  0  0  0  0  0  0  0  0  0
   43.0085  -17.5835  -12.6219 C   0  0  0  0  0  0  0  0  0  0  0  0
   43.0083  -18.9618  -13.2106 C   0  0  0  0  0  0  0  0  0  0  0  0
   42.3185  -20.1035  -12.5055 C   0  0  0  0  0  0  0  0  0  0  0  0
   41.7398  -19.5518  -13.7779 C   0  0  0  0  0  0  0  0  0  0  0  0
   45.0057  -10.9394  -12.5645 C   0  0  0  0  0  0  0  0  0  0  0  0
   46.0655  -10.0924  -12.2796 C   0  0  0  0  0  0  0  0  0  0  0  0
   45.5837   -8.7794  -12.4628 C   0  0  0  0  0  0  0  0  0  0  0  0
   44.3022   -8.8034  -12.8570 N   0  0  0  0  0  0  0  0  0  0  0  0
   43.9680  -10.1205  -12.9950 N   0  0  0  0  0  0  0  0  0  0  0  0
   46.3463   -7.5025  -12.2239 C   0  0  0  0  0  0  0  0  0  0  0  0
   46.2199   -7.0680  -10.9427 F   0  0  0  0  0  0  0  0  0  0  0  0
   45.9564   -6.4835  -13.0332 F   0  0  0  0  0  0  0  0  0  0  0  0
   47.6804   -7.6784  -12.4400 F   0  0  0  0  0  0  0  0  0  0  0  0
   42.7107  -10.4376  -13.6030 C   0  0  0  0  0  0  0  0  0  0  0  0
   41.7491   -9.4173  -13.7394 C   0  0  0  0  0  0  0  0  0  0  0  0
   42.4185  -11.7063  -14.1145 C   0  0  0  0  0  0  0  0  0  0  0  0
   41.1828  -11.9561  -14.7204 C   0  0  0  0  0  0  0  0  0  0  0  0
   40.2324  -10.9433  -14.8345 C   0  0  0  0  0  0  0  0  0  0  0  0
   40.5045   -9.6632  -14.3428 C   0  0  0  0  0  0  0  0  0  0  0  0
   39.5002   -8.5511  -14.5003 C   0  0  0  0  0  0  0  0  0  0  0  0
   39.7147   -7.8208  -15.7441 N   0  0  0  0  0  0  0  0  0  0  0  0
   45.5591  -15.9487   -9.3164 H   0  0  0  0  0  0  0  0  0  0  0  0
   45.8147  -20.1637  -10.2169 H   0  0  0  0  0  0  0  0  0  0  0  0
   46.6523  -20.5944   -7.9390 H   0  0  0  0  0  0  0  0  0  0  0  0
   46.9590  -18.7308   -6.3432 H   0  0  0  0  0  0  0  0  0  0  0  0
   47.4661  -18.1346  -12.7415 H   0  0  0  0  0  0  0  0  0  0  0  0
   45.3024  -18.7152  -11.9238 H   0  0  0  0  0  0  0  0  0  0  0  0
   44.6831  -15.0451  -11.6130 H   0  0  0  0  0  0  0  0  0  0  0  0
   48.8700  -16.4443  -13.8843 H   0  0  0  0  0  0  0  0  0  0  0  0
   46.7842  -12.4535  -13.3070 H   0  0  0  0  0  0  0  0  0  0  0  0
   43.4873  -16.6794  -10.8566 H   0  0  0  0  0  0  0  0  0  0  0  0
   43.4381  -16.8708  -13.3338 H   0  0  0  0  0  0  0  0  0  0  0  0
   41.9745  -17.2583  -12.4559 H   0  0  0  0  0  0  0  0  0  0  0  0
   43.9272  -19.1774  -13.7441 H   0  0  0  0  0  0  0  0  0  0  0  0
   41.8013  -19.8944  -11.5755 H   0  0  0  0  0  0  0  0  0  0  0  0
   42.7922  -21.0773  -12.5383 H   0  0  0  0  0  0  0  0  0  0  0  0
   40.8185  -18.9853  -13.7058 H   0  0  0  0  0  0  0  0  0  0  0  0
   41.8176  -20.1571  -14.6744 H   0  0  0  0  0  0  0  0  0  0  0  0
   47.0432  -10.3773  -11.9108 H   0  0  0  0  0  0  0  0  0  0  0  0
   41.9550   -8.4135  -13.3676 H   0  0  0  0  0  0  0  0  0  0  0  0
   43.1255  -12.5271  -14.0940 H   0  0  0  0  0  0  0  0  0  0  0  0
   40.9655  -12.9468  -15.1127 H   0  0  0  0  0  0  0  0  0  0  0  0
   39.2800  -11.1559  -15.3151 H   0  0  0  0  0  0  0  0  0  0  0  0
   38.4819   -8.9575  -14.4847 H   0  0  0  0  0  0  0  0  0  0  0  0
   39.5673   -7.8603  -13.6520 H   0  0  0  0  0  0  0  0  0  0  0  0
   40.6654   -7.4527  -15.7439 H   0  0  0  0  0  0  0  0  0  0  0  0
   39.6793   -8.4791  -16.5210 H   0  0  0  0  0  0  0  0  0  0  0  0
  1  2  2  0
  2  3  1  0
  3  4  2  0
  4  5  1  0
  5  6  2  0
  1  6  1  0
  7  8  2  0
  8  9  1  0
  9  3  1  0
 10 11  2  0
 11 12  1  0
 12 13  2  0
  7 13  1  0
  8 10  1  0
 15 16  2  0
 16 17  1  0
 14 12  1  0
 17 11  1  0
  1 18  1  0
 18 19  3  0
  9 20  1  0
 20 21  1  0
 21 22  1  0
 22 23  1  0
 22 24  1  0
 23 24  1  0
 16 25  1  0
 26 27  1  0
 27 28  2  0
 28 29  1  0
 29 25  1  0
 26 25  2  0
 27 30  1  0
 30 31  1  0
 30 32  1  0
 30 33  1  0
 29 34  1  0
 36 37  1  0
 37 38  2  0
 38 39  1  0
 35 39  2  0
 35 34  1  0
 34 36  2  0
 39 40  1  0
 40 41  1  0
  2 42  1  0
  4 43  1  0
  5 44  1  0
  6 45  1  0
  7 46  1  0
  9 47  1  6
 10 48  1  0
 13 49  1  0
 17 50  1  0
 20 51  1  0
 21 52  1  0
 21 53  1  0
 22 54  1  0
 23 55  1  0
 23 56  1  0
 24 57  1  0
 24 58  1  0
 26 59  1  0
 35 60  1  0
 36 61  1  0
 37 62  1  0
 38 63  1  0
 40 64  1  0
 40 65  1  0
 41 66  1  0
 41 67  1  0
M  END
> <Uni-Dock RESULT> 
ENERGY=   -3.553  LOWER_BOUND=    3.020  UPPER_BOUND=    4.203
INTER + INTRA:          -3.553
INTER:                  -3.553
INTRA:                   0.000
UNBOUND:                 0.000

$$$$

     RDKit          3D

 67 71  0  0  0  0  0  0  0  0999 V2000
   46.1940  -17.2369   -7.7735 C   0  0  0  0  0  0  0  0  0  0  0  0
   45.7213  -16.9603   -9.0628 C   0  0  0  0  0  0  0  0  0  0  0  0
   45.5456  -17.9922  -10.0027 C   0  0  0  0  0  0  0  0  0  0  0  0
   45.8269  -19.3110   -9.6044 C   0  0  0  0  0  0  0  0  0  0  0  0
   46.2942  -19.5890   -8.3183 C   0  0  0  0  0  0  0  0  0  0  0  0
   46.4824  -18.5532   -7.4047 C   0  0  0  0  0  0  0  0  0  0  0  0
   47.0522  -17.0503  -12.7883 C   0  0  0  0  0  0  0  0  0  0  0  0
   45.8658  -16.6566  -12.1401 C   0  0  0  0  0  0  0  0  0  0  0  0
   45.0315  -17.7222  -11.4193 C   0  0  2  0  0  0  0  0  0  0  0  0
   45.5238  -15.2876  -12.1335 C   0  0  0  0  0  0  0  0  0  0  0  0
   46.3316  -14.3382  -12.7641 C   0  0  0  0  0  0  0  0  0  0  0  0
   47.5012  -14.7706  -13.3982 C   0  0  0  0  0  0  0  0  0  0  0  0
   47.8663  -16.1105  -13.4176 C   0  0  0  0  0  0  0  0  0  0  0  0
   48.2935  -13.8719  -14.0044 F   0  0  0  0  0  0  0  0  0  0  0  0
   43.9714  -12.8431  -11.8133 O   0  0  0  0  0  0  0  0  0  0  0  0
   44.9393  -12.2960  -12.3271 C   0  0  0  0  0  0  0  0  0  0  0  0
   46.0587  -12.9529  -12.7989 N   0  0  0  0  0  0  0  0  0  0  0  0
   46.3874  -16.1698   -6.8361 C   0  0  0  0  0  0  0  0  0  0  0  0
   46.5538  -15.3053   -6.0803 N   0  0  0  0  0  0  0  0  0  0  0  0
   43.5859  -17.4769  -11.3680 N   0  0  0  0  0  0  0  0  0  0  0  0
   42.9051  -17.4739  -12.6572 C   0  0  0  0  0  0  0  0  0  0  0  0
   42.8809  -18.8429  -13.2667 C   0  0  0  0  0  0  0  0  0  0  0  0
   42.1736  -19.9836  -12.5774 C   0  0  0  0  0  0  0  0  0  0  0  0
   41.6018  -19.4032  -13.8400 C   0  0  0  0  0  0  0  0  0  0  0  0
   45.0124  -10.8654  -12.5038 C   0  0  0  0  0  0  0  0  0  0  0  0
   46.0866  -10.0405  -12.2085 C   0  0  0  0  0  0  0  0  0  0  0  0
   45.6263   -8.7171  -12.3708 C   0  0  0  0  0  0  0  0  0  0  0  0
   44.3438   -8.7138  -12.7624 N   0  0  0  0  0  0  0  0  0  0  0  0
   43.9876  -10.0230  -12.9196 N   0  0  0  0  0  0  0  0  0  0  0  0
   46.4105   -7.4568  -12.1142 C   0  0  0  0  0  0  0  0  0  0  0  0
   46.2939   -7.0396  -10.8264 F   0  0  0  0  0  0  0  0  0  0  0  0
   46.0360   -6.4193  -12.9072 F   0  0  0  0  0  0  0  0  0  0  0  0
   47.7410   -7.6514  -12.3360 F   0  0  0  0  0  0  0  0  0  0  0  0
   42.7240  -10.3100  -13.5296 C   0  0  0  0  0  0  0  0  0  0  0  0
   41.7793   -9.2720  -13.6484 C   0  0  0  0  0  0  0  0  0  0  0  0
   42.4098  -11.5658  -14.0596 C   0  0  0  0  0  0  0  0  0  0  0  0
   41.1689  -11.7859  -14.6664 C   0  0  0  0  0  0  0  0  0  0  0  0
   40.2353  -10.7559  -14.7631 C   0  0  0  0  0  0  0  0  0  0  0  0
   40.5296   -9.4881  -14.2527 C   0  0  0  0  0  0  0  0  0  0  0  0
   39.5435   -8.3573  -14.3911 C   0  0  0  0  0  0  0  0  0  0  0  0
   39.7676   -7.6118  -15.6242 N   0  0  0  0  0  0  0  0  0  0  0  0
   45.4890  -15.9318   -9.3330 H   0  0  0  0  0  0  0  0  0  0  0  0
   45.6729  -20.1363  -10.2977 H   0  0  0  0  0  0  0  0  0  0  0  0
   46.5077  -20.6153   -8.0284 H   0  0  0  0  0  0  0  0  0  0  0  0
   46.8484  -18.7814   -6.4053 H   0  0  0  0  0  0  0  0  0  0  0  0
   47.3527  -18.0968  -12.7950 H   0  0  0  0  0  0  0  0  0  0  0  0
   45.1813  -18.6539  -11.9814 H   0  0  0  0  0  0  0  0  0  0  0  0
   44.6236  -14.9792  -11.6138 H   0  0  0  0  0  0  0  0  0  0  0  0
   48.7823  -16.4129  -13.9152 H   0  0  0  0  0  0  0  0  0  0  0  0
   46.7641  -12.3973  -13.2731 H   0  0  0  0  0  0  0  0  0  0  0  0
   43.4023  -16.6047  -10.8795 H   0  0  0  0  0  0  0  0  0  0  0  0
   43.3451  -16.7577  -13.3592 H   0  0  0  0  0  0  0  0  0  0  0  0
   41.8771  -17.1342  -12.4841 H   0  0  0  0  0  0  0  0  0  0  0  0
   43.7951  -19.0656  -13.8054 H   0  0  0  0  0  0  0  0  0  0  0  0
   41.6618  -19.7801  -11.6432 H   0  0  0  0  0  0  0  0  0  0  0  0
   42.6311  -20.9645  -12.6260 H   0  0  0  0  0  0  0  0  0  0  0  0
   40.6901  -18.8227  -13.7573 H   0  0  0  0  0  0  0  0  0  0  0  0
   41.6678  -19.9960  -14.7457 H   0  0  0  0  0  0  0  0  0  0  0  0
   47.0602  -10.3471  -11.8462 H   0  0  0  0  0  0  0  0  0  0  0  0
   42.0025   -8.2775  -13.2619 H   0  0  0  0  0  0  0  0  0  0  0  0
   43.1031  -12.3985  -14.0529 H   0  0  0  0  0  0  0  0  0  0  0  0
   40.9345  -12.7669  -15.0731 H   0  0  0  0  0  0  0  0  0  0  0  0
   39.2785  -10.9454  -15.2447 H   0  0  0  0  0  0  0  0  0  0  0  0
   38.5187   -8.7469  -14.3794 H   0  0  0  0  0  0  0  0  0  0  0  0
   39.6237   -7.6806  -13.5327 H   0  0  0  0  0  0  0  0  0  0  0  0
   40.7244   -7.2596  -15.6205 H   0  0  0  0  0  0  0  0  0  0  0  0
   39.7198   -8.2576  -16.4109 H   0  0  0  0  0  0  0  0  0  0  0  0
  1  2  2  0
  2  3  1  0
  3  4  2  0
  4  5  1  0
  5  6  2  0
  1  6  1  0
  7  8  2  0
  8  9  1  0
  9  3  1  0
 10 11  2  0
 11 12  1  0
 12 13  2  0
  7 13  1  0
  8 10  1  0
 15 16  2  0
 16 17  1  0
 14 12  1  0
 17 11  1  0
  1 18  1  0
 18 19  3  0
  9 20  1  0
 20 21  1  0
 21 22  1  0
 22 23  1  0
 22 24  1  0
 23 24  1  0
 16 25  1  0
 26 27  1  0
 27 28  2  0
 28 29  1  0
 29 25  1  0
 26 25  2  0
 27 30  1  0
 30 31  1  0
 30 32  1  0
 30 33  1  0
 29 34  1  0
 36 37  1  0
 37 38  2  0
 38 39  1  0
 35 39  2  0
 35 34  1  0
 34 36  2  0
 39 40  1  0
 40 41  1  0
  2 42  1  0
  4 43  1  0
  5 44  1  0
  6 45  1  0
  7 46  1  0
  9 47  1  6
 10 48  1  0
 13 49  1  0
 17 50  1  0
 20 51  1  0
 21 52  1  0
 21 53  1  0
 22 54  1  0
 23 55  1  0
 23 56  1  0
 24 57  1  0
 24 58  1  0
 26 59  1  0
 35 60  1  0
 36 61  1  0
 37 62  1  0
 38 63  1  0
 40 64  1  0
 40 65  1  0
 41 66  1  0
 41 67  1  0
M  END
> <Uni-Dock RESULT> 
ENERGY=   -3.546  LOWER_BOUND=    3.052  UPPER_BOUND=    4.278
INTER + INTRA:          -3.546
INTER:                  -3.546
INTRA:                   0.000
UNBOUND:                 0.000

$$$$

     RDKit          3D

 67 71  0  0  0  0  0  0  0  0999 V2000
   41.9668   -8.4898  -13.2947 C   0  0  0  0  0  0  0  0  0  0  0  0
   43.1575   -9.0463  -12.8100 C   0  0  0  0  0  0  0  0  0  0  0  0
   44.3131   -8.2578  -12.6609 C   0  0  0  0  0  0  0  0  0  0  0  0
   44.2328   -6.8911  -12.9811 C   0  0  0  0  0  0  0  0  0  0  0  0
   43.0456   -6.3339  -13.4604 C   0  0  0  0  0  0  0  0  0  0  0  0
   41.9147   -7.1325  -13.6219 C   0  0  0  0  0  0  0  0  0  0  0  0
   46.7963   -9.8670  -14.1306 C   0  0  0  0  0  0  0  0  0  0  0  0
   46.0782  -10.0643  -12.9356 C   0  0  0  0  0  0  0  0  0  0  0  0
   45.6292   -8.8364  -12.1345 C   0  0  2  0  0  0  0  0  0  0  0  0
   45.7532  -11.3836  -12.5545 C   0  0  0  0  0  0  0  0  0  0  0  0
   46.1418  -12.4767  -13.3327 C   0  0  0  0  0  0  0  0  0  0  0  0
   46.8553  -12.2380  -14.5121 C   0  0  0  0  0  0  0  0  0  0  0  0
   47.1858  -10.9508  -14.9154 C   0  0  0  0  0  0  0  0  0  0  0  0
   47.2321  -13.2758  -15.2763 F   0  0  0  0  0  0  0  0  0  0  0  0
   44.8763  -13.6401  -10.9337 O   0  0  0  0  0  0  0  0  0  0  0  0
   45.2447  -14.3196  -11.8839 C   0  0  0  0  0  0  0  0  0  0  0  0
   45.8530  -13.8234  -13.0201 N   0  0  0  0  0  0  0  0  0  0  0  0
   40.8055   -9.3135  -13.4606 C   0  0  0  0  0  0  0  0  0  0  0  0
   39.8680   -9.9820  -13.6046 N   0  0  0  0  0  0  0  0  0  0  0  0
   45.5270   -9.0214  -10.6827 N   0  0  0  0  0  0  0  0  0  0  0  0
   46.7822   -9.3060   -9.9978 C   0  0  0  0  0  0  0  0  0  0  0  0
   47.6947   -8.1171  -10.0108 C   0  0  0  0  0  0  0  0  0  0  0  0
   47.2933   -6.8272   -9.3388 C   0  0  0  0  0  0  0  0  0  0  0  0
   48.3874   -7.6698   -8.7464 C   0  0  0  0  0  0  0  0  0  0  0  0
   45.0821  -15.7534  -11.9153 C   0  0  0  0  0  0  0  0  0  0  0  0
   44.5986  -16.5169  -12.9665 C   0  0  0  0  0  0  0  0  0  0  0  0
   44.4489  -17.8279  -12.4679 C   0  0  0  0  0  0  0  0  0  0  0  0
   44.8334  -17.8858  -11.1846 N   0  0  0  0  0  0  0  0  0  0  0  0
   45.2933  -16.6399  -10.8655 N   0  0  0  0  0  0  0  0  0  0  0  0
   43.9023  -19.0153  -13.2165 C   0  0  0  0  0  0  0  0  0  0  0  0
   42.5531  -19.1166  -13.0922 F   0  0  0  0  0  0  0  0  0  0  0  0
   44.4323  -20.1982  -12.8098 F   0  0  0  0  0  0  0  0  0  0  0  0
   44.1588  -18.9161  -14.5513 F   0  0  0  0  0  0  0  0  0  0  0  0
   45.9577  -16.4673   -9.6086 C   0  0  0  0  0  0  0  0  0  0  0  0
   45.8341  -17.4768   -8.6341 C   0  0  0  0  0  0  0  0  0  0  0  0
   46.7675  -15.3615   -9.3288 C   0  0  0  0  0  0  0  0  0  0  0  0
   47.4132  -15.2538   -8.0927 C   0  0  0  0  0  0  0  0  0  0  0  0
   47.2699  -16.2508   -7.1296 C   0  0  0  0  0  0  0  0  0  0  0  0
   46.4765  -17.3721   -7.3891 C   0  0  0  0  0  0  0  0  0  0  0  0
   46.3504  -18.4753   -6.3706 C   0  0  0  0  0  0  0  0  0  0  0  0
   47.3744  -19.4943   -6.5692 N   0  0  0  0  0  0  0  0  0  0  0  0
   43.1808  -10.1023  -12.5474 H   0  0  0  0  0  0  0  0  0  0  0  0
   45.1002   -6.2465  -12.8485 H   0  0  0  0  0  0  0  0  0  0  0  0
   43.0027   -5.2747  -13.7042 H   0  0  0  0  0  0  0  0  0  0  0  0
   40.9950   -6.6878  -13.9977 H   0  0  0  0  0  0  0  0  0  0  0  0
   47.0463   -8.8601  -14.4610 H   0  0  0  0  0  0  0  0  0  0  0  0
   46.3928   -8.0665  -12.3091 H   0  0  0  0  0  0  0  0  0  0  0  0
   45.1790  -11.5361  -11.6475 H   0  0  0  0  0  0  0  0  0  0  0  0
   47.7371  -10.7994  -15.8379 H   0  0  0  0  0  0  0  0  0  0  0  0
   46.1819  -14.4943  -13.7076 H   0  0  0  0  0  0  0  0  0  0  0  0
   44.8490   -9.7497  -10.4758 H   0  0  0  0  0  0  0  0  0  0  0  0
   47.2960  -10.1786  -10.4148 H   0  0  0  0  0  0  0  0  0  0  0  0
   46.5381   -9.5663   -8.9610 H   0  0  0  0  0  0  0  0  0  0  0  0
   48.2674   -8.0527  -10.9292 H   0  0  0  0  0  0  0  0  0  0  0  0
   46.3392   -6.7921   -8.8245 H   0  0  0  0  0  0  0  0  0  0  0  0
   47.5681   -5.8983   -9.8240 H   0  0  0  0  0  0  0  0  0  0  0  0
   48.1746   -8.1886   -7.8187 H   0  0  0  0  0  0  0  0  0  0  0  0
   49.4063   -7.3071   -8.8263 H   0  0  0  0  0  0  0  0  0  0  0  0
   44.3145  -16.1621  -13.9496 H   0  0  0  0  0  0  0  0  0  0  0  0
   45.2253  -18.3595   -8.8300 H   0  0  0  0  0  0  0  0  0  0  0  0
   46.9531  -14.5706  -10.0456 H   0  0  0  0  0  0  0  0  0  0  0  0
   48.0387  -14.3887   -7.8851 H   0  0  0  0  0  0  0  0  0  0  0  0
   47.7858  -16.1516   -6.1771 H   0  0  0  0  0  0  0  0  0  0  0  0
   46.4336  -18.0645   -5.3574 H   0  0  0  0  0  0  0  0  0  0  0  0
   45.3573  -18.9348   -6.4342 H   0  0  0  0  0  0  0  0  0  0  0  0
   47.2853  -19.8631   -7.5154 H   0  0  0  0  0  0  0  0  0  0  0  0
   48.2904  -19.0490   -6.5373 H   0  0  0  0  0  0  0  0  0  0  0  0
  1  2  2  0
  2  3  1  0
  3  4  2  0
  4  5  1  0
  5  6  2  0
  1  6  1  0
  7  8  2  0
  8  9  1  0
  9  3  1  0
 10 11  2  0
 11 12  1  0
 12 13  2  0
  7 13  1  0
  8 10  1  0
 15 16  2  0
 16 17  1  0
 14 12  1  0
 17 11  1  0
  1 18  1  0
 18 19  3  0
  9 20  1  0
 20 21  1  0
 21 22  1  0
 22 23  1  0
 22 24  1  0
 23 24  1  0
 16 25  1  0
 26 27  1  0
 27 28  2  0
 28 29  1  0
 29 25  1  0
 26 25  2  0
 27 30  1  0
 30 31  1  0
 30 32  1  0
 30 33  1  0
 29 34  1  0
 36 37  1  0
 37 38  2  0
 38 39  1  0
 35 39  2  0
 35 34  1  0
 34 36  2  0
 39 40  1  0
 40 41  1  0
  2 42  1  0
  4 43  1  0
  5 44  1  0
  6 45  1  0
  7 46  1  0
  9 47  1  6
 10 48  1  0
 13 49  1  0
 17 50  1  0
 20 51  1  0
 21 52  1  0
 21 53  1  0
 22 54  1  0
 23 55  1  0
 23 56  1  0
 24 57  1  0
 24 58  1  0
 26 59  1  0
 35 60  1  0
 36 61  1  0
 37 62  1  0
 38 63  1  0
 40 64  1  0
 40 65  1  0
 41 66  1  0
 41 67  1  0
M  END
> <Uni-Dock RESULT> 
ENERGY=   -3.397  LOWER_BOUND=    3.418  UPPER_BOUND=   10.038
INTER + INTRA:          -3.397
INTER:                  -3.397
INTRA:                   0.000
UNBOUND:                 0.000

$$$$

     RDKit          3D

 67 71  0  0  0  0  0  0  0  0999 V2000
   48.4029  -16.3632  -14.3770 C   0  0  0  0  0  0  0  0  0  0  0  0
   47.2753  -15.5482  -14.5403 C   0  0  0  0  0  0  0  0  0  0  0  0
   46.4677  -15.6568  -15.6871 C   0  0  0  0  0  0  0  0  0  0  0  0
   46.8040  -16.6253  -16.6493 C   0  0  0  0  0  0  0  0  0  0  0  0
   47.9253  -17.4414  -16.4861 C   0  0  0  0  0  0  0  0  0  0  0  0
   48.7272  -17.3079  -15.3539 C   0  0  0  0  0  0  0  0  0  0  0  0
   46.0612  -12.6082  -16.8941 C   0  0  0  0  0  0  0  0  0  0  0  0
   45.5548  -13.2873  -15.7694 C   0  0  0  0  0  0  0  0  0  0  0  0
   45.2296  -14.7805  -15.8950 C   0  0  2  0  0  0  0  0  0  0  0  0
   45.4207  -12.5774  -14.5573 C   0  0  0  0  0  0  0  0  0  0  0  0
   45.7684  -11.2273  -14.4688 C   0  0  0  0  0  0  0  0  0  0  0  0
   46.2663  -10.5887  -15.6095 C   0  0  0  0  0  0  0  0  0  0  0  0
   46.4137  -11.2622  -16.8151 C   0  0  0  0  0  0  0  0  0  0  0  0
   46.6116   -9.2929  -15.5420 F   0  0  0  0  0  0  0  0  0  0  0  0
   44.6243  -11.9104  -11.8354 O   0  0  0  0  0  0  0  0  0  0  0  0
   45.1303  -10.8212  -12.0754 C   0  0  0  0  0  0  0  0  0  0  0  0
   45.6653  -10.4508  -13.2935 N   0  0  0  0  0  0  0  0  0  0  0  0
   49.2264  -16.2234  -13.2120 C   0  0  0  0  0  0  0  0  0  0  0  0
   49.8991  -16.1036  -12.2741 N   0  0  0  0  0  0  0  0  0  0  0  0
   44.1427  -15.2731  -15.0417 N   0  0  0  0  0  0  0  0  0  0  0  0
   42.8244  -14.7182  -15.3240 C   0  0  0  0  0  0  0  0  0  0  0  0
   42.3040  -15.1898  -16.6480 C   0  0  0  0  0  0  0  0  0  0  0  0
   42.0530  -16.6557  -16.9022 C   0  0  0  0  0  0  0  0  0  0  0  0
   40.8925  -15.7096  -16.7747 C   0  0  0  0  0  0  0  0  0  0  0  0
   45.2190   -9.7769  -11.0830 C   0  0  0  0  0  0  0  0  0  0  0  0
   46.3258   -8.9964  -10.7875 C   0  0  0  0  0  0  0  0  0  0  0  0
   45.9916   -8.2550   -9.6350 C   0  0  0  0  0  0  0  0  0  0  0  0
   44.7417   -8.5410   -9.2423 N   0  0  0  0  0  0  0  0  0  0  0  0
   44.2389   -9.4112  -10.1673 N   0  0  0  0  0  0  0  0  0  0  0  0
   46.8879   -7.2989   -8.8923 C   0  0  0  0  0  0  0  0  0  0  0  0
   47.6161   -7.9273   -7.9326 F   0  0  0  0  0  0  0  0  0  0  0  0
   46.2118   -6.2888   -8.2855 F   0  0  0  0  0  0  0  0  0  0  0  0
   47.7857   -6.7121   -9.7331 F   0  0  0  0  0  0  0  0  0  0  0  0
   42.8438   -9.7289  -10.1064 C   0  0  0  0  0  0  0  0  0  0  0  0
   42.1257   -9.4005   -8.9400 C   0  0  0  0  0  0  0  0  0  0  0  0
   42.1535  -10.3044  -11.1784 C   0  0  0  0  0  0  0  0  0  0  0  0
   40.7846  -10.5726  -11.0745 C   0  0  0  0  0  0  0  0  0  0  0  0
   40.0880  -10.2588   -9.9091 C   0  0  0  0  0  0  0  0  0  0  0  0
   40.7518   -9.6715   -8.8280 C   0  0  0  0  0  0  0  0  0  0  0  0
   39.9982   -9.2895   -7.5804 C   0  0  0  0  0  0  0  0  0  0  0  0
   39.5002   -7.9216   -7.6648 N   0  0  0  0  0  0  0  0  0  0  0  0
   47.0274  -14.8248  -13.7658 H   0  0  0  0  0  0  0  0  0  0  0  0
   46.1828  -16.7561  -17.5339 H   0  0  0  0  0  0  0  0  0  0  0  0
   48.1705  -18.1843  -17.2418 H   0  0  0  0  0  0  0  0  0  0  0  0
   49.5996  -17.9483  -15.2378 H   0  0  0  0  0  0  0  0  0  0  0  0
   46.1936  -13.1332  -17.8388 H   0  0  0  0  0  0  0  0  0  0  0  0
   44.9177  -14.9348  -16.9368 H   0  0  0  0  0  0  0  0  0  0  0  0
   45.0543  -13.1048  -13.6838 H   0  0  0  0  0  0  0  0  0  0  0  0
   46.8066  -10.7388  -17.6809 H   0  0  0  0  0  0  0  0  0  0  0  0
   45.9888   -9.4934  -13.3925 H   0  0  0  0  0  0  0  0  0  0  0  0
   44.3776  -15.1224  -14.0643 H   0  0  0  0  0  0  0  0  0  0  0  0
   42.8157  -13.6238  -15.2850 H   0  0  0  0  0  0  0  0  0  0  0  0
   42.1500  -15.0539  -14.5272 H   0  0  0  0  0  0  0  0  0  0  0  0
   42.6783  -14.5902  -17.4702 H   0  0  0  0  0  0  0  0  0  0  0  0
   42.2342  -17.3549  -16.0933 H   0  0  0  0  0  0  0  0  0  0  0  0
   42.2902  -17.0457  -17.8848 H   0  0  0  0  0  0  0  0  0  0  0  0
   40.2785  -15.7858  -15.8847 H   0  0  0  0  0  0  0  0  0  0  0  0
   40.3388  -15.4624  -17.6739 H   0  0  0  0  0  0  0  0  0  0  0  0
   47.2847   -9.0126  -11.2910 H   0  0  0  0  0  0  0  0  0  0  0  0
   42.6320   -8.9339   -8.0949 H   0  0  0  0  0  0  0  0  0  0  0  0
   42.6248  -10.5374  -12.1258 H   0  0  0  0  0  0  0  0  0  0  0  0
   40.2585  -11.0221  -11.9134 H   0  0  0  0  0  0  0  0  0  0  0  0
   39.0223  -10.4690   -9.8506 H   0  0  0  0  0  0  0  0  0  0  0  0
   39.1583   -9.9763   -7.4220 H   0  0  0  0  0  0  0  0  0  0  0  0
   40.6468   -9.3912   -6.7028 H   0  0  0  0  0  0  0  0  0  0  0  0
   40.2921   -7.2972   -7.8150 H   0  0  0  0  0  0  0  0  0  0  0  0
   38.9237   -7.8335   -8.5003 H   0  0  0  0  0  0  0  0  0  0  0  0
  1  2  2  0
  2  3  1  0
  3  4  2  0
  4  5  1  0
  5  6  2  0
  1  6  1  0
  7  8  2  0
  8  9  1  0
  9  3  1  0
 10 11  2  0
 11 12  1  0
 12 13  2  0
  7 13  1  0
  8 10  1  0
 15 16  2  0
 16 17  1  0
 14 12  1  0
 17 11  1  0
  1 18  1  0
 18 19  3  0
  9 20  1  0
 20 21  1  0
 21 22  1  0
 22 23  1  0
 22 24  1  0
 23 24  1  0
 16 25  1  0
 26 27  1  0
 27 28  2  0
 28 29  1  0
 29 25  1  0
 26 25  2  0
 27 30  1  0
 30 31  1  0
 30 32  1  0
 30 33  1  0
 29 34  1  0
 36 37  1  0
 37 38  2  0
 38 39  1  0
 35 39  2  0
 35 34  1  0
 34 36  2  0
 39 40  1  0
 40 41  1  0
  2 42  1  0
  4 43  1  0
  5 44  1  0
  6 45  1  0
  7 46  1  0
  9 47  1  6
 10 48  1  0
 13 49  1  0
 17 50  1  0
 20 51  1  0
 21 52  1  0
 21 53  1  0
 22 54  1  0
 23 55  1  0
 23 56  1  0
 24 57  1  0
 24 58  1  0
 26 59  1  0
 35 60  1  0
 36 61  1  0
 37 62  1  0
 38 63  1  0
 40 64  1  0
 40 65  1  0
 41 66  1  0
 41 67  1  0
M  END
> <Uni-Dock RESULT> 
ENERGY=   -3.327  LOWER_BOUND=    5.340  UPPER_BOUND=    7.723
INTER + INTRA:          -3.327
INTER:                  -3.327
INTRA:                   0.000
UNBOUND:                 0.000

$$$$

     RDKit          3D

 67 71  0  0  0  0  0  0  0  0999 V2000
   40.9594  -12.1950  -15.7490 C   0  0  0  0  0  0  0  0  0  0  0  0
   41.8703  -12.0349  -14.6969 C   0  0  0  0  0  0  0  0  0  0  0  0
   42.0814  -10.7728  -14.1123 C   0  0  0  0  0  0  0  0  0  0  0  0
   41.3318   -9.6835  -14.5904 C   0  0  0  0  0  0  0  0  0  0  0  0
   40.4204   -9.8422  -15.6363 C   0  0  0  0  0  0  0  0  0  0  0  0
   40.2372  -11.0951  -16.2188 C   0  0  0  0  0  0  0  0  0  0  0  0
   45.3445  -10.2616  -14.0308 C   0  0  0  0  0  0  0  0  0  0  0  0
   44.4689  -11.0912  -13.3044 C   0  0  0  0  0  0  0  0  0  0  0  0
   43.0699  -10.5653  -12.9618 C   0  0  2  0  0  0  0  0  0  0  0  0
   44.8963  -12.3940  -12.9706 C   0  0  0  0  0  0  0  0  0  0  0  0
   46.1629  -12.8548  -13.3377 C   0  0  0  0  0  0  0  0  0  0  0  0
   47.0033  -11.9989  -14.0575 C   0  0  0  0  0  0  0  0  0  0  0  0
   46.6089  -10.7132  -14.4043 C   0  0  0  0  0  0  0  0  0  0  0  0
   48.2221  -12.4264  -14.4245 F   0  0  0  0  0  0  0  0  0  0  0  0
   44.9911  -15.0168  -11.7058 O   0  0  0  0  0  0  0  0  0  0  0  0
   46.0665  -15.1296  -12.2811 C   0  0  0  0  0  0  0  0  0  0  0  0
   46.6610  -14.1432  -13.0433 N   0  0  0  0  0  0  0  0  0  0  0  0
   40.7735  -13.4845  -16.3469 C   0  0  0  0  0  0  0  0  0  0  0  0
   40.6300  -14.5260  -16.8379 N   0  0  0  0  0  0  0  0  0  0  0  0
   42.4790  -11.0787  -11.7211 N   0  0  0  0  0  0  0  0  0  0  0  0
   43.1778  -10.7109  -10.4956 C   0  0  0  0  0  0  0  0  0  0  0  0
   43.0550   -9.2438  -10.2146 C   0  0  0  0  0  0  0  0  0  0  0  0
   41.7059   -8.6141   -9.9694 C   0  0  0  0  0  0  0  0  0  0  0  0
   42.6814   -8.7572   -8.8353 C   0  0  0  0  0  0  0  0  0  0  0  0
   46.8519  -16.3389  -12.2171 C   0  0  0  0  0  0  0  0  0  0  0  0
   47.4631  -16.9955  -13.2740 C   0  0  0  0  0  0  0  0  0  0  0  0
   47.9491  -18.2139  -12.7556 C   0  0  0  0  0  0  0  0  0  0  0  0
   47.6741  -18.3069  -11.4465 N   0  0  0  0  0  0  0  0  0  0  0  0
   47.0731  -17.1313  -11.0965 N   0  0  0  0  0  0  0  0  0  0  0  0
   48.6459  -19.3032  -13.5285 C   0  0  0  0  0  0  0  0  0  0  0  0
   47.7665  -20.2000  -14.0468 F   0  0  0  0  0  0  0  0  0  0  0  0
   49.5404  -20.0034  -12.7836 F   0  0  0  0  0  0  0  0  0  0  0  0
   49.3394  -18.7911  -14.5840 F   0  0  0  0  0  0  0  0  0  0  0  0
   46.8525  -16.8743   -9.7050 C   0  0  0  0  0  0  0  0  0  0  0  0
   46.9621  -17.9432   -8.7943 C   0  0  0  0  0  0  0  0  0  0  0  0
   46.5845  -15.5948   -9.2073 C   0  0  0  0  0  0  0  0  0  0  0  0
   46.4005  -15.3950   -7.8351 C   0  0  0  0  0  0  0  0  0  0  0  0
   46.4945  -16.4632   -6.9452 C   0  0  0  0  0  0  0  0  0  0  0  0
   46.7739  -17.7497   -7.4156 C   0  0  0  0  0  0  0  0  0  0  0  0
   46.9199  -18.9026   -6.4566 C   0  0  0  0  0  0  0  0  0  0  0  0
   48.3044  -19.0562   -6.0255 N   0  0  0  0  0  0  0  0  0  0  0  0
   42.4174  -12.9024  -14.3327 H   0  0  0  0  0  0  0  0  0  0  0  0
   41.4488   -8.6993  -14.1397 H   0  0  0  0  0  0  0  0  0  0  0  0
   39.8503   -8.9876  -15.9938 H   0  0  0  0  0  0  0  0  0  0  0  0
   39.5251  -11.2069  -17.0344 H   0  0  0  0  0  0  0  0  0  0  0  0
   45.0369   -9.2577  -14.3192 H   0  0  0  0  0  0  0  0  0  0  0  0
   43.1768   -9.4786  -12.8432 H   0  0  0  0  0  0  0  0  0  0  0  0
   44.2143  -13.0429  -12.4328 H   0  0  0  0  0  0  0  0  0  0  0  0
   47.2834  -10.0752  -14.9665 H   0  0  0  0  0  0  0  0  0  0  0  0
   47.5900  -14.3285  -13.4091 H   0  0  0  0  0  0  0  0  0  0  0  0
   42.3887  -12.0896  -11.7758 H   0  0  0  0  0  0  0  0  0  0  0  0
   44.2332  -11.0029  -10.5138 H   0  0  0  0  0  0  0  0  0  0  0  0
   42.7219  -11.2782   -9.6754 H   0  0  0  0  0  0  0  0  0  0  0  0
   43.7949   -8.6623  -10.7528 H   0  0  0  0  0  0  0  0  0  0  0  0
   40.8316   -9.2556   -9.9762 H   0  0  0  0  0  0  0  0  0  0  0  0
   41.5304   -7.6237  -10.3720 H   0  0  0  0  0  0  0  0  0  0  0  0
   42.4522   -9.4849   -8.0653 H   0  0  0  0  0  0  0  0  0  0  0  0
   43.1640   -7.8592   -8.4654 H   0  0  0  0  0  0  0  0  0  0  0  0
   47.4905  -16.6755  -14.3084 H   0  0  0  0  0  0  0  0  0  0  0  0
   47.1887  -18.9484   -9.1498 H   0  0  0  0  0  0  0  0  0  0  0  0
   46.5366  -14.7152   -9.8381 H   0  0  0  0  0  0  0  0  0  0  0  0
   46.1906  -14.3963   -7.4595 H   0  0  0  0  0  0  0  0  0  0  0  0
   46.3549  -16.2859   -5.8810 H   0  0  0  0  0  0  0  0  0  0  0  0
   46.2782  -18.7484   -5.5809 H   0  0  0  0  0  0  0  0  0  0  0  0
   46.5765  -19.8305   -6.9282 H   0  0  0  0  0  0  0  0  0  0  0  0
   48.8871  -19.1954   -6.8504 H   0  0  0  0  0  0  0  0  0  0  0  0
   48.6197  -18.1779   -5.6163 H   0  0  0  0  0  0  0  0  0  0  0  0
  1  2  2  0
  2  3  1  0
  3  4  2  0
  4  5  1  0
  5  6  2  0
  1  6  1  0
  7  8  2  0
  8  9  1  0
  9  3  1  0
 10 11  2  0
 11 12  1  0
 12 13  2  0
  7 13  1  0
  8 10  1  0
 15 16  2  0
 16 17  1  0
 14 12  1  0
 17 11  1  0
  1 18  1  0
 18 19  3  0
  9 20  1  0
 20 21  1  0
 21 22  1  0
 22 23  1  0
 22 24  1  0
 23 24  1  0
 16 25  1  0
 26 27  1  0
 27 28  2  0
 28 29  1  0
 29 25  1  0
 26 25  2  0
 27 30  1  0
 30 31  1  0
 30 32  1  0
 30 33  1  0
 29 34  1  0
 36 37  1  0
 37 38  2  0
 38 39  1  0
 35 39  2  0
 35 34  1  0
 34 36  2  0
 39 40  1  0
 40 41  1  0
  2 42  1  0
  4 43  1  0
  5 44  1  0
  6 45  1  0
  7 46  1  0
  9 47  1  6
 10 48  1  0
 13 49  1  0
 17 50  1  0
 20 51  1  0
 21 52  1  0
 21 53  1  0
 22 54  1  0
 23 55  1  0
 23 56  1  0
 24 57  1  0
 24 58  1  0
 26 59  1  0
 35 60  1  0
 36 61  1  0
 37 62  1  0
 38 63  1  0
 40 64  1  0
 40 65  1  0
 41 66  1  0
 41 67  1  0
M  END
> <Uni-Dock RESULT> 
ENERGY=   -3.314  LOWER_BOUND=    2.424  UPPER_BOUND=    9.622
INTER + INTRA:          -3.314
INTER:                  -3.314
INTRA:                   0.000
UNBOUND:                 0.000

$$$$
