
     RDKit          3D

 67 71  0  0  0  0  0  0  0  0999 V2000
   52.0337  -16.6211   -6.2288 C   0  0  0  0  0  0  0  0  0  0  0  0
   51.2464  -16.4944   -7.3811 C   0  0  0  0  0  0  0  0  0  0  0  0
   51.0214  -17.5934   -8.2342 C   0  0  0  0  0  0  0  0  0  0  0  0
   51.5927  -18.8289   -7.8820 C   0  0  0  0  0  0  0  0  0  0  0  0
   52.3822  -18.9568   -6.7356 C   0  0  0  0  0  0  0  0  0  0  0  0
   52.6049  -17.8550   -5.9113 C   0  0  0  0  0  0  0  0  0  0  0  0
   48.1354  -18.5466   -8.3072 C   0  0  0  0  0  0  0  0  0  0  0  0
   48.6384  -17.5596   -9.1716 C   0  0  0  0  0  0  0  0  0  0  0  0
   50.1330  -17.3975   -9.4666 C   0  0  2  0  0  0  0  0  0  0  0  0
   47.7242  -16.7184   -9.8454 C   0  0  0  0  0  0  0  0  0  0  0  0
   46.3487  -16.8408   -9.6455 C   0  0  0  0  0  0  0  0  0  0  0  0
   45.8878  -17.8196   -8.7590 C   0  0  0  0  0  0  0  0  0  0  0  0
   46.7624  -18.6696   -8.0945 C   0  0  0  0  0  0  0  0  0  0  0  0
   44.5672  -17.9589   -8.5601 F   0  0  0  0  0  0  0  0  0  0  0  0
   46.6408  -14.5214  -11.4689 O   0  0  0  0  0  0  0  0  0  0  0  0
   45.5711  -15.0782  -11.2524 C   0  0  0  0  0  0  0  0  0  0  0  0
   45.3717  -16.0816  -10.3249 N   0  0  0  0  0  0  0  0  0  0  0  0
   52.2469  -15.4893   -5.3747 C   0  0  0  0  0  0  0  0  0  0  0  0
   52.4150  -14.5732   -4.6829 N   0  0  0  0  0  0  0  0  0  0  0  0
   50.4724  -18.2217  -10.6320 N   0  0  0  0  0  0  0  0  0  0  0  0
   51.4802  -17.6580  -11.5186 C   0  0  0  0  0  0  0  0  0  0  0  0
   52.8632  -17.7799  -10.9648 C   0  0  0  0  0  0  0  0  0  0  0  0
   54.0264  -18.0538  -11.8860 C   0  0  0  0  0  0  0  0  0  0  0  0
   53.5704  -19.1120  -10.9213 C   0  0  0  0  0  0  0  0  0  0  0  0
   44.3669  -14.6849  -11.9428 C   0  0  0  0  0  0  0  0  0  0  0  0
   43.9164  -13.3952  -12.1562 C   0  0  0  0  0  0  0  0  0  0  0  0
   42.6223  -13.5222  -12.7096 C   0  0  0  0  0  0  0  0  0  0  0  0
   42.2979  -14.8204  -12.8503 N   0  0  0  0  0  0  0  0  0  0  0  0
   43.4300  -15.5106  -12.5448 N   0  0  0  0  0  0  0  0  0  0  0  0
   41.6808  -12.3980  -13.0558 C   0  0  0  0  0  0  0  0  0  0  0  0
   40.7930  -12.1541  -12.0543 F   0  0  0  0  0  0  0  0  0  0  0  0
   42.3508  -11.2309  -13.2658 F   0  0  0  0  0  0  0  0  0  0  0  0
   40.9571  -12.6356  -14.1816 F   0  0  0  0  0  0  0  0  0  0  0  0
   43.5088  -16.9030  -12.8468 C   0  0  0  0  0  0  0  0  0  0  0  0
   44.7439  -17.5593  -12.9625 C   0  0  0  0  0  0  0  0  0  0  0  0
   42.3268  -17.6285  -13.0496 C   0  0  0  0  0  0  0  0  0  0  0  0
   42.3792  -19.0027  -13.2878 C   0  0  0  0  0  0  0  0  0  0  0  0
   43.6079  -19.6579  -13.3421 C   0  0  0  0  0  0  0  0  0  0  0  0
   44.8040  -18.9402  -13.2075 C   0  0  0  0  0  0  0  0  0  0  0  0
   46.1348  -19.6422  -13.3006 C   0  0  0  0  0  0  0  0  0  0  0  0
   46.5319  -20.2000  -12.0145 N   0  0  0  0  0  0  0  0  0  0  0  0
   50.7978  -15.5291   -7.6165 H   0  0  0  0  0  0  0  0  0  0  0  0
   51.4302  -19.7146   -8.4913 H   0  0  0  0  0  0  0  0  0  0  0  0
   52.8216  -19.9198   -6.4849 H   0  0  0  0  0  0  0  0  0  0  0  0
   53.2201  -17.9674   -5.0201 H   0  0  0  0  0  0  0  0  0  0  0  0
   48.8031  -19.2303   -7.7902 H   0  0  0  0  0  0  0  0  0  0  0  0
   50.2643  -16.3441   -9.7560 H   0  0  0  0  0  0  0  0  0  0  0  0
   48.1211  -15.9867  -10.5442 H   0  0  0  0  0  0  0  0  0  0  0  0
   46.3702  -19.4288   -7.4249 H   0  0  0  0  0  0  0  0  0  0  0  0
   44.4150  -16.3601  -10.1239 H   0  0  0  0  0  0  0  0  0  0  0  0
   50.7062  -19.1702  -10.3680 H   0  0  0  0  0  0  0  0  0  0  0  0
   51.4141  -18.1980  -12.4716 H   0  0  0  0  0  0  0  0  0  0  0  0
   51.2594  -16.6106  -11.7577 H   0  0  0  0  0  0  0  0  0  0  0  0
   53.0482  -17.0726  -10.1640 H   0  0  0  0  0  0  0  0  0  0  0  0
   53.8349  -18.2129  -12.9413 H   0  0  0  0  0  0  0  0  0  0  0  0
   54.9643  -17.5500  -11.6808 H   0  0  0  0  0  0  0  0  0  0  0  0
   54.1989  -19.3212  -10.0630 H   0  0  0  0  0  0  0  0  0  0  0  0
   53.0715  -19.9833  -11.3294 H   0  0  0  0  0  0  0  0  0  0  0  0
   44.4290  -12.4818  -11.8795 H   0  0  0  0  0  0  0  0  0  0  0  0
   45.6852  -17.0172  -12.9064 H   0  0  0  0  0  0  0  0  0  0  0  0
   41.3534  -17.1443  -13.0007 H   0  0  0  0  0  0  0  0  0  0  0  0
   41.4575  -19.5632  -13.4203 H   0  0  0  0  0  0  0  0  0  0  0  0
   43.6360  -20.7331  -13.5074 H   0  0  0  0  0  0  0  0  0  0  0  0
   46.9039  -18.9465  -13.6529 H   0  0  0  0  0  0  0  0  0  0  0  0
   46.0775  -20.4424  -14.0459 H   0  0  0  0  0  0  0  0  0  0  0  0
   46.6524  -19.4388  -11.3463 H   0  0  0  0  0  0  0  0  0  0  0  0
   47.4535  -20.6242  -12.1148 H   0  0  0  0  0  0  0  0  0  0  0  0
  1  2  2  0
  2  3  1  0
  3  4  2  0
  4  5  1  0
  5  6  2  0
  1  6  1  0
  7  8  2  0
  8  9  1  0
  9  3  1  0
 10 11  2  0
 11 12  1  0
 12 13  2  0
  7 13  1  0
  8 10  1  0
 15 16  2  0
 16 17  1  0
 14 12  1  0
 17 11  1  0
  1 18  1  0
 18 19  3  0
  9 20  1  0
 20 21  1  0
 21 22  1  0
 22 23  1  0
 22 24  1  0
 23 24  1  0
 16 25  1  0
 26 27  1  0
 27 28  2  0
 28 29  1  0
 29 25  1  0
 26 25  2  0
 27 30  1  0
 30 31  1  0
 30 32  1  0
 30 33  1  0
 29 34  1  0
 36 37  1  0
 37 38  2  0
 38 39  1  0
 35 39  2  0
 35 34  1  0
 34 36  2  0
 39 40  1  0
 40 41  1  0
  2 42  1  0
  4 43  1  0
  5 44  1  0
  6 45  1  0
  7 46  1  0
  9 47  1  6
 10 48  1  0
 13 49  1  0
 17 50  1  0
 20 51  1  0
 21 52  1  0
 21 53  1  0
 22 54  1  0
 23 55  1  0
 23 56  1  0
 24 57  1  0
 24 58  1  0
 26 59  1  0
 35 60  1  0
 36 61  1  0
 37 62  1  0
 38 63  1  0
 40 64  1  0
 40 65  1  0
 41 66  1  0
 41 67  1  0
M  END
> <Uni-Dock RESULT> 
ENERGY=   -3.757  LOWER_BOUND=    0.000  UPPER_BOUND=    0.000
INTER + INTRA:          -3.757
INTER:                  -3.757
INTRA:                   0.000
UNBOUND:                 0.000

$$$$

     RDKit          3D

 67 71  0  0  0  0  0  0  0  0999 V2000
   51.9092  -16.7375   -6.6154 C   0  0  0  0  0  0  0  0  0  0  0  0
   51.1112  -16.4878   -7.7399 C   0  0  0  0  0  0  0  0  0  0  0  0
   50.9733  -17.4473   -8.7630 C   0  0  0  0  0  0  0  0  0  0  0  0
   51.6434  -18.6740   -8.6107 C   0  0  0  0  0  0  0  0  0  0  0  0
   52.4435  -18.9237   -7.4921 C   0  0  0  0  0  0  0  0  0  0  0  0
   52.5788  -17.9569   -6.4971 C   0  0  0  0  0  0  0  0  0  0  0  0
   48.1734  -18.6035   -9.0208 C   0  0  0  0  0  0  0  0  0  0  0  0
   48.5929  -17.4516   -9.7075 C   0  0  0  0  0  0  0  0  0  0  0  0
   50.0688  -17.1245   -9.9563 C   0  0  2  0  0  0  0  0  0  0  0  0
   47.6121  -16.5877  -10.2450 C   0  0  0  0  0  0  0  0  0  0  0  0
   46.2515  -16.8506  -10.0823 C   0  0  0  0  0  0  0  0  0  0  0  0
   45.8734  -17.9946   -9.3720 C   0  0  0  0  0  0  0  0  0  0  0  0
   46.8154  -18.8690   -8.8456 C   0  0  0  0  0  0  0  0  0  0  0  0
   44.5688  -18.2697   -9.2125 F   0  0  0  0  0  0  0  0  0  0  0  0
   46.3509  -14.2489  -11.5003 O   0  0  0  0  0  0  0  0  0  0  0  0
   45.3301  -14.9174  -11.3887 C   0  0  0  0  0  0  0  0  0  0  0  0
   45.2147  -16.0714  -10.6393 N   0  0  0  0  0  0  0  0  0  0  0  0
   52.0326  -15.7468   -5.5861 C   0  0  0  0  0  0  0  0  0  0  0  0
   52.1281  -14.9455   -4.7527 N   0  0  0  0  0  0  0  0  0  0  0  0
   50.4705  -17.7177  -11.2368 N   0  0  0  0  0  0  0  0  0  0  0  0
   51.4273  -16.9380  -12.0090 C   0  0  0  0  0  0  0  0  0  0  0  0
   52.8170  -17.0377  -11.4678 C   0  0  0  0  0  0  0  0  0  0  0  0
   53.9962  -17.0636  -12.4089 C   0  0  0  0  0  0  0  0  0  0  0  0
   53.6294  -18.2981  -11.6344 C   0  0  0  0  0  0  0  0  0  0  0  0
   44.0963  -14.5142  -12.0186 C   0  0  0  0  0  0  0  0  0  0  0  0
   43.5427  -13.2472  -12.0239 C   0  0  0  0  0  0  0  0  0  0  0  0
   42.2617  -13.3853  -12.6042 C   0  0  0  0  0  0  0  0  0  0  0  0
   42.0426  -14.6649  -12.9579 N   0  0  0  0  0  0  0  0  0  0  0  0
   43.2274  -15.3029  -12.7569 N   0  0  0  0  0  0  0  0  0  0  0  0
   41.2316  -12.2987  -12.7726 C   0  0  0  0  0  0  0  0  0  0  0  0
   40.3297  -12.2933  -11.7543 F   0  0  0  0  0  0  0  0  0  0  0  0
   41.8047  -11.0631  -12.7826 F   0  0  0  0  0  0  0  0  0  0  0  0
   40.5265  -12.4064  -13.9297 F   0  0  0  0  0  0  0  0  0  0  0  0
   43.4175  -16.6165  -13.2809 C   0  0  0  0  0  0  0  0  0  0  0  0
   44.7012  -17.1442  -13.4888 C   0  0  0  0  0  0  0  0  0  0  0  0
   42.2973  -17.3914  -13.6116 C   0  0  0  0  0  0  0  0  0  0  0  0
   42.4598  -18.6996  -14.0699 C   0  0  0  0  0  0  0  0  0  0  0  0
   43.7372  -19.2368  -14.2172 C   0  0  0  0  0  0  0  0  0  0  0  0
   44.8718  -18.4573  -13.9549 C   0  0  0  0  0  0  0  0  0  0  0  0
   46.2547  -19.0259  -14.1469 C   0  0  0  0  0  0  0  0  0  0  0  0
   46.6988  -19.7526  -12.9648 N   0  0  0  0  0  0  0  0  0  0  0  0
   50.5856  -15.5360   -7.8197 H   0  0  0  0  0  0  0  0  0  0  0  0
   51.5512  -19.4585   -9.3579 H   0  0  0  0  0  0  0  0  0  0  0  0
   52.9598  -19.8764   -7.3971 H   0  0  0  0  0  0  0  0  0  0  0  0
   53.2034  -18.1637   -5.6296 H   0  0  0  0  0  0  0  0  0  0  0  0
   48.8955  -19.3068   -8.6151 H   0  0  0  0  0  0  0  0  0  0  0  0
   50.1140  -16.0310  -10.0689 H   0  0  0  0  0  0  0  0  0  0  0  0
   47.9469  -15.7223  -10.8110 H   0  0  0  0  0  0  0  0  0  0  0  0
   46.4875  -19.7562   -8.3128 H   0  0  0  0  0  0  0  0  0  0  0  0
   44.2840  -16.4545  -10.4965 H   0  0  0  0  0  0  0  0  0  0  0  0
   50.7807  -18.6748  -11.1284 H   0  0  0  0  0  0  0  0  0  0  0  0
   51.4024  -17.3188  -13.0378 H   0  0  0  0  0  0  0  0  0  0  0  0
   51.1221  -15.8868  -12.0766 H   0  0  0  0  0  0  0  0  0  0  0  0
   52.9465  -16.4580  -10.5606 H   0  0  0  0  0  0  0  0  0  0  0  0
   53.8153  -17.0631  -13.4780 H   0  0  0  0  0  0  0  0  0  0  0  0
   54.8909  -16.5266  -12.1146 H   0  0  0  0  0  0  0  0  0  0  0  0
   54.2751  -18.5936  -10.8150 H   0  0  0  0  0  0  0  0  0  0  0  0
   53.2014  -19.1282  -12.1842 H   0  0  0  0  0  0  0  0  0  0  0  0
   43.9807  -12.3532  -11.5967 H   0  0  0  0  0  0  0  0  0  0  0  0
   45.5959  -16.5450  -13.3352 H   0  0  0  0  0  0  0  0  0  0  0  0
   41.2882  -17.0011  -13.4948 H   0  0  0  0  0  0  0  0  0  0  0  0
   41.5859  -19.3029  -14.3017 H   0  0  0  0  0  0  0  0  0  0  0  0
   43.8515  -20.2648  -14.5551 H   0  0  0  0  0  0  0  0  0  0  0  0
   46.9643  -18.2228  -14.3730 H   0  0  0  0  0  0  0  0  0  0  0  0
   46.2602  -19.6958  -15.0131 H   0  0  0  0  0  0  0  0  0  0  0  0
   46.7593  -19.1035  -12.1802 H   0  0  0  0  0  0  0  0  0  0  0  0
   47.6514  -20.0796  -13.1230 H   0  0  0  0  0  0  0  0  0  0  0  0
  1  2  2  0
  2  3  1  0
  3  4  2  0
  4  5  1  0
  5  6  2  0
  1  6  1  0
  7  8  2  0
  8  9  1  0
  9  3  1  0
 10 11  2  0
 11 12  1  0
 12 13  2  0
  7 13  1  0
  8 10  1  0
 15 16  2  0
 16 17  1  0
 14 12  1  0
 17 11  1  0
  1 18  1  0
 18 19  3  0
  9 20  1  0
 20 21  1  0
 21 22  1  0
 22 23  1  0
 22 24  1  0
 23 24  1  0
 16 25  1  0
 26 27  1  0
 27 28  2  0
 28 29  1  0
 29 25  1  0
 26 25  2  0
 27 30  1  0
 30 31  1  0
 30 32  1  0
 30 33  1  0
 29 34  1  0
 36 37  1  0
 37 38  2  0
 38 39  1  0
 35 39  2  0
 35 34  1  0
 34 36  2  0
 39 40  1  0
 40 41  1  0
  2 42  1  0
  4 43  1  0
  5 44  1  0
  6 45  1  0
  7 46  1  0
  9 47  1  6
 10 48  1  0
 13 49  1  0
 17 50  1  0
 20 51  1  0
 21 52  1  0
 21 53  1  0
 22 54  1  0
 23 55  1  0
 23 56  1  0
 24 57  1  0
 24 58  1  0
 26 59  1  0
 35 60  1  0
 36 61  1  0
 37 62  1  0
 38 63  1  0
 40 64  1  0
 40 65  1  0
 41 66  1  0
 41 67  1  0
M  END
> <Uni-Dock RESULT> 
ENERGY=   -3.430  LOWER_BOUND=    0.656  UPPER_BOUND=    0.672
INTER + INTRA:          -3.430
INTER:                  -3.430
INTRA:                   0.000
UNBOUND:                 0.000

$$$$

     RDKit          3D

 67 71  0  0  0  0  0  0  0  0999 V2000
   48.3607  -16.8449  -12.4298 C   0  0  0  0  0  0  0  0  0  0  0  0
   47.8561  -15.5396  -12.5024 C   0  0  0  0  0  0  0  0  0  0  0  0
   47.2604  -15.0535  -13.6836 C   0  0  0  0  0  0  0  0  0  0  0  0
   47.1667  -15.9263  -14.7819 C   0  0  0  0  0  0  0  0  0  0  0  0
   47.6734  -17.2272  -14.7134 C   0  0  0  0  0  0  0  0  0  0  0  0
   48.2717  -17.6857  -13.5409 C   0  0  0  0  0  0  0  0  0  0  0  0
   44.2857  -14.4770  -13.4355 C   0  0  0  0  0  0  0  0  0  0  0  0
   45.2773  -13.5225  -13.1528 C   0  0  0  0  0  0  0  0  0  0  0  0
   46.7070  -13.6252  -13.6937 C   0  0  2  0  0  0  0  0  0  0  0  0
   44.9272  -12.3873  -12.3872 C   0  0  0  0  0  0  0  0  0  0  0  0
   43.6319  -12.2194  -11.8964 C   0  0  0  0  0  0  0  0  0  0  0  0
   42.6787  -13.2032  -12.1788 C   0  0  0  0  0  0  0  0  0  0  0  0
   42.9908  -14.3217  -12.9409 C   0  0  0  0  0  0  0  0  0  0  0  0
   41.4244  -13.0553  -11.7228 F   0  0  0  0  0  0  0  0  0  0  0  0
   45.1507   -9.9135  -10.8165 O   0  0  0  0  0  0  0  0  0  0  0  0
   43.9277   -9.9851  -10.7947 C   0  0  0  0  0  0  0  0  0  0  0  0
   43.1899  -11.0875  -11.1781 N   0  0  0  0  0  0  0  0  0  0  0  0
   48.9607  -17.3181  -11.2165 C   0  0  0  0  0  0  0  0  0  0  0  0
   49.4422  -17.7003  -10.2326 N   0  0  0  0  0  0  0  0  0  0  0  0
   46.7711  -12.9281  -14.9831 N   0  0  0  0  0  0  0  0  0  0  0  0
   48.0208  -12.2303  -15.2500 C   0  0  0  0  0  0  0  0  0  0  0  0
   49.1243  -13.1603  -15.6393 C   0  0  0  0  0  0  0  0  0  0  0  0
   50.1371  -12.7415  -16.6764 C   0  0  0  0  0  0  0  0  0  0  0  0
   49.1432  -13.8227  -16.9948 C   0  0  0  0  0  0  0  0  0  0  0  0
   43.1208   -8.8956  -10.3014 C   0  0  0  0  0  0  0  0  0  0  0  0
   43.3297   -8.1652   -9.1461 C   0  0  0  0  0  0  0  0  0  0  0  0
   42.1923   -7.3398   -8.9972 C   0  0  0  0  0  0  0  0  0  0  0  0
   41.3355   -7.5340  -10.0164 N   0  0  0  0  0  0  0  0  0  0  0  0
   41.9895   -8.3491  -10.8875 N   0  0  0  0  0  0  0  0  0  0  0  0
   41.9075   -6.4035   -7.8516 C   0  0  0  0  0  0  0  0  0  0  0  0
   41.1154   -6.9822   -6.9091 F   0  0  0  0  0  0  0  0  0  0  0  0
   43.0518   -6.0311   -7.2135 F   0  0  0  0  0  0  0  0  0  0  0  0
   41.2917   -5.2560   -8.2408 F   0  0  0  0  0  0  0  0  0  0  0  0
   41.4657   -8.5408  -12.2010 C   0  0  0  0  0  0  0  0  0  0  0  0
   42.2753   -8.9930  -13.2543 C   0  0  0  0  0  0  0  0  0  0  0  0
   40.1162   -8.2548  -12.4493 C   0  0  0  0  0  0  0  0  0  0  0  0
   39.5698   -8.4910  -13.7117 C   0  0  0  0  0  0  0  0  0  0  0  0
   40.3672   -8.9966  -14.7368 C   0  0  0  0  0  0  0  0  0  0  0  0
   41.7335   -9.2273  -14.5279 C   0  0  0  0  0  0  0  0  0  0  0  0
   42.6045   -9.7415  -15.6457 C   0  0  0  0  0  0  0  0  0  0  0  0
   42.5537  -11.1950  -15.7328 N   0  0  0  0  0  0  0  0  0  0  0  0
   47.9228  -14.8930  -11.6272 H   0  0  0  0  0  0  0  0  0  0  0  0
   46.6941  -15.6106  -15.7088 H   0  0  0  0  0  0  0  0  0  0  0  0
   47.5979  -17.8843  -15.5771 H   0  0  0  0  0  0  0  0  0  0  0  0
   48.6610  -18.7016  -13.4990 H   0  0  0  0  0  0  0  0  0  0  0  0
   44.5072  -15.3507  -14.0423 H   0  0  0  0  0  0  0  0  0  0  0  0
   47.3327  -13.0652  -12.9826 H   0  0  0  0  0  0  0  0  0  0  0  0
   45.6904  -11.6339  -12.2103 H   0  0  0  0  0  0  0  0  0  0  0  0
   42.2229  -15.0586  -13.1543 H   0  0  0  0  0  0  0  0  0  0  0  0
   42.1944  -11.0883  -10.9725 H   0  0  0  0  0  0  0  0  0  0  0  0
   46.5187  -13.5346  -15.7528 H   0  0  0  0  0  0  0  0  0  0  0  0
   47.8297  -11.5208  -16.0650 H   0  0  0  0  0  0  0  0  0  0  0  0
   48.3263  -11.6186  -14.3926 H   0  0  0  0  0  0  0  0  0  0  0  0
   49.5138  -13.7124  -14.7912 H   0  0  0  0  0  0  0  0  0  0  0  0
   50.0191  -11.7828  -17.1690 H   0  0  0  0  0  0  0  0  0  0  0  0
   51.1703  -13.0313  -16.5211 H   0  0  0  0  0  0  0  0  0  0  0  0
   49.5045  -14.8433  -17.0520 H   0  0  0  0  0  0  0  0  0  0  0  0
   48.3561  -13.5898  -17.7025 H   0  0  0  0  0  0  0  0  0  0  0  0
   44.1633   -8.2696   -8.4621 H   0  0  0  0  0  0  0  0  0  0  0  0
   43.3462   -9.1367  -13.1293 H   0  0  0  0  0  0  0  0  0  0  0  0
   39.4682   -7.8707  -11.6640 H   0  0  0  0  0  0  0  0  0  0  0  0
   38.5169   -8.2895  -13.8906 H   0  0  0  0  0  0  0  0  0  0  0  0
   39.9257   -9.1968  -15.7110 H   0  0  0  0  0  0  0  0  0  0  0  0
   43.6402   -9.4182  -15.4956 H   0  0  0  0  0  0  0  0  0  0  0  0
   42.2796   -9.3053  -16.5961 H   0  0  0  0  0  0  0  0  0  0  0  0
   42.9260  -11.5917  -14.8700 H   0  0  0  0  0  0  0  0  0  0  0  0
   43.1890  -11.4990  -16.4698 H   0  0  0  0  0  0  0  0  0  0  0  0
  1  2  2  0
  2  3  1  0
  3  4  2  0
  4  5  1  0
  5  6  2  0
  1  6  1  0
  7  8  2  0
  8  9  1  0
  9  3  1  0
 10 11  2  0
 11 12  1  0
 12 13  2  0
  7 13  1  0
  8 10  1  0
 15 16  2  0
 16 17  1  0
 14 12  1  0
 17 11  1  0
  1 18  1  0
 18 19  3  0
  9 20  1  0
 20 21  1  0
 21 22  1  0
 22 23  1  0
 22 24  1  0
 23 24  1  0
 16 25  1  0
 26 27  1  0
 27 28  2  0
 28 29  1  0
 29 25  1  0
 26 25  2  0
 27 30  1  0
 30 31  1  0
 30 32  1  0
 30 33  1  0
 29 34  1  0
 36 37  1  0
 37 38  2  0
 38 39  1  0
 35 39  2  0
 35 34  1  0
 34 36  2  0
 39 40  1  0
 40 41  1  0
  2 42  1  0
  4 43  1  0
  5 44  1  0
  6 45  1  0
  7 46  1  0
  9 47  1  6
 10 48  1  0
 13 49  1  0
 17 50  1  0
 20 51  1  0
 21 52  1  0
 21 53  1  0
 22 54  1  0
 23 55  1  0
 23 56  1  0
 24 57  1  0
 24 58  1  0
 26 59  1  0
 35 60  1  0
 36 61  1  0
 37 62  1  0
 38 63  1  0
 40 64  1  0
 40 65  1  0
 41 66  1  0
 41 67  1  0
M  END
> <Uni-Dock RESULT> 
ENERGY=   -3.257  LOWER_BOUND=    4.696  UPPER_BOUND=    7.936
INTER + INTRA:          -3.257
INTER:                  -3.257
INTRA:                   0.000
UNBOUND:                 0.000

$$$$

     RDKit          3D

 67 71  0  0  0  0  0  0  0  0999 V2000
   43.3080  -19.2957  -10.3635 C   0  0  0  0  0  0  0  0  0  0  0  0
   43.8079  -18.1669  -11.0265 C   0  0  0  0  0  0  0  0  0  0  0  0
   43.5057  -17.9247  -12.3817 C   0  0  0  0  0  0  0  0  0  0  0  0
   42.6675  -18.8392  -13.0436 C   0  0  0  0  0  0  0  0  0  0  0  0
   42.1714  -19.9682  -12.3856 C   0  0  0  0  0  0  0  0  0  0  0  0
   42.4926  -20.1982  -11.0489 C   0  0  0  0  0  0  0  0  0  0  0  0
   41.7872  -15.4622  -12.8566 C   0  0  0  0  0  0  0  0  0  0  0  0
   43.1913  -15.4217  -12.8226 C   0  0  0  0  0  0  0  0  0  0  0  0
   44.0635  -16.6615  -13.0447 C   0  0  2  0  0  0  0  0  0  0  0  0
   43.8293  -14.1746  -12.6358 C   0  0  0  0  0  0  0  0  0  0  0  0
   43.0895  -13.0041  -12.4635 C   0  0  0  0  0  0  0  0  0  0  0  0
   41.6936  -13.0888  -12.4796 C   0  0  0  0  0  0  0  0  0  0  0  0
   41.0399  -14.2985  -12.6758 C   0  0  0  0  0  0  0  0  0  0  0  0
   40.9641  -11.9721  -12.3244 F   0  0  0  0  0  0  0  0  0  0  0  0
   45.9154  -12.1597  -12.1610 O   0  0  0  0  0  0  0  0  0  0  0  0
   44.9882  -11.3720  -12.3064 C   0  0  0  0  0  0  0  0  0  0  0  0
   43.6511  -11.7157  -12.3327 N   0  0  0  0  0  0  0  0  0  0  0  0
   43.6273  -19.5200   -8.9837 C   0  0  0  0  0  0  0  0  0  0  0  0
   43.8837  -19.6976   -7.8663 N   0  0  0  0  0  0  0  0  0  0  0  0
   44.3610  -16.7742  -14.4770 N   0  0  0  0  0  0  0  0  0  0  0  0
   45.6866  -17.2840  -14.7973 C   0  0  0  0  0  0  0  0  0  0  0  0
   45.7934  -18.7625  -14.6059 C   0  0  0  0  0  0  0  0  0  0  0  0
   46.6314  -19.5897  -15.5495 C   0  0  0  0  0  0  0  0  0  0  0  0
   45.1346  -19.7220  -15.5661 C   0  0  0  0  0  0  0  0  0  0  0  0
   45.2201   -9.9526  -12.4200 C   0  0  0  0  0  0  0  0  0  0  0  0
   46.0553   -9.1826  -11.6319 C   0  0  0  0  0  0  0  0  0  0  0  0
   45.8135   -7.8410  -12.0045 C   0  0  0  0  0  0  0  0  0  0  0  0
   44.8934   -7.7853  -12.9847 N   0  0  0  0  0  0  0  0  0  0  0  0
   44.6718   -9.0783  -13.3457 N   0  0  0  0  0  0  0  0  0  0  0  0
   46.4290   -6.6133  -11.3849 C   0  0  0  0  0  0  0  0  0  0  0  0
   45.6272   -6.0721  -10.4285 F   0  0  0  0  0  0  0  0  0  0  0  0
   47.6122   -6.9006  -10.7744 F   0  0  0  0  0  0  0  0  0  0  0  0
   46.6894   -5.6326  -12.2892 F   0  0  0  0  0  0  0  0  0  0  0  0
   43.9443   -9.3609  -14.5403 C   0  0  0  0  0  0  0  0  0  0  0  0
   44.0481  -10.6028  -15.1855 C   0  0  0  0  0  0  0  0  0  0  0  0
   43.1204   -8.3700  -15.0919 C   0  0  0  0  0  0  0  0  0  0  0  0
   42.3553   -8.6453  -16.2262 C   0  0  0  0  0  0  0  0  0  0  0  0
   42.4191   -9.9013  -16.8265 C   0  0  0  0  0  0  0  0  0  0  0  0
   43.2856  -10.8844  -16.3300 C   0  0  0  0  0  0  0  0  0  0  0  0
   43.3813  -12.2319  -16.9990 C   0  0  0  0  0  0  0  0  0  0  0  0
   42.3542  -13.1419  -16.5095 N   0  0  0  0  0  0  0  0  0  0  0  0
   44.4372  -17.4634  -10.4810 H   0  0  0  0  0  0  0  0  0  0  0  0
   42.3826  -18.6869  -14.0817 H   0  0  0  0  0  0  0  0  0  0  0  0
   41.5307  -20.6677  -12.9180 H   0  0  0  0  0  0  0  0  0  0  0  0
   42.0986  -21.0802  -10.5466 H   0  0  0  0  0  0  0  0  0  0  0  0
   41.2585  -16.3967  -13.0239 H   0  0  0  0  0  0  0  0  0  0  0  0
   45.0105  -16.4533  -12.5248 H   0  0  0  0  0  0  0  0  0  0  0  0
   44.9157  -14.1476  -12.6538 H   0  0  0  0  0  0  0  0  0  0  0  0
   39.9549  -14.3263  -12.6982 H   0  0  0  0  0  0  0  0  0  0  0  0
   42.9665  -10.9648  -12.3040 H   0  0  0  0  0  0  0  0  0  0  0  0
   43.6423  -17.2860  -14.9725 H   0  0  0  0  0  0  0  0  0  0  0  0
   45.8880  -17.0308  -15.8459 H   0  0  0  0  0  0  0  0  0  0  0  0
   46.4620  -16.7703  -14.2162 H   0  0  0  0  0  0  0  0  0  0  0  0
   45.8465  -19.0378  -13.5584 H   0  0  0  0  0  0  0  0  0  0  0  0
   47.1070  -19.1032  -16.3938 H   0  0  0  0  0  0  0  0  0  0  0  0
   47.2088  -20.4063  -15.1307 H   0  0  0  0  0  0  0  0  0  0  0  0
   44.7006  -20.6270  -15.1559 H   0  0  0  0  0  0  0  0  0  0  0  0
   44.6038  -19.3236  -16.4229 H   0  0  0  0  0  0  0  0  0  0  0  0
   46.7019   -9.5411  -10.8400 H   0  0  0  0  0  0  0  0  0  0  0  0
   44.7456  -11.3653  -14.8460 H   0  0  0  0  0  0  0  0  0  0  0  0
   43.0425   -7.3847  -14.6366 H   0  0  0  0  0  0  0  0  0  0  0  0
   41.7004   -7.8799  -16.6344 H   0  0  0  0  0  0  0  0  0  0  0  0
   41.8023  -10.1117  -17.6979 H   0  0  0  0  0  0  0  0  0  0  0  0
   44.3712  -12.6682  -16.8276 H   0  0  0  0  0  0  0  0  0  0  0  0
   43.2799  -12.1127  -18.0828 H   0  0  0  0  0  0  0  0  0  0  0  0
   42.5016  -13.3025  -15.5130 H   0  0  0  0  0  0  0  0  0  0  0  0
   42.4849  -14.0495  -16.9549 H   0  0  0  0  0  0  0  0  0  0  0  0
  1  2  2  0
  2  3  1  0
  3  4  2  0
  4  5  1  0
  5  6  2  0
  1  6  1  0
  7  8  2  0
  8  9  1  0
  9  3  1  0
 10 11  2  0
 11 12  1  0
 12 13  2  0
  7 13  1  0
  8 10  1  0
 15 16  2  0
 16 17  1  0
 14 12  1  0
 17 11  1  0
  1 18  1  0
 18 19  3  0
  9 20  1  0
 20 21  1  0
 21 22  1  0
 22 23  1  0
 22 24  1  0
 23 24  1  0
 16 25  1  0
 26 27  1  0
 27 28  2  0
 28 29  1  0
 29 25  1  0
 26 25  2  0
 27 30  1  0
 30 31  1  0
 30 32  1  0
 30 33  1  0
 29 34  1  0
 36 37  1  0
 37 38  2  0
 38 39  1  0
 35 39  2  0
 35 34  1  0
 34 36  2  0
 39 40  1  0
 40 41  1  0
  2 42  1  0
  4 43  1  0
  5 44  1  0
  6 45  1  0
  7 46  1  0
  9 47  1  6
 10 48  1  0
 13 49  1  0
 17 50  1  0
 20 51  1  0
 21 52  1  0
 21 53  1  0
 22 54  1  0
 23 55  1  0
 23 56  1  0
 24 57  1  0
 24 58  1  0
 26 59  1  0
 35 60  1  0
 36 61  1  0
 37 62  1  0
 38 63  1  0
 40 64  1  0
 40 65  1  0
 41 66  1  0
 41 67  1  0
M  END
> <Uni-Dock RESULT> 
ENERGY=   -3.101  LOWER_BOUND=    5.550  UPPER_BOUND=    8.188
INTER + INTRA:          -3.101
INTER:                  -3.101
INTRA:                   0.000
UNBOUND:                 0.000

$$$$

     RDKit          3D

 67 71  0  0  0  0  0  0  0  0999 V2000
   50.9111  -17.7003  -11.6411 C   0  0  0  0  0  0  0  0  0  0  0  0
   49.9604  -16.7510  -12.0395 C   0  0  0  0  0  0  0  0  0  0  0  0
   49.3756  -16.7991  -13.3209 C   0  0  0  0  0  0  0  0  0  0  0  0
   49.7583  -17.8433  -14.1812 C   0  0  0  0  0  0  0  0  0  0  0  0
   50.7097  -18.7887  -13.7877 C   0  0  0  0  0  0  0  0  0  0  0  0
   51.2875  -18.7167  -12.5212 C   0  0  0  0  0  0  0  0  0  0  0  0
   46.3997  -17.4209  -13.3123 C   0  0  0  0  0  0  0  0  0  0  0  0
   46.9096  -16.1138  -13.2347 C   0  0  0  0  0  0  0  0  0  0  0  0
   48.3256  -15.7465  -13.6896 C   0  0  2  0  0  0  0  0  0  0  0  0
   46.0615  -15.0814  -12.7740 C   0  0  0  0  0  0  0  0  0  0  0  0
   44.7500  -15.3472  -12.3789 C   0  0  0  0  0  0  0  0  0  0  0  0
   44.2864  -16.6649  -12.4481 C   0  0  0  0  0  0  0  0  0  0  0  0
   45.0929  -17.6969  -12.9105 C   0  0  0  0  0  0  0  0  0  0  0  0
   43.0243  -16.9394  -12.0808 F   0  0  0  0  0  0  0  0  0  0  0  0
   45.1293  -12.4577  -11.8338 O   0  0  0  0  0  0  0  0  0  0  0  0
   44.0333  -13.0056  -11.8344 C   0  0  0  0  0  0  0  0  0  0  0  0
   43.8248  -14.3642  -11.9664 N   0  0  0  0  0  0  0  0  0  0  0  0
   51.4909  -17.6323  -10.3313 C   0  0  0  0  0  0  0  0  0  0  0  0
   51.9559  -17.5779   -9.2699 N   0  0  0  0  0  0  0  0  0  0  0  0
   48.2784  -15.3650  -15.1056 N   0  0  0  0  0  0  0  0  0  0  0  0
   49.1905  -14.2980  -15.4917 C   0  0  0  0  0  0  0  0  0  0  0  0
   50.6042  -14.7684  -15.6122 C   0  0  0  0  0  0  0  0  0  0  0  0
   51.5010  -14.2044  -16.6866 C   0  0  0  0  0  0  0  0  0  0  0  0
   51.0417  -15.6329  -16.7688 C   0  0  0  0  0  0  0  0  0  0  0  0
   42.8178  -12.2526  -11.6416 C   0  0  0  0  0  0  0  0  0  0  0  0
   42.5879  -11.2779  -10.6884 C   0  0  0  0  0  0  0  0  0  0  0  0
   41.2128  -10.9641  -10.7772 C   0  0  0  0  0  0  0  0  0  0  0  0
   40.6279  -11.6906  -11.7471 N   0  0  0  0  0  0  0  0  0  0  0  0
   41.6456  -12.3376  -12.3770 N   0  0  0  0  0  0  0  0  0  0  0  0
   40.4534  -10.0046   -9.8982 C   0  0  0  0  0  0  0  0  0  0  0  0
   39.8314  -10.6428   -8.8704 F   0  0  0  0  0  0  0  0  0  0  0  0
   41.2809   -9.0830   -9.3316 F   0  0  0  0  0  0  0  0  0  0  0  0
   39.5000   -9.3062  -10.5697 F   0  0  0  0  0  0  0  0  0  0  0  0
   41.4013  -12.9898  -13.6225 C   0  0  0  0  0  0  0  0  0  0  0  0
   42.4458  -13.2882  -14.5110 C   0  0  0  0  0  0  0  0  0  0  0  0
   40.0866  -13.3247  -13.9747 C   0  0  0  0  0  0  0  0  0  0  0  0
   39.8323  -14.0150  -15.1607 C   0  0  0  0  0  0  0  0  0  0  0  0
   40.8824  -14.3602  -16.0094 C   0  0  0  0  0  0  0  0  0  0  0  0
   42.1963  -13.9774  -15.7082 C   0  0  0  0  0  0  0  0  0  0  0  0
   43.3287  -14.3200  -16.6425 C   0  0  0  0  0  0  0  0  0  0  0  0
   43.8467  -15.6565  -16.3812 N   0  0  0  0  0  0  0  0  0  0  0  0
   49.6668  -15.9658  -11.3425 H   0  0  0  0  0  0  0  0  0  0  0  0
   49.3198  -17.9418  -15.1712 H   0  0  0  0  0  0  0  0  0  0  0  0
   50.9978  -19.5844  -14.4713 H   0  0  0  0  0  0  0  0  0  0  0  0
   52.0260  -19.4599  -12.2254 H   0  0  0  0  0  0  0  0  0  0  0  0
   47.0107  -18.2383  -13.6854 H   0  0  0  0  0  0  0  0  0  0  0  0
   48.5975  -14.8494  -13.1135 H   0  0  0  0  0  0  0  0  0  0  0  0
   46.4518  -14.0671  -12.7582 H   0  0  0  0  0  0  0  0  0  0  0  0
   44.6965  -18.7060  -12.9660 H   0  0  0  0  0  0  0  0  0  0  0  0
   42.8875  -14.7199  -11.7983 H   0  0  0  0  0  0  0  0  0  0  0  0
   48.3735  -16.1668  -15.7156 H   0  0  0  0  0  0  0  0  0  0  0  0
   48.8460  -13.9093  -16.4583 H   0  0  0  0  0  0  0  0  0  0  0  0
   49.1313  -13.4522  -14.7961 H   0  0  0  0  0  0  0  0  0  0  0  0
   51.0664  -14.9305  -14.6448 H   0  0  0  0  0  0  0  0  0  0  0  0
   51.0886  -13.4973  -17.3976 H   0  0  0  0  0  0  0  0  0  0  0  0
   52.5389  -14.0185  -16.4339 H   0  0  0  0  0  0  0  0  0  0  0  0
   51.7687  -16.4121  -16.5690 H   0  0  0  0  0  0  0  0  0  0  0  0
   50.3194  -15.8856  -17.5363 H   0  0  0  0  0  0  0  0  0  0  0  0
   43.3067  -10.8968   -9.9731 H   0  0  0  0  0  0  0  0  0  0  0  0
   43.4663  -12.9630  -14.3214 H   0  0  0  0  0  0  0  0  0  0  0  0
   39.2493  -13.0779  -13.3250 H   0  0  0  0  0  0  0  0  0  0  0  0
   38.8129  -14.2925  -15.4159 H   0  0  0  0  0  0  0  0  0  0  0  0
   40.6748  -14.9168  -16.9211 H   0  0  0  0  0  0  0  0  0  0  0  0
   44.1358  -13.5866  -16.5412 H   0  0  0  0  0  0  0  0  0  0  0  0
   42.9824  -14.2568  -17.6794 H   0  0  0  0  0  0  0  0  0  0  0  0
   44.2322  -15.6837  -15.4372 H   0  0  0  0  0  0  0  0  0  0  0  0
   44.6359  -15.8268  -17.0037 H   0  0  0  0  0  0  0  0  0  0  0  0
  1  2  2  0
  2  3  1  0
  3  4  2  0
  4  5  1  0
  5  6  2  0
  1  6  1  0
  7  8  2  0
  8  9  1  0
  9  3  1  0
 10 11  2  0
 11 12  1  0
 12 13  2  0
  7 13  1  0
  8 10  1  0
 15 16  2  0
 16 17  1  0
 14 12  1  0
 17 11  1  0
  1 18  1  0
 18 19  3  0
  9 20  1  0
 20 21  1  0
 21 22  1  0
 22 23  1  0
 22 24  1  0
 23 24  1  0
 16 25  1  0
 26 27  1  0
 27 28  2  0
 28 29  1  0
 29 25  1  0
 26 25  2  0
 27 30  1  0
 30 31  1  0
 30 32  1  0
 30 33  1  0
 29 34  1  0
 36 37  1  0
 37 38  2  0
 38 39  1  0
 35 39  2  0
 35 34  1  0
 34 36  2  0
 39 40  1  0
 40 41  1  0
  2 42  1  0
  4 43  1  0
  5 44  1  0
  6 45  1  0
  7 46  1  0
  9 47  1  6
 10 48  1  0
 13 49  1  0
 17 50  1  0
 20 51  1  0
 21 52  1  0
 21 53  1  0
 22 54  1  0
 23 55  1  0
 23 56  1  0
 24 57  1  0
 24 58  1  0
 26 59  1  0
 35 60  1  0
 36 61  1  0
 37 62  1  0
 38 63  1  0
 40 64  1  0
 40 65  1  0
 41 66  1  0
 41 67  1  0
M  END
> <Uni-Dock RESULT> 
ENERGY=   -3.093  LOWER_BOUND=    3.197  UPPER_BOUND=    5.138
INTER + INTRA:          -3.093
INTER:                  -3.093
INTRA:                   0.000
UNBOUND:                 0.000

$$$$

     RDKit          3D

 67 71  0  0  0  0  0  0  0  0999 V2000
   51.5284  -17.9219   -8.9204 C   0  0  0  0  0  0  0  0  0  0  0  0
   50.6567  -17.2190   -9.7628 C   0  0  0  0  0  0  0  0  0  0  0  0
   50.3091  -17.7203  -11.0333 C   0  0  0  0  0  0  0  0  0  0  0  0
   50.8461  -18.9603  -11.4219 C   0  0  0  0  0  0  0  0  0  0  0  0
   51.7194  -19.6611  -10.5853 C   0  0  0  0  0  0  0  0  0  0  0  0
   52.0625  -19.1425   -9.3378 C   0  0  0  0  0  0  0  0  0  0  0  0
   47.3836  -18.4998  -11.3100 C   0  0  0  0  0  0  0  0  0  0  0  0
   47.8620  -17.2083  -11.5881 C   0  0  0  0  0  0  0  0  0  0  0  0
   49.3336  -16.9169  -11.8988 C   0  0  2  0  0  0  0  0  0  0  0  0
   46.9381  -16.1403  -11.6435 C   0  0  0  0  0  0  0  0  0  0  0  0
   45.5792  -16.3485  -11.4048 C   0  0  0  0  0  0  0  0  0  0  0  0
   45.1450  -17.6444  -11.1076 C   0  0  0  0  0  0  0  0  0  0  0  0
   46.0282  -18.7153  -11.0609 C   0  0  0  0  0  0  0  0  0  0  0  0
   43.8398  -17.8666  -10.8837 F   0  0  0  0  0  0  0  0  0  0  0  0
   45.8345  -13.4208  -11.7962 O   0  0  0  0  0  0  0  0  0  0  0  0
   44.7601  -14.0098  -11.7956 C   0  0  0  0  0  0  0  0  0  0  0  0
   44.5883  -15.3479  -11.5011 N   0  0  0  0  0  0  0  0  0  0  0  0
   51.8659  -17.3929   -7.6310 C   0  0  0  0  0  0  0  0  0  0  0  0
   52.1347  -16.9650   -6.5867 N   0  0  0  0  0  0  0  0  0  0  0  0
   49.5358  -17.0216  -13.3482 N   0  0  0  0  0  0  0  0  0  0  0  0
   50.4941  -16.0810  -13.9109 C   0  0  0  0  0  0  0  0  0  0  0  0
   51.9101  -16.4709  -13.6330 C   0  0  0  0  0  0  0  0  0  0  0  0
   52.9793  -16.2301  -14.6701 C   0  0  0  0  0  0  0  0  0  0  0  0
   52.5524  -17.6343  -14.3475 C   0  0  0  0  0  0  0  0  0  0  0  0
   43.5242  -13.3169  -12.0675 C   0  0  0  0  0  0  0  0  0  0  0  0
   43.1215  -12.1021  -11.5443 C   0  0  0  0  0  0  0  0  0  0  0  0
   41.7819  -11.9256  -11.9580 C   0  0  0  0  0  0  0  0  0  0  0  0
   41.3838  -12.9653  -12.7138 N   0  0  0  0  0  0  0  0  0  0  0  0
   42.5019  -13.7138  -12.9157 N   0  0  0  0  0  0  0  0  0  0  0  0
   40.8714  -10.7843  -11.5861 C   0  0  0  0  0  0  0  0  0  0  0  0
   40.0814  -11.0922  -10.5222 F   0  0  0  0  0  0  0  0  0  0  0  0
   41.5783   -9.6760  -11.2296 F   0  0  0  0  0  0  0  0  0  0  0  0
   40.0473  -10.4070  -12.5991 F   0  0  0  0  0  0  0  0  0  0  0  0
   42.4874  -14.7508  -13.8958 C   0  0  0  0  0  0  0  0  0  0  0  0
   43.6752  -15.2530  -14.4493 C   0  0  0  0  0  0  0  0  0  0  0  0
   41.2586  -15.2679  -14.3287 C   0  0  0  0  0  0  0  0  0  0  0  0
   41.2240  -16.3222  -15.2425 C   0  0  0  0  0  0  0  0  0  0  0  0
   42.4106  -16.8552  -15.7426 C   0  0  0  0  0  0  0  0  0  0  0  0
   43.6474  -16.3095  -15.3732 C   0  0  0  0  0  0  0  0  0  0  0  0
   44.9301  -16.8626  -15.9399 C   0  0  0  0  0  0  0  0  0  0  0  0
   45.4033  -18.0038  -15.1676 N   0  0  0  0  0  0  0  0  0  0  0  0
   50.2382  -16.2707   -9.4250 H   0  0  0  0  0  0  0  0  0  0  0  0
   50.5911  -19.4047  -12.3809 H   0  0  0  0  0  0  0  0  0  0  0  0
   52.1301  -20.6153  -10.9080 H   0  0  0  0  0  0  0  0  0  0  0  0
   52.7423  -19.6985   -8.6941 H   0  0  0  0  0  0  0  0  0  0  0  0
   48.0571  -19.3521  -11.2839 H   0  0  0  0  0  0  0  0  0  0  0  0
   49.4923  -15.8652  -11.6171 H   0  0  0  0  0  0  0  0  0  0  0  0
   47.3119  -15.1528  -11.9014 H   0  0  0  0  0  0  0  0  0  0  0  0
   45.6554  -19.7111  -10.8424 H   0  0  0  0  0  0  0  0  0  0  0  0
   43.6387  -15.6903  -11.3815 H   0  0  0  0  0  0  0  0  0  0  0  0
   49.7436  -17.9703  -13.6326 H   0  0  0  0  0  0  0  0  0  0  0  0
   50.3239  -16.0520  -14.9945 H   0  0  0  0  0  0  0  0  0  0  0  0
   50.3061  -15.0606  -13.5558 H   0  0  0  0  0  0  0  0  0  0  0  0
   52.1944  -16.2781  -12.6045 H   0  0  0  0  0  0  0  0  0  0  0  0
   52.6945  -15.8219  -15.6334 H   0  0  0  0  0  0  0  0  0  0  0  0
   53.9544  -15.9041  -14.3258 H   0  0  0  0  0  0  0  0  0  0  0  0
   53.2380  -18.2562  -13.7830 H   0  0  0  0  0  0  0  0  0  0  0  0
   51.9797  -18.1703  -15.0955 H   0  0  0  0  0  0  0  0  0  0  0  0
   43.6991  -11.4622  -10.8881 H   0  0  0  0  0  0  0  0  0  0  0  0
   44.6434  -14.8174  -14.2128 H   0  0  0  0  0  0  0  0  0  0  0  0
   40.3174  -14.8786  -13.9456 H   0  0  0  0  0  0  0  0  0  0  0  0
   40.2682  -16.7342  -15.5555 H   0  0  0  0  0  0  0  0  0  0  0  0
   42.3724  -17.6909  -16.4384 H   0  0  0  0  0  0  0  0  0  0  0  0
   45.7010  -16.0847  -15.9563 H   0  0  0  0  0  0  0  0  0  0  0  0
   44.7730  -17.1636  -16.9809 H   0  0  0  0  0  0  0  0  0  0  0  0
   45.6152  -17.6965  -14.2183 H   0  0  0  0  0  0  0  0  0  0  0  0
   46.2917  -18.3153  -15.5588 H   0  0  0  0  0  0  0  0  0  0  0  0
  1  2  2  0
  2  3  1  0
  3  4  2  0
  4  5  1  0
  5  6  2  0
  1  6  1  0
  7  8  2  0
  8  9  1  0
  9  3  1  0
 10 11  2  0
 11 12  1  0
 12 13  2  0
  7 13  1  0
  8 10  1  0
 15 16  2  0
 16 17  1  0
 14 12  1  0
 17 11  1  0
  1 18  1  0
 18 19  3  0
  9 20  1  0
 20 21  1  0
 21 22  1  0
 22 23  1  0
 22 24  1  0
 23 24  1  0
 16 25  1  0
 26 27  1  0
 27 28  2  0
 28 29  1  0
 29 25  1  0
 26 25  2  0
 27 30  1  0
 30 31  1  0
 30 32  1  0
 30 33  1  0
 29 34  1  0
 36 37  1  0
 37 38  2  0
 38 39  1  0
 35 39  2  0
 35 34  1  0
 34 36  2  0
 39 40  1  0
 40 41  1  0
  2 42  1  0
  4 43  1  0
  5 44  1  0
  6 45  1  0
  7 46  1  0
  9 47  1  6
 10 48  1  0
 13 49  1  0
 17 50  1  0
 20 51  1  0
 21 52  1  0
 21 53  1  0
 22 54  1  0
 23 55  1  0
 23 56  1  0
 24 57  1  0
 24 58  1  0
 26 59  1  0
 35 60  1  0
 36 61  1  0
 37 62  1  0
 38 63  1  0
 40 64  1  0
 40 65  1  0
 41 66  1  0
 41 67  1  0
M  END
> <Uni-Dock RESULT> 
ENERGY=   -3.020  LOWER_BOUND=    2.223  UPPER_BOUND=    2.873
INTER + INTRA:          -3.020
INTER:                  -3.020
INTRA:                   0.000
UNBOUND:                 0.000

$$$$

     RDKit          3D

 67 71  0  0  0  0  0  0  0  0999 V2000
   40.3490  -12.6390  -12.9675 C   0  0  0  0  0  0  0  0  0  0  0  0
   41.3023  -13.6269  -12.6862 C   0  0  0  0  0  0  0  0  0  0  0  0
   41.7815  -14.4854  -13.6959 C   0  0  0  0  0  0  0  0  0  0  0  0
   41.2906  -14.3060  -15.0012 C   0  0  0  0  0  0  0  0  0  0  0  0
   40.3365  -13.3243  -15.2834 C   0  0  0  0  0  0  0  0  0  0  0  0
   39.8641  -12.4936  -14.2686 C   0  0  0  0  0  0  0  0  0  0  0  0
   44.7217  -14.1027  -14.3682 C   0  0  0  0  0  0  0  0  0  0  0  0
   44.2720  -14.9873  -13.3734 C   0  0  0  0  0  0  0  0  0  0  0  0
   42.8401  -15.5306  -13.3308 C   0  0  2  0  0  0  0  0  0  0  0  0
   45.1943  -15.4440  -12.4049 C   0  0  0  0  0  0  0  0  0  0  0  0
   46.5213  -15.0130  -12.4123 C   0  0  0  0  0  0  0  0  0  0  0  0
   46.9251  -14.1136  -13.4044 C   0  0  0  0  0  0  0  0  0  0  0  0
   46.0441  -13.6596  -14.3775 C   0  0  0  0  0  0  0  0  0  0  0  0
   48.2003  -13.6941  -13.4338 F   0  0  0  0  0  0  0  0  0  0  0  0
   46.3017  -16.7315  -10.0064 O   0  0  0  0  0  0  0  0  0  0  0  0
   47.3716  -16.3612  -10.4751 C   0  0  0  0  0  0  0  0  0  0  0  0
   47.5147  -15.4687  -11.5189 N   0  0  0  0  0  0  0  0  0  0  0  0
   39.8779  -11.7756  -11.9241 C   0  0  0  0  0  0  0  0  0  0  0  0
   39.5008  -11.0756  -11.0793 N   0  0  0  0  0  0  0  0  0  0  0  0
   42.7904  -16.7802  -14.0980 N   0  0  0  0  0  0  0  0  0  0  0  0
   41.8937  -17.7980  -13.5691 C   0  0  0  0  0  0  0  0  0  0  0  0
   40.4574  -17.5026  -13.8585 C   0  0  0  0  0  0  0  0  0  0  0  0
   39.5015  -18.6268  -14.1735 C   0  0  0  0  0  0  0  0  0  0  0  0
   39.8957  -17.6557  -15.2505 C   0  0  0  0  0  0  0  0  0  0  0  0
   48.6275  -16.8075   -9.9230 C   0  0  0  0  0  0  0  0  0  0  0  0
   48.9708  -16.8688   -8.5851 C   0  0  0  0  0  0  0  0  0  0  0  0
   50.3459  -17.1928   -8.5511 C   0  0  0  0  0  0  0  0  0  0  0  0
   50.8229  -17.3443   -9.8001 N   0  0  0  0  0  0  0  0  0  0  0  0
   49.7335  -17.2797  -10.6128 N   0  0  0  0  0  0  0  0  0  0  0  0
   51.2101  -17.3074   -7.3223 C   0  0  0  0  0  0  0  0  0  0  0  0
   51.8856  -16.1541   -7.0685 F   0  0  0  0  0  0  0  0  0  0  0  0
   50.4674  -17.5682   -6.2107 F   0  0  0  0  0  0  0  0  0  0  0  0
   52.1344  -18.3001   -7.4106 F   0  0  0  0  0  0  0  0  0  0  0  0
   49.8523  -17.6656  -11.9814 C   0  0  0  0  0  0  0  0  0  0  0  0
   48.7298  -18.0312  -12.7401 C   0  0  0  0  0  0  0  0  0  0  0  0
   51.1207  -17.6968  -12.5773 C   0  0  0  0  0  0  0  0  0  0  0  0
   51.2527  -18.0144  -13.9299 C   0  0  0  0  0  0  0  0  0  0  0  0
   50.1258  -18.3186  -14.6914 C   0  0  0  0  0  0  0  0  0  0  0  0
   48.8561  -18.3572  -14.0997 C   0  0  0  0  0  0  0  0  0  0  0  0
   47.6406  -18.7198  -14.9143 C   0  0  0  0  0  0  0  0  0  0  0  0
   47.0921  -17.5553  -15.5968 N   0  0  0  0  0  0  0  0  0  0  0  0
   41.6812  -13.7276  -11.6689 H   0  0  0  0  0  0  0  0  0  0  0  0
   41.6452  -14.9243  -15.8223 H   0  0  0  0  0  0  0  0  0  0  0  0
   39.9637  -13.2069  -16.2986 H   0  0  0  0  0  0  0  0  0  0  0  0
   39.1222  -11.7314  -14.5010 H   0  0  0  0  0  0  0  0  0  0  0  0
   44.0510  -13.7484  -15.1463 H   0  0  0  0  0  0  0  0  0  0  0  0
   42.6506  -15.7812  -12.2763 H   0  0  0  0  0  0  0  0  0  0  0  0
   44.8472  -16.1610  -11.6654 H   0  0  0  0  0  0  0  0  0  0  0  0
   46.3944  -12.9736  -15.1425 H   0  0  0  0  0  0  0  0  0  0  0  0
   48.4474  -15.1184  -11.7206 H   0  0  0  0  0  0  0  0  0  0  0  0
   42.6154  -16.6129  -15.0806 H   0  0  0  0  0  0  0  0  0  0  0  0
   42.1759  -18.7523  -14.0314 H   0  0  0  0  0  0  0  0  0  0  0  0
   42.0415  -17.9378  -12.4914 H   0  0  0  0  0  0  0  0  0  0  0  0
   40.0670  -16.7096  -13.2303 H   0  0  0  0  0  0  0  0  0  0  0  0
   39.8843  -19.6392  -14.2385 H   0  0  0  0  0  0  0  0  0  0  0  0
   38.4952  -18.5624  -13.7752 H   0  0  0  0  0  0  0  0  0  0  0  0
   39.1563  -16.9334  -15.5779 H   0  0  0  0  0  0  0  0  0  0  0  0
   40.5444  -18.0165  -16.0402 H   0  0  0  0  0  0  0  0  0  0  0  0
   48.3265  -16.6374   -7.7454 H   0  0  0  0  0  0  0  0  0  0  0  0
   47.7413  -18.1118  -12.2936 H   0  0  0  0  0  0  0  0  0  0  0  0
   52.0160  -17.4520  -12.0092 H   0  0  0  0  0  0  0  0  0  0  0  0
   52.2368  -18.0133  -14.3912 H   0  0  0  0  0  0  0  0  0  0  0  0
   50.2383  -18.5440  -15.7499 H   0  0  0  0  0  0  0  0  0  0  0  0
   46.8739  -19.1634  -14.2701 H   0  0  0  0  0  0  0  0  0  0  0  0
   47.9061  -19.4856  -15.6506 H   0  0  0  0  0  0  0  0  0  0  0  0
   46.7817  -16.8785  -14.8997 H   0  0  0  0  0  0  0  0  0  0  0  0
   46.2500  -17.8383  -16.0969 H   0  0  0  0  0  0  0  0  0  0  0  0
  1  2  2  0
  2  3  1  0
  3  4  2  0
  4  5  1  0
  5  6  2  0
  1  6  1  0
  7  8  2  0
  8  9  1  0
  9  3  1  0
 10 11  2  0
 11 12  1  0
 12 13  2  0
  7 13  1  0
  8 10  1  0
 15 16  2  0
 16 17  1  0
 14 12  1  0
 17 11  1  0
  1 18  1  0
 18 19  3  0
  9 20  1  0
 20 21  1  0
 21 22  1  0
 22 23  1  0
 22 24  1  0
 23 24  1  0
 16 25  1  0
 26 27  1  0
 27 28  2  0
 28 29  1  0
 29 25  1  0
 26 25  2  0
 27 30  1  0
 30 31  1  0
 30 32  1  0
 30 33  1  0
 29 34  1  0
 36 37  1  0
 37 38  2  0
 38 39  1  0
 35 39  2  0
 35 34  1  0
 34 36  2  0
 39 40  1  0
 40 41  1  0
  2 42  1  0
  4 43  1  0
  5 44  1  0
  6 45  1  0
  7 46  1  0
  9 47  1  6
 10 48  1  0
 13 49  1  0
 17 50  1  0
 20 51  1  0
 21 52  1  0
 21 53  1  0
 22 54  1  0
 23 55  1  0
 23 56  1  0
 24 57  1  0
 24 58  1  0
 26 59  1  0
 35 60  1  0
 36 61  1  0
 37 62  1  0
 38 63  1  0
 40 64  1  0
 40 65  1  0
 41 66  1  0
 41 67  1  0
M  END
> <Uni-Dock RESULT> 
ENERGY=   -3.000  LOWER_BOUND=    3.134  UPPER_BOUND=    9.869
INTER + INTRA:          -3.000
INTER:                  -3.000
INTRA:                   0.000
UNBOUND:                 0.000

$$$$

     RDKit          3D

 67 71  0  0  0  0  0  0  0  0999 V2000
   47.5733   -6.6350  -13.3297 C   0  0  0  0  0  0  0  0  0  0  0  0
   46.8939   -7.8543  -13.2052 C   0  0  0  0  0  0  0  0  0  0  0  0
   46.1807   -8.4048  -14.2890 C   0  0  0  0  0  0  0  0  0  0  0  0
   46.1899   -7.7041  -15.5079 C   0  0  0  0  0  0  0  0  0  0  0  0
   46.8630   -6.4856  -15.6333 C   0  0  0  0  0  0  0  0  0  0  0  0
   47.5516   -5.9500  -14.5460 C   0  0  0  0  0  0  0  0  0  0  0  0
   47.3480  -10.9983  -15.3632 C   0  0  0  0  0  0  0  0  0  0  0  0
   46.3945  -10.9565  -14.3319 C   0  0  0  0  0  0  0  0  0  0  0  0
   45.4772   -9.7520  -14.0975 C   0  0  2  0  0  0  0  0  0  0  0  0
   46.2312  -12.0964  -13.5127 C   0  0  0  0  0  0  0  0  0  0  0  0
   47.0124  -13.2373  -13.6996 C   0  0  0  0  0  0  0  0  0  0  0  0
   47.9674  -13.2318  -14.7214 C   0  0  0  0  0  0  0  0  0  0  0  0
   48.1395  -12.1313  -15.5510 C   0  0  0  0  0  0  0  0  0  0  0  0
   48.7228  -14.3236  -14.9229 F   0  0  0  0  0  0  0  0  0  0  0  0
   45.3509  -13.8443  -11.3203 O   0  0  0  0  0  0  0  0  0  0  0  0
   45.9930  -14.6924  -11.9285 C   0  0  0  0  0  0  0  0  0  0  0  0
   46.8682  -14.4338  -12.9647 N   0  0  0  0  0  0  0  0  0  0  0  0
   48.2942   -6.0956  -12.2136 C   0  0  0  0  0  0  0  0  0  0  0  0
   48.8800   -5.6628  -11.3107 N   0  0  0  0  0  0  0  0  0  0  0  0
   44.2469   -9.9422  -14.8739 N   0  0  0  0  0  0  0  0  0  0  0  0
   43.0319   -9.4466  -14.2431 C   0  0  0  0  0  0  0  0  0  0  0  0
   42.9122   -7.9587  -14.3205 C   0  0  0  0  0  0  0  0  0  0  0  0
   41.5610   -7.3170  -14.5186 C   0  0  0  0  0  0  0  0  0  0  0  0
   42.5805   -7.2705  -15.6217 C   0  0  0  0  0  0  0  0  0  0  0  0
   45.9233  -16.0878  -11.5685 C   0  0  0  0  0  0  0  0  0  0  0  0
   45.9874  -16.6201  -10.2940 C   0  0  0  0  0  0  0  0  0  0  0  0
   46.0573  -18.0215  -10.4613 C   0  0  0  0  0  0  0  0  0  0  0  0
   46.0177  -18.3403  -11.7679 N   0  0  0  0  0  0  0  0  0  0  0  0
   45.7613  -17.1723  -12.4168 N   0  0  0  0  0  0  0  0  0  0  0  0
   46.2122  -19.0484   -9.3696 C   0  0  0  0  0  0  0  0  0  0  0  0
   47.5124  -19.4069   -9.1918 F   0  0  0  0  0  0  0  0  0  0  0  0
   45.7792  -18.5717   -8.1693 F   0  0  0  0  0  0  0  0  0  0  0  0
   45.5124  -20.1892   -9.6069 F   0  0  0  0  0  0  0  0  0  0  0  0
   45.3949  -17.1986  -13.7957 C   0  0  0  0  0  0  0  0  0  0  0  0
   44.7171  -16.1257  -14.3948 C   0  0  0  0  0  0  0  0  0  0  0  0
   45.7034  -18.3286  -14.5656 C   0  0  0  0  0  0  0  0  0  0  0  0
   45.4066  -18.3508  -15.9291 C   0  0  0  0  0  0  0  0  0  0  0  0
   44.7866  -17.2564  -16.5291 C   0  0  0  0  0  0  0  0  0  0  0  0
   44.4105  -16.1439  -15.7645 C   0  0  0  0  0  0  0  0  0  0  0  0
   43.7087  -14.9739  -16.4057 C   0  0  0  0  0  0  0  0  0  0  0  0
   44.6614  -14.0337  -16.9812 N   0  0  0  0  0  0  0  0  0  0  0  0
   46.9233   -8.3861  -12.2540 H   0  0  0  0  0  0  0  0  0  0  0  0
   45.6768   -8.0963  -16.3827 H   0  0  0  0  0  0  0  0  0  0  0  0
   46.8514   -5.9553  -16.5830 H   0  0  0  0  0  0  0  0  0  0  0  0
   48.0737   -5.0009  -14.6564 H   0  0  0  0  0  0  0  0  0  0  0  0
   47.4865  -10.1529  -16.0315 H   0  0  0  0  0  0  0  0  0  0  0  0
   45.2060   -9.7902  -13.0319 H   0  0  0  0  0  0  0  0  0  0  0  0
   45.4617  -12.0695  -12.7455 H   0  0  0  0  0  0  0  0  0  0  0  0
   48.8795  -12.1662  -16.3445 H   0  0  0  0  0  0  0  0  0  0  0  0
   47.4586  -15.1949  -13.2896 H   0  0  0  0  0  0  0  0  0  0  0  0
   44.3386   -9.5907  -15.8184 H   0  0  0  0  0  0  0  0  0  0  0  0
   42.1835   -9.9137  -14.7590 H   0  0  0  0  0  0  0  0  0  0  0  0
   42.9611   -9.7780  -13.2000 H   0  0  0  0  0  0  0  0  0  0  0  0
   43.5791   -7.4569  -13.6283 H   0  0  0  0  0  0  0  0  0  0  0  0
   40.6929   -7.9518  -14.6566 H   0  0  0  0  0  0  0  0  0  0  0  0
   41.3527   -6.3989  -13.9807 H   0  0  0  0  0  0  0  0  0  0  0  0
   43.0629   -6.3215  -15.8272 H   0  0  0  0  0  0  0  0  0  0  0  0
   42.3970   -7.8753  -16.5021 H   0  0  0  0  0  0  0  0  0  0  0  0
   46.0490  -16.0623   -9.3673 H   0  0  0  0  0  0  0  0  0  0  0  0
   44.3754  -15.2716  -13.8144 H   0  0  0  0  0  0  0  0  0  0  0  0
   46.1983  -19.1920  -14.1253 H   0  0  0  0  0  0  0  0  0  0  0  0
   45.6704  -19.2207  -16.5249 H   0  0  0  0  0  0  0  0  0  0  0  0
   44.5790  -17.2761  -17.5971 H   0  0  0  0  0  0  0  0  0  0  0  0
   43.0838  -14.4590  -15.6681 H   0  0  0  0  0  0  0  0  0  0  0  0
   43.0310  -15.3342  -17.1868 H   0  0  0  0  0  0  0  0  0  0  0  0
   45.2403  -13.6498  -16.2342 H   0  0  0  0  0  0  0  0  0  0  0  0
   44.1460  -13.2409  -17.3623 H   0  0  0  0  0  0  0  0  0  0  0  0
  1  2  2  0
  2  3  1  0
  3  4  2  0
  4  5  1  0
  5  6  2  0
  1  6  1  0
  7  8  2  0
  8  9  1  0
  9  3  1  0
 10 11  2  0
 11 12  1  0
 12 13  2  0
  7 13  1  0
  8 10  1  0
 15 16  2  0
 16 17  1  0
 14 12  1  0
 17 11  1  0
  1 18  1  0
 18 19  3  0
  9 20  1  0
 20 21  1  0
 21 22  1  0
 22 23  1  0
 22 24  1  0
 23 24  1  0
 16 25  1  0
 26 27  1  0
 27 28  2  0
 28 29  1  0
 29 25  1  0
 26 25  2  0
 27 30  1  0
 30 31  1  0
 30 32  1  0
 30 33  1  0
 29 34  1  0
 36 37  1  0
 37 38  2  0
 38 39  1  0
 35 39  2  0
 35 34  1  0
 34 36  2  0
 39 40  1  0
 40 41  1  0
  2 42  1  0
  4 43  1  0
  5 44  1  0
  6 45  1  0
  7 46  1  0
  9 47  1  6
 10 48  1  0
 13 49  1  0
 17 50  1  0
 20 51  1  0
 21 52  1  0
 21 53  1  0
 22 54  1  0
 23 55  1  0
 23 56  1  0
 24 57  1  0
 24 58  1  0
 26 59  1  0
 35 60  1  0
 36 61  1  0
 37 62  1  0
 38 63  1  0
 40 64  1  0
 40 65  1  0
 41 66  1  0
 41 67  1  0
M  END
> <Uni-Dock RESULT> 
ENERGY=   -2.915  LOWER_BOUND=    4.877  UPPER_BOUND=    9.536
INTER + INTRA:          -2.915
INTER:                  -2.915
INTRA:                   0.000
UNBOUND:                 0.000

$$$$
