
     RDKit          3D

 67 71  0  0  0  0  0  0  0  0999 V2000
   45.2766  -17.7426  -10.3286 C   0  0  0  0  0  0  0  0  0  0  0  0
   44.8856  -17.0729  -11.4933 C   0  0  0  0  0  0  0  0  0  0  0  0
   45.3609  -15.7788  -11.7740 C   0  0  0  0  0  0  0  0  0  0  0  0
   46.2292  -15.1687  -10.8528 C   0  0  0  0  0  0  0  0  0  0  0  0
   46.6209  -15.8352   -9.6906 C   0  0  0  0  0  0  0  0  0  0  0  0
   46.1457  -17.1202   -9.4282 C   0  0  0  0  0  0  0  0  0  0  0  0
   42.3438  -15.0599  -13.0668 C   0  0  0  0  0  0  0  0  0  0  0  0
   43.5408  -14.3768  -12.7842 C   0  0  0  0  0  0  0  0  0  0  0  0
   44.9158  -15.0167  -13.0200 C   0  0  2  0  0  0  0  0  0  0  0  0
   43.4704  -13.0884  -12.2114 C   0  0  0  0  0  0  0  0  0  0  0  0
   42.2399  -12.4929  -11.9299 C   0  0  0  0  0  0  0  0  0  0  0  0
   41.0709  -13.1971  -12.2404 C   0  0  0  0  0  0  0  0  0  0  0  0
   41.1107  -14.4674  -12.8023 C   0  0  0  0  0  0  0  0  0  0  0  0
   39.8783  -12.6381  -11.9804 F   0  0  0  0  0  0  0  0  0  0  0  0
   44.2699  -10.5866  -10.9281 O   0  0  0  0  0  0  0  0  0  0  0  0
   43.0663  -10.3612  -10.8941 C   0  0  0  0  0  0  0  0  0  0  0  0
   42.0808  -11.2202  -11.3384 N   0  0  0  0  0  0  0  0  0  0  0  0
   44.7825  -19.0610  -10.0571 C   0  0  0  0  0  0  0  0  0  0  0  0
   44.3830  -20.1283   -9.8346 N   0  0  0  0  0  0  0  0  0  0  0  0
   44.9101  -15.8420  -14.2413 N   0  0  0  0  0  0  0  0  0  0  0  0
   46.2289  -16.3001  -14.6720 C   0  0  0  0  0  0  0  0  0  0  0  0
   47.0577  -15.1814  -15.2259 C   0  0  0  0  0  0  0  0  0  0  0  0
   48.5231  -15.4127  -15.5010 C   0  0  0  0  0  0  0  0  0  0  0  0
   48.1077  -14.4960  -14.3862 C   0  0  0  0  0  0  0  0  0  0  0  0
   42.5496   -9.1542  -10.2999 C   0  0  0  0  0  0  0  0  0  0  0  0
   42.8764   -8.6558   -9.0514 C   0  0  0  0  0  0  0  0  0  0  0  0
   41.9982   -7.5738   -8.8214 C   0  0  0  0  0  0  0  0  0  0  0  0
   41.1917   -7.3945   -9.8818 N   0  0  0  0  0  0  0  0  0  0  0  0
   41.6419   -8.2555  -10.8365 N   0  0  0  0  0  0  0  0  0  0  0  0
   41.9042   -6.7353   -7.5730 C   0  0  0  0  0  0  0  0  0  0  0  0
   42.2176   -5.4327   -7.8001 F   0  0  0  0  0  0  0  0  0  0  0  0
   42.7595   -7.1744   -6.6083 F   0  0  0  0  0  0  0  0  0  0  0  0
   40.6619   -6.7589   -7.0225 F   0  0  0  0  0  0  0  0  0  0  0  0
   41.1592   -8.1250  -12.1744 C   0  0  0  0  0  0  0  0  0  0  0  0
   41.8256   -8.7052  -13.2646 C   0  0  0  0  0  0  0  0  0  0  0  0
   40.0082   -7.3566  -12.4079 C   0  0  0  0  0  0  0  0  0  0  0  0
   39.5101   -7.2037  -13.7018 C   0  0  0  0  0  0  0  0  0  0  0  0
   40.1628   -7.8051  -14.7753 C   0  0  0  0  0  0  0  0  0  0  0  0
   41.3258   -8.5589  -14.5704 C   0  0  0  0  0  0  0  0  0  0  0  0
   42.0432   -9.1775  -15.7455 C   0  0  0  0  0  0  0  0  0  0  0  0
   42.6183   -8.1557  -16.6115 N   0  0  0  0  0  0  0  0  0  0  0  0
   44.2070  -17.5577  -12.1940 H   0  0  0  0  0  0  0  0  0  0  0  0
   46.6013  -14.1611  -11.0319 H   0  0  0  0  0  0  0  0  0  0  0  0
   47.2897  -15.3477   -8.9850 H   0  0  0  0  0  0  0  0  0  0  0  0
   46.4527  -17.6294   -8.5169 H   0  0  0  0  0  0  0  0  0  0  0  0
   42.3709  -16.0636  -13.4879 H   0  0  0  0  0  0  0  0  0  0  0  0
   45.6119  -14.1863  -13.1927 H   0  0  0  0  0  0  0  0  0  0  0  0
   44.4013  -12.5788  -11.9807 H   0  0  0  0  0  0  0  0  0  0  0  0
   40.1849  -14.9902  -13.0196 H   0  0  0  0  0  0  0  0  0  0  0  0
   41.1132  -10.9496  -11.1865 H   0  0  0  0  0  0  0  0  0  0  0  0
   44.4951  -15.2963  -14.9945 H   0  0  0  0  0  0  0  0  0  0  0  0
   46.0749  -17.0320  -15.4737 H   0  0  0  0  0  0  0  0  0  0  0  0
   46.7519  -16.8396  -13.8741 H   0  0  0  0  0  0  0  0  0  0  0  0
   46.5241  -14.5950  -15.9673 H   0  0  0  0  0  0  0  0  0  0  0  0
   48.9487  -14.9679  -16.3942 H   0  0  0  0  0  0  0  0  0  0  0  0
   48.9588  -16.3697  -15.2344 H   0  0  0  0  0  0  0  0  0  0  0  0
   48.2517  -13.4301  -14.5241 H   0  0  0  0  0  0  0  0  0  0  0  0
   48.2734  -14.8377  -13.3705 H   0  0  0  0  0  0  0  0  0  0  0  0
   43.6066   -9.0705   -8.3668 H   0  0  0  0  0  0  0  0  0  0  0  0
   42.7625   -9.2398  -13.1425 H   0  0  0  0  0  0  0  0  0  0  0  0
   39.4782   -6.8733  -11.5883 H   0  0  0  0  0  0  0  0  0  0  0  0
   38.6184   -6.6067  -13.8740 H   0  0  0  0  0  0  0  0  0  0  0  0
   39.7759   -7.6675  -15.7838 H   0  0  0  0  0  0  0  0  0  0  0  0
   41.3363   -9.7921  -16.3151 H   0  0  0  0  0  0  0  0  0  0  0  0
   42.8381   -9.8489  -15.4000 H   0  0  0  0  0  0  0  0  0  0  0  0
   43.2717   -7.5910  -16.0709 H   0  0  0  0  0  0  0  0  0  0  0  0
   43.1606   -8.6057  -17.3455 H   0  0  0  0  0  0  0  0  0  0  0  0
  1  2  2  0
  2  3  1  0
  3  4  2  0
  4  5  1  0
  5  6  2  0
  1  6  1  0
  7  8  2  0
  8  9  1  0
  9  3  1  0
 10 11  2  0
 11 12  1  0
 12 13  2  0
  7 13  1  0
  8 10  1  0
 15 16  2  0
 16 17  1  0
 14 12  1  0
 17 11  1  0
  1 18  1  0
 18 19  3  0
  9 20  1  0
 20 21  1  0
 21 22  1  0
 22 23  1  0
 22 24  1  0
 23 24  1  0
 16 25  1  0
 26 27  1  0
 27 28  2  0
 28 29  1  0
 29 25  1  0
 26 25  2  0
 27 30  1  0
 30 31  1  0
 30 32  1  0
 30 33  1  0
 29 34  1  0
 36 37  1  0
 37 38  2  0
 38 39  1  0
 35 39  2  0
 35 34  1  0
 34 36  2  0
 39 40  1  0
 40 41  1  0
  2 42  1  0
  4 43  1  0
  5 44  1  0
  6 45  1  0
  7 46  1  0
  9 47  1  1
 10 48  1  0
 13 49  1  0
 17 50  1  0
 20 51  1  0
 21 52  1  0
 21 53  1  0
 22 54  1  0
 23 55  1  0
 23 56  1  0
 24 57  1  0
 24 58  1  0
 26 59  1  0
 35 60  1  0
 36 61  1  0
 37 62  1  0
 38 63  1  0
 40 64  1  0
 40 65  1  0
 41 66  1  0
 41 67  1  0
M  END
> <Uni-Dock RESULT> 
ENERGY=   -3.901  LOWER_BOUND=    0.000  UPPER_BOUND=    0.000
INTER + INTRA:          -3.901
INTER:                  -3.901
INTRA:                   0.000
UNBOUND:                 0.000

$$$$

     RDKit          3D

 67 71  0  0  0  0  0  0  0  0999 V2000
   46.4454   -7.6275  -14.2379 C   0  0  0  0  0  0  0  0  0  0  0  0
   46.1774   -8.7962  -14.9591 C   0  0  0  0  0  0  0  0  0  0  0  0
   45.2895   -9.7649  -14.4566 C   0  0  0  0  0  0  0  0  0  0  0  0
   44.6854   -9.5378  -13.2084 C   0  0  0  0  0  0  0  0  0  0  0  0
   44.9508   -8.3724  -12.4875 C   0  0  0  0  0  0  0  0  0  0  0  0
   45.8295   -7.4183  -13.0008 C   0  0  0  0  0  0  0  0  0  0  0  0
   47.2902  -12.1294  -15.7595 C   0  0  0  0  0  0  0  0  0  0  0  0
   46.1401  -12.0738  -14.9512 C   0  0  0  0  0  0  0  0  0  0  0  0
   45.0137  -11.0639  -15.2103 C   0  0  2  0  0  0  0  0  0  0  0  0
   46.0505  -12.9331  -13.8347 C   0  0  0  0  0  0  0  0  0  0  0  0
   47.0778  -13.8280  -13.5318 C   0  0  0  0  0  0  0  0  0  0  0  0
   48.1989  -13.8654  -14.3689 C   0  0  0  0  0  0  0  0  0  0  0  0
   48.3145  -13.0296  -15.4729 C   0  0  0  0  0  0  0  0  0  0  0  0
   49.1950  -14.7230  -14.0953 F   0  0  0  0  0  0  0  0  0  0  0  0
   45.1086  -14.1409  -11.3448 O   0  0  0  0  0  0  0  0  0  0  0  0
   46.1255  -14.8185  -11.4314 C   0  0  0  0  0  0  0  0  0  0  0  0
   47.0782  -14.7046  -12.4242 N   0  0  0  0  0  0  0  0  0  0  0  0
   47.3535   -6.6504  -14.7639 C   0  0  0  0  0  0  0  0  0  0  0  0
   48.0892   -5.8581  -15.1873 N   0  0  0  0  0  0  0  0  0  0  0  0
   44.8032  -10.8695  -16.6562 N   0  0  0  0  0  0  0  0  0  0  0  0
   43.6043  -10.1084  -16.9993 C   0  0  0  0  0  0  0  0  0  0  0  0
   42.3518  -10.8918  -16.7484 C   0  0  0  0  0  0  0  0  0  0  0  0
   41.0161  -10.1936  -16.8186 C   0  0  0  0  0  0  0  0  0  0  0  0
   41.5355  -10.6818  -15.4967 C   0  0  0  0  0  0  0  0  0  0  0  0
   46.4624  -15.7908  -10.4224 C   0  0  0  0  0  0  0  0  0  0  0  0
   46.4899  -15.5720   -9.0566 C   0  0  0  0  0  0  0  0  0  0  0  0
   47.0493  -16.7368   -8.4863 C   0  0  0  0  0  0  0  0  0  0  0  0
   47.3258  -17.6383   -9.4443 N   0  0  0  0  0  0  0  0  0  0  0  0
   46.8186  -17.1184  -10.5966 N   0  0  0  0  0  0  0  0  0  0  0  0
   47.3545  -16.9734   -7.0298 C   0  0  0  0  0  0  0  0  0  0  0  0
   46.6274  -17.9962   -6.5086 F   0  0  0  0  0  0  0  0  0  0  0  0
   47.0726  -15.8763   -6.2737 F   0  0  0  0  0  0  0  0  0  0  0  0
   48.6648  -17.2613   -6.8127 F   0  0  0  0  0  0  0  0  0  0  0  0
   46.7199  -17.9524  -11.7520 C   0  0  0  0  0  0  0  0  0  0  0  0
   45.8924  -17.6243  -12.8367 C   0  0  0  0  0  0  0  0  0  0  0  0
   47.4396  -19.1570  -11.7819 C   0  0  0  0  0  0  0  0  0  0  0  0
   47.3644  -19.9986  -12.8917 C   0  0  0  0  0  0  0  0  0  0  0  0
   46.5611  -19.6523  -13.9756 C   0  0  0  0  0  0  0  0  0  0  0  0
   45.8162  -18.4658  -13.9602 C   0  0  0  0  0  0  0  0  0  0  0  0
   44.9231  -18.1181  -15.1263 C   0  0  0  0  0  0  0  0  0  0  0  0
   43.8087  -19.0513  -15.2355 N   0  0  0  0  0  0  0  0  0  0  0  0
   46.6589   -8.9597  -15.9224 H   0  0  0  0  0  0  0  0  0  0  0  0
   44.0066  -10.2758  -12.7834 H   0  0  0  0  0  0  0  0  0  0  0  0
   44.4792   -8.2134  -11.5205 H   0  0  0  0  0  0  0  0  0  0  0  0
   46.0340   -6.5154  -12.4288 H   0  0  0  0  0  0  0  0  0  0  0  0
   47.3939  -11.4617  -16.6132 H   0  0  0  0  0  0  0  0  0  0  0  0
   44.0997  -11.5180  -14.8075 H   0  0  0  0  0  0  0  0  0  0  0  0
   45.1661  -12.8679  -13.2077 H   0  0  0  0  0  0  0  0  0  0  0  0
   49.2031  -13.0765  -16.0942 H   0  0  0  0  0  0  0  0  0  0  0  0
   47.9161  -15.2737  -12.3440 H   0  0  0  0  0  0  0  0  0  0  0  0
   44.7421  -11.7856  -17.0969 H   0  0  0  0  0  0  0  0  0  0  0  0
   43.6527   -9.8883  -18.0724 H   0  0  0  0  0  0  0  0  0  0  0  0
   43.5841   -9.1342  -16.4973 H   0  0  0  0  0  0  0  0  0  0  0  0
   42.3889  -11.8865  -17.1812 H   0  0  0  0  0  0  0  0  0  0  0  0
   40.1865  -10.7282  -17.2686 H   0  0  0  0  0  0  0  0  0  0  0  0
   40.9962   -9.1228  -16.9910 H   0  0  0  0  0  0  0  0  0  0  0  0
   41.0579  -11.5472  -15.0510 H   0  0  0  0  0  0  0  0  0  0  0  0
   41.8567   -9.9345  -14.7794 H   0  0  0  0  0  0  0  0  0  0  0  0
   46.2095  -14.6572   -8.5484 H   0  0  0  0  0  0  0  0  0  0  0  0
   45.2562  -16.7448  -12.8241 H   0  0  0  0  0  0  0  0  0  0  0  0
   48.0742  -19.4543  -10.9482 H   0  0  0  0  0  0  0  0  0  0  0  0
   47.9247  -20.9297  -12.9067 H   0  0  0  0  0  0  0  0  0  0  0  0
   46.4962  -20.3228  -14.8311 H   0  0  0  0  0  0  0  0  0  0  0  0
   45.5142  -18.1359  -16.0494 H   0  0  0  0  0  0  0  0  0  0  0  0
   44.5331  -17.0989  -15.0207 H   0  0  0  0  0  0  0  0  0  0  0  0
   43.2685  -19.0265  -14.3719 H   0  0  0  0  0  0  0  0  0  0  0  0
   43.1852  -18.7424  -15.9778 H   0  0  0  0  0  0  0  0  0  0  0  0
  1  2  2  0
  2  3  1  0
  3  4  2  0
  4  5  1  0
  5  6  2  0
  1  6  1  0
  7  8  2  0
  8  9  1  0
  9  3  1  0
 10 11  2  0
 11 12  1  0
 12 13  2  0
  7 13  1  0
  8 10  1  0
 15 16  2  0
 16 17  1  0
 14 12  1  0
 17 11  1  0
  1 18  1  0
 18 19  3  0
  9 20  1  0
 20 21  1  0
 21 22  1  0
 22 23  1  0
 22 24  1  0
 23 24  1  0
 16 25  1  0
 26 27  1  0
 27 28  2  0
 28 29  1  0
 29 25  1  0
 26 25  2  0
 27 30  1  0
 30 31  1  0
 30 32  1  0
 30 33  1  0
 29 34  1  0
 36 37  1  0
 37 38  2  0
 38 39  1  0
 35 39  2  0
 35 34  1  0
 34 36  2  0
 39 40  1  0
 40 41  1  0
  2 42  1  0
  4 43  1  0
  5 44  1  0
  6 45  1  0
  7 46  1  0
  9 47  1  1
 10 48  1  0
 13 49  1  0
 17 50  1  0
 20 51  1  0
 21 52  1  0
 21 53  1  0
 22 54  1  0
 23 55  1  0
 23 56  1  0
 24 57  1  0
 24 58  1  0
 26 59  1  0
 35 60  1  0
 36 61  1  0
 37 62  1  0
 38 63  1  0
 40 64  1  0
 40 65  1  0
 41 66  1  0
 41 67  1  0
M  END
> <Uni-Dock RESULT> 
ENERGY=   -3.728  LOWER_BOUND=    4.846  UPPER_BOUND=    9.602
INTER + INTRA:          -3.728
INTER:                  -3.728
INTRA:                   0.000
UNBOUND:                 0.000

$$$$

     RDKit          3D

 67 71  0  0  0  0  0  0  0  0999 V2000
   43.9701   -7.9236  -15.1453 C   0  0  0  0  0  0  0  0  0  0  0  0
   44.0985   -8.4563  -13.8577 C   0  0  0  0  0  0  0  0  0  0  0  0
   45.2781   -9.1146  -13.4650 C   0  0  0  0  0  0  0  0  0  0  0  0
   46.3215   -9.2352  -14.3985 C   0  0  0  0  0  0  0  0  0  0  0  0
   46.1959   -8.7041  -15.6832 C   0  0  0  0  0  0  0  0  0  0  0  0
   45.0222   -8.0493  -16.0568 C   0  0  0  0  0  0  0  0  0  0  0  0
   43.3784  -11.2519  -11.7002 C   0  0  0  0  0  0  0  0  0  0  0  0
   44.7361  -11.1082  -12.0399 C   0  0  0  0  0  0  0  0  0  0  0  0
   45.4227   -9.7360  -12.0778 C   0  0  2  0  0  0  0  0  0  0  0  0
   45.4692  -12.2551  -12.4142 C   0  0  0  0  0  0  0  0  0  0  0  0
   44.8678  -13.5142  -12.4463 C   0  0  0  0  0  0  0  0  0  0  0  0
   43.5195  -13.6193  -12.0859 C   0  0  0  0  0  0  0  0  0  0  0  0
   42.7734  -12.5070  -11.7158 C   0  0  0  0  0  0  0  0  0  0  0  0
   42.9255  -14.8231  -12.1069 F   0  0  0  0  0  0  0  0  0  0  0  0
   47.6246  -13.9477  -13.4315 O   0  0  0  0  0  0  0  0  0  0  0  0
   46.8192  -14.8574  -13.2757 C   0  0  0  0  0  0  0  0  0  0  0  0
   45.5213  -14.7063  -12.8294 N   0  0  0  0  0  0  0  0  0  0  0  0
   42.7608   -7.2561  -15.5299 C   0  0  0  0  0  0  0  0  0  0  0  0
   41.7821   -6.7159  -15.8440 N   0  0  0  0  0  0  0  0  0  0  0  0
   44.9280   -8.8696  -10.9927 N   0  0  0  0  0  0  0  0  0  0  0  0
   45.6864   -7.6349  -10.8067 C   0  0  0  0  0  0  0  0  0  0  0  0
   47.0396   -7.8916  -10.2165 C   0  0  0  0  0  0  0  0  0  0  0  0
   48.0510   -6.7728  -10.1709 C   0  0  0  0  0  0  0  0  0  0  0  0
   48.2737   -7.9448  -11.0834 C   0  0  0  0  0  0  0  0  0  0  0  0
   47.1513  -16.2159  -13.6236 C   0  0  0  0  0  0  0  0  0  0  0  0
   47.6950  -16.6405  -14.8228 C   0  0  0  0  0  0  0  0  0  0  0  0
   47.6723  -18.0522  -14.7831 C   0  0  0  0  0  0  0  0  0  0  0  0
   47.1689  -18.4775  -13.6115 N   0  0  0  0  0  0  0  0  0  0  0  0
   47.0052  -17.3581  -12.8530 N   0  0  0  0  0  0  0  0  0  0  0  0
   48.0964  -18.9944  -15.8799 C   0  0  0  0  0  0  0  0  0  0  0  0
   49.1534  -19.7676  -15.5173 F   0  0  0  0  0  0  0  0  0  0  0  0
   48.4788  -18.3205  -16.9999 F   0  0  0  0  0  0  0  0  0  0  0  0
   47.0975  -19.8334  -16.2604 F   0  0  0  0  0  0  0  0  0  0  0  0
   46.7304  -17.4968  -11.4582 C   0  0  0  0  0  0  0  0  0  0  0  0
   46.9127  -16.4374  -10.5561 C   0  0  0  0  0  0  0  0  0  0  0  0
   46.3074  -18.7432  -10.9713 C   0  0  0  0  0  0  0  0  0  0  0  0
   46.0337  -18.9170   -9.6147 C   0  0  0  0  0  0  0  0  0  0  0  0
   46.1919  -17.8527   -8.7300 C   0  0  0  0  0  0  0  0  0  0  0  0
   46.6338  -16.6048   -9.1884 C   0  0  0  0  0  0  0  0  0  0  0  0
   46.8339  -15.4688   -8.2150 C   0  0  0  0  0  0  0  0  0  0  0  0
   47.9333  -15.7450   -7.2986 N   0  0  0  0  0  0  0  0  0  0  0  0
   43.2777   -8.3596  -13.1481 H   0  0  0  0  0  0  0  0  0  0  0  0
   47.2410   -9.7541  -14.1317 H   0  0  0  0  0  0  0  0  0  0  0  0
   47.0105   -8.8098  -16.3960 H   0  0  0  0  0  0  0  0  0  0  0  0
   44.9319   -7.6432  -17.0623 H   0  0  0  0  0  0  0  0  0  0  0  0
   42.7851  -10.3800  -11.4298 H   0  0  0  0  0  0  0  0  0  0  0  0
   46.4864   -9.9230  -11.8843 H   0  0  0  0  0  0  0  0  0  0  0  0
   46.5115  -12.1288  -12.6921 H   0  0  0  0  0  0  0  0  0  0  0  0
   41.7267  -12.6226  -11.4536 H   0  0  0  0  0  0  0  0  0  0  0  0
   44.9270  -15.5304  -12.8139 H   0  0  0  0  0  0  0  0  0  0  0  0
   44.9535   -9.3993  -10.1233 H   0  0  0  0  0  0  0  0  0  0  0  0
   45.1260   -7.0101  -10.1011 H   0  0  0  0  0  0  0  0  0  0  0  0
   45.7488   -7.0530  -11.7334 H   0  0  0  0  0  0  0  0  0  0  0  0
   46.9971   -8.5268   -9.3374 H   0  0  0  0  0  0  0  0  0  0  0  0
   48.6760   -6.6887   -9.2883 H   0  0  0  0  0  0  0  0  0  0  0  0
   47.7953   -5.8203  -10.6226 H   0  0  0  0  0  0  0  0  0  0  0  0
   49.0495   -8.6547  -10.8190 H   0  0  0  0  0  0  0  0  0  0  0  0
   48.1744   -7.7736  -12.1496 H   0  0  0  0  0  0  0  0  0  0  0  0
   47.9991  -16.0080  -15.6482 H   0  0  0  0  0  0  0  0  0  0  0  0
   47.3146  -15.4801  -10.8731 H   0  0  0  0  0  0  0  0  0  0  0  0
   46.1768  -19.5936  -11.6393 H   0  0  0  0  0  0  0  0  0  0  0  0
   45.7069  -19.8856   -9.2458 H   0  0  0  0  0  0  0  0  0  0  0  0
   45.9910  -18.0016   -7.6703 H   0  0  0  0  0  0  0  0  0  0  0  0
   45.9082  -15.3139   -7.6484 H   0  0  0  0  0  0  0  0  0  0  0  0
   47.0356  -14.5343   -8.7516 H   0  0  0  0  0  0  0  0  0  0  0  0
   48.7865  -15.8882   -7.8366 H   0  0  0  0  0  0  0  0  0  0  0  0
   48.0926  -14.9292   -6.7118 H   0  0  0  0  0  0  0  0  0  0  0  0
  1  2  2  0
  2  3  1  0
  3  4  2  0
  4  5  1  0
  5  6  2  0
  1  6  1  0
  7  8  2  0
  8  9  1  0
  9  3  1  0
 10 11  2  0
 11 12  1  0
 12 13  2  0
  7 13  1  0
  8 10  1  0
 15 16  2  0
 16 17  1  0
 14 12  1  0
 17 11  1  0
  1 18  1  0
 18 19  3  0
  9 20  1  0
 20 21  1  0
 21 22  1  0
 22 23  1  0
 22 24  1  0
 23 24  1  0
 16 25  1  0
 26 27  1  0
 27 28  2  0
 28 29  1  0
 29 25  1  0
 26 25  2  0
 27 30  1  0
 30 31  1  0
 30 32  1  0
 30 33  1  0
 29 34  1  0
 36 37  1  0
 37 38  2  0
 38 39  1  0
 35 39  2  0
 35 34  1  0
 34 36  2  0
 39 40  1  0
 40 41  1  0
  2 42  1  0
  4 43  1  0
  5 44  1  0
  6 45  1  0
  7 46  1  0
  9 47  1  1
 10 48  1  0
 13 49  1  0
 17 50  1  0
 20 51  1  0
 21 52  1  0
 21 53  1  0
 22 54  1  0
 23 55  1  0
 23 56  1  0
 24 57  1  0
 24 58  1  0
 26 59  1  0
 35 60  1  0
 36 61  1  0
 37 62  1  0
 38 63  1  0
 40 64  1  0
 40 65  1  0
 41 66  1  0
 41 67  1  0
M  END
> <Uni-Dock RESULT> 
ENERGY=   -3.479  LOWER_BOUND=    4.287  UPPER_BOUND=   10.426
INTER + INTRA:          -3.479
INTER:                  -3.479
INTRA:                   0.000
UNBOUND:                 0.000

$$$$

     RDKit          3D

 67 71  0  0  0  0  0  0  0  0999 V2000
   47.5457   -7.3703  -12.8304 C   0  0  0  0  0  0  0  0  0  0  0  0
   47.0506   -8.2854  -13.7661 C   0  0  0  0  0  0  0  0  0  0  0  0
   46.0414   -9.2002  -13.4144 C   0  0  0  0  0  0  0  0  0  0  0  0
   45.5485   -9.1821  -12.0986 C   0  0  0  0  0  0  0  0  0  0  0  0
   46.0404   -8.2698  -11.1637 C   0  0  0  0  0  0  0  0  0  0  0  0
   47.0377   -7.3650  -11.5283 C   0  0  0  0  0  0  0  0  0  0  0  0
   47.5522  -11.4686  -15.3798 C   0  0  0  0  0  0  0  0  0  0  0  0
   46.4704  -11.4312  -14.4811 C   0  0  0  0  0  0  0  0  0  0  0  0
   45.5154  -10.2317  -14.4098 C   0  0  2  0  0  0  0  0  0  0  0  0
   46.2971  -12.5034  -13.5793 C   0  0  0  0  0  0  0  0  0  0  0  0
   47.1759  -13.5876  -13.5740 C   0  0  0  0  0  0  0  0  0  0  0  0
   48.2305  -13.5966  -14.4940 C   0  0  0  0  0  0  0  0  0  0  0  0
   48.4263  -12.5538  -15.3912 C   0  0  0  0  0  0  0  0  0  0  0  0
   49.0834  -14.6335  -14.5061 F   0  0  0  0  0  0  0  0  0  0  0  0
   45.2975  -14.1025  -11.3458 O   0  0  0  0  0  0  0  0  0  0  0  0
   46.1819  -14.8858  -11.6696 C   0  0  0  0  0  0  0  0  0  0  0  0
   47.0879  -14.6878  -12.6925 N   0  0  0  0  0  0  0  0  0  0  0  0
   48.5750   -6.4450  -13.2048 C   0  0  0  0  0  0  0  0  0  0  0  0
   49.4092   -5.6952  -13.5054 N   0  0  0  0  0  0  0  0  0  0  0  0
   45.2658   -9.6768  -15.7524 N   0  0  0  0  0  0  0  0  0  0  0  0
   44.1938   -8.6860  -15.8113 C   0  0  0  0  0  0  0  0  0  0  0  0
   42.8433   -9.3097  -15.6307 C   0  0  0  0  0  0  0  0  0  0  0  0
   41.6402   -8.4224  -15.4265 C   0  0  0  0  0  0  0  0  0  0  0  0
   42.1388   -9.2770  -14.2966 C   0  0  0  0  0  0  0  0  0  0  0  0
   46.4044  -16.1054  -10.9347 C   0  0  0  0  0  0  0  0  0  0  0  0
   46.5382  -16.2172   -9.5623 C   0  0  0  0  0  0  0  0  0  0  0  0
   46.9251  -17.5530   -9.3158 C   0  0  0  0  0  0  0  0  0  0  0  0
   46.9985  -18.2377  -10.4703 N   0  0  0  0  0  0  0  0  0  0  0  0
   46.5259  -17.3939  -11.4294 N   0  0  0  0  0  0  0  0  0  0  0  0
   47.2615  -18.1651   -7.9806 C   0  0  0  0  0  0  0  0  0  0  0  0
   46.4026  -19.1604   -7.6369 F   0  0  0  0  0  0  0  0  0  0  0  0
   47.2049  -17.2446   -6.9784 F   0  0  0  0  0  0  0  0  0  0  0  0
   48.5153  -18.6885   -7.9491 F   0  0  0  0  0  0  0  0  0  0  0  0
   46.2308  -17.9116  -12.7275 C   0  0  0  0  0  0  0  0  0  0  0  0
   45.4144  -17.2199  -13.6354 C   0  0  0  0  0  0  0  0  0  0  0  0
   46.7380  -19.1699  -13.0869 C   0  0  0  0  0  0  0  0  0  0  0  0
   46.4671  -19.7090  -14.3445 C   0  0  0  0  0  0  0  0  0  0  0  0
   45.6776  -19.0037  -15.2496 C   0  0  0  0  0  0  0  0  0  0  0  0
   45.1418  -17.7556  -14.9062 C   0  0  0  0  0  0  0  0  0  0  0  0
   44.2599  -17.0163  -15.8828 C   0  0  0  0  0  0  0  0  0  0  0  0
   43.0019  -17.7207  -16.0974 N   0  0  0  0  0  0  0  0  0  0  0  0
   47.4480   -8.2903  -14.7803 H   0  0  0  0  0  0  0  0  0  0  0  0
   44.7794   -9.8885  -11.7895 H   0  0  0  0  0  0  0  0  0  0  0  0
   45.6522   -8.2714  -10.1478 H   0  0  0  0  0  0  0  0  0  0  0  0
   47.4184   -6.6612  -10.7909 H   0  0  0  0  0  0  0  0  0  0  0  0
   47.7211  -10.6439  -16.0702 H   0  0  0  0  0  0  0  0  0  0  0  0
   44.5607  -10.6250  -14.0386 H   0  0  0  0  0  0  0  0  0  0  0  0
   45.4693  -12.4542  -12.8780 H   0  0  0  0  0  0  0  0  0  0  0  0
   49.2615  -12.5873  -16.0833 H   0  0  0  0  0  0  0  0  0  0  0  0
   47.8228  -15.3789  -12.8145 H   0  0  0  0  0  0  0  0  0  0  0  0
   45.0309  -10.4454  -16.3779 H   0  0  0  0  0  0  0  0  0  0  0  0
   44.2227   -8.2320  -16.8090 H   0  0  0  0  0  0  0  0  0  0  0  0
   44.3614   -7.8638  -15.1062 H   0  0  0  0  0  0  0  0  0  0  0  0
   42.6924  -10.1704  -16.2746 H   0  0  0  0  0  0  0  0  0  0  0  0
   40.7112   -8.7072  -15.9088 H   0  0  0  0  0  0  0  0  0  0  0  0
   41.7893   -7.3503  -15.3550 H   0  0  0  0  0  0  0  0  0  0  0  0
   41.5478  -10.1409  -14.0134 H   0  0  0  0  0  0  0  0  0  0  0  0
   42.6160   -8.7740  -13.4628 H   0  0  0  0  0  0  0  0  0  0  0  0
   46.4400  -15.4144   -8.8414 H   0  0  0  0  0  0  0  0  0  0  0  0
   44.9344  -16.2824  -13.3722 H   0  0  0  0  0  0  0  0  0  0  0  0
   47.3567  -19.7448  -12.3990 H   0  0  0  0  0  0  0  0  0  0  0  0
   46.8636  -20.6842  -14.6147 H   0  0  0  0  0  0  0  0  0  0  0  0
   45.4583  -19.4391  -16.2233 H   0  0  0  0  0  0  0  0  0  0  0  0
   44.7914  -16.9070  -16.8354 H   0  0  0  0  0  0  0  0  0  0  0  0
   44.0504  -16.0031  -15.5201 H   0  0  0  0  0  0  0  0  0  0  0  0
   42.5185  -17.8171  -15.2056 H   0  0  0  0  0  0  0  0  0  0  0  0
   42.4009  -17.1577  -16.6949 H   0  0  0  0  0  0  0  0  0  0  0  0
  1  2  2  0
  2  3  1  0
  3  4  2  0
  4  5  1  0
  5  6  2  0
  1  6  1  0
  7  8  2  0
  8  9  1  0
  9  3  1  0
 10 11  2  0
 11 12  1  0
 12 13  2  0
  7 13  1  0
  8 10  1  0
 15 16  2  0
 16 17  1  0
 14 12  1  0
 17 11  1  0
  1 18  1  0
 18 19  3  0
  9 20  1  0
 20 21  1  0
 21 22  1  0
 22 23  1  0
 22 24  1  0
 23 24  1  0
 16 25  1  0
 26 27  1  0
 27 28  2  0
 28 29  1  0
 29 25  1  0
 26 25  2  0
 27 30  1  0
 30 31  1  0
 30 32  1  0
 30 33  1  0
 29 34  1  0
 36 37  1  0
 37 38  2  0
 38 39  1  0
 35 39  2  0
 35 34  1  0
 34 36  2  0
 39 40  1  0
 40 41  1  0
  2 42  1  0
  4 43  1  0
  5 44  1  0
  6 45  1  0
  7 46  1  0
  9 47  1  1
 10 48  1  0
 13 49  1  0
 17 50  1  0
 20 51  1  0
 21 52  1  0
 21 53  1  0
 22 54  1  0
 23 55  1  0
 23 56  1  0
 24 57  1  0
 24 58  1  0
 26 59  1  0
 35 60  1  0
 36 61  1  0
 37 62  1  0
 38 63  1  0
 40 64  1  0
 40 65  1  0
 41 66  1  0
 41 67  1  0
M  END
> <Uni-Dock RESULT> 
ENERGY=   -3.431  LOWER_BOUND=    4.834  UPPER_BOUND=    9.684
INTER + INTRA:          -3.431
INTER:                  -3.431
INTRA:                   0.000
UNBOUND:                 0.000

$$$$

     RDKit          3D

 67 71  0  0  0  0  0  0  0  0999 V2000
   45.2842  -18.2570  -13.6635 C   0  0  0  0  0  0  0  0  0  0  0  0
   46.2148  -17.2977  -13.2490 C   0  0  0  0  0  0  0  0  0  0  0  0
   45.8307  -16.2382  -12.4069 C   0  0  0  0  0  0  0  0  0  0  0  0
   44.4882  -16.1583  -11.9994 C   0  0  0  0  0  0  0  0  0  0  0  0
   43.5583  -17.1144  -12.4111 C   0  0  0  0  0  0  0  0  0  0  0  0
   43.9550  -18.1623  -13.2420 C   0  0  0  0  0  0  0  0  0  0  0  0
   47.9450  -14.2543  -14.1054 C   0  0  0  0  0  0  0  0  0  0  0  0
   46.9837  -14.1154  -13.0876 C   0  0  0  0  0  0  0  0  0  0  0  0
   46.8224  -15.1605  -11.9751 C   0  0  2  0  0  0  0  0  0  0  0  0
   46.1040  -13.0120  -13.1280 C   0  0  0  0  0  0  0  0  0  0  0  0
   46.1811  -12.0682  -14.1533 C   0  0  0  0  0  0  0  0  0  0  0  0
   47.1613  -12.2317  -15.1388 C   0  0  0  0  0  0  0  0  0  0  0  0
   48.0385  -13.3093  -15.1251 C   0  0  0  0  0  0  0  0  0  0  0  0
   47.2529  -11.3313  -16.1305 F   0  0  0  0  0  0  0  0  0  0  0  0
   43.8620  -11.2404  -12.5116 O   0  0  0  0  0  0  0  0  0  0  0  0
   44.2593  -10.6015  -13.4784 C   0  0  0  0  0  0  0  0  0  0  0  0
   45.3276  -10.9499  -14.2807 N   0  0  0  0  0  0  0  0  0  0  0  0
   45.6920  -19.3302  -14.5225 C   0  0  0  0  0  0  0  0  0  0  0  0
   46.0196  -20.1997  -15.2188 N   0  0  0  0  0  0  0  0  0  0  0  0
   48.1317  -15.6990  -11.5647 N   0  0  0  0  0  0  0  0  0  0  0  0
   48.0994  -16.5231  -10.3588 C   0  0  0  0  0  0  0  0  0  0  0  0
   47.8577  -15.7050   -9.1269 C   0  0  0  0  0  0  0  0  0  0  0  0
   47.5581  -16.4024   -7.8229 C   0  0  0  0  0  0  0  0  0  0  0  0
   46.4842  -15.6081   -8.5094 C   0  0  0  0  0  0  0  0  0  0  0  0
   43.5737   -9.4136  -13.9206 C   0  0  0  0  0  0  0  0  0  0  0  0
   42.2152   -9.2957  -14.1543 C   0  0  0  0  0  0  0  0  0  0  0  0
   42.0299   -8.0264  -14.7453 C   0  0  0  0  0  0  0  0  0  0  0  0
   43.2056   -7.3825  -14.8452 N   0  0  0  0  0  0  0  0  0  0  0  0
   44.1110   -8.1666  -14.1966 N   0  0  0  0  0  0  0  0  0  0  0  0
   40.7346   -7.4442  -15.2493 C   0  0  0  0  0  0  0  0  0  0  0  0
   40.3695   -6.3274  -14.5668 F   0  0  0  0  0  0  0  0  0  0  0  0
   39.7051   -8.3267  -15.1223 F   0  0  0  0  0  0  0  0  0  0  0  0
   40.7916   -7.1096  -16.5652 F   0  0  0  0  0  0  0  0  0  0  0  0
   45.4037   -7.6367  -13.8995 C   0  0  0  0  0  0  0  0  0  0  0  0
   46.2421   -8.2191  -12.9366 C   0  0  0  0  0  0  0  0  0  0  0  0
   45.8278   -6.4735  -14.5604 C   0  0  0  0  0  0  0  0  0  0  0  0
   47.0822   -5.9252  -14.2928 C   0  0  0  0  0  0  0  0  0  0  0  0
   47.9190   -6.5249  -13.3546 C   0  0  0  0  0  0  0  0  0  0  0  0
   47.5094   -7.6742  -12.6660 C   0  0  0  0  0  0  0  0  0  0  0  0
   48.4112   -8.2953  -11.6272 C   0  0  0  0  0  0  0  0  0  0  0  0
   48.5715   -7.4186  -10.4737 N   0  0  0  0  0  0  0  0  0  0  0  0
   47.2504  -17.3708  -13.5791 H   0  0  0  0  0  0  0  0  0  0  0  0
   44.1547  -15.3410  -11.3616 H   0  0  0  0  0  0  0  0  0  0  0  0
   42.5218  -17.0361  -12.0912 H   0  0  0  0  0  0  0  0  0  0  0  0
   43.2215  -18.8998  -13.5618 H   0  0  0  0  0  0  0  0  0  0  0  0
   48.6204  -15.1082  -14.1096 H   0  0  0  0  0  0  0  0  0  0  0  0
   46.4071  -14.6245  -11.1125 H   0  0  0  0  0  0  0  0  0  0  0  0
   45.3542  -12.9257  -12.3470 H   0  0  0  0  0  0  0  0  0  0  0  0
   48.7791  -13.4119  -15.9117 H   0  0  0  0  0  0  0  0  0  0  0  0
   45.5120  -10.3765  -15.0990 H   0  0  0  0  0  0  0  0  0  0  0  0
   48.7639  -14.9166  -11.4053 H   0  0  0  0  0  0  0  0  0  0  0  0
   49.0838  -16.9958  -10.2595 H   0  0  0  0  0  0  0  0  0  0  0  0
   47.3823  -17.3471  -10.4491 H   0  0  0  0  0  0  0  0  0  0  0  0
   48.5158  -14.8443   -9.0626 H   0  0  0  0  0  0  0  0  0  0  0  0
   47.9930  -15.9942   -6.9169 H   0  0  0  0  0  0  0  0  0  0  0  0
   47.4650  -17.4832   -7.8192 H   0  0  0  0  0  0  0  0  0  0  0  0
   46.1914  -14.6617   -8.0686 H   0  0  0  0  0  0  0  0  0  0  0  0
   45.6658  -16.1592   -8.9597 H   0  0  0  0  0  0  0  0  0  0  0  0
   41.4672  -10.0612  -13.9858 H   0  0  0  0  0  0  0  0  0  0  0  0
   45.9247   -9.0709  -12.3431 H   0  0  0  0  0  0  0  0  0  0  0  0
   45.1941   -5.9821  -15.2974 H   0  0  0  0  0  0  0  0  0  0  0  0
   47.4027   -5.0240  -14.8088 H   0  0  0  0  0  0  0  0  0  0  0  0
   48.8901   -6.0812  -13.1407 H   0  0  0  0  0  0  0  0  0  0  0  0
   49.3899   -8.4998  -12.0770 H   0  0  0  0  0  0  0  0  0  0  0  0
   48.0083   -9.2596  -11.2960 H   0  0  0  0  0  0  0  0  0  0  0  0
   47.6560   -7.2351  -10.0658 H   0  0  0  0  0  0  0  0  0  0  0  0
   49.1165   -7.8991   -9.7614 H   0  0  0  0  0  0  0  0  0  0  0  0
  1  2  2  0
  2  3  1  0
  3  4  2  0
  4  5  1  0
  5  6  2  0
  1  6  1  0
  7  8  2  0
  8  9  1  0
  9  3  1  0
 10 11  2  0
 11 12  1  0
 12 13  2  0
  7 13  1  0
  8 10  1  0
 15 16  2  0
 16 17  1  0
 14 12  1  0
 17 11  1  0
  1 18  1  0
 18 19  3  0
  9 20  1  0
 20 21  1  0
 21 22  1  0
 22 23  1  0
 22 24  1  0
 23 24  1  0
 16 25  1  0
 26 27  1  0
 27 28  2  0
 28 29  1  0
 29 25  1  0
 26 25  2  0
 27 30  1  0
 30 31  1  0
 30 32  1  0
 30 33  1  0
 29 34  1  0
 36 37  1  0
 37 38  2  0
 38 39  1  0
 35 39  2  0
 35 34  1  0
 34 36  2  0
 39 40  1  0
 40 41  1  0
  2 42  1  0
  4 43  1  0
  5 44  1  0
  6 45  1  0
  7 46  1  0
  9 47  1  1
 10 48  1  0
 13 49  1  0
 17 50  1  0
 20 51  1  0
 21 52  1  0
 21 53  1  0
 22 54  1  0
 23 55  1  0
 23 56  1  0
 24 57  1  0
 24 58  1  0
 26 59  1  0
 35 60  1  0
 36 61  1  0
 37 62  1  0
 38 63  1  0
 40 64  1  0
 40 65  1  0
 41 66  1  0
 41 67  1  0
M  END
> <Uni-Dock RESULT> 
ENERGY=   -3.140  LOWER_BOUND=    3.835  UPPER_BOUND=    5.759
INTER + INTRA:          -3.140
INTER:                  -3.140
INTRA:                   0.000
UNBOUND:                 0.000

$$$$

     RDKit          3D

 67 71  0  0  0  0  0  0  0  0999 V2000
   43.7974   -8.7880  -15.4295 C   0  0  0  0  0  0  0  0  0  0  0  0
   43.7584   -9.2937  -14.1253 C   0  0  0  0  0  0  0  0  0  0  0  0
   44.9221   -9.7903  -13.5103 C   0  0  0  0  0  0  0  0  0  0  0  0
   46.1236   -9.7774  -14.2390 C   0  0  0  0  0  0  0  0  0  0  0  0
   46.1650   -9.2729  -15.5398 C   0  0  0  0  0  0  0  0  0  0  0  0
   45.0040   -8.7790  -16.1349 C   0  0  0  0  0  0  0  0  0  0  0  0
   43.0244  -12.1501  -12.0537 C   0  0  0  0  0  0  0  0  0  0  0  0
   44.3914  -11.8315  -12.1497 C   0  0  0  0  0  0  0  0  0  0  0  0
   44.8922  -10.3814  -12.1028 C   0  0  2  0  0  0  0  0  0  0  0  0
   45.3206  -12.8742  -12.3551 C   0  0  0  0  0  0  0  0  0  0  0  0
   44.9009  -14.2012  -12.4588 C   0  0  0  0  0  0  0  0  0  0  0  0
   43.5344  -14.4803  -12.3419 C   0  0  0  0  0  0  0  0  0  0  0  0
   42.5977  -13.4736  -12.1419 C   0  0  0  0  0  0  0  0  0  0  0  0
   43.1129  -15.7516  -12.4349 F   0  0  0  0  0  0  0  0  0  0  0  0
   47.8227  -14.2746  -12.9241 O   0  0  0  0  0  0  0  0  0  0  0  0
   47.1255  -15.2812  -12.8891 C   0  0  0  0  0  0  0  0  0  0  0  0
   45.7599  -15.2993  -12.6859 N   0  0  0  0  0  0  0  0  0  0  0  0
   42.6021   -8.2862  -16.0420 C   0  0  0  0  0  0  0  0  0  0  0  0
   41.6352   -7.8801  -16.5406 N   0  0  0  0  0  0  0  0  0  0  0  0
   44.1031   -9.5824  -11.1479 N   0  0  0  0  0  0  0  0  0  0  0  0
   44.6513   -8.2582  -10.8641 C   0  0  0  0  0  0  0  0  0  0  0  0
   45.8973   -8.3331  -10.0351 C   0  0  0  0  0  0  0  0  0  0  0  0
   46.7322   -7.0914   -9.8410 C   0  0  0  0  0  0  0  0  0  0  0  0
   47.2640   -8.2281  -10.6661 C   0  0  0  0  0  0  0  0  0  0  0  0
   47.6860  -16.5860  -13.1342 C   0  0  0  0  0  0  0  0  0  0  0  0
   48.4869  -16.9411  -14.2049 C   0  0  0  0  0  0  0  0  0  0  0  0
   48.6382  -18.3434  -14.1305 C   0  0  0  0  0  0  0  0  0  0  0  0
   47.9902  -18.8259  -13.0561 N   0  0  0  0  0  0  0  0  0  0  0  0
   47.5505  -17.7341  -12.3705 N   0  0  0  0  0  0  0  0  0  0  0  0
   49.3703  -19.2268  -15.1073 C   0  0  0  0  0  0  0  0  0  0  0  0
   50.4345  -19.8535  -14.5406 F   0  0  0  0  0  0  0  0  0  0  0  0
   49.8591  -18.5136  -16.1596 F   0  0  0  0  0  0  0  0  0  0  0  0
   48.5721  -20.1910  -15.6364 F   0  0  0  0  0  0  0  0  0  0  0  0
   47.0486  -17.9015  -11.0437 C   0  0  0  0  0  0  0  0  0  0  0  0
   46.9280  -16.8235  -10.1535 C   0  0  0  0  0  0  0  0  0  0  0  0
   46.7076  -19.1905  -10.6055 C   0  0  0  0  0  0  0  0  0  0  0  0
   46.2181  -19.3925   -9.3151 C   0  0  0  0  0  0  0  0  0  0  0  0
   46.0765  -18.3129   -8.4465 C   0  0  0  0  0  0  0  0  0  0  0  0
   46.4306  -17.0199   -8.8533 C   0  0  0  0  0  0  0  0  0  0  0  0
   46.3047  -15.8632   -7.8919 C   0  0  0  0  0  0  0  0  0  0  0  0
   47.2468  -15.9892   -6.7867 N   0  0  0  0  0  0  0  0  0  0  0  0
   42.8175   -9.3021  -13.5765 H   0  0  0  0  0  0  0  0  0  0  0  0
   47.0385  -10.1704  -13.7981 H   0  0  0  0  0  0  0  0  0  0  0  0
   47.1015   -9.2742  -16.0926 H   0  0  0  0  0  0  0  0  0  0  0  0
   45.0454   -8.3926  -17.1513 H   0  0  0  0  0  0  0  0  0  0  0  0
   42.2854  -11.3622  -11.9179 H   0  0  0  0  0  0  0  0  0  0  0  0
   45.9186  -10.4267  -11.7175 H   0  0  0  0  0  0  0  0  0  0  0  0
   46.3711  -12.6137  -12.4461 H   0  0  0  0  0  0  0  0  0  0  0  0
   41.5444  -13.7240  -12.0675 H   0  0  0  0  0  0  0  0  0  0  0  0
   45.2829  -16.1940  -12.7536 H   0  0  0  0  0  0  0  0  0  0  0  0
   44.0389  -10.1004  -10.2734 H   0  0  0  0  0  0  0  0  0  0  0  0
   43.8974   -7.7091  -10.2874 H   0  0  0  0  0  0  0  0  0  0  0  0
   44.8049   -7.6773  -11.7807 H   0  0  0  0  0  0  0  0  0  0  0  0
   45.7783   -8.9646   -9.1603 H   0  0  0  0  0  0  0  0  0  0  0  0
   47.1717   -6.9224   -8.8638 H   0  0  0  0  0  0  0  0  0  0  0  0
   46.4425   -6.1825  -10.3575 H   0  0  0  0  0  0  0  0  0  0  0  0
   48.0637   -8.8292  -10.2479 H   0  0  0  0  0  0  0  0  0  0  0  0
   47.3377   -8.0761  -11.7373 H   0  0  0  0  0  0  0  0  0  0  0  0
   48.8516  -16.2778  -14.9801 H   0  0  0  0  0  0  0  0  0  0  0  0
   47.2547  -15.8232  -10.4202 H   0  0  0  0  0  0  0  0  0  0  0  0
   46.8095  -20.0535  -11.2621 H   0  0  0  0  0  0  0  0  0  0  0  0
   45.9567  -20.3940   -8.9836 H   0  0  0  0  0  0  0  0  0  0  0  0
   45.7084  -18.4822   -7.4358 H   0  0  0  0  0  0  0  0  0  0  0  0
   45.2799  -15.8283   -7.5040 H   0  0  0  0  0  0  0  0  0  0  0  0
   46.4788  -14.9127   -8.4098 H   0  0  0  0  0  0  0  0  0  0  0  0
   48.1944  -16.0219   -7.1598 H   0  0  0  0  0  0  0  0  0  0  0  0
   47.1920  -15.1570   -6.2039 H   0  0  0  0  0  0  0  0  0  0  0  0
  1  2  2  0
  2  3  1  0
  3  4  2  0
  4  5  1  0
  5  6  2  0
  1  6  1  0
  7  8  2  0
  8  9  1  0
  9  3  1  0
 10 11  2  0
 11 12  1  0
 12 13  2  0
  7 13  1  0
  8 10  1  0
 15 16  2  0
 16 17  1  0
 14 12  1  0
 17 11  1  0
  1 18  1  0
 18 19  3  0
  9 20  1  0
 20 21  1  0
 21 22  1  0
 22 23  1  0
 22 24  1  0
 23 24  1  0
 16 25  1  0
 26 27  1  0
 27 28  2  0
 28 29  1  0
 29 25  1  0
 26 25  2  0
 27 30  1  0
 30 31  1  0
 30 32  1  0
 30 33  1  0
 29 34  1  0
 36 37  1  0
 37 38  2  0
 38 39  1  0
 35 39  2  0
 35 34  1  0
 34 36  2  0
 39 40  1  0
 40 41  1  0
  2 42  1  0
  4 43  1  0
  5 44  1  0
  6 45  1  0
  7 46  1  0
  9 47  1  1
 10 48  1  0
 13 49  1  0
 17 50  1  0
 20 51  1  0
 21 52  1  0
 21 53  1  0
 22 54  1  0
 23 55  1  0
 23 56  1  0
 24 57  1  0
 24 58  1  0
 26 59  1  0
 35 60  1  0
 36 61  1  0
 37 62  1  0
 38 63  1  0
 40 64  1  0
 40 65  1  0
 41 66  1  0
 41 67  1  0
M  END
> <Uni-Dock RESULT> 
ENERGY=   -3.125  LOWER_BOUND=    4.385  UPPER_BOUND=   10.494
INTER + INTRA:          -3.125
INTER:                  -3.125
INTRA:                   0.000
UNBOUND:                 0.000

$$$$

     RDKit          3D

 67 71  0  0  0  0  0  0  0  0999 V2000
   47.2305   -7.8405  -12.9963 C   0  0  0  0  0  0  0  0  0  0  0  0
   46.8516   -8.7567  -13.9837 C   0  0  0  0  0  0  0  0  0  0  0  0
   46.1045   -9.9025  -13.6545 C   0  0  0  0  0  0  0  0  0  0  0  0
   45.7561  -10.1124  -12.3095 C   0  0  0  0  0  0  0  0  0  0  0  0
   46.1324   -9.1995  -11.3229 C   0  0  0  0  0  0  0  0  0  0  0  0
   46.8687   -8.0651  -11.6651 C   0  0  0  0  0  0  0  0  0  0  0  0
   47.8604  -11.5898  -15.9699 C   0  0  0  0  0  0  0  0  0  0  0  0
   46.8933  -11.8763  -14.9891 C   0  0  0  0  0  0  0  0  0  0  0  0
   45.7146  -10.9333  -14.7113 C   0  0  2  0  0  0  0  0  0  0  0  0
   47.0481  -13.0357  -14.1987 C   0  0  0  0  0  0  0  0  0  0  0  0
   48.1359  -13.8908  -14.3818 C   0  0  0  0  0  0  0  0  0  0  0  0
   49.0682  -13.5809  -15.3785 C   0  0  0  0  0  0  0  0  0  0  0  0
   48.9420  -12.4453  -16.1693 C   0  0  0  0  0  0  0  0  0  0  0  0
   50.1187  -14.3944  -15.5716 F   0  0  0  0  0  0  0  0  0  0  0  0
   46.6497  -15.0103  -12.0803 O   0  0  0  0  0  0  0  0  0  0  0  0
   47.6445  -15.5429  -12.5571 C   0  0  0  0  0  0  0  0  0  0  0  0
   48.3774  -15.0564  -13.6214 N   0  0  0  0  0  0  0  0  0  0  0  0
   47.9924   -6.6781  -13.3485 C   0  0  0  0  0  0  0  0  0  0  0  0
   48.6103   -5.7364  -13.6311 N   0  0  0  0  0  0  0  0  0  0  0  0
   45.2157  -10.3318  -15.9612 N   0  0  0  0  0  0  0  0  0  0  0  0
   43.9550   -9.6060  -15.8259 C   0  0  0  0  0  0  0  0  0  0  0  0
   42.7963  -10.5307  -15.6073 C   0  0  0  0  0  0  0  0  0  0  0  0
   41.4575   -9.9582  -15.2122 C   0  0  0  0  0  0  0  0  0  0  0  0
   42.2411  -10.7757  -14.2256 C   0  0  0  0  0  0  0  0  0  0  0  0
   48.1984  -16.7415  -11.9798 C   0  0  0  0  0  0  0  0  0  0  0  0
   48.4923  -16.9418  -10.6429 C   0  0  0  0  0  0  0  0  0  0  0  0
   49.1812  -18.1730  -10.5752 C   0  0  0  0  0  0  0  0  0  0  0  0
   49.2824  -18.7184  -11.7996 N   0  0  0  0  0  0  0  0  0  0  0  0
   48.5437  -17.9207  -12.6202 N   0  0  0  0  0  0  0  0  0  0  0  0
   49.7760  -18.8098   -9.3459 C   0  0  0  0  0  0  0  0  0  0  0  0
   49.1914  -19.9991   -9.0454 F   0  0  0  0  0  0  0  0  0  0  0  0
   49.6247  -18.0183   -8.2480 F   0  0  0  0  0  0  0  0  0  0  0  0
   51.1096  -19.0387   -9.4718 F   0  0  0  0  0  0  0  0  0  0  0  0
   48.2364  -18.3742  -13.9394 C   0  0  0  0  0  0  0  0  0  0  0  0
   47.2019  -17.8059  -14.6983 C   0  0  0  0  0  0  0  0  0  0  0  0
   48.9636  -19.4494  -14.4731 C   0  0  0  0  0  0  0  0  0  0  0  0
   48.6885  -19.9218  -15.7564 C   0  0  0  0  0  0  0  0  0  0  0  0
   47.6775  -19.3345  -16.5133 C   0  0  0  0  0  0  0  0  0  0  0  0
   46.9231  -18.2742  -15.9941 C   0  0  0  0  0  0  0  0  0  0  0  0
   45.8077  -17.6683  -16.8108 C   0  0  0  0  0  0  0  0  0  0  0  0
   44.7160  -18.6155  -16.9998 N   0  0  0  0  0  0  0  0  0  0  0  0
   47.1352   -8.5822  -15.0209 H   0  0  0  0  0  0  0  0  0  0  0  0
   45.1930  -10.9982  -12.0189 H   0  0  0  0  0  0  0  0  0  0  0  0
   45.8593   -9.3785  -10.2855 H   0  0  0  0  0  0  0  0  0  0  0  0
   47.1619   -7.3621  -10.8880 H   0  0  0  0  0  0  0  0  0  0  0  0
   47.7762  -10.6903  -16.5774 H   0  0  0  0  0  0  0  0  0  0  0  0
   44.9100  -11.5624  -14.3103 H   0  0  0  0  0  0  0  0  0  0  0  0
   46.3050  -13.2363  -13.4324 H   0  0  0  0  0  0  0  0  0  0  0  0
   49.6898  -12.2288  -16.9254 H   0  0  0  0  0  0  0  0  0  0  0  0
   49.2276  -15.5510  -13.8763 H   0  0  0  0  0  0  0  0  0  0  0  0
   45.0895  -11.0749  -16.6460 H   0  0  0  0  0  0  0  0  0  0  0  0
   43.7835   -9.0704  -16.7672 H   0  0  0  0  0  0  0  0  0  0  0  0
   44.0125   -8.8330  -15.0510 H   0  0  0  0  0  0  0  0  0  0  0  0
   42.7697  -11.3426  -16.3271 H   0  0  0  0  0  0  0  0  0  0  0  0
   40.5675  -10.4005  -15.6469 H   0  0  0  0  0  0  0  0  0  0  0  0
   41.3785   -8.8907  -15.0362 H   0  0  0  0  0  0  0  0  0  0  0  0
   41.8822  -11.7719  -13.9921 H   0  0  0  0  0  0  0  0  0  0  0  0
   42.6811  -10.2543  -13.3827 H   0  0  0  0  0  0  0  0  0  0  0  0
   48.2975  -16.2488   -9.8331 H   0  0  0  0  0  0  0  0  0  0  0  0
   46.5605  -17.0273  -14.2970 H   0  0  0  0  0  0  0  0  0  0  0  0
   49.7584  -19.9292  -13.9037 H   0  0  0  0  0  0  0  0  0  0  0  0
   49.2562  -20.7550  -16.1621 H   0  0  0  0  0  0  0  0  0  0  0  0
   47.4592  -19.7198  -17.5080 H   0  0  0  0  0  0  0  0  0  0  0  0
   46.2032  -17.3583  -17.7851 H   0  0  0  0  0  0  0  0  0  0  0  0
   45.4228  -16.7644  -16.3242 H   0  0  0  0  0  0  0  0  0  0  0  0
   44.3582  -18.8968  -16.0882 H   0  0  0  0  0  0  0  0  0  0  0  0
   43.9500  -18.1512  -17.4825 H   0  0  0  0  0  0  0  0  0  0  0  0
  1  2  2  0
  2  3  1  0
  3  4  2  0
  4  5  1  0
  5  6  2  0
  1  6  1  0
  7  8  2  0
  8  9  1  0
  9  3  1  0
 10 11  2  0
 11 12  1  0
 12 13  2  0
  7 13  1  0
  8 10  1  0
 15 16  2  0
 16 17  1  0
 14 12  1  0
 17 11  1  0
  1 18  1  0
 18 19  3  0
  9 20  1  0
 20 21  1  0
 21 22  1  0
 22 23  1  0
 22 24  1  0
 23 24  1  0
 16 25  1  0
 26 27  1  0
 27 28  2  0
 28 29  1  0
 29 25  1  0
 26 25  2  0
 27 30  1  0
 30 31  1  0
 30 32  1  0
 30 33  1  0
 29 34  1  0
 36 37  1  0
 37 38  2  0
 38 39  1  0
 35 39  2  0
 35 34  1  0
 34 36  2  0
 39 40  1  0
 40 41  1  0
  2 42  1  0
  4 43  1  0
  5 44  1  0
  6 45  1  0
  7 46  1  0
  9 47  1  1
 10 48  1  0
 13 49  1  0
 17 50  1  0
 20 51  1  0
 21 52  1  0
 21 53  1  0
 22 54  1  0
 23 55  1  0
 23 56  1  0
 24 57  1  0
 24 58  1  0
 26 59  1  0
 35 60  1  0
 36 61  1  0
 37 62  1  0
 38 63  1  0
 40 64  1  0
 40 65  1  0
 41 66  1  0
 41 67  1  0
M  END
> <Uni-Dock RESULT> 
ENERGY=   -3.024  LOWER_BOUND=    5.513  UPPER_BOUND=   10.478
INTER + INTRA:          -3.024
INTER:                  -3.024
INTRA:                   0.000
UNBOUND:                 0.000

$$$$

     RDKit          3D

 67 71  0  0  0  0  0  0  0  0999 V2000
   45.0450  -18.0707  -10.5651 C   0  0  0  0  0  0  0  0  0  0  0  0
   44.5712  -17.3831  -11.6879 C   0  0  0  0  0  0  0  0  0  0  0  0
   45.2237  -16.2266  -12.1527 C   0  0  0  0  0  0  0  0  0  0  0  0
   46.3566  -15.7706  -11.4575 C   0  0  0  0  0  0  0  0  0  0  0  0
   46.8314  -16.4552  -10.3376 C   0  0  0  0  0  0  0  0  0  0  0  0
   46.1770  -17.6035   -9.8914 C   0  0  0  0  0  0  0  0  0  0  0  0
   42.2096  -14.9573  -12.9239 C   0  0  0  0  0  0  0  0  0  0  0  0
   43.5478  -14.5234  -12.9205 C   0  0  0  0  0  0  0  0  0  0  0  0
   44.6999  -15.4409  -13.3525 C   0  0  2  0  0  0  0  0  0  0  0  0
   43.8415  -13.2257  -12.4485 C   0  0  0  0  0  0  0  0  0  0  0  0
   42.8288  -12.3794  -11.9945 C   0  0  0  0  0  0  0  0  0  0  0  0
   41.5079  -12.8408  -12.0287 C   0  0  0  0  0  0  0  0  0  0  0  0
   41.1904  -14.1140  -12.4858 C   0  0  0  0  0  0  0  0  0  0  0  0
   40.5202  -12.0388  -11.5999 F   0  0  0  0  0  0  0  0  0  0  0  0
   45.3452  -10.8909  -11.5360 O   0  0  0  0  0  0  0  0  0  0  0  0
   44.2384  -10.4222  -11.3001 C   0  0  0  0  0  0  0  0  0  0  0  0
   43.0378  -11.0780  -11.4867 N   0  0  0  0  0  0  0  0  0  0  0  0
   44.3678  -19.2474  -10.1039 C   0  0  0  0  0  0  0  0  0  0  0  0
   43.8206  -20.2000   -9.7280 N   0  0  0  0  0  0  0  0  0  0  0  0
   44.2959  -16.2966  -14.4828 N   0  0  0  0  0  0  0  0  0  0  0  0
   45.3910  -17.0328  -15.1100 C   0  0  0  0  0  0  0  0  0  0  0  0
   46.2962  -16.1316  -15.8934 C   0  0  0  0  0  0  0  0  0  0  0  0
   47.6065  -16.6696  -16.4130 C   0  0  0  0  0  0  0  0  0  0  0  0
   47.6024  -15.6424  -15.3173 C   0  0  0  0  0  0  0  0  0  0  0  0
   44.0914   -9.1116  -10.7190 C   0  0  0  0  0  0  0  0  0  0  0  0
   44.7460   -8.6402   -9.5951 C   0  0  0  0  0  0  0  0  0  0  0  0
   44.1561   -7.3926   -9.2947 C   0  0  0  0  0  0  0  0  0  0  0  0
   43.2082   -7.0951  -10.2002 N   0  0  0  0  0  0  0  0  0  0  0  0
   43.2878   -8.0683  -11.1498 N   0  0  0  0  0  0  0  0  0  0  0  0
   44.4720   -6.5024   -8.1207 C   0  0  0  0  0  0  0  0  0  0  0  0
   44.9810   -5.3022   -8.5041 F   0  0  0  0  0  0  0  0  0  0  0  0
   45.3978   -7.0678   -7.2973 F   0  0  0  0  0  0  0  0  0  0  0  0
   43.3806   -6.2481   -7.3519 F   0  0  0  0  0  0  0  0  0  0  0  0
   42.5875   -7.8963  -12.3828 C   0  0  0  0  0  0  0  0  0  0  0  0
   42.9028   -8.6450  -13.5270 C   0  0  0  0  0  0  0  0  0  0  0  0
   41.5840   -6.9183  -12.4617 C   0  0  0  0  0  0  0  0  0  0  0  0
   40.8819   -6.7194  -13.6505 C   0  0  0  0  0  0  0  0  0  0  0  0
   41.1833   -7.4853  -14.7742 C   0  0  0  0  0  0  0  0  0  0  0  0
   42.1955   -8.4527  -14.7267 C   0  0  0  0  0  0  0  0  0  0  0  0
   42.5359   -9.2528  -15.9604 C   0  0  0  0  0  0  0  0  0  0  0  0
   43.1173   -8.4070  -16.9955 N   0  0  0  0  0  0  0  0  0  0  0  0
   43.6879  -17.7465  -12.2117 H   0  0  0  0  0  0  0  0  0  0  0  0
   46.8745  -14.8689  -11.7812 H   0  0  0  0  0  0  0  0  0  0  0  0
   47.7066  -16.0869   -9.8074 H   0  0  0  0  0  0  0  0  0  0  0  0
   46.5517  -18.1272   -9.0143 H   0  0  0  0  0  0  0  0  0  0  0  0
   41.9590  -15.9615  -13.2617 H   0  0  0  0  0  0  0  0  0  0  0  0
   45.4961  -14.7788  -13.7152 H   0  0  0  0  0  0  0  0  0  0  0  0
   44.8803  -12.9090  -12.4334 H   0  0  0  0  0  0  0  0  0  0  0  0
   40.1566  -14.4442  -12.4876 H   0  0  0  0  0  0  0  0  0  0  0  0
   42.1895  -10.6087  -11.1822 H   0  0  0  0  0  0  0  0  0  0  0  0
   43.8554  -15.7086  -15.1880 H   0  0  0  0  0  0  0  0  0  0  0  0
   44.9446  -17.7497  -15.8093 H   0  0  0  0  0  0  0  0  0  0  0  0
   45.9454  -17.6351  -14.3811 H   0  0  0  0  0  0  0  0  0  0  0  0
   45.7518  -15.4790  -16.5686 H   0  0  0  0  0  0  0  0  0  0  0  0
   47.9273  -16.3585  -17.4014 H   0  0  0  0  0  0  0  0  0  0  0  0
   47.8923  -17.6840  -16.1556 H   0  0  0  0  0  0  0  0  0  0  0  0
   47.9203  -14.6354  -15.5634 H   0  0  0  0  0  0  0  0  0  0  0  0
   47.8941  -15.9692  -14.3252 H   0  0  0  0  0  0  0  0  0  0  0  0
   45.5015   -9.1676   -9.0251 H   0  0  0  0  0  0  0  0  0  0  0  0
   43.7240   -9.3550  -13.5367 H   0  0  0  0  0  0  0  0  0  0  0  0
   41.3282   -6.3035  -11.5998 H   0  0  0  0  0  0  0  0  0  0  0  0
   40.1065   -5.9597  -13.7032 H   0  0  0  0  0  0  0  0  0  0  0  0
   40.6409   -7.3125  -15.7024 H   0  0  0  0  0  0  0  0  0  0  0  0
   41.6259   -9.7320  -16.3403 H   0  0  0  0  0  0  0  0  0  0  0  0
   43.2376  -10.0583  -15.7142 H   0  0  0  0  0  0  0  0  0  0  0  0
   43.9605   -7.9668  -16.6302 H   0  0  0  0  0  0  0  0  0  0  0  0
   43.4081   -8.9883  -17.7783 H   0  0  0  0  0  0  0  0  0  0  0  0
  1  2  2  0
  2  3  1  0
  3  4  2  0
  4  5  1  0
  5  6  2  0
  1  6  1  0
  7  8  2  0
  8  9  1  0
  9  3  1  0
 10 11  2  0
 11 12  1  0
 12 13  2  0
  7 13  1  0
  8 10  1  0
 15 16  2  0
 16 17  1  0
 14 12  1  0
 17 11  1  0
  1 18  1  0
 18 19  3  0
  9 20  1  0
 20 21  1  0
 21 22  1  0
 22 23  1  0
 22 24  1  0
 23 24  1  0
 16 25  1  0
 26 27  1  0
 27 28  2  0
 28 29  1  0
 29 25  1  0
 26 25  2  0
 27 30  1  0
 30 31  1  0
 30 32  1  0
 30 33  1  0
 29 34  1  0
 36 37  1  0
 37 38  2  0
 38 39  1  0
 35 39  2  0
 35 34  1  0
 34 36  2  0
 39 40  1  0
 40 41  1  0
  2 42  1  0
  4 43  1  0
  5 44  1  0
  6 45  1  0
  7 46  1  0
  9 47  1  1
 10 48  1  0
 13 49  1  0
 17 50  1  0
 20 51  1  0
 21 52  1  0
 21 53  1  0
 22 54  1  0
 23 55  1  0
 23 56  1  0
 24 57  1  0
 24 58  1  0
 26 59  1  0
 35 60  1  0
 36 61  1  0
 37 62  1  0
 38 63  1  0
 40 64  1  0
 40 65  1  0
 41 66  1  0
 41 67  1  0
M  END
> <Uni-Dock RESULT> 
ENERGY=   -2.924  LOWER_BOUND=    1.290  UPPER_BOUND=    1.390
INTER + INTRA:          -2.924
INTER:                  -2.924
INTRA:                   0.000
UNBOUND:                 0.000

$$$$
