
     RDKit          3D

 67 71  0  0  0  0  0  0  0  0999 V2000
   41.9091   -7.8275  -14.3431 C   0  0  0  0  0  0  0  0  0  0  0  0
   43.0919   -7.9967  -13.6117 C   0  0  0  0  0  0  0  0  0  0  0  0
   43.2464   -9.0847  -12.7357 C   0  0  0  0  0  0  0  0  0  0  0  0
   42.1887  -10.0022  -12.6173 C   0  0  0  0  0  0  0  0  0  0  0  0
   41.0070   -9.8338  -13.3422 C   0  0  0  0  0  0  0  0  0  0  0  0
   40.8667   -8.7480  -14.2051 C   0  0  0  0  0  0  0  0  0  0  0  0
   46.3785   -9.7907  -13.6711 C   0  0  0  0  0  0  0  0  0  0  0  0
   45.4616  -10.2680  -12.7164 C   0  0  0  0  0  0  0  0  0  0  0  0
   44.5586   -9.2721  -11.9755 C   0  0  2  0  0  0  0  0  0  0  0  0
   45.3589  -11.6610  -12.5050 C   0  0  0  0  0  0  0  0  0  0  0  0
   46.1573  -12.5550  -13.2203 C   0  0  0  0  0  0  0  0  0  0  0  0
   47.0553  -12.0422  -14.1641 C   0  0  0  0  0  0  0  0  0  0  0  0
   47.1744  -10.6772  -14.3932 C   0  0  0  0  0  0  0  0  0  0  0  0
   47.8257  -12.8886  -14.8670 F   0  0  0  0  0  0  0  0  0  0  0  0
   44.6884  -14.2456  -11.2798 O   0  0  0  0  0  0  0  0  0  0  0  0
   45.4245  -14.7027  -12.1442 C   0  0  0  0  0  0  0  0  0  0  0  0
   46.1282  -13.9587  -13.0706 N   0  0  0  0  0  0  0  0  0  0  0  0
   41.7741   -6.7163  -15.2377 C   0  0  0  0  0  0  0  0  0  0  0  0
   41.6762   -5.8143  -15.9612 N   0  0  0  0  0  0  0  0  0  0  0  0
   44.3685   -9.6690  -10.5723 N   0  0  0  0  0  0  0  0  0  0  0  0
   43.7460   -8.6548   -9.7284 C   0  0  0  0  0  0  0  0  0  0  0  0
   44.6929   -7.5373   -9.4114 C   0  0  0  0  0  0  0  0  0  0  0  0
   44.6667   -6.2401  -10.1820 C   0  0  0  0  0  0  0  0  0  0  0  0
   44.1610   -6.2805   -8.7683 C   0  0  0  0  0  0  0  0  0  0  0  0
   45.6454  -16.1206  -12.2920 C   0  0  0  0  0  0  0  0  0  0  0  0
   45.5434  -16.8596  -13.4588 C   0  0  0  0  0  0  0  0  0  0  0  0
   45.6738  -18.2121  -13.0825 C   0  0  0  0  0  0  0  0  0  0  0  0
   45.8729  -18.3123  -11.7600 N   0  0  0  0  0  0  0  0  0  0  0  0
   45.9301  -17.0325  -11.2824 N   0  0  0  0  0  0  0  0  0  0  0  0
   45.5848  -19.4130  -13.9876 C   0  0  0  0  0  0  0  0  0  0  0  0
   46.6910  -20.1999  -13.9183 F   0  0  0  0  0  0  0  0  0  0  0  0
   45.4601  -19.0435  -15.2933 F   0  0  0  0  0  0  0  0  0  0  0  0
   44.5141  -20.2000  -13.7079 F   0  0  0  0  0  0  0  0  0  0  0  0
   46.3362  -16.8339   -9.9227 C   0  0  0  0  0  0  0  0  0  0  0  0
   46.4078  -17.9512   -9.0666 C   0  0  0  0  0  0  0  0  0  0  0  0
   46.7228  -15.5838   -9.4247 C   0  0  0  0  0  0  0  0  0  0  0  0
   47.1367  -15.4496   -8.0960 C   0  0  0  0  0  0  0  0  0  0  0  0
   47.1850  -16.5598   -7.2554 C   0  0  0  0  0  0  0  0  0  0  0  0
   46.8248  -17.8250   -7.7311 C   0  0  0  0  0  0  0  0  0  0  0  0
   46.9171  -19.0353   -6.8358 C   0  0  0  0  0  0  0  0  0  0  0  0
   46.1161  -18.8700   -5.6267 N   0  0  0  0  0  0  0  0  0  0  0  0
   43.9010   -7.2775  -13.7282 H   0  0  0  0  0  0  0  0  0  0  0  0
   42.2842  -10.8576  -11.9491 H   0  0  0  0  0  0  0  0  0  0  0  0
   40.1986  -10.5538  -13.2338 H   0  0  0  0  0  0  0  0  0  0  0  0
   39.9434   -8.6279  -14.7685 H   0  0  0  0  0  0  0  0  0  0  0  0
   46.4689   -8.7235  -13.8635 H   0  0  0  0  0  0  0  0  0  0  0  0
   45.1000   -8.3176  -11.9727 H   0  0  0  0  0  0  0  0  0  0  0  0
   44.6318  -12.0189  -11.7808 H   0  0  0  0  0  0  0  0  0  0  0  0
   47.8793  -10.3160  -15.1346 H   0  0  0  0  0  0  0  0  0  0  0  0
   46.7666  -14.4584  -13.6800 H   0  0  0  0  0  0  0  0  0  0  0  0
   45.2699   -9.9266  -10.1748 H   0  0  0  0  0  0  0  0  0  0  0  0
   42.8083   -8.2846  -10.1594 H   0  0  0  0  0  0  0  0  0  0  0  0
   43.4700   -9.1378   -8.7832 H   0  0  0  0  0  0  0  0  0  0  0  0
   45.6451   -7.8954   -9.0340 H   0  0  0  0  0  0  0  0  0  0  0  0
   45.6110   -5.7387  -10.3657 H   0  0  0  0  0  0  0  0  0  0  0  0
   43.9339   -6.1121  -10.9703 H   0  0  0  0  0  0  0  0  0  0  0  0
   43.0927   -6.1867   -8.6093 H   0  0  0  0  0  0  0  0  0  0  0  0
   44.7649   -5.8120   -7.9990 H   0  0  0  0  0  0  0  0  0  0  0  0
   45.3263  -16.4781  -14.4491 H   0  0  0  0  0  0  0  0  0  0  0  0
   46.1394  -18.9394   -9.4355 H   0  0  0  0  0  0  0  0  0  0  0  0
   46.7437  -14.6855  -10.0293 H   0  0  0  0  0  0  0  0  0  0  0  0
   47.4295  -14.4728   -7.7168 H   0  0  0  0  0  0  0  0  0  0  0  0
   47.5095  -16.4399   -6.2236 H   0  0  0  0  0  0  0  0  0  0  0  0
   46.5784  -19.9316   -7.3675 H   0  0  0  0  0  0  0  0  0  0  0  0
   47.9661  -19.1961   -6.5668 H   0  0  0  0  0  0  0  0  0  0  0  0
   46.1220  -19.7422   -5.1017 H   0  0  0  0  0  0  0  0  0  0  0  0
   45.1477  -18.7055   -5.8997 H   0  0  0  0  0  0  0  0  0  0  0  0
  1  2  2  0
  2  3  1  0
  3  4  2  0
  4  5  1  0
  5  6  2  0
  1  6  1  0
  7  8  2  0
  8  9  1  0
  9  3  1  0
 10 11  2  0
 11 12  1  0
 12 13  2  0
  7 13  1  0
  8 10  1  0
 15 16  2  0
 16 17  1  0
 14 12  1  0
 17 11  1  0
  1 18  1  0
 18 19  3  0
  9 20  1  0
 20 21  1  0
 21 22  1  0
 22 23  1  0
 22 24  1  0
 23 24  1  0
 16 25  1  0
 26 27  1  0
 27 28  2  0
 28 29  1  0
 29 25  1  0
 26 25  2  0
 27 30  1  0
 30 31  1  0
 30 32  1  0
 30 33  1  0
 29 34  1  0
 36 37  1  0
 37 38  2  0
 38 39  1  0
 35 39  2  0
 35 34  1  0
 34 36  2  0
 39 40  1  0
 40 41  1  0
  2 42  1  0
  4 43  1  0
  5 44  1  0
  6 45  1  0
  7 46  1  0
  9 47  1  6
 10 48  1  0
 13 49  1  0
 17 50  1  0
 20 51  1  0
 21 52  1  0
 21 53  1  0
 22 54  1  0
 23 55  1  0
 23 56  1  0
 24 57  1  0
 24 58  1  0
 26 59  1  0
 35 60  1  0
 36 61  1  0
 37 62  1  0
 38 63  1  0
 40 64  1  0
 40 65  1  0
 41 66  1  0
 41 67  1  0
M  END
> <Uni-Dock RESULT> 
ENERGY=   -3.656  LOWER_BOUND=    0.000  UPPER_BOUND=    0.000
INTER + INTRA:          -3.656
INTER:                  -3.656
INTRA:                   0.000
UNBOUND:                 0.000

$$$$

     RDKit          3D

 67 71  0  0  0  0  0  0  0  0999 V2000
   41.9004   -7.7576  -14.3110 C   0  0  0  0  0  0  0  0  0  0  0  0
   43.0839   -7.9422  -13.5845 C   0  0  0  0  0  0  0  0  0  0  0  0
   43.2259   -9.0294  -12.7053 C   0  0  0  0  0  0  0  0  0  0  0  0
   42.1550   -9.9302  -12.5787 C   0  0  0  0  0  0  0  0  0  0  0  0
   40.9726   -9.7464  -13.2988 C   0  0  0  0  0  0  0  0  0  0  0  0
   40.8447   -8.6616  -14.1649 C   0  0  0  0  0  0  0  0  0  0  0  0
   46.3425   -9.7863  -13.6525 C   0  0  0  0  0  0  0  0  0  0  0  0
   45.4229  -10.2462  -12.6919 C   0  0  0  0  0  0  0  0  0  0  0  0
   44.5386   -9.2340  -11.9505 C   0  0  2  0  0  0  0  0  0  0  0  0
   45.3000  -11.6367  -12.4750 C   0  0  0  0  0  0  0  0  0  0  0  0
   46.0814  -12.5453  -13.1908 C   0  0  0  0  0  0  0  0  0  0  0  0
   46.9826  -12.0496  -14.1405 C   0  0  0  0  0  0  0  0  0  0  0  0
   47.1214  -10.6874  -14.3750 C   0  0  0  0  0  0  0  0  0  0  0  0
   47.7367  -12.9101  -14.8439 F   0  0  0  0  0  0  0  0  0  0  0  0
   44.5960  -14.2064  -11.2374 O   0  0  0  0  0  0  0  0  0  0  0  0
   45.3209  -14.6778  -12.1035 C   0  0  0  0  0  0  0  0  0  0  0  0
   46.0316  -13.9479  -13.0359 N   0  0  0  0  0  0  0  0  0  0  0  0
   41.7781   -6.6477  -15.2090 C   0  0  0  0  0  0  0  0  0  0  0  0
   41.6907   -5.7468  -15.9353 N   0  0  0  0  0  0  0  0  0  0  0  0
   44.3491   -9.6230  -10.5450 N   0  0  0  0  0  0  0  0  0  0  0  0
   43.7460   -8.5965   -9.7019 C   0  0  0  0  0  0  0  0  0  0  0  0
   44.7113   -7.4925   -9.3933 C   0  0  0  0  0  0  0  0  0  0  0  0
   44.7012   -6.1977  -10.1684 C   0  0  0  0  0  0  0  0  0  0  0  0
   44.2016   -6.2254   -8.7522 C   0  0  0  0  0  0  0  0  0  0  0  0
   45.5196  -16.0994  -12.2473 C   0  0  0  0  0  0  0  0  0  0  0  0
   45.4009  -16.8409  -13.4109 C   0  0  0  0  0  0  0  0  0  0  0  0
   45.5124  -18.1939  -13.0303 C   0  0  0  0  0  0  0  0  0  0  0  0
   45.7161  -18.2924  -11.7084 N   0  0  0  0  0  0  0  0  0  0  0  0
   45.7950  -17.0119  -11.2357 N   0  0  0  0  0  0  0  0  0  0  0  0
   45.4010  -19.3964  -13.9306 C   0  0  0  0  0  0  0  0  0  0  0  0
   46.4954  -20.1999  -13.8637 F   0  0  0  0  0  0  0  0  0  0  0  0
   45.2758  -19.0298  -15.2371 F   0  0  0  0  0  0  0  0  0  0  0  0
   44.3197  -20.1660  -13.6432 F   0  0  0  0  0  0  0  0  0  0  0  0
   46.2105  -16.8148   -9.8786 C   0  0  0  0  0  0  0  0  0  0  0  0
   46.2690  -17.9300   -9.0188 C   0  0  0  0  0  0  0  0  0  0  0  0
   46.6183  -15.5690   -9.3869 C   0  0  0  0  0  0  0  0  0  0  0  0
   47.0404  -15.4364   -8.0606 C   0  0  0  0  0  0  0  0  0  0  0  0
   47.0757  -16.5442   -7.2163 C   0  0  0  0  0  0  0  0  0  0  0  0
   46.6941  -17.8055   -7.6857 C   0  0  0  0  0  0  0  0  0  0  0  0
   46.7721  -19.0138   -6.7865 C   0  0  0  0  0  0  0  0  0  0  0  0
   45.9795  -18.8321   -5.5743 N   0  0  0  0  0  0  0  0  0  0  0  0
   43.9033   -7.2358  -13.7073 H   0  0  0  0  0  0  0  0  0  0  0  0
   42.2405  -10.7846  -11.9079 H   0  0  0  0  0  0  0  0  0  0  0  0
   40.1538  -10.4536  -13.1841 H   0  0  0  0  0  0  0  0  0  0  0  0
   39.9208   -8.5295  -14.7245 H   0  0  0  0  0  0  0  0  0  0  0  0
   46.4483   -8.7213  -13.8492 H   0  0  0  0  0  0  0  0  0  0  0  0
   45.0945   -8.2879  -11.9536 H   0  0  0  0  0  0  0  0  0  0  0  0
   44.5709  -11.9809  -11.7462 H   0  0  0  0  0  0  0  0  0  0  0  0
   47.8283  -10.3396  -15.1211 H   0  0  0  0  0  0  0  0  0  0  0  0
   46.6594  -14.4594  -13.6464 H   0  0  0  0  0  0  0  0  0  0  0  0
   45.2483   -9.8930  -10.1507 H   0  0  0  0  0  0  0  0  0  0  0  0
   42.8121   -8.2136  -10.1299 H   0  0  0  0  0  0  0  0  0  0  0  0
   43.4671   -9.0719   -8.7536 H   0  0  0  0  0  0  0  0  0  0  0  0
   45.6596   -7.8637   -9.0189 H   0  0  0  0  0  0  0  0  0  0  0  0
   45.6522   -5.7114  -10.3582 H   0  0  0  0  0  0  0  0  0  0  0  0
   43.9667   -6.0613  -10.9538 H   0  0  0  0  0  0  0  0  0  0  0  0
   43.1355   -6.1147   -8.5887 H   0  0  0  0  0  0  0  0  0  0  0  0
   44.8161   -5.7634   -7.9875 H   0  0  0  0  0  0  0  0  0  0  0  0
   45.1850  -16.4596  -14.4015 H   0  0  0  0  0  0  0  0  0  0  0  0
   45.9839  -18.9153   -9.3830 H   0  0  0  0  0  0  0  0  0  0  0  0
   46.6501  -14.6733   -9.9949 H   0  0  0  0  0  0  0  0  0  0  0  0
   47.3499  -14.4628   -7.6863 H   0  0  0  0  0  0  0  0  0  0  0  0
   47.4068  -16.4256   -6.1863 H   0  0  0  0  0  0  0  0  0  0  0  0
   46.4173  -19.9067   -7.3134 H   0  0  0  0  0  0  0  0  0  0  0  0
   47.8199  -19.1896   -6.5218 H   0  0  0  0  0  0  0  0  0  0  0  0
   45.9744  -19.7024   -5.0462 H   0  0  0  0  0  0  0  0  0  0  0  0
   45.0124  -18.6538   -5.8434 H   0  0  0  0  0  0  0  0  0  0  0  0
  1  2  2  0
  2  3  1  0
  3  4  2  0
  4  5  1  0
  5  6  2  0
  1  6  1  0
  7  8  2  0
  8  9  1  0
  9  3  1  0
 10 11  2  0
 11 12  1  0
 12 13  2  0
  7 13  1  0
  8 10  1  0
 15 16  2  0
 16 17  1  0
 14 12  1  0
 17 11  1  0
  1 18  1  0
 18 19  3  0
  9 20  1  0
 20 21  1  0
 21 22  1  0
 22 23  1  0
 22 24  1  0
 23 24  1  0
 16 25  1  0
 26 27  1  0
 27 28  2  0
 28 29  1  0
 29 25  1  0
 26 25  2  0
 27 30  1  0
 30 31  1  0
 30 32  1  0
 30 33  1  0
 29 34  1  0
 36 37  1  0
 37 38  2  0
 38 39  1  0
 35 39  2  0
 35 34  1  0
 34 36  2  0
 39 40  1  0
 40 41  1  0
  2 42  1  0
  4 43  1  0
  5 44  1  0
  6 45  1  0
  7 46  1  0
  9 47  1  6
 10 48  1  0
 13 49  1  0
 17 50  1  0
 20 51  1  0
 21 52  1  0
 21 53  1  0
 22 54  1  0
 23 55  1  0
 23 56  1  0
 24 57  1  0
 24 58  1  0
 26 59  1  0
 35 60  1  0
 36 61  1  0
 37 62  1  0
 38 63  1  0
 40 64  1  0
 40 65  1  0
 41 66  1  0
 41 67  1  0
M  END
> <Uni-Dock RESULT> 
ENERGY=   -3.619  LOWER_BOUND=    0.117  UPPER_BOUND=    0.117
INTER + INTRA:          -3.619
INTER:                  -3.619
INTRA:                   0.000
UNBOUND:                 0.000

$$$$

     RDKit          3D

 67 71  0  0  0  0  0  0  0  0999 V2000
   41.6525   -7.6533   -8.6857 C   0  0  0  0  0  0  0  0  0  0  0  0
   41.6020   -8.0639  -10.0241 C   0  0  0  0  0  0  0  0  0  0  0  0
   42.7510   -8.5498  -10.6711 C   0  0  0  0  0  0  0  0  0  0  0  0
   43.9493   -8.6206   -9.9406 C   0  0  0  0  0  0  0  0  0  0  0  0
   44.0033   -8.2082   -8.6074 C   0  0  0  0  0  0  0  0  0  0  0  0
   42.8562   -7.7254   -7.9795 C   0  0  0  0  0  0  0  0  0  0  0  0
   41.2009  -11.1028  -12.1754 C   0  0  0  0  0  0  0  0  0  0  0  0
   42.4961  -10.5528  -12.1647 C   0  0  0  0  0  0  0  0  0  0  0  0
   42.6664   -9.0279  -12.1199 C   0  0  2  0  0  0  0  0  0  0  0  0
   43.6078  -11.4240  -12.1402 C   0  0  0  0  0  0  0  0  0  0  0  0
   43.4328  -12.8089  -12.1364 C   0  0  0  0  0  0  0  0  0  0  0  0
   42.1288  -13.3183  -12.1439 C   0  0  0  0  0  0  0  0  0  0  0  0
   41.0183  -12.4838  -12.1656 C   0  0  0  0  0  0  0  0  0  0  0  0
   41.9420  -14.6483  -12.1325 F   0  0  0  0  0  0  0  0  0  0  0  0
   46.3635  -12.4218  -12.3417 O   0  0  0  0  0  0  0  0  0  0  0  0
   45.8397  -13.5213  -12.2205 C   0  0  0  0  0  0  0  0  0  0  0  0
   44.4822  -13.7534  -12.1197 N   0  0  0  0  0  0  0  0  0  0  0  0
   40.4680   -7.1687   -8.0410 C   0  0  0  0  0  0  0  0  0  0  0  0
   39.5023   -6.7803   -7.5279 N   0  0  0  0  0  0  0  0  0  0  0  0
   43.8050   -8.5958  -12.9444 N   0  0  0  0  0  0  0  0  0  0  0  0
   43.8848   -7.1570  -13.1717 C   0  0  0  0  0  0  0  0  0  0  0  0
   42.8455   -6.6892  -14.1448 C   0  0  0  0  0  0  0  0  0  0  0  0
   41.5511   -6.0698  -13.6778 C   0  0  0  0  0  0  0  0  0  0  0  0
   42.6058   -5.2091  -14.3124 C   0  0  0  0  0  0  0  0  0  0  0  0
   46.6132  -14.7379  -12.1701 C   0  0  0  0  0  0  0  0  0  0  0  0
   46.5172  -15.7442  -11.2234 C   0  0  0  0  0  0  0  0  0  0  0  0
   47.5805  -16.6332  -11.4826 C   0  0  0  0  0  0  0  0  0  0  0  0
   48.2852  -16.2214  -12.5468 N   0  0  0  0  0  0  0  0  0  0  0  0
   47.6539  -15.1031  -13.0158 N   0  0  0  0  0  0  0  0  0  0  0  0
   47.9366  -17.8674  -10.6959 C   0  0  0  0  0  0  0  0  0  0  0  0
   47.9752  -18.9845  -11.4695 F   0  0  0  0  0  0  0  0  0  0  0  0
   47.0225  -18.1134   -9.7155 F   0  0  0  0  0  0  0  0  0  0  0  0
   49.1419  -17.7643  -10.0791 F   0  0  0  0  0  0  0  0  0  0  0  0
   48.0768  -14.5635  -14.2742 C   0  0  0  0  0  0  0  0  0  0  0  0
   49.2747  -15.0367  -14.8464 C   0  0  0  0  0  0  0  0  0  0  0  0
   47.3181  -13.6282  -14.9882 C   0  0  0  0  0  0  0  0  0  0  0  0
   47.7637  -13.1536  -16.2255 C   0  0  0  0  0  0  0  0  0  0  0  0
   48.9594  -13.6165  -16.7710 C   0  0  0  0  0  0  0  0  0  0  0  0
   49.7279  -14.5665  -16.0902 C   0  0  0  0  0  0  0  0  0  0  0  0
   51.0006  -15.1010  -16.6979 C   0  0  0  0  0  0  0  0  0  0  0  0
   51.9448  -14.0281  -16.9947 N   0  0  0  0  0  0  0  0  0  0  0  0
   40.6592   -8.0086  -10.5659 H   0  0  0  0  0  0  0  0  0  0  0  0
   44.8538   -8.9983  -10.4164 H   0  0  0  0  0  0  0  0  0  0  0  0
   44.9418   -8.2680   -8.0603 H   0  0  0  0  0  0  0  0  0  0  0  0
   42.9079   -7.4102   -6.9391 H   0  0  0  0  0  0  0  0  0  0  0  0
   40.3266  -10.4550  -12.1811 H   0  0  0  0  0  0  0  0  0  0  0  0
   41.7593   -8.6090  -12.5736 H   0  0  0  0  0  0  0  0  0  0  0  0
   44.6026  -10.9874  -12.1101 H   0  0  0  0  0  0  0  0  0  0  0  0
   40.0224  -12.9142  -12.1681 H   0  0  0  0  0  0  0  0  0  0  0  0
   44.1755  -14.7201  -12.1059 H   0  0  0  0  0  0  0  0  0  0  0  0
   43.7652   -9.0739  -13.8426 H   0  0  0  0  0  0  0  0  0  0  0  0
   43.8471   -6.5928  -12.2324 H   0  0  0  0  0  0  0  0  0  0  0  0
   44.8693   -6.9470  -13.6070 H   0  0  0  0  0  0  0  0  0  0  0  0
   42.8383   -7.2759  -15.0575 H   0  0  0  0  0  0  0  0  0  0  0  0
   40.6536   -6.2736  -14.2522 H   0  0  0  0  0  0  0  0  0  0  0  0
   41.3809   -5.9475  -12.6143 H   0  0  0  0  0  0  0  0  0  0  0  0
   43.1455   -4.5169  -13.6760 H   0  0  0  0  0  0  0  0  0  0  0  0
   42.4229   -4.8371  -15.3145 H   0  0  0  0  0  0  0  0  0  0  0  0
   45.8143  -15.7932  -10.4007 H   0  0  0  0  0  0  0  0  0  0  0  0
   49.8701  -15.7844  -14.3256 H   0  0  0  0  0  0  0  0  0  0  0  0
   46.3636  -13.2512  -14.6425 H   0  0  0  0  0  0  0  0  0  0  0  0
   47.1698  -12.4224  -16.7700 H   0  0  0  0  0  0  0  0  0  0  0  0
   49.2933  -13.2380  -17.7351 H   0  0  0  0  0  0  0  0  0  0  0  0
   51.4774  -15.8174  -16.0195 H   0  0  0  0  0  0  0  0  0  0  0  0
   50.7527  -15.6420  -17.6170 H   0  0  0  0  0  0  0  0  0  0  0  0
   52.8246  -14.4354  -17.3052 H   0  0  0  0  0  0  0  0  0  0  0  0
   52.1490  -13.5281  -16.1301 H   0  0  0  0  0  0  0  0  0  0  0  0
  1  2  2  0
  2  3  1  0
  3  4  2  0
  4  5  1  0
  5  6  2  0
  1  6  1  0
  7  8  2  0
  8  9  1  0
  9  3  1  0
 10 11  2  0
 11 12  1  0
 12 13  2  0
  7 13  1  0
  8 10  1  0
 15 16  2  0
 16 17  1  0
 14 12  1  0
 17 11  1  0
  1 18  1  0
 18 19  3  0
  9 20  1  0
 20 21  1  0
 21 22  1  0
 22 23  1  0
 22 24  1  0
 23 24  1  0
 16 25  1  0
 26 27  1  0
 27 28  2  0
 28 29  1  0
 29 25  1  0
 26 25  2  0
 27 30  1  0
 30 31  1  0
 30 32  1  0
 30 33  1  0
 29 34  1  0
 36 37  1  0
 37 38  2  0
 38 39  1  0
 35 39  2  0
 35 34  1  0
 34 36  2  0
 39 40  1  0
 40 41  1  0
  2 42  1  0
  4 43  1  0
  5 44  1  0
  6 45  1  0
  7 46  1  0
  9 47  1  6
 10 48  1  0
 13 49  1  0
 17 50  1  0
 20 51  1  0
 21 52  1  0
 21 53  1  0
 22 54  1  0
 23 55  1  0
 23 56  1  0
 24 57  1  0
 24 58  1  0
 26 59  1  0
 35 60  1  0
 36 61  1  0
 37 62  1  0
 38 63  1  0
 40 64  1  0
 40 65  1  0
 41 66  1  0
 41 67  1  0
M  END
> <Uni-Dock RESULT> 
ENERGY=   -3.436  LOWER_BOUND=    3.121  UPPER_BOUND=    5.842
INTER + INTRA:          -3.436
INTER:                  -3.436
INTRA:                   0.000
UNBOUND:                 0.000

$$$$

     RDKit          3D

 67 71  0  0  0  0  0  0  0  0999 V2000
   40.7772   -8.6453  -14.2603 C   0  0  0  0  0  0  0  0  0  0  0  0
   41.8891   -8.6142  -13.4086 C   0  0  0  0  0  0  0  0  0  0  0  0
   42.1887   -9.7066  -12.5769 C   0  0  0  0  0  0  0  0  0  0  0  0
   41.3502  -10.8331  -12.6259 C   0  0  0  0  0  0  0  0  0  0  0  0
   40.2389  -10.8652  -13.4711 C   0  0  0  0  0  0  0  0  0  0  0  0
   39.9522   -9.7730  -14.2884 C   0  0  0  0  0  0  0  0  0  0  0  0
   45.4769   -9.6636  -13.1845 C   0  0  0  0  0  0  0  0  0  0  0  0
   44.5953  -10.3931  -12.3656 C   0  0  0  0  0  0  0  0  0  0  0  0
   43.4273   -9.6680  -11.6828 C   0  0  2  0  0  0  0  0  0  0  0  0
   44.7783  -11.7880  -12.2379 C   0  0  0  0  0  0  0  0  0  0  0  0
   45.8200  -12.4378  -12.9020 C   0  0  0  0  0  0  0  0  0  0  0  0
   46.6743  -11.6785  -13.7105 C   0  0  0  0  0  0  0  0  0  0  0  0
   46.5152  -10.3061  -13.8553 C   0  0  0  0  0  0  0  0  0  0  0  0
   47.6772  -12.2887  -14.3631 F   0  0  0  0  0  0  0  0  0  0  0  0
   44.5685  -14.5391  -11.2290 O   0  0  0  0  0  0  0  0  0  0  0  0
   45.4693  -14.7653  -12.0260 C   0  0  0  0  0  0  0  0  0  0  0  0
   46.0829  -13.8231  -12.8277 N   0  0  0  0  0  0  0  0  0  0  0  0
   40.4933   -7.5248  -15.1071 C   0  0  0  0  0  0  0  0  0  0  0  0
   40.2740   -6.6130  -15.7906 N   0  0  0  0  0  0  0  0  0  0  0  0
   43.1889  -10.1986  -10.3322 N   0  0  0  0  0  0  0  0  0  0  0  0
   42.2788   -9.4040   -9.5144 C   0  0  0  0  0  0  0  0  0  0  0  0
   42.9226   -8.1382   -9.0358 C   0  0  0  0  0  0  0  0  0  0  0  0
   42.6914   -6.8226   -9.7378 C   0  0  0  0  0  0  0  0  0  0  0  0
   42.0677   -7.0732   -8.3946 C   0  0  0  0  0  0  0  0  0  0  0  0
   46.0078  -16.0896  -12.2192 C   0  0  0  0  0  0  0  0  0  0  0  0
   46.1868  -16.7453  -13.4259 C   0  0  0  0  0  0  0  0  0  0  0  0
   46.5707  -18.0637  -13.1059 C   0  0  0  0  0  0  0  0  0  0  0  0
   46.6534  -18.2169  -11.7761 N   0  0  0  0  0  0  0  0  0  0  0  0
   46.3820  -16.9927  -11.2312 N   0  0  0  0  0  0  0  0  0  0  0  0
   46.8369  -19.1860  -14.0748 C   0  0  0  0  0  0  0  0  0  0  0  0
   48.0755  -19.7243  -13.9201 F   0  0  0  0  0  0  0  0  0  0  0  0
   46.7659  -18.7559  -15.3659 F   0  0  0  0  0  0  0  0  0  0  0  0
   45.9411  -20.2000  -13.9587 F   0  0  0  0  0  0  0  0  0  0  0  0
   46.5968  -16.8137   -9.8258 C   0  0  0  0  0  0  0  0  0  0  0  0
   46.8242  -17.9507   -9.0246 C   0  0  0  0  0  0  0  0  0  0  0  0
   46.6495  -15.5504   -9.2246 C   0  0  0  0  0  0  0  0  0  0  0  0
   46.8890  -15.4302   -7.8524 C   0  0  0  0  0  0  0  0  0  0  0  0
   47.0939  -16.5640   -7.0689 C   0  0  0  0  0  0  0  0  0  0  0  0
   47.0678  -17.8382   -7.6457 C   0  0  0  0  0  0  0  0  0  0  0  0
   47.3318  -19.0643   -6.8080 C   0  0  0  0  0  0  0  0  0  0  0  0
   46.3971  -19.1618   -5.6910 N   0  0  0  0  0  0  0  0  0  0  0  0
   42.5293   -7.7336  -13.3959 H   0  0  0  0  0  0  0  0  0  0  0  0
   41.5626  -11.6959  -11.9953 H   0  0  0  0  0  0  0  0  0  0  0  0
   39.6003  -11.7458  -13.4918 H   0  0  0  0  0  0  0  0  0  0  0  0
   39.0861   -9.8095  -14.9463 H   0  0  0  0  0  0  0  0  0  0  0  0
   45.3512   -8.5902  -13.3113 H   0  0  0  0  0  0  0  0  0  0  0  0
   43.7444   -8.6235  -11.5703 H   0  0  0  0  0  0  0  0  0  0  0  0
   44.0780  -12.3440  -11.6201 H   0  0  0  0  0  0  0  0  0  0  0  0
   47.1949   -9.7503  -14.4926 H   0  0  0  0  0  0  0  0  0  0  0  0
   46.8726  -14.1301  -13.3850 H   0  0  0  0  0  0  0  0  0  0  0  0
   44.0803  -10.2885   -9.8483 H   0  0  0  0  0  0  0  0  0  0  0  0
   41.3310   -9.2096  -10.0300 H   0  0  0  0  0  0  0  0  0  0  0  0
   42.0216  -10.0029   -8.6322 H   0  0  0  0  0  0  0  0  0  0  0  0
   43.8872   -8.3138   -8.5711 H   0  0  0  0  0  0  0  0  0  0  0  0
   43.5171   -6.1207   -9.7874 H   0  0  0  0  0  0  0  0  0  0  0  0
   42.0309   -6.7945  -10.5969 H   0  0  0  0  0  0  0  0  0  0  0  0
   40.9942   -7.2193   -8.3536 H   0  0  0  0  0  0  0  0  0  0  0  0
   42.4748   -6.5457   -7.5390 H   0  0  0  0  0  0  0  0  0  0  0  0
   45.9920  -16.3462  -14.4138 H   0  0  0  0  0  0  0  0  0  0  0  0
   46.8162  -18.9433   -9.4711 H   0  0  0  0  0  0  0  0  0  0  0  0
   46.5345  -14.6259   -9.7768 H   0  0  0  0  0  0  0  0  0  0  0  0
   46.9223  -14.4443   -7.3935 H   0  0  0  0  0  0  0  0  0  0  0  0
   47.2795  -16.4548   -6.0021 H   0  0  0  0  0  0  0  0  0  0  0  0
   47.2517  -19.9702   -7.4194 H   0  0  0  0  0  0  0  0  0  0  0  0
   48.3583  -19.0191   -6.4300 H   0  0  0  0  0  0  0  0  0  0  0  0
   46.5404  -20.0493   -5.2135 H   0  0  0  0  0  0  0  0  0  0  0  0
   45.4485  -19.1860   -6.0637 H   0  0  0  0  0  0  0  0  0  0  0  0
  1  2  2  0
  2  3  1  0
  3  4  2  0
  4  5  1  0
  5  6  2  0
  1  6  1  0
  7  8  2  0
  8  9  1  0
  9  3  1  0
 10 11  2  0
 11 12  1  0
 12 13  2  0
  7 13  1  0
  8 10  1  0
 15 16  2  0
 16 17  1  0
 14 12  1  0
 17 11  1  0
  1 18  1  0
 18 19  3  0
  9 20  1  0
 20 21  1  0
 21 22  1  0
 22 23  1  0
 22 24  1  0
 23 24  1  0
 16 25  1  0
 26 27  1  0
 27 28  2  0
 28 29  1  0
 29 25  1  0
 26 25  2  0
 27 30  1  0
 30 31  1  0
 30 32  1  0
 30 33  1  0
 29 34  1  0
 36 37  1  0
 37 38  2  0
 38 39  1  0
 35 39  2  0
 35 34  1  0
 34 36  2  0
 39 40  1  0
 40 41  1  0
  2 42  1  0
  4 43  1  0
  5 44  1  0
  6 45  1  0
  7 46  1  0
  9 47  1  6
 10 48  1  0
 13 49  1  0
 17 50  1  0
 20 51  1  0
 21 52  1  0
 21 53  1  0
 22 54  1  0
 23 55  1  0
 23 56  1  0
 24 57  1  0
 24 58  1  0
 26 59  1  0
 35 60  1  0
 36 61  1  0
 37 62  1  0
 38 63  1  0
 40 64  1  0
 40 65  1  0
 41 66  1  0
 41 67  1  0
M  END
> <Uni-Dock RESULT> 
ENERGY=   -3.367  LOWER_BOUND=    0.994  UPPER_BOUND=    1.105
INTER + INTRA:          -3.367
INTER:                  -3.367
INTRA:                   0.000
UNBOUND:                 0.000

$$$$

     RDKit          3D

 67 71  0  0  0  0  0  0  0  0999 V2000
   48.6625  -17.7971  -13.4504 C   0  0  0  0  0  0  0  0  0  0  0  0
   47.6062  -17.7392  -12.5320 C   0  0  0  0  0  0  0  0  0  0  0  0
   47.1445  -16.5048  -12.0438 C   0  0  0  0  0  0  0  0  0  0  0  0
   47.7634  -15.3306  -12.5050 C   0  0  0  0  0  0  0  0  0  0  0  0
   48.8192  -15.3857  -13.4174 C   0  0  0  0  0  0  0  0  0  0  0  0
   49.2686  -16.6174  -13.8908 C   0  0  0  0  0  0  0  0  0  0  0  0
   43.8984  -17.2628  -12.3108 C   0  0  0  0  0  0  0  0  0  0  0  0
   44.6628  -16.1826  -11.8323 C   0  0  0  0  0  0  0  0  0  0  0  0
   45.9666  -16.4611  -11.0715 C   0  0  2  0  0  0  0  0  0  0  0  0
   44.2355  -14.8659  -12.1141 C   0  0  0  0  0  0  0  0  0  0  0  0
   43.0702  -14.6319  -12.8459 C   0  0  0  0  0  0  0  0  0  0  0  0
   42.3383  -15.7323  -13.3080 C   0  0  0  0  0  0  0  0  0  0  0  0
   42.7375  -17.0372  -13.0470 C   0  0  0  0  0  0  0  0  0  0  0  0
   41.2187  -15.5256  -14.0205 F   0  0  0  0  0  0  0  0  0  0  0  0
   43.9814  -11.9413  -12.0026 O   0  0  0  0  0  0  0  0  0  0  0  0
   43.0262  -12.1228  -12.7459 C   0  0  0  0  0  0  0  0  0  0  0  0
   42.5642  -13.3538  -13.1682 N   0  0  0  0  0  0  0  0  0  0  0  0
   49.1132  -19.0649  -13.9431 C   0  0  0  0  0  0  0  0  0  0  0  0
   49.4687  -20.0968  -14.3375 N   0  0  0  0  0  0  0  0  0  0  0  0
   46.1541  -15.5046   -9.9703 N   0  0  0  0  0  0  0  0  0  0  0  0
   47.2218  -15.8474   -9.0371 C   0  0  0  0  0  0  0  0  0  0  0  0
   46.8351  -16.9869   -8.1439 C   0  0  0  0  0  0  0  0  0  0  0  0
   47.2746  -18.4007   -8.4356 C   0  0  0  0  0  0  0  0  0  0  0  0
   47.8910  -17.6469   -7.2920 C   0  0  0  0  0  0  0  0  0  0  0  0
   42.2506  -11.0295  -13.2790 C   0  0  0  0  0  0  0  0  0  0  0  0
   41.9125  -10.8206  -14.6057 C   0  0  0  0  0  0  0  0  0  0  0  0
   41.3085   -9.5479  -14.6637 C   0  0  0  0  0  0  0  0  0  0  0  0
   41.2478   -9.0029  -13.4398 N   0  0  0  0  0  0  0  0  0  0  0  0
   41.7556   -9.9357  -12.5787 N   0  0  0  0  0  0  0  0  0  0  0  0
   40.8090   -8.8418  -15.8970 C   0  0  0  0  0  0  0  0  0  0  0  0
   39.5000   -8.4884  -15.8002 F   0  0  0  0  0  0  0  0  0  0  0  0
   40.9096   -9.6359  -16.9999 F   0  0  0  0  0  0  0  0  0  0  0  0
   41.5105   -7.7122  -16.1728 F   0  0  0  0  0  0  0  0  0  0  0  0
   41.6278   -9.6994  -11.1712 C   0  0  0  0  0  0  0  0  0  0  0  0
   41.2279   -8.4213  -10.7320 C   0  0  0  0  0  0  0  0  0  0  0  0
   41.8260  -10.7033  -10.2157 C   0  0  0  0  0  0  0  0  0  0  0  0
   41.6621  -10.4263   -8.8551 C   0  0  0  0  0  0  0  0  0  0  0  0
   41.2843   -9.1531   -8.4338 C   0  0  0  0  0  0  0  0  0  0  0  0
   41.0588   -8.1357   -9.3670 C   0  0  0  0  0  0  0  0  0  0  0  0
   40.6083   -6.7686   -8.9166 C   0  0  0  0  0  0  0  0  0  0  0  0
   41.5499   -6.1788   -7.9699 N   0  0  0  0  0  0  0  0  0  0  0  0
   47.1365  -18.6626  -12.1973 H   0  0  0  0  0  0  0  0  0  0  0  0
   47.4216  -14.3600  -12.1465 H   0  0  0  0  0  0  0  0  0  0  0  0
   49.2870  -14.4649  -13.7596 H   0  0  0  0  0  0  0  0  0  0  0  0
   50.0894  -16.6493  -14.6046 H   0  0  0  0  0  0  0  0  0  0  0  0
   44.2112  -18.2873  -12.1197 H   0  0  0  0  0  0  0  0  0  0  0  0
   45.8477  -17.4550  -10.6219 H   0  0  0  0  0  0  0  0  0  0  0  0
   44.8458  -14.0401  -11.7580 H   0  0  0  0  0  0  0  0  0  0  0  0
   42.1466  -17.8656  -13.4236 H   0  0  0  0  0  0  0  0  0  0  0  0
   41.7123  -13.3669  -13.7183 H   0  0  0  0  0  0  0  0  0  0  0  0
   45.2792  -15.4126   -9.4574 H   0  0  0  0  0  0  0  0  0  0  0  0
   48.1698  -16.0380   -9.5538 H   0  0  0  0  0  0  0  0  0  0  0  0
   47.3984  -14.9702   -8.4029 H   0  0  0  0  0  0  0  0  0  0  0  0
   45.8721  -16.8325   -7.6684 H   0  0  0  0  0  0  0  0  0  0  0  0
   46.5880  -19.2061   -8.1970 H   0  0  0  0  0  0  0  0  0  0  0  0
   47.8976  -18.5889   -9.3024 H   0  0  0  0  0  0  0  0  0  0  0  0
   48.9212  -17.3249   -7.3941 H   0  0  0  0  0  0  0  0  0  0  0  0
   47.6172  -17.9394   -6.2843 H   0  0  0  0  0  0  0  0  0  0  0  0
   42.1402  -11.4712  -15.4412 H   0  0  0  0  0  0  0  0  0  0  0  0
   41.0402   -7.6298  -11.4552 H   0  0  0  0  0  0  0  0  0  0  0  0
   42.0861  -11.7229  -10.4723 H   0  0  0  0  0  0  0  0  0  0  0  0
   41.8242  -11.2118   -8.1200 H   0  0  0  0  0  0  0  0  0  0  0  0
   41.1604   -8.9524   -7.3713 H   0  0  0  0  0  0  0  0  0  0  0  0
   40.5012   -6.0981   -9.7767 H   0  0  0  0  0  0  0  0  0  0  0  0
   39.6212   -6.8579   -8.4514 H   0  0  0  0  0  0  0  0  0  0  0  0
   41.2660   -5.2217   -7.7705 H   0  0  0  0  0  0  0  0  0  0  0  0
   42.4644   -6.1200   -8.4166 H   0  0  0  0  0  0  0  0  0  0  0  0
  1  2  2  0
  2  3  1  0
  3  4  2  0
  4  5  1  0
  5  6  2  0
  1  6  1  0
  7  8  2  0
  8  9  1  0
  9  3  1  0
 10 11  2  0
 11 12  1  0
 12 13  2  0
  7 13  1  0
  8 10  1  0
 15 16  2  0
 16 17  1  0
 14 12  1  0
 17 11  1  0
  1 18  1  0
 18 19  3  0
  9 20  1  0
 20 21  1  0
 21 22  1  0
 22 23  1  0
 22 24  1  0
 23 24  1  0
 16 25  1  0
 26 27  1  0
 27 28  2  0
 28 29  1  0
 29 25  1  0
 26 25  2  0
 27 30  1  0
 30 31  1  0
 30 32  1  0
 30 33  1  0
 29 34  1  0
 36 37  1  0
 37 38  2  0
 38 39  1  0
 35 39  2  0
 35 34  1  0
 34 36  2  0
 39 40  1  0
 40 41  1  0
  2 42  1  0
  4 43  1  0
  5 44  1  0
  6 45  1  0
  7 46  1  0
  9 47  1  6
 10 48  1  0
 13 49  1  0
 17 50  1  0
 20 51  1  0
 21 52  1  0
 21 53  1  0
 22 54  1  0
 23 55  1  0
 23 56  1  0
 24 57  1  0
 24 58  1  0
 26 59  1  0
 35 60  1  0
 36 61  1  0
 37 62  1  0
 38 63  1  0
 40 64  1  0
 40 65  1  0
 41 66  1  0
 41 67  1  0
M  END
> <Uni-Dock RESULT> 
ENERGY=   -3.033  LOWER_BOUND=    3.554  UPPER_BOUND=    9.675
INTER + INTRA:          -3.033
INTER:                  -3.033
INTRA:                   0.000
UNBOUND:                 0.000

$$$$

     RDKit          3D

 67 71  0  0  0  0  0  0  0  0999 V2000
   41.7297   -7.7808   -9.8489 C   0  0  0  0  0  0  0  0  0  0  0  0
   41.8874   -8.3587  -11.1153 C   0  0  0  0  0  0  0  0  0  0  0  0
   43.0810   -9.0139  -11.4633 C   0  0  0  0  0  0  0  0  0  0  0  0
   44.1089   -9.0813  -10.5076 C   0  0  0  0  0  0  0  0  0  0  0  0
   43.9559   -8.5027   -9.2458 C   0  0  0  0  0  0  0  0  0  0  0  0
   42.7674   -7.8533   -8.9157 C   0  0  0  0  0  0  0  0  0  0  0  0
   41.5855  -11.6135  -12.9427 C   0  0  0  0  0  0  0  0  0  0  0  0
   42.9053  -11.1697  -12.7395 C   0  0  0  0  0  0  0  0  0  0  0  0
   43.2191   -9.6703  -12.8362 C   0  0  2  0  0  0  0  0  0  0  0  0
   43.8982  -12.1144  -12.3971 C   0  0  0  0  0  0  0  0  0  0  0  0
   43.5851  -13.4688  -12.2700 C   0  0  0  0  0  0  0  0  0  0  0  0
   42.2602  -13.8713  -12.4764 C   0  0  0  0  0  0  0  0  0  0  0  0
   41.2642  -12.9626  -12.8117 C   0  0  0  0  0  0  0  0  0  0  0  0
   41.9398  -15.1695  -12.3506 F   0  0  0  0  0  0  0  0  0  0  0  0
   46.5268  -13.3424  -11.9360 O   0  0  0  0  0  0  0  0  0  0  0  0
   45.8802  -14.3721  -11.7960 C   0  0  0  0  0  0  0  0  0  0  0  0
   44.5111  -14.4821  -11.9391 N   0  0  0  0  0  0  0  0  0  0  0  0
   40.5018   -7.1246   -9.5101 C   0  0  0  0  0  0  0  0  0  0  0  0
   39.5023   -6.5978   -9.2452 N   0  0  0  0  0  0  0  0  0  0  0  0
   44.5291   -9.4408  -13.4637 N   0  0  0  0  0  0  0  0  0  0  0  0
   44.7962   -8.0550  -13.8333 C   0  0  0  0  0  0  0  0  0  0  0  0
   44.0094   -7.6395  -15.0391 C   0  0  0  0  0  0  0  0  0  0  0  0
   42.7208   -6.8648  -14.9104 C   0  0  0  0  0  0  0  0  0  0  0  0
   43.9574   -6.1801  -15.4184 C   0  0  0  0  0  0  0  0  0  0  0  0
   46.5025  -15.6282  -11.4556 C   0  0  0  0  0  0  0  0  0  0  0  0
   46.1299  -16.4906  -10.4380 C   0  0  0  0  0  0  0  0  0  0  0  0
   47.1264  -17.4863  -10.3794 C   0  0  0  0  0  0  0  0  0  0  0  0
   48.0551  -17.2745  -11.3235 N   0  0  0  0  0  0  0  0  0  0  0  0
   47.6396  -16.1817  -12.0322 N   0  0  0  0  0  0  0  0  0  0  0  0
   47.2021  -18.6304   -9.4024 C   0  0  0  0  0  0  0  0  0  0  0  0
   47.2698  -19.8391  -10.0207 F   0  0  0  0  0  0  0  0  0  0  0  0
   46.1015  -18.6730   -8.6000 F   0  0  0  0  0  0  0  0  0  0  0  0
   48.2759  -18.5416   -8.5758 F   0  0  0  0  0  0  0  0  0  0  0  0
   48.3419  -15.8471  -13.2356 C   0  0  0  0  0  0  0  0  0  0  0  0
   49.5707  -16.4836  -13.5026 C   0  0  0  0  0  0  0  0  0  0  0  0
   47.8288  -14.9574  -14.1871 C   0  0  0  0  0  0  0  0  0  0  0  0
   48.5428  -14.6859  -15.3582 C   0  0  0  0  0  0  0  0  0  0  0  0
   49.7654  -15.3086  -15.6006 C   0  0  0  0  0  0  0  0  0  0  0  0
   50.2929  -16.2180  -14.6779 C   0  0  0  0  0  0  0  0  0  0  0  0
   51.5951  -16.9257  -14.9577 C   0  0  0  0  0  0  0  0  0  0  0  0
   52.6825  -15.9783  -15.1828 N   0  0  0  0  0  0  0  0  0  0  0  0
   41.0725   -8.3017  -11.8351 H   0  0  0  0  0  0  0  0  0  0  0  0
   45.0428   -9.5879  -10.7495 H   0  0  0  0  0  0  0  0  0  0  0  0
   44.7652   -8.5632   -8.5212 H   0  0  0  0  0  0  0  0  0  0  0  0
   42.6566   -7.4090   -7.9284 H   0  0  0  0  0  0  0  0  0  0  0  0
   40.7982  -10.9057  -13.1945 H   0  0  0  0  0  0  0  0  0  0  0  0
   42.4597   -9.2451  -13.5046 H   0  0  0  0  0  0  0  0  0  0  0  0
   44.9093  -11.7568  -12.2213 H   0  0  0  0  0  0  0  0  0  0  0  0
   40.2475  -13.3105  -12.9615 H   0  0  0  0  0  0  0  0  0  0  0  0
   44.1102  -15.4115  -11.8759 H   0  0  0  0  0  0  0  0  0  0  0  0
   44.6085  -10.0283  -14.2916 H   0  0  0  0  0  0  0  0  0  0  0  0
   44.6423   -7.3709  -12.9905 H   0  0  0  0  0  0  0  0  0  0  0  0
   45.8608   -7.9817  -14.0869 H   0  0  0  0  0  0  0  0  0  0  0  0
   44.1122   -8.3388  -15.8624 H   0  0  0  0  0  0  0  0  0  0  0  0
   41.9298   -7.0715  -15.6234 H   0  0  0  0  0  0  0  0  0  0  0  0
   42.3691   -6.5906  -13.9223 H   0  0  0  0  0  0  0  0  0  0  0  0
   44.4371   -5.4546  -14.7712 H   0  0  0  0  0  0  0  0  0  0  0  0
   44.0030   -5.9300  -16.4726 H   0  0  0  0  0  0  0  0  0  0  0  0
   45.2850  -16.3758   -9.7700 H   0  0  0  0  0  0  0  0  0  0  0  0
   49.9794  -17.2005  -12.7928 H   0  0  0  0  0  0  0  0  0  0  0  0
   46.8702  -14.4647  -14.0817 H   0  0  0  0  0  0  0  0  0  0  0  0
   48.1383  -13.9886  -16.0888 H   0  0  0  0  0  0  0  0  0  0  0  0
   50.3097  -15.0875  -16.5168 H   0  0  0  0  0  0  0  0  0  0  0  0
   51.8618  -17.5817  -14.1214 H   0  0  0  0  0  0  0  0  0  0  0  0
   51.4686  -17.5617  -15.8398 H   0  0  0  0  0  0  0  0  0  0  0  0
   53.5585  -16.4903  -15.2652 H   0  0  0  0  0  0  0  0  0  0  0  0
   52.7723  -15.3863  -14.3576 H   0  0  0  0  0  0  0  0  0  0  0  0
  1  2  2  0
  2  3  1  0
  3  4  2  0
  4  5  1  0
  5  6  2  0
  1  6  1  0
  7  8  2  0
  8  9  1  0
  9  3  1  0
 10 11  2  0
 11 12  1  0
 12 13  2  0
  7 13  1  0
  8 10  1  0
 15 16  2  0
 16 17  1  0
 14 12  1  0
 17 11  1  0
  1 18  1  0
 18 19  3  0
  9 20  1  0
 20 21  1  0
 21 22  1  0
 22 23  1  0
 22 24  1  0
 23 24  1  0
 16 25  1  0
 26 27  1  0
 27 28  2  0
 28 29  1  0
 29 25  1  0
 26 25  2  0
 27 30  1  0
 30 31  1  0
 30 32  1  0
 30 33  1  0
 29 34  1  0
 36 37  1  0
 37 38  2  0
 38 39  1  0
 35 39  2  0
 35 34  1  0
 34 36  2  0
 39 40  1  0
 40 41  1  0
  2 42  1  0
  4 43  1  0
  5 44  1  0
  6 45  1  0
  7 46  1  0
  9 47  1  6
 10 48  1  0
 13 49  1  0
 17 50  1  0
 20 51  1  0
 21 52  1  0
 21 53  1  0
 22 54  1  0
 23 55  1  0
 23 56  1  0
 24 57  1  0
 24 58  1  0
 26 59  1  0
 35 60  1  0
 36 61  1  0
 37 62  1  0
 38 63  1  0
 40 64  1  0
 40 65  1  0
 41 66  1  0
 41 67  1  0
M  END
> <Uni-Dock RESULT> 
ENERGY=   -2.881  LOWER_BOUND=    3.247  UPPER_BOUND=    5.299
INTER + INTRA:          -2.881
INTER:                  -2.881
INTRA:                   0.000
UNBOUND:                 0.000

$$$$

     RDKit          3D

 67 71  0  0  0  0  0  0  0  0999 V2000
   49.1057  -18.3116  -13.9999 C   0  0  0  0  0  0  0  0  0  0  0  0
   47.7382  -18.0133  -13.9419 C   0  0  0  0  0  0  0  0  0  0  0  0
   47.2603  -16.9883  -13.1077 C   0  0  0  0  0  0  0  0  0  0  0  0
   48.1885  -16.2654  -12.3393 C   0  0  0  0  0  0  0  0  0  0  0  0
   49.5518  -16.5632  -12.3921 C   0  0  0  0  0  0  0  0  0  0  0  0
   50.0111  -17.5849  -13.2219 C   0  0  0  0  0  0  0  0  0  0  0  0
   45.1464  -15.7149  -15.3645 C   0  0  0  0  0  0  0  0  0  0  0  0
   45.4804  -15.4693  -14.0198 C   0  0  0  0  0  0  0  0  0  0  0  0
   45.7696  -16.6536  -13.0871 C   0  0  2  0  0  0  0  0  0  0  0  0
   45.5941  -14.1324  -13.5777 C   0  0  0  0  0  0  0  0  0  0  0  0
   45.3707  -13.0672  -14.4517 C   0  0  0  0  0  0  0  0  0  0  0  0
   45.0439  -13.3517  -15.7830 C   0  0  0  0  0  0  0  0  0  0  0  0
   44.9280  -14.6570  -16.2442 C   0  0  0  0  0  0  0  0  0  0  0  0
   44.8333  -12.3389  -16.6396 F   0  0  0  0  0  0  0  0  0  0  0  0
   45.7835  -11.7959  -11.8070 O   0  0  0  0  0  0  0  0  0  0  0  0
   45.6477  -11.1586  -12.8430 C   0  0  0  0  0  0  0  0  0  0  0  0
   45.4547  -11.7031  -14.0973 N   0  0  0  0  0  0  0  0  0  0  0  0
   49.5743  -19.3548  -14.8632 C   0  0  0  0  0  0  0  0  0  0  0  0
   49.9433  -20.2000  -15.5676 N   0  0  0  0  0  0  0  0  0  0  0  0
   45.2457  -16.4060  -11.7355 N   0  0  0  0  0  0  0  0  0  0  0  0
   45.2413  -17.5714  -10.8579 C   0  0  0  0  0  0  0  0  0  0  0  0
   44.1632  -18.5436  -11.2299 C   0  0  0  0  0  0  0  0  0  0  0  0
   44.4571  -19.7623  -12.0700 C   0  0  0  0  0  0  0  0  0  0  0  0
   44.1617  -19.9171  -10.6055 C   0  0  0  0  0  0  0  0  0  0  0  0
   45.6739   -9.7164  -12.8653 C   0  0  0  0  0  0  0  0  0  0  0  0
   46.4348   -8.9125  -13.6976 C   0  0  0  0  0  0  0  0  0  0  0  0
   46.2611   -7.5911  -13.2374 C   0  0  0  0  0  0  0  0  0  0  0  0
   45.4188   -7.5663  -12.1940 N   0  0  0  0  0  0  0  0  0  0  0  0
   44.9992   -8.8543  -12.0088 N   0  0  0  0  0  0  0  0  0  0  0  0
   46.9207   -6.3517  -13.7832 C   0  0  0  0  0  0  0  0  0  0  0  0
   46.0201   -5.4051  -14.1583 F   0  0  0  0  0  0  0  0  0  0  0  0
   47.6648   -6.6307  -14.8902 F   0  0  0  0  0  0  0  0  0  0  0  0
   47.7640   -5.7722  -12.8905 F   0  0  0  0  0  0  0  0  0  0  0  0
   43.9325   -9.0931  -11.0823 C   0  0  0  0  0  0  0  0  0  0  0  0
   43.5384   -8.0510  -10.2191 C   0  0  0  0  0  0  0  0  0  0  0  0
   43.2250  -10.3005  -11.0399 C   0  0  0  0  0  0  0  0  0  0  0  0
   42.1740  -10.4722  -10.1340 C   0  0  0  0  0  0  0  0  0  0  0  0
   41.8069   -9.4396   -9.2735 C   0  0  0  0  0  0  0  0  0  0  0  0
   42.4819   -8.2149   -9.3078 C   0  0  0  0  0  0  0  0  0  0  0  0
   42.0590   -7.0811   -8.4076 C   0  0  0  0  0  0  0  0  0  0  0  0
   42.1005   -7.4693   -7.0011 N   0  0  0  0  0  0  0  0  0  0  0  0
   47.0399  -18.5813  -14.5545 H   0  0  0  0  0  0  0  0  0  0  0  0
   47.8455  -15.4620  -11.6879 H   0  0  0  0  0  0  0  0  0  0  0  0
   50.2539  -15.9937  -11.7867 H   0  0  0  0  0  0  0  0  0  0  0  0
   51.0759  -17.8065  -13.2589 H   0  0  0  0  0  0  0  0  0  0  0  0
   45.0650  -16.7347  -15.7351 H   0  0  0  0  0  0  0  0  0  0  0  0
   45.2146  -17.5057  -13.4996 H   0  0  0  0  0  0  0  0  0  0  0  0
   45.8738  -13.9553  -12.5426 H   0  0  0  0  0  0  0  0  0  0  0  0
   44.6757  -14.8396  -17.2835 H   0  0  0  0  0  0  0  0  0  0  0  0
   45.2746  -11.0601  -14.8606 H   0  0  0  0  0  0  0  0  0  0  0  0
   44.2985  -16.0393  -11.8082 H   0  0  0  0  0  0  0  0  0  0  0  0
   46.2256  -18.0519  -10.8127 H   0  0  0  0  0  0  0  0  0  0  0  0
   45.0352  -17.2164   -9.8409 H   0  0  0  0  0  0  0  0  0  0  0  0
   43.1929  -18.0684  -11.3299 H   0  0  0  0  0  0  0  0  0  0  0  0
   43.6996  -20.0890  -12.7745 H   0  0  0  0  0  0  0  0  0  0  0  0
   45.4752  -19.9431  -12.3952 H   0  0  0  0  0  0  0  0  0  0  0  0
   44.9797  -20.1940   -9.9500 H   0  0  0  0  0  0  0  0  0  0  0  0
   43.2052  -20.3423  -10.3222 H   0  0  0  0  0  0  0  0  0  0  0  0
   47.0935   -9.2435  -14.4912 H   0  0  0  0  0  0  0  0  0  0  0  0
   44.0533   -7.0925  -10.2503 H   0  0  0  0  0  0  0  0  0  0  0  0
   43.4319  -11.1324  -11.7017 H   0  0  0  0  0  0  0  0  0  0  0  0
   41.6341  -11.4163  -10.1047 H   0  0  0  0  0  0  0  0  0  0  0  0
   40.9866   -9.5879   -8.5739 H   0  0  0  0  0  0  0  0  0  0  0  0
   42.7088   -6.2114   -8.5562 H   0  0  0  0  0  0  0  0  0  0  0  0
   41.0431   -6.7756   -8.6784 H   0  0  0  0  0  0  0  0  0  0  0  0
   41.9094   -6.6524   -6.4244 H   0  0  0  0  0  0  0  0  0  0  0  0
   43.0495   -7.7652   -6.7746 H   0  0  0  0  0  0  0  0  0  0  0  0
  1  2  2  0
  2  3  1  0
  3  4  2  0
  4  5  1  0
  5  6  2  0
  1  6  1  0
  7  8  2  0
  8  9  1  0
  9  3  1  0
 10 11  2  0
 11 12  1  0
 12 13  2  0
  7 13  1  0
  8 10  1  0
 15 16  2  0
 16 17  1  0
 14 12  1  0
 17 11  1  0
  1 18  1  0
 18 19  3  0
  9 20  1  0
 20 21  1  0
 21 22  1  0
 22 23  1  0
 22 24  1  0
 23 24  1  0
 16 25  1  0
 26 27  1  0
 27 28  2  0
 28 29  1  0
 29 25  1  0
 26 25  2  0
 27 30  1  0
 30 31  1  0
 30 32  1  0
 30 33  1  0
 29 34  1  0
 36 37  1  0
 37 38  2  0
 38 39  1  0
 35 39  2  0
 35 34  1  0
 34 36  2  0
 39 40  1  0
 40 41  1  0
  2 42  1  0
  4 43  1  0
  5 44  1  0
  6 45  1  0
  7 46  1  0
  9 47  1  6
 10 48  1  0
 13 49  1  0
 17 50  1  0
 20 51  1  0
 21 52  1  0
 21 53  1  0
 22 54  1  0
 23 55  1  0
 23 56  1  0
 24 57  1  0
 24 58  1  0
 26 59  1  0
 35 60  1  0
 36 61  1  0
 37 62  1  0
 38 63  1  0
 40 64  1  0
 40 65  1  0
 41 66  1  0
 41 67  1  0
M  END
> <Uni-Dock RESULT> 
ENERGY=   -2.620  LOWER_BOUND=    3.509  UPPER_BOUND=    9.893
INTER + INTRA:          -2.620
INTER:                  -2.620
INTRA:                   0.000
UNBOUND:                 0.000

$$$$

     RDKit          3D

 67 71  0  0  0  0  0  0  0  0999 V2000
   47.9885  -17.8432  -10.2090 C   0  0  0  0  0  0  0  0  0  0  0  0
   47.4482  -17.6066  -11.4797 C   0  0  0  0  0  0  0  0  0  0  0  0
   46.5875  -16.5185  -11.7041 C   0  0  0  0  0  0  0  0  0  0  0  0
   46.2884  -15.6700  -10.6247 C   0  0  0  0  0  0  0  0  0  0  0  0
   46.8224  -15.9058   -9.3561 C   0  0  0  0  0  0  0  0  0  0  0  0
   47.6723  -16.9909   -9.1476 C   0  0  0  0  0  0  0  0  0  0  0  0
   47.9884  -15.6101  -14.6016 C   0  0  0  0  0  0  0  0  0  0  0  0
   46.8935  -15.1992  -13.8191 C   0  0  0  0  0  0  0  0  0  0  0  0
   46.0387  -16.2560  -13.1057 C   0  0  2  0  0  0  0  0  0  0  0  0
   46.6433  -13.8172  -13.6670 C   0  0  0  0  0  0  0  0  0  0  0  0
   47.4583  -12.8690  -14.2875 C   0  0  0  0  0  0  0  0  0  0  0  0
   48.5401  -13.3166  -15.0551 C   0  0  0  0  0  0  0  0  0  0  0  0
   48.8098  -14.6695  -15.2189 C   0  0  0  0  0  0  0  0  0  0  0  0
   49.3393  -12.4177  -15.6528 F   0  0  0  0  0  0  0  0  0  0  0  0
   45.2814  -11.2902  -13.0427 O   0  0  0  0  0  0  0  0  0  0  0  0
   46.2417  -10.7805  -13.6046 C   0  0  0  0  0  0  0  0  0  0  0  0
   47.2803  -11.4712  -14.1975 N   0  0  0  0  0  0  0  0  0  0  0  0
   48.8710  -18.9530  -10.0023 C   0  0  0  0  0  0  0  0  0  0  0  0
   49.5866  -19.8532   -9.8466 N   0  0  0  0  0  0  0  0  0  0  0  0
   44.6160  -15.8837  -13.1151 N   0  0  0  0  0  0  0  0  0  0  0  0
   43.7038  -16.9420  -12.6955 C   0  0  0  0  0  0  0  0  0  0  0  0
   43.5593  -18.0007  -13.7463 C   0  0  0  0  0  0  0  0  0  0  0  0
   44.3397  -19.2904  -13.6777 C   0  0  0  0  0  0  0  0  0  0  0  0
   42.8638  -19.2937  -13.3991 C   0  0  0  0  0  0  0  0  0  0  0  0
   46.3965   -9.3504  -13.7134 C   0  0  0  0  0  0  0  0  0  0  0  0
   47.5193   -8.6093  -13.3847 C   0  0  0  0  0  0  0  0  0  0  0  0
   47.1434   -7.2546  -13.4907 C   0  0  0  0  0  0  0  0  0  0  0  0
   45.8667   -7.1534  -13.8889 N   0  0  0  0  0  0  0  0  0  0  0  0
   45.4274   -8.4312  -14.0978 N   0  0  0  0  0  0  0  0  0  0  0  0
   48.0014   -6.0540  -13.1880 C   0  0  0  0  0  0  0  0  0  0  0  0
   48.0917   -5.2000  -14.2418 F   0  0  0  0  0  0  0  0  0  0  0  0
   49.2780   -6.4194  -12.8820 F   0  0  0  0  0  0  0  0  0  0  0  0
   47.5433   -5.3379  -12.1291 F   0  0  0  0  0  0  0  0  0  0  0  0
   44.1518   -8.6155  -14.7240 C   0  0  0  0  0  0  0  0  0  0  0  0
   43.2972   -7.5033  -14.8616 C   0  0  0  0  0  0  0  0  0  0  0  0
   43.7433   -9.8432  -15.2589 C   0  0  0  0  0  0  0  0  0  0  0  0
   42.4984   -9.9626  -15.8839 C   0  0  0  0  0  0  0  0  0  0  0  0
   41.6557   -8.8587  -15.9967 C   0  0  0  0  0  0  0  0  0  0  0  0
   42.0459   -7.6145  -15.4904 C   0  0  0  0  0  0  0  0  0  0  0  0
   41.1543   -6.4085  -15.6491 C   0  0  0  0  0  0  0  0  0  0  0  0
   39.8380   -6.6338  -15.0598 N   0  0  0  0  0  0  0  0  0  0  0  0
   47.7030  -18.2728  -12.3024 H   0  0  0  0  0  0  0  0  0  0  0  0
   45.6279  -14.8161  -10.7722 H   0  0  0  0  0  0  0  0  0  0  0  0
   46.5757  -15.2388   -8.5327 H   0  0  0  0  0  0  0  0  0  0  0  0
   48.0864  -17.1637   -8.1561 H   0  0  0  0  0  0  0  0  0  0  0  0
   48.2121  -16.6679  -14.7250 H   0  0  0  0  0  0  0  0  0  0  0  0
   46.1380  -17.1747  -13.6975 H   0  0  0  0  0  0  0  0  0  0  0  0
   45.8079  -13.5117  -13.0426 H   0  0  0  0  0  0  0  0  0  0  0  0
   49.6590  -14.9796  -15.8189 H   0  0  0  0  0  0  0  0  0  0  0  0
   47.9729  -10.9274  -14.7007 H   0  0  0  0  0  0  0  0  0  0  0  0
   44.3598  -15.5736  -14.0506 H   0  0  0  0  0  0  0  0  0  0  0  0
   43.9894  -17.3663  -11.7259 H   0  0  0  0  0  0  0  0  0  0  0  0
   42.7183  -16.4853  -12.5430 H   0  0  0  0  0  0  0  0  0  0  0  0
   43.3290  -17.5870  -14.7226 H   0  0  0  0  0  0  0  0  0  0  0  0
   44.6781  -19.7302  -14.6099 H   0  0  0  0  0  0  0  0  0  0  0  0
   45.0059  -19.4573  -12.8390 H   0  0  0  0  0  0  0  0  0  0  0  0
   42.5414  -19.4556  -12.3767 H   0  0  0  0  0  0  0  0  0  0  0  0
   42.2072  -19.7301  -14.1437 H   0  0  0  0  0  0  0  0  0  0  0  0
   48.4702   -8.9953  -13.0380 H   0  0  0  0  0  0  0  0  0  0  0  0
   43.6016   -6.5306  -14.4794 H   0  0  0  0  0  0  0  0  0  0  0  0
   44.3601  -10.7332  -15.2386 H   0  0  0  0  0  0  0  0  0  0  0  0
   42.1876  -10.9223  -16.2913 H   0  0  0  0  0  0  0  0  0  0  0  0
   40.6897   -8.9668  -16.4861 H   0  0  0  0  0  0  0  0  0  0  0  0
   41.6100   -5.5306  -15.1774 H   0  0  0  0  0  0  0  0  0  0  0  0
   41.0499   -6.1847  -16.7157 H   0  0  0  0  0  0  0  0  0  0  0  0
   39.3045   -5.7675  -15.0954 H   0  0  0  0  0  0  0  0  0  0  0  0
   39.9590   -6.8562  -14.0722 H   0  0  0  0  0  0  0  0  0  0  0  0
  1  2  2  0
  2  3  1  0
  3  4  2  0
  4  5  1  0
  5  6  2  0
  1  6  1  0
  7  8  2  0
  8  9  1  0
  9  3  1  0
 10 11  2  0
 11 12  1  0
 12 13  2  0
  7 13  1  0
  8 10  1  0
 15 16  2  0
 16 17  1  0
 14 12  1  0
 17 11  1  0
  1 18  1  0
 18 19  3  0
  9 20  1  0
 20 21  1  0
 21 22  1  0
 22 23  1  0
 22 24  1  0
 23 24  1  0
 16 25  1  0
 26 27  1  0
 27 28  2  0
 28 29  1  0
 29 25  1  0
 26 25  2  0
 27 30  1  0
 30 31  1  0
 30 32  1  0
 30 33  1  0
 29 34  1  0
 36 37  1  0
 37 38  2  0
 38 39  1  0
 35 39  2  0
 35 34  1  0
 34 36  2  0
 39 40  1  0
 40 41  1  0
  2 42  1  0
  4 43  1  0
  5 44  1  0
  6 45  1  0
  7 46  1  0
  9 47  1  6
 10 48  1  0
 13 49  1  0
 17 50  1  0
 20 51  1  0
 21 52  1  0
 21 53  1  0
 22 54  1  0
 23 55  1  0
 23 56  1  0
 24 57  1  0
 24 58  1  0
 26 59  1  0
 35 60  1  0
 36 61  1  0
 37 62  1  0
 38 63  1  0
 40 64  1  0
 40 65  1  0
 41 66  1  0
 41 67  1  0
M  END
> <Uni-Dock RESULT> 
ENERGY=   -2.046  LOWER_BOUND=    3.426  UPPER_BOUND=   10.568
INTER + INTRA:          -2.046
INTER:                  -2.046
INTRA:                   0.000
UNBOUND:                 0.000

$$$$
