
     RDKit          3D

 67 71  0  0  0  0  0  0  0  0999 V2000
   41.9094  -11.9885  -11.7499 C   0  0  0  0  0  0  0  0  0  0  0  0
   42.6748  -12.9240  -12.4552 C   0  0  0  0  0  0  0  0  0  0  0  0
   42.0623  -13.8457  -13.3252 C   0  0  0  0  0  0  0  0  0  0  0  0
   40.6649  -13.8070  -13.4700 C   0  0  0  0  0  0  0  0  0  0  0  0
   39.9001  -12.8734  -12.7682 C   0  0  0  0  0  0  0  0  0  0  0  0
   40.5204  -11.9660  -11.9094 C   0  0  0  0  0  0  0  0  0  0  0  0
   42.5083  -17.0859  -12.8763 C   0  0  0  0  0  0  0  0  0  0  0  0
   43.3575  -15.9983  -13.1472 C   0  0  0  0  0  0  0  0  0  0  0  0
   42.8833  -14.8869  -14.0869 C   0  0  2  0  0  0  0  0  0  0  0  0
   44.6183  -15.9435  -12.5132 C   0  0  0  0  0  0  0  0  0  0  0  0
   45.0364  -16.9591  -11.6530 C   0  0  0  0  0  0  0  0  0  0  0  0
   44.1647  -18.0262  -11.4101 C   0  0  0  0  0  0  0  0  0  0  0  0
   42.9120  -18.0980  -12.0080 C   0  0  0  0  0  0  0  0  0  0  0  0
   44.5471  -19.0137  -10.5839 F   0  0  0  0  0  0  0  0  0  0  0  0
   47.3419  -15.1069  -11.8295 O   0  0  0  0  0  0  0  0  0  0  0  0
   47.3425  -16.1135  -11.1351 C   0  0  0  0  0  0  0  0  0  0  0  0
   46.2910  -16.9988  -11.0071 N   0  0  0  0  0  0  0  0  0  0  0  0
   42.5435  -11.0558  -10.8645 C   0  0  0  0  0  0  0  0  0  0  0  0
   43.0415  -10.2931  -10.1452 N   0  0  0  0  0  0  0  0  0  0  0  0
   43.9767  -14.2332  -14.8243 N   0  0  0  0  0  0  0  0  0  0  0  0
   44.5235  -15.0802  -15.8808 C   0  0  0  0  0  0  0  0  0  0  0  0
   45.7640  -14.5065  -16.5005 C   0  0  0  0  0  0  0  0  0  0  0  0
   46.1323  -13.0405  -16.4843 C   0  0  0  0  0  0  0  0  0  0  0  0
   46.9083  -14.0191  -15.6446 C   0  0  0  0  0  0  0  0  0  0  0  0
   48.4863  -16.4976  -10.3458 C   0  0  0  0  0  0  0  0  0  0  0  0
   48.4948  -16.8076   -8.9955 C   0  0  0  0  0  0  0  0  0  0  0  0
   49.8477  -16.9714   -8.6362 C   0  0  0  0  0  0  0  0  0  0  0  0
   50.6396  -16.7966   -9.7045 N   0  0  0  0  0  0  0  0  0  0  0  0
   49.8101  -16.5585  -10.7646 N   0  0  0  0  0  0  0  0  0  0  0  0
   50.3863  -17.2758   -7.2627 C   0  0  0  0  0  0  0  0  0  0  0  0
   51.0537  -16.2236   -6.7219 F   0  0  0  0  0  0  0  0  0  0  0  0
   51.2356  -18.3368   -7.2580 F   0  0  0  0  0  0  0  0  0  0  0  0
   49.3835  -17.5847   -6.3925 F   0  0  0  0  0  0  0  0  0  0  0  0
   50.3904  -16.5015  -12.0747 C   0  0  0  0  0  0  0  0  0  0  0  0
   51.7928  -16.4336  -12.1892 C   0  0  0  0  0  0  0  0  0  0  0  0
   49.6289  -16.5578  -13.2464 C   0  0  0  0  0  0  0  0  0  0  0  0
   50.2527  -16.5275  -14.4986 C   0  0  0  0  0  0  0  0  0  0  0  0
   51.6397  -16.4536  -14.5983 C   0  0  0  0  0  0  0  0  0  0  0  0
   52.4252  -16.3999  -13.4436 C   0  0  0  0  0  0  0  0  0  0  0  0
   53.9280  -16.3527  -13.5398 C   0  0  0  0  0  0  0  0  0  0  0  0
   54.5000  -17.6940  -13.5400 N   0  0  0  0  0  0  0  0  0  0  0  0
   43.7582  -12.9402  -12.3312 H   0  0  0  0  0  0  0  0  0  0  0  0
   40.1583  -14.5073  -14.1322 H   0  0  0  0  0  0  0  0  0  0  0  0
   38.8193  -12.8547  -12.8894 H   0  0  0  0  0  0  0  0  0  0  0  0
   39.9147  -11.2430  -11.3660 H   0  0  0  0  0  0  0  0  0  0  0  0
   41.5249  -17.1450  -13.3381 H   0  0  0  0  0  0  0  0  0  0  0  0
   42.2190  -15.3412  -14.8357 H   0  0  0  0  0  0  0  0  0  0  0  0
   45.2575  -15.0891  -12.7191 H   0  0  0  0  0  0  0  0  0  0  0  0
   42.2611  -18.9402  -11.7952 H   0  0  0  0  0  0  0  0  0  0  0  0
   46.4351  -17.8135  -10.4191 H   0  0  0  0  0  0  0  0  0  0  0  0
   43.6100  -13.3893  -15.2601 H   0  0  0  0  0  0  0  0  0  0  0  0
   43.7729  -15.2145  -16.6683 H   0  0  0  0  0  0  0  0  0  0  0  0
   44.7798  -16.0754  -15.5019 H   0  0  0  0  0  0  0  0  0  0  0  0
   46.0345  -15.0728  -17.3872 H   0  0  0  0  0  0  0  0  0  0  0  0
   45.5030  -12.3280  -15.9653 H   0  0  0  0  0  0  0  0  0  0  0  0
   46.6192  -12.6314  -17.3623 H   0  0  0  0  0  0  0  0  0  0  0  0
   47.9173  -14.2662  -15.9519 H   0  0  0  0  0  0  0  0  0  0  0  0
   46.7790  -13.9751  -14.5684 H   0  0  0  0  0  0  0  0  0  0  0  0
   47.6371  -16.8450   -8.3349 H   0  0  0  0  0  0  0  0  0  0  0  0
   52.4164  -16.3941  -11.2955 H   0  0  0  0  0  0  0  0  0  0  0  0
   48.5501  -16.6487  -13.2479 H   0  0  0  0  0  0  0  0  0  0  0  0
   49.6479  -16.5671  -15.4012 H   0  0  0  0  0  0  0  0  0  0  0  0
   52.1056  -16.4385  -15.5815 H   0  0  0  0  0  0  0  0  0  0  0  0
   54.3412  -15.7784  -12.7032 H   0  0  0  0  0  0  0  0  0  0  0  0
   54.2306  -15.8264  -14.4518 H   0  0  0  0  0  0  0  0  0  0  0  0
   54.0769  -18.2307  -14.2962 H   0  0  0  0  0  0  0  0  0  0  0  0
   54.2171  -18.1665  -12.6816 H   0  0  0  0  0  0  0  0  0  0  0  0
  1  2  2  0
  2  3  1  0
  3  4  2  0
  4  5  1  0
  5  6  2  0
  1  6  1  0
  7  8  2  0
  8  9  1  0
  9  3  1  0
 10 11  2  0
 11 12  1  0
 12 13  2  0
  7 13  1  0
  8 10  1  0
 15 16  2  0
 16 17  1  0
 14 12  1  0
 17 11  1  0
  1 18  1  0
 18 19  3  0
  9 20  1  0
 20 21  1  0
 21 22  1  0
 22 23  1  0
 22 24  1  0
 23 24  1  0
 16 25  1  0
 26 27  1  0
 27 28  2  0
 28 29  1  0
 29 25  1  0
 26 25  2  0
 27 30  1  0
 30 31  1  0
 30 32  1  0
 30 33  1  0
 29 34  1  0
 36 37  1  0
 37 38  2  0
 38 39  1  0
 35 39  2  0
 35 34  1  0
 34 36  2  0
 39 40  1  0
 40 41  1  0
  2 42  1  0
  4 43  1  0
  5 44  1  0
  6 45  1  0
  7 46  1  0
  9 47  1  6
 10 48  1  0
 13 49  1  0
 17 50  1  0
 20 51  1  0
 21 52  1  0
 21 53  1  0
 22 54  1  0
 23 55  1  0
 23 56  1  0
 24 57  1  0
 24 58  1  0
 26 59  1  0
 35 60  1  0
 36 61  1  0
 37 62  1  0
 38 63  1  0
 40 64  1  0
 40 65  1  0
 41 66  1  0
 41 67  1  0
M  END
> <Uni-Dock RESULT> 
ENERGY=   -4.767  LOWER_BOUND=    0.000  UPPER_BOUND=    0.000
INTER + INTRA:          -4.767
INTER:                  -4.767
INTRA:                   0.000
UNBOUND:                 0.000

$$$$

     RDKit          3D

 67 71  0  0  0  0  0  0  0  0999 V2000
   41.5178  -11.7350  -11.4790 C   0  0  0  0  0  0  0  0  0  0  0  0
   42.2843  -12.6161  -12.2500 C   0  0  0  0  0  0  0  0  0  0  0  0
   41.6822  -13.4189  -13.2372 C   0  0  0  0  0  0  0  0  0  0  0  0
   40.2941  -13.3172  -13.4318 C   0  0  0  0  0  0  0  0  0  0  0  0
   39.5282  -12.4376  -12.6644 C   0  0  0  0  0  0  0  0  0  0  0  0
   40.1381  -11.6481  -11.6896 C   0  0  0  0  0  0  0  0  0  0  0  0
   42.0116  -16.7018  -13.1214 C   0  0  0  0  0  0  0  0  0  0  0  0
   42.9037  -15.6213  -13.2405 C   0  0  0  0  0  0  0  0  0  0  0  0
   42.5034  -14.4011  -14.0734 C   0  0  2  0  0  0  0  0  0  0  0  0
   44.1374  -15.6772  -12.5553 C   0  0  0  0  0  0  0  0  0  0  0  0
   44.4879  -16.7920  -11.7933 C   0  0  0  0  0  0  0  0  0  0  0  0
   43.5752  -17.8483  -11.7006 C   0  0  0  0  0  0  0  0  0  0  0  0
   42.3475  -17.8134  -12.3515 C   0  0  0  0  0  0  0  0  0  0  0  0
   43.8923  -18.9303  -10.9707 F   0  0  0  0  0  0  0  0  0  0  0  0
   46.8531  -15.0116  -11.6795 O   0  0  0  0  0  0  0  0  0  0  0  0
   46.7941  -16.0856  -11.0976 C   0  0  0  0  0  0  0  0  0  0  0  0
   45.7121  -16.9428  -11.1066 N   0  0  0  0  0  0  0  0  0  0  0  0
   42.1411  -10.9236  -10.4744 C   0  0  0  0  0  0  0  0  0  0  0  0
   42.6306  -10.2589   -9.6586 N   0  0  0  0  0  0  0  0  0  0  0  0
   43.6464  -13.7107  -14.6930 N   0  0  0  0  0  0  0  0  0  0  0  0
   44.2122  -14.4593  -15.8120 C   0  0  0  0  0  0  0  0  0  0  0  0
   45.4946  -13.8659  -16.3174 C   0  0  0  0  0  0  0  0  0  0  0  0
   45.9055  -12.4234  -16.1296 C   0  0  0  0  0  0  0  0  0  0  0  0
   46.6154  -13.5114  -15.3699 C   0  0  0  0  0  0  0  0  0  0  0  0
   47.8911  -16.5901  -10.3098 C   0  0  0  0  0  0  0  0  0  0  0  0
   47.8328  -17.0414   -9.0013 C   0  0  0  0  0  0  0  0  0  0  0  0
   49.1636  -17.2887   -8.6088 C   0  0  0  0  0  0  0  0  0  0  0  0
   50.0052  -17.0289   -9.6203 N   0  0  0  0  0  0  0  0  0  0  0  0
   49.2292  -16.6515  -10.6804 N   0  0  0  0  0  0  0  0  0  0  0  0
   49.6338  -17.7552   -7.2558 C   0  0  0  0  0  0  0  0  0  0  0  0
   50.3087  -16.7896   -6.5795 F   0  0  0  0  0  0  0  0  0  0  0  0
   50.4501  -18.8392   -7.3317 F   0  0  0  0  0  0  0  0  0  0  0  0
   48.5861  -18.1200   -6.4637 F   0  0  0  0  0  0  0  0  0  0  0  0
   49.8663  -16.4760  -11.9531 C   0  0  0  0  0  0  0  0  0  0  0  0
   51.2737  -16.4444  -12.0046 C   0  0  0  0  0  0  0  0  0  0  0  0
   49.1542  -16.3817  -13.1530 C   0  0  0  0  0  0  0  0  0  0  0  0
   49.8314  -16.2402  -14.3693 C   0  0  0  0  0  0  0  0  0  0  0  0
   51.2230  -16.2038  -14.4060 C   0  0  0  0  0  0  0  0  0  0  0  0
   51.9597  -16.2997  -13.2224 C   0  0  0  0  0  0  0  0  0  0  0  0
   53.4661  -16.2940  -13.2538 C   0  0  0  0  0  0  0  0  0  0  0  0
   53.9972  -17.6465  -13.3755 N   0  0  0  0  0  0  0  0  0  0  0  0
   43.3604  -12.6824  -12.0861 H   0  0  0  0  0  0  0  0  0  0  0  0
   39.7955  -13.9256  -14.1847 H   0  0  0  0  0  0  0  0  0  0  0  0
   38.4546  -12.3691  -12.8252 H   0  0  0  0  0  0  0  0  0  0  0  0
   39.5317  -10.9664  -11.0959 H   0  0  0  0  0  0  0  0  0  0  0  0
   41.0476  -16.6779  -13.6251 H   0  0  0  0  0  0  0  0  0  0  0  0
   41.8585  -14.7504  -14.8921 H   0  0  0  0  0  0  0  0  0  0  0  0
   44.8100  -14.8282  -12.6431 H   0  0  0  0  0  0  0  0  0  0  0  0
   41.6633  -18.6506  -12.2559 H   0  0  0  0  0  0  0  0  0  0  0  0
   45.8065  -17.8197  -10.6042 H   0  0  0  0  0  0  0  0  0  0  0  0
   43.3239  -12.8133  -15.0498 H   0  0  0  0  0  0  0  0  0  0  0  0
   43.4922  -14.4836  -16.6382 H   0  0  0  0  0  0  0  0  0  0  0  0
   44.4222  -15.4972  -15.5323 H   0  0  0  0  0  0  0  0  0  0  0  0
   45.7856  -14.3440  -17.2485 H   0  0  0  0  0  0  0  0  0  0  0  0
   45.2762  -11.7487  -15.5622 H   0  0  0  0  0  0  0  0  0  0  0  0
   46.4414  -11.9405  -16.9389 H   0  0  0  0  0  0  0  0  0  0  0  0
   47.6287  -13.7590  -15.6622 H   0  0  0  0  0  0  0  0  0  0  0  0
   46.4417  -13.5773  -14.3011 H   0  0  0  0  0  0  0  0  0  0  0  0
   46.9469  -17.1193   -8.3826 H   0  0  0  0  0  0  0  0  0  0  0  0
   51.8596  -16.5212  -11.0880 H   0  0  0  0  0  0  0  0  0  0  0  0
   48.0742  -16.4349  -13.2066 H   0  0  0  0  0  0  0  0  0  0  0  0
   49.2648  -16.1633  -15.2940 H   0  0  0  0  0  0  0  0  0  0  0  0
   51.7307  -16.1006  -15.3629 H   0  0  0  0  0  0  0  0  0  0  0  0
   53.8602  -15.8261  -12.3450 H   0  0  0  0  0  0  0  0  0  0  0  0
   53.8229  -15.6847  -14.0915 H   0  0  0  0  0  0  0  0  0  0  0  0
   53.5909  -18.0853  -14.2009 H   0  0  0  0  0  0  0  0  0  0  0  0
   53.6639  -18.1973  -12.5845 H   0  0  0  0  0  0  0  0  0  0  0  0
  1  2  2  0
  2  3  1  0
  3  4  2  0
  4  5  1  0
  5  6  2  0
  1  6  1  0
  7  8  2  0
  8  9  1  0
  9  3  1  0
 10 11  2  0
 11 12  1  0
 12 13  2  0
  7 13  1  0
  8 10  1  0
 15 16  2  0
 16 17  1  0
 14 12  1  0
 17 11  1  0
  1 18  1  0
 18 19  3  0
  9 20  1  0
 20 21  1  0
 21 22  1  0
 22 23  1  0
 22 24  1  0
 23 24  1  0
 16 25  1  0
 26 27  1  0
 27 28  2  0
 28 29  1  0
 29 25  1  0
 26 25  2  0
 27 30  1  0
 30 31  1  0
 30 32  1  0
 30 33  1  0
 29 34  1  0
 36 37  1  0
 37 38  2  0
 38 39  1  0
 35 39  2  0
 35 34  1  0
 34 36  2  0
 39 40  1  0
 40 41  1  0
  2 42  1  0
  4 43  1  0
  5 44  1  0
  6 45  1  0
  7 46  1  0
  9 47  1  6
 10 48  1  0
 13 49  1  0
 17 50  1  0
 20 51  1  0
 21 52  1  0
 21 53  1  0
 22 54  1  0
 23 55  1  0
 23 56  1  0
 24 57  1  0
 24 58  1  0
 26 59  1  0
 35 60  1  0
 36 61  1  0
 37 62  1  0
 38 63  1  0
 40 64  1  0
 40 65  1  0
 41 66  1  0
 41 67  1  0
M  END
> <Uni-Dock RESULT> 
ENERGY=   -4.471  LOWER_BOUND=    0.651  UPPER_BOUND=    0.651
INTER + INTRA:          -4.471
INTER:                  -4.471
INTRA:                   0.000
UNBOUND:                 0.000

$$$$

     RDKit          3D

 67 71  0  0  0  0  0  0  0  0999 V2000
   41.4151  -12.9830  -12.4050 C   0  0  0  0  0  0  0  0  0  0  0  0
   42.2672  -13.9391  -12.9688 C   0  0  0  0  0  0  0  0  0  0  0  0
   41.7466  -15.0385  -13.6773 C   0  0  0  0  0  0  0  0  0  0  0  0
   40.3521  -15.1560  -13.8058 C   0  0  0  0  0  0  0  0  0  0  0  0
   39.5007  -14.2021  -13.2451 C   0  0  0  0  0  0  0  0  0  0  0  0
   40.0304  -13.1178  -12.5456 C   0  0  0  0  0  0  0  0  0  0  0  0
   42.5027  -18.1128  -12.7411 C   0  0  0  0  0  0  0  0  0  0  0  0
   43.2432  -17.0043  -13.1888 C   0  0  0  0  0  0  0  0  0  0  0  0
   42.6643  -16.1021  -14.2814 C   0  0  2  0  0  0  0  0  0  0  0  0
   44.4927  -16.7322  -12.5894 C   0  0  0  0  0  0  0  0  0  0  0  0
   45.0065  -17.5579  -11.5893 C   0  0  0  0  0  0  0  0  0  0  0  0
   44.2417  -18.6527  -11.1720 C   0  0  0  0  0  0  0  0  0  0  0  0
   43.0018  -18.9352  -11.7333 C   0  0  0  0  0  0  0  0  0  0  0  0
   44.7173  -19.4594  -10.2092 F   0  0  0  0  0  0  0  0  0  0  0  0
   47.1228  -15.5444  -12.0829 O   0  0  0  0  0  0  0  0  0  0  0  0
   47.2203  -16.4266  -11.2417 C   0  0  0  0  0  0  0  0  0  0  0  0
   46.2590  -17.3775  -10.9634 N   0  0  0  0  0  0  0  0  0  0  0  0
   41.9562  -11.8683  -11.6832 C   0  0  0  0  0  0  0  0  0  0  0  0
   42.3782  -10.9596  -11.0975 N   0  0  0  0  0  0  0  0  0  0  0  0
   43.6898  -15.4693  -15.1268 N   0  0  0  0  0  0  0  0  0  0  0  0
   44.3160  -16.4136  -16.0481 C   0  0  0  0  0  0  0  0  0  0  0  0
   45.4955  -15.8272  -16.7670 C   0  0  0  0  0  0  0  0  0  0  0  0
   45.7208  -14.3481  -16.9822 C   0  0  0  0  0  0  0  0  0  0  0  0
   46.5873  -15.1065  -16.0133 C   0  0  0  0  0  0  0  0  0  0  0  0
   48.3956  -16.5732  -10.4196 C   0  0  0  0  0  0  0  0  0  0  0  0
   48.4336  -16.6682   -9.0380 C   0  0  0  0  0  0  0  0  0  0  0  0
   49.7960  -16.6448   -8.6776 C   0  0  0  0  0  0  0  0  0  0  0  0
   50.5675  -16.5629   -9.7716 N   0  0  0  0  0  0  0  0  0  0  0  0
   49.7192  -16.5718  -10.8434 N   0  0  0  0  0  0  0  0  0  0  0  0
   50.3610  -16.6803   -7.2817 C   0  0  0  0  0  0  0  0  0  0  0  0
   50.9239  -15.4982   -6.9194 F   0  0  0  0  0  0  0  0  0  0  0  0
   51.3087  -17.6420   -7.1261 F   0  0  0  0  0  0  0  0  0  0  0  0
   49.3925  -16.9448   -6.3596 F   0  0  0  0  0  0  0  0  0  0  0  0
   50.2916  -16.6633  -12.1551 C   0  0  0  0  0  0  0  0  0  0  0  0
   51.6810  -16.4807  -12.2993 C   0  0  0  0  0  0  0  0  0  0  0  0
   49.5394  -16.9726  -13.2928 C   0  0  0  0  0  0  0  0  0  0  0  0
   50.1576  -17.0771  -14.5437 C   0  0  0  0  0  0  0  0  0  0  0  0
   51.5310  -16.8879  -14.6740 C   0  0  0  0  0  0  0  0  0  0  0  0
   52.3074  -16.5815  -13.5530 C   0  0  0  0  0  0  0  0  0  0  0  0
   53.7988  -16.4068  -13.6774 C   0  0  0  0  0  0  0  0  0  0  0  0
   54.4973  -17.6713  -13.4793 N   0  0  0  0  0  0  0  0  0  0  0  0
   43.3471  -13.8327  -12.8598 H   0  0  0  0  0  0  0  0  0  0  0  0
   39.9154  -15.9954  -14.3447 H   0  0  0  0  0  0  0  0  0  0  0  0
   38.4231  -14.3054  -13.3519 H   0  0  0  0  0  0  0  0  0  0  0  0
   39.3577  -12.3804  -12.1112 H   0  0  0  0  0  0  0  0  0  0  0  0
   41.5297  -18.3361  -13.1738 H   0  0  0  0  0  0  0  0  0  0  0  0
   42.0471  -16.7280  -14.9415 H   0  0  0  0  0  0  0  0  0  0  0  0
   45.0466  -15.8630  -12.9339 H   0  0  0  0  0  0  0  0  0  0  0  0
   42.4351  -19.7924  -11.3837 H   0  0  0  0  0  0  0  0  0  0  0  0
   46.4808  -18.0738  -10.2591 H   0  0  0  0  0  0  0  0  0  0  0  0
   43.2435  -14.7418  -15.6820 H   0  0  0  0  0  0  0  0  0  0  0  0
   43.5819  -16.7391  -16.7944 H   0  0  0  0  0  0  0  0  0  0  0  0
   44.6668  -17.3092  -15.5242 H   0  0  0  0  0  0  0  0  0  0  0  0
   45.8195  -16.4956  -17.5597 H   0  0  0  0  0  0  0  0  0  0  0  0
   45.0256  -13.6270  -16.5700 H   0  0  0  0  0  0  0  0  0  0  0  0
   46.1662  -14.0353  -17.9199 H   0  0  0  0  0  0  0  0  0  0  0  0
   47.6155  -15.3009  -16.2936 H   0  0  0  0  0  0  0  0  0  0  0  0
   46.4541  -14.9089  -14.9549 H   0  0  0  0  0  0  0  0  0  0  0  0
   47.5834  -16.6844   -8.3669 H   0  0  0  0  0  0  0  0  0  0  0  0
   52.2977  -16.2441  -11.4316 H   0  0  0  0  0  0  0  0  0  0  0  0
   48.4743  -17.1650  -13.2644 H   0  0  0  0  0  0  0  0  0  0  0  0
   49.5596  -17.3135  -15.4205 H   0  0  0  0  0  0  0  0  0  0  0  0
   51.9936  -16.9808  -15.6545 H   0  0  0  0  0  0  0  0  0  0  0  0
   54.1545  -15.6732  -12.9455 H   0  0  0  0  0  0  0  0  0  0  0  0
   54.0494  -16.0016  -14.6639 H   0  0  0  0  0  0  0  0  0  0  0  0
   54.1281  -18.3565  -14.1375 H   0  0  0  0  0  0  0  0  0  0  0  0
   54.2611  -18.0300  -12.5543 H   0  0  0  0  0  0  0  0  0  0  0  0
  1  2  2  0
  2  3  1  0
  3  4  2  0
  4  5  1  0
  5  6  2  0
  1  6  1  0
  7  8  2  0
  8  9  1  0
  9  3  1  0
 10 11  2  0
 11 12  1  0
 12 13  2  0
  7 13  1  0
  8 10  1  0
 15 16  2  0
 16 17  1  0
 14 12  1  0
 17 11  1  0
  1 18  1  0
 18 19  3  0
  9 20  1  0
 20 21  1  0
 21 22  1  0
 22 23  1  0
 22 24  1  0
 23 24  1  0
 16 25  1  0
 26 27  1  0
 27 28  2  0
 28 29  1  0
 29 25  1  0
 26 25  2  0
 27 30  1  0
 30 31  1  0
 30 32  1  0
 30 33  1  0
 29 34  1  0
 36 37  1  0
 37 38  2  0
 38 39  1  0
 35 39  2  0
 35 34  1  0
 34 36  2  0
 39 40  1  0
 40 41  1  0
  2 42  1  0
  4 43  1  0
  5 44  1  0
  6 45  1  0
  7 46  1  0
  9 47  1  6
 10 48  1  0
 13 49  1  0
 17 50  1  0
 20 51  1  0
 21 52  1  0
 21 53  1  0
 22 54  1  0
 23 55  1  0
 23 56  1  0
 24 57  1  0
 24 58  1  0
 26 59  1  0
 35 60  1  0
 36 61  1  0
 37 62  1  0
 38 63  1  0
 40 64  1  0
 40 65  1  0
 41 66  1  0
 41 67  1  0
M  END
> <Uni-Dock RESULT> 
ENERGY=   -4.457  LOWER_BOUND=    0.787  UPPER_BOUND=    0.900
INTER + INTRA:          -4.457
INTER:                  -4.457
INTRA:                   0.000
UNBOUND:                 0.000

$$$$

     RDKit          3D

 67 71  0  0  0  0  0  0  0  0999 V2000
   51.1114  -16.5990   -6.7547 C   0  0  0  0  0  0  0  0  0  0  0  0
   50.1671  -17.1811   -7.6079 C   0  0  0  0  0  0  0  0  0  0  0  0
   50.2376  -18.5489   -7.9330 C   0  0  0  0  0  0  0  0  0  0  0  0
   51.2774  -19.3178   -7.3830 C   0  0  0  0  0  0  0  0  0  0  0  0
   52.2193  -18.7389   -6.5306 C   0  0  0  0  0  0  0  0  0  0  0  0
   52.1373  -17.3823   -6.2169 C   0  0  0  0  0  0  0  0  0  0  0  0
   50.4336  -19.4859  -11.0926 C   0  0  0  0  0  0  0  0  0  0  0  0
   49.4914  -18.7754  -10.3278 C   0  0  0  0  0  0  0  0  0  0  0  0
   49.2251  -19.1944   -8.8798 C   0  0  2  0  0  0  0  0  0  0  0  0
   48.8387  -17.6660  -10.9091 C   0  0  0  0  0  0  0  0  0  0  0  0
   49.0952  -17.2894  -12.2276 C   0  0  0  0  0  0  0  0  0  0  0  0
   50.0374  -18.0222  -12.9576 C   0  0  0  0  0  0  0  0  0  0  0  0
   50.7062  -19.1087  -12.4059 C   0  0  0  0  0  0  0  0  0  0  0  0
   50.3004  -17.6753  -14.2283 F   0  0  0  0  0  0  0  0  0  0  0  0
   46.9634  -15.4501  -11.3063 O   0  0  0  0  0  0  0  0  0  0  0  0
   47.4593  -15.3954  -12.4228 C   0  0  0  0  0  0  0  0  0  0  0  0
   48.4630  -16.2176  -12.8943 N   0  0  0  0  0  0  0  0  0  0  0  0
   51.0314  -15.2042   -6.4321 C   0  0  0  0  0  0  0  0  0  0  0  0
   50.9798  -14.0771   -6.1599 N   0  0  0  0  0  0  0  0  0  0  0  0
   47.8530  -18.9114   -8.4281 N   0  0  0  0  0  0  0  0  0  0  0  0
   46.8722  -19.8203   -9.0151 C   0  0  0  0  0  0  0  0  0  0  0  0
   45.4574  -19.4150   -8.7217 C   0  0  0  0  0  0  0  0  0  0  0  0
   45.0366  -18.5510   -7.5550 C   0  0  0  0  0  0  0  0  0  0  0  0
   44.9889  -17.9987   -8.9541 C   0  0  0  0  0  0  0  0  0  0  0  0
   47.0315  -14.4290  -13.4034 C   0  0  0  0  0  0  0  0  0  0  0  0
   47.8405  -13.5629  -14.1209 C   0  0  0  0  0  0  0  0  0  0  0  0
   46.9730  -12.7135  -14.8367 C   0  0  0  0  0  0  0  0  0  0  0  0
   45.6948  -13.0430  -14.5990 N   0  0  0  0  0  0  0  0  0  0  0  0
   45.7242  -14.1251  -13.7644 N   0  0  0  0  0  0  0  0  0  0  0  0
   47.3672  -11.5701  -15.7347 C   0  0  0  0  0  0  0  0  0  0  0  0
   47.0485  -10.3605  -15.2051 F   0  0  0  0  0  0  0  0  0  0  0  0
   46.7808  -11.6410  -16.9587 F   0  0  0  0  0  0  0  0  0  0  0  0
   48.7123  -11.5519  -15.9554 F   0  0  0  0  0  0  0  0  0  0  0  0
   44.4864  -14.7914  -13.4810 C   0  0  0  0  0  0  0  0  0  0  0  0
   43.2815  -14.1639  -13.8539 C   0  0  0  0  0  0  0  0  0  0  0  0
   44.4226  -16.0586  -12.8929 C   0  0  0  0  0  0  0  0  0  0  0  0
   43.1859  -16.6729  -12.6665 C   0  0  0  0  0  0  0  0  0  0  0  0
   42.0015  -16.0391  -13.0338 C   0  0  0  0  0  0  0  0  0  0  0  0
   42.0363  -14.7741  -13.6267 C   0  0  0  0  0  0  0  0  0  0  0  0
   40.7629  -14.0936  -14.0575 C   0  0  0  0  0  0  0  0  0  0  0  0
   40.4229  -14.4316  -15.4346 N   0  0  0  0  0  0  0  0  0  0  0  0
   49.3664  -16.5699   -8.0259 H   0  0  0  0  0  0  0  0  0  0  0  0
   51.3635  -20.3780   -7.6158 H   0  0  0  0  0  0  0  0  0  0  0  0
   53.0193  -19.3457   -6.1119 H   0  0  0  0  0  0  0  0  0  0  0  0
   52.8776  -16.9405   -5.5523 H   0  0  0  0  0  0  0  0  0  0  0  0
   50.9632  -20.3343  -10.6643 H   0  0  0  0  0  0  0  0  0  0  0  0
   49.3656  -20.2827   -8.8141 H   0  0  0  0  0  0  0  0  0  0  0  0
   48.1251  -17.1163  -10.3011 H   0  0  0  0  0  0  0  0  0  0  0  0
   51.4321  -19.6532  -13.0013 H   0  0  0  0  0  0  0  0  0  0  0  0
   48.7638  -16.0843  -13.8545 H   0  0  0  0  0  0  0  0  0  0  0  0
   47.8182  -19.0263   -7.4170 H   0  0  0  0  0  0  0  0  0  0  0  0
   47.0308  -20.8324   -8.6250 H   0  0  0  0  0  0  0  0  0  0  0  0
   46.9767  -19.8709  -10.1042 H   0  0  0  0  0  0  0  0  0  0  0  0
   44.7732  -20.2031   -9.0235 H   0  0  0  0  0  0  0  0  0  0  0  0
   45.7826  -18.1437   -6.8837 H   0  0  0  0  0  0  0  0  0  0  0  0
   44.0942  -18.7796   -7.0702 H   0  0  0  0  0  0  0  0  0  0  0  0
   44.0177  -17.8504   -9.4105 H   0  0  0  0  0  0  0  0  0  0  0  0
   45.7171  -17.2409   -9.2232 H   0  0  0  0  0  0  0  0  0  0  0  0
   48.9216  -13.5055  -14.0821 H   0  0  0  0  0  0  0  0  0  0  0  0
   43.2960  -13.1780  -14.3198 H   0  0  0  0  0  0  0  0  0  0  0  0
   45.3007  -16.6257  -12.6110 H   0  0  0  0  0  0  0  0  0  0  0  0
   43.1510  -17.6562  -12.2041 H   0  0  0  0  0  0  0  0  0  0  0  0
   41.0505  -16.5370  -12.8558 H   0  0  0  0  0  0  0  0  0  0  0  0
   40.8653  -13.0070  -13.9616 H   0  0  0  0  0  0  0  0  0  0  0  0
   39.9389  -14.3832  -13.3961 H   0  0  0  0  0  0  0  0  0  0  0  0
   40.3720  -15.4460  -15.5202 H   0  0  0  0  0  0  0  0  0  0  0  0
   41.1949  -14.1476  -16.0374 H   0  0  0  0  0  0  0  0  0  0  0  0
  1  2  2  0
  2  3  1  0
  3  4  2  0
  4  5  1  0
  5  6  2  0
  1  6  1  0
  7  8  2  0
  8  9  1  0
  9  3  1  0
 10 11  2  0
 11 12  1  0
 12 13  2  0
  7 13  1  0
  8 10  1  0
 15 16  2  0
 16 17  1  0
 14 12  1  0
 17 11  1  0
  1 18  1  0
 18 19  3  0
  9 20  1  0
 20 21  1  0
 21 22  1  0
 22 23  1  0
 22 24  1  0
 23 24  1  0
 16 25  1  0
 26 27  1  0
 27 28  2  0
 28 29  1  0
 29 25  1  0
 26 25  2  0
 27 30  1  0
 30 31  1  0
 30 32  1  0
 30 33  1  0
 29 34  1  0
 36 37  1  0
 37 38  2  0
 38 39  1  0
 35 39  2  0
 35 34  1  0
 34 36  2  0
 39 40  1  0
 40 41  1  0
  2 42  1  0
  4 43  1  0
  5 44  1  0
  6 45  1  0
  7 46  1  0
  9 47  1  6
 10 48  1  0
 13 49  1  0
 17 50  1  0
 20 51  1  0
 21 52  1  0
 21 53  1  0
 22 54  1  0
 23 55  1  0
 23 56  1  0
 24 57  1  0
 24 58  1  0
 26 59  1  0
 35 60  1  0
 36 61  1  0
 37 62  1  0
 38 63  1  0
 40 64  1  0
 40 65  1  0
 41 66  1  0
 41 67  1  0
M  END
> <Uni-Dock RESULT> 
ENERGY=   -4.087  LOWER_BOUND=    3.635  UPPER_BOUND=    9.248
INTER + INTRA:          -4.087
INTER:                  -4.087
INTRA:                   0.000
UNBOUND:                 0.000

$$$$

     RDKit          3D

 67 71  0  0  0  0  0  0  0  0999 V2000
   50.8883  -16.3636   -6.8776 C   0  0  0  0  0  0  0  0  0  0  0  0
   49.9715  -16.9658   -7.7466 C   0  0  0  0  0  0  0  0  0  0  0  0
   50.0982  -18.3228   -8.0987 C   0  0  0  0  0  0  0  0  0  0  0  0
   51.1661  -19.0602   -7.5594 C   0  0  0  0  0  0  0  0  0  0  0  0
   52.0807  -18.4612   -6.6913 C   0  0  0  0  0  0  0  0  0  0  0  0
   51.9429  -17.1156   -6.3509 C   0  0  0  0  0  0  0  0  0  0  0  0
   50.3438  -19.1871  -11.2755 C   0  0  0  0  0  0  0  0  0  0  0  0
   49.3709  -18.5307  -10.5009 C   0  0  0  0  0  0  0  0  0  0  0  0
   49.1162  -18.9893   -9.0629 C   0  0  2  0  0  0  0  0  0  0  0  0
   48.6762  -17.4370  -11.0629 C   0  0  0  0  0  0  0  0  0  0  0  0
   48.9223  -17.0239  -12.3724 C   0  0  0  0  0  0  0  0  0  0  0  0
   49.8960  -17.7033  -13.1127 C   0  0  0  0  0  0  0  0  0  0  0  0
   50.6059  -18.7728  -12.5797 C   0  0  0  0  0  0  0  0  0  0  0  0
   50.1496  -17.3204  -14.3749 F   0  0  0  0  0  0  0  0  0  0  0  0
   46.7146  -15.2907  -11.4243 O   0  0  0  0  0  0  0  0  0  0  0  0
   47.2121  -15.1936  -12.5371 C   0  0  0  0  0  0  0  0  0  0  0  0
   48.2499  -15.9650  -13.0204 N   0  0  0  0  0  0  0  0  0  0  0  0
   50.7509  -14.9798   -6.5275 C   0  0  0  0  0  0  0  0  0  0  0  0
   50.6529  -13.8615   -6.2330 N   0  0  0  0  0  0  0  0  0  0  0  0
   47.7321  -18.7709   -8.6119 N   0  0  0  0  0  0  0  0  0  0  0  0
   46.7910  -19.7065   -9.2215 C   0  0  0  0  0  0  0  0  0  0  0  0
   45.3599  -19.3644   -8.9266 C   0  0  0  0  0  0  0  0  0  0  0  0
   44.9002  -18.5418   -7.7447 C   0  0  0  0  0  0  0  0  0  0  0  0
   44.8356  -17.9637   -9.1327 C   0  0  0  0  0  0  0  0  0  0  0  0
   46.7494  -14.2256  -13.5002 C   0  0  0  0  0  0  0  0  0  0  0  0
   47.5255  -13.3134  -14.1965 C   0  0  0  0  0  0  0  0  0  0  0  0
   46.6272  -12.4852  -14.8991 C   0  0  0  0  0  0  0  0  0  0  0  0
   45.3625  -12.8706  -14.6739 N   0  0  0  0  0  0  0  0  0  0  0  0
   45.4323  -13.9673  -13.8610 N   0  0  0  0  0  0  0  0  0  0  0  0
   46.9784  -11.3090  -15.7722 C   0  0  0  0  0  0  0  0  0  0  0  0
   46.6092  -10.1241  -15.2199 F   0  0  0  0  0  0  0  0  0  0  0  0
   46.3999  -11.3787  -17.0000 F   0  0  0  0  0  0  0  0  0  0  0  0
   48.3225  -11.2322  -15.9863 F   0  0  0  0  0  0  0  0  0  0  0  0
   44.2213  -14.6884  -13.5967 C   0  0  0  0  0  0  0  0  0  0  0  0
   42.9935  -14.1025  -13.9625 C   0  0  0  0  0  0  0  0  0  0  0  0
   44.2064  -15.9688  -13.0344 C   0  0  0  0  0  0  0  0  0  0  0  0
   42.9946  -16.6368  -12.8260 C   0  0  0  0  0  0  0  0  0  0  0  0
   41.7871  -16.0439  -13.1860 C   0  0  0  0  0  0  0  0  0  0  0  0
   41.7730  -14.7668  -13.7533 C   0  0  0  0  0  0  0  0  0  0  0  0
   40.4749  -14.1295  -14.1762 C   0  0  0  0  0  0  0  0  0  0  0  0
   40.1540  -14.4530  -15.5613 N   0  0  0  0  0  0  0  0  0  0  0  0
   49.1484  -16.3790   -8.1560 H   0  0  0  0  0  0  0  0  0  0  0  0
   51.2958  -20.1112   -7.8130 H   0  0  0  0  0  0  0  0  0  0  0  0
   52.9029  -19.0437   -6.2812 H   0  0  0  0  0  0  0  0  0  0  0  0
   52.6623  -16.6579   -5.6742 H   0  0  0  0  0  0  0  0  0  0  0  0
   50.9056  -20.0220  -10.8619 H   0  0  0  0  0  0  0  0  0  0  0  0
   49.3002  -20.0721   -9.0184 H   0  0  0  0  0  0  0  0  0  0  0  0
   47.9387  -16.9289  -10.4474 H   0  0  0  0  0  0  0  0  0  0  0  0
   51.3555  -19.2756  -13.1826 H   0  0  0  0  0  0  0  0  0  0  0  0
   48.5487  -15.8004  -13.9763 H   0  0  0  0  0  0  0  0  0  0  0  0
   47.6981  -18.9075   -7.6035 H   0  0  0  0  0  0  0  0  0  0  0  0
   46.9888  -20.7190   -8.8510 H   0  0  0  0  0  0  0  0  0  0  0  0
   46.9016  -19.7308  -10.3109 H   0  0  0  0  0  0  0  0  0  0  0  0
   44.7092  -20.1731   -9.2472 H   0  0  0  0  0  0  0  0  0  0  0  0
   45.6266  -18.1184   -7.0620 H   0  0  0  0  0  0  0  0  0  0  0  0
   43.9659  -18.8178   -7.2689 H   0  0  0  0  0  0  0  0  0  0  0  0
   43.8609  -17.8454   -9.5905 H   0  0  0  0  0  0  0  0  0  0  0  0
   45.5336  -17.1719   -9.3832 H   0  0  0  0  0  0  0  0  0  0  0  0
   48.6032  -13.2133  -14.1515 H   0  0  0  0  0  0  0  0  0  0  0  0
   42.9700  -13.1077  -14.4085 H   0  0  0  0  0  0  0  0  0  0  0  0
   45.1056  -16.5057  -12.7599 H   0  0  0  0  0  0  0  0  0  0  0  0
   42.9977  -17.6299  -12.3835 H   0  0  0  0  0  0  0  0  0  0  0  0
   40.8562  -16.5831  -13.0224 H   0  0  0  0  0  0  0  0  0  0  0  0
   40.5331  -13.0418  -14.0581 H   0  0  0  0  0  0  0  0  0  0  0  0
   39.6608  -14.4653  -13.5246 H   0  0  0  0  0  0  0  0  0  0  0  0
   40.1444  -15.4668  -15.6675 H   0  0  0  0  0  0  0  0  0  0  0  0
   40.9162  -14.1261  -16.1548 H   0  0  0  0  0  0  0  0  0  0  0  0
  1  2  2  0
  2  3  1  0
  3  4  2  0
  4  5  1  0
  5  6  2  0
  1  6  1  0
  7  8  2  0
  8  9  1  0
  9  3  1  0
 10 11  2  0
 11 12  1  0
 12 13  2  0
  7 13  1  0
  8 10  1  0
 15 16  2  0
 16 17  1  0
 14 12  1  0
 17 11  1  0
  1 18  1  0
 18 19  3  0
  9 20  1  0
 20 21  1  0
 21 22  1  0
 22 23  1  0
 22 24  1  0
 23 24  1  0
 16 25  1  0
 26 27  1  0
 27 28  2  0
 28 29  1  0
 29 25  1  0
 26 25  2  0
 27 30  1  0
 30 31  1  0
 30 32  1  0
 30 33  1  0
 29 34  1  0
 36 37  1  0
 37 38  2  0
 38 39  1  0
 35 39  2  0
 35 34  1  0
 34 36  2  0
 39 40  1  0
 40 41  1  0
  2 42  1  0
  4 43  1  0
  5 44  1  0
  6 45  1  0
  7 46  1  0
  9 47  1  6
 10 48  1  0
 13 49  1  0
 17 50  1  0
 20 51  1  0
 21 52  1  0
 21 53  1  0
 22 54  1  0
 23 55  1  0
 23 56  1  0
 24 57  1  0
 24 58  1  0
 26 59  1  0
 35 60  1  0
 36 61  1  0
 37 62  1  0
 38 63  1  0
 40 64  1  0
 40 65  1  0
 41 66  1  0
 41 67  1  0
M  END
> <Uni-Dock RESULT> 
ENERGY=   -4.013  LOWER_BOUND=    3.617  UPPER_BOUND=    9.236
INTER + INTRA:          -4.013
INTER:                  -4.013
INTRA:                   0.000
UNBOUND:                 0.000

$$$$

     RDKit          3D

 67 71  0  0  0  0  0  0  0  0999 V2000
   48.3356  -16.0191  -14.5693 C   0  0  0  0  0  0  0  0  0  0  0  0
   47.1443  -15.2864  -14.6170 C   0  0  0  0  0  0  0  0  0  0  0  0
   46.4589  -15.1056  -15.8332 C   0  0  0  0  0  0  0  0  0  0  0  0
   46.9971  -15.6763  -16.9993 C   0  0  0  0  0  0  0  0  0  0  0  0
   48.1848  -16.4087  -16.9530 C   0  0  0  0  0  0  0  0  0  0  0  0
   48.8534  -16.5799  -15.7409 C   0  0  0  0  0  0  0  0  0  0  0  0
   45.8119  -12.0581  -16.9255 C   0  0  0  0  0  0  0  0  0  0  0  0
   45.4616  -12.7936  -15.7793 C   0  0  0  0  0  0  0  0  0  0  0  0
   45.1671  -14.2905  -15.9046 C   0  0  2  0  0  0  0  0  0  0  0  0
   45.4255  -12.1342  -14.5309 C   0  0  0  0  0  0  0  0  0  0  0  0
   45.7030  -10.7709  -14.4285 C   0  0  0  0  0  0  0  0  0  0  0  0
   46.0452  -10.0723  -15.5914 C   0  0  0  0  0  0  0  0  0  0  0  0
   46.1039  -10.6990  -16.8307 C   0  0  0  0  0  0  0  0  0  0  0  0
   46.3177   -8.7593  -15.5146 F   0  0  0  0  0  0  0  0  0  0  0  0
   44.9476  -11.6071  -11.6886 O   0  0  0  0  0  0  0  0  0  0  0  0
   45.2814  -10.4654  -11.9728 C   0  0  0  0  0  0  0  0  0  0  0  0
   45.6559  -10.0296  -13.2280 N   0  0  0  0  0  0  0  0  0  0  0  0
   49.0268  -16.1949  -13.3253 C   0  0  0  0  0  0  0  0  0  0  0  0
   49.5975  -16.3478  -12.3263 N   0  0  0  0  0  0  0  0  0  0  0  0
   44.1978  -14.7845  -14.9132 N   0  0  0  0  0  0  0  0  0  0  0  0
   42.8329  -14.3529  -15.2022 C   0  0  0  0  0  0  0  0  0  0  0  0
   41.8746  -14.6791  -14.0944 C   0  0  0  0  0  0  0  0  0  0  0  0
   42.0876  -15.7685  -13.0683 C   0  0  0  0  0  0  0  0  0  0  0  0
   42.1903  -14.3232  -12.6615 C   0  0  0  0  0  0  0  0  0  0  0  0
   45.3203   -9.4125  -10.9888 C   0  0  0  0  0  0  0  0  0  0  0  0
   46.3828   -8.5630  -10.7259 C   0  0  0  0  0  0  0  0  0  0  0  0
   46.0155   -7.8097   -9.5928 C   0  0  0  0  0  0  0  0  0  0  0  0
   44.7850   -8.1514   -9.1831 N   0  0  0  0  0  0  0  0  0  0  0  0
   44.3330   -9.0939  -10.0640 N   0  0  0  0  0  0  0  0  0  0  0  0
   46.8520   -6.7745   -8.8873 C   0  0  0  0  0  0  0  0  0  0  0  0
   47.2657   -7.1888   -7.6615 F   0  0  0  0  0  0  0  0  0  0  0  0
   46.1917   -5.5993   -8.7135 F   0  0  0  0  0  0  0  0  0  0  0  0
   47.9790   -6.4791   -9.5950 F   0  0  0  0  0  0  0  0  0  0  0  0
   42.9662   -9.5147   -9.9581 C   0  0  0  0  0  0  0  0  0  0  0  0
   42.2327   -9.1441   -8.8139 C   0  0  0  0  0  0  0  0  0  0  0  0
   42.3134  -10.2372  -10.9619 C   0  0  0  0  0  0  0  0  0  0  0  0
   40.9687  -10.5959  -10.8161 C   0  0  0  0  0  0  0  0  0  0  0  0
   40.2565  -10.2290   -9.6771 C   0  0  0  0  0  0  0  0  0  0  0  0
   40.8830   -9.5036   -8.6601 C   0  0  0  0  0  0  0  0  0  0  0  0
   40.1131   -9.0736   -7.4384 C   0  0  0  0  0  0  0  0  0  0  0  0
   39.5071   -7.7614   -7.6304 N   0  0  0  0  0  0  0  0  0  0  0  0
   46.7404  -14.8504  -13.7026 H   0  0  0  0  0  0  0  0  0  0  0  0
   46.4946  -15.5535  -17.9575 H   0  0  0  0  0  0  0  0  0  0  0  0
   48.5904  -16.8448  -17.8633 H   0  0  0  0  0  0  0  0  0  0  0  0
   49.7793  -17.1516  -15.7161 H   0  0  0  0  0  0  0  0  0  0  0  0
   45.8637  -12.5445  -17.8974 H   0  0  0  0  0  0  0  0  0  0  0  0
   44.7269  -14.4640  -16.8968 H   0  0  0  0  0  0  0  0  0  0  0  0
   45.1692  -12.7185  -13.6513 H   0  0  0  0  0  0  0  0  0  0  0  0
   46.3746  -10.1259  -17.7118 H   0  0  0  0  0  0  0  0  0  0  0  0
   45.8812   -9.0455  -13.3329 H   0  0  0  0  0  0  0  0  0  0  0  0
   44.2127  -15.8025  -14.9298 H   0  0  0  0  0  0  0  0  0  0  0  0
   42.4811  -14.8394  -16.1193 H   0  0  0  0  0  0  0  0  0  0  0  0
   42.7829  -13.2714  -15.3674 H   0  0  0  0  0  0  0  0  0  0  0  0
   40.8534  -14.5014  -14.4198 H   0  0  0  0  0  0  0  0  0  0  0  0
   43.0011  -16.3503  -13.0752 H   0  0  0  0  0  0  0  0  0  0  0  0
   41.2197  -16.3263  -12.7350 H   0  0  0  0  0  0  0  0  0  0  0  0
   41.3970  -13.9079  -12.0517 H   0  0  0  0  0  0  0  0  0  0  0  0
   43.1741  -13.9350  -12.4201 H   0  0  0  0  0  0  0  0  0  0  0  0
   47.3332   -8.5358  -11.2452 H   0  0  0  0  0  0  0  0  0  0  0  0
   42.7099   -8.5756   -8.0149 H   0  0  0  0  0  0  0  0  0  0  0  0
   42.7919  -10.5291  -11.8882 H   0  0  0  0  0  0  0  0  0  0  0  0
   40.4753  -11.1618  -11.6024 H   0  0  0  0  0  0  0  0  0  0  0  0
   39.2097  -10.5114   -9.5863 H   0  0  0  0  0  0  0  0  0  0  0  0
   40.7751   -9.0473   -6.5658 H   0  0  0  0  0  0  0  0  0  0  0  0
   39.3321   -9.8066   -7.2083 H   0  0  0  0  0  0  0  0  0  0  0  0
   38.9273   -7.7874   -8.4684 H   0  0  0  0  0  0  0  0  0  0  0  0
   40.2472   -7.0899   -7.8342 H   0  0  0  0  0  0  0  0  0  0  0  0
  1  2  2  0
  2  3  1  0
  3  4  2  0
  4  5  1  0
  5  6  2  0
  1  6  1  0
  7  8  2  0
  8  9  1  0
  9  3  1  0
 10 11  2  0
 11 12  1  0
 12 13  2  0
  7 13  1  0
  8 10  1  0
 15 16  2  0
 16 17  1  0
 14 12  1  0
 17 11  1  0
  1 18  1  0
 18 19  3  0
  9 20  1  0
 20 21  1  0
 21 22  1  0
 22 23  1  0
 22 24  1  0
 23 24  1  0
 16 25  1  0
 26 27  1  0
 27 28  2  0
 28 29  1  0
 29 25  1  0
 26 25  2  0
 27 30  1  0
 30 31  1  0
 30 32  1  0
 30 33  1  0
 29 34  1  0
 36 37  1  0
 37 38  2  0
 38 39  1  0
 35 39  2  0
 35 34  1  0
 34 36  2  0
 39 40  1  0
 40 41  1  0
  2 42  1  0
  4 43  1  0
  5 44  1  0
  6 45  1  0
  7 46  1  0
  9 47  1  6
 10 48  1  0
 13 49  1  0
 17 50  1  0
 20 51  1  0
 21 52  1  0
 21 53  1  0
 22 54  1  0
 23 55  1  0
 23 56  1  0
 24 57  1  0
 24 58  1  0
 26 59  1  0
 35 60  1  0
 36 61  1  0
 37 62  1  0
 38 63  1  0
 40 64  1  0
 40 65  1  0
 41 66  1  0
 41 67  1  0
M  END
> <Uni-Dock RESULT> 
ENERGY=   -3.967  LOWER_BOUND=    4.372  UPPER_BOUND=    9.511
INTER + INTRA:          -3.967
INTER:                  -3.967
INTRA:                   0.000
UNBOUND:                 0.000

$$$$

     RDKit          3D

 67 71  0  0  0  0  0  0  0  0999 V2000
   49.6913  -15.9641   -8.1686 C   0  0  0  0  0  0  0  0  0  0  0  0
   48.9558  -16.3157   -9.3059 C   0  0  0  0  0  0  0  0  0  0  0  0
   49.3247  -17.4278  -10.0861 C   0  0  0  0  0  0  0  0  0  0  0  0
   50.4485  -18.1776   -9.6988 C   0  0  0  0  0  0  0  0  0  0  0  0
   51.1825  -17.8289   -8.5635 C   0  0  0  0  0  0  0  0  0  0  0  0
   50.8055  -16.7243   -7.7998 C   0  0  0  0  0  0  0  0  0  0  0  0
   49.9628  -17.0481  -13.3029 C   0  0  0  0  0  0  0  0  0  0  0  0
   48.8380  -16.8374  -12.4856 C   0  0  0  0  0  0  0  0  0  0  0  0
   48.5429  -17.8122  -11.3429 C   0  0  2  0  0  0  0  0  0  0  0  0
   48.0267  -15.7057  -12.7210 C   0  0  0  0  0  0  0  0  0  0  0  0
   48.3101  -14.8204  -13.7613 C   0  0  0  0  0  0  0  0  0  0  0  0
   49.4364  -15.0647  -14.5546 C   0  0  0  0  0  0  0  0  0  0  0  0
   50.2613  -16.1618  -14.3357 C   0  0  0  0  0  0  0  0  0  0  0  0
   49.7282  -14.2238  -15.5605 F   0  0  0  0  0  0  0  0  0  0  0  0
   45.7854  -13.8242  -12.5739 O   0  0  0  0  0  0  0  0  0  0  0  0
   46.3503  -13.2725  -13.5076 C   0  0  0  0  0  0  0  0  0  0  0  0
   47.5334  -13.6871  -14.0857 N   0  0  0  0  0  0  0  0  0  0  0  0
   49.3079  -14.8278   -7.3825 C   0  0  0  0  0  0  0  0  0  0  0  0
   49.0099  -13.9121   -6.7346 N   0  0  0  0  0  0  0  0  0  0  0  0
   47.1096  -17.9384  -11.0324 N   0  0  0  0  0  0  0  0  0  0  0  0
   46.3819  -18.6949  -12.0476 C   0  0  0  0  0  0  0  0  0  0  0  0
   44.8954  -18.6560  -11.8454 C   0  0  0  0  0  0  0  0  0  0  0  0
   44.2160  -18.3779  -10.5240 C   0  0  0  0  0  0  0  0  0  0  0  0
   44.1739  -17.3488  -11.6214 C   0  0  0  0  0  0  0  0  0  0  0  0
   45.8199  -12.0841  -14.1282 C   0  0  0  0  0  0  0  0  0  0  0  0
   46.4956  -10.8962  -14.3557 C   0  0  0  0  0  0  0  0  0  0  0  0
   45.5376   -9.9833  -14.8408 C   0  0  0  0  0  0  0  0  0  0  0  0
   44.3359  -10.5718  -14.9332 N   0  0  0  0  0  0  0  0  0  0  0  0
   44.5124  -11.8717  -14.5488 N   0  0  0  0  0  0  0  0  0  0  0  0
   45.7676   -8.5380  -15.1975 C   0  0  0  0  0  0  0  0  0  0  0  0
   45.1711   -7.6863  -14.3234 F   0  0  0  0  0  0  0  0  0  0  0  0
   45.3096   -8.2270  -16.4387 F   0  0  0  0  0  0  0  0  0  0  0  0
   47.0953   -8.2293  -15.1912 F   0  0  0  0  0  0  0  0  0  0  0  0
   43.4138  -12.7784  -14.7141 C   0  0  0  0  0  0  0  0  0  0  0  0
   42.1425  -12.2506  -15.0140 C   0  0  0  0  0  0  0  0  0  0  0  0
   43.5565  -14.1674  -14.6374 C   0  0  0  0  0  0  0  0  0  0  0  0
   42.4532  -15.0048  -14.8362 C   0  0  0  0  0  0  0  0  0  0  0  0
   41.2003  -14.4703  -15.1257 C   0  0  0  0  0  0  0  0  0  0  0  0
   41.0301  -13.0859  -15.2120 C   0  0  0  0  0  0  0  0  0  0  0  0
   39.6861  -12.4983  -15.5566 C   0  0  0  0  0  0  0  0  0  0  0  0
   39.5348  -12.3344  -16.9976 N   0  0  0  0  0  0  0  0  0  0  0  0
   48.0862  -15.7231   -9.5923 H   0  0  0  0  0  0  0  0  0  0  0  0
   50.7636  -19.0420  -10.2810 H   0  0  0  0  0  0  0  0  0  0  0  0
   52.0504  -18.4178   -8.2752 H   0  0  0  0  0  0  0  0  0  0  0  0
   51.3854  -16.4603   -6.9172 H   0  0  0  0  0  0  0  0  0  0  0  0
   50.6143  -17.9028  -13.1334 H   0  0  0  0  0  0  0  0  0  0  0  0
   48.8923  -18.8075  -11.6521 H   0  0  0  0  0  0  0  0  0  0  0  0
   47.1702  -15.5465  -12.0714 H   0  0  0  0  0  0  0  0  0  0  0  0
   51.1278  -16.3192  -14.9701 H   0  0  0  0  0  0  0  0  0  0  0  0
   47.8792  -13.1534  -14.8767 H   0  0  0  0  0  0  0  0  0  0  0  0
   47.0155  -18.4337  -10.1477 H   0  0  0  0  0  0  0  0  0  0  0  0
   46.7070  -19.7416  -12.0279 H   0  0  0  0  0  0  0  0  0  0  0  0
   46.5835  -18.3101  -13.0530 H   0  0  0  0  0  0  0  0  0  0  0  0
   44.4097  -19.3652  -12.5097 H   0  0  0  0  0  0  0  0  0  0  0  0
   44.8078  -18.1469   -9.6468 H   0  0  0  0  0  0  0  0  0  0  0  0
   43.3018  -18.9166  -10.3019 H   0  0  0  0  0  0  0  0  0  0  0  0
   43.2335  -17.1899  -12.1351 H   0  0  0  0  0  0  0  0  0  0  0  0
   44.7555  -16.4429  -11.4870 H   0  0  0  0  0  0  0  0  0  0  0  0
   47.5364  -10.6915  -14.1361 H   0  0  0  0  0  0  0  0  0  0  0  0
   41.9978  -11.1722  -15.0868 H   0  0  0  0  0  0  0  0  0  0  0  0
   44.5041  -14.6560  -14.4489 H   0  0  0  0  0  0  0  0  0  0  0  0
   42.5778  -16.0828  -14.7689 H   0  0  0  0  0  0  0  0  0  0  0  0
   40.3567  -15.1390  -15.2842 H   0  0  0  0  0  0  0  0  0  0  0  0
   39.5610  -11.5285  -15.0625 H   0  0  0  0  0  0  0  0  0  0  0  0
   38.8852  -13.1417  -15.1760 H   0  0  0  0  0  0  0  0  0  0  0  0
   39.6949  -13.2345  -17.4485 H   0  0  0  0  0  0  0  0  0  0  0  0
   40.2813  -11.7266  -17.3342 H   0  0  0  0  0  0  0  0  0  0  0  0
  1  2  2  0
  2  3  1  0
  3  4  2  0
  4  5  1  0
  5  6  2  0
  1  6  1  0
  7  8  2  0
  8  9  1  0
  9  3  1  0
 10 11  2  0
 11 12  1  0
 12 13  2  0
  7 13  1  0
  8 10  1  0
 15 16  2  0
 16 17  1  0
 14 12  1  0
 17 11  1  0
  1 18  1  0
 18 19  3  0
  9 20  1  0
 20 21  1  0
 21 22  1  0
 22 23  1  0
 22 24  1  0
 23 24  1  0
 16 25  1  0
 26 27  1  0
 27 28  2  0
 28 29  1  0
 29 25  1  0
 26 25  2  0
 27 30  1  0
 30 31  1  0
 30 32  1  0
 30 33  1  0
 29 34  1  0
 36 37  1  0
 37 38  2  0
 38 39  1  0
 35 39  2  0
 35 34  1  0
 34 36  2  0
 39 40  1  0
 40 41  1  0
  2 42  1  0
  4 43  1  0
  5 44  1  0
  6 45  1  0
  7 46  1  0
  9 47  1  6
 10 48  1  0
 13 49  1  0
 17 50  1  0
 20 51  1  0
 21 52  1  0
 21 53  1  0
 22 54  1  0
 23 55  1  0
 23 56  1  0
 24 57  1  0
 24 58  1  0
 26 59  1  0
 35 60  1  0
 36 61  1  0
 37 62  1  0
 38 63  1  0
 40 64  1  0
 40 65  1  0
 41 66  1  0
 41 67  1  0
M  END
> <Uni-Dock RESULT> 
ENERGY=   -3.714  LOWER_BOUND=    4.193  UPPER_BOUND=    9.302
INTER + INTRA:          -3.714
INTER:                  -3.714
INTRA:                   0.000
UNBOUND:                 0.000

$$$$

     RDKit          3D

 67 71  0  0  0  0  0  0  0  0999 V2000
   42.8937   -8.0901   -9.5329 C   0  0  0  0  0  0  0  0  0  0  0  0
   43.0910   -8.7488  -10.7516 C   0  0  0  0  0  0  0  0  0  0  0  0
   42.0742   -8.7817  -11.7247 C   0  0  0  0  0  0  0  0  0  0  0  0
   40.8559   -8.1391  -11.4457 C   0  0  0  0  0  0  0  0  0  0  0  0
   40.6581   -7.4803  -10.2308 C   0  0  0  0  0  0  0  0  0  0  0  0
   41.6744   -7.4557   -9.2757 C   0  0  0  0  0  0  0  0  0  0  0  0
   40.9572  -11.6786  -12.8469 C   0  0  0  0  0  0  0  0  0  0  0  0
   42.2053  -11.0308  -12.8504 C   0  0  0  0  0  0  0  0  0  0  0  0
   42.2676   -9.5148  -13.0526 C   0  0  2  0  0  0  0  0  0  0  0  0
   43.3715  -11.7966  -12.6306 C   0  0  0  0  0  0  0  0  0  0  0  0
   43.3012  -13.1768  -12.4403 C   0  0  0  0  0  0  0  0  0  0  0  0
   42.0416  -13.7860  -12.4459 C   0  0  0  0  0  0  0  0  0  0  0  0
   40.8763  -13.0547  -12.6441 C   0  0  0  0  0  0  0  0  0  0  0  0
   41.9515  -15.1135  -12.2629 F   0  0  0  0  0  0  0  0  0  0  0  0
   46.1966  -12.5496  -12.4391 O   0  0  0  0  0  0  0  0  0  0  0  0
   45.7552  -13.6778  -12.2719 C   0  0  0  0  0  0  0  0  0  0  0  0
   44.4178  -14.0191  -12.2489 N   0  0  0  0  0  0  0  0  0  0  0  0
   43.9355   -8.0649   -8.5478 C   0  0  0  0  0  0  0  0  0  0  0  0
   44.7691   -8.0339   -7.7408 N   0  0  0  0  0  0  0  0  0  0  0  0
   43.5030   -9.0591  -13.7107 N   0  0  0  0  0  0  0  0  0  0  0  0
   43.5326   -9.3872  -15.1334 C   0  0  0  0  0  0  0  0  0  0  0  0
   44.8652   -9.1095  -15.7650 C   0  0  0  0  0  0  0  0  0  0  0  0
   45.8828   -8.1301  -15.2265 C   0  0  0  0  0  0  0  0  0  0  0  0
   46.1440   -9.6095  -15.1371 C   0  0  0  0  0  0  0  0  0  0  0  0
   46.6184  -14.8154  -12.0738 C   0  0  0  0  0  0  0  0  0  0  0  0
   46.5450  -15.7422  -11.0466 C   0  0  0  0  0  0  0  0  0  0  0  0
   47.6755  -16.5728  -11.1821 C   0  0  0  0  0  0  0  0  0  0  0  0
   48.4030  -16.2020  -12.2461 N   0  0  0  0  0  0  0  0  0  0  0  0
   47.7343  -15.1608  -12.8268 N   0  0  0  0  0  0  0  0  0  0  0  0
   48.0722  -17.7116  -10.2795 C   0  0  0  0  0  0  0  0  0  0  0  0
   49.1830  -17.4324   -9.5492 F   0  0  0  0  0  0  0  0  0  0  0  0
   48.3184  -18.8595  -10.9643 F   0  0  0  0  0  0  0  0  0  0  0  0
   47.0861  -18.0039   -9.3848 F   0  0  0  0  0  0  0  0  0  0  0  0
   48.2082  -14.6766  -14.0907 C   0  0  0  0  0  0  0  0  0  0  0  0
   49.4688  -15.1075  -14.5487 C   0  0  0  0  0  0  0  0  0  0  0  0
   47.4547  -13.8321  -14.9121 C   0  0  0  0  0  0  0  0  0  0  0  0
   47.9572  -13.4145  -16.1495 C   0  0  0  0  0  0  0  0  0  0  0  0
   49.2077  -13.8423  -16.5880 C   0  0  0  0  0  0  0  0  0  0  0  0
   49.9803  -14.6895  -15.7889 C   0  0  0  0  0  0  0  0  0  0  0  0
   51.3204  -15.1844  -16.2678 C   0  0  0  0  0  0  0  0  0  0  0  0
   51.1899  -16.4387  -16.9997 N   0  0  0  0  0  0  0  0  0  0  0  0
   44.0427   -9.2422  -10.9520 H   0  0  0  0  0  0  0  0  0  0  0  0
   40.0470   -8.1476  -12.1746 H   0  0  0  0  0  0  0  0  0  0  0  0
   39.7100   -6.9872  -10.0277 H   0  0  0  0  0  0  0  0  0  0  0  0
   41.5094   -6.9404   -8.3312 H   0  0  0  0  0  0  0  0  0  0  0  0
   40.0416  -11.1105  -12.9972 H   0  0  0  0  0  0  0  0  0  0  0  0
   41.4321   -9.2289  -13.7072 H   0  0  0  0  0  0  0  0  0  0  0  0
   44.3277  -11.2804  -12.6196 H   0  0  0  0  0  0  0  0  0  0  0  0
   39.9160  -13.5605  -12.6407 H   0  0  0  0  0  0  0  0  0  0  0  0
   44.1881  -15.0007  -12.1310 H   0  0  0  0  0  0  0  0  0  0  0  0
   43.5579   -8.0461  -13.6234 H   0  0  0  0  0  0  0  0  0  0  0  0
   42.7704   -8.8017  -15.6605 H   0  0  0  0  0  0  0  0  0  0  0  0
   43.3062  -10.4452  -15.3037 H   0  0  0  0  0  0  0  0  0  0  0  0
   44.7926   -9.2008  -16.8451 H   0  0  0  0  0  0  0  0  0  0  0  0
   45.6910   -7.6012  -14.3010 H   0  0  0  0  0  0  0  0  0  0  0  0
   46.4620   -7.5575  -15.9421 H   0  0  0  0  0  0  0  0  0  0  0  0
   46.9002  -10.0335  -15.7867 H   0  0  0  0  0  0  0  0  0  0  0  0
   46.1033  -10.0714  -14.1563 H   0  0  0  0  0  0  0  0  0  0  0  0
   45.8046  -15.7750  -10.2565 H   0  0  0  0  0  0  0  0  0  0  0  0
   50.0796  -15.7709  -13.9354 H   0  0  0  0  0  0  0  0  0  0  0  0
   46.4623  -13.4850  -14.6534 H   0  0  0  0  0  0  0  0  0  0  0  0
   47.3624  -12.7540  -16.7757 H   0  0  0  0  0  0  0  0  0  0  0  0
   49.5772  -13.5120  -17.5567 H   0  0  0  0  0  0  0  0  0  0  0  0
   51.9960  -15.3254  -15.4169 H   0  0  0  0  0  0  0  0  0  0  0  0
   51.7912  -14.4331  -16.9115 H   0  0  0  0  0  0  0  0  0  0  0  0
   50.5272  -16.3057  -17.7627 H   0  0  0  0  0  0  0  0  0  0  0  0
   50.7593  -17.1289  -16.3846 H   0  0  0  0  0  0  0  0  0  0  0  0
  1  2  2  0
  2  3  1  0
  3  4  2  0
  4  5  1  0
  5  6  2  0
  1  6  1  0
  7  8  2  0
  8  9  1  0
  9  3  1  0
 10 11  2  0
 11 12  1  0
 12 13  2  0
  7 13  1  0
  8 10  1  0
 15 16  2  0
 16 17  1  0
 14 12  1  0
 17 11  1  0
  1 18  1  0
 18 19  3  0
  9 20  1  0
 20 21  1  0
 21 22  1  0
 22 23  1  0
 22 24  1  0
 23 24  1  0
 16 25  1  0
 26 27  1  0
 27 28  2  0
 28 29  1  0
 29 25  1  0
 26 25  2  0
 27 30  1  0
 30 31  1  0
 30 32  1  0
 30 33  1  0
 29 34  1  0
 36 37  1  0
 37 38  2  0
 38 39  1  0
 35 39  2  0
 35 34  1  0
 34 36  2  0
 39 40  1  0
 40 41  1  0
  2 42  1  0
  4 43  1  0
  5 44  1  0
  6 45  1  0
  7 46  1  0
  9 47  1  6
 10 48  1  0
 13 49  1  0
 17 50  1  0
 20 51  1  0
 21 52  1  0
 21 53  1  0
 22 54  1  0
 23 55  1  0
 23 56  1  0
 24 57  1  0
 24 58  1  0
 26 59  1  0
 35 60  1  0
 36 61  1  0
 37 62  1  0
 38 63  1  0
 40 64  1  0
 40 65  1  0
 41 66  1  0
 41 67  1  0
M  END
> <Uni-Dock RESULT> 
ENERGY=   -3.703  LOWER_BOUND=    2.932  UPPER_BOUND=    4.472
INTER + INTRA:          -3.703
INTER:                  -3.703
INTRA:                   0.000
UNBOUND:                 0.000

$$$$

     RDKit          3D

 67 71  0  0  0  0  0  0  0  0999 V2000
   42.2873   -9.5667  -13.2703 C   0  0  0  0  0  0  0  0  0  0  0  0
   42.9513  -10.6675  -13.8230 C   0  0  0  0  0  0  0  0  0  0  0  0
   42.3975  -11.3709  -14.9093 C   0  0  0  0  0  0  0  0  0  0  0  0
   41.1625  -10.9443  -15.4268 C   0  0  0  0  0  0  0  0  0  0  0  0
   40.4995   -9.8454  -14.8773 C   0  0  0  0  0  0  0  0  0  0  0  0
   41.0600   -9.1577  -13.8010 C   0  0  0  0  0  0  0  0  0  0  0  0
   41.8315  -14.6138  -14.6592 C   0  0  0  0  0  0  0  0  0  0  0  0
   42.9762  -13.8004  -14.5849 C   0  0  0  0  0  0  0  0  0  0  0  0
   43.1013  -12.5879  -15.5107 C   0  0  2  0  0  0  0  0  0  0  0  0
   43.9687  -14.1062  -13.6277 C   0  0  0  0  0  0  0  0  0  0  0  0
   43.8398  -15.2100  -12.7845 C   0  0  0  0  0  0  0  0  0  0  0  0
   42.6878  -15.9971  -12.8899 C   0  0  0  0  0  0  0  0  0  0  0  0
   41.6879  -15.7104  -13.8118 C   0  0  0  0  0  0  0  0  0  0  0  0
   42.5433  -17.0635  -12.0862 F   0  0  0  0  0  0  0  0  0  0  0  0
   46.4984  -14.0672  -12.1499 O   0  0  0  0  0  0  0  0  0  0  0  0
   46.0353  -15.0443  -11.5787 C   0  0  0  0  0  0  0  0  0  0  0  0
   44.7985  -15.6051  -11.8264 N   0  0  0  0  0  0  0  0  0  0  0  0
   42.8596   -8.8589  -12.1622 C   0  0  0  0  0  0  0  0  0  0  0  0
   43.3100   -8.2744  -11.2663 N   0  0  0  0  0  0  0  0  0  0  0  0
   44.4923  -12.2525  -15.8565 N   0  0  0  0  0  0  0  0  0  0  0  0
   45.0795  -13.2028  -16.7971 C   0  0  0  0  0  0  0  0  0  0  0  0
   46.5510  -12.9866  -16.9974 C   0  0  0  0  0  0  0  0  0  0  0  0
   47.2687  -11.6805  -16.7446 C   0  0  0  0  0  0  0  0  0  0  0  0
   47.4851  -12.8477  -15.8195 C   0  0  0  0  0  0  0  0  0  0  0  0
   46.7604  -15.7415  -10.5459 C   0  0  0  0  0  0  0  0  0  0  0  0
   46.2973  -16.0608   -9.2798 C   0  0  0  0  0  0  0  0  0  0  0  0
   47.3968  -16.5983   -8.5807 C   0  0  0  0  0  0  0  0  0  0  0  0
   48.4802  -16.6347   -9.3704 N   0  0  0  0  0  0  0  0  0  0  0  0
   48.0847  -16.1609  -10.5901 N   0  0  0  0  0  0  0  0  0  0  0  0
   47.4166  -17.0596   -7.1469 C   0  0  0  0  0  0  0  0  0  0  0  0
   48.1503  -16.2413   -6.3485 F   0  0  0  0  0  0  0  0  0  0  0  0
   47.9201  -18.3144   -7.0087 F   0  0  0  0  0  0  0  0  0  0  0  0
   46.1610  -17.0907   -6.6170 F   0  0  0  0  0  0  0  0  0  0  0  0
   49.0123  -16.2485  -11.6802 C   0  0  0  0  0  0  0  0  0  0  0  0
   50.3548  -16.5703  -11.3996 C   0  0  0  0  0  0  0  0  0  0  0  0
   48.6346  -16.0749  -13.0155 C   0  0  0  0  0  0  0  0  0  0  0  0
   49.5786  -16.2008  -14.0407 C   0  0  0  0  0  0  0  0  0  0  0  0
   50.9042  -16.5129  -13.7496 C   0  0  0  0  0  0  0  0  0  0  0  0
   51.3082  -16.6954  -12.4242 C   0  0  0  0  0  0  0  0  0  0  0  0
   52.7325  -17.0652  -12.1005 C   0  0  0  0  0  0  0  0  0  0  0  0
   52.9086  -18.5124  -12.0691 N   0  0  0  0  0  0  0  0  0  0  0  0
   43.9092  -10.9851  -13.4093 H   0  0  0  0  0  0  0  0  0  0  0  0
   40.7040  -11.4673  -16.2646 H   0  0  0  0  0  0  0  0  0  0  0  0
   39.5439   -9.5260  -15.2875 H   0  0  0  0  0  0  0  0  0  0  0  0
   40.5343   -8.3030  -13.3792 H   0  0  0  0  0  0  0  0  0  0  0  0
   41.0437  -14.3914  -15.3760 H   0  0  0  0  0  0  0  0  0  0  0  0
   42.5870  -12.8296  -16.4517 H   0  0  0  0  0  0  0  0  0  0  0  0
   44.8402  -13.4596  -13.5704 H   0  0  0  0  0  0  0  0  0  0  0  0
   40.8069  -16.3420  -13.8646 H   0  0  0  0  0  0  0  0  0  0  0  0
   44.5483  -16.4360  -11.2999 H   0  0  0  0  0  0  0  0  0  0  0  0
   44.5010  -11.3339  -16.2955 H   0  0  0  0  0  0  0  0  0  0  0  0
   44.5804  -13.1126  -17.7689 H   0  0  0  0  0  0  0  0  0  0  0  0
   44.9459  -14.2353  -16.4570 H   0  0  0  0  0  0  0  0  0  0  0  0
   46.9080  -13.5931  -17.8250 H   0  0  0  0  0  0  0  0  0  0  0  0
   46.7256  -10.8289  -16.3536 H   0  0  0  0  0  0  0  0  0  0  0  0
   48.0777  -11.4100  -17.4138 H   0  0  0  0  0  0  0  0  0  0  0  0
   48.4386  -13.3604  -15.8605 H   0  0  0  0  0  0  0  0  0  0  0  0
   47.0668  -12.7849  -14.8205 H   0  0  0  0  0  0  0  0  0  0  0  0
   45.3068  -15.8684   -8.8856 H   0  0  0  0  0  0  0  0  0  0  0  0
   50.6814  -16.7179  -10.3697 H   0  0  0  0  0  0  0  0  0  0  0  0
   47.6177  -15.8631  -13.3206 H   0  0  0  0  0  0  0  0  0  0  0  0
   49.2719  -16.0584  -15.0740 H   0  0  0  0  0  0  0  0  0  0  0  0
   51.6211  -16.6136  -14.5618 H   0  0  0  0  0  0  0  0  0  0  0  0
   53.0216  -16.6399  -11.1332 H   0  0  0  0  0  0  0  0  0  0  0  0
   53.4121  -16.6305  -12.8418 H   0  0  0  0  0  0  0  0  0  0  0  0
   52.5970  -18.9000  -12.9588 H   0  0  0  0  0  0  0  0  0  0  0  0
   52.2767  -18.9000  -11.3688 H   0  0  0  0  0  0  0  0  0  0  0  0
  1  2  2  0
  2  3  1  0
  3  4  2  0
  4  5  1  0
  5  6  2  0
  1  6  1  0
  7  8  2  0
  8  9  1  0
  9  3  1  0
 10 11  2  0
 11 12  1  0
 12 13  2  0
  7 13  1  0
  8 10  1  0
 15 16  2  0
 16 17  1  0
 14 12  1  0
 17 11  1  0
  1 18  1  0
 18 19  3  0
  9 20  1  0
 20 21  1  0
 21 22  1  0
 22 23  1  0
 22 24  1  0
 23 24  1  0
 16 25  1  0
 26 27  1  0
 27 28  2  0
 28 29  1  0
 29 25  1  0
 26 25  2  0
 27 30  1  0
 30 31  1  0
 30 32  1  0
 30 33  1  0
 29 34  1  0
 36 37  1  0
 37 38  2  0
 38 39  1  0
 35 39  2  0
 35 34  1  0
 34 36  2  0
 39 40  1  0
 40 41  1  0
  2 42  1  0
  4 43  1  0
  5 44  1  0
  6 45  1  0
  7 46  1  0
  9 47  1  6
 10 48  1  0
 13 49  1  0
 17 50  1  0
 20 51  1  0
 21 52  1  0
 21 53  1  0
 22 54  1  0
 23 55  1  0
 23 56  1  0
 24 57  1  0
 24 58  1  0
 26 59  1  0
 35 60  1  0
 36 61  1  0
 37 62  1  0
 38 63  1  0
 40 64  1  0
 40 65  1  0
 41 66  1  0
 41 67  1  0
M  END
> <Uni-Dock RESULT> 
ENERGY=   -3.630  LOWER_BOUND=    2.031  UPPER_BOUND=    2.460
INTER + INTRA:          -3.630
INTER:                  -3.630
INTRA:                   0.000
UNBOUND:                 0.000

$$$$
