
     RDKit          3D

 67 71  0  0  0  0  0  0  0  0999 V2000
   52.2089  -15.9836   -5.5148 C   0  0  0  0  0  0  0  0  0  0  0  0
   51.2286  -15.6582   -6.4611 C   0  0  0  0  0  0  0  0  0  0  0  0
   50.4450  -16.6604   -7.0649 C   0  0  0  0  0  0  0  0  0  0  0  0
   50.6896  -18.0000   -6.7103 C   0  0  0  0  0  0  0  0  0  0  0  0
   51.6639  -18.3258   -5.7646 C   0  0  0  0  0  0  0  0  0  0  0  0
   52.4211  -17.3198   -5.1654 C   0  0  0  0  0  0  0  0  0  0  0  0
   47.5074  -17.3378   -6.7306 C   0  0  0  0  0  0  0  0  0  0  0  0
   47.9943  -16.8834   -7.9720 C   0  0  0  0  0  0  0  0  0  0  0  0
   49.3974  -16.2663   -8.1116 C   0  0  2  0  0  0  0  0  0  0  0  0
   47.1073  -16.8952   -9.0771 C   0  0  0  0  0  0  0  0  0  0  0  0
   45.8108  -17.4024   -8.9661 C   0  0  0  0  0  0  0  0  0  0  0  0
   45.3936  -17.8968   -7.7270 C   0  0  0  0  0  0  0  0  0  0  0  0
   46.2204  -17.8609   -6.6125 C   0  0  0  0  0  0  0  0  0  0  0  0
   44.1532  -18.3946   -7.6014 F   0  0  0  0  0  0  0  0  0  0  0  0
   45.9565  -16.3350  -11.7313 O   0  0  0  0  0  0  0  0  0  0  0  0
   44.9744  -16.9125  -11.2836 C   0  0  0  0  0  0  0  0  0  0  0  0
   44.8650  -17.4427  -10.0137 N   0  0  0  0  0  0  0  0  0  0  0  0
   52.9913  -14.9478   -4.9064 C   0  0  0  0  0  0  0  0  0  0  0  0
   53.6198  -14.1021   -4.4186 N   0  0  0  0  0  0  0  0  0  0  0  0
   49.9558  -16.3149   -9.4740 N   0  0  0  0  0  0  0  0  0  0  0  0
   50.3122  -17.6424   -9.9591 C   0  0  0  0  0  0  0  0  0  0  0  0
   50.6084  -17.4980  -11.4221 C   0  0  0  0  0  0  0  0  0  0  0  0
   51.9866  -17.1044  -11.8986 C   0  0  0  0  0  0  0  0  0  0  0  0
   51.4854  -18.5056  -12.1228 C   0  0  0  0  0  0  0  0  0  0  0  0
   43.7706  -17.0913  -12.0557 C   0  0  0  0  0  0  0  0  0  0  0  0
   43.1060  -18.2841  -12.2878 C   0  0  0  0  0  0  0  0  0  0  0  0
   42.0652  -17.9878  -13.1894 C   0  0  0  0  0  0  0  0  0  0  0  0
   42.0690  -16.6817  -13.4950 N   0  0  0  0  0  0  0  0  0  0  0  0
   43.0775  -16.1175  -12.7655 N   0  0  0  0  0  0  0  0  0  0  0  0
   41.0796  -18.9631  -13.7775 C   0  0  0  0  0  0  0  0  0  0  0  0
   41.0054  -20.1015  -13.0316 F   0  0  0  0  0  0  0  0  0  0  0  0
   39.8169  -18.4665  -13.8461 F   0  0  0  0  0  0  0  0  0  0  0  0
   41.4288  -19.3506  -15.0325 F   0  0  0  0  0  0  0  0  0  0  0  0
   43.2021  -14.6889  -12.7788 C   0  0  0  0  0  0  0  0  0  0  0  0
   42.4552  -13.9535  -13.7206 C   0  0  0  0  0  0  0  0  0  0  0  0
   43.9987  -13.9879  -11.8669 C   0  0  0  0  0  0  0  0  0  0  0  0
   44.0676  -12.5911  -11.9121 C   0  0  0  0  0  0  0  0  0  0  0  0
   43.3368  -11.8779  -12.8582 C   0  0  0  0  0  0  0  0  0  0  0  0
   42.5253  -12.5510  -13.7758 C   0  0  0  0  0  0  0  0  0  0  0  0
   41.7017  -11.7818  -14.7769 C   0  0  0  0  0  0  0  0  0  0  0  0
   40.3628  -11.5159  -14.2630 N   0  0  0  0  0  0  0  0  0  0  0  0
   51.0719  -14.6133   -6.7314 H   0  0  0  0  0  0  0  0  0  0  0  0
   50.1160  -18.8034   -7.1723 H   0  0  0  0  0  0  0  0  0  0  0  0
   51.8343  -19.3669   -5.4965 H   0  0  0  0  0  0  0  0  0  0  0  0
   53.1786  -17.5860   -4.4306 H   0  0  0  0  0  0  0  0  0  0  0  0
   48.1227  -17.2883   -5.8337 H   0  0  0  0  0  0  0  0  0  0  0  0
   49.1901  -15.1994   -7.9365 H   0  0  0  0  0  0  0  0  0  0  0  0
   47.4612  -16.4969  -10.0253 H   0  0  0  0  0  0  0  0  0  0  0  0
   45.8557  -18.2265   -5.6579 H   0  0  0  0  0  0  0  0  0  0  0  0
   43.9712  -17.8489   -9.7552 H   0  0  0  0  0  0  0  0  0  0  0  0
   50.7823  -15.7239   -9.5135 H   0  0  0  0  0  0  0  0  0  0  0  0
   49.4933  -18.3600   -9.8403 H   0  0  0  0  0  0  0  0  0  0  0  0
   51.1907  -18.0343   -9.4347 H   0  0  0  0  0  0  0  0  0  0  0  0
   49.7521  -17.1220  -11.9739 H   0  0  0  0  0  0  0  0  0  0  0  0
   52.7707  -16.9604  -11.1642 H   0  0  0  0  0  0  0  0  0  0  0  0
   52.0519  -16.4436  -12.7557 H   0  0  0  0  0  0  0  0  0  0  0  0
   51.9310  -19.3049  -11.5420 H   0  0  0  0  0  0  0  0  0  0  0  0
   51.2179  -18.7917  -13.1346 H   0  0  0  0  0  0  0  0  0  0  0  0
   43.3731  -19.2587  -11.8986 H   0  0  0  0  0  0  0  0  0  0  0  0
   41.8070  -14.4647  -14.4315 H   0  0  0  0  0  0  0  0  0  0  0  0
   44.5692  -14.4701  -11.0824 H   0  0  0  0  0  0  0  0  0  0  0  0
   44.6912  -12.0585  -11.1970 H   0  0  0  0  0  0  0  0  0  0  0  0
   43.3996  -10.7918  -12.8727 H   0  0  0  0  0  0  0  0  0  0  0  0
   42.1949  -10.8343  -15.0224 H   0  0  0  0  0  0  0  0  0  0  0  0
   41.6294  -12.3419  -15.7170 H   0  0  0  0  0  0  0  0  0  0  0  0
   39.8996  -12.4087  -14.0889 H   0  0  0  0  0  0  0  0  0  0  0  0
   40.4455  -11.0689  -13.3499 H   0  0  0  0  0  0  0  0  0  0  0  0
  1  2  2  0
  2  3  1  0
  3  4  2  0
  4  5  1  0
  5  6  2  0
  1  6  1  0
  7  8  2  0
  8  9  1  0
  9  3  1  0
 10 11  2  0
 11 12  1  0
 12 13  2  0
  7 13  1  0
  8 10  1  0
 15 16  2  0
 16 17  1  0
 14 12  1  0
 17 11  1  0
  1 18  1  0
 18 19  3  0
  9 20  1  0
 20 21  1  0
 21 22  1  0
 22 23  1  0
 22 24  1  0
 23 24  1  0
 16 25  1  0
 26 27  1  0
 27 28  2  0
 28 29  1  0
 29 25  1  0
 26 25  2  0
 27 30  1  0
 30 31  1  0
 30 32  1  0
 30 33  1  0
 29 34  1  0
 36 37  1  0
 37 38  2  0
 38 39  1  0
 35 39  2  0
 35 34  1  0
 34 36  2  0
 39 40  1  0
 40 41  1  0
  2 42  1  0
  4 43  1  0
  5 44  1  0
  6 45  1  0
  7 46  1  0
  9 47  1  1
 10 48  1  0
 13 49  1  0
 17 50  1  0
 20 51  1  0
 21 52  1  0
 21 53  1  0
 22 54  1  0
 23 55  1  0
 23 56  1  0
 24 57  1  0
 24 58  1  0
 26 59  1  0
 35 60  1  0
 36 61  1  0
 37 62  1  0
 38 63  1  0
 40 64  1  0
 40 65  1  0
 41 66  1  0
 41 67  1  0
M  END
> <Uni-Dock RESULT> 
ENERGY=   -6.264  LOWER_BOUND=    0.000  UPPER_BOUND=    0.000
INTER + INTRA:          -6.264
INTER:                  -6.264
INTRA:                   0.000
UNBOUND:                 0.000

$$$$

     RDKit          3D

 67 71  0  0  0  0  0  0  0  0999 V2000
   52.2276  -16.7913   -5.4878 C   0  0  0  0  0  0  0  0  0  0  0  0
   51.3304  -16.4658   -6.5132 C   0  0  0  0  0  0  0  0  0  0  0  0
   50.4030  -17.4121   -6.9905 C   0  0  0  0  0  0  0  0  0  0  0  0
   50.4180  -18.7012   -6.4266 C   0  0  0  0  0  0  0  0  0  0  0  0
   51.3092  -19.0262   -5.4019 C   0  0  0  0  0  0  0  0  0  0  0  0
   52.2111  -18.0728   -4.9309 C   0  0  0  0  0  0  0  0  0  0  0  0
   47.3887  -17.5504   -6.6820 C   0  0  0  0  0  0  0  0  0  0  0  0
   47.9648  -17.3800   -7.9563 C   0  0  0  0  0  0  0  0  0  0  0  0
   49.4525  -17.0245   -8.1283 C   0  0  2  0  0  0  0  0  0  0  0  0
   47.1070  -17.4230   -9.0833 C   0  0  0  0  0  0  0  0  0  0  0  0
   45.7430  -17.6927   -8.9517 C   0  0  0  0  0  0  0  0  0  0  0  0
   45.2291  -17.9138   -7.6707 C   0  0  0  0  0  0  0  0  0  0  0  0
   46.0315  -17.8362   -6.5405 C   0  0  0  0  0  0  0  0  0  0  0  0
   43.9218  -18.1810   -7.5237 F   0  0  0  0  0  0  0  0  0  0  0  0
   46.1093  -17.1090  -11.8382 O   0  0  0  0  0  0  0  0  0  0  0  0
   45.0382  -17.4448  -11.3501 C   0  0  0  0  0  0  0  0  0  0  0  0
   44.8215  -17.7450  -10.0201 N   0  0  0  0  0  0  0  0  0  0  0  0
   53.1592  -15.8114   -5.0111 C   0  0  0  0  0  0  0  0  0  0  0  0
   53.9097  -15.0112   -4.6312 N   0  0  0  0  0  0  0  0  0  0  0  0
   50.0185  -17.3747   -9.4426 N   0  0  0  0  0  0  0  0  0  0  0  0
   50.1599  -18.8014   -9.7050 C   0  0  0  0  0  0  0  0  0  0  0  0
   50.5008  -18.9374  -11.1591 C   0  0  0  0  0  0  0  0  0  0  0  0
   51.9329  -18.8486  -11.6310 C   0  0  0  0  0  0  0  0  0  0  0  0
   51.2119  -20.1693  -11.6609 C   0  0  0  0  0  0  0  0  0  0  0  0
   43.8347  -17.5477  -12.1364 C   0  0  0  0  0  0  0  0  0  0  0  0
   42.9871  -18.6404  -12.2126 C   0  0  0  0  0  0  0  0  0  0  0  0
   42.0247  -18.3266  -13.1920 C   0  0  0  0  0  0  0  0  0  0  0  0
   42.2484  -17.1021  -13.6919 N   0  0  0  0  0  0  0  0  0  0  0  0
   43.3233  -16.5991  -13.0145 N   0  0  0  0  0  0  0  0  0  0  0  0
   40.9023  -19.2119  -13.6665 C   0  0  0  0  0  0  0  0  0  0  0  0
   40.6292  -20.1926  -12.7602 F   0  0  0  0  0  0  0  0  0  0  0  0
   39.7398  -18.5368  -13.8631 F   0  0  0  0  0  0  0  0  0  0  0  0
   41.2044  -19.8420  -14.8321 F   0  0  0  0  0  0  0  0  0  0  0  0
   43.6813  -15.2287  -13.2392 C   0  0  0  0  0  0  0  0  0  0  0  0
   43.0817  -14.5402  -14.3126 C   0  0  0  0  0  0  0  0  0  0  0  0
   44.5667  -14.5299  -12.4115 C   0  0  0  0  0  0  0  0  0  0  0  0
   44.8651  -13.1866  -12.6653 C   0  0  0  0  0  0  0  0  0  0  0  0
   44.2778  -12.5230  -13.7387 C   0  0  0  0  0  0  0  0  0  0  0  0
   43.3824  -13.1932  -14.5771 C   0  0  0  0  0  0  0  0  0  0  0  0
   42.7136  -12.4688  -15.7174 C   0  0  0  0  0  0  0  0  0  0  0  0
   41.4281  -11.9151  -15.3070 N   0  0  0  0  0  0  0  0  0  0  0  0
   51.3522  -15.4648   -6.9455 H   0  0  0  0  0  0  0  0  0  0  0  0
   49.7280  -19.4650   -6.7851 H   0  0  0  0  0  0  0  0  0  0  0  0
   51.3014  -20.0260   -4.9719 H   0  0  0  0  0  0  0  0  0  0  0  0
   52.9019  -18.3381   -4.1327 H   0  0  0  0  0  0  0  0  0  0  0  0
   47.9884  -17.4600   -5.7777 H   0  0  0  0  0  0  0  0  0  0  0  0
   49.4205  -15.9242   -8.1262 H   0  0  0  0  0  0  0  0  0  0  0  0
   47.5377  -17.2399  -10.0652 H   0  0  0  0  0  0  0  0  0  0  0  0
   45.5953  -17.9846   -5.5578 H   0  0  0  0  0  0  0  0  0  0  0  0
   43.8687  -17.9576   -9.7410 H   0  0  0  0  0  0  0  0  0  0  0  0
   50.9315  -16.9369   -9.5363 H   0  0  0  0  0  0  0  0  0  0  0  0
   49.2323  -19.3514   -9.5135 H   0  0  0  0  0  0  0  0  0  0  0  0
   50.9529  -19.2417   -9.0905 H   0  0  0  0  0  0  0  0  0  0  0  0
   49.7275  -18.5206  -11.7973 H   0  0  0  0  0  0  0  0  0  0  0  0
   52.7173  -18.7185  -10.8944 H   0  0  0  0  0  0  0  0  0  0  0  0
   52.1205  -18.3493  -12.5750 H   0  0  0  0  0  0  0  0  0  0  0  0
   51.5100  -20.9286  -10.9471 H   0  0  0  0  0  0  0  0  0  0  0  0
   50.9184  -20.5640  -12.6279 H   0  0  0  0  0  0  0  0  0  0  0  0
   43.0836  -19.5720  -11.6689 H   0  0  0  0  0  0  0  0  0  0  0  0
   42.3705  -15.0463  -14.9645 H   0  0  0  0  0  0  0  0  0  0  0  0
   45.0367  -14.9681  -11.5393 H   0  0  0  0  0  0  0  0  0  0  0  0
   45.5555  -12.6550  -12.0135 H   0  0  0  0  0  0  0  0  0  0  0  0
   44.5185  -11.4767  -13.9153 H   0  0  0  0  0  0  0  0  0  0  0  0
   43.3600  -11.6625  -16.0828 H   0  0  0  0  0  0  0  0  0  0  0  0
   42.5663  -13.1504  -16.5638 H   0  0  0  0  0  0  0  0  0  0  0  0
   40.8216  -12.6840  -15.0192 H   0  0  0  0  0  0  0  0  0  0  0  0
   41.5676  -11.3496  -14.4697 H   0  0  0  0  0  0  0  0  0  0  0  0
  1  2  2  0
  2  3  1  0
  3  4  2  0
  4  5  1  0
  5  6  2  0
  1  6  1  0
  7  8  2  0
  8  9  1  0
  9  3  1  0
 10 11  2  0
 11 12  1  0
 12 13  2  0
  7 13  1  0
  8 10  1  0
 15 16  2  0
 16 17  1  0
 14 12  1  0
 17 11  1  0
  1 18  1  0
 18 19  3  0
  9 20  1  0
 20 21  1  0
 21 22  1  0
 22 23  1  0
 22 24  1  0
 23 24  1  0
 16 25  1  0
 26 27  1  0
 27 28  2  0
 28 29  1  0
 29 25  1  0
 26 25  2  0
 27 30  1  0
 30 31  1  0
 30 32  1  0
 30 33  1  0
 29 34  1  0
 36 37  1  0
 37 38  2  0
 38 39  1  0
 35 39  2  0
 35 34  1  0
 34 36  2  0
 39 40  1  0
 40 41  1  0
  2 42  1  0
  4 43  1  0
  5 44  1  0
  6 45  1  0
  7 46  1  0
  9 47  1  1
 10 48  1  0
 13 49  1  0
 17 50  1  0
 20 51  1  0
 21 52  1  0
 21 53  1  0
 22 54  1  0
 23 55  1  0
 23 56  1  0
 24 57  1  0
 24 58  1  0
 26 59  1  0
 35 60  1  0
 36 61  1  0
 37 62  1  0
 38 63  1  0
 40 64  1  0
 40 65  1  0
 41 66  1  0
 41 67  1  0
M  END
> <Uni-Dock RESULT> 
ENERGY=   -5.256  LOWER_BOUND=    0.867  UPPER_BOUND=    0.907
INTER + INTRA:          -5.256
INTER:                  -5.256
INTRA:                   0.000
UNBOUND:                 0.000

$$$$

     RDKit          3D

 67 71  0  0  0  0  0  0  0  0999 V2000
   52.0969  -16.9168   -5.5809 C   0  0  0  0  0  0  0  0  0  0  0  0
   51.1847  -16.5708   -6.5863 C   0  0  0  0  0  0  0  0  0  0  0  0
   50.2542  -17.5092   -7.0729 C   0  0  0  0  0  0  0  0  0  0  0  0
   50.2812  -18.8110   -6.5394 C   0  0  0  0  0  0  0  0  0  0  0  0
   51.1874  -19.1564   -5.5347 C   0  0  0  0  0  0  0  0  0  0  0  0
   52.0925  -18.2109   -5.0538 C   0  0  0  0  0  0  0  0  0  0  0  0
   47.2449  -17.6659   -6.7269 C   0  0  0  0  0  0  0  0  0  0  0  0
   47.8030  -17.4637   -8.0045 C   0  0  0  0  0  0  0  0  0  0  0  0
   49.2870  -17.0989   -8.1884 C   0  0  2  0  0  0  0  0  0  0  0  0
   46.9300  -17.4837   -9.1205 C   0  0  0  0  0  0  0  0  0  0  0  0
   45.5688  -17.7615   -8.9767 C   0  0  0  0  0  0  0  0  0  0  0  0
   45.0733  -18.0142   -7.6944 C   0  0  0  0  0  0  0  0  0  0  0  0
   45.8907  -17.9599   -6.5737 C   0  0  0  0  0  0  0  0  0  0  0  0
   43.7690  -18.2897   -7.5359 F   0  0  0  0  0  0  0  0  0  0  0  0
   45.8938  -17.1095  -11.8536 O   0  0  0  0  0  0  0  0  0  0  0  0
   44.8306  -17.4605  -11.3589 C   0  0  0  0  0  0  0  0  0  0  0  0
   44.6331  -17.7924  -10.0335 N   0  0  0  0  0  0  0  0  0  0  0  0
   53.0316  -15.9448   -5.0942 C   0  0  0  0  0  0  0  0  0  0  0  0
   53.7845  -15.1508   -4.7059 N   0  0  0  0  0  0  0  0  0  0  0  0
   49.8361  -17.4162   -9.5180 N   0  0  0  0  0  0  0  0  0  0  0  0
   49.9789  -18.8360   -9.8155 C   0  0  0  0  0  0  0  0  0  0  0  0
   50.3004  -18.9367  -11.2768 C   0  0  0  0  0  0  0  0  0  0  0  0
   51.7256  -18.8317  -11.7659 C   0  0  0  0  0  0  0  0  0  0  0  0
   51.0088  -20.1541  -11.8167 C   0  0  0  0  0  0  0  0  0  0  0  0
   43.6169  -17.5496  -12.1311 C   0  0  0  0  0  0  0  0  0  0  0  0
   42.7720  -18.6434  -12.2213 C   0  0  0  0  0  0  0  0  0  0  0  0
   41.7953  -18.3105  -13.1800 C   0  0  0  0  0  0  0  0  0  0  0  0
   42.0080  -17.0739  -13.6542 N   0  0  0  0  0  0  0  0  0  0  0  0
   43.0904  -16.5827  -12.9798 N   0  0  0  0  0  0  0  0  0  0  0  0
   40.6696  -19.1887  -13.6596 C   0  0  0  0  0  0  0  0  0  0  0  0
   40.4123  -20.1912  -12.7728 F   0  0  0  0  0  0  0  0  0  0  0  0
   39.5022  -18.5136  -13.8247 F   0  0  0  0  0  0  0  0  0  0  0  0
   40.9579  -19.7903  -14.8436 F   0  0  0  0  0  0  0  0  0  0  0  0
   43.4406  -15.2062  -13.1774 C   0  0  0  0  0  0  0  0  0  0  0  0
   42.8241  -14.4951  -14.2262 C   0  0  0  0  0  0  0  0  0  0  0  0
   44.3348  -14.5235  -12.3456 C   0  0  0  0  0  0  0  0  0  0  0  0
   44.6251  -13.1736  -12.5721 C   0  0  0  0  0  0  0  0  0  0  0  0
   44.0209  -12.4874  -13.6217 C   0  0  0  0  0  0  0  0  0  0  0  0
   43.1165  -13.1412  -14.4633 C   0  0  0  0  0  0  0  0  0  0  0  0
   42.4298  -12.3930  -15.5773 C   0  0  0  0  0  0  0  0  0  0  0  0
   41.1481  -11.8538  -15.1367 N   0  0  0  0  0  0  0  0  0  0  0  0
   51.1973  -15.5600   -6.9953 H   0  0  0  0  0  0  0  0  0  0  0  0
   49.5891  -19.5688   -6.9062 H   0  0  0  0  0  0  0  0  0  0  0  0
   51.1889  -20.1660   -5.1281 H   0  0  0  0  0  0  0  0  0  0  0  0
   52.7950  -18.4921   -4.2715 H   0  0  0  0  0  0  0  0  0  0  0  0
   47.8566  -17.5943   -5.8289 H   0  0  0  0  0  0  0  0  0  0  0  0
   49.2513  -15.9990   -8.1601 H   0  0  0  0  0  0  0  0  0  0  0  0
   47.3467  -17.2762  -10.1036 H   0  0  0  0  0  0  0  0  0  0  0  0
   45.4685  -18.1328   -5.5889 H   0  0  0  0  0  0  0  0  0  0  0  0
   43.6850  -18.0149   -9.7466 H   0  0  0  0  0  0  0  0  0  0  0  0
   50.7463  -16.9730   -9.6138 H   0  0  0  0  0  0  0  0  0  0  0  0
   49.0558  -19.3937   -9.6243 H   0  0  0  0  0  0  0  0  0  0  0  0
   50.7817  -19.2874   -9.2221 H   0  0  0  0  0  0  0  0  0  0  0  0
   49.5170  -18.5081  -11.8946 H   0  0  0  0  0  0  0  0  0  0  0  0
   52.5195  -18.7158  -11.0372 H   0  0  0  0  0  0  0  0  0  0  0  0
   51.8986  -18.3099  -12.7004 H   0  0  0  0  0  0  0  0  0  0  0  0
   51.3192  -20.9286  -11.1250 H   0  0  0  0  0  0  0  0  0  0  0  0
   50.7034  -20.5272  -12.7887 H   0  0  0  0  0  0  0  0  0  0  0  0
   42.8791  -19.5870  -11.7008 H   0  0  0  0  0  0  0  0  0  0  0  0
   42.1057  -14.9886  -14.8800 H   0  0  0  0  0  0  0  0  0  0  0  0
   44.8181  -14.9801  -11.4904 H   0  0  0  0  0  0  0  0  0  0  0  0
   45.3225  -12.6547  -11.9175 H   0  0  0  0  0  0  0  0  0  0  0  0
   44.2557  -11.4364  -13.7771 H   0  0  0  0  0  0  0  0  0  0  0  0
   43.0684  -11.5761  -15.9324 H   0  0  0  0  0  0  0  0  0  0  0  0
   42.2733  -13.0553  -16.4372 H   0  0  0  0  0  0  0  0  0  0  0  0
   40.5482  -12.6315  -14.8587 H   0  0  0  0  0  0  0  0  0  0  0  0
   41.2971  -11.3074  -14.2884 H   0  0  0  0  0  0  0  0  0  0  0  0
  1  2  2  0
  2  3  1  0
  3  4  2  0
  4  5  1  0
  5  6  2  0
  1  6  1  0
  7  8  2  0
  8  9  1  0
  9  3  1  0
 10 11  2  0
 11 12  1  0
 12 13  2  0
  7 13  1  0
  8 10  1  0
 15 16  2  0
 16 17  1  0
 14 12  1  0
 17 11  1  0
  1 18  1  0
 18 19  3  0
  9 20  1  0
 20 21  1  0
 21 22  1  0
 22 23  1  0
 22 24  1  0
 23 24  1  0
 16 25  1  0
 26 27  1  0
 27 28  2  0
 28 29  1  0
 29 25  1  0
 26 25  2  0
 27 30  1  0
 30 31  1  0
 30 32  1  0
 30 33  1  0
 29 34  1  0
 36 37  1  0
 37 38  2  0
 38 39  1  0
 35 39  2  0
 35 34  1  0
 34 36  2  0
 39 40  1  0
 40 41  1  0
  2 42  1  0
  4 43  1  0
  5 44  1  0
  6 45  1  0
  7 46  1  0
  9 47  1  1
 10 48  1  0
 13 49  1  0
 17 50  1  0
 20 51  1  0
 21 52  1  0
 21 53  1  0
 22 54  1  0
 23 55  1  0
 23 56  1  0
 24 57  1  0
 24 58  1  0
 26 59  1  0
 35 60  1  0
 36 61  1  0
 37 62  1  0
 38 63  1  0
 40 64  1  0
 40 65  1  0
 41 66  1  0
 41 67  1  0
M  END
> <Uni-Dock RESULT> 
ENERGY=   -5.201  LOWER_BOUND=    0.840  UPPER_BOUND=    0.894
INTER + INTRA:          -5.201
INTER:                  -5.201
INTRA:                   0.000
UNBOUND:                 0.000

$$$$

     RDKit          3D

 67 71  0  0  0  0  0  0  0  0999 V2000
   52.7116  -16.5389   -5.2108 C   0  0  0  0  0  0  0  0  0  0  0  0
   51.8604  -16.2332   -6.2806 C   0  0  0  0  0  0  0  0  0  0  0  0
   50.9119  -17.1672   -6.7401 C   0  0  0  0  0  0  0  0  0  0  0  0
   50.8585  -18.4251   -6.1117 C   0  0  0  0  0  0  0  0  0  0  0  0
   51.7038  -18.7301   -5.0428 C   0  0  0  0  0  0  0  0  0  0  0  0
   52.6274  -17.7883   -4.5908 C   0  0  0  0  0  0  0  0  0  0  0  0
   47.8863  -17.1757   -6.5252 C   0  0  0  0  0  0  0  0  0  0  0  0
   48.5082  -17.0932   -7.7866 C   0  0  0  0  0  0  0  0  0  0  0  0
   50.0134  -16.8034   -7.9269 C   0  0  2  0  0  0  0  0  0  0  0  0
   47.6849  -17.1620   -8.9379 C   0  0  0  0  0  0  0  0  0  0  0  0
   46.3079  -17.3730   -8.8382 C   0  0  0  0  0  0  0  0  0  0  0  0
   45.7460  -17.5080   -7.5654 C   0  0  0  0  0  0  0  0  0  0  0  0
   46.5151  -17.4024   -6.4146 C   0  0  0  0  0  0  0  0  0  0  0  0
   44.4252  -17.7178   -7.4486 F   0  0  0  0  0  0  0  0  0  0  0  0
   46.7869  -16.9534  -11.7367 O   0  0  0  0  0  0  0  0  0  0  0  0
   45.6887  -17.2229  -11.2681 C   0  0  0  0  0  0  0  0  0  0  0  0
   45.4189  -17.4456   -9.9326 N   0  0  0  0  0  0  0  0  0  0  0  0
   53.6657  -15.5715   -4.7535 C   0  0  0  0  0  0  0  0  0  0  0  0
   54.4350  -14.7815   -4.3897 N   0  0  0  0  0  0  0  0  0  0  0  0
   50.6058  -17.2421   -9.2024 N   0  0  0  0  0  0  0  0  0  0  0  0
   50.6992  -18.6849   -9.3876 C   0  0  0  0  0  0  0  0  0  0  0  0
   51.0797  -18.9085  -10.8209 C   0  0  0  0  0  0  0  0  0  0  0  0
   52.5282  -18.8983  -11.2489 C   0  0  0  0  0  0  0  0  0  0  0  0
   51.7571  -20.1907  -11.2360 C   0  0  0  0  0  0  0  0  0  0  0  0
   44.5072  -17.3208  -12.0877 C   0  0  0  0  0  0  0  0  0  0  0  0
   43.6200  -18.3833  -12.1368 C   0  0  0  0  0  0  0  0  0  0  0  0
   42.7018  -18.0845  -13.1622 C   0  0  0  0  0  0  0  0  0  0  0  0
   42.9890  -16.8968  -13.7155 N   0  0  0  0  0  0  0  0  0  0  0  0
   44.0612  -16.4003  -13.0290 N   0  0  0  0  0  0  0  0  0  0  0  0
   41.5608  -18.9502  -13.6284 C   0  0  0  0  0  0  0  0  0  0  0  0
   41.2212  -19.8717  -12.6833 F   0  0  0  0  0  0  0  0  0  0  0  0
   40.4324  -18.2428  -13.8973 F   0  0  0  0  0  0  0  0  0  0  0  0
   41.8741  -19.6506  -14.7501 F   0  0  0  0  0  0  0  0  0  0  0  0
   44.4797  -15.0579  -13.3106 C   0  0  0  0  0  0  0  0  0  0  0  0
   43.9414  -14.4036  -14.4366 C   0  0  0  0  0  0  0  0  0  0  0  0
   45.3656  -14.3511  -12.4902 C   0  0  0  0  0  0  0  0  0  0  0  0
   45.7244  -13.0349  -12.8014 C   0  0  0  0  0  0  0  0  0  0  0  0
   45.1974  -12.4060  -13.9258 C   0  0  0  0  0  0  0  0  0  0  0  0
   44.3029  -13.0844  -14.7586 C   0  0  0  0  0  0  0  0  0  0  0  0
   43.6992  -12.3951  -15.9556 C   0  0  0  0  0  0  0  0  0  0  0  0
   42.4243  -11.7730  -15.6165 N   0  0  0  0  0  0  0  0  0  0  0  0
   51.9351  -15.2574   -6.7618 H   0  0  0  0  0  0  0  0  0  0  0  0
   50.1506  -19.1798   -6.4539 H   0  0  0  0  0  0  0  0  0  0  0  0
   51.6433  -19.7054   -4.5635 H   0  0  0  0  0  0  0  0  0  0  0  0
   53.2820  -18.0379   -3.7578 H   0  0  0  0  0  0  0  0  0  0  0  0
   48.4606  -17.0614   -5.6072 H   0  0  0  0  0  0  0  0  0  0  0  0
   50.0246  -15.7040   -7.9813 H   0  0  0  0  0  0  0  0  0  0  0  0
   48.1529  -17.0462   -9.9129 H   0  0  0  0  0  0  0  0  0  0  0  0
   46.0430  -17.4833   -5.4407 H   0  0  0  0  0  0  0  0  0  0  0  0
   44.4503  -17.6074   -9.6749 H   0  0  0  0  0  0  0  0  0  0  0  0
   51.5379  -16.8445   -9.2877 H   0  0  0  0  0  0  0  0  0  0  0  0
   49.7451  -19.1888   -9.1995 H   0  0  0  0  0  0  0  0  0  0  0  0
   51.4547  -19.1223   -8.7256 H   0  0  0  0  0  0  0  0  0  0  0  0
   50.3437  -18.4964  -11.5046 H   0  0  0  0  0  0  0  0  0  0  0  0
   53.2937  -18.7599  -10.4942 H   0  0  0  0  0  0  0  0  0  0  0  0
   52.7647  -18.4559  -12.2101 H   0  0  0  0  0  0  0  0  0  0  0  0
   52.0027  -20.9227  -10.4754 H   0  0  0  0  0  0  0  0  0  0  0  0
   51.4786  -20.6234  -12.1911 H   0  0  0  0  0  0  0  0  0  0  0  0
   43.6627  -19.2885  -11.5439 H   0  0  0  0  0  0  0  0  0  0  0  0
   43.2315  -14.9155  -15.0854 H   0  0  0  0  0  0  0  0  0  0  0  0
   45.7905  -14.7610  -11.5820 H   0  0  0  0  0  0  0  0  0  0  0  0
   46.4145  -12.4967  -12.1547 H   0  0  0  0  0  0  0  0  0  0  0  0
   45.4845  -11.3800  -14.1469 H   0  0  0  0  0  0  0  0  0  0  0  0
   44.3879  -11.6338  -16.3395 H   0  0  0  0  0  0  0  0  0  0  0  0
   43.5516  -13.1136  -16.7709 H   0  0  0  0  0  0  0  0  0  0  0  0
   41.7792  -12.5025  -15.3106 H   0  0  0  0  0  0  0  0  0  0  0  0
   42.5597  -11.1706  -14.8047 H   0  0  0  0  0  0  0  0  0  0  0  0
  1  2  2  0
  2  3  1  0
  3  4  2  0
  4  5  1  0
  5  6  2  0
  1  6  1  0
  7  8  2  0
  8  9  1  0
  9  3  1  0
 10 11  2  0
 11 12  1  0
 12 13  2  0
  7 13  1  0
  8 10  1  0
 15 16  2  0
 16 17  1  0
 14 12  1  0
 17 11  1  0
  1 18  1  0
 18 19  3  0
  9 20  1  0
 20 21  1  0
 21 22  1  0
 22 23  1  0
 22 24  1  0
 23 24  1  0
 16 25  1  0
 26 27  1  0
 27 28  2  0
 28 29  1  0
 29 25  1  0
 26 25  2  0
 27 30  1  0
 30 31  1  0
 30 32  1  0
 30 33  1  0
 29 34  1  0
 36 37  1  0
 37 38  2  0
 38 39  1  0
 35 39  2  0
 35 34  1  0
 34 36  2  0
 39 40  1  0
 40 41  1  0
  2 42  1  0
  4 43  1  0
  5 44  1  0
  6 45  1  0
  7 46  1  0
  9 47  1  1
 10 48  1  0
 13 49  1  0
 17 50  1  0
 20 51  1  0
 21 52  1  0
 21 53  1  0
 22 54  1  0
 23 55  1  0
 23 56  1  0
 24 57  1  0
 24 58  1  0
 26 59  1  0
 35 60  1  0
 36 61  1  0
 37 62  1  0
 38 63  1  0
 40 64  1  0
 40 65  1  0
 41 66  1  0
 41 67  1  0
M  END
> <Uni-Dock RESULT> 
ENERGY=   -4.795  LOWER_BOUND=    1.203  UPPER_BOUND=    1.220
INTER + INTRA:          -4.795
INTER:                  -4.795
INTRA:                   0.000
UNBOUND:                 0.000

$$$$

     RDKit          3D

 67 71  0  0  0  0  0  0  0  0999 V2000
   41.0266   -7.6584  -12.3735 C   0  0  0  0  0  0  0  0  0  0  0  0
   41.7326   -8.7683  -11.8918 C   0  0  0  0  0  0  0  0  0  0  0  0
   42.2867   -9.7131  -12.7770 C   0  0  0  0  0  0  0  0  0  0  0  0
   42.0914   -9.5254  -14.1578 C   0  0  0  0  0  0  0  0  0  0  0  0
   41.3911   -8.4176  -14.6398 C   0  0  0  0  0  0  0  0  0  0  0  0
   40.8613   -7.4838  -13.7500 C   0  0  0  0  0  0  0  0  0  0  0  0
   45.1780  -10.2932  -13.4873 C   0  0  0  0  0  0  0  0  0  0  0  0
   44.3974  -11.2686  -12.8362 C   0  0  0  0  0  0  0  0  0  0  0  0
   43.0336  -10.9253  -12.2107 C   0  0  2  0  0  0  0  0  0  0  0  0
   44.9578  -12.5584  -12.6613 C   0  0  0  0  0  0  0  0  0  0  0  0
   46.2158  -12.8826  -13.1742 C   0  0  0  0  0  0  0  0  0  0  0  0
   46.9268  -11.8970  -13.8647 C   0  0  0  0  0  0  0  0  0  0  0  0
   46.4279  -10.6106  -14.0171 C   0  0  0  0  0  0  0  0  0  0  0  0
   48.1350  -12.1907  -14.3709 F   0  0  0  0  0  0  0  0  0  0  0  0
   45.3839  -15.2987  -11.6650 O   0  0  0  0  0  0  0  0  0  0  0  0
   46.4255  -15.2299  -12.3043 C   0  0  0  0  0  0  0  0  0  0  0  0
   46.8469  -14.1381  -13.0365 N   0  0  0  0  0  0  0  0  0  0  0  0
   40.4762   -6.7043  -11.4559 C   0  0  0  0  0  0  0  0  0  0  0  0
   40.0344   -5.9365  -10.7052 N   0  0  0  0  0  0  0  0  0  0  0  0
   42.1320  -12.0771  -12.0359 N   0  0  0  0  0  0  0  0  0  0  0  0
   41.6064  -12.6551  -13.2665 C   0  0  0  0  0  0  0  0  0  0  0  0
   40.9383  -13.9420  -12.8837 C   0  0  0  0  0  0  0  0  0  0  0  0
   39.5000  -13.9612  -12.4228 C   0  0  0  0  0  0  0  0  0  0  0  0
   39.8670  -14.5335  -13.7655 C   0  0  0  0  0  0  0  0  0  0  0  0
   47.3728  -16.3152  -12.3477 C   0  0  0  0  0  0  0  0  0  0  0  0
   47.9034  -16.9055  -13.4828 C   0  0  0  0  0  0  0  0  0  0  0  0
   48.6783  -17.9938  -13.0369 C   0  0  0  0  0  0  0  0  0  0  0  0
   48.6460  -18.0736  -11.6984 N   0  0  0  0  0  0  0  0  0  0  0  0
   47.8911  -17.0193  -11.2670 N   0  0  0  0  0  0  0  0  0  0  0  0
   49.4323  -18.9736  -13.8973 C   0  0  0  0  0  0  0  0  0  0  0  0
   49.6561  -18.4676  -15.1430 F   0  0  0  0  0  0  0  0  0  0  0  0
   50.6503  -19.2982  -13.3906 F   0  0  0  0  0  0  0  0  0  0  0  0
   48.7470  -20.1339  -14.0736 F   0  0  0  0  0  0  0  0  0  0  0  0
   47.8250  -16.7694   -9.8564 C   0  0  0  0  0  0  0  0  0  0  0  0
   48.3238  -17.7466   -8.9721 C   0  0  0  0  0  0  0  0  0  0  0  0
   47.3280  -15.5769   -9.3193 C   0  0  0  0  0  0  0  0  0  0  0  0
   47.3058  -15.3774   -7.9345 C   0  0  0  0  0  0  0  0  0  0  0  0
   47.7871  -16.3578   -7.0715 C   0  0  0  0  0  0  0  0  0  0  0  0
   48.2980  -17.5554   -7.5801 C   0  0  0  0  0  0  0  0  0  0  0  0
   48.8564  -18.6041   -6.6524 C   0  0  0  0  0  0  0  0  0  0  0  0
   50.2932  -18.4329   -6.4692 N   0  0  0  0  0  0  0  0  0  0  0  0
   41.8538   -8.8996  -10.8160 H   0  0  0  0  0  0  0  0  0  0  0  0
   42.4890  -10.2471  -14.8713 H   0  0  0  0  0  0  0  0  0  0  0  0
   41.2563   -8.2842  -15.7115 H   0  0  0  0  0  0  0  0  0  0  0  0
   40.3161   -6.6251  -14.1373 H   0  0  0  0  0  0  0  0  0  0  0  0
   44.8255   -9.2681  -13.5895 H   0  0  0  0  0  0  0  0  0  0  0  0
   43.3227  -10.6436  -11.1866 H   0  0  0  0  0  0  0  0  0  0  0  0
   44.3811  -13.3001  -12.1133 H   0  0  0  0  0  0  0  0  0  0  0  0
   47.0181   -9.8605  -14.5339 H   0  0  0  0  0  0  0  0  0  0  0  0
   47.7602  -14.1977  -13.4759 H   0  0  0  0  0  0  0  0  0  0  0  0
   41.3491  -11.7979  -11.4501 H   0  0  0  0  0  0  0  0  0  0  0  0
   42.3979  -12.8773  -13.9903 H   0  0  0  0  0  0  0  0  0  0  0  0
   40.8838  -11.9839  -13.7437 H   0  0  0  0  0  0  0  0  0  0  0  0
   41.6317  -14.6357  -12.4179 H   0  0  0  0  0  0  0  0  0  0  0  0
   38.9456  -13.0300  -12.4056 H   0  0  0  0  0  0  0  0  0  0  0  0
   39.2360  -14.6518  -11.6297 H   0  0  0  0  0  0  0  0  0  0  0  0
   39.5599  -13.9904  -14.6517 H   0  0  0  0  0  0  0  0  0  0  0  0
   39.8443  -15.6122  -13.8792 H   0  0  0  0  0  0  0  0  0  0  0  0
   47.7103  -16.6203  -14.5095 H   0  0  0  0  0  0  0  0  0  0  0  0
   48.7388  -18.6780   -9.3559 H   0  0  0  0  0  0  0  0  0  0  0  0
   46.9675  -14.7559   -9.9270 H   0  0  0  0  0  0  0  0  0  0  0  0
   46.9165  -14.4452   -7.5301 H   0  0  0  0  0  0  0  0  0  0  0  0
   47.7665  -16.1806   -5.9982 H   0  0  0  0  0  0  0  0  0  0  0  0
   48.3542  -18.5528   -5.6795 H   0  0  0  0  0  0  0  0  0  0  0  0
   48.6538  -19.6062   -7.0491 H   0  0  0  0  0  0  0  0  0  0  0  0
   50.7497  -18.5352   -7.3765 H   0  0  0  0  0  0  0  0  0  0  0  0
   50.4741  -17.4718   -6.1796 H   0  0  0  0  0  0  0  0  0  0  0  0
  1  2  2  0
  2  3  1  0
  3  4  2  0
  4  5  1  0
  5  6  2  0
  1  6  1  0
  7  8  2  0
  8  9  1  0
  9  3  1  0
 10 11  2  0
 11 12  1  0
 12 13  2  0
  7 13  1  0
  8 10  1  0
 15 16  2  0
 16 17  1  0
 14 12  1  0
 17 11  1  0
  1 18  1  0
 18 19  3  0
  9 20  1  0
 20 21  1  0
 21 22  1  0
 22 23  1  0
 22 24  1  0
 23 24  1  0
 16 25  1  0
 26 27  1  0
 27 28  2  0
 28 29  1  0
 29 25  1  0
 26 25  2  0
 27 30  1  0
 30 31  1  0
 30 32  1  0
 30 33  1  0
 29 34  1  0
 36 37  1  0
 37 38  2  0
 38 39  1  0
 35 39  2  0
 35 34  1  0
 34 36  2  0
 39 40  1  0
 40 41  1  0
  2 42  1  0
  4 43  1  0
  5 44  1  0
  6 45  1  0
  7 46  1  0
  9 47  1  1
 10 48  1  0
 13 49  1  0
 17 50  1  0
 20 51  1  0
 21 52  1  0
 21 53  1  0
 22 54  1  0
 23 55  1  0
 23 56  1  0
 24 57  1  0
 24 58  1  0
 26 59  1  0
 35 60  1  0
 36 61  1  0
 37 62  1  0
 38 63  1  0
 40 64  1  0
 40 65  1  0
 41 66  1  0
 41 67  1  0
M  END
> <Uni-Dock RESULT> 
ENERGY=   -3.666  LOWER_BOUND=    3.926  UPPER_BOUND=   10.307
INTER + INTRA:          -3.666
INTER:                  -3.666
INTRA:                   0.000
UNBOUND:                 0.000

$$$$

     RDKit          3D

 67 71  0  0  0  0  0  0  0  0999 V2000
   40.9171   -9.9832  -11.9009 C   0  0  0  0  0  0  0  0  0  0  0  0
   41.9482  -10.9019  -11.6659 C   0  0  0  0  0  0  0  0  0  0  0  0
   42.6628  -11.4763  -12.7349 C   0  0  0  0  0  0  0  0  0  0  0  0
   42.2973  -11.1212  -14.0464 C   0  0  0  0  0  0  0  0  0  0  0  0
   41.2721  -10.2028  -14.2823 C   0  0  0  0  0  0  0  0  0  0  0  0
   40.5843   -9.6323  -13.2119 C   0  0  0  0  0  0  0  0  0  0  0  0
   45.5229  -11.0510  -13.6511 C   0  0  0  0  0  0  0  0  0  0  0  0
   45.1118  -12.3089  -13.1682 C   0  0  0  0  0  0  0  0  0  0  0  0
   43.7696  -12.4937  -12.4379 C   0  0  2  0  0  0  0  0  0  0  0  0
   46.0264  -13.3871  -13.2630 C   0  0  0  0  0  0  0  0  0  0  0  0
   47.2724  -13.2347  -13.8752 C   0  0  0  0  0  0  0  0  0  0  0  0
   47.6108  -11.9808  -14.3921 C   0  0  0  0  0  0  0  0  0  0  0  0
   46.7578  -10.8916  -14.2783 C   0  0  0  0  0  0  0  0  0  0  0  0
   48.8013  -11.8156  -14.9901 F   0  0  0  0  0  0  0  0  0  0  0  0
   47.2966  -16.0093  -12.8225 O   0  0  0  0  0  0  0  0  0  0  0  0
   48.2137  -15.5293  -13.4758 C   0  0  0  0  0  0  0  0  0  0  0  0
   48.2416  -14.2535  -14.0026 N   0  0  0  0  0  0  0  0  0  0  0  0
   40.2063   -9.4044  -10.7986 C   0  0  0  0  0  0  0  0  0  0  0  0
   39.6365   -8.9405   -9.8996 N   0  0  0  0  0  0  0  0  0  0  0  0
   43.2489  -13.8717  -12.4513 N   0  0  0  0  0  0  0  0  0  0  0  0
   42.7975  -14.3594  -13.7486 C   0  0  0  0  0  0  0  0  0  0  0  0
   42.5569  -15.8314  -13.5924 C   0  0  0  0  0  0  0  0  0  0  0  0
   41.2307  -16.3508  -13.0897 C   0  0  0  0  0  0  0  0  0  0  0  0
   41.6199  -16.5518  -14.5295 C   0  0  0  0  0  0  0  0  0  0  0  0
   49.4204  -16.2642  -13.7604 C   0  0  0  0  0  0  0  0  0  0  0  0
   49.9898  -16.4694  -15.0062 C   0  0  0  0  0  0  0  0  0  0  0  0
   51.0774  -17.3415  -14.8049 C   0  0  0  0  0  0  0  0  0  0  0  0
   51.1913  -17.6547  -13.5057 N   0  0  0  0  0  0  0  0  0  0  0  0
   50.2125  -16.9589  -12.8536 N   0  0  0  0  0  0  0  0  0  0  0  0
   51.9951  -17.8943  -15.8637 C   0  0  0  0  0  0  0  0  0  0  0  0
   51.9525  -17.1398  -16.9980 F   0  0  0  0  0  0  0  0  0  0  0  0
   53.2962  -17.9283  -15.4743 F   0  0  0  0  0  0  0  0  0  0  0  0
   51.6514  -19.1568  -16.2313 F   0  0  0  0  0  0  0  0  0  0  0  0
   50.2078  -16.9843  -11.4197 C   0  0  0  0  0  0  0  0  0  0  0  0
   51.0404  -17.9079  -10.7568 C   0  0  0  0  0  0  0  0  0  0  0  0
   49.4461  -16.1007  -10.6474 C   0  0  0  0  0  0  0  0  0  0  0  0
   49.4952  -16.1562   -9.2501 C   0  0  0  0  0  0  0  0  0  0  0  0
   50.3100  -17.0843   -8.6080 C   0  0  0  0  0  0  0  0  0  0  0  0
   51.0890  -17.9735   -9.3539 C   0  0  0  0  0  0  0  0  0  0  0  0
   52.0026  -18.9543   -8.6641 C   0  0  0  0  0  0  0  0  0  0  0  0
   53.3434  -18.4024   -8.5061 N   0  0  0  0  0  0  0  0  0  0  0  0
   42.1992  -11.1737  -10.6400 H   0  0  0  0  0  0  0  0  0  0  0  0
   42.8152  -11.5611  -14.8986 H   0  0  0  0  0  0  0  0  0  0  0  0
   41.0080   -9.9338  -15.3033 H   0  0  0  0  0  0  0  0  0  0  0  0
   39.7862   -8.9188  -13.4081 H   0  0  0  0  0  0  0  0  0  0  0  0
   44.8880  -10.1730  -13.5432 H   0  0  0  0  0  0  0  0  0  0  0  0
   44.0598  -12.3188  -11.3905 H   0  0  0  0  0  0  0  0  0  0  0  0
   45.7346  -14.3478  -12.8445 H   0  0  0  0  0  0  0  0  0  0  0  0
   47.0629   -9.9245  -14.6649 H   0  0  0  0  0  0  0  0  0  0  0  0
   49.0906  -13.9662  -14.4794 H   0  0  0  0  0  0  0  0  0  0  0  0
   42.4760  -13.9392  -11.7940 H   0  0  0  0  0  0  0  0  0  0  0  0
   43.5499  -14.2121  -14.5308 H   0  0  0  0  0  0  0  0  0  0  0  0
   41.8745  -13.8590  -14.0619 H   0  0  0  0  0  0  0  0  0  0  0  0
   43.4572  -16.3597  -13.2935 H   0  0  0  0  0  0  0  0  0  0  0  0
   40.4404  -15.6409  -12.8749 H   0  0  0  0  0  0  0  0  0  0  0  0
   41.2456  -17.2134  -12.4329 H   0  0  0  0  0  0  0  0  0  0  0  0
   41.0926  -15.9798  -15.2842 H   0  0  0  0  0  0  0  0  0  0  0  0
   41.8918  -17.5535  -14.8453 H   0  0  0  0  0  0  0  0  0  0  0  0
   49.6313  -16.0825  -15.9520 H   0  0  0  0  0  0  0  0  0  0  0  0
   51.6642  -18.5962  -11.3260 H   0  0  0  0  0  0  0  0  0  0  0  0
   48.8149  -15.3305  -11.0740 H   0  0  0  0  0  0  0  0  0  0  0  0
   48.8976  -15.4630   -8.6615 H   0  0  0  0  0  0  0  0  0  0  0  0
   50.3384  -17.1071   -7.5206 H   0  0  0  0  0  0  0  0  0  0  0  0
   51.5973  -19.2199   -7.6810 H   0  0  0  0  0  0  0  0  0  0  0  0
   52.0552  -19.8885   -9.2361 H   0  0  0  0  0  0  0  0  0  0  0  0
   53.7253  -18.2094   -9.4328 H   0  0  0  0  0  0  0  0  0  0  0  0
   53.2717  -17.4949   -8.0461 H   0  0  0  0  0  0  0  0  0  0  0  0
  1  2  2  0
  2  3  1  0
  3  4  2  0
  4  5  1  0
  5  6  2  0
  1  6  1  0
  7  8  2  0
  8  9  1  0
  9  3  1  0
 10 11  2  0
 11 12  1  0
 12 13  2  0
  7 13  1  0
  8 10  1  0
 15 16  2  0
 16 17  1  0
 14 12  1  0
 17 11  1  0
  1 18  1  0
 18 19  3  0
  9 20  1  0
 20 21  1  0
 21 22  1  0
 22 23  1  0
 22 24  1  0
 23 24  1  0
 16 25  1  0
 26 27  1  0
 27 28  2  0
 28 29  1  0
 29 25  1  0
 26 25  2  0
 27 30  1  0
 30 31  1  0
 30 32  1  0
 30 33  1  0
 29 34  1  0
 36 37  1  0
 37 38  2  0
 38 39  1  0
 35 39  2  0
 35 34  1  0
 34 36  2  0
 39 40  1  0
 40 41  1  0
  2 42  1  0
  4 43  1  0
  5 44  1  0
  6 45  1  0
  7 46  1  0
  9 47  1  1
 10 48  1  0
 13 49  1  0
 17 50  1  0
 20 51  1  0
 21 52  1  0
 21 53  1  0
 22 54  1  0
 23 55  1  0
 23 56  1  0
 24 57  1  0
 24 58  1  0
 26 59  1  0
 35 60  1  0
 36 61  1  0
 37 62  1  0
 38 63  1  0
 40 64  1  0
 40 65  1  0
 41 66  1  0
 41 67  1  0
M  END
> <Uni-Dock RESULT> 
ENERGY=   -3.279  LOWER_BOUND=    4.394  UPPER_BOUND=   10.465
INTER + INTRA:          -3.279
INTER:                  -3.279
INTRA:                   0.000
UNBOUND:                 0.000

$$$$

     RDKit          3D

 67 71  0  0  0  0  0  0  0  0999 V2000
   41.0622  -10.8418  -13.5748 C   0  0  0  0  0  0  0  0  0  0  0  0
   42.0708  -11.6226  -12.9957 C   0  0  0  0  0  0  0  0  0  0  0  0
   42.9357  -12.3955  -13.7943 C   0  0  0  0  0  0  0  0  0  0  0  0
   42.7443  -12.3815  -15.1882 C   0  0  0  0  0  0  0  0  0  0  0  0
   41.7417  -11.6008  -15.7674 C   0  0  0  0  0  0  0  0  0  0  0  0
   40.9032  -10.8300  -14.9630 C   0  0  0  0  0  0  0  0  0  0  0  0
   45.8842  -12.0489  -14.4162 C   0  0  0  0  0  0  0  0  0  0  0  0
   45.4377  -13.1764  -13.6993 C   0  0  0  0  0  0  0  0  0  0  0  0
   44.0129  -13.2534  -13.1220 C   0  0  2  0  0  0  0  0  0  0  0  0
   46.3790  -14.1963  -13.4135 C   0  0  0  0  0  0  0  0  0  0  0  0
   47.6931  -14.1277  -13.8814 C   0  0  0  0  0  0  0  0  0  0  0  0
   48.0723  -13.0162  -14.6394 C   0  0  0  0  0  0  0  0  0  0  0  0
   47.1892  -11.9778  -14.9017 C   0  0  0  0  0  0  0  0  0  0  0  0
   49.3292  -12.9347  -15.1038 F   0  0  0  0  0  0  0  0  0  0  0  0
   47.6321  -16.5682  -12.1939 O   0  0  0  0  0  0  0  0  0  0  0  0
   48.6191  -16.2090  -12.8224 C   0  0  0  0  0  0  0  0  0  0  0  0
   48.6916  -15.0949  -13.6345 N   0  0  0  0  0  0  0  0  0  0  0  0
   40.1965  -10.0565  -12.7446 C   0  0  0  0  0  0  0  0  0  0  0  0
   39.5005   -9.4234  -12.0643 N   0  0  0  0  0  0  0  0  0  0  0  0
   43.5278  -14.6209  -12.8673 N   0  0  0  0  0  0  0  0  0  0  0  0
   43.2668  -15.4255  -14.0543 C   0  0  0  0  0  0  0  0  0  0  0  0
   43.0380  -16.8290  -13.5781 C   0  0  0  0  0  0  0  0  0  0  0  0
   41.6670  -17.2839  -13.1368 C   0  0  0  0  0  0  0  0  0  0  0  0
   42.2521  -17.7997  -14.4239 C   0  0  0  0  0  0  0  0  0  0  0  0
   49.8684  -16.9256  -12.7654 C   0  0  0  0  0  0  0  0  0  0  0  0
   50.6057  -17.3900  -13.8419 C   0  0  0  0  0  0  0  0  0  0  0  0
   51.6739  -18.1306  -13.2994 C   0  0  0  0  0  0  0  0  0  0  0  0
   51.6169  -18.1202  -11.9593 N   0  0  0  0  0  0  0  0  0  0  0  0
   50.5444  -17.3423  -11.6245 N   0  0  0  0  0  0  0  0  0  0  0  0
   52.7381  -18.8694  -14.0677 C   0  0  0  0  0  0  0  0  0  0  0  0
   52.8341  -18.4088  -15.3469 F   0  0  0  0  0  0  0  0  0  0  0  0
   53.9747  -18.7411  -13.5200 F   0  0  0  0  0  0  0  0  0  0  0  0
   52.4739  -20.1994  -14.1591 F   0  0  0  0  0  0  0  0  0  0  0  0
   50.3457  -17.0272  -10.2397 C   0  0  0  0  0  0  0  0  0  0  0  0
   51.0996  -17.7218   -9.2728 C   0  0  0  0  0  0  0  0  0  0  0  0
   49.4679  -16.0271   -9.8072 C   0  0  0  0  0  0  0  0  0  0  0  0
   49.3281  -15.7470   -8.4434 C   0  0  0  0  0  0  0  0  0  0  0  0
   50.0674  -16.4518   -7.4978 C   0  0  0  0  0  0  0  0  0  0  0  0
   50.9588  -17.4501   -7.9013 C   0  0  0  0  0  0  0  0  0  0  0  0
   51.7905  -18.1895   -6.8846 C   0  0  0  0  0  0  0  0  0  0  0  0
   53.0857  -17.5457   -6.6963 N   0  0  0  0  0  0  0  0  0  0  0  0
   42.1859  -11.6296  -11.9112 H   0  0  0  0  0  0  0  0  0  0  0  0
   43.3821  -12.9830  -15.8358 H   0  0  0  0  0  0  0  0  0  0  0  0
   41.6130  -11.5960  -16.8481 H   0  0  0  0  0  0  0  0  0  0  0  0
   40.1244  -10.2266  -15.4256 H   0  0  0  0  0  0  0  0  0  0  0  0
   45.2224  -11.2052  -14.6055 H   0  0  0  0  0  0  0  0  0  0  0  0
   44.1546  -12.8200  -12.1201 H   0  0  0  0  0  0  0  0  0  0  0  0
   46.0532  -15.0443  -12.8153 H   0  0  0  0  0  0  0  0  0  0  0  0
   47.5238  -11.1152  -15.4692 H   0  0  0  0  0  0  0  0  0  0  0  0
   49.5913  -14.8844  -14.0552 H   0  0  0  0  0  0  0  0  0  0  0  0
   42.6743  -14.5713  -12.3166 H   0  0  0  0  0  0  0  0  0  0  0  0
   44.1153  -15.4283  -14.7471 H   0  0  0  0  0  0  0  0  0  0  0  0
   42.3847  -15.0632  -14.5938 H   0  0  0  0  0  0  0  0  0  0  0  0
   43.9003  -17.2229  -13.0486 H   0  0  0  0  0  0  0  0  0  0  0  0
   40.8402  -16.5861  -13.2022 H   0  0  0  0  0  0  0  0  0  0  0  0
   41.6106  -17.9640  -12.2943 H   0  0  0  0  0  0  0  0  0  0  0  0
   41.8203  -17.4517  -15.3551 H   0  0  0  0  0  0  0  0  0  0  0  0
   42.5852  -18.8319  -14.4506 H   0  0  0  0  0  0  0  0  0  0  0  0
   50.3709  -17.2580  -14.8908 H   0  0  0  0  0  0  0  0  0  0  0  0
   51.8091  -18.4915   -9.5747 H   0  0  0  0  0  0  0  0  0  0  0  0
   48.8845  -15.4147  -10.4839 H   0  0  0  0  0  0  0  0  0  0  0  0
   48.6418  -14.9666   -8.1208 H   0  0  0  0  0  0  0  0  0  0  0  0
   49.9484  -16.2146   -6.4426 H   0  0  0  0  0  0  0  0  0  0  0  0
   51.2612  -18.2354   -5.9259 H   0  0  0  0  0  0  0  0  0  0  0  0
   51.9398  -19.2286   -7.2019 H   0  0  0  0  0  0  0  0  0  0  0  0
   53.5858  -17.5581   -7.5861 H   0  0  0  0  0  0  0  0  0  0  0  0
   52.9334  -16.5601   -6.4826 H   0  0  0  0  0  0  0  0  0  0  0  0
  1  2  2  0
  2  3  1  0
  3  4  2  0
  4  5  1  0
  5  6  2  0
  1  6  1  0
  7  8  2  0
  8  9  1  0
  9  3  1  0
 10 11  2  0
 11 12  1  0
 12 13  2  0
  7 13  1  0
  8 10  1  0
 15 16  2  0
 16 17  1  0
 14 12  1  0
 17 11  1  0
  1 18  1  0
 18 19  3  0
  9 20  1  0
 20 21  1  0
 21 22  1  0
 22 23  1  0
 22 24  1  0
 23 24  1  0
 16 25  1  0
 26 27  1  0
 27 28  2  0
 28 29  1  0
 29 25  1  0
 26 25  2  0
 27 30  1  0
 30 31  1  0
 30 32  1  0
 30 33  1  0
 29 34  1  0
 36 37  1  0
 37 38  2  0
 38 39  1  0
 35 39  2  0
 35 34  1  0
 34 36  2  0
 39 40  1  0
 40 41  1  0
  2 42  1  0
  4 43  1  0
  5 44  1  0
  6 45  1  0
  7 46  1  0
  9 47  1  1
 10 48  1  0
 13 49  1  0
 17 50  1  0
 20 51  1  0
 21 52  1  0
 21 53  1  0
 22 54  1  0
 23 55  1  0
 23 56  1  0
 24 57  1  0
 24 58  1  0
 26 59  1  0
 35 60  1  0
 36 61  1  0
 37 62  1  0
 38 63  1  0
 40 64  1  0
 40 65  1  0
 41 66  1  0
 41 67  1  0
M  END
> <Uni-Dock RESULT> 
ENERGY=   -3.274  LOWER_BOUND=    4.112  UPPER_BOUND=   10.584
INTER + INTRA:          -3.274
INTER:                  -3.274
INTRA:                   0.000
UNBOUND:                 0.000

$$$$
