
     RDKit          3D

 67 71  0  0  0  0  0  0  0  0999 V2000
   41.4199  -17.2874  -15.9848 C   0  0  0  0  0  0  0  0  0  0  0  0
   41.8555  -16.8153  -14.7409 C   0  0  0  0  0  0  0  0  0  0  0  0
   41.9641  -15.4345  -14.4930 C   0  0  0  0  0  0  0  0  0  0  0  0
   41.6492  -14.5417  -15.5330 C   0  0  0  0  0  0  0  0  0  0  0  0
   41.2174  -15.0105  -16.7754 C   0  0  0  0  0  0  0  0  0  0  0  0
   41.0957  -16.3816  -16.9986 C   0  0  0  0  0  0  0  0  0  0  0  0
   40.2837  -13.7591  -12.5565 C   0  0  0  0  0  0  0  0  0  0  0  0
   41.6944  -13.7450  -12.5466 C   0  0  0  0  0  0  0  0  0  0  0  0
   42.4524  -14.9541  -13.1240 C   0  0  2  0  0  0  0  0  0  0  0  0
   42.3397  -12.6509  -11.9305 C   0  0  0  0  0  0  0  0  0  0  0  0
   41.6126  -11.5920  -11.3792 C   0  0  0  0  0  0  0  0  0  0  0  0
   40.2162  -11.6354  -11.4404 C   0  0  0  0  0  0  0  0  0  0  0  0
   39.5475  -12.7051  -12.0171 C   0  0  0  0  0  0  0  0  0  0  0  0
   39.5001  -10.6254  -10.9183 F   0  0  0  0  0  0  0  0  0  0  0  0
   44.4545  -10.8981  -10.9123 O   0  0  0  0  0  0  0  0  0  0  0  0
   43.5256  -10.1799  -10.5653 C   0  0  0  0  0  0  0  0  0  0  0  0
   42.1873  -10.4641  -10.7532 N   0  0  0  0  0  0  0  0  0  0  0  0
   41.2947  -18.6984  -16.2107 C   0  0  0  0  0  0  0  0  0  0  0  0
   41.1837  -19.8405  -16.3866 N   0  0  0  0  0  0  0  0  0  0  0  0
   43.9195  -14.9059  -13.0499 N   0  0  0  0  0  0  0  0  0  0  0  0
   44.5745  -14.0622  -14.0408 C   0  0  0  0  0  0  0  0  0  0  0  0
   46.0057  -13.8881  -13.6201 C   0  0  0  0  0  0  0  0  0  0  0  0
   46.9917  -15.0243  -13.7231 C   0  0  0  0  0  0  0  0  0  0  0  0
   47.1042  -13.8487  -14.6550 C   0  0  0  0  0  0  0  0  0  0  0  0
   43.7342   -8.9245   -9.8868 C   0  0  0  0  0  0  0  0  0  0  0  0
   43.1435   -8.5221   -8.6990 C   0  0  0  0  0  0  0  0  0  0  0  0
   43.7520   -7.3006   -8.3485 C   0  0  0  0  0  0  0  0  0  0  0  0
   44.6547   -6.9458   -9.2747 N   0  0  0  0  0  0  0  0  0  0  0  0
   44.6140   -7.9085  -10.2449 N   0  0  0  0  0  0  0  0  0  0  0  0
   43.4829   -6.4776   -7.1157 C   0  0  0  0  0  0  0  0  0  0  0  0
   43.1246   -5.2011   -7.4113 F   0  0  0  0  0  0  0  0  0  0  0  0
   42.4621   -7.0021   -6.3808 F   0  0  0  0  0  0  0  0  0  0  0  0
   44.5582   -6.4132   -6.2886 F   0  0  0  0  0  0  0  0  0  0  0  0
   45.3821   -7.6969  -11.4377 C   0  0  0  0  0  0  0  0  0  0  0  0
   46.3049   -6.6308  -11.4668 C   0  0  0  0  0  0  0  0  0  0  0  0
   45.2325   -8.4794  -12.5862 C   0  0  0  0  0  0  0  0  0  0  0  0
   46.0057   -8.2225  -13.7234 C   0  0  0  0  0  0  0  0  0  0  0  0
   46.9198   -7.1723  -13.7348 C   0  0  0  0  0  0  0  0  0  0  0  0
   47.0819   -6.3630  -12.6065 C   0  0  0  0  0  0  0  0  0  0  0  0
   48.0453   -5.2012  -12.6212 C   0  0  0  0  0  0  0  0  0  0  0  0
   49.3882   -5.6156  -13.0150 N   0  0  0  0  0  0  0  0  0  0  0  0
   42.1220  -17.5236  -13.9562 H   0  0  0  0  0  0  0  0  0  0  0  0
   41.7449  -13.4681  -15.3817 H   0  0  0  0  0  0  0  0  0  0  0  0
   40.9790  -14.3065  -17.5695 H   0  0  0  0  0  0  0  0  0  0  0  0
   40.7561  -16.7369  -17.9708 H   0  0  0  0  0  0  0  0  0  0  0  0
   39.7455  -14.6014  -12.9895 H   0  0  0  0  0  0  0  0  0  0  0  0
   42.1844  -15.7545  -12.4169 H   0  0  0  0  0  0  0  0  0  0  0  0
   43.4213  -12.6378  -11.8759 H   0  0  0  0  0  0  0  0  0  0  0  0
   38.4624  -12.7171  -12.0358 H   0  0  0  0  0  0  0  0  0  0  0  0
   41.5136   -9.7807  -10.4222 H   0  0  0  0  0  0  0  0  0  0  0  0
   44.2007  -14.6396  -12.1104 H   0  0  0  0  0  0  0  0  0  0  0  0
   44.1220  -13.0669  -14.1174 H   0  0  0  0  0  0  0  0  0  0  0  0
   44.5311  -14.5309  -15.0298 H   0  0  0  0  0  0  0  0  0  0  0  0
   46.0999  -13.2151  -12.7735 H   0  0  0  0  0  0  0  0  0  0  0  0
   46.6530  -15.9694  -14.1310 H   0  0  0  0  0  0  0  0  0  0  0  0
   47.7296  -15.1236  -12.9354 H   0  0  0  0  0  0  0  0  0  0  0  0
   46.8527  -14.0097  -15.6961 H   0  0  0  0  0  0  0  0  0  0  0  0
   47.9115  -13.1431  -14.4993 H   0  0  0  0  0  0  0  0  0  0  0  0
   42.4102   -9.0728   -8.1227 H   0  0  0  0  0  0  0  0  0  0  0  0
   46.4300   -5.9907  -10.5951 H   0  0  0  0  0  0  0  0  0  0  0  0
   44.5201   -9.2895  -12.6645 H   0  0  0  0  0  0  0  0  0  0  0  0
   45.8922   -8.8469  -14.6054 H   0  0  0  0  0  0  0  0  0  0  0  0
   47.5140   -6.9823  -14.6277 H   0  0  0  0  0  0  0  0  0  0  0  0
   47.6728   -4.4409  -13.3172 H   0  0  0  0  0  0  0  0  0  0  0  0
   48.0987   -4.7359  -11.6305 H   0  0  0  0  0  0  0  0  0  0  0  0
   50.0166   -4.8193  -12.9416 H   0  0  0  0  0  0  0  0  0  0  0  0
   49.7243   -6.3101  -12.3486 H   0  0  0  0  0  0  0  0  0  0  0  0
  1  2  2  0
  2  3  1  0
  3  4  2  0
  4  5  1  0
  5  6  2  0
  1  6  1  0
  7  8  2  0
  8  9  1  0
  9  3  1  0
 10 11  2  0
 11 12  1  0
 12 13  2  0
  7 13  1  0
  8 10  1  0
 15 16  2  0
 16 17  1  0
 14 12  1  0
 17 11  1  0
  1 18  1  0
 18 19  3  0
  9 20  1  0
 20 21  1  0
 21 22  1  0
 22 23  1  0
 22 24  1  0
 23 24  1  0
 16 25  1  0
 26 27  1  0
 27 28  2  0
 28 29  1  0
 29 25  1  0
 26 25  2  0
 27 30  1  0
 30 31  1  0
 30 32  1  0
 30 33  1  0
 29 34  1  0
 36 37  1  0
 37 38  2  0
 38 39  1  0
 35 39  2  0
 35 34  1  0
 34 36  2  0
 39 40  1  0
 40 41  1  0
  2 42  1  0
  4 43  1  0
  5 44  1  0
  6 45  1  0
  7 46  1  0
  9 47  1  6
 10 48  1  0
 13 49  1  0
 17 50  1  0
 20 51  1  0
 21 52  1  0
 21 53  1  0
 22 54  1  0
 23 55  1  0
 23 56  1  0
 24 57  1  0
 24 58  1  0
 26 59  1  0
 35 60  1  0
 36 61  1  0
 37 62  1  0
 38 63  1  0
 40 64  1  0
 40 65  1  0
 41 66  1  0
 41 67  1  0
M  END
> <Uni-Dock RESULT> 
ENERGY=   -2.545  LOWER_BOUND=    0.000  UPPER_BOUND=    0.000
INTER + INTRA:          -2.545
INTER:                  -2.545
INTRA:                   0.000
UNBOUND:                 0.000

$$$$

     RDKit          3D

 67 71  0  0  0  0  0  0  0  0999 V2000
   53.1001  -18.9356   -8.0333 C   0  0  0  0  0  0  0  0  0  0  0  0
   51.7641  -19.3018   -8.2361 C   0  0  0  0  0  0  0  0  0  0  0  0
   50.9955  -18.6911   -9.2441 C   0  0  0  0  0  0  0  0  0  0  0  0
   51.5942  -17.6864  -10.0250 C   0  0  0  0  0  0  0  0  0  0  0  0
   52.9256  -17.3175   -9.8225 C   0  0  0  0  0  0  0  0  0  0  0  0
   53.6798  -17.9466   -8.8327 C   0  0  0  0  0  0  0  0  0  0  0  0
   49.8923  -19.9980  -11.7849 C   0  0  0  0  0  0  0  0  0  0  0  0
   49.0814  -19.2628  -10.8948 C   0  0  0  0  0  0  0  0  0  0  0  0
   49.5351  -19.1101   -9.4317 C   0  0  2  0  0  0  0  0  0  0  0  0
   47.8490  -18.7710  -11.3768 C   0  0  0  0  0  0  0  0  0  0  0  0
   47.4541  -18.9684  -12.7031 C   0  0  0  0  0  0  0  0  0  0  0  0
   48.3056  -19.6769  -13.5567 C   0  0  0  0  0  0  0  0  0  0  0  0
   49.5131  -20.1947  -13.1120 C   0  0  0  0  0  0  0  0  0  0  0  0
   47.9443  -19.8744  -14.8358 F   0  0  0  0  0  0  0  0  0  0  0  0
   45.2401  -17.4413  -11.4612 O   0  0  0  0  0  0  0  0  0  0  0  0
   45.2385  -17.7840  -12.6367 C   0  0  0  0  0  0  0  0  0  0  0  0
   46.2415  -18.5024  -13.2570 N   0  0  0  0  0  0  0  0  0  0  0  0
   53.8735  -19.5856   -7.0150 C   0  0  0  0  0  0  0  0  0  0  0  0
   54.5000  -20.1215   -6.1976 N   0  0  0  0  0  0  0  0  0  0  0  0
   48.6324  -18.3711   -8.5378 N   0  0  0  0  0  0  0  0  0  0  0  0
   48.6650  -16.9202   -8.6662 C   0  0  0  0  0  0  0  0  0  0  0  0
   47.4811  -16.3680   -7.9251 C   0  0  0  0  0  0  0  0  0  0  0  0
   47.4312  -16.3788   -6.4179 C   0  0  0  0  0  0  0  0  0  0  0  0
   47.6012  -15.0768   -7.1521 C   0  0  0  0  0  0  0  0  0  0  0  0
   44.1462  -17.4774  -13.5270 C   0  0  0  0  0  0  0  0  0  0  0  0
   43.4587  -18.3765  -14.3272 C   0  0  0  0  0  0  0  0  0  0  0  0
   42.3928  -17.6581  -14.9042 C   0  0  0  0  0  0  0  0  0  0  0  0
   42.4240  -16.3773  -14.5075 N   0  0  0  0  0  0  0  0  0  0  0  0
   43.5232  -16.2466  -13.7047 N   0  0  0  0  0  0  0  0  0  0  0  0
   41.3302  -18.2004  -15.8240 C   0  0  0  0  0  0  0  0  0  0  0  0
   41.2628  -17.5202  -16.9980 F   0  0  0  0  0  0  0  0  0  0  0  0
   41.5702  -19.5022  -16.1481 F   0  0  0  0  0  0  0  0  0  0  0  0
   40.0923  -18.1653  -15.2664 F   0  0  0  0  0  0  0  0  0  0  0  0
   43.8801  -14.9308  -13.2589 C   0  0  0  0  0  0  0  0  0  0  0  0
   42.9731  -13.8735  -13.4793 C   0  0  0  0  0  0  0  0  0  0  0  0
   45.1027  -14.6421  -12.6457 C   0  0  0  0  0  0  0  0  0  0  0  0
   45.3988  -13.3376  -12.2366 C   0  0  0  0  0  0  0  0  0  0  0  0
   44.4898  -12.3051  -12.4523 C   0  0  0  0  0  0  0  0  0  0  0  0
   43.2648  -12.5595  -13.0759 C   0  0  0  0  0  0  0  0  0  0  0  0
   42.2879  -11.4408  -13.3448 C   0  0  0  0  0  0  0  0  0  0  0  0
   41.9738  -10.6924  -12.1318 N   0  0  0  0  0  0  0  0  0  0  0  0
   51.3093  -20.0630   -7.6018 H   0  0  0  0  0  0  0  0  0  0  0  0
   51.0205  -17.1777  -10.7976 H   0  0  0  0  0  0  0  0  0  0  0  0
   53.3730  -16.5375  -10.4346 H   0  0  0  0  0  0  0  0  0  0  0  0
   54.7183  -17.6527   -8.6841 H   0  0  0  0  0  0  0  0  0  0  0  0
   50.8344  -20.4260  -11.4443 H   0  0  0  0  0  0  0  0  0  0  0  0
   49.4746  -20.1453   -9.0614 H   0  0  0  0  0  0  0  0  0  0  0  0
   47.1921  -18.2378  -10.7008 H   0  0  0  0  0  0  0  0  0  0  0  0
   50.1454  -20.7533  -13.7948 H   0  0  0  0  0  0  0  0  0  0  0  0
   46.1204  -18.7195  -14.2413 H   0  0  0  0  0  0  0  0  0  0  0  0
   47.6849  -18.7198   -8.6527 H   0  0  0  0  0  0  0  0  0  0  0  0
   48.5980  -16.5839   -9.7072 H   0  0  0  0  0  0  0  0  0  0  0  0
   49.5913  -16.5200   -8.2400 H   0  0  0  0  0  0  0  0  0  0  0  0
   46.5524  -16.5388   -8.4606 H   0  0  0  0  0  0  0  0  0  0  0  0
   48.2811  -16.7737   -5.8738 H   0  0  0  0  0  0  0  0  0  0  0  0
   46.4755  -16.5783   -5.9472 H   0  0  0  0  0  0  0  0  0  0  0  0
   48.5662  -14.5890   -7.0886 H   0  0  0  0  0  0  0  0  0  0  0  0
   46.7618  -14.3928   -7.1893 H   0  0  0  0  0  0  0  0  0  0  0  0
   43.6619  -19.4352  -14.4321 H   0  0  0  0  0  0  0  0  0  0  0  0
   42.0211  -14.0624  -13.9725 H   0  0  0  0  0  0  0  0  0  0  0  0
   45.8716  -15.3835  -12.4755 H   0  0  0  0  0  0  0  0  0  0  0  0
   46.3458  -13.1275  -11.7470 H   0  0  0  0  0  0  0  0  0  0  0  0
   44.7342  -11.2936  -12.1303 H   0  0  0  0  0  0  0  0  0  0  0  0
   42.7181  -10.7676  -14.0950 H   0  0  0  0  0  0  0  0  0  0  0  0
   41.3560  -11.8388  -13.7620 H   0  0  0  0  0  0  0  0  0  0  0  0
   41.2612   -9.9986  -12.3447 H   0  0  0  0  0  0  0  0  0  0  0  0
   41.5608  -11.3301  -11.4522 H   0  0  0  0  0  0  0  0  0  0  0  0
  1  2  2  0
  2  3  1  0
  3  4  2  0
  4  5  1  0
  5  6  2  0
  1  6  1  0
  7  8  2  0
  8  9  1  0
  9  3  1  0
 10 11  2  0
 11 12  1  0
 12 13  2  0
  7 13  1  0
  8 10  1  0
 15 16  2  0
 16 17  1  0
 14 12  1  0
 17 11  1  0
  1 18  1  0
 18 19  3  0
  9 20  1  0
 20 21  1  0
 21 22  1  0
 22 23  1  0
 22 24  1  0
 23 24  1  0
 16 25  1  0
 26 27  1  0
 27 28  2  0
 28 29  1  0
 29 25  1  0
 26 25  2  0
 27 30  1  0
 30 31  1  0
 30 32  1  0
 30 33  1  0
 29 34  1  0
 36 37  1  0
 37 38  2  0
 38 39  1  0
 35 39  2  0
 35 34  1  0
 34 36  2  0
 39 40  1  0
 40 41  1  0
  2 42  1  0
  4 43  1  0
  5 44  1  0
  6 45  1  0
  7 46  1  0
  9 47  1  6
 10 48  1  0
 13 49  1  0
 17 50  1  0
 20 51  1  0
 21 52  1  0
 21 53  1  0
 22 54  1  0
 23 55  1  0
 23 56  1  0
 24 57  1  0
 24 58  1  0
 26 59  1  0
 35 60  1  0
 36 61  1  0
 37 62  1  0
 38 63  1  0
 40 64  1  0
 40 65  1  0
 41 66  1  0
 41 67  1  0
M  END
> <Uni-Dock RESULT> 
ENERGY=   -1.509  LOWER_BOUND=    6.378  UPPER_BOUND=   10.925
INTER + INTRA:          -1.509
INTER:                  -1.509
INTRA:                   0.000
UNBOUND:                 0.000

$$$$

     RDKit          3D

 67 71  0  0  0  0  0  0  0  0999 V2000
   40.3301   -7.7385  -13.6275 C   0  0  0  0  0  0  0  0  0  0  0  0
   41.5241   -8.2355  -14.1637 C   0  0  0  0  0  0  0  0  0  0  0  0
   41.9709   -9.5315  -13.8465 C   0  0  0  0  0  0  0  0  0  0  0  0
   41.2025  -10.3049  -12.9581 C   0  0  0  0  0  0  0  0  0  0  0  0
   40.0129   -9.8100  -12.4199 C   0  0  0  0  0  0  0  0  0  0  0  0
   39.5734   -8.5311  -12.7600 C   0  0  0  0  0  0  0  0  0  0  0  0
   42.1901  -11.9327  -15.7352 C   0  0  0  0  0  0  0  0  0  0  0  0
   43.2632  -11.5003  -14.9280 C   0  0  0  0  0  0  0  0  0  0  0  0
   43.2857  -10.0390  -14.4441 C   0  0  2  0  0  0  0  0  0  0  0  0
   44.3074  -12.4151  -14.6717 C   0  0  0  0  0  0  0  0  0  0  0  0
   44.2691  -13.7221  -15.1661 C   0  0  0  0  0  0  0  0  0  0  0  0
   43.1696  -14.1145  -15.9359 C   0  0  0  0  0  0  0  0  0  0  0  0
   42.1366  -13.2360  -16.2274 C   0  0  0  0  0  0  0  0  0  0  0  0
   43.1137  -15.3677  -16.4176 F   0  0  0  0  0  0  0  0  0  0  0  0
   46.8161  -13.5431  -13.6638 O   0  0  0  0  0  0  0  0  0  0  0  0
   46.4440  -14.5634  -14.2292 C   0  0  0  0  0  0  0  0  0  0  0  0
   45.2714  -14.6925  -14.9471 N   0  0  0  0  0  0  0  0  0  0  0  0
   39.8803   -6.4229  -13.9804 C   0  0  0  0  0  0  0  0  0  0  0  0
   39.5134   -5.3622  -14.2768 N   0  0  0  0  0  0  0  0  0  0  0  0
   44.4475   -9.6306  -13.6419 N   0  0  0  0  0  0  0  0  0  0  0  0
   44.4352  -10.0583  -12.2492 C   0  0  0  0  0  0  0  0  0  0  0  0
   45.8101   -9.8330  -11.6886 C   0  0  0  0  0  0  0  0  0  0  0  0
   46.3186   -8.4413  -11.4080 C   0  0  0  0  0  0  0  0  0  0  0  0
   45.9842   -9.3608  -10.2652 C   0  0  0  0  0  0  0  0  0  0  0  0
   47.2226  -15.7774  -14.2192 C   0  0  0  0  0  0  0  0  0  0  0  0
   47.5956  -16.5257  -15.3248 C   0  0  0  0  0  0  0  0  0  0  0  0
   48.4615  -17.5302  -14.8489 C   0  0  0  0  0  0  0  0  0  0  0  0
   48.6043  -17.4320  -13.5190 N   0  0  0  0  0  0  0  0  0  0  0  0
   47.8099  -16.3934  -13.1191 N   0  0  0  0  0  0  0  0  0  0  0  0
   49.1689  -18.5771  -15.6693 C   0  0  0  0  0  0  0  0  0  0  0  0
   48.9006  -19.8391  -15.2440 F   0  0  0  0  0  0  0  0  0  0  0  0
   48.7894  -18.5242  -16.9771 F   0  0  0  0  0  0  0  0  0  0  0  0
   50.5184  -18.4252  -15.6544 F   0  0  0  0  0  0  0  0  0  0  0  0
   47.6595  -16.1625  -11.7115 C   0  0  0  0  0  0  0  0  0  0  0  0
   48.4968  -16.8629  -10.8186 C   0  0  0  0  0  0  0  0  0  0  0  0
   46.6959  -15.2992  -11.1821 C   0  0  0  0  0  0  0  0  0  0  0  0
   46.5915  -15.1177   -9.7990 C   0  0  0  0  0  0  0  0  0  0  0  0
   47.4313  -15.8088   -8.9295 C   0  0  0  0  0  0  0  0  0  0  0  0
   48.3954  -16.6900   -9.4279 C   0  0  0  0  0  0  0  0  0  0  0  0
   49.2869  -17.4693   -8.4919 C   0  0  0  0  0  0  0  0  0  0  0  0
   49.9869  -16.5947   -7.5564 N   0  0  0  0  0  0  0  0  0  0  0  0
   42.1205   -7.6103  -14.8284 H   0  0  0  0  0  0  0  0  0  0  0  0
   41.5319  -11.3026  -12.6739 H   0  0  0  0  0  0  0  0  0  0  0  0
   39.4310  -10.4208  -11.7333 H   0  0  0  0  0  0  0  0  0  0  0  0
   38.6430   -8.1552  -12.3360 H   0  0  0  0  0  0  0  0  0  0  0  0
   41.3812  -11.2479  -15.9874 H   0  0  0  0  0  0  0  0  0  0  0  0
   43.4154   -9.4850  -15.3869 H   0  0  0  0  0  0  0  0  0  0  0  0
   45.1606  -12.0931  -14.0874 H   0  0  0  0  0  0  0  0  0  0  0  0
   41.3038  -13.5659  -16.8405 H   0  0  0  0  0  0  0  0  0  0  0  0
   45.0766  -15.5969  -15.3649 H   0  0  0  0  0  0  0  0  0  0  0  0
   45.2997   -9.9366  -14.1032 H   0  0  0  0  0  0  0  0  0  0  0  0
   44.1936  -11.1211  -12.1330 H   0  0  0  0  0  0  0  0  0  0  0  0
   43.7006   -9.4798  -11.6788 H   0  0  0  0  0  0  0  0  0  0  0  0
   46.5227  -10.5644  -12.0572 H   0  0  0  0  0  0  0  0  0  0  0  0
   45.6611   -7.6010  -11.5974 H   0  0  0  0  0  0  0  0  0  0  0  0
   47.3638   -8.2370  -11.6095 H   0  0  0  0  0  0  0  0  0  0  0  0
   45.1053   -9.1280   -9.6766 H   0  0  0  0  0  0  0  0  0  0  0  0
   46.7985   -9.7892   -9.6932 H   0  0  0  0  0  0  0  0  0  0  0  0
   47.3280  -16.3325  -16.3564 H   0  0  0  0  0  0  0  0  0  0  0  0
   49.2437  -17.5576  -11.1989 H   0  0  0  0  0  0  0  0  0  0  0  0
   45.9870  -14.7549  -11.7913 H   0  0  0  0  0  0  0  0  0  0  0  0
   45.8492  -14.4324   -9.3992 H   0  0  0  0  0  0  0  0  0  0  0  0
   47.3379  -15.6593   -7.8546 H   0  0  0  0  0  0  0  0  0  0  0  0
   48.6749  -18.1905   -7.9382 H   0  0  0  0  0  0  0  0  0  0  0  0
   50.0296  -18.0417   -9.0590 H   0  0  0  0  0  0  0  0  0  0  0  0
   50.6272  -17.1520   -6.9962 H   0  0  0  0  0  0  0  0  0  0  0  0
   50.5624  -15.9420   -8.0876 H   0  0  0  0  0  0  0  0  0  0  0  0
  1  2  2  0
  2  3  1  0
  3  4  2  0
  4  5  1  0
  5  6  2  0
  1  6  1  0
  7  8  2  0
  8  9  1  0
  9  3  1  0
 10 11  2  0
 11 12  1  0
 12 13  2  0
  7 13  1  0
  8 10  1  0
 15 16  2  0
 16 17  1  0
 14 12  1  0
 17 11  1  0
  1 18  1  0
 18 19  3  0
  9 20  1  0
 20 21  1  0
 21 22  1  0
 22 23  1  0
 22 24  1  0
 23 24  1  0
 16 25  1  0
 26 27  1  0
 27 28  2  0
 28 29  1  0
 29 25  1  0
 26 25  2  0
 27 30  1  0
 30 31  1  0
 30 32  1  0
 30 33  1  0
 29 34  1  0
 36 37  1  0
 37 38  2  0
 38 39  1  0
 35 39  2  0
 35 34  1  0
 34 36  2  0
 39 40  1  0
 40 41  1  0
  2 42  1  0
  4 43  1  0
  5 44  1  0
  6 45  1  0
  7 46  1  0
  9 47  1  6
 10 48  1  0
 13 49  1  0
 17 50  1  0
 20 51  1  0
 21 52  1  0
 21 53  1  0
 22 54  1  0
 23 55  1  0
 23 56  1  0
 24 57  1  0
 24 58  1  0
 26 59  1  0
 35 60  1  0
 36 61  1  0
 37 62  1  0
 38 63  1  0
 40 64  1  0
 40 65  1  0
 41 66  1  0
 41 67  1  0
M  END
> <Uni-Dock RESULT> 
ENERGY=   -1.363  LOWER_BOUND=    5.326  UPPER_BOUND=    9.601
INTER + INTRA:          -1.363
INTER:                  -1.363
INTRA:                   0.000
UNBOUND:                 0.000

$$$$

     RDKit          3D

 67 71  0  0  0  0  0  0  0  0999 V2000
   53.0345  -18.5871   -9.7360 C   0  0  0  0  0  0  0  0  0  0  0  0
   51.6621  -18.8287   -9.8711 C   0  0  0  0  0  0  0  0  0  0  0  0
   50.8561  -17.9826  -10.6549 C   0  0  0  0  0  0  0  0  0  0  0  0
   51.4580  -16.8745  -11.2777 C   0  0  0  0  0  0  0  0  0  0  0  0
   52.8260  -16.6301  -11.1419 C   0  0  0  0  0  0  0  0  0  0  0  0
   53.6147  -17.4896  -10.3780 C   0  0  0  0  0  0  0  0  0  0  0  0
   49.4387  -18.6782  -13.2793 C   0  0  0  0  0  0  0  0  0  0  0  0
   48.7668  -18.0963  -12.1838 C   0  0  0  0  0  0  0  0  0  0  0  0
   49.3575  -18.2718  -10.7730 C   0  0  2  0  0  0  0  0  0  0  0  0
   47.5375  -17.4480  -12.4315 C   0  0  0  0  0  0  0  0  0  0  0  0
   47.0138  -17.3475  -13.7237 C   0  0  0  0  0  0  0  0  0  0  0  0
   47.7313  -17.9131  -14.7825 C   0  0  0  0  0  0  0  0  0  0  0  0
   48.9307  -18.5778  -14.5738 C   0  0  0  0  0  0  0  0  0  0  0  0
   47.2452  -17.8243  -16.0321 F   0  0  0  0  0  0  0  0  0  0  0  0
   45.0390  -15.9850  -11.9861 O   0  0  0  0  0  0  0  0  0  0  0  0
   44.9083  -16.0794  -13.1998 C   0  0  0  0  0  0  0  0  0  0  0  0
   45.7959  -16.7108  -14.0486 N   0  0  0  0  0  0  0  0  0  0  0  0
   53.8431  -19.4740   -8.9504 C   0  0  0  0  0  0  0  0  0  0  0  0
   54.4968  -20.2000   -8.3231 N   0  0  0  0  0  0  0  0  0  0  0  0
   48.5951  -17.6817   -9.6637 N   0  0  0  0  0  0  0  0  0  0  0  0
   48.7255  -16.2394   -9.5046 C   0  0  0  0  0  0  0  0  0  0  0  0
   47.6563  -15.7850   -8.5528 C   0  0  0  0  0  0  0  0  0  0  0  0
   47.7383  -16.1009   -7.0805 C   0  0  0  0  0  0  0  0  0  0  0  0
   47.9408  -14.6879   -7.5554 C   0  0  0  0  0  0  0  0  0  0  0  0
   43.7682  -15.5364  -13.8965 C   0  0  0  0  0  0  0  0  0  0  0  0
   42.9473  -16.2129  -14.7853 C   0  0  0  0  0  0  0  0  0  0  0  0
   41.8920  -15.3330  -15.0975 C   0  0  0  0  0  0  0  0  0  0  0  0
   42.0545  -14.1643  -14.4600 N   0  0  0  0  0  0  0  0  0  0  0  0
   43.2266  -14.2623  -13.7627 N   0  0  0  0  0  0  0  0  0  0  0  0
   40.7149  -15.6153  -15.9941 C   0  0  0  0  0  0  0  0  0  0  0  0
   40.5962  -14.7068  -16.9971 F   0  0  0  0  0  0  0  0  0  0  0  0
   40.8267  -16.8347  -16.5924 F   0  0  0  0  0  0  0  0  0  0  0  0
   39.5370  -15.6256  -15.3182 F   0  0  0  0  0  0  0  0  0  0  0  0
   43.7195  -13.0876  -13.1034 C   0  0  0  0  0  0  0  0  0  0  0  0
   42.8789  -11.9585  -13.0169 C   0  0  0  0  0  0  0  0  0  0  0  0
   45.0094  -12.9995  -12.5722 C   0  0  0  0  0  0  0  0  0  0  0  0
   45.4378  -11.8249  -11.9448 C   0  0  0  0  0  0  0  0  0  0  0  0
   44.5938  -10.7208  -11.8583 C   0  0  0  0  0  0  0  0  0  0  0  0
   43.3031  -10.7733  -12.3927 C   0  0  0  0  0  0  0  0  0  0  0  0
   42.3935   -9.5702  -12.3343 C   0  0  0  0  0  0  0  0  0  0  0  0
   42.2444   -9.0692  -10.9716 N   0  0  0  0  0  0  0  0  0  0  0  0
   51.2087  -19.6767   -9.3576 H   0  0  0  0  0  0  0  0  0  0  0  0
   50.8586  -16.1873  -11.8720 H   0  0  0  0  0  0  0  0  0  0  0  0
   53.2755  -15.7678  -11.6294 H   0  0  0  0  0  0  0  0  0  0  0  0
   54.6814  -17.2911  -10.2800 H   0  0  0  0  0  0  0  0  0  0  0  0
   50.3721  -19.2190  -13.1275 H   0  0  0  0  0  0  0  0  0  0  0  0
   49.2519  -19.3558  -10.6111 H   0  0  0  0  0  0  0  0  0  0  0  0
   46.9845  -17.0284  -11.6002 H   0  0  0  0  0  0  0  0  0  0  0  0
   49.4567  -19.0196  -15.4142 H   0  0  0  0  0  0  0  0  0  0  0  0
   45.5729  -16.7150  -15.0389 H   0  0  0  0  0  0  0  0  0  0  0  0
   47.6175  -17.9459   -9.7489 H   0  0  0  0  0  0  0  0  0  0  0  0
   48.5929  -15.6941  -10.4460 H   0  0  0  0  0  0  0  0  0  0  0  0
   49.7132  -15.9874   -9.1036 H   0  0  0  0  0  0  0  0  0  0  0  0
   46.6739  -15.7903   -9.0147 H   0  0  0  0  0  0  0  0  0  0  0  0
   48.6005  -16.6457   -6.7144 H   0  0  0  0  0  0  0  0  0  0  0  0
   46.8153  -16.3385   -6.5644 H   0  0  0  0  0  0  0  0  0  0  0  0
   48.9416  -14.2783   -7.4945 H   0  0  0  0  0  0  0  0  0  0  0  0
   47.1553  -13.9648   -7.3711 H   0  0  0  0  0  0  0  0  0  0  0  0
   43.0601  -17.2375  -15.1179 H   0  0  0  0  0  0  0  0  0  0  0  0
   41.8758  -11.9888  -13.4388 H   0  0  0  0  0  0  0  0  0  0  0  0
   45.7322  -13.8020  -12.6311 H   0  0  0  0  0  0  0  0  0  0  0  0
   46.4373  -11.7728  -11.5216 H   0  0  0  0  0  0  0  0  0  0  0  0
   44.9411   -9.8119  -11.3687 H   0  0  0  0  0  0  0  0  0  0  0  0
   42.8056   -8.7829  -12.9758 H   0  0  0  0  0  0  0  0  0  0  0  0
   41.4012   -9.8215  -12.7256 H   0  0  0  0  0  0  0  0  0  0  0  0
   41.5702   -8.3077  -10.9695 H   0  0  0  0  0  0  0  0  0  0  0  0
   41.8458   -9.8083  -10.3935 H   0  0  0  0  0  0  0  0  0  0  0  0
  1  2  2  0
  2  3  1  0
  3  4  2  0
  4  5  1  0
  5  6  2  0
  1  6  1  0
  7  8  2  0
  8  9  1  0
  9  3  1  0
 10 11  2  0
 11 12  1  0
 12 13  2  0
  7 13  1  0
  8 10  1  0
 15 16  2  0
 16 17  1  0
 14 12  1  0
 17 11  1  0
  1 18  1  0
 18 19  3  0
  9 20  1  0
 20 21  1  0
 21 22  1  0
 22 23  1  0
 22 24  1  0
 23 24  1  0
 16 25  1  0
 26 27  1  0
 27 28  2  0
 28 29  1  0
 29 25  1  0
 26 25  2  0
 27 30  1  0
 30 31  1  0
 30 32  1  0
 30 33  1  0
 29 34  1  0
 36 37  1  0
 37 38  2  0
 38 39  1  0
 35 39  2  0
 35 34  1  0
 34 36  2  0
 39 40  1  0
 40 41  1  0
  2 42  1  0
  4 43  1  0
  5 44  1  0
  6 45  1  0
  7 46  1  0
  9 47  1  6
 10 48  1  0
 13 49  1  0
 17 50  1  0
 20 51  1  0
 21 52  1  0
 21 53  1  0
 22 54  1  0
 23 55  1  0
 23 56  1  0
 24 57  1  0
 24 58  1  0
 26 59  1  0
 35 60  1  0
 36 61  1  0
 37 62  1  0
 38 63  1  0
 40 64  1  0
 40 65  1  0
 41 66  1  0
 41 67  1  0
M  END
> <Uni-Dock RESULT> 
ENERGY=   -1.214  LOWER_BOUND=    5.414  UPPER_BOUND=    9.723
INTER + INTRA:          -1.214
INTER:                  -1.214
INTRA:                   0.000
UNBOUND:                 0.000

$$$$

     RDKit          3D

 67 71  0  0  0  0  0  0  0  0999 V2000
   48.8354  -17.4422  -15.9568 C   0  0  0  0  0  0  0  0  0  0  0  0
   47.5969  -16.9491  -15.5289 C   0  0  0  0  0  0  0  0  0  0  0  0
   47.4599  -15.6126  -15.1108 C   0  0  0  0  0  0  0  0  0  0  0  0
   48.6022  -14.7923  -15.1090 C   0  0  0  0  0  0  0  0  0  0  0  0
   49.8390  -15.2829  -15.5326 C   0  0  0  0  0  0  0  0  0  0  0  0
   49.9538  -16.6042  -15.9630 C   0  0  0  0  0  0  0  0  0  0  0  0
   45.8742  -13.3884  -16.4961 C   0  0  0  0  0  0  0  0  0  0  0  0
   45.7100  -13.7013  -15.1304 C   0  0  0  0  0  0  0  0  0  0  0  0
   46.0925  -15.1099  -14.6409 C   0  0  2  0  0  0  0  0  0  0  0  0
   45.1242  -12.7256  -14.2949 C   0  0  0  0  0  0  0  0  0  0  0  0
   44.7511  -11.4723  -14.7887 C   0  0  0  0  0  0  0  0  0  0  0  0
   44.9620  -11.1966  -16.1434 C   0  0  0  0  0  0  0  0  0  0  0  0
   45.5134  -12.1390  -16.9989 C   0  0  0  0  0  0  0  0  0  0  0  0
   44.6122   -9.9963  -16.6358 F   0  0  0  0  0  0  0  0  0  0  0  0
   44.0356  -11.4102  -11.9146 O   0  0  0  0  0  0  0  0  0  0  0  0
   43.8572  -10.4618  -12.6683 C   0  0  0  0  0  0  0  0  0  0  0  0
   44.1663  -10.4464  -14.0142 N   0  0  0  0  0  0  0  0  0  0  0  0
   48.9497  -18.8017  -16.4001 C   0  0  0  0  0  0  0  0  0  0  0  0
   49.0365  -19.8990  -16.7688 N   0  0  0  0  0  0  0  0  0  0  0  0
   45.8614  -15.3959  -13.2179 N   0  0  0  0  0  0  0  0  0  0  0  0
   46.8438  -14.8428  -12.2949 C   0  0  0  0  0  0  0  0  0  0  0  0
   46.2845  -14.9603  -10.9061 C   0  0  0  0  0  0  0  0  0  0  0  0
   46.1785  -16.2988  -10.2195 C   0  0  0  0  0  0  0  0  0  0  0  0
   47.1912  -15.2923   -9.7455 C   0  0  0  0  0  0  0  0  0  0  0  0
   43.2720   -9.2219  -12.2212 C   0  0  0  0  0  0  0  0  0  0  0  0
   42.1963   -8.5640  -12.7971 C   0  0  0  0  0  0  0  0  0  0  0  0
   41.8886   -7.4861  -11.9435 C   0  0  0  0  0  0  0  0  0  0  0  0
   42.7369   -7.4558  -10.9052 N   0  0  0  0  0  0  0  0  0  0  0  0
   43.6180   -8.4843  -11.0940 N   0  0  0  0  0  0  0  0  0  0  0  0
   40.7696   -6.4915  -12.1107 C   0  0  0  0  0  0  0  0  0  0  0  0
   41.2132   -5.2075  -12.1221 F   0  0  0  0  0  0  0  0  0  0  0  0
   40.1089   -6.6795  -13.2877 F   0  0  0  0  0  0  0  0  0  0  0  0
   39.8376   -6.5871  -11.1274 F   0  0  0  0  0  0  0  0  0  0  0  0
   44.7326   -8.5907  -10.1973 C   0  0  0  0  0  0  0  0  0  0  0  0
   44.7525   -7.7782   -9.0448 C   0  0  0  0  0  0  0  0  0  0  0  0
   45.8180   -9.4396  -10.4323 C   0  0  0  0  0  0  0  0  0  0  0  0
   46.8809   -9.4973   -9.5246 C   0  0  0  0  0  0  0  0  0  0  0  0
   46.8829   -8.6960   -8.3858 C   0  0  0  0  0  0  0  0  0  0  0  0
   45.8185   -7.8264   -8.1306 C   0  0  0  0  0  0  0  0  0  0  0  0
   45.8281   -6.9292   -6.9169 C   0  0  0  0  0  0  0  0  0  0  0  0
   46.0336   -7.6854   -5.6856 N   0  0  0  0  0  0  0  0  0  0  0  0
   46.7288  -17.6084  -15.5107 H   0  0  0  0  0  0  0  0  0  0  0  0
   48.5355  -13.7603  -14.7696 H   0  0  0  0  0  0  0  0  0  0  0  0
   50.7129  -14.6354  -15.5238 H   0  0  0  0  0  0  0  0  0  0  0  0
   50.9229  -16.9766  -16.2933 H   0  0  0  0  0  0  0  0  0  0  0  0
   46.2890  -14.1253  -17.1830 H   0  0  0  0  0  0  0  0  0  0  0  0
   45.3522  -15.7425  -15.1549 H   0  0  0  0  0  0  0  0  0  0  0  0
   44.9520  -12.9581  -13.2513 H   0  0  0  0  0  0  0  0  0  0  0  0
   45.6506  -11.9005  -18.0488 H   0  0  0  0  0  0  0  0  0  0  0  0
   43.9725   -9.5928  -14.5283 H   0  0  0  0  0  0  0  0  0  0  0  0
   44.9235  -15.0996  -12.9628 H   0  0  0  0  0  0  0  0  0  0  0  0
   47.0564  -13.7844  -12.4844 H   0  0  0  0  0  0  0  0  0  0  0  0
   47.7869  -15.3954  -12.3650 H   0  0  0  0  0  0  0  0  0  0  0  0
   45.4946  -14.2379  -10.7251 H   0  0  0  0  0  0  0  0  0  0  0  0
   46.5373  -17.1786  -10.7406 H   0  0  0  0  0  0  0  0  0  0  0  0
   45.3086  -16.4787   -9.5986 H   0  0  0  0  0  0  0  0  0  0  0  0
   48.2357  -15.5051   -9.9377 H   0  0  0  0  0  0  0  0  0  0  0  0
   47.0095  -14.7808   -8.8079 H   0  0  0  0  0  0  0  0  0  0  0  0
   41.6586   -8.8617  -13.6890 H   0  0  0  0  0  0  0  0  0  0  0  0
   43.9316   -7.0919   -8.8442 H   0  0  0  0  0  0  0  0  0  0  0  0
   45.9035  -10.0656  -11.3102 H   0  0  0  0  0  0  0  0  0  0  0  0
   47.7122  -10.1721   -9.7093 H   0  0  0  0  0  0  0  0  0  0  0  0
   47.7179   -8.7497   -7.6885 H   0  0  0  0  0  0  0  0  0  0  0  0
   46.6246   -6.1853   -7.0325 H   0  0  0  0  0  0  0  0  0  0  0  0
   44.8819   -6.3821   -6.8381 H   0  0  0  0  0  0  0  0  0  0  0  0
   45.9610   -7.0538   -4.8918 H   0  0  0  0  0  0  0  0  0  0  0  0
   45.2762   -8.3605   -5.5865 H   0  0  0  0  0  0  0  0  0  0  0  0
  1  2  2  0
  2  3  1  0
  3  4  2  0
  4  5  1  0
  5  6  2  0
  1  6  1  0
  7  8  2  0
  8  9  1  0
  9  3  1  0
 10 11  2  0
 11 12  1  0
 12 13  2  0
  7 13  1  0
  8 10  1  0
 15 16  2  0
 16 17  1  0
 14 12  1  0
 17 11  1  0
  1 18  1  0
 18 19  3  0
  9 20  1  0
 20 21  1  0
 21 22  1  0
 22 23  1  0
 22 24  1  0
 23 24  1  0
 16 25  1  0
 26 27  1  0
 27 28  2  0
 28 29  1  0
 29 25  1  0
 26 25  2  0
 27 30  1  0
 30 31  1  0
 30 32  1  0
 30 33  1  0
 29 34  1  0
 36 37  1  0
 37 38  2  0
 38 39  1  0
 35 39  2  0
 35 34  1  0
 34 36  2  0
 39 40  1  0
 40 41  1  0
  2 42  1  0
  4 43  1  0
  5 44  1  0
  6 45  1  0
  7 46  1  0
  9 47  1  6
 10 48  1  0
 13 49  1  0
 17 50  1  0
 20 51  1  0
 21 52  1  0
 21 53  1  0
 22 54  1  0
 23 55  1  0
 23 56  1  0
 24 57  1  0
 24 58  1  0
 26 59  1  0
 35 60  1  0
 36 61  1  0
 37 62  1  0
 38 63  1  0
 40 64  1  0
 40 65  1  0
 41 66  1  0
 41 67  1  0
M  END
> <Uni-Dock RESULT> 
ENERGY=   -0.988  LOWER_BOUND=    3.923  UPPER_BOUND=    5.455
INTER + INTRA:          -0.988
INTER:                  -0.988
INTRA:                   0.000
UNBOUND:                 0.000

$$$$

     RDKit          3D

 67 71  0  0  0  0  0  0  0  0999 V2000
   40.4741   -7.6201  -10.2871 C   0  0  0  0  0  0  0  0  0  0  0  0
   41.3140   -8.1545  -11.2714 C   0  0  0  0  0  0  0  0  0  0  0  0
   41.7952   -9.4727  -11.1688 C   0  0  0  0  0  0  0  0  0  0  0  0
   41.4329  -10.2307  -10.0409 C   0  0  0  0  0  0  0  0  0  0  0  0
   40.5977   -9.6987   -9.0565 C   0  0  0  0  0  0  0  0  0  0  0  0
   40.1129   -8.3974   -9.1831 C   0  0  0  0  0  0  0  0  0  0  0  0
   41.1041  -11.8465  -12.9766 C   0  0  0  0  0  0  0  0  0  0  0  0
   42.4335  -11.4717  -12.6895 C   0  0  0  0  0  0  0  0  0  0  0  0
   42.7189  -10.0213  -12.2593 C   0  0  2  0  0  0  0  0  0  0  0  0
   43.4487  -12.4317  -12.8909 C   0  0  0  0  0  0  0  0  0  0  0  0
   43.1513  -13.7270  -13.3241 C   0  0  0  0  0  0  0  0  0  0  0  0
   41.8153  -14.0616  -13.5663 C   0  0  0  0  0  0  0  0  0  0  0  0
   40.7940  -13.1376  -13.4016 C   0  0  0  0  0  0  0  0  0  0  0  0
   41.5095  -15.3027  -13.9807 F   0  0  0  0  0  0  0  0  0  0  0  0
   46.0975  -13.6764  -13.0184 O   0  0  0  0  0  0  0  0  0  0  0  0
   45.4799  -14.6709  -13.3773 C   0  0  0  0  0  0  0  0  0  0  0  0
   44.1105  -14.7403  -13.5419 N   0  0  0  0  0  0  0  0  0  0  0  0
   39.9761   -6.2815  -10.4210 C   0  0  0  0  0  0  0  0  0  0  0  0
   39.5657   -5.2019  -10.5381 N   0  0  0  0  0  0  0  0  0  0  0  0
   44.1257   -9.6738  -12.0136 N   0  0  0  0  0  0  0  0  0  0  0  0
   44.6750  -10.1256  -10.7421 C   0  0  0  0  0  0  0  0  0  0  0  0
   46.1670   -9.9653  -10.8047 C   0  0  0  0  0  0  0  0  0  0  0  0
   46.8063   -8.6002  -10.7616 C   0  0  0  0  0  0  0  0  0  0  0  0
   46.9376   -9.5259   -9.5831 C   0  0  0  0  0  0  0  0  0  0  0  0
   46.1384  -15.9148  -13.6920 C   0  0  0  0  0  0  0  0  0  0  0  0
   45.9847  -16.6574  -14.8524 C   0  0  0  0  0  0  0  0  0  0  0  0
   46.9254  -17.7039  -14.7798 C   0  0  0  0  0  0  0  0  0  0  0  0
   47.6125  -17.6354  -13.6301 N   0  0  0  0  0  0  0  0  0  0  0  0
   47.1024  -16.5733  -12.9361 N   0  0  0  0  0  0  0  0  0  0  0  0
   47.1811  -18.7633  -15.8199 C   0  0  0  0  0  0  0  0  0  0  0  0
   47.0593  -20.0210  -15.3213 F   0  0  0  0  0  0  0  0  0  0  0  0
   46.2948  -18.6719  -16.8511 F   0  0  0  0  0  0  0  0  0  0  0  0
   48.4199  -18.6654  -16.3682 F   0  0  0  0  0  0  0  0  0  0  0  0
   47.5613  -16.3618  -11.5936 C   0  0  0  0  0  0  0  0  0  0  0  0
   48.6627  -17.1109  -11.1302 C   0  0  0  0  0  0  0  0  0  0  0  0
   46.9438  -15.4705  -10.7114 C   0  0  0  0  0  0  0  0  0  0  0  0
   47.4321  -15.3098   -9.4104 C   0  0  0  0  0  0  0  0  0  0  0  0
   48.5264  -16.0493   -8.9692 C   0  0  0  0  0  0  0  0  0  0  0  0
   49.1564  -16.9590   -9.8235 C   0  0  0  0  0  0  0  0  0  0  0  0
   50.3215  -17.7899   -9.3433 C   0  0  0  0  0  0  0  0  0  0  0  0
   51.3846  -16.9606   -8.7844 N   0  0  0  0  0  0  0  0  0  0  0  0
   41.6065   -7.5417  -12.1243 H   0  0  0  0  0  0  0  0  0  0  0  0
   41.8068  -11.2456   -9.9194 H   0  0  0  0  0  0  0  0  0  0  0  0
   40.3281  -10.2981   -8.1898 H   0  0  0  0  0  0  0  0  0  0  0  0
   39.4604   -7.9924   -8.4104 H   0  0  0  0  0  0  0  0  0  0  0  0
   40.2944  -11.1257  -12.8694 H   0  0  0  0  0  0  0  0  0  0  0  0
   42.4688   -9.4561  -13.1706 H   0  0  0  0  0  0  0  0  0  0  0  0
   44.4807  -12.1544  -12.7148 H   0  0  0  0  0  0  0  0  0  0  0  0
   39.7682  -13.4231  -13.6122 H   0  0  0  0  0  0  0  0  0  0  0  0
   43.7203  -15.6286  -13.8405 H   0  0  0  0  0  0  0  0  0  0  0  0
   44.6946  -10.0052  -12.7877 H   0  0  0  0  0  0  0  0  0  0  0  0
   44.4575  -11.1798  -10.5356 H   0  0  0  0  0  0  0  0  0  0  0  0
   44.2702   -9.5287   -9.9177 H   0  0  0  0  0  0  0  0  0  0  0  0
   46.6290  -10.7177  -11.4363 H   0  0  0  0  0  0  0  0  0  0  0  0
   46.1669   -7.7311  -10.6603 H   0  0  0  0  0  0  0  0  0  0  0  0
   47.6808   -8.4340  -11.3799 H   0  0  0  0  0  0  0  0  0  0  0  0
   46.3942   -9.2689   -8.6821 H   0  0  0  0  0  0  0  0  0  0  0  0
   47.8965   -9.9966   -9.4018 H   0  0  0  0  0  0  0  0  0  0  0  0
   45.3210  -16.4353  -15.6790 H   0  0  0  0  0  0  0  0  0  0  0  0
   49.1527  -17.8278  -11.7867 H   0  0  0  0  0  0  0  0  0  0  0  0
   46.0703  -14.8876  -10.9704 H   0  0  0  0  0  0  0  0  0  0  0  0
   46.9539  -14.6028   -8.7381 H   0  0  0  0  0  0  0  0  0  0  0  0
   48.8951  -15.9155   -7.9530 H   0  0  0  0  0  0  0  0  0  0  0  0
   49.9644  -18.4959   -8.5849 H   0  0  0  0  0  0  0  0  0  0  0  0
   50.7353  -18.3810  -10.1680 H   0  0  0  0  0  0  0  0  0  0  0  0
   52.1749  -17.5529   -8.5414 H   0  0  0  0  0  0  0  0  0  0  0  0
   51.7149  -16.3220   -9.5070 H   0  0  0  0  0  0  0  0  0  0  0  0
  1  2  2  0
  2  3  1  0
  3  4  2  0
  4  5  1  0
  5  6  2  0
  1  6  1  0
  7  8  2  0
  8  9  1  0
  9  3  1  0
 10 11  2  0
 11 12  1  0
 12 13  2  0
  7 13  1  0
  8 10  1  0
 15 16  2  0
 16 17  1  0
 14 12  1  0
 17 11  1  0
  1 18  1  0
 18 19  3  0
  9 20  1  0
 20 21  1  0
 21 22  1  0
 22 23  1  0
 22 24  1  0
 23 24  1  0
 16 25  1  0
 26 27  1  0
 27 28  2  0
 28 29  1  0
 29 25  1  0
 26 25  2  0
 27 30  1  0
 30 31  1  0
 30 32  1  0
 30 33  1  0
 29 34  1  0
 36 37  1  0
 37 38  2  0
 38 39  1  0
 35 39  2  0
 35 34  1  0
 34 36  2  0
 39 40  1  0
 40 41  1  0
  2 42  1  0
  4 43  1  0
  5 44  1  0
  6 45  1  0
  7 46  1  0
  9 47  1  6
 10 48  1  0
 13 49  1  0
 17 50  1  0
 20 51  1  0
 21 52  1  0
 21 53  1  0
 22 54  1  0
 23 55  1  0
 23 56  1  0
 24 57  1  0
 24 58  1  0
 26 59  1  0
 35 60  1  0
 36 61  1  0
 37 62  1  0
 38 63  1  0
 40 64  1  0
 40 65  1  0
 41 66  1  0
 41 67  1  0
M  END
> <Uni-Dock RESULT> 
ENERGY=   -0.609  LOWER_BOUND=    4.818  UPPER_BOUND=    9.659
INTER + INTRA:          -0.609
INTER:                  -0.609
INTRA:                   0.000
UNBOUND:                 0.000

$$$$
