
     RDKit          3D

 67 71  0  0  0  0  0  0  0  0999 V2000
   52.5702  -18.5978   -5.6893 C   0  0  0  0  0  0  0  0  0  0  0  0
   52.2801  -17.7073   -6.7321 C   0  0  0  0  0  0  0  0  0  0  0  0
   51.3545  -18.0540   -7.7342 C   0  0  0  0  0  0  0  0  0  0  0  0
   50.7304  -19.3117   -7.6690 C   0  0  0  0  0  0  0  0  0  0  0  0
   51.0207  -20.1999   -6.6300 C   0  0  0  0  0  0  0  0  0  0  0  0
   51.9387  -19.8440   -5.6398 C   0  0  0  0  0  0  0  0  0  0  0  0
   49.3636  -15.6203   -7.6330 C   0  0  0  0  0  0  0  0  0  0  0  0
   49.6239  -16.4981   -8.7061 C   0  0  0  0  0  0  0  0  0  0  0  0
   51.0412  -17.0698   -8.8631 C   0  0  2  0  0  0  0  0  0  0  0  0
   48.5598  -16.8364   -9.5719 C   0  0  0  0  0  0  0  0  0  0  0  0
   47.2806  -16.3053   -9.3827 C   0  0  0  0  0  0  0  0  0  0  0  0
   47.0641  -15.4472   -8.2974 C   0  0  0  0  0  0  0  0  0  0  0  0
   48.0881  -15.1013   -7.4252 C   0  0  0  0  0  0  0  0  0  0  0  0
   45.8401  -14.9339   -8.0941 F   0  0  0  0  0  0  0  0  0  0  0  0
   47.1076  -17.8227  -11.9154 O   0  0  0  0  0  0  0  0  0  0  0  0
   46.1405  -17.2802  -11.3961 C   0  0  0  0  0  0  0  0  0  0  0  0
   46.1664  -16.5702  -10.2111 N   0  0  0  0  0  0  0  0  0  0  0  0
   53.5128  -18.2247   -4.6752 C   0  0  0  0  0  0  0  0  0  0  0  0
   54.2760  -17.9006   -3.8615 N   0  0  0  0  0  0  0  0  0  0  0  0
   51.2855  -17.6631  -10.1897 N   0  0  0  0  0  0  0  0  0  0  0  0
   52.7041  -17.9075  -10.4389 C   0  0  0  0  0  0  0  0  0  0  0  0
   52.8271  -18.5662  -11.7814 C   0  0  0  0  0  0  0  0  0  0  0  0
   53.9821  -19.4969  -12.0572 C   0  0  0  0  0  0  0  0  0  0  0  0
   52.5915  -20.0496  -11.9308 C   0  0  0  0  0  0  0  0  0  0  0  0
   44.8284  -17.3812  -11.9877 C   0  0  0  0  0  0  0  0  0  0  0  0
   44.2356  -18.5483  -12.4379 C   0  0  0  0  0  0  0  0  0  0  0  0
   42.9098  -18.2089  -12.7809 C   0  0  0  0  0  0  0  0  0  0  0  0
   42.6996  -16.8964  -12.5875 N   0  0  0  0  0  0  0  0  0  0  0  0
   43.9126  -16.3739  -12.2499 N   0  0  0  0  0  0  0  0  0  0  0  0
   41.8452  -19.1560  -13.2728 C   0  0  0  0  0  0  0  0  0  0  0  0
   40.6292  -18.5728  -13.4362 F   0  0  0  0  0  0  0  0  0  0  0  0
   42.1829  -19.7047  -14.4714 F   0  0  0  0  0  0  0  0  0  0  0  0
   41.6674  -20.1967  -12.4125 F   0  0  0  0  0  0  0  0  0  0  0  0
   44.0667  -14.9515  -12.2227 C   0  0  0  0  0  0  0  0  0  0  0  0
   42.9137  -14.1450  -12.2188 C   0  0  0  0  0  0  0  0  0  0  0  0
   45.3236  -14.3365  -12.2332 C   0  0  0  0  0  0  0  0  0  0  0  0
   45.4226  -12.9420  -12.1834 C   0  0  0  0  0  0  0  0  0  0  0  0
   44.2758  -12.1512  -12.1420 C   0  0  0  0  0  0  0  0  0  0  0  0
   43.0095  -12.7445  -12.1697 C   0  0  0  0  0  0  0  0  0  0  0  0
   41.7647  -11.8939  -12.1715 C   0  0  0  0  0  0  0  0  0  0  0  0
   41.4733  -11.3795  -13.5030 N   0  0  0  0  0  0  0  0  0  0  0  0
   52.7766  -16.7372   -6.7667 H   0  0  0  0  0  0  0  0  0  0  0  0
   50.0162  -19.6050   -8.4394 H   0  0  0  0  0  0  0  0  0  0  0  0
   50.5295  -21.1696   -6.5965 H   0  0  0  0  0  0  0  0  0  0  0  0
   52.1569  -20.5445   -4.8336 H   0  0  0  0  0  0  0  0  0  0  0  0
   50.1595  -15.3438   -6.9444 H   0  0  0  0  0  0  0  0  0  0  0  0
   51.7106  -16.2016   -8.7771 H   0  0  0  0  0  0  0  0  0  0  0  0
   48.7500  -17.5369  -10.3812 H   0  0  0  0  0  0  0  0  0  0  0  0
   47.8921  -14.4229   -6.6039 H   0  0  0  0  0  0  0  0  0  0  0  0
   45.2970  -16.1697   -9.8754 H   0  0  0  0  0  0  0  0  0  0  0  0
   50.9478  -17.0147  -10.9009 H   0  0  0  0  0  0  0  0  0  0  0  0
   53.1381  -18.5567   -9.6714 H   0  0  0  0  0  0  0  0  0  0  0  0
   53.2678  -16.9690  -10.4450 H   0  0  0  0  0  0  0  0  0  0  0  0
   52.5127  -17.9177  -12.5909 H   0  0  0  0  0  0  0  0  0  0  0  0
   54.6875  -19.7060  -11.2601 H   0  0  0  0  0  0  0  0  0  0  0  0
   54.4281  -19.4694  -13.0440 H   0  0  0  0  0  0  0  0  0  0  0  0
   52.0947  -20.3993  -12.8294 H   0  0  0  0  0  0  0  0  0  0  0  0
   52.3450  -20.6214  -11.0437 H   0  0  0  0  0  0  0  0  0  0  0  0
   44.6928  -19.5295  -12.4495 H   0  0  0  0  0  0  0  0  0  0  0  0
   41.9226  -14.5999  -12.2401 H   0  0  0  0  0  0  0  0  0  0  0  0
   46.2497  -14.8950  -12.3141 H   0  0  0  0  0  0  0  0  0  0  0  0
   46.4023  -12.4699  -12.1881 H   0  0  0  0  0  0  0  0  0  0  0  0
   44.3732  -11.0669  -12.1028 H   0  0  0  0  0  0  0  0  0  0  0  0
   40.9073  -12.4769  -11.8153 H   0  0  0  0  0  0  0  0  0  0  0  0
   41.8797  -11.0651  -11.4664 H   0  0  0  0  0  0  0  0  0  0  0  0
   42.2650  -10.8270  -13.8306 H   0  0  0  0  0  0  0  0  0  0  0  0
   41.4060  -12.1665  -14.1491 H   0  0  0  0  0  0  0  0  0  0  0  0
  1  2  2  0
  2  3  1  0
  3  4  2  0
  4  5  1  0
  5  6  2  0
  1  6  1  0
  7  8  2  0
  8  9  1  0
  9  3  1  0
 10 11  2  0
 11 12  1  0
 12 13  2  0
  7 13  1  0
  8 10  1  0
 15 16  2  0
 16 17  1  0
 14 12  1  0
 17 11  1  0
  1 18  1  0
 18 19  3  0
  9 20  1  0
 20 21  1  0
 21 22  1  0
 22 23  1  0
 22 24  1  0
 23 24  1  0
 16 25  1  0
 26 27  1  0
 27 28  2  0
 28 29  1  0
 29 25  1  0
 26 25  2  0
 27 30  1  0
 30 31  1  0
 30 32  1  0
 30 33  1  0
 29 34  1  0
 36 37  1  0
 37 38  2  0
 38 39  1  0
 35 39  2  0
 35 34  1  0
 34 36  2  0
 39 40  1  0
 40 41  1  0
  2 42  1  0
  4 43  1  0
  5 44  1  0
  6 45  1  0
  7 46  1  0
  9 47  1  1
 10 48  1  0
 13 49  1  0
 17 50  1  0
 20 51  1  0
 21 52  1  0
 21 53  1  0
 22 54  1  0
 23 55  1  0
 23 56  1  0
 24 57  1  0
 24 58  1  0
 26 59  1  0
 35 60  1  0
 36 61  1  0
 37 62  1  0
 38 63  1  0
 40 64  1  0
 40 65  1  0
 41 66  1  0
 41 67  1  0
M  END
> <Uni-Dock RESULT> 
ENERGY=   -4.023  LOWER_BOUND=    0.000  UPPER_BOUND=    0.000
INTER + INTRA:          -4.023
INTER:                  -4.023
INTRA:                   0.000
UNBOUND:                 0.000

$$$$

     RDKit          3D

 67 71  0  0  0  0  0  0  0  0999 V2000
   49.7505  -16.8935  -12.4459 C   0  0  0  0  0  0  0  0  0  0  0  0
   48.6024  -16.5103  -13.1526 C   0  0  0  0  0  0  0  0  0  0  0  0
   47.4944  -15.9641  -12.4780 C   0  0  0  0  0  0  0  0  0  0  0  0
   47.5622  -15.8144  -11.0821 C   0  0  0  0  0  0  0  0  0  0  0  0
   48.7065  -16.1977  -10.3775 C   0  0  0  0  0  0  0  0  0  0  0  0
   49.8008  -16.7358  -11.0578 C   0  0  0  0  0  0  0  0  0  0  0  0
   47.0584  -13.2706  -14.0437 C   0  0  0  0  0  0  0  0  0  0  0  0
   46.1215  -14.0124  -13.2943 C   0  0  0  0  0  0  0  0  0  0  0  0
   46.2498  -15.5429  -13.2621 C   0  0  2  0  0  0  0  0  0  0  0  0
   45.1238  -13.3108  -12.5809 C   0  0  0  0  0  0  0  0  0  0  0  0
   45.0535  -11.9153  -12.6250 C   0  0  0  0  0  0  0  0  0  0  0  0
   46.0113  -11.2185  -13.3720 C   0  0  0  0  0  0  0  0  0  0  0  0
   47.0081  -11.8794  -14.0783 C   0  0  0  0  0  0  0  0  0  0  0  0
   45.9655   -9.8773  -13.4195 F   0  0  0  0  0  0  0  0  0  0  0  0
   42.6651  -12.7497  -11.0932 O   0  0  0  0  0  0  0  0  0  0  0  0
   42.9697  -11.5764  -11.2660 C   0  0  0  0  0  0  0  0  0  0  0  0
   44.0781  -11.1354  -11.9631 N   0  0  0  0  0  0  0  0  0  0  0  0
   50.8710  -17.4439  -13.1516 C   0  0  0  0  0  0  0  0  0  0  0  0
   51.7690  -17.8833  -13.7433 N   0  0  0  0  0  0  0  0  0  0  0  0
   45.0370  -16.2181  -12.7674 N   0  0  0  0  0  0  0  0  0  0  0  0
   45.0470  -17.6534  -13.0394 C   0  0  0  0  0  0  0  0  0  0  0  0
   43.8041  -18.2426  -12.4400 C   0  0  0  0  0  0  0  0  0  0  0  0
   43.8028  -19.6784  -11.9766 C   0  0  0  0  0  0  0  0  0  0  0  0
   43.7444  -18.5679  -10.9673 C   0  0  0  0  0  0  0  0  0  0  0  0
   42.1803  -10.5139  -10.6917 C   0  0  0  0  0  0  0  0  0  0  0  0
   41.7393  -10.4565   -9.3808 C   0  0  0  0  0  0  0  0  0  0  0  0
   41.1546   -9.1828   -9.2182 C   0  0  0  0  0  0  0  0  0  0  0  0
   41.1984   -8.4986  -10.3732 N   0  0  0  0  0  0  0  0  0  0  0  0
   41.6860   -9.3707  -11.3007 N   0  0  0  0  0  0  0  0  0  0  0  0
   40.5759   -8.6230   -7.9437 C   0  0  0  0  0  0  0  0  0  0  0  0
   40.1651   -7.3326   -8.0516 F   0  0  0  0  0  0  0  0  0  0  0  0
   39.5005   -9.3449   -7.5265 F   0  0  0  0  0  0  0  0  0  0  0  0
   41.4803   -8.6617   -6.9262 F   0  0  0  0  0  0  0  0  0  0  0  0
   41.6174   -9.0141  -12.6848 C   0  0  0  0  0  0  0  0  0  0  0  0
   41.3624   -7.6735  -13.0273 C   0  0  0  0  0  0  0  0  0  0  0  0
   41.7623   -9.9587  -13.7071 C   0  0  0  0  0  0  0  0  0  0  0  0
   41.7091   -9.5569  -15.0460 C   0  0  0  0  0  0  0  0  0  0  0  0
   41.4934   -8.2205  -15.3768 C   0  0  0  0  0  0  0  0  0  0  0  0
   41.3075   -7.2668  -14.3707 C   0  0  0  0  0  0  0  0  0  0  0  0
   41.0280   -5.8274  -14.7214 C   0  0  0  0  0  0  0  0  0  0  0  0
   39.6279   -5.6266  -15.0703 N   0  0  0  0  0  0  0  0  0  0  0  0
   48.5680  -16.6369  -14.2351 H   0  0  0  0  0  0  0  0  0  0  0  0
   46.7122  -15.4013  -10.5375 H   0  0  0  0  0  0  0  0  0  0  0  0
   48.7406  -16.0761   -9.2974 H   0  0  0  0  0  0  0  0  0  0  0  0
   50.6884  -17.0307  -10.4981 H   0  0  0  0  0  0  0  0  0  0  0  0
   47.8430  -13.7797  -14.6000 H   0  0  0  0  0  0  0  0  0  0  0  0
   46.3711  -15.8417  -14.3135 H   0  0  0  0  0  0  0  0  0  0  0  0
   44.4195  -13.8779  -11.9775 H   0  0  0  0  0  0  0  0  0  0  0  0
   47.7251  -11.3124  -14.6593 H   0  0  0  0  0  0  0  0  0  0  0  0
   44.2305  -10.1350  -12.0343 H   0  0  0  0  0  0  0  0  0  0  0  0
   44.2273  -15.8138  -13.2377 H   0  0  0  0  0  0  0  0  0  0  0  0
   45.9279  -18.1361  -12.6038 H   0  0  0  0  0  0  0  0  0  0  0  0
   45.0543  -17.8474  -14.1169 H   0  0  0  0  0  0  0  0  0  0  0  0
   42.9017  -17.8778  -12.9168 H   0  0  0  0  0  0  0  0  0  0  0  0
   44.7202  -20.2526  -12.0493 H   0  0  0  0  0  0  0  0  0  0  0  0
   42.9044  -20.2610  -12.1407 H   0  0  0  0  0  0  0  0  0  0  0  0
   42.8090  -18.3980  -10.4448 H   0  0  0  0  0  0  0  0  0  0  0  0
   44.6239  -18.3758  -10.3638 H   0  0  0  0  0  0  0  0  0  0  0  0
   41.8867  -11.2194   -8.6270 H   0  0  0  0  0  0  0  0  0  0  0  0
   41.2165   -6.9237  -12.2487 H   0  0  0  0  0  0  0  0  0  0  0  0
   41.8831  -11.0190  -13.5138 H   0  0  0  0  0  0  0  0  0  0  0  0
   41.8262  -10.2950  -15.8361 H   0  0  0  0  0  0  0  0  0  0  0  0
   41.4559   -7.9268  -16.4251 H   0  0  0  0  0  0  0  0  0  0  0  0
   41.2860   -5.1754  -13.8787 H   0  0  0  0  0  0  0  0  0  0  0  0
   41.6695   -5.5156  -15.5513 H   0  0  0  0  0  0  0  0  0  0  0  0
   39.3897   -6.2235  -15.8617 H   0  0  0  0  0  0  0  0  0  0  0  0
   39.0487   -5.9568  -14.2978 H   0  0  0  0  0  0  0  0  0  0  0  0
  1  2  2  0
  2  3  1  0
  3  4  2  0
  4  5  1  0
  5  6  2  0
  1  6  1  0
  7  8  2  0
  8  9  1  0
  9  3  1  0
 10 11  2  0
 11 12  1  0
 12 13  2  0
  7 13  1  0
  8 10  1  0
 15 16  2  0
 16 17  1  0
 14 12  1  0
 17 11  1  0
  1 18  1  0
 18 19  3  0
  9 20  1  0
 20 21  1  0
 21 22  1  0
 22 23  1  0
 22 24  1  0
 23 24  1  0
 16 25  1  0
 26 27  1  0
 27 28  2  0
 28 29  1  0
 29 25  1  0
 26 25  2  0
 27 30  1  0
 30 31  1  0
 30 32  1  0
 30 33  1  0
 29 34  1  0
 36 37  1  0
 37 38  2  0
 38 39  1  0
 35 39  2  0
 35 34  1  0
 34 36  2  0
 39 40  1  0
 40 41  1  0
  2 42  1  0
  4 43  1  0
  5 44  1  0
  6 45  1  0
  7 46  1  0
  9 47  1  1
 10 48  1  0
 13 49  1  0
 17 50  1  0
 20 51  1  0
 21 52  1  0
 21 53  1  0
 22 54  1  0
 23 55  1  0
 23 56  1  0
 24 57  1  0
 24 58  1  0
 26 59  1  0
 35 60  1  0
 36 61  1  0
 37 62  1  0
 38 63  1  0
 40 64  1  0
 40 65  1  0
 41 66  1  0
 41 67  1  0
M  END
> <Uni-Dock RESULT> 
ENERGY=   -3.847  LOWER_BOUND=    4.761  UPPER_BOUND=    7.983
INTER + INTRA:          -3.847
INTER:                  -3.847
INTRA:                   0.000
UNBOUND:                 0.000

$$$$

     RDKit          3D

 67 71  0  0  0  0  0  0  0  0999 V2000
   50.1376  -16.8886  -12.4370 C   0  0  0  0  0  0  0  0  0  0  0  0
   48.9927  -16.5572  -13.1745 C   0  0  0  0  0  0  0  0  0  0  0  0
   47.8496  -16.0454  -12.5323 C   0  0  0  0  0  0  0  0  0  0  0  0
   47.8792  -15.8770  -11.1372 C   0  0  0  0  0  0  0  0  0  0  0  0
   49.0203  -16.2087  -10.4019 C   0  0  0  0  0  0  0  0  0  0  0  0
   50.1495  -16.7130  -11.0502 C   0  0  0  0  0  0  0  0  0  0  0  0
   47.3498  -13.3886  -14.1412 C   0  0  0  0  0  0  0  0  0  0  0  0
   46.4240  -14.1564  -13.4041 C   0  0  0  0  0  0  0  0  0  0  0  0
   46.6087  -15.6806  -13.3499 C   0  0  2  0  0  0  0  0  0  0  0  0
   45.3844  -13.4848  -12.7226 C   0  0  0  0  0  0  0  0  0  0  0  0
   45.2630  -12.0935  -12.7857 C   0  0  0  0  0  0  0  0  0  0  0  0
   46.2112  -11.3698  -13.5192 C   0  0  0  0  0  0  0  0  0  0  0  0
   47.2482  -12.0007  -14.1942 C   0  0  0  0  0  0  0  0  0  0  0  0
   46.1163  -10.0319  -13.5845 F   0  0  0  0  0  0  0  0  0  0  0  0
   42.8724  -12.9995  -11.2987 O   0  0  0  0  0  0  0  0  0  0  0  0
   43.1368  -11.8176  -11.4791 C   0  0  0  0  0  0  0  0  0  0  0  0
   44.2438  -11.3433  -12.1561 N   0  0  0  0  0  0  0  0  0  0  0  0
   51.2940  -17.4045  -13.1099 C   0  0  0  0  0  0  0  0  0  0  0  0
   52.2214  -17.8165  -13.6755 N   0  0  0  0  0  0  0  0  0  0  0  0
   45.4108  -16.3952  -12.8747 N   0  0  0  0  0  0  0  0  0  0  0  0
   45.4809  -17.8321  -13.1285 C   0  0  0  0  0  0  0  0  0  0  0  0
   44.2472  -18.4608  -12.5504 C   0  0  0  0  0  0  0  0  0  0  0  0
   44.2889  -19.8902  -12.0692 C   0  0  0  0  0  0  0  0  0  0  0  0
   44.1654  -18.7710  -11.0755 C   0  0  0  0  0  0  0  0  0  0  0  0
   42.2950  -10.7790  -10.9363 C   0  0  0  0  0  0  0  0  0  0  0  0
   41.8216  -10.7231   -9.6367 C   0  0  0  0  0  0  0  0  0  0  0  0
   41.1860   -9.4706   -9.5034 C   0  0  0  0  0  0  0  0  0  0  0  0
   41.2312   -8.7987  -10.6656 N   0  0  0  0  0  0  0  0  0  0  0  0
   41.7726   -9.6625  -11.5707 N   0  0  0  0  0  0  0  0  0  0  0  0
   40.5572   -8.9182   -8.2496 C   0  0  0  0  0  0  0  0  0  0  0  0
   40.1010   -7.6455   -8.3830 F   0  0  0  0  0  0  0  0  0  0  0  0
   39.5001   -9.6753   -7.8482 F   0  0  0  0  0  0  0  0  0  0  0  0
   41.4384   -8.9110   -7.2113 F   0  0  0  0  0  0  0  0  0  0  0  0
   41.7230   -9.3248  -12.9604 C   0  0  0  0  0  0  0  0  0  0  0  0
   41.4260   -7.9988  -13.3253 C   0  0  0  0  0  0  0  0  0  0  0  0
   41.9270  -10.2751  -13.9672 C   0  0  0  0  0  0  0  0  0  0  0  0
   41.8900   -9.8912  -15.3119 C   0  0  0  0  0  0  0  0  0  0  0  0
   41.6322   -8.5678  -15.6642 C   0  0  0  0  0  0  0  0  0  0  0  0
   41.3874   -7.6101  -14.6746 C   0  0  0  0  0  0  0  0  0  0  0  0
   41.0624   -6.1865  -15.0496 C   0  0  0  0  0  0  0  0  0  0  0  0
   39.6643   -6.0427  -15.4329 N   0  0  0  0  0  0  0  0  0  0  0  0
   48.9883  -16.6975  -14.2558 H   0  0  0  0  0  0  0  0  0  0  0  0
   47.0018  -15.4900  -10.6174 H   0  0  0  0  0  0  0  0  0  0  0  0
   49.0246  -16.0734   -9.3229 H   0  0  0  0  0  0  0  0  0  0  0  0
   51.0342  -16.9677  -10.4667 H   0  0  0  0  0  0  0  0  0  0  0  0
   48.1656  -13.8741  -14.6730 H   0  0  0  0  0  0  0  0  0  0  0  0
   46.7656  -15.9867  -14.3944 H   0  0  0  0  0  0  0  0  0  0  0  0
   44.6879  -14.0710  -12.1284 H   0  0  0  0  0  0  0  0  0  0  0  0
   47.9568  -11.4139  -14.7657 H   0  0  0  0  0  0  0  0  0  0  0  0
   44.3603  -10.3388  -12.2363 H   0  0  0  0  0  0  0  0  0  0  0  0
   44.5978  -16.0273  -13.3685 H   0  0  0  0  0  0  0  0  0  0  0  0
   46.3688  -18.2762  -12.6668 H   0  0  0  0  0  0  0  0  0  0  0  0
   45.5206  -18.0383  -14.2030 H   0  0  0  0  0  0  0  0  0  0  0  0
   43.3432  -18.1359  -13.0523 H   0  0  0  0  0  0  0  0  0  0  0  0
   45.2286  -20.4302  -12.1137 H   0  0  0  0  0  0  0  0  0  0  0  0
   43.4170  -20.5081  -12.2465 H   0  0  0  0  0  0  0  0  0  0  0  0
   43.2124  -18.6305  -10.5767 H   0  0  0  0  0  0  0  0  0  0  0  0
   45.0228  -18.5389  -10.4545 H   0  0  0  0  0  0  0  0  0  0  0  0
   41.9799  -11.4711   -8.8703 H   0  0  0  0  0  0  0  0  0  0  0  0
   41.2340   -7.2461  -12.5596 H   0  0  0  0  0  0  0  0  0  0  0  0
   42.0828  -11.3278  -13.7580 H   0  0  0  0  0  0  0  0  0  0  0  0
   42.0531  -10.6335  -16.0898 H   0  0  0  0  0  0  0  0  0  0  0  0
   41.6082   -8.2879  -16.7167 H   0  0  0  0  0  0  0  0  0  0  0  0
   41.2761   -5.5155  -14.2094 H   0  0  0  0  0  0  0  0  0  0  0  0
   41.7110   -5.8604  -15.8684 H   0  0  0  0  0  0  0  0  0  0  0  0
   39.4672   -6.6573  -16.2221 H   0  0  0  0  0  0  0  0  0  0  0  0
   39.0800   -6.3855  -14.6698 H   0  0  0  0  0  0  0  0  0  0  0  0
  1  2  2  0
  2  3  1  0
  3  4  2  0
  4  5  1  0
  5  6  2  0
  1  6  1  0
  7  8  2  0
  8  9  1  0
  9  3  1  0
 10 11  2  0
 11 12  1  0
 12 13  2  0
  7 13  1  0
  8 10  1  0
 15 16  2  0
 16 17  1  0
 14 12  1  0
 17 11  1  0
  1 18  1  0
 18 19  3  0
  9 20  1  0
 20 21  1  0
 21 22  1  0
 22 23  1  0
 22 24  1  0
 23 24  1  0
 16 25  1  0
 26 27  1  0
 27 28  2  0
 28 29  1  0
 29 25  1  0
 26 25  2  0
 27 30  1  0
 30 31  1  0
 30 32  1  0
 30 33  1  0
 29 34  1  0
 36 37  1  0
 37 38  2  0
 38 39  1  0
 35 39  2  0
 35 34  1  0
 34 36  2  0
 39 40  1  0
 40 41  1  0
  2 42  1  0
  4 43  1  0
  5 44  1  0
  6 45  1  0
  7 46  1  0
  9 47  1  1
 10 48  1  0
 13 49  1  0
 17 50  1  0
 20 51  1  0
 21 52  1  0
 21 53  1  0
 22 54  1  0
 23 55  1  0
 23 56  1  0
 24 57  1  0
 24 58  1  0
 26 59  1  0
 35 60  1  0
 36 61  1  0
 37 62  1  0
 38 63  1  0
 40 64  1  0
 40 65  1  0
 41 66  1  0
 41 67  1  0
M  END
> <Uni-Dock RESULT> 
ENERGY=   -3.708  LOWER_BOUND=    4.699  UPPER_BOUND=    7.730
INTER + INTRA:          -3.708
INTER:                  -3.708
INTRA:                   0.000
UNBOUND:                 0.000

$$$$

     RDKit          3D

 67 71  0  0  0  0  0  0  0  0999 V2000
   51.1310  -16.8548  -13.1566 C   0  0  0  0  0  0  0  0  0  0  0  0
   50.0274  -16.5264  -13.9559 C   0  0  0  0  0  0  0  0  0  0  0  0
   48.8088  -16.1358  -13.3698 C   0  0  0  0  0  0  0  0  0  0  0  0
   48.7210  -16.0853  -11.9679 C   0  0  0  0  0  0  0  0  0  0  0  0
   49.8210  -16.4139  -11.1712 C   0  0  0  0  0  0  0  0  0  0  0  0
   51.0258  -16.7974  -11.7639 C   0  0  0  0  0  0  0  0  0  0  0  0
   48.2685  -13.3839  -14.7952 C   0  0  0  0  0  0  0  0  0  0  0  0
   47.3389  -14.2621  -14.2001 C   0  0  0  0  0  0  0  0  0  0  0  0
   47.6137  -15.7726  -14.2537 C   0  0  2  0  0  0  0  0  0  0  0  0
   46.2103  -13.7100  -13.5537 C   0  0  0  0  0  0  0  0  0  0  0  0
   46.0073  -12.3274  -13.5145 C   0  0  0  0  0  0  0  0  0  0  0  0
   46.9618  -11.4921  -14.1078 C   0  0  0  0  0  0  0  0  0  0  0  0
   48.0848  -12.0044  -14.7447 C   0  0  0  0  0  0  0  0  0  0  0  0
   46.7888  -10.1609  -14.0728 F   0  0  0  0  0  0  0  0  0  0  0  0
   43.5713  -13.4889  -12.3046 O   0  0  0  0  0  0  0  0  0  0  0  0
   43.7744  -12.2830  -12.3673 C   0  0  0  0  0  0  0  0  0  0  0  0
   44.8982  -11.6916  -12.9117 N   0  0  0  0  0  0  0  0  0  0  0  0
   52.3654  -17.2461  -13.7725 C   0  0  0  0  0  0  0  0  0  0  0  0
   53.3573  -17.5560  -14.2919 N   0  0  0  0  0  0  0  0  0  0  0  0
   46.4300  -16.5910  -13.9365 N   0  0  0  0  0  0  0  0  0  0  0  0
   46.6088  -17.9949  -14.2985 C   0  0  0  0  0  0  0  0  0  0  0  0
   45.3763  -18.7384  -13.8751 C   0  0  0  0  0  0  0  0  0  0  0  0
   45.4702  -20.1990  -13.5086 C   0  0  0  0  0  0  0  0  0  0  0  0
   45.2014  -19.1771  -12.4415 C   0  0  0  0  0  0  0  0  0  0  0  0
   42.8303  -11.3431  -11.8132 C   0  0  0  0  0  0  0  0  0  0  0  0
   42.2563  -11.4244  -10.5561 C   0  0  0  0  0  0  0  0  0  0  0  0
   41.5354  -10.2253  -10.3747 C   0  0  0  0  0  0  0  0  0  0  0  0
   41.6273   -9.4555  -11.4717 N   0  0  0  0  0  0  0  0  0  0  0  0
   42.2892  -10.2075  -12.3962 N   0  0  0  0  0  0  0  0  0  0  0  0
   40.7793   -9.8176   -9.1360 C   0  0  0  0  0  0  0  0  0  0  0  0
   40.2560   -8.5657   -9.2034 F   0  0  0  0  0  0  0  0  0  0  0  0
   39.7440  -10.6640   -8.8841 F   0  0  0  0  0  0  0  0  0  0  0  0
   41.5763   -9.8494   -8.0322 F   0  0  0  0  0  0  0  0  0  0  0  0
   42.3251   -9.7562  -13.7537 C   0  0  0  0  0  0  0  0  0  0  0  0
   41.9747   -8.4226  -14.0338 C   0  0  0  0  0  0  0  0  0  0  0  0
   42.6644  -10.6045  -14.8136 C   0  0  0  0  0  0  0  0  0  0  0  0
   42.7065  -10.1103  -16.1216 C   0  0  0  0  0  0  0  0  0  0  0  0
   42.3942   -8.7782  -16.3862 C   0  0  0  0  0  0  0  0  0  0  0  0
   42.0151   -7.9234  -15.3461 C   0  0  0  0  0  0  0  0  0  0  0  0
   41.6315   -6.4934  -15.6307 C   0  0  0  0  0  0  0  0  0  0  0  0
   40.2606   -6.3958  -16.1137 N   0  0  0  0  0  0  0  0  0  0  0  0
   50.1145  -16.5742  -15.0417 H   0  0  0  0  0  0  0  0  0  0  0  0
   47.7840  -15.7935  -11.4919 H   0  0  0  0  0  0  0  0  0  0  0  0
   49.7343  -16.3709  -10.0880 H   0  0  0  0  0  0  0  0  0  0  0  0
   51.8775  -17.0509  -11.1326 H   0  0  0  0  0  0  0  0  0  0  0  0
   49.1514  -13.7760  -15.2961 H   0  0  0  0  0  0  0  0  0  0  0  0
   47.8689  -15.9796  -15.3032 H   0  0  0  0  0  0  0  0  0  0  0  0
   45.5084  -14.3827  -13.0672 H   0  0  0  0  0  0  0  0  0  0  0  0
   48.7970  -11.3323  -15.2075 H   0  0  0  0  0  0  0  0  0  0  0  0
   44.9574  -10.6790  -12.9011 H   0  0  0  0  0  0  0  0  0  0  0  0
   45.6357  -16.2284  -14.4637 H   0  0  0  0  0  0  0  0  0  0  0  0
   47.4849  -18.4263  -13.8032 H   0  0  0  0  0  0  0  0  0  0  0  0
   46.7435  -18.1064  -15.3792 H   0  0  0  0  0  0  0  0  0  0  0  0
   44.4948  -18.4231  -14.4212 H   0  0  0  0  0  0  0  0  0  0  0  0
   46.4425  -20.6799  -13.5197 H   0  0  0  0  0  0  0  0  0  0  0  0
   44.6548  -20.8474  -13.8054 H   0  0  0  0  0  0  0  0  0  0  0  0
   44.2062  -19.1330  -12.0123 H   0  0  0  0  0  0  0  0  0  0  0  0
   45.9926  -18.9511  -11.7361 H   0  0  0  0  0  0  0  0  0  0  0  0
   42.4019  -12.2249   -9.8419 H   0  0  0  0  0  0  0  0  0  0  0  0
   41.6780   -7.7497  -13.2283 H   0  0  0  0  0  0  0  0  0  0  0  0
   42.8693  -11.6608  -14.6777 H   0  0  0  0  0  0  0  0  0  0  0  0
   42.9746  -10.7734  -16.9408 H   0  0  0  0  0  0  0  0  0  0  0  0
   42.4334   -8.4116  -17.4113 H   0  0  0  0  0  0  0  0  0  0  0  0
   41.7379   -5.8854  -14.7246 H   0  0  0  0  0  0  0  0  0  0  0  0
   42.3191   -6.0631  -16.3651 H   0  0  0  0  0  0  0  0  0  0  0  0
   40.1631   -6.9512  -16.9631 H   0  0  0  0  0  0  0  0  0  0  0  0
   39.6422   -6.8345  -15.4307 H   0  0  0  0  0  0  0  0  0  0  0  0
  1  2  2  0
  2  3  1  0
  3  4  2  0
  4  5  1  0
  5  6  2  0
  1  6  1  0
  7  8  2  0
  8  9  1  0
  9  3  1  0
 10 11  2  0
 11 12  1  0
 12 13  2  0
  7 13  1  0
  8 10  1  0
 15 16  2  0
 16 17  1  0
 14 12  1  0
 17 11  1  0
  1 18  1  0
 18 19  3  0
  9 20  1  0
 20 21  1  0
 21 22  1  0
 22 23  1  0
 22 24  1  0
 23 24  1  0
 16 25  1  0
 26 27  1  0
 27 28  2  0
 28 29  1  0
 29 25  1  0
 26 25  2  0
 27 30  1  0
 30 31  1  0
 30 32  1  0
 30 33  1  0
 29 34  1  0
 36 37  1  0
 37 38  2  0
 38 39  1  0
 35 39  2  0
 35 34  1  0
 34 36  2  0
 39 40  1  0
 40 41  1  0
  2 42  1  0
  4 43  1  0
  5 44  1  0
  6 45  1  0
  7 46  1  0
  9 47  1  1
 10 48  1  0
 13 49  1  0
 17 50  1  0
 20 51  1  0
 21 52  1  0
 21 53  1  0
 22 54  1  0
 23 55  1  0
 23 56  1  0
 24 57  1  0
 24 58  1  0
 26 59  1  0
 35 60  1  0
 36 61  1  0
 37 62  1  0
 38 63  1  0
 40 64  1  0
 40 65  1  0
 41 66  1  0
 41 67  1  0
M  END
> <Uni-Dock RESULT> 
ENERGY=   -3.505  LOWER_BOUND=    4.837  UPPER_BOUND=    7.383
INTER + INTRA:          -3.505
INTER:                  -3.505
INTRA:                   0.000
UNBOUND:                 0.000

$$$$

     RDKit          3D

 67 71  0  0  0  0  0  0  0  0999 V2000
   52.7334  -18.6687   -7.2603 C   0  0  0  0  0  0  0  0  0  0  0  0
   52.3010  -17.6265   -8.0917 C   0  0  0  0  0  0  0  0  0  0  0  0
   51.3405  -17.8602   -9.0937 C   0  0  0  0  0  0  0  0  0  0  0  0
   50.8272  -19.1599   -9.2448 C   0  0  0  0  0  0  0  0  0  0  0  0
   51.2593  -20.1992   -8.4167 C   0  0  0  0  0  0  0  0  0  0  0  0
   52.2107  -19.9549   -7.4242 C   0  0  0  0  0  0  0  0  0  0  0  0
   49.1692  -15.6874   -8.4149 C   0  0  0  0  0  0  0  0  0  0  0  0
   49.4263  -16.3157   -9.6514 C   0  0  0  0  0  0  0  0  0  0  0  0
   50.8715  -16.7121   -9.9898 C   0  0  2  0  0  0  0  0  0  0  0  0
   48.3368  -16.5803  -10.5111 C   0  0  0  0  0  0  0  0  0  0  0  0
   47.0343  -16.2169  -10.1561 C   0  0  0  0  0  0  0  0  0  0  0  0
   46.8232  -15.6060   -8.9139 C   0  0  0  0  0  0  0  0  0  0  0  0
   47.8728  -15.3390   -8.0442 C   0  0  0  0  0  0  0  0  0  0  0  0
   45.5781  -15.2576   -8.5513 F   0  0  0  0  0  0  0  0  0  0  0  0
   46.8132  -17.2319  -12.9252 O   0  0  0  0  0  0  0  0  0  0  0  0
   45.8428  -16.8914  -12.2607 C   0  0  0  0  0  0  0  0  0  0  0  0
   45.8916  -16.4216  -10.9623 N   0  0  0  0  0  0  0  0  0  0  0  0
   53.7095  -18.4099   -6.2422 C   0  0  0  0  0  0  0  0  0  0  0  0
   54.4975  -18.1773   -5.4208 N   0  0  0  0  0  0  0  0  0  0  0  0
   51.0723  -17.0155  -11.4178 N   0  0  0  0  0  0  0  0  0  0  0  0
   52.4857  -17.0743  -11.7825 C   0  0  0  0  0  0  0  0  0  0  0  0
   52.5700  -17.4500  -13.2326 C   0  0  0  0  0  0  0  0  0  0  0  0
   53.7757  -18.1989  -13.7445 C   0  0  0  0  0  0  0  0  0  0  0  0
   52.4467  -18.8929  -13.6581 C   0  0  0  0  0  0  0  0  0  0  0  0
   44.5060  -16.9995  -12.7927 C   0  0  0  0  0  0  0  0  0  0  0  0
   43.9811  -18.1093  -13.4324 C   0  0  0  0  0  0  0  0  0  0  0  0
   42.6117  -17.8359  -13.6337 C   0  0  0  0  0  0  0  0  0  0  0  0
   42.3087  -16.6100  -13.1759 N   0  0  0  0  0  0  0  0  0  0  0  0
   43.4952  -16.0506  -12.8048 N   0  0  0  0  0  0  0  0  0  0  0  0
   41.5969  -18.7668  -14.2469 C   0  0  0  0  0  0  0  0  0  0  0  0
   40.3289  -18.2793  -14.2302 F   0  0  0  0  0  0  0  0  0  0  0  0
   41.8955  -19.0425  -15.5456 F   0  0  0  0  0  0  0  0  0  0  0  0
   41.5639  -19.9646  -13.5997 F   0  0  0  0  0  0  0  0  0  0  0  0
   43.5341  -14.6516  -12.5068 C   0  0  0  0  0  0  0  0  0  0  0  0
   42.3222  -13.9720  -12.2857 C   0  0  0  0  0  0  0  0  0  0  0  0
   44.7330  -13.9313  -12.4607 C   0  0  0  0  0  0  0  0  0  0  0  0
   44.7209  -12.5689  -12.1432 C   0  0  0  0  0  0  0  0  0  0  0  0
   43.5190  -11.9113  -11.8887 C   0  0  0  0  0  0  0  0  0  0  0  0
   42.3064  -12.6039  -11.9675 C   0  0  0  0  0  0  0  0  0  0  0  0
   40.9991  -11.8887  -11.7386 C   0  0  0  0  0  0  0  0  0  0  0  0
   40.5763  -11.1589  -12.9264 N   0  0  0  0  0  0  0  0  0  0  0  0
   52.7132  -16.6255   -7.9605 H   0  0  0  0  0  0  0  0  0  0  0  0
   50.0883  -19.3659  -10.0202 H   0  0  0  0  0  0  0  0  0  0  0  0
   50.8524  -21.1989   -8.5492 H   0  0  0  0  0  0  0  0  0  0  0  0
   52.5399  -20.7729   -6.7835 H   0  0  0  0  0  0  0  0  0  0  0  0
   49.9850  -15.4745   -7.7271 H   0  0  0  0  0  0  0  0  0  0  0  0
   51.4722  -15.8177   -9.7694 H   0  0  0  0  0  0  0  0  0  0  0  0
   48.5278  -17.0924  -11.4508 H   0  0  0  0  0  0  0  0  0  0  0  0
   47.6786  -14.8513   -7.0969 H   0  0  0  0  0  0  0  0  0  0  0  0
   45.0173  -16.1756  -10.5104 H   0  0  0  0  0  0  0  0  0  0  0  0
   50.6349  -16.2777  -11.9696 H   0  0  0  0  0  0  0  0  0  0  0  0
   53.0227  -17.8147  -11.1806 H   0  0  0  0  0  0  0  0  0  0  0  0
   52.9691  -16.1035  -11.6330 H   0  0  0  0  0  0  0  0  0  0  0  0
   52.1492  -16.6910  -13.8818 H   0  0  0  0  0  0  0  0  0  0  0  0
   54.5486  -18.4896  -13.0411 H   0  0  0  0  0  0  0  0  0  0  0  0
   54.1495  -17.9418  -14.7282 H   0  0  0  0  0  0  0  0  0  0  0  0
   51.9199  -19.1093  -14.5813 H   0  0  0  0  0  0  0  0  0  0  0  0
   52.3089  -19.6441  -12.8891 H   0  0  0  0  0  0  0  0  0  0  0  0
   44.5151  -19.0231  -13.6597 H   0  0  0  0  0  0  0  0  0  0  0  0
   41.3724  -14.5049  -12.3452 H   0  0  0  0  0  0  0  0  0  0  0  0
   45.6939  -14.3751  -12.6969 H   0  0  0  0  0  0  0  0  0  0  0  0
   45.6562  -12.0153  -12.1052 H   0  0  0  0  0  0  0  0  0  0  0  0
   43.5300  -10.8502  -11.6424 H   0  0  0  0  0  0  0  0  0  0  0  0
   40.2185  -12.6065  -11.4604 H   0  0  0  0  0  0  0  0  0  0  0  0
   41.0939  -11.2028  -10.8913 H   0  0  0  0  0  0  0  0  0  0  0  0
   41.2960  -10.4825  -13.1793 H   0  0  0  0  0  0  0  0  0  0  0  0
   40.5296  -11.8107  -13.7102 H   0  0  0  0  0  0  0  0  0  0  0  0
  1  2  2  0
  2  3  1  0
  3  4  2  0
  4  5  1  0
  5  6  2  0
  1  6  1  0
  7  8  2  0
  8  9  1  0
  9  3  1  0
 10 11  2  0
 11 12  1  0
 12 13  2  0
  7 13  1  0
  8 10  1  0
 15 16  2  0
 16 17  1  0
 14 12  1  0
 17 11  1  0
  1 18  1  0
 18 19  3  0
  9 20  1  0
 20 21  1  0
 21 22  1  0
 22 23  1  0
 22 24  1  0
 23 24  1  0
 16 25  1  0
 26 27  1  0
 27 28  2  0
 28 29  1  0
 29 25  1  0
 26 25  2  0
 27 30  1  0
 30 31  1  0
 30 32  1  0
 30 33  1  0
 29 34  1  0
 36 37  1  0
 37 38  2  0
 38 39  1  0
 35 39  2  0
 35 34  1  0
 34 36  2  0
 39 40  1  0
 40 41  1  0
  2 42  1  0
  4 43  1  0
  5 44  1  0
  6 45  1  0
  7 46  1  0
  9 47  1  1
 10 48  1  0
 13 49  1  0
 17 50  1  0
 20 51  1  0
 21 52  1  0
 21 53  1  0
 22 54  1  0
 23 55  1  0
 23 56  1  0
 24 57  1  0
 24 58  1  0
 26 59  1  0
 35 60  1  0
 36 61  1  0
 37 62  1  0
 38 63  1  0
 40 64  1  0
 40 65  1  0
 41 66  1  0
 41 67  1  0
M  END
> <Uni-Dock RESULT> 
ENERGY=   -3.270  LOWER_BOUND=    1.152  UPPER_BOUND=    1.220
INTER + INTRA:          -3.270
INTER:                  -3.270
INTRA:                   0.000
UNBOUND:                 0.000

$$$$

     RDKit          3D

 67 71  0  0  0  0  0  0  0  0999 V2000
   41.3403  -18.1725  -15.7433 C   0  0  0  0  0  0  0  0  0  0  0  0
   41.3749  -17.6191  -14.4560 C   0  0  0  0  0  0  0  0  0  0  0  0
   42.3107  -16.6194  -14.1305 C   0  0  0  0  0  0  0  0  0  0  0  0
   43.2108  -16.1908  -15.1213 C   0  0  0  0  0  0  0  0  0  0  0  0
   43.1769  -16.7435  -16.4043 C   0  0  0  0  0  0  0  0  0  0  0  0
   42.2422  -17.7328  -16.7166 C   0  0  0  0  0  0  0  0  0  0  0  0
   40.4499  -14.3448  -13.0081 C   0  0  0  0  0  0  0  0  0  0  0  0
   41.8168  -14.5715  -12.7440 C   0  0  0  0  0  0  0  0  0  0  0  0
   42.3332  -16.0182  -12.7236 C   0  0  2  0  0  0  0  0  0  0  0  0
   42.6570  -13.4539  -12.5400 C   0  0  0  0  0  0  0  0  0  0  0  0
   42.1479  -12.1526  -12.5834 C   0  0  0  0  0  0  0  0  0  0  0  0
   40.7871  -11.9734  -12.8606 C   0  0  0  0  0  0  0  0  0  0  0  0
   39.9373  -13.0515  -13.0722 C   0  0  0  0  0  0  0  0  0  0  0  0
   40.2813  -10.7307  -12.9150 F   0  0  0  0  0  0  0  0  0  0  0  0
   44.9692  -11.8389  -11.7532 O   0  0  0  0  0  0  0  0  0  0  0  0
   44.2284  -10.8883  -11.9696 C   0  0  0  0  0  0  0  0  0  0  0  0
   42.9090  -10.9811  -12.3687 N   0  0  0  0  0  0  0  0  0  0  0  0
   40.3765  -19.1869  -16.0570 C   0  0  0  0  0  0  0  0  0  0  0  0
   39.5846  -20.0041  -16.2913 N   0  0  0  0  0  0  0  0  0  0  0  0
   43.6574  -16.1544  -12.0916 N   0  0  0  0  0  0  0  0  0  0  0  0
   43.9915  -17.5442  -11.7899 C   0  0  0  0  0  0  0  0  0  0  0  0
   45.3762  -17.5682  -11.2127 C   0  0  0  0  0  0  0  0  0  0  0  0
   46.2420  -18.7910  -11.3910 C   0  0  0  0  0  0  0  0  0  0  0  0
   46.5836  -17.5217  -12.1173 C   0  0  0  0  0  0  0  0  0  0  0  0
   44.7114   -9.5330  -11.8601 C   0  0  0  0  0  0  0  0  0  0  0  0
   45.8873   -9.0504  -12.4084 C   0  0  0  0  0  0  0  0  0  0  0  0
   45.8764   -7.6556  -12.1964 C   0  0  0  0  0  0  0  0  0  0  0  0
   44.7715   -7.2948  -11.5231 N   0  0  0  0  0  0  0  0  0  0  0  0
   44.1448   -8.4591  -11.1910 N   0  0  0  0  0  0  0  0  0  0  0  0
   46.9210   -6.6741  -12.6633 C   0  0  0  0  0  0  0  0  0  0  0  0
   46.6076   -5.3782  -12.4022 F   0  0  0  0  0  0  0  0  0  0  0  0
   48.1256   -6.9135  -12.0776 F   0  0  0  0  0  0  0  0  0  0  0  0
   47.1245   -6.7641  -14.0069 F   0  0  0  0  0  0  0  0  0  0  0  0
   43.0652   -8.4171  -10.2527 C   0  0  0  0  0  0  0  0  0  0  0  0
   42.4733   -7.1756   -9.9560 C   0  0  0  0  0  0  0  0  0  0  0  0
   42.6013   -9.5629   -9.5969 C   0  0  0  0  0  0  0  0  0  0  0  0
   41.5279   -9.4739   -8.7042 C   0  0  0  0  0  0  0  0  0  0  0  0
   40.9226   -8.2459   -8.4440 C   0  0  0  0  0  0  0  0  0  0  0  0
   41.3959   -7.0826   -9.0595 C   0  0  0  0  0  0  0  0  0  0  0  0
   40.7759   -5.7441   -8.7479 C   0  0  0  0  0  0  0  0  0  0  0  0
   41.2833   -5.2010   -7.4949 N   0  0  0  0  0  0  0  0  0  0  0  0
   40.6700  -17.9668  -13.7003 H   0  0  0  0  0  0  0  0  0  0  0  0
   43.9502  -15.4233  -14.8890 H   0  0  0  0  0  0  0  0  0  0  0  0
   43.8822  -16.4009  -17.1578 H   0  0  0  0  0  0  0  0  0  0  0  0
   42.2245  -18.1564  -17.7207 H   0  0  0  0  0  0  0  0  0  0  0  0
   39.7766  -15.1832  -13.1754 H   0  0  0  0  0  0  0  0  0  0  0  0
   41.6222  -16.5665  -12.0887 H   0  0  0  0  0  0  0  0  0  0  0  0
   43.7167  -13.6242  -12.3672 H   0  0  0  0  0  0  0  0  0  0  0  0
   38.8862  -12.8803  -13.2693 H   0  0  0  0  0  0  0  0  0  0  0  0
   42.3954  -10.1202  -12.5240 H   0  0  0  0  0  0  0  0  0  0  0  0
   43.6519  -15.6341  -11.2144 H   0  0  0  0  0  0  0  0  0  0  0  0
   43.9591  -18.1669  -12.6899 H   0  0  0  0  0  0  0  0  0  0  0  0
   43.2905  -17.9661  -11.0624 H   0  0  0  0  0  0  0  0  0  0  0  0
   45.4359  -17.0571  -10.2589 H   0  0  0  0  0  0  0  0  0  0  0  0
   45.8592  -19.6230  -11.9723 H   0  0  0  0  0  0  0  0  0  0  0  0
   46.8750  -19.0864  -10.5631 H   0  0  0  0  0  0  0  0  0  0  0  0
   47.4484  -16.9573  -11.7852 H   0  0  0  0  0  0  0  0  0  0  0  0
   46.4207  -17.4831  -13.1881 H   0  0  0  0  0  0  0  0  0  0  0  0
   46.6215   -9.6329  -12.9502 H   0  0  0  0  0  0  0  0  0  0  0  0
   42.8365   -6.2639  -10.4319 H   0  0  0  0  0  0  0  0  0  0  0  0
   43.0621  -10.5369   -9.7201 H   0  0  0  0  0  0  0  0  0  0  0  0
   41.1693  -10.3685   -8.2003 H   0  0  0  0  0  0  0  0  0  0  0  0
   40.0875   -8.1969   -7.7462 H   0  0  0  0  0  0  0  0  0  0  0  0
   40.9815   -5.0340   -9.5574 H   0  0  0  0  0  0  0  0  0  0  0  0
   39.6870   -5.8408   -8.7008 H   0  0  0  0  0  0  0  0  0  0  0  0
   41.0821   -5.8550   -6.7391 H   0  0  0  0  0  0  0  0  0  0  0  0
   42.3012   -5.1537   -7.5485 H   0  0  0  0  0  0  0  0  0  0  0  0
  1  2  2  0
  2  3  1  0
  3  4  2  0
  4  5  1  0
  5  6  2  0
  1  6  1  0
  7  8  2  0
  8  9  1  0
  9  3  1  0
 10 11  2  0
 11 12  1  0
 12 13  2  0
  7 13  1  0
  8 10  1  0
 15 16  2  0
 16 17  1  0
 14 12  1  0
 17 11  1  0
  1 18  1  0
 18 19  3  0
  9 20  1  0
 20 21  1  0
 21 22  1  0
 22 23  1  0
 22 24  1  0
 23 24  1  0
 16 25  1  0
 26 27  1  0
 27 28  2  0
 28 29  1  0
 29 25  1  0
 26 25  2  0
 27 30  1  0
 30 31  1  0
 30 32  1  0
 30 33  1  0
 29 34  1  0
 36 37  1  0
 37 38  2  0
 38 39  1  0
 35 39  2  0
 35 34  1  0
 34 36  2  0
 39 40  1  0
 40 41  1  0
  2 42  1  0
  4 43  1  0
  5 44  1  0
  6 45  1  0
  7 46  1  0
  9 47  1  1
 10 48  1  0
 13 49  1  0
 17 50  1  0
 20 51  1  0
 21 52  1  0
 21 53  1  0
 22 54  1  0
 23 55  1  0
 23 56  1  0
 24 57  1  0
 24 58  1  0
 26 59  1  0
 35 60  1  0
 36 61  1  0
 37 62  1  0
 38 63  1  0
 40 64  1  0
 40 65  1  0
 41 66  1  0
 41 67  1  0
M  END
> <Uni-Dock RESULT> 
ENERGY=   -2.806  LOWER_BOUND=    5.830  UPPER_BOUND=   10.391
INTER + INTRA:          -2.806
INTER:                  -2.806
INTRA:                   0.000
UNBOUND:                 0.000

$$$$

     RDKit          3D

 67 71  0  0  0  0  0  0  0  0999 V2000
   51.5773  -17.8130  -14.3494 C   0  0  0  0  0  0  0  0  0  0  0  0
   50.2771  -17.4690  -14.7441 C   0  0  0  0  0  0  0  0  0  0  0  0
   49.4910  -16.6109  -13.9523 C   0  0  0  0  0  0  0  0  0  0  0  0
   50.0355  -16.1096  -12.7574 C   0  0  0  0  0  0  0  0  0  0  0  0
   51.3313  -16.4536  -12.3635 C   0  0  0  0  0  0  0  0  0  0  0  0
   52.1030  -17.3036  -13.1585 C   0  0  0  0  0  0  0  0  0  0  0  0
   48.6786  -14.3923  -16.0294 C   0  0  0  0  0  0  0  0  0  0  0  0
   48.0173  -14.7675  -14.8412 C   0  0  0  0  0  0  0  0  0  0  0  0
   48.0758  -16.2373  -14.3982 C   0  0  2  0  0  0  0  0  0  0  0  0
   47.3554  -13.7668  -14.0949 C   0  0  0  0  0  0  0  0  0  0  0  0
   47.3408  -12.4373  -14.5267 C   0  0  0  0  0  0  0  0  0  0  0  0
   48.0205  -12.1073  -15.7058 C   0  0  0  0  0  0  0  0  0  0  0  0
   48.6858  -13.0672  -16.4575 C   0  0  0  0  0  0  0  0  0  0  0  0
   48.0252  -10.8340  -16.1321 F   0  0  0  0  0  0  0  0  0  0  0  0
   45.5769  -12.4860  -12.1533 O   0  0  0  0  0  0  0  0  0  0  0  0
   45.8604  -11.4562  -12.7520 C   0  0  0  0  0  0  0  0  0  0  0  0
   46.6861  -11.3787  -13.8570 N   0  0  0  0  0  0  0  0  0  0  0  0
   52.3643  -18.6850  -15.1718 C   0  0  0  0  0  0  0  0  0  0  0  0
   52.9863  -19.3892  -15.8552 N   0  0  0  0  0  0  0  0  0  0  0  0
   47.0721  -16.5766  -13.3740 N   0  0  0  0  0  0  0  0  0  0  0  0
   46.9208  -18.0188  -13.1971 C   0  0  0  0  0  0  0  0  0  0  0  0
   45.9284  -18.2441  -12.0945 C   0  0  0  0  0  0  0  0  0  0  0  0
   46.0160  -19.4912  -11.2498 C   0  0  0  0  0  0  0  0  0  0  0  0
   46.3564  -18.1573  -10.6497 C   0  0  0  0  0  0  0  0  0  0  0  0
   45.3642  -10.1779  -12.3031 C   0  0  0  0  0  0  0  0  0  0  0  0
   45.3972   -9.7140  -10.9993 C   0  0  0  0  0  0  0  0  0  0  0  0
   44.9637   -8.3722  -11.0483 C   0  0  0  0  0  0  0  0  0  0  0  0
   44.6457   -8.0307  -12.3078 N   0  0  0  0  0  0  0  0  0  0  0  0
   44.7476   -9.1772  -13.0383 N   0  0  0  0  0  0  0  0  0  0  0  0
   44.8791   -7.4189   -9.8836 C   0  0  0  0  0  0  0  0  0  0  0  0
   44.5180   -6.1576  -10.2360 F   0  0  0  0  0  0  0  0  0  0  0  0
   43.9759   -7.8430   -8.9584 F   0  0  0  0  0  0  0  0  0  0  0  0
   46.0721   -7.3173   -9.2347 F   0  0  0  0  0  0  0  0  0  0  0  0
   44.2305   -9.1924  -14.3725 C   0  0  0  0  0  0  0  0  0  0  0  0
   43.9386   -7.9674  -15.0000 C   0  0  0  0  0  0  0  0  0  0  0  0
   43.9749  -10.3838  -15.0605 C   0  0  0  0  0  0  0  0  0  0  0  0
   43.4898  -10.3462  -16.3721 C   0  0  0  0  0  0  0  0  0  0  0  0
   43.2386   -9.1278  -17.0000 C   0  0  0  0  0  0  0  0  0  0  0  0
   43.4507   -7.9260  -16.3166 C   0  0  0  0  0  0  0  0  0  0  0  0
   43.1377   -6.6055  -16.9733 C   0  0  0  0  0  0  0  0  0  0  0  0
   41.7135   -6.3049  -16.9124 N   0  0  0  0  0  0  0  0  0  0  0  0
   49.8716  -17.8703  -15.6732 H   0  0  0  0  0  0  0  0  0  0  0  0
   49.4413  -15.4498  -12.1238 H   0  0  0  0  0  0  0  0  0  0  0  0
   51.7356  -16.0576  -11.4348 H   0  0  0  0  0  0  0  0  0  0  0  0
   53.1127  -17.5646  -12.8417 H   0  0  0  0  0  0  0  0  0  0  0  0
   49.2027  -15.1372  -16.6247 H   0  0  0  0  0  0  0  0  0  0  0  0
   47.8189  -16.8170  -15.2966 H   0  0  0  0  0  0  0  0  0  0  0  0
   46.8714  -14.0474  -13.1628 H   0  0  0  0  0  0  0  0  0  0  0  0
   49.1893  -12.7826  -17.3733 H   0  0  0  0  0  0  0  0  0  0  0  0
   46.8528  -10.4652  -14.2654 H   0  0  0  0  0  0  0  0  0  0  0  0
   46.1711  -16.1988  -13.6668 H   0  0  0  0  0  0  0  0  0  0  0  0
   47.8732  -18.4908  -12.9345 H   0  0  0  0  0  0  0  0  0  0  0  0
   46.5530  -18.4892  -14.1147 H   0  0  0  0  0  0  0  0  0  0  0  0
   44.9362  -17.8924  -12.3526 H   0  0  0  0  0  0  0  0  0  0  0  0
   46.8259  -20.1898  -11.4305 H   0  0  0  0  0  0  0  0  0  0  0  0
   45.0886  -19.9612  -10.9458 H   0  0  0  0  0  0  0  0  0  0  0  0
   45.6630  -17.7231   -9.9374 H   0  0  0  0  0  0  0  0  0  0  0  0
   47.3966  -17.9412  -10.4353 H   0  0  0  0  0  0  0  0  0  0  0  0
   45.7551  -10.2639  -10.1382 H   0  0  0  0  0  0  0  0  0  0  0  0
   44.1014   -7.0258  -14.4740 H   0  0  0  0  0  0  0  0  0  0  0  0
   44.1034  -11.3615  -14.6090 H   0  0  0  0  0  0  0  0  0  0  0  0
   43.2966  -11.2755  -16.9029 H   0  0  0  0  0  0  0  0  0  0  0  0
   42.8617   -9.1189  -18.0220 H   0  0  0  0  0  0  0  0  0  0  0  0
   43.6970   -5.7983  -16.4859 H   0  0  0  0  0  0  0  0  0  0  0  0
   43.4737   -6.6192  -18.0145 H   0  0  0  0  0  0  0  0  0  0  0  0
   41.1928   -7.0489  -17.3759 H   0  0  0  0  0  0  0  0  0  0  0  0
   41.4157   -6.3329  -15.9367 H   0  0  0  0  0  0  0  0  0  0  0  0
  1  2  2  0
  2  3  1  0
  3  4  2  0
  4  5  1  0
  5  6  2  0
  1  6  1  0
  7  8  2  0
  8  9  1  0
  9  3  1  0
 10 11  2  0
 11 12  1  0
 12 13  2  0
  7 13  1  0
  8 10  1  0
 15 16  2  0
 16 17  1  0
 14 12  1  0
 17 11  1  0
  1 18  1  0
 18 19  3  0
  9 20  1  0
 20 21  1  0
 21 22  1  0
 22 23  1  0
 22 24  1  0
 23 24  1  0
 16 25  1  0
 26 27  1  0
 27 28  2  0
 28 29  1  0
 29 25  1  0
 26 25  2  0
 27 30  1  0
 30 31  1  0
 30 32  1  0
 30 33  1  0
 29 34  1  0
 36 37  1  0
 37 38  2  0
 38 39  1  0
 35 39  2  0
 35 34  1  0
 34 36  2  0
 39 40  1  0
 40 41  1  0
  2 42  1  0
  4 43  1  0
  5 44  1  0
  6 45  1  0
  7 46  1  0
  9 47  1  1
 10 48  1  0
 13 49  1  0
 17 50  1  0
 20 51  1  0
 21 52  1  0
 21 53  1  0
 22 54  1  0
 23 55  1  0
 23 56  1  0
 24 57  1  0
 24 58  1  0
 26 59  1  0
 35 60  1  0
 36 61  1  0
 37 62  1  0
 38 63  1  0
 40 64  1  0
 40 65  1  0
 41 66  1  0
 41 67  1  0
M  END
> <Uni-Dock RESULT> 
ENERGY=   -2.274  LOWER_BOUND=    5.497  UPPER_BOUND=    8.235
INTER + INTRA:          -2.274
INTER:                  -2.274
INTRA:                   0.000
UNBOUND:                 0.000

$$$$

     RDKit          3D

 67 71  0  0  0  0  0  0  0  0999 V2000
   50.0245  -18.0005  -14.7988 C   0  0  0  0  0  0  0  0  0  0  0  0
   48.7407  -17.4741  -14.9970 C   0  0  0  0  0  0  0  0  0  0  0  0
   48.2181  -16.5084  -14.1164 C   0  0  0  0  0  0  0  0  0  0  0  0
   49.0086  -16.0860  -13.0337 C   0  0  0  0  0  0  0  0  0  0  0  0
   50.2880  -16.6118  -12.8355 C   0  0  0  0  0  0  0  0  0  0  0  0
   50.7971  -17.5675  -13.7172 C   0  0  0  0  0  0  0  0  0  0  0  0
   47.4136  -14.2042  -16.1014 C   0  0  0  0  0  0  0  0  0  0  0  0
   46.9000  -14.4752  -14.8158 C   0  0  0  0  0  0  0  0  0  0  0  0
   46.8181  -15.9363  -14.3482 C   0  0  2  0  0  0  0  0  0  0  0  0
   46.5120  -13.3865  -14.0031 C   0  0  0  0  0  0  0  0  0  0  0  0
   46.6188  -12.0705  -14.4627 C   0  0  0  0  0  0  0  0  0  0  0  0
   47.1452  -11.8469  -15.7409 C   0  0  0  0  0  0  0  0  0  0  0  0
   47.5416  -12.8958  -16.5606 C   0  0  0  0  0  0  0  0  0  0  0  0
   47.2637  -10.5893  -16.1966 F   0  0  0  0  0  0  0  0  0  0  0  0
   45.2595  -11.8545  -11.8449 O   0  0  0  0  0  0  0  0  0  0  0  0
   45.5889  -10.8789  -12.5074 C   0  0  0  0  0  0  0  0  0  0  0  0
   46.2339  -10.9258  -13.7284 N   0  0  0  0  0  0  0  0  0  0  0  0
   50.5412  -18.9804  -15.7094 C   0  0  0  0  0  0  0  0  0  0  0  0
   50.9422  -19.7697  -16.4616 N   0  0  0  0  0  0  0  0  0  0  0  0
   45.9493  -16.1230  -13.1727 N   0  0  0  0  0  0  0  0  0  0  0  0
   45.6244  -17.5275  -12.9363 C   0  0  0  0  0  0  0  0  0  0  0  0
   44.7952  -17.6028  -11.6881 C   0  0  0  0  0  0  0  0  0  0  0  0
   44.8362  -18.8460  -10.8342 C   0  0  0  0  0  0  0  0  0  0  0  0
   45.4521  -17.5728  -10.3295 C   0  0  0  0  0  0  0  0  0  0  0  0
   45.3556   -9.5405  -12.0214 C   0  0  0  0  0  0  0  0  0  0  0  0
   45.6579   -9.0809  -10.7511 C   0  0  0  0  0  0  0  0  0  0  0  0
   45.4169   -7.6908  -10.7683 C   0  0  0  0  0  0  0  0  0  0  0  0
   44.9573   -7.3121  -11.9723 N   0  0  0  0  0  0  0  0  0  0  0  0
   44.7798   -8.4643  -12.6790 N   0  0  0  0  0  0  0  0  0  0  0  0
   45.6519   -6.7306   -9.6303 C   0  0  0  0  0  0  0  0  0  0  0  0
   45.4228   -5.4318   -9.9561 F   0  0  0  0  0  0  0  0  0  0  0  0
   44.8539   -7.0161   -8.5657 F   0  0  0  0  0  0  0  0  0  0  0  0
   46.9340   -6.7995   -9.1763 F   0  0  0  0  0  0  0  0  0  0  0  0
   44.0633   -8.4102  -13.9165 C   0  0  0  0  0  0  0  0  0  0  0  0
   43.8535   -7.1584  -14.5237 C   0  0  0  0  0  0  0  0  0  0  0  0
   43.5366   -9.5550  -14.5248 C   0  0  0  0  0  0  0  0  0  0  0  0
   42.8624   -9.4532  -15.7463 C   0  0  0  0  0  0  0  0  0  0  0  0
   42.6914   -8.2138  -16.3600 C   0  0  0  0  0  0  0  0  0  0  0  0
   43.1763   -7.0524  -15.7498 C   0  0  0  0  0  0  0  0  0  0  0  0
   42.9549   -5.7032  -16.3851 C   0  0  0  0  0  0  0  0  0  0  0  0
   41.6150   -5.2000  -16.1131 N   0  0  0  0  0  0  0  0  0  0  0  0
   48.1418  -17.8165  -15.8414 H   0  0  0  0  0  0  0  0  0  0  0  0
   48.6207  -15.3448  -12.3337 H   0  0  0  0  0  0  0  0  0  0  0  0
   50.8848  -16.2745  -11.9913 H   0  0  0  0  0  0  0  0  0  0  0  0
   51.7966  -17.9702  -13.5533 H   0  0  0  0  0  0  0  0  0  0  0  0
   47.7269  -15.0195  -16.7505 H   0  0  0  0  0  0  0  0  0  0  0  0
   46.3440  -16.4765  -15.1805 H   0  0  0  0  0  0  0  0  0  0  0  0
   46.1451  -13.5905  -13.0003 H   0  0  0  0  0  0  0  0  0  0  0  0
   47.9307  -12.6906  -17.5503 H   0  0  0  0  0  0  0  0  0  0  0  0
   46.4625  -10.0476  -14.1817 H   0  0  0  0  0  0  0  0  0  0  0  0
   45.0764  -15.6203  -13.3328 H   0  0  0  0  0  0  0  0  0  0  0  0
   46.5295  -18.1310  -12.8114 H   0  0  0  0  0  0  0  0  0  0  0  0
   45.0545  -17.9436  -13.7732 H   0  0  0  0  0  0  0  0  0  0  0  0
   43.8349  -17.1127  -11.7991 H   0  0  0  0  0  0  0  0  0  0  0  0
   45.5003  -19.6549  -11.1192 H   0  0  0  0  0  0  0  0  0  0  0  0
   43.9106  -19.1760  -10.3782 H   0  0  0  0  0  0  0  0  0  0  0  0
   44.9476  -17.0402   -9.5305 H   0  0  0  0  0  0  0  0  0  0  0  0
   46.5331  -17.5082  -10.2841 H   0  0  0  0  0  0  0  0  0  0  0  0
   46.0645   -9.6732   -9.9414 H   0  0  0  0  0  0  0  0  0  0  0  0
   44.2286   -6.2481  -14.0543 H   0  0  0  0  0  0  0  0  0  0  0  0
   43.5942  -10.5392  -14.0728 H   0  0  0  0  0  0  0  0  0  0  0  0
   42.4586  -10.3470  -16.2161 H   0  0  0  0  0  0  0  0  0  0  0  0
   42.1642   -8.1548  -17.3115 H   0  0  0  0  0  0  0  0  0  0  0  0
   43.6924   -4.9833  -16.0116 H   0  0  0  0  0  0  0  0  0  0  0  0
   43.1182   -5.7695  -17.4651 H   0  0  0  0  0  0  0  0  0  0  0  0
   40.9280   -5.8630  -16.4707 H   0  0  0  0  0  0  0  0  0  0  0  0
   41.4728   -5.1808  -15.1028 H   0  0  0  0  0  0  0  0  0  0  0  0
  1  2  2  0
  2  3  1  0
  3  4  2  0
  4  5  1  0
  5  6  2  0
  1  6  1  0
  7  8  2  0
  8  9  1  0
  9  3  1  0
 10 11  2  0
 11 12  1  0
 12 13  2  0
  7 13  1  0
  8 10  1  0
 15 16  2  0
 16 17  1  0
 14 12  1  0
 17 11  1  0
  1 18  1  0
 18 19  3  0
  9 20  1  0
 20 21  1  0
 21 22  1  0
 22 23  1  0
 22 24  1  0
 23 24  1  0
 16 25  1  0
 26 27  1  0
 27 28  2  0
 28 29  1  0
 29 25  1  0
 26 25  2  0
 27 30  1  0
 30 31  1  0
 30 32  1  0
 30 33  1  0
 29 34  1  0
 36 37  1  0
 37 38  2  0
 38 39  1  0
 35 39  2  0
 35 34  1  0
 34 36  2  0
 39 40  1  0
 40 41  1  0
  2 42  1  0
  4 43  1  0
  5 44  1  0
  6 45  1  0
  7 46  1  0
  9 47  1  1
 10 48  1  0
 13 49  1  0
 17 50  1  0
 20 51  1  0
 21 52  1  0
 21 53  1  0
 22 54  1  0
 23 55  1  0
 23 56  1  0
 24 57  1  0
 24 58  1  0
 26 59  1  0
 35 60  1  0
 36 61  1  0
 37 62  1  0
 38 63  1  0
 40 64  1  0
 40 65  1  0
 41 66  1  0
 41 67  1  0
M  END
> <Uni-Dock RESULT> 
ENERGY=   -2.155  LOWER_BOUND=    5.674  UPPER_BOUND=    8.864
INTER + INTRA:          -2.155
INTER:                  -2.155
INTRA:                   0.000
UNBOUND:                 0.000

$$$$
