
     RDKit          3D

 90 88  0  0  0  0  0  0  0  0999 V2000
    0.6517    1.3380    0.3214 N   0  0  0  0  0  0  0  0  0  0  0  0
   -0.6721   -1.3491   -0.2108 N   0  0  0  0  0  0  0  0  0  0  0  0
    1.2439    0.0416    0.6904 C   0  0  0  0  0  0  0  0  0  0  0  0
    0.7841   -1.1304   -0.2003 C   0  0  0  0  0  0  0  0  0  0  0  0
   -0.7008    1.1771   -0.2400 C   0  0  0  0  0  0  0  0  0  0  0  0
   -1.4067   -0.1320    0.1686 C   0  0  0  0  0  0  0  0  0  0  0  0
   -0.1068   -0.1496    0.1611 C   0  0  0  0  0  0  0  0  0  0  0  0
    0.9336   -1.2729    0.0174 C   0  0  0  0  0  0  0  0  0  0  0  0
   -1.3307   -0.4813   -0.7019 C   0  0  0  0  0  0  0  0  0  0  0  0
    0.5405    1.1874   -0.2430 C   0  0  0  0  0  0  0  0  0  0  0  0
   -2.3664    0.6093   -0.6880 C   0  0  0  0  0  0  0  0  0  0  0  0
    2.2779   -0.8879    0.5687 C   0  0  0  0  0  0  0  0  0  0  0  0
    0.9331    2.0516    0.5259 O   0  0  0  0  0  0  0  0  0  0  0  0
    3.3335   -0.9047   -0.0395 O   0  0  0  0  0  0  0  0  0  0  0  0
   -2.1826    1.8095   -0.5881 O   0  0  0  0  0  0  0  0  0  0  0  0
   -0.5486   -0.1349    1.5269 O   0  0  0  0  0  0  0  0  0  0  0  0
    0.7376    1.3066   -1.5703 O   0  0  0  0  0  0  0  0  0  0  0  0
    2.2319   -0.5246    1.8640 O   0  0  0  0  0  0  0  0  0  0  0  0
   -3.6108    0.1274   -0.8805 O   0  0  0  0  0  0  0  0  0  0  0  0
   -0.4164   -1.4190    0.1415 N   0  0  0  0  0  0  0  0  0  0  0  0
    0.4168    1.4194   -0.1410 N   0  0  0  0  0  0  0  0  0  0  0  0
   -1.3841   -0.3087    0.1731 C   0  0  0  0  0  0  0  0  0  0  0  0
   -0.7607    1.0206    0.6501 C   0  0  0  0  0  0  0  0  0  0  0  0
    0.7610   -1.0207   -0.6495 C   0  0  0  0  0  0  0  0  0  0  0  0
    1.3845    0.3087   -0.1731 C   0  0  0  0  0  0  0  0  0  0  0  0
   -0.2292    0.2234   -0.2949 C   0  0  0  0  0  0  0  0  0  0  0  0
    0.9674    0.0130    0.6439 C   0  0  0  0  0  0  0  0  0  0  0  0
   -1.4652    0.8005    0.4088 C   0  0  0  0  0  0  0  0  0  0  0  0
    0.1458    1.2589   -1.3732 C   0  0  0  0  0  0  0  0  0  0  0  0
   -1.9623   -0.0465    1.5439 C   0  0  0  0  0  0  0  0  0  0  0  0
    2.2464   -0.2241   -0.1109 C   0  0  0  0  0  0  0  0  0  0  0  0
    0.5732    2.3841   -1.1732 O   0  0  0  0  0  0  0  0  0  0  0  0
    2.3539   -0.6213   -1.2594 O   0  0  0  0  0  0  0  0  0  0  0  0
   -1.3078   -0.4698    2.4821 O   0  0  0  0  0  0  0  0  0  0  0  0
   -0.6071   -1.0335   -0.8721 O   0  0  0  0  0  0  0  0  0  0  0  0
   -0.0255    0.7980   -2.6303 O   0  0  0  0  0  0  0  0  0  0  0  0
    3.3366    0.0196    0.6399 O   0  0  0  0  0  0  0  0  0  0  0  0
   -3.2902   -0.2688    1.4866 O   0  0  0  0  0  0  0  0  0  0  0  0
    0.5970    1.3705    0.3898 N   0  0  0  0  0  0  0  0  0  0  0  0
   -0.6761   -1.0425    0.6175 N   0  0  0  0  0  0  0  0  0  0  0  0
    1.4696    0.2028    0.1526 C   0  0  0  0  0  0  0  0  0  0  0  0
    0.7263   -1.1566    0.1909 C   0  0  0  0  0  0  0  0  0  0  0  0
   -0.5958    1.2462   -0.4681 C   0  0  0  0  0  0  0  0  0  0  0  0
   -1.3829   -0.0673   -0.2290 C   0  0  0  0  0  0  0  0  0  0  0  0
    1.2386    1.7961   -0.3746 H   0  0  0  0  0  0  0  0  0  0  0  0
   -0.9495   -1.6392   -1.1478 H   0  0  0  0  0  0  0  0  0  0  0  0
    2.3360    0.1277    0.6504 H   0  0  0  0  0  0  0  0  0  0  0  0
    0.9888   -0.1729    1.7359 H   0  0  0  0  0  0  0  0  0  0  0  0
    1.2725   -2.0545    0.1268 H   0  0  0  0  0  0  0  0  0  0  0  0
    1.1190   -0.9420   -1.2282 H   0  0  0  0  0  0  0  0  0  0  0  0
   -0.6338    1.2131   -1.3352 H   0  0  0  0  0  0  0  0  0  0  0  0
   -1.3090    2.0340    0.0694 H   0  0  0  0  0  0  0  0  0  0  0  0
   -1.5573   -0.1403    1.2556 H   0  0  0  0  0  0  0  0  0  0  0  0
   -2.4055   -0.1673   -0.2817 H   0  0  0  0  0  0  0  0  0  0  0  0
    0.6125   -2.1883    0.5274 H   0  0  0  0  0  0  0  0  0  0  0  0
    1.0869   -1.5189   -1.0405 H   0  0  0  0  0  0  0  0  0  0  0  0
   -1.8018   -1.3943   -0.3178 H   0  0  0  0  0  0  0  0  0  0  0  0
   -1.0543   -0.6521   -1.7480 H   0  0  0  0  0  0  0  0  0  0  0  0
    0.2062    0.1919    2.0609 H   0  0  0  0  0  0  0  0  0  0  0  0
    1.1287    2.2011   -1.6718 H   0  0  0  0  0  0  0  0  0  0  0  0
    3.1613   -0.2993    2.0885 H   0  0  0  0  0  0  0  0  0  0  0  0
   -4.1815    0.9241   -0.8509 H   0  0  0  0  0  0  0  0  0  0  0  0
   -0.1051   -1.5874    1.0991 H   0  0  0  0  0  0  0  0  0  0  0  0
    0.1054    1.5877   -1.0987 H   0  0  0  0  0  0  0  0  0  0  0  0
   -1.8155   -0.1804   -0.8274 H   0  0  0  0  0  0  0  0  0  0  0  0
   -2.2108   -0.5799    0.8389 H   0  0  0  0  0  0  0  0  0  0  0  0
   -1.5117    1.8158    0.5869 H   0  0  0  0  0  0  0  0  0  0  0  0
   -0.4748    0.9396    1.7065 H   0  0  0  0  0  0  0  0  0  0  0  0
    1.5117   -1.8166   -0.5871 H   0  0  0  0  0  0  0  0  0  0  0  0
    0.4735   -0.9402   -1.7053 H   0  0  0  0  0  0  0  0  0  0  0  0
    1.8167    0.1800    0.8269 H   0  0  0  0  0  0  0  0  0  0  0  0
    2.2095    0.5811   -0.8409 H   0  0  0  0  0  0  0  0  0  0  0  0
    1.1083    0.9015    1.2710 H   0  0  0  0  0  0  0  0  0  0  0  0
    0.8231   -0.8654    1.2805 H   0  0  0  0  0  0  0  0  0  0  0  0
   -2.2792    0.8969   -0.3228 H   0  0  0  0  0  0  0  0  0  0  0  0
   -1.2767    1.8050    0.8069 H   0  0  0  0  0  0  0  0  0  0  0  0
   -0.0175   -1.1669   -1.6444 H   0  0  0  0  0  0  0  0  0  0  0  0
    0.2839    1.5266   -3.2087 H   0  0  0  0  0  0  0  0  0  0  0  0
    4.0972   -0.1871    0.0572 H   0  0  0  0  0  0  0  0  0  0  0  0
   -3.4750   -0.8287    2.2692 H   0  0  0  0  0  0  0  0  0  0  0  0
    0.2554    1.2644    1.3491 H   0  0  0  0  0  0  0  0  0  0  0  0
   -1.1337   -1.9494    0.5525 H   0  0  0  0  0  0  0  0  0  0  0  0
    1.9741    0.3189   -0.8136 H   0  0  0  0  0  0  0  0  0  0  0  0
    2.2528    0.2094    0.9195 H   0  0  0  0  0  0  0  0  0  0  0  0
    1.2467   -1.8319    0.8787 H   0  0  0  0  0  0  0  0  0  0  0  0
    0.7642   -1.6187   -0.8028 H   0  0  0  0  0  0  0  0  0  0  0  0
   -1.2526    2.1024   -0.2794 H   0  0  0  0  0  0  0  0  0  0  0  0
   -0.2897    1.3099   -1.5190 H   0  0  0  0  0  0  0  0  0  0  0  0
   -1.6194   -0.5255   -1.1963 H   0  0  0  0  0  0  0  0  0  0  0  0
   -2.3359    0.1675    0.2575 H   0  0  0  0  0  0  0  0  0  0  0  0
  2  6  1  0
  3  1  1  0
  4  3  1  0
  5  1  1  0
  6  5  1  0
  2  4  1  0
  8  7  1  0
  9  7  1  0
 10  7  1  0
 11  9  1  0
 12  8  1  0
 13 10  2  0
 14 12  2  0
 15 11  2  0
 16  7  1  0
 17 10  1  0
 18 12  1  0
 19 11  1  0
 21 25  1  0
 22 20  1  0
 23 22  1  0
 24 20  1  0
 25 24  1  0
 21 23  1  0
 27 26  1  0
 28 26  1  0
 29 26  1  0
 30 28  1  0
 31 27  1  0
 32 29  2  0
 33 31  2  0
 34 30  2  0
 35 26  1  0
 36 29  1  0
 37 31  1  0
 38 30  1  0
 40 44  1  0
 41 39  1  0
 42 41  1  0
 43 39  1  0
 44 43  1  0
 40 42  1  0
  1 45  1  0
  2 46  1  0
  3 47  1  0
  3 48  1  0
  4 49  1  0
  4 50  1  0
  5 51  1  0
  5 52  1  0
  6 53  1  0
  6 54  1  0
  8 55  1  0
  8 56  1  0
  9 57  1  0
  9 58  1  0
 16 59  1  0
 17 60  1  0
 18 61  1  0
 19 62  1  0
 20 63  1  0
 21 64  1  0
 22 65  1  0
 22 66  1  0
 23 67  1  0
 23 68  1  0
 24 69  1  0
 24 70  1  0
 25 71  1  0
 25 72  1  0
 27 73  1  0
 27 74  1  0
 28 75  1  0
 28 76  1  0
 35 77  1  0
 36 78  1  0
 37 79  1  0
 38 80  1  0
 39 81  1  0
 40 82  1  0
 41 83  1  0
 41 84  1  0
 42 85  1  0
 42 86  1  0
 43 87  1  0
 43 88  1  0
 44 89  1  0
 44 90  1  0
M  END
$$$$
