
     RDKit          3D

 90 88  0  0  0  0  0  0  0  0999 V2000
   -0.1932   -1.4164   -0.2559 N   0  0  0  0  0  0  0  0  0  0  0  0
    0.3050    1.2938   -0.5851 N   0  0  0  0  0  0  0  0  0  0  0  0
    0.9429   -0.9040    0.5304 C   0  0  0  0  0  0  0  0  0  0  0  0
    1.3461    0.5392    0.1406 C   0  0  0  0  0  0  0  0  0  0  0  0
   -1.3564   -0.5279   -0.0588 C   0  0  0  0  0  0  0  0  0  0  0  0
   -1.0118    0.9811   -0.0029 C   0  0  0  0  0  0  0  0  0  0  0  0
    0.0402   -0.1163    0.1677 C   0  0  0  0  0  0  0  0  0  0  0  0
    1.0650   -1.2442   -0.0311 C   0  0  0  0  0  0  0  0  0  0  0  0
   -1.3662   -0.7365    0.1453 C   0  0  0  0  0  0  0  0  0  0  0  0
    0.1633    0.8849   -0.9947 C   0  0  0  0  0  0  0  0  0  0  0  0
   -2.4686    0.2790    0.2654 C   0  0  0  0  0  0  0  0  0  0  0  0
    2.5029   -0.8563    0.1743 C   0  0  0  0  0  0  0  0  0  0  0  0
    0.0381    0.6390   -2.1831 O   0  0  0  0  0  0  0  0  0  0  0  0
    3.3812   -1.6102    0.5642 O   0  0  0  0  0  0  0  0  0  0  0  0
   -2.4302    1.4632   -0.0220 O   0  0  0  0  0  0  0  0  0  0  0  0
    0.2389    0.4596    1.4620 O   0  0  0  0  0  0  0  0  0  0  0  0
    0.4268    2.1380   -0.5569 O   0  0  0  0  0  0  0  0  0  0  0  0
    2.8150    0.3968   -0.1932 O   0  0  0  0  0  0  0  0  0  0  0  0
   -3.6207   -0.2787    0.6918 O   0  0  0  0  0  0  0  0  0  0  0  0
    1.1734    0.9713   -0.0316 N   0  0  0  0  0  0  0  0  0  0  0  0
   -1.1652   -0.9615    0.2140 N   0  0  0  0  0  0  0  0  0  0  0  0
    1.3067   -0.4392    0.3670 C   0  0  0  0  0  0  0  0  0  0  0  0
    0.1959   -1.3589   -0.1815 C   0  0  0  0  0  0  0  0  0  0  0  0
   -0.2298    1.3357   -0.2859 C   0  0  0  0  0  0  0  0  0  0  0  0
   -1.2482    0.4813    0.4965 C   0  0  0  0  0  0  0  0  0  0  0  0
    0.0084    0.2707   -0.0647 C   0  0  0  0  0  0  0  0  0  0  0  0
   -1.2935    0.1165   -0.8611 C   0  0  0  0  0  0  0  0  0  0  0  0
    1.2065    0.1162   -1.0168 C   0  0  0  0  0  0  0  0  0  0  0  0
    0.1224   -0.7718    1.0631 C   0  0  0  0  0  0  0  0  0  0  0  0
    2.5054   -0.0635   -0.2821 C   0  0  0  0  0  0  0  0  0  0  0  0
   -2.5201    0.1664    0.0085 C   0  0  0  0  0  0  0  0  0  0  0  0
    0.4866   -0.5500    2.2088 O   0  0  0  0  0  0  0  0  0  0  0  0
   -2.6382   -0.2307    1.1551 O   0  0  0  0  0  0  0  0  0  0  0  0
    3.2861   -0.9885   -0.4240 O   0  0  0  0  0  0  0  0  0  0  0  0
    0.0284    1.6100    0.4512 O   0  0  0  0  0  0  0  0  0  0  0  0
   -0.1414   -2.0298    0.6572 O   0  0  0  0  0  0  0  0  0  0  0  0
   -3.5884    0.6562   -0.6531 O   0  0  0  0  0  0  0  0  0  0  0  0
    2.7701    0.9379    0.5781 O   0  0  0  0  0  0  0  0  0  0  0  0
    0.1777   -1.4640    0.3758 N   0  0  0  0  0  0  0  0  0  0  0  0
   -0.1718    1.4870   -0.2813 N   0  0  0  0  0  0  0  0  0  0  0  0
    1.2650   -0.4738    0.4421 C   0  0  0  0  0  0  0  0  0  0  0  0
    1.0726    0.7301   -0.5027 C   0  0  0  0  0  0  0  0  0  0  0  0
   -1.1157   -0.8286    0.0690 C   0  0  0  0  0  0  0  0  0  0  0  0
   -1.1831    0.6731    0.4136 C   0  0  0  0  0  0  0  0  0  0  0  0
    0.0720   -1.3670   -1.2390 H   0  0  0  0  0  0  0  0  0  0  0  0
    0.2967    0.9615   -1.5491 H   0  0  0  0  0  0  0  0  0  0  0  0
    1.7997   -1.5728    0.3956 H   0  0  0  0  0  0  0  0  0  0  0  0
    0.6816   -0.9396    1.5950 H   0  0  0  0  0  0  0  0  0  0  0  0
    2.2361    0.5078   -0.4964 H   0  0  0  0  0  0  0  0  0  0  0  0
    1.6258    1.0921    1.0435 H   0  0  0  0  0  0  0  0  0  0  0  0
   -2.0552   -0.7106   -0.8828 H   0  0  0  0  0  0  0  0  0  0  0  0
   -1.8766   -0.8142    0.8619 H   0  0  0  0  0  0  0  0  0  0  0  0
   -1.0310    1.3273    1.0380 H   0  0  0  0  0  0  0  0  0  0  0  0
   -1.7818    1.5497   -0.5351 H   0  0  0  0  0  0  0  0  0  0  0  0
    0.9815   -1.6853   -1.0316 H   0  0  0  0  0  0  0  0  0  0  0  0
    0.8668   -2.0342    0.7059 H   0  0  0  0  0  0  0  0  0  0  0  0
   -1.4659   -1.4256    0.9940 H   0  0  0  0  0  0  0  0  0  0  0  0
   -1.5375   -1.2945   -0.7820 H   0  0  0  0  0  0  0  0  0  0  0  0
    0.4165    1.4132    1.2982 H   0  0  0  0  0  0  0  0  0  0  0  0
    0.4277    2.6824   -1.3734 H   0  0  0  0  0  0  0  0  0  0  0  0
    3.7793    0.4574   -0.0269 H   0  0  0  0  0  0  0  0  0  0  0  0
   -4.2540    0.4682    0.7261 H   0  0  0  0  0  0  0  0  0  0  0  0
    1.7167    1.1458   -0.8760 H   0  0  0  0  0  0  0  0  0  0  0  0
   -1.8094   -1.2057   -0.5368 H   0  0  0  0  0  0  0  0  0  0  0  0
    2.2841   -0.8096    0.0381 H   0  0  0  0  0  0  0  0  0  0  0  0
    1.3105   -0.4896    1.4632 H   0  0  0  0  0  0  0  0  0  0  0  0
    0.3692   -2.3869    0.1550 H   0  0  0  0  0  0  0  0  0  0  0  0
    0.2559   -1.3700   -1.2777 H   0  0  0  0  0  0  0  0  0  0  0  0
   -0.3655    2.3926   -0.0347 H   0  0  0  0  0  0  0  0  0  0  0  0
   -0.4343    1.2360   -1.3594 H   0  0  0  0  0  0  0  0  0  0  0  0
   -2.2648    0.8264    0.2772 H   0  0  0  0  0  0  0  0  0  0  0  0
   -1.0951    0.6325    1.5724 H   0  0  0  0  0  0  0  0  0  0  0  0
   -1.3658    0.9359   -1.5884 H   0  0  0  0  0  0  0  0  0  0  0  0
   -1.3254   -0.8328   -1.4081 H   0  0  0  0  0  0  0  0  0  0  0  0
    1.3112    0.9857   -1.6753 H   0  0  0  0  0  0  0  0  0  0  0  0
    1.0789   -0.7693   -1.6524 H   0  0  0  0  0  0  0  0  0  0  0  0
    0.8219    1.6790    1.0214 H   0  0  0  0  0  0  0  0  0  0  0  0
   -0.0691   -2.5617    1.4803 H   0  0  0  0  0  0  0  0  0  0  0  0
   -4.3091    0.6390    0.0131 H   0  0  0  0  0  0  0  0  0  0  0  0
    3.6252    0.6846    0.9893 H   0  0  0  0  0  0  0  0  0  0  0  0
    0.3825   -2.1499   -0.3495 H   0  0  0  0  0  0  0  0  0  0  0  0
   -0.5351    1.7797   -1.1865 H   0  0  0  0  0  0  0  0  0  0  0  0
    2.2122   -0.9735    0.2110 H   0  0  0  0  0  0  0  0  0  0  0  0
    1.3498   -0.1181    1.4769 H   0  0  0  0  0  0  0  0  0  0  0  0
    1.9188    1.4178   -0.3996 H   0  0  0  0  0  0  0  0  0  0  0  0
    1.0849    0.3681   -1.5394 H   0  0  0  0  0  0  0  0  0  0  0  0
   -1.9030   -1.3656    0.6081 H   0  0  0  0  0  0  0  0  0  0  0  0
   -1.3216   -0.9527   -1.0022 H   0  0  0  0  0  0  0  0  0  0  0  0
   -1.0545    0.8082    1.4947 H   0  0  0  0  0  0  0  0  0  0  0  0
   -2.1785    1.0622    0.1699 H   0  0  0  0  0  0  0  0  0  0  0  0
  2  6  1  0
  3  1  1  0
  4  3  1  0
  5  1  1  0
  6  5  1  0
  2  4  1  0
  8  7  1  0
  9  7  1  0
 10  7  1  0
 11  9  1  0
 12  8  1  0
 13 10  2  0
 14 12  2  0
 15 11  2  0
 16  7  1  0
 17 10  1  0
 18 12  1  0
 19 11  1  0
 21 25  1  0
 22 20  1  0
 23 22  1  0
 24 20  1  0
 25 24  1  0
 21 23  1  0
 27 26  1  0
 28 26  1  0
 29 26  1  0
 30 28  1  0
 31 27  1  0
 32 29  2  0
 33 31  2  0
 34 30  2  0
 35 26  1  0
 36 29  1  0
 37 31  1  0
 38 30  1  0
 40 44  1  0
 41 39  1  0
 42 41  1  0
 43 39  1  0
 44 43  1  0
 40 42  1  0
  1 45  1  0
  2 46  1  0
  3 47  1  0
  3 48  1  0
  4 49  1  0
  4 50  1  0
  5 51  1  0
  5 52  1  0
  6 53  1  0
  6 54  1  0
  8 55  1  0
  8 56  1  0
  9 57  1  0
  9 58  1  0
 16 59  1  0
 17 60  1  0
 18 61  1  0
 19 62  1  0
 20 63  1  0
 21 64  1  0
 22 65  1  0
 22 66  1  0
 23 67  1  0
 23 68  1  0
 24 69  1  0
 24 70  1  0
 25 71  1  0
 25 72  1  0
 27 73  1  0
 27 74  1  0
 28 75  1  0
 28 76  1  0
 35 77  1  0
 36 78  1  0
 37 79  1  0
 38 80  1  0
 39 81  1  0
 40 82  1  0
 41 83  1  0
 41 84  1  0
 42 85  1  0
 42 86  1  0
 43 87  1  0
 43 88  1  0
 44 89  1  0
 44 90  1  0
M  END
$$$$
