
     RDKit          3D

 90 88  0  0  0  0  0  0  0  0999 V2000
    0.1587   -1.4790    0.0192 N   0  0  0  0  0  0  0  0  0  0  0  0
   -0.1562    1.4741   -0.0195 N   0  0  0  0  0  0  0  0  0  0  0  0
    1.2435   -0.5665    0.4239 C   0  0  0  0  0  0  0  0  0  0  0  0
    1.1435    0.8192   -0.2484 C   0  0  0  0  0  0  0  0  0  0  0  0
   -1.1427   -0.8235    0.2473 C   0  0  0  0  0  0  0  0  0  0  0  0
   -1.2441    0.5651   -0.4211 C   0  0  0  0  0  0  0  0  0  0  0  0
   -0.2446   -0.3087    0.1796 C   0  0  0  0  0  0  0  0  0  0  0  0
   -1.4487    0.4241    0.7845 C   0  0  0  0  0  0  0  0  0  0  0  0
    0.7470   -0.6546    1.3060 C   0  0  0  0  0  0  0  0  0  0  0  0
    0.4305    0.5660   -0.8908 C   0  0  0  0  0  0  0  0  0  0  0  0
    2.0169   -1.2425    0.7638 C   0  0  0  0  0  0  0  0  0  0  0  0
   -2.4608    0.8304   -0.2507 C   0  0  0  0  0  0  0  0  0  0  0  0
    0.4285    0.3618   -2.0952 O   0  0  0  0  0  0  0  0  0  0  0  0
   -3.5611    0.3334   -0.4297 O   0  0  0  0  0  0  0  0  0  0  0  0
    2.1651   -1.7822   -0.3191 O   0  0  0  0  0  0  0  0  0  0  0  0
   -0.7322   -1.5381   -0.3750 O   0  0  0  0  0  0  0  0  0  0  0  0
    1.0822    1.6280   -0.3873 O   0  0  0  0  0  0  0  0  0  0  0  0
   -2.0643    1.8883   -0.9855 O   0  0  0  0  0  0  0  0  0  0  0  0
    3.0450   -1.1385    1.6262 O   0  0  0  0  0  0  0  0  0  0  0  0
   -0.3909    1.3024    0.6017 N   0  0  0  0  0  0  0  0  0  0  0  0
    0.3951   -1.3019   -0.5984 N   0  0  0  0  0  0  0  0  0  0  0  0
   -1.3802    0.3645    0.0411 C   0  0  0  0  0  0  0  0  0  0  0  0
   -0.9058   -1.1062    0.0633 C   0  0  0  0  0  0  0  0  0  0  0  0
    0.9046    1.1047   -0.0711 C   0  0  0  0  0  0  0  0  0  0  0  0
    1.3809   -0.3632   -0.0355 C   0  0  0  0  0  0  0  0  0  0  0  0
    0.0485   -0.4497   -0.3296 C   0  0  0  0  0  0  0  0  0  0  0  0
    1.4194   -0.9205    0.1894 C   0  0  0  0  0  0  0  0  0  0  0  0
   -0.3383    0.9579    0.1487 C   0  0  0  0  0  0  0  0  0  0  0  0
   -0.9784   -1.4584    0.2267 C   0  0  0  0  0  0  0  0  0  0  0  0
   -1.7468    1.3288   -0.2356 C   0  0  0  0  0  0  0  0  0  0  0  0
    2.4880    0.1300    0.2650 C   0  0  0  0  0  0  0  0  0  0  0  0
   -1.2971   -1.5910    1.3963 O   0  0  0  0  0  0  0  0  0  0  0  0
    3.2312    0.3088    1.2191 O   0  0  0  0  0  0  0  0  0  0  0  0
   -2.5371    0.6678   -0.8862 O   0  0  0  0  0  0  0  0  0  0  0  0
    0.0903   -0.4742   -1.7630 O   0  0  0  0  0  0  0  0  0  0  0  0
   -1.5326   -2.2281   -0.7348 O   0  0  0  0  0  0  0  0  0  0  0  0
    2.6465    0.8512   -0.8582 O   0  0  0  0  0  0  0  0  0  0  0  0
   -2.0850    2.5502    0.2197 O   0  0  0  0  0  0  0  0  0  0  0  0
    0.2401   -1.3743   -0.5117 N   0  0  0  0  0  0  0  0  0  0  0  0
   -0.2401    1.3742    0.5122 N   0  0  0  0  0  0  0  0  0  0  0  0
    1.3235   -0.5369    0.0351 C   0  0  0  0  0  0  0  0  0  0  0  0
    1.0402    0.9743   -0.0974 C   0  0  0  0  0  0  0  0  0  0  0  0
   -1.0394   -0.9741    0.0990 C   0  0  0  0  0  0  0  0  0  0  0  0
   -1.3228    0.5371   -0.0343 C   0  0  0  0  0  0  0  0  0  0  0  0
    0.2504   -1.6344   -0.9852 H   0  0  0  0  0  0  0  0  0  0  0  0
   -0.2476    1.6477    0.9830 H   0  0  0  0  0  0  0  0  0  0  0  0
    2.2035   -1.0269    0.1642 H   0  0  0  0  0  0  0  0  0  0  0  0
    1.2322   -0.4528    1.5145 H   0  0  0  0  0  0  0  0  0  0  0  0
    1.3152    0.7215   -1.3275 H   0  0  0  0  0  0  0  0  0  0  0  0
    1.9377    1.4679    0.1366 H   0  0  0  0  0  0  0  0  0  0  0  0
   -1.9344   -1.4702   -0.1453 H   0  0  0  0  0  0  0  0  0  0  0  0
   -1.3146   -0.7271    1.3266 H   0  0  0  0  0  0  0  0  0  0  0  0
   -2.2010    1.0275   -0.1552 H   0  0  0  0  0  0  0  0  0  0  0  0
   -1.2439    0.4574   -1.5130 H   0  0  0  0  0  0  0  0  0  0  0  0
   -1.9671   -0.2369    1.4965 H   0  0  0  0  0  0  0  0  0  0  0  0
   -1.1517    1.3231    1.3411 H   0  0  0  0  0  0  0  0  0  0  0  0
    0.3149   -1.3869    1.9944 H   0  0  0  0  0  0  0  0  0  0  0  0
    1.0090    0.2478    1.8703 H   0  0  0  0  0  0  0  0  0  0  0  0
   -0.0524   -1.8560   -1.0056 H   0  0  0  0  0  0  0  0  0  0  0  0
    1.4207    2.0912   -1.1841 H   0  0  0  0  0  0  0  0  0  0  0  0
   -2.7827    1.9991   -1.6431 H   0  0  0  0  0  0  0  0  0  0  0  0
    3.8058   -1.5491    1.1590 H   0  0  0  0  0  0  0  0  0  0  0  0
   -0.2683    1.0735    1.5892 H   0  0  0  0  0  0  0  0  0  0  0  0
    0.2777   -1.0740   -1.5876 H   0  0  0  0  0  0  0  0  0  0  0  0
   -2.3115    0.4559    0.6111 H   0  0  0  0  0  0  0  0  0  0  0  0
   -1.6121    0.6605   -0.9894 H   0  0  0  0  0  0  0  0  0  0  0  0
   -1.6527   -1.7367   -0.4335 H   0  0  0  0  0  0  0  0  0  0  0  0
   -0.8371   -1.4580    1.1009 H   0  0  0  0  0  0  0  0  0  0  0  0
    1.6528    1.7403    0.4147 H   0  0  0  0  0  0  0  0  0  0  0  0
    0.8259    1.4476   -1.1098 H   0  0  0  0  0  0  0  0  0  0  0  0
    1.6038   -0.6544    0.9983 H   0  0  0  0  0  0  0  0  0  0  0  0
    2.3178   -0.4550   -0.5950 H   0  0  0  0  0  0  0  0  0  0  0  0
    1.8139   -1.7410   -0.4273 H   0  0  0  0  0  0  0  0  0  0  0  0
    1.3193   -1.3131    1.2141 H   0  0  0  0  0  0  0  0  0  0  0  0
   -0.2604    1.0269    1.2407 H   0  0  0  0  0  0  0  0  0  0  0  0
    0.3073    1.7129   -0.3122 H   0  0  0  0  0  0  0  0  0  0  0  0
   -0.8196   -0.6830   -2.0615 H   0  0  0  0  0  0  0  0  0  0  0  0
   -2.1875   -2.7915   -0.2672 H   0  0  0  0  0  0  0  0  0  0  0  0
    3.4201    1.4232   -0.6736 H   0  0  0  0  0  0  0  0  0  0  0  0
   -3.0015    2.6929   -0.1020 H   0  0  0  0  0  0  0  0  0  0  0  0
    0.1782   -1.1905   -1.5143 H   0  0  0  0  0  0  0  0  0  0  0  0
   -0.1779    1.1888    1.5142 H   0  0  0  0  0  0  0  0  0  0  0  0
    1.4813   -0.7937    1.0904 H   0  0  0  0  0  0  0  0  0  0  0  0
    2.2515   -0.7787   -0.4943 H   0  0  0  0  0  0  0  0  0  0  0  0
    1.0376    1.2623   -1.1551 H   0  0  0  0  0  0  0  0  0  0  0  0
    1.8489    1.5391    0.3792 H   0  0  0  0  0  0  0  0  0  0  0  0
   -1.8467   -1.5374   -0.3808 H   0  0  0  0  0  0  0  0  0  0  0  0
   -1.0417   -1.2648    1.1569 H   0  0  0  0  0  0  0  0  0  0  0  0
   -1.4793    0.7950   -1.0890 H   0  0  0  0  0  0  0  0  0  0  0  0
   -2.2533    0.7797    0.4898 H   0  0  0  0  0  0  0  0  0  0  0  0
  2  6  1  0
  3  1  1  0
  4  3  1  0
  5  1  1  0
  6  5  1  0
  2  4  1  0
  8  7  1  0
  9  7  1  0
 10  7  1  0
 11  9  1  0
 12  8  1  0
 13 10  2  0
 14 12  2  0
 15 11  2  0
 16  7  1  0
 17 10  1  0
 18 12  1  0
 19 11  1  0
 21 25  1  0
 22 20  1  0
 23 22  1  0
 24 20  1  0
 25 24  1  0
 21 23  1  0
 27 26  1  0
 28 26  1  0
 29 26  1  0
 30 28  1  0
 31 27  1  0
 32 29  2  0
 33 31  2  0
 34 30  2  0
 35 26  1  0
 36 29  1  0
 37 31  1  0
 38 30  1  0
 40 44  1  0
 41 39  1  0
 42 41  1  0
 43 39  1  0
 44 43  1  0
 40 42  1  0
  1 45  1  0
  2 46  1  0
  3 47  1  0
  3 48  1  0
  4 49  1  0
  4 50  1  0
  5 51  1  0
  5 52  1  0
  6 53  1  0
  6 54  1  0
  8 55  1  0
  8 56  1  0
  9 57  1  0
  9 58  1  0
 16 59  1  0
 17 60  1  0
 18 61  1  0
 19 62  1  0
 20 63  1  0
 21 64  1  0
 22 65  1  0
 22 66  1  0
 23 67  1  0
 23 68  1  0
 24 69  1  0
 24 70  1  0
 25 71  1  0
 25 72  1  0
 27 73  1  0
 27 74  1  0
 28 75  1  0
 28 76  1  0
 35 77  1  0
 36 78  1  0
 37 79  1  0
 38 80  1  0
 39 81  1  0
 40 82  1  0
 41 83  1  0
 41 84  1  0
 42 85  1  0
 42 86  1  0
 43 87  1  0
 43 88  1  0
 44 89  1  0
 44 90  1  0
M  END
$$$$
