
     RDKit          3D

 90 88  0  0  0  0  0  0  0  0999 V2000
    1.3336   -0.6761   -0.3330 N   0  0  0  0  0  0  0  0  0  0  0  0
   -1.2069    0.6431    0.4517 N   0  0  0  0  0  0  0  0  0  0  0  0
    0.2845   -1.3790    0.4291 C   0  0  0  0  0  0  0  0  0  0  0  0
   -1.1257   -0.7996    0.1836 C   0  0  0  0  0  0  0  0  0  0  0  0
    1.2583    0.7628   -0.0176 C   0  0  0  0  0  0  0  0  0  0  0  0
   -0.1439    1.3599   -0.2666 C   0  0  0  0  0  0  0  0  0  0  0  0
   -0.0365   -0.4935   -0.4921 C   0  0  0  0  0  0  0  0  0  0  0  0
   -1.1571    0.2061   -1.2659 C   0  0  0  0  0  0  0  0  0  0  0  0
    1.1020    0.4628   -0.1247 C   0  0  0  0  0  0  0  0  0  0  0  0
   -0.6324   -1.2062    0.7302 C   0  0  0  0  0  0  0  0  0  0  0  0
    2.2166   -0.2321    0.6082 C   0  0  0  0  0  0  0  0  0  0  0  0
   -1.9614    1.1711   -0.4485 C   0  0  0  0  0  0  0  0  0  0  0  0
   -0.9347   -2.3915    0.7573 O   0  0  0  0  0  0  0  0  0  0  0  0
   -3.0239    0.9343    0.1017 O   0  0  0  0  0  0  0  0  0  0  0  0
    2.1726   -1.3001    1.1926 O   0  0  0  0  0  0  0  0  0  0  0  0
    0.4962   -1.4739   -1.4115 O   0  0  0  0  0  0  0  0  0  0  0  0
   -0.8316   -0.4110    1.7954 O   0  0  0  0  0  0  0  0  0  0  0  0
   -1.3996    2.3903   -0.3704 O   0  0  0  0  0  0  0  0  0  0  0  0
    3.3529    0.4958    0.6026 O   0  0  0  0  0  0  0  0  0  0  0  0
   -0.4418    1.4180    0.0437 N   0  0  0  0  0  0  0  0  0  0  0  0
    0.4422   -1.4181   -0.0427 N   0  0  0  0  0  0  0  0  0  0  0  0
    0.9165    1.0053    0.4384 C   0  0  0  0  0  0  0  0  0  0  0  0
    1.3749   -0.2968   -0.2527 C   0  0  0  0  0  0  0  0  0  0  0  0
   -1.3750    0.2969    0.2523 C   0  0  0  0  0  0  0  0  0  0  0  0
   -0.9163   -1.0059   -0.4378 C   0  0  0  0  0  0  0  0  0  0  0  0
   -0.0233    0.1441   -0.3232 C   0  0  0  0  0  0  0  0  0  0  0  0
    0.6293   -0.5110    0.9011 C   0  0  0  0  0  0  0  0  0  0  0  0
   -1.5392   -0.0714   -0.4068 C   0  0  0  0  0  0  0  0  0  0  0  0
    0.2314    1.6623   -0.3021 C   0  0  0  0  0  0  0  0  0  0  0  0
   -1.9320   -1.5185   -0.4738 C   0  0  0  0  0  0  0  0  0  0  0  0
    1.9709    0.0866    1.2183 C   0  0  0  0  0  0  0  0  0  0  0  0
    0.9658    2.2795   -1.0575 O   0  0  0  0  0  0  0  0  0  0  0  0
    2.2962    0.6197    2.2647 O   0  0  0  0  0  0  0  0  0  0  0  0
   -1.5472   -2.4143    0.2594 O   0  0  0  0  0  0  0  0  0  0  0  0
    0.5522   -0.4085   -1.5192 O   0  0  0  0  0  0  0  0  0  0  0  0
   -0.4012    2.3013    0.7015 O   0  0  0  0  0  0  0  0  0  0  0  0
    2.8451   -0.0218    0.1990 O   0  0  0  0  0  0  0  0  0  0  0  0
   -2.8629   -1.7610   -1.4157 O   0  0  0  0  0  0  0  0  0  0  0  0
   -0.2204    1.4028    0.2375 N   0  0  0  0  0  0  0  0  0  0  0  0
    0.2243   -1.5123   -0.0977 N   0  0  0  0  0  0  0  0  0  0  0  0
    1.1077    0.8437   -0.0503 C   0  0  0  0  0  0  0  0  0  0  0  0
    1.2645   -0.6133    0.4362 C   0  0  0  0  0  0  0  0  0  0  0  0
   -1.2744    0.5031   -0.2512 C   0  0  0  0  0  0  0  0  0  0  0  0
   -1.0981   -0.9511    0.2371 C   0  0  0  0  0  0  0  0  0  0  0  0
    1.1300   -0.7910   -1.3254 H   0  0  0  0  0  0  0  0  0  0  0  0
   -2.1166    0.9960    0.1593 H   0  0  0  0  0  0  0  0  0  0  0  0
    0.2948   -2.4368    0.1442 H   0  0  0  0  0  0  0  0  0  0  0  0
    0.5252   -1.3382    1.4988 H   0  0  0  0  0  0  0  0  0  0  0  0
   -1.4251   -0.9934   -0.8541 H   0  0  0  0  0  0  0  0  0  0  0  0
   -1.8438   -1.3188    0.8272 H   0  0  0  0  0  0  0  0  0  0  0  0
    1.5530    0.9204    1.0274 H   0  0  0  0  0  0  0  0  0  0  0  0
    1.9918    1.2943   -0.6338 H   0  0  0  0  0  0  0  0  0  0  0  0
   -0.1486    2.4080    0.0517 H   0  0  0  0  0  0  0  0  0  0  0  0
   -0.3606    1.3486   -1.3423 H   0  0  0  0  0  0  0  0  0  0  0  0
   -1.8593   -0.5360   -1.6699 H   0  0  0  0  0  0  0  0  0  0  0  0
   -0.7653    0.7238   -2.1504 H   0  0  0  0  0  0  0  0  0  0  0  0
    0.7596    1.2797    0.5179 H   0  0  0  0  0  0  0  0  0  0  0  0
    1.5283    0.8862   -1.0427 H   0  0  0  0  0  0  0  0  0  0  0  0
    0.2262   -2.3536   -1.0735 H   0  0  0  0  0  0  0  0  0  0  0  0
   -1.2162   -1.0087    2.4732 H   0  0  0  0  0  0  0  0  0  0  0  0
   -2.0302    2.9123    0.1720 H   0  0  0  0  0  0  0  0  0  0  0  0
    3.9939   -0.0558    1.0986 H   0  0  0  0  0  0  0  0  0  0  0  0
   -0.4249    1.6251   -0.9559 H   0  0  0  0  0  0  0  0  0  0  0  0
    0.4249   -1.6233    0.9570 H   0  0  0  0  0  0  0  0  0  0  0  0
    0.9524    0.8804    1.5278 H   0  0  0  0  0  0  0  0  0  0  0  0
    1.6146    1.8122    0.1901 H   0  0  0  0  0  0  0  0  0  0  0  0
    1.4936   -0.1246   -1.3295 H   0  0  0  0  0  0  0  0  0  0  0  0
    2.3604   -0.5829    0.1305 H   0  0  0  0  0  0  0  0  0  0  0  0
   -1.4955    0.1251    1.3291 H   0  0  0  0  0  0  0  0  0  0  0  0
   -2.3599    0.5835   -0.1333 H   0  0  0  0  0  0  0  0  0  0  0  0
   -1.6145   -1.8129   -0.1900 H   0  0  0  0  0  0  0  0  0  0  0  0
   -0.9519   -0.8821   -1.5270 H   0  0  0  0  0  0  0  0  0  0  0  0
    0.7847   -1.5862    0.7606 H   0  0  0  0  0  0  0  0  0  0  0  0
    0.0015   -0.3731    1.7895 H   0  0  0  0  0  0  0  0  0  0  0  0
   -1.9218    0.4270   -1.3080 H   0  0  0  0  0  0  0  0  0  0  0  0
   -2.0654    0.3677    0.4487 H   0  0  0  0  0  0  0  0  0  0  0  0
    1.4933   -0.1331   -1.5349 H   0  0  0  0  0  0  0  0  0  0  0  0
   -0.1185    3.2377    0.6164 H   0  0  0  0  0  0  0  0  0  0  0  0
    3.6647    0.3988    0.5379 H   0  0  0  0  0  0  0  0  0  0  0  0
   -3.0235   -2.7256   -1.3557 H   0  0  0  0  0  0  0  0  0  0  0  0
   -0.3129    2.3143   -0.2077 H   0  0  0  0  0  0  0  0  0  0  0  0
    0.3118   -1.5262   -1.1136 H   0  0  0  0  0  0  0  0  0  0  0  0
    1.8658    1.4674    0.4357 H   0  0  0  0  0  0  0  0  0  0  0  0
    1.2950    0.8913   -1.1305 H   0  0  0  0  0  0  0  0  0  0  0  0
    2.2453   -0.9922    0.1285 H   0  0  0  0  0  0  0  0  0  0  0  0
    1.2437   -0.6462    1.5326 H   0  0  0  0  0  0  0  0  0  0  0  0
   -2.2456    0.8803    0.0871 H   0  0  0  0  0  0  0  0  0  0  0  0
   -1.2872    0.5212   -1.3481 H   0  0  0  0  0  0  0  0  0  0  0  0
   -1.2494   -1.0013    1.3226 H   0  0  0  0  0  0  0  0  0  0  0  0
   -1.8701   -1.5814   -0.2183 H   0  0  0  0  0  0  0  0  0  0  0  0
  2  6  1  0
  3  1  1  0
  4  3  1  0
  5  1  1  0
  6  5  1  0
  2  4  1  0
  8  7  1  0
  9  7  1  0
 10  7  1  0
 11  9  1  0
 12  8  1  0
 13 10  2  0
 14 12  2  0
 15 11  2  0
 16  7  1  0
 17 10  1  0
 18 12  1  0
 19 11  1  0
 21 25  1  0
 22 20  1  0
 23 22  1  0
 24 20  1  0
 25 24  1  0
 21 23  1  0
 27 26  1  0
 28 26  1  0
 29 26  1  0
 30 28  1  0
 31 27  1  0
 32 29  2  0
 33 31  2  0
 34 30  2  0
 35 26  1  0
 36 29  1  0
 37 31  1  0
 38 30  1  0
 40 44  1  0
 41 39  1  0
 42 41  1  0
 43 39  1  0
 44 43  1  0
 40 42  1  0
  1 45  1  0
  2 46  1  0
  3 47  1  0
  3 48  1  0
  4 49  1  0
  4 50  1  0
  5 51  1  0
  5 52  1  0
  6 53  1  0
  6 54  1  0
  8 55  1  0
  8 56  1  0
  9 57  1  0
  9 58  1  0
 16 59  1  0
 17 60  1  0
 18 61  1  0
 19 62  1  0
 20 63  1  0
 21 64  1  0
 22 65  1  0
 22 66  1  0
 23 67  1  0
 23 68  1  0
 24 69  1  0
 24 70  1  0
 25 71  1  0
 25 72  1  0
 27 73  1  0
 27 74  1  0
 28 75  1  0
 28 76  1  0
 35 77  1  0
 36 78  1  0
 37 79  1  0
 38 80  1  0
 39 81  1  0
 40 82  1  0
 41 83  1  0
 41 84  1  0
 42 85  1  0
 42 86  1  0
 43 87  1  0
 43 88  1  0
 44 89  1  0
 44 90  1  0
M  END
$$$$
