
     RDKit          3D

 44 42  0  0  0  0  0  0  0  0999 V2000
   -0.1043    1.3679   -0.0653 N   0  0  0  0  0  0  0  0  0  0  0  0
    0.1415   -1.4277    0.4040 N   0  0  0  0  0  0  0  0  0  0  0  0
    1.1428    0.8304    0.3012 C   0  0  0  0  0  0  0  0  0  0  0  0
    1.1930   -0.5515    0.8192 C   0  0  0  0  0  0  0  0  0  0  0  0
   -1.2558    0.5588    0.0029 C   0  0  0  0  0  0  0  0  0  0  0  0
   -1.1171   -0.7779    0.6348 C   0  0  0  0  0  0  0  0  0  0  0  0
    0.0155    0.1948   -0.7482 C   0  0  0  0  0  0  0  0  0  0  0  0
    0.6387   -1.0237   -0.0841 C   0  0  0  0  0  0  0  0  0  0  0  0
   -1.3766   -0.2145   -1.1729 C   0  0  0  0  0  0  0  0  0  0  0  0
    0.0068    1.3402    0.1758 C   0  0  0  0  0  0  0  0  0  0  0  0
   -2.2127   -0.6412   -0.0279 C   0  0  0  0  0  0  0  0  0  0  0  0
    2.0177   -0.7648    0.3876 C   0  0  0  0  0  0  0  0  0  0  0  0
    0.6490    2.3889   -0.1753 O   0  0  0  0  0  0  0  0  0  0  0  0
    2.6039   -1.7457    0.9581 O   0  0  0  0  0  0  0  0  0  0  0  0
   -2.8379    0.1485    0.7234 O   0  0  0  0  0  0  0  0  0  0  0  0
    0.7769    0.4838   -1.8721 O   0  0  0  0  0  0  0  0  0  0  0  0
   -0.6293    1.3869    1.3839 O   0  0  0  0  0  0  0  0  0  0  0  0
    2.6526    0.4633    0.2285 O   0  0  0  0  0  0  0  0  0  0  0  0
   -2.3047   -2.0165    0.2230 O   0  0  0  0  0  0  0  0  0  0  0  0
   -1.2242    0.2278   -0.5672 N   0  0  0  0  0  0  0  0  0  0  0  0
    1.3499   -0.2028    0.5858 N   0  0  0  0  0  0  0  0  0  0  0  0
   -0.8448   -1.0791   -0.1728 C   0  0  0  0  0  0  0  0  0  0  0  0
    0.4938   -1.2919    0.3652 C   0  0  0  0  0  0  0  0  0  0  0  0
   -0.6269    1.2352    0.2566 C   0  0  0  0  0  0  0  0  0  0  0  0
    0.8522    1.1108    0.4157 C   0  0  0  0  0  0  0  0  0  0  0  0
   -0.3800    0.5059    0.3383 C   0  0  0  0  0  0  0  0  0  0  0  0
    0.8768   -0.1311    0.7695 C   0  0  0  0  0  0  0  0  0  0  0  0
   -1.0614   -0.3356   -0.7229 C   0  0  0  0  0  0  0  0  0  0  0  0
   -0.2432    1.9368   -0.0909 C   0  0  0  0  0  0  0  0  0  0  0  0
   -1.3155   -1.6721   -0.0751 C   0  0  0  0  0  0  0  0  0  0  0  0
    1.9085   -0.3568   -0.2590 C   0  0  0  0  0  0  0  0  0  0  0  0
    0.5330    2.1752   -1.0627 O   0  0  0  0  0  0  0  0  0  0  0  0
    1.7705   -0.0824   -1.4711 O   0  0  0  0  0  0  0  0  0  0  0  0
   -0.3830   -2.3237    0.4698 O   0  0  0  0  0  0  0  0  0  0  0  0
   -1.2648    0.4420    1.4504 O   0  0  0  0  0  0  0  0  0  0  0  0
   -0.9293    2.9664    0.5334 O   0  0  0  0  0  0  0  0  0  0  0  0
    3.1229   -0.9243    0.2070 O   0  0  0  0  0  0  0  0  0  0  0  0
   -2.6345   -2.2003   -0.0867 O   0  0  0  0  0  0  0  0  0  0  0  0
    1.1393   -0.5642    0.4413 N   0  0  0  0  0  0  0  0  0  0  0  0
   -1.2105    0.6449    0.0183 N   0  0  0  0  0  0  0  0  0  0  0  0
    1.2184    0.7506   -0.1018 C   0  0  0  0  0  0  0  0  0  0  0  0
   -0.0835    1.3456   -0.5288 C   0  0  0  0  0  0  0  0  0  0  0  0
    0.1408   -1.4122   -0.1338 C   0  0  0  0  0  0  0  0  0  0  0  0
   -1.2045   -0.7647   -0.2963 C   0  0  0  0  0  0  0  0  0  0  0  0
  2  6  1  0
  3  1  1  0
  4  3  1  0
  5  1  1  0
  6  5  1  0
  2  4  1  0
  8  7  1  0
  9  7  1  0
 10  7  1  0
 11  9  1  0
 12  8  1  0
 13 10  2  0
 14 12  2  0
 15 11  2  0
 16  7  1  0
 17 10  1  0
 18 12  1  0
 19 11  1  0
 21 25  1  0
 22 20  1  0
 23 22  1  0
 24 20  1  0
 25 24  1  0
 21 23  1  0
 27 26  1  0
 28 26  1  0
 29 26  1  0
 30 28  1  0
 31 27  1  0
 32 29  2  0
 33 31  2  0
 34 30  2  0
 35 26  1  0
 36 29  1  0
 37 31  1  0
 38 30  1  0
 40 44  1  0
 41 39  1  0
 42 41  1  0
 43 39  1  0
 44 43  1  0
 40 42  1  0
M  END
