
     RDKit          3D

 90 88  0  0  0  0  0  0  0  0999 V2000
   -0.2910    1.4569   -0.0366 N   0  0  0  0  0  0  0  0  0  0  0  0
    0.2908   -1.4568    0.0364 N   0  0  0  0  0  0  0  0  0  0  0  0
    1.0427    0.9294    0.3006 C   0  0  0  0  0  0  0  0  0  0  0  0
    1.3155   -0.4589   -0.3176 C   0  0  0  0  0  0  0  0  0  0  0  0
   -1.3154    0.4587    0.3172 C   0  0  0  0  0  0  0  0  0  0  0  0
   -1.0432   -0.9296   -0.3007 C   0  0  0  0  0  0  0  0  0  0  0  0
   -0.2367   -0.6921   -0.2335 C   0  0  0  0  0  0  0  0  0  0  0  0
    0.8895   -0.5365    0.8081 C   0  0  0  0  0  0  0  0  0  0  0  0
   -1.3774    0.3293   -0.1496 C   0  0  0  0  0  0  0  0  0  0  0  0
   -0.9006   -2.0551    0.0426 C   0  0  0  0  0  0  0  0  0  0  0  0
   -0.9132    1.7478   -0.0783 C   0  0  0  0  0  0  0  0  0  0  0  0
    1.8808    0.5441    0.4922 C   0  0  0  0  0  0  0  0  0  0  0  0
   -0.8391   -2.6967    1.0807 O   0  0  0  0  0  0  0  0  0  0  0  0
    1.9697    1.1684   -0.5540 O   0  0  0  0  0  0  0  0  0  0  0  0
   -0.5963    2.3410    0.9402 O   0  0  0  0  0  0  0  0  0  0  0  0
    0.3095   -0.7408   -1.5594 O   0  0  0  0  0  0  0  0  0  0  0  0
   -1.6466   -2.5172   -0.9850 O   0  0  0  0  0  0  0  0  0  0  0  0
    2.7346    0.7663    1.5084 O   0  0  0  0  0  0  0  0  0  0  0  0
   -0.8205    2.3315   -1.2853 O   0  0  0  0  0  0  0  0  0  0  0  0
   -0.9575   -1.0974   -0.2973 N   0  0  0  0  0  0  0  0  0  0  0  0
    0.9568    1.0972    0.2972 N   0  0  0  0  0  0  0  0  0  0  0  0
    0.2869   -1.3231    0.4595 C   0  0  0  0  0  0  0  0  0  0  0  0
    1.3920   -0.2994    0.1204 C   0  0  0  0  0  0  0  0  0  0  0  0
   -1.3925    0.2994   -0.1199 C   0  0  0  0  0  0  0  0  0  0  0  0
   -0.2871    1.3223   -0.4595 C   0  0  0  0  0  0  0  0  0  0  0  0
    0.1440    0.0599   -0.4714 C   0  0  0  0  0  0  0  0  0  0  0  0
    0.7824   -1.1194    0.2692 C   0  0  0  0  0  0  0  0  0  0  0  0
   -1.2098   -0.3019   -1.0894 C   0  0  0  0  0  0  0  0  0  0  0  0
   -0.0647    1.2461    0.4880 C   0  0  0  0  0  0  0  0  0  0  0  0
   -2.2384   -0.6930   -0.0713 C   0  0  0  0  0  0  0  0  0  0  0  0
    2.2370   -0.9129    0.5840 C   0  0  0  0  0  0  0  0  0  0  0  0
   -0.5831    1.2275    1.5910 O   0  0  0  0  0  0  0  0  0  0  0  0
    3.1199   -1.7451    0.4548 O   0  0  0  0  0  0  0  0  0  0  0  0
   -2.2526   -1.7257    0.5750 O   0  0  0  0  0  0  0  0  0  0  0  0
    0.9884    0.4136   -1.5836 O   0  0  0  0  0  0  0  0  0  0  0  0
    0.3846    2.4071   -0.0467 O   0  0  0  0  0  0  0  0  0  0  0  0
    2.5200    0.2867    1.1254 O   0  0  0  0  0  0  0  0  0  0  0  0
   -3.1954    0.2390    0.0859 O   0  0  0  0  0  0  0  0  0  0  0  0
    0.0213    1.4639    0.2546 N   0  0  0  0  0  0  0  0  0  0  0  0
   -0.0203   -1.4631   -0.2566 N   0  0  0  0  0  0  0  0  0  0  0  0
   -1.1805    0.6428    0.4860 C   0  0  0  0  0  0  0  0  0  0  0  0
   -1.2231   -0.6236   -0.3958 C   0  0  0  0  0  0  0  0  0  0  0  0
    1.2230    0.6229    0.3975 C   0  0  0  0  0  0  0  0  0  0  0  0
    1.1807   -0.6414   -0.4868 C   0  0  0  0  0  0  0  0  0  0  0  0
   -0.3251    1.5920   -1.0481 H   0  0  0  0  0  0  0  0  0  0  0  0
    0.3246   -1.5900    1.0480 H   0  0  0  0  0  0  0  0  0  0  0  0
    1.1449    0.8778    1.3918 H   0  0  0  0  0  0  0  0  0  0  0  0
    1.8006    1.6374   -0.0521 H   0  0  0  0  0  0  0  0  0  0  0  0
    1.3757   -0.3757   -1.4099 H   0  0  0  0  0  0  0  0  0  0  0  0
    2.2915   -0.8215    0.0234 H   0  0  0  0  0  0  0  0  0  0  0  0
   -1.3747    0.3750    1.4094 H   0  0  0  0  0  0  0  0  0  0  0  0
   -2.2914    0.8214   -0.0232 H   0  0  0  0  0  0  0  0  0  0  0  0
   -1.8003   -1.6381    0.0534 H   0  0  0  0  0  0  0  0  0  0  0  0
   -1.1452   -0.8780   -1.3919 H   0  0  0  0  0  0  0  0  0  0  0  0
    1.4770   -1.4638    0.8569 H   0  0  0  0  0  0  0  0  0  0  0  0
    0.4620   -0.3493    1.8011 H   0  0  0  0  0  0  0  0  0  0  0  0
   -1.9997    0.1563    0.7384 H   0  0  0  0  0  0  0  0  0  0  0  0
   -2.0526    0.2354   -1.0102 H   0  0  0  0  0  0  0  0  0  0  0  0
    0.7469    0.1163   -1.7422 H   0  0  0  0  0  0  0  0  0  0  0  0
   -1.9612   -3.3956   -0.6891 H   0  0  0  0  0  0  0  0  0  0  0  0
    3.3183    1.4903    1.1989 H   0  0  0  0  0  0  0  0  0  0  0  0
   -0.4444    3.2203   -1.1086 H   0  0  0  0  0  0  0  0  0  0  0  0
   -0.7463   -1.2327   -1.2871 H   0  0  0  0  0  0  0  0  0  0  0  0
    0.7468    1.2344    1.2868 H   0  0  0  0  0  0  0  0  0  0  0  0
    0.0667   -1.2899    1.5340 H   0  0  0  0  0  0  0  0  0  0  0  0
    0.6515   -2.3337    0.2437 H   0  0  0  0  0  0  0  0  0  0  0  0
    1.7272   -0.4438   -0.9142 H   0  0  0  0  0  0  0  0  0  0  0  0
    2.2624   -0.4798    0.7611 H   0  0  0  0  0  0  0  0  0  0  0  0
   -2.2616    0.4813   -0.7618 H   0  0  0  0  0  0  0  0  0  0  0  0
   -1.7281    0.4430    0.9149 H   0  0  0  0  0  0  0  0  0  0  0  0
   -0.0667    1.2890   -1.5339 H   0  0  0  0  0  0  0  0  0  0  0  0
   -0.6506    2.3331   -0.2439 H   0  0  0  0  0  0  0  0  0  0  0  0
    0.7329   -2.0128   -0.3653 H   0  0  0  0  0  0  0  0  0  0  0  0
    0.2735   -1.3461    1.2118 H   0  0  0  0  0  0  0  0  0  0  0  0
   -1.1108   -1.1266   -1.8060 H   0  0  0  0  0  0  0  0  0  0  0  0
   -1.5926    0.5392   -1.6814 H   0  0  0  0  0  0  0  0  0  0  0  0
    1.1406    1.3814   -1.5078 H   0  0  0  0  0  0  0  0  0  0  0  0
    0.2105    3.0683    0.6588 H   0  0  0  0  0  0  0  0  0  0  0  0
    3.4836    0.2329    1.3054 H   0  0  0  0  0  0  0  0  0  0  0  0
   -3.7701   -0.1181    0.7962 H   0  0  0  0  0  0  0  0  0  0  0  0
   -0.0115    1.7959   -0.7102 H   0  0  0  0  0  0  0  0  0  0  0  0
    0.0141   -1.7987    0.7067 H   0  0  0  0  0  0  0  0  0  0  0  0
   -2.0673    1.2539    0.2848 H   0  0  0  0  0  0  0  0  0  0  0  0
   -1.2260    0.3609    1.5452 H   0  0  0  0  0  0  0  0  0  0  0  0
   -1.3439   -0.3393   -1.4486 H   0  0  0  0  0  0  0  0  0  0  0  0
   -2.1011   -1.2217   -0.1277 H   0  0  0  0  0  0  0  0  0  0  0  0
    1.3389    0.3377    1.4503 H   0  0  0  0  0  0  0  0  0  0  0  0
    2.1036    1.2195    0.1348 H   0  0  0  0  0  0  0  0  0  0  0  0
    2.0684   -1.2520   -0.2886 H   0  0  0  0  0  0  0  0  0  0  0  0
    1.2237   -0.3577   -1.5455 H   0  0  0  0  0  0  0  0  0  0  0  0
  2  6  1  0
  3  1  1  0
  4  3  1  0
  5  1  1  0
  6  5  1  0
  2  4  1  0
  8  7  1  0
  9  7  1  0
 10  7  1  0
 11  9  1  0
 12  8  1  0
 13 10  2  0
 14 12  2  0
 15 11  2  0
 16  7  1  0
 17 10  1  0
 18 12  1  0
 19 11  1  0
 21 25  1  0
 22 20  1  0
 23 22  1  0
 24 20  1  0
 25 24  1  0
 21 23  1  0
 27 26  1  0
 28 26  1  0
 29 26  1  0
 30 28  1  0
 31 27  1  0
 32 29  2  0
 33 31  2  0
 34 30  2  0
 35 26  1  0
 36 29  1  0
 37 31  1  0
 38 30  1  0
 40 44  1  0
 41 39  1  0
 42 41  1  0
 43 39  1  0
 44 43  1  0
 40 42  1  0
  1 45  1  0
  2 46  1  0
  3 47  1  0
  3 48  1  0
  4 49  1  0
  4 50  1  0
  5 51  1  0
  5 52  1  0
  6 53  1  0
  6 54  1  0
  8 55  1  0
  8 56  1  0
  9 57  1  0
  9 58  1  0
 16 59  1  0
 17 60  1  0
 18 61  1  0
 19 62  1  0
 20 63  1  0
 21 64  1  0
 22 65  1  0
 22 66  1  0
 23 67  1  0
 23 68  1  0
 24 69  1  0
 24 70  1  0
 25 71  1  0
 25 72  1  0
 27 73  1  0
 27 74  1  0
 28 75  1  0
 28 76  1  0
 35 77  1  0
 36 78  1  0
 37 79  1  0
 38 80  1  0
 39 81  1  0
 40 82  1  0
 41 83  1  0
 41 84  1  0
 42 85  1  0
 42 86  1  0
 43 87  1  0
 43 88  1  0
 44 89  1  0
 44 90  1  0
M  END
$$$$
