
     RDKit          3D

 90 88  0  0  0  0  0  0  0  0999 V2000
   -0.5899   -1.4033    0.2844 N   0  0  0  0  0  0  0  0  0  0  0  0
    0.3860    1.1774    0.6445 N   0  0  0  0  0  0  0  0  0  0  0  0
    0.8679   -1.2283    0.1111 C   0  0  0  0  0  0  0  0  0  0  0  0
    1.3380    0.2457    0.0279 C   0  0  0  0  0  0  0  0  0  0  0  0
   -1.2920   -0.3606   -0.4838 C   0  0  0  0  0  0  0  0  0  0  0  0
   -0.9290    1.0693   -0.0104 C   0  0  0  0  0  0  0  0  0  0  0  0
    0.0378    0.6329   -0.2102 C   0  0  0  0  0  0  0  0  0  0  0  0
   -1.2441    0.5376   -1.0415 C   0  0  0  0  0  0  0  0  0  0  0  0
    1.0554   -0.4553   -0.5671 C   0  0  0  0  0  0  0  0  0  0  0  0
   -0.3379    0.6377    1.2794 C   0  0  0  0  0  0  0  0  0  0  0  0
    2.3206   -0.3344    0.2352 C   0  0  0  0  0  0  0  0  0  0  0  0
   -2.0011   -0.7387   -0.8333 C   0  0  0  0  0  0  0  0  0  0  0  0
   -0.4396    1.6446    1.9648 O   0  0  0  0  0  0  0  0  0  0  0  0
   -1.7097   -1.8309   -1.2885 O   0  0  0  0  0  0  0  0  0  0  0  0
    2.4729    0.2330    1.3029 O   0  0  0  0  0  0  0  0  0  0  0  0
    0.6188    1.9092   -0.5669 O   0  0  0  0  0  0  0  0  0  0  0  0
   -0.5758   -0.5789    1.8004 O   0  0  0  0  0  0  0  0  0  0  0  0
   -3.0868   -0.5834   -0.0557 O   0  0  0  0  0  0  0  0  0  0  0  0
    3.3469   -0.9974   -0.3359 O   0  0  0  0  0  0  0  0  0  0  0  0
    0.1018   -1.3475    0.6177 N   0  0  0  0  0  0  0  0  0  0  0  0
   -0.1020    1.3481   -0.6160 N   0  0  0  0  0  0  0  0  0  0  0  0
   -1.1475   -0.8520    0.0133 C   0  0  0  0  0  0  0  0  0  0  0  0
   -1.2530    0.6880    0.0257 C   0  0  0  0  0  0  0  0  0  0  0  0
    1.2521   -0.6890   -0.0260 C   0  0  0  0  0  0  0  0  0  0  0  0
    1.1481    0.8511   -0.0142 C   0  0  0  0  0  0  0  0  0  0  0  0
   -0.2986    0.2758    0.1952 C   0  0  0  0  0  0  0  0  0  0  0  0
   -1.3592    0.0259   -0.8857 C   0  0  0  0  0  0  0  0  0  0  0  0
    0.9418   -0.6154    0.0466 C   0  0  0  0  0  0  0  0  0  0  0  0
    0.0763    1.7651    0.0897 C   0  0  0  0  0  0  0  0  0  0  0  0
    2.0605   -0.1777    0.9490 C   0  0  0  0  0  0  0  0  0  0  0  0
   -1.8386   -1.3948   -0.9224 C   0  0  0  0  0  0  0  0  0  0  0  0
   -0.1973    2.6351    0.9024 O   0  0  0  0  0  0  0  0  0  0  0  0
   -1.1678   -2.3737   -1.2061 O   0  0  0  0  0  0  0  0  0  0  0  0
    1.9674    0.5371    1.9324 O   0  0  0  0  0  0  0  0  0  0  0  0
   -0.9145    0.0201    1.4665 O   0  0  0  0  0  0  0  0  0  0  0  0
    0.7677    2.0721   -1.0257 O   0  0  0  0  0  0  0  0  0  0  0  0
   -3.1494   -1.5196   -0.6449 O   0  0  0  0  0  0  0  0  0  0  0  0
    3.2475   -0.6998    0.5876 O   0  0  0  0  0  0  0  0  0  0  0  0
   -1.3018   -0.1263   -0.7969 N   0  0  0  0  0  0  0  0  0  0  0  0
    1.1420    0.0953    0.8707 N   0  0  0  0  0  0  0  0  0  0  0  0
   -1.0224    1.0575    0.0372 C   0  0  0  0  0  0  0  0  0  0  0  0
    0.4851    1.2733    0.2887 C   0  0  0  0  0  0  0  0  0  0  0  0
   -0.6651   -1.3012   -0.1738 C   0  0  0  0  0  0  0  0  0  0  0  0
    0.8455   -1.1038    0.0755 C   0  0  0  0  0  0  0  0  0  0  0  0
   -0.7783   -1.1966    1.2684 H   0  0  0  0  0  0  0  0  0  0  0  0
    0.7286    2.1335    0.5724 H   0  0  0  0  0  0  0  0  0  0  0  0
    1.3584   -1.7150    0.9605 H   0  0  0  0  0  0  0  0  0  0  0  0
    1.1932   -1.7642   -0.7866 H   0  0  0  0  0  0  0  0  0  0  0  0
    2.3113    0.3437    0.5208 H   0  0  0  0  0  0  0  0  0  0  0  0
    1.4831    0.5246   -1.0236 H   0  0  0  0  0  0  0  0  0  0  0  0
   -2.3729   -0.5111   -0.3871 H   0  0  0  0  0  0  0  0  0  0  0  0
   -1.0500   -0.4760   -1.5471 H   0  0  0  0  0  0  0  0  0  0  0  0
   -0.9762    1.7547   -0.8648 H   0  0  0  0  0  0  0  0  0  0  0  0
   -1.6783    1.4062    0.7134 H   0  0  0  0  0  0  0  0  0  0  0  0
   -1.0245    0.6291   -2.1136 H   0  0  0  0  0  0  0  0  0  0  0  0
   -1.9077    1.3841   -0.8211 H   0  0  0  0  0  0  0  0  0  0  0  0
    1.3261   -0.3608   -1.6260 H   0  0  0  0  0  0  0  0  0  0  0  0
    0.6631   -1.4615   -0.3884 H   0  0  0  0  0  0  0  0  0  0  0  0
    0.6083    2.4607    0.2435 H   0  0  0  0  0  0  0  0  0  0  0  0
   -0.7450   -0.3983    2.7513 H   0  0  0  0  0  0  0  0  0  0  0  0
   -3.4768   -1.4809   -0.0034 H   0  0  0  0  0  0  0  0  0  0  0  0
    4.0990   -0.8482    0.2741 H   0  0  0  0  0  0  0  0  0  0  0  0
    0.0993   -1.0707    1.6005 H   0  0  0  0  0  0  0  0  0  0  0  0
   -0.1002    1.0799   -1.6010 H   0  0  0  0  0  0  0  0  0  0  0  0
   -1.2208   -1.2218   -1.0169 H   0  0  0  0  0  0  0  0  0  0  0  0
   -1.9954   -1.2772    0.5614 H   0  0  0  0  0  0  0  0  0  0  0  0
   -1.3416    1.0460    1.0588 H   0  0  0  0  0  0  0  0  0  0  0  0
   -2.1687    0.9935   -0.4931 H   0  0  0  0  0  0  0  0  0  0  0  0
    1.3428   -1.0491   -1.0580 H   0  0  0  0  0  0  0  0  0  0  0  0
    2.1669   -0.9943    0.4938 H   0  0  0  0  0  0  0  0  0  0  0  0
    1.9964    1.2762   -0.5626 H   0  0  0  0  0  0  0  0  0  0  0  0
    1.2219    1.2189    1.0166 H   0  0  0  0  0  0  0  0  0  0  0  0
   -2.2279    0.6750   -0.7083 H   0  0  0  0  0  0  0  0  0  0  0  0
   -0.9904    0.2721   -1.8891 H   0  0  0  0  0  0  0  0  0  0  0  0
    0.7171   -1.6518    0.3202 H   0  0  0  0  0  0  0  0  0  0  0  0
    1.3085   -0.5824   -0.9860 H   0  0  0  0  0  0  0  0  0  0  0  0
   -0.4369    0.5648    2.1283 H   0  0  0  0  0  0  0  0  0  0  0  0
    0.9362    3.0370   -0.9412 H   0  0  0  0  0  0  0  0  0  0  0  0
   -3.3191   -2.4847   -0.6761 H   0  0  0  0  0  0  0  0  0  0  0  0
    3.8767   -0.3801    1.2676 H   0  0  0  0  0  0  0  0  0  0  0  0
   -0.8673    0.0213   -1.7069 H   0  0  0  0  0  0  0  0  0  0  0  0
    2.1493    0.2448    0.9037 H   0  0  0  0  0  0  0  0  0  0  0  0
   -1.5501    0.9604    0.9938 H   0  0  0  0  0  0  0  0  0  0  0  0
   -1.4362    1.9411   -0.4611 H   0  0  0  0  0  0  0  0  0  0  0  0
    0.9801    1.5365   -0.6543 H   0  0  0  0  0  0  0  0  0  0  0  0
    0.6171    2.1223    0.9674 H   0  0  0  0  0  0  0  0  0  0  0  0
   -0.8130   -2.1667   -0.8287 H   0  0  0  0  0  0  0  0  0  0  0  0
   -1.1739   -1.5325    0.7704 H   0  0  0  0  0  0  0  0  0  0  0  0
    1.2395   -1.9804    0.5998 H   0  0  0  0  0  0  0  0  0  0  0  0
    1.3711   -1.0418   -0.8854 H   0  0  0  0  0  0  0  0  0  0  0  0
  2  6  1  0
  3  1  1  0
  4  3  1  0
  5  1  1  0
  6  5  1  0
  2  4  1  0
  8  7  1  0
  9  7  1  0
 10  7  1  0
 11  9  1  0
 12  8  1  0
 13 10  2  0
 14 12  2  0
 15 11  2  0
 16  7  1  0
 17 10  1  0
 18 12  1  0
 19 11  1  0
 21 25  1  0
 22 20  1  0
 23 22  1  0
 24 20  1  0
 25 24  1  0
 21 23  1  0
 27 26  1  0
 28 26  1  0
 29 26  1  0
 30 28  1  0
 31 27  1  0
 32 29  2  0
 33 31  2  0
 34 30  2  0
 35 26  1  0
 36 29  1  0
 37 31  1  0
 38 30  1  0
 40 44  1  0
 41 39  1  0
 42 41  1  0
 43 39  1  0
 44 43  1  0
 40 42  1  0
  1 45  1  0
  2 46  1  0
  3 47  1  0
  3 48  1  0
  4 49  1  0
  4 50  1  0
  5 51  1  0
  5 52  1  0
  6 53  1  0
  6 54  1  0
  8 55  1  0
  8 56  1  0
  9 57  1  0
  9 58  1  0
 16 59  1  0
 17 60  1  0
 18 61  1  0
 19 62  1  0
 20 63  1  0
 21 64  1  0
 22 65  1  0
 22 66  1  0
 23 67  1  0
 23 68  1  0
 24 69  1  0
 24 70  1  0
 25 71  1  0
 25 72  1  0
 27 73  1  0
 27 74  1  0
 28 75  1  0
 28 76  1  0
 35 77  1  0
 36 78  1  0
 37 79  1  0
 38 80  1  0
 39 81  1  0
 40 82  1  0
 41 83  1  0
 41 84  1  0
 42 85  1  0
 42 86  1  0
 43 87  1  0
 43 88  1  0
 44 89  1  0
 44 90  1  0
M  END
$$$$
