
     RDKit          3D

 92 90  0  0  0  0  0  0  0  0999 V2000
    0.7695    0.4444    1.0032 C   0  0  0  0  0  0  0  0  0  0  0  0
    3.1527    0.6601    0.4179 N   0  0  0  0  0  0  0  0  0  0  0  0
   -0.6465    0.2420    0.5144 C   0  0  0  0  0  0  0  0  0  0  0  0
    1.8363    0.2553   -0.0953 C   0  0  1  0  0  0  0  0  0  0  0  0
   -1.3560   -0.9191    0.8497 C   0  0  0  0  0  0  0  0  0  0  0  0
   -1.2680    1.2100   -0.2867 C   0  0  0  0  0  0  0  0  0  0  0  0
    1.9286   -1.1950   -0.5711 C   0  0  0  0  0  0  0  0  0  0  0  0
   -2.6603   -1.1089    0.3905 C   0  0  0  0  0  0  0  0  0  0  0  0
   -2.5724    1.0184   -0.7446 C   0  0  0  0  0  0  0  0  0  0  0  0
   -3.2679   -0.1408   -0.4065 C   0  0  0  0  0  0  0  0  0  0  0  0
   -0.7372   -0.4444   -0.6035 C   0  0  0  0  0  0  0  0  0  0  0  0
   -1.9764    0.1305    1.4846 N   0  0  0  0  0  0  0  0  0  0  0  0
    0.7140   -0.3966   -0.1817 C   0  0  0  0  0  0  0  0  0  0  0  0
   -1.6293    0.5814    0.1297 C   0  0  2  0  0  0  0  0  0  0  0  0
    1.6544    0.3047   -0.9495 C   0  0  0  0  0  0  0  0  0  0  0  0
    1.1398   -1.0403    0.9874 C   0  0  0  0  0  0  0  0  0  0  0  0
   -2.9212    0.8200   -0.6545 C   0  0  0  0  0  0  0  0  0  0  0  0
    2.4793   -0.9913    1.3768 C   0  0  0  0  0  0  0  0  0  0  0  0
    2.9942    0.3522   -0.5594 C   0  0  0  0  0  0  0  0  0  0  0  0
    3.4065   -0.2966    0.6028 C   0  0  0  0  0  0  0  0  0  0  0  0
    0.6114   -0.5112    0.6831 C   0  0  0  0  0  0  0  0  0  0  0  0
   -1.3707    0.6324   -0.2909 C   0  0  0  0  0  0  0  0  0  0  0  0
    1.5197    0.6716    0.5190 C   0  0  0  0  0  0  0  0  0  0  0  0
   -0.4141   -0.5538   -0.4424 C   0  0  2  0  0  0  0  0  0  0  0  0
   -2.3636    0.6753    0.4199 O   0  0  0  0  0  0  0  0  0  0  0  0
    1.4894    1.6968    1.1776 O   0  0  0  0  0  0  0  0  0  0  0  0
   -1.1963   -1.8130   -0.4049 N   0  0  0  0  0  0  0  0  0  0  0  0
   -0.9889    1.7087   -1.0061 O   0  0  0  0  0  0  0  0  0  0  0  0
    2.4221    0.5057   -0.4642 O   0  0  0  0  0  0  0  0  0  0  0  0
   -0.6213    0.7378    0.4600 C   0  0  0  0  0  0  0  0  0  0  0  0
   -1.9650   -1.3568    0.2760 N   0  0  0  0  0  0  0  0  0  0  0  0
    0.7838    0.2889    0.1277 C   0  0  0  0  0  0  0  0  0  0  0  0
   -1.7163   -0.0324   -0.3104 C   0  0  1  0  0  0  0  0  0  0  0  0
    1.5582    1.0038   -0.7970 C   0  0  0  0  0  0  0  0  0  0  0  0
    1.3296   -0.8532    0.7277 C   0  0  0  0  0  0  0  0  0  0  0  0
   -3.0255    0.7592   -0.3084 C   0  0  0  0  0  0  0  0  0  0  0  0
    2.8548    0.5886   -1.1066 C   0  0  0  0  0  0  0  0  0  0  0  0
    2.6255   -1.2680    0.4165 C   0  0  0  0  0  0  0  0  0  0  0  0
    3.3885   -0.5463   -0.4992 C   0  0  0  0  0  0  0  0  0  0  0  0
   -0.2812   -0.3574    0.0164 S   0  0  0  0  0  0  0  0  0  0  0  0
   -0.9265   -0.6552    1.2696 O   0  0  0  0  0  0  0  0  0  0  0  0
   -0.4741   -1.1241   -1.1880 O   0  0  0  0  0  0  0  0  0  0  0  0
   -0.5940    1.1696   -0.3632 O   0  0  0  0  0  0  0  0  0  0  0  0
    1.2917   -0.2837    0.3227 O   0  0  0  0  0  0  0  0  0  0  0  0
    0.9725   -0.2290    1.8468 H   0  0  0  0  0  0  0  0  0  0  0  0
    0.8346    1.4607    1.4161 H   0  0  0  0  0  0  0  0  0  0  0  0
    3.8505    0.5596   -0.3187 H   0  0  0  0  0  0  0  0  0  0  0  0
    3.1348    1.6502    0.6599 H   0  0  0  0  0  0  0  0  0  0  0  0
    1.6003    0.8908   -0.9573 H   0  0  0  0  0  0  0  0  0  0  0  0
   -0.8952   -1.6853    1.4694 H   0  0  0  0  0  0  0  0  0  0  0  0
   -0.7398    2.1217   -0.5563 H   0  0  0  0  0  0  0  0  0  0  0  0
    2.7206   -1.3131   -1.3194 H   0  0  0  0  0  0  0  0  0  0  0  0
    2.1448   -1.8770    0.2590 H   0  0  0  0  0  0  0  0  0  0  0  0
    0.9936   -1.5177   -1.0402 H   0  0  0  0  0  0  0  0  0  0  0  0
   -3.2022   -2.0130    0.6554 H   0  0  0  0  0  0  0  0  0  0  0  0
   -3.0468    1.7747   -1.3643 H   0  0  0  0  0  0  0  0  0  0  0  0
   -4.2838   -0.2892   -0.7628 H   0  0  0  0  0  0  0  0  0  0  0  0
   -1.1221   -1.4642   -0.4662 H   0  0  0  0  0  0  0  0  0  0  0  0
   -0.7850   -0.2648   -1.6861 H   0  0  0  0  0  0  0  0  0  0  0  0
   -2.5439   -0.7143    1.4340 H   0  0  0  0  0  0  0  0  0  0  0  0
   -2.5542    0.8357    1.9403 H   0  0  0  0  0  0  0  0  0  0  0  0
   -1.0971    1.5367    0.2133 H   0  0  0  0  0  0  0  0  0  0  0  0
    1.3497    0.8193   -1.8575 H   0  0  0  0  0  0  0  0  0  0  0  0
    0.4234   -1.5749    1.6073 H   0  0  0  0  0  0  0  0  0  0  0  0
   -3.4960   -0.1054   -0.7737 H   0  0  0  0  0  0  0  0  0  0  0  0
   -2.6999    1.2104   -1.6538 H   0  0  0  0  0  0  0  0  0  0  0  0
   -3.5594    1.5536   -0.1493 H   0  0  0  0  0  0  0  0  0  0  0  0
    2.7962   -1.4916    2.2878 H   0  0  0  0  0  0  0  0  0  0  0  0
    3.7157    0.8974   -1.1618 H   0  0  0  0  0  0  0  0  0  0  0  0
    4.4486   -0.2577    0.9077 H   0  0  0  0  0  0  0  0  0  0  0  0
    0.1309   -0.4372    1.6666 H   0  0  0  0  0  0  0  0  0  0  0  0
    1.2323   -1.4151    0.7023 H   0  0  0  0  0  0  0  0  0  0  0  0
    0.0633   -0.4946   -1.4269 H   0  0  0  0  0  0  0  0  0  0  0  0
   -0.5762   -2.6091   -0.2699 H   0  0  0  0  0  0  0  0  0  0  0  0
   -1.8247   -1.7861    0.4023 H   0  0  0  0  0  0  0  0  0  0  0  0
   -1.6662    2.3855   -0.7939 H   0  0  0  0  0  0  0  0  0  0  0  0
    2.9318    1.3441   -0.4714 H   0  0  0  0  0  0  0  0  0  0  0  0
   -0.7804    0.6609    1.5443 H   0  0  0  0  0  0  0  0  0  0  0  0
   -0.7001    1.8101    0.2355 H   0  0  0  0  0  0  0  0  0  0  0  0
   -2.6803   -1.8399   -0.2658 H   0  0  0  0  0  0  0  0  0  0  0  0
   -2.3408   -1.2541    1.2175 H   0  0  0  0  0  0  0  0  0  0  0  0
   -1.4018   -0.1733   -1.3516 H   0  0  0  0  0  0  0  0  0  0  0  0
    1.1567    1.8898   -1.2827 H   0  0  0  0  0  0  0  0  0  0  0  0
    0.7395   -1.4325    1.4345 H   0  0  0  0  0  0  0  0  0  0  0  0
   -3.8087    0.2276   -0.8604 H   0  0  0  0  0  0  0  0  0  0  0  0
   -2.8885    1.7336   -0.7898 H   0  0  0  0  0  0  0  0  0  0  0  0
   -3.3877    0.9348    0.7109 H   0  0  0  0  0  0  0  0  0  0  0  0
    3.4476    1.1499   -1.8237 H   0  0  0  0  0  0  0  0  0  0  0  0
    3.0358   -2.1577    0.8861 H   0  0  0  0  0  0  0  0  0  0  0  0
    4.3964   -0.8710   -0.7422 H   0  0  0  0  0  0  0  0  0  0  0  0
   -0.4071    1.2737   -1.3192 H   0  0  0  0  0  0  0  0  0  0  0  0
    1.3912   -0.0229    1.2618 H   0  0  0  0  0  0  0  0  0  0  0  0
  4  2  1  0
  3  1  1  0
  4  1  1  0
  5  3  2  0
  6  3  1  0
  4  7  1  0
  8  5  1  0
  9  6  2  0
 10  8  2  0
  9 10  1  0
 12 14  1  0
 13 11  1  0
 14 11  1  0
 15 13  2  0
 16 13  1  0
 17 14  1  0
 18 16  2  0
 19 15  1  0
 20 18  1  0
 19 20  2  0
 22 24  1  0
 23 21  1  0
 24 21  1  0
 25 22  2  0
 26 23  2  0
 27 24  1  0
 28 22  1  0
 29 23  1  0
 33 31  1  0
 32 30  1  0
 33 30  1  0
 34 32  2  0
 35 32  1  0
 33 36  1  0
 37 34  1  0
 38 35  2  0
 39 37  2  0
 38 39  1  0
 41 40  2  0
 42 40  2  0
 43 40  1  0
 44 40  1  0
  1 45  1  0
  1 46  1  0
  2 47  1  0
  2 48  1  0
  4 49  1  6
  5 50  1  0
  6 51  1  0
  7 52  1  0
  7 53  1  0
  7 54  1  0
  8 55  1  0
  9 56  1  0
 10 57  1  0
 11 58  1  0
 11 59  1  0
 12 60  1  0
 12 61  1  0
 14 62  1  1
 15 63  1  0
 16 64  1  0
 17 65  1  0
 17 66  1  0
 17 67  1  0
 18 68  1  0
 19 69  1  0
 20 70  1  0
 21 71  1  0
 21 72  1  0
 24 73  1  6
 27 74  1  0
 27 75  1  0
 28 76  1  0
 29 77  1  0
 30 78  1  0
 30 79  1  0
 31 80  1  0
 31 81  1  0
 33 82  1  6
 34 83  1  0
 35 84  1  0
 36 85  1  0
 36 86  1  0
 36 87  1  0
 37 88  1  0
 38 89  1  0
 39 90  1  0
 43 91  1  0
 44 92  1  0
M  END
$$$$
