
     RDKit          2D

 44 42  0  0  0  0  0  0  0  0999 V2000
   -3.5651    5.6395    0.0000 C   0  0  0  0  0  0  0  0  0  0  0  0
   -2.8469    4.3827    0.0000 N   0  0  0  0  0  0  0  0  0  0  0  0
   -4.2930    5.2221    0.0000 C   0  0  0  0  0  0  0  0  0  0  0  0
   -2.8372    5.2076    0.0000 C   0  0  0  0  0  0  0  0  0  0  0  0
   -5.0113    5.6395    0.0000 C   0  0  0  0  0  0  0  0  0  0  0  0
   -4.2930    4.3874    0.0000 C   0  0  0  0  0  0  0  0  0  0  0  0
   -2.1190    5.6202    0.0000 C   0  0  0  0  0  0  0  0  0  0  0  0
   -5.7198    5.2076    0.0000 C   0  0  0  0  0  0  0  0  0  0  0  0
   -5.0113    3.9798    0.0000 C   0  0  0  0  0  0  0  0  0  0  0  0
   -5.7198    4.3729    0.0000 C   0  0  0  0  0  0  0  0  0  0  0  0
    3.7542    5.4753    0.0000 C   0  0  0  0  0  0  0  0  0  0  0  0
    5.1784    5.4753    0.0000 N   0  0  0  0  0  0  0  0  0  0  0  0
    3.0421    5.0538    0.0000 C   0  0  0  0  0  0  0  0  0  0  0  0
    4.4663    5.0587    0.0000 C   0  0  0  0  0  0  0  0  0  0  0  0
    3.0421    4.2255    0.0000 C   0  0  0  0  0  0  0  0  0  0  0  0
    2.3300    5.4656    0.0000 C   0  0  0  0  0  0  0  0  0  0  0  0
    4.4712    4.2400    0.0000 C   0  0  0  0  0  0  0  0  0  0  0  0
    1.6179    5.0538    0.0000 C   0  0  0  0  0  0  0  0  0  0  0  0
    2.3300    3.8186    0.0000 C   0  0  0  0  0  0  0  0  0  0  0  0
    1.6179    4.2255    0.0000 C   0  0  0  0  0  0  0  0  0  0  0  0
    3.0760    2.5010    0.0000 C   0  0  0  0  0  0  0  0  0  0  0  0
    4.5003    2.5010    0.0000 C   0  0  0  0  0  0  0  0  0  0  0  0
    2.3639    2.0892    0.0000 C   0  0  0  0  0  0  0  0  0  0  0  0
    3.7882    2.0892    0.0000 C   0  0  0  0  0  0  0  0  0  0  0  0
    4.5003    3.3244    0.0000 O   0  0  0  0  0  0  0  0  0  0  0  0
    2.3639    1.2657    0.0000 O   0  0  0  0  0  0  0  0  0  0  0  0
    3.7882    1.2657    0.0000 N   0  0  0  0  0  0  0  0  0  0  0  0
    5.2124    2.0892    0.0000 O   0  0  0  0  0  0  0  0  0  0  0  0
    1.6518    2.5010    0.0000 O   0  0  0  0  0  0  0  0  0  0  0  0
   -3.6603    2.7165    0.0000 C   0  0  0  0  0  0  0  0  0  0  0  0
   -2.9422    1.4597    0.0000 N   0  0  0  0  0  0  0  0  0  0  0  0
   -4.3882    2.2992    0.0000 C   0  0  0  0  0  0  0  0  0  0  0  0
   -2.9323    2.2846    0.0000 C   0  0  0  0  0  0  0  0  0  0  0  0
   -5.1065    2.7165    0.0000 C   0  0  0  0  0  0  0  0  0  0  0  0
   -4.3882    1.4645    0.0000 C   0  0  0  0  0  0  0  0  0  0  0  0
   -2.2142    2.6972    0.0000 C   0  0  0  0  0  0  0  0  0  0  0  0
   -5.8149    2.2846    0.0000 C   0  0  0  0  0  0  0  0  0  0  0  0
   -5.1065    1.0568    0.0000 C   0  0  0  0  0  0  0  0  0  0  0  0
   -5.8149    1.4499    0.0000 C   0  0  0  0  0  0  0  0  0  0  0  0
   -0.4787    4.7368    0.0000 S   0  0  0  0  0  0  0  0  0  0  0  0
   -0.0710    5.4648    0.0000 O   0  0  0  0  0  0  0  0  0  0  0  0
   -0.9009    5.4648    0.0000 O   0  0  0  0  0  0  0  0  0  0  0  0
   -1.1921    4.3292    0.0000 O   0  0  0  0  0  0  0  0  0  0  0  0
    0.2346    4.3292    0.0000 O   0  0  0  0  0  0  0  0  0  0  0  0
  4  2  1  6
  3  1  1  0
  4  1  1  0
  5  3  1  0
  6  3  2  0
  7  4  1  0
  8  5  2  0
  9  6  1  0
 10  8  1  0
  9 10  2  0
 12 14  1  0
 13 11  1  0
 14 11  1  0
 15 13  1  0
 16 13  2  0
 17 14  1  0
 18 16  1  0
 19 15  2  0
 20 18  2  0
 19 20  1  0
 22 24  1  0
 23 21  1  0
 24 21  1  0
 25 22  2  0
 26 23  2  0
 27 24  1  0
 28 22  1  0
 29 23  1  0
 33 31  1  6
 32 30  1  0
 33 30  1  0
 34 32  1  0
 35 32  2  0
 36 33  1  0
 37 34  2  0
 38 35  1  0
 39 37  1  0
 38 39  2  0
 41 40  2  0
 42 40  2  0
 43 40  1  0
 44 40  1  0
M  END
> <chembl_id>
CHEMBL5095048

> <chembl_pref_name>
AMPHETAMINE ASPARTATE/DEXTROAMPHETAMINE SULFATE
