
     RDKit          3D

 92 90  0  0  0  0  0  0  0  0999 V2000
    0.7751    0.1445    0.7970 C   0  0  0  0  0  0  0  0  0  0  0  0
    1.8606    0.9297   -1.3076 N   0  0  0  0  0  0  0  0  0  0  0  0
   -0.7086    0.1037    0.5056 C   0  0  0  0  0  0  0  0  0  0  0  0
    1.6584   -0.2230   -0.4165 C   0  0  1  0  0  0  0  0  0  0  0  0
   -1.5052   -0.9303    1.0174 C   0  0  0  0  0  0  0  0  0  0  0  0
   -1.3124    1.0949   -0.2784 C   0  0  0  0  0  0  0  0  0  0  0  0
    3.0264   -0.7249    0.0507 C   0  0  0  0  0  0  0  0  0  0  0  0
   -2.8753   -0.9693    0.7510 C   0  0  0  0  0  0  0  0  0  0  0  0
   -2.6818    1.0538   -0.5461 C   0  0  0  0  0  0  0  0  0  0  0  0
   -3.4631    0.0223   -0.0316 C   0  0  0  0  0  0  0  0  0  0  0  0
   -0.5874   -0.8219    0.4447 C   0  0  0  0  0  0  0  0  0  0  0  0
   -2.1944    1.0797    0.2683 N   0  0  0  0  0  0  0  0  0  0  0  0
    0.7844   -0.2028    0.2958 C   0  0  0  0  0  0  0  0  0  0  0  0
   -1.6794   -0.1259   -0.3984 C   0  0  2  0  0  0  0  0  0  0  0  0
    1.0852    1.0256    0.8986 C   0  0  0  0  0  0  0  0  0  0  0  0
    1.7774   -0.8499   -0.4532 C   0  0  0  0  0  0  0  0  0  0  0  0
   -2.8488   -1.0795   -0.6519 C   0  0  0  0  0  0  0  0  0  0  0  0
    3.0447   -0.2801   -0.5921 C   0  0  0  0  0  0  0  0  0  0  0  0
    2.3516    1.5950    0.7568 C   0  0  0  0  0  0  0  0  0  0  0  0
    3.3318    0.9416    0.0128 C   0  0  0  0  0  0  0  0  0  0  0  0
    0.9095   -0.5708    0.2207 C   0  0  0  0  0  0  0  0  0  0  0  0
   -0.9757    1.0939    0.2875 C   0  0  0  0  0  0  0  0  0  0  0  0
    1.6220    0.0020   -0.9721 C   0  0  0  0  0  0  0  0  0  0  0  0
   -0.5984   -0.3797    0.0785 C   0  0  2  0  0  0  0  0  0  0  0  0
   -0.2313    2.0605    0.2720 O   0  0  0  0  0  0  0  0  0  0  0  0
    1.1441    0.2328   -2.0703 O   0  0  0  0  0  0  0  0  0  0  0  0
   -1.3008   -1.2158    1.0858 N   0  0  0  0  0  0  0  0  0  0  0  0
   -2.3073    1.2635    0.4729 O   0  0  0  0  0  0  0  0  0  0  0  0
    2.9327    0.2027   -0.7353 O   0  0  0  0  0  0  0  0  0  0  0  0
   -0.7340   -0.3450   -0.7764 C   0  0  0  0  0  0  0  0  0  0  0  0
   -1.7443    1.7062    0.2289 N   0  0  0  0  0  0  0  0  0  0  0  0
    0.7267   -0.2947   -0.3858 C   0  0  0  0  0  0  0  0  0  0  0  0
   -1.6885    0.2388    0.2900 C   0  0  1  0  0  0  0  0  0  0  0  0
    1.4294    0.9174   -0.3938 C   0  0  0  0  0  0  0  0  0  0  0  0
    1.4023   -1.4649   -0.0108 C   0  0  0  0  0  0  0  0  0  0  0  0
   -3.1041   -0.3101    0.0951 C   0  0  0  0  0  0  0  0  0  0  0  0
    2.7782    0.9596   -0.0362 C   0  0  0  0  0  0  0  0  0  0  0  0
    2.7521   -1.4219    0.3448 C   0  0  0  0  0  0  0  0  0  0  0  0
    3.4397   -0.2099    0.3315 C   0  0  0  0  0  0  0  0  0  0  0  0
    0.0054    0.3736    0.2324 S   0  0  0  0  0  0  0  0  0  0  0  0
   -0.7402    1.4962   -0.2777 O   0  0  0  0  0  0  0  0  0  0  0  0
    0.7039    0.3811    1.4927 O   0  0  0  0  0  0  0  0  0  0  0  0
    1.0713   -0.0783   -0.8782 O   0  0  0  0  0  0  0  0  0  0  0  0
   -1.0031   -0.8741    0.2252 O   0  0  0  0  0  0  0  0  0  0  0  0
    0.9833   -0.5508    1.6215 H   0  0  0  0  0  0  0  0  0  0  0  0
    1.0371    1.1374    1.1864 H   0  0  0  0  0  0  0  0  0  0  0  0
    2.4095    1.6425   -0.8296 H   0  0  0  0  0  0  0  0  0  0  0  0
    2.4129    0.6408   -2.1139 H   0  0  0  0  0  0  0  0  0  0  0  0
    1.1788   -1.0232   -0.9930 H   0  0  0  0  0  0  0  0  0  0  0  0
   -1.0650   -1.7134    1.6300 H   0  0  0  0  0  0  0  0  0  0  0  0
   -0.7128    1.9023   -0.6949 H   0  0  0  0  0  0  0  0  0  0  0  0
    3.6634   -0.9859   -0.8015 H   0  0  0  0  0  0  0  0  0  0  0  0
    3.5496    0.0297    0.6478 H   0  0  0  0  0  0  0  0  0  0  0  0
    2.9172   -1.6238    0.6663 H   0  0  0  0  0  0  0  0  0  0  0  0
   -3.4840   -1.7740    1.1540 H   0  0  0  0  0  0  0  0  0  0  0  0
   -3.1357    1.8267   -1.1606 H   0  0  0  0  0  0  0  0  0  0  0  0
   -4.5284   -0.0099   -0.2419 H   0  0  0  0  0  0  0  0  0  0  0  0
   -0.8619   -0.8340    1.5080 H   0  0  0  0  0  0  0  0  0  0  0  0
   -0.5202   -1.8789    0.1538 H   0  0  0  0  0  0  0  0  0  0  0  0
   -2.8945    1.5221   -0.3258 H   0  0  0  0  0  0  0  0  0  0  0  0
   -2.6747    0.8197    1.1284 H   0  0  0  0  0  0  0  0  0  0  0  0
   -1.2621    0.1715   -1.3679 H   0  0  0  0  0  0  0  0  0  0  0  0
    0.3273    1.5510    1.4757 H   0  0  0  0  0  0  0  0  0  0  0  0
    1.5717   -1.8025   -0.9346 H   0  0  0  0  0  0  0  0  0  0  0  0
   -2.5121   -1.9655   -1.2011 H   0  0  0  0  0  0  0  0  0  0  0  0
   -3.6273   -0.5972   -1.2536 H   0  0  0  0  0  0  0  0  0  0  0  0
   -3.3036   -1.4175    0.2857 H   0  0  0  0  0  0  0  0  0  0  0  0
    3.8066   -0.7887   -1.1755 H   0  0  0  0  0  0  0  0  0  0  0  0
    2.5693    2.5515    1.2240 H   0  0  0  0  0  0  0  0  0  0  0  0
    4.3167    1.3865   -0.0985 H   0  0  0  0  0  0  0  0  0  0  0  0
    1.1659   -1.6359    0.2688 H   0  0  0  0  0  0  0  0  0  0  0  0
    1.2788   -0.0781    1.1281 H   0  0  0  0  0  0  0  0  0  0  0  0
   -0.9487   -0.6656   -0.9203 H   0  0  0  0  0  0  0  0  0  0  0  0
   -1.2805   -2.1887    0.7841 H   0  0  0  0  0  0  0  0  0  0  0  0
   -2.2869   -0.9374    1.0775 H   0  0  0  0  0  0  0  0  0  0  0  0
   -2.3984    2.2320    0.5931 H   0  0  0  0  0  0  0  0  0  0  0  0
    3.2749    0.5844   -1.5710 H   0  0  0  0  0  0  0  0  0  0  0  0
   -1.0026   -1.3926   -0.9682 H   0  0  0  0  0  0  0  0  0  0  0  0
   -0.8654    0.1651   -1.7403 H   0  0  0  0  0  0  0  0  0  0  0  0
   -2.3771    2.0519    0.9496 H   0  0  0  0  0  0  0  0  0  0  0  0
   -2.1402    2.0008   -0.6629 H   0  0  0  0  0  0  0  0  0  0  0  0
   -1.3426   -0.0501    1.2899 H   0  0  0  0  0  0  0  0  0  0  0  0
    0.9240    1.8396   -0.6725 H   0  0  0  0  0  0  0  0  0  0  0  0
    0.8828   -2.4197    0.0069 H   0  0  0  0  0  0  0  0  0  0  0  0
   -3.4987   -0.0629   -0.8969 H   0  0  0  0  0  0  0  0  0  0  0  0
   -3.7912    0.0963    0.8451 H   0  0  0  0  0  0  0  0  0  0  0  0
   -3.1130   -1.4002    0.1990 H   0  0  0  0  0  0  0  0  0  0  0  0
    3.3094    1.9075   -0.0425 H   0  0  0  0  0  0  0  0  0  0  0  0
    3.2672   -2.3348    0.6310 H   0  0  0  0  0  0  0  0  0  0  0  0
    4.4900   -0.1764    0.6083 H   0  0  0  0  0  0  0  0  0  0  0  0
    1.7172   -0.6680   -0.4381 H   0  0  0  0  0  0  0  0  0  0  0  0
   -1.7545   -0.6306   -0.3562 H   0  0  0  0  0  0  0  0  0  0  0  0
  4  2  1  0
  3  1  1  0
  4  1  1  0
  5  3  2  0
  6  3  1  0
  4  7  1  0
  8  5  1  0
  9  6  2  0
 10  8  2  0
  9 10  1  0
 12 14  1  0
 13 11  1  0
 14 11  1  0
 15 13  2  0
 16 13  1  0
 17 14  1  0
 18 16  2  0
 19 15  1  0
 20 18  1  0
 19 20  2  0
 22 24  1  0
 23 21  1  0
 24 21  1  0
 25 22  2  0
 26 23  2  0
 27 24  1  0
 28 22  1  0
 29 23  1  0
 33 31  1  0
 32 30  1  0
 33 30  1  0
 34 32  2  0
 35 32  1  0
 33 36  1  0
 37 34  1  0
 38 35  2  0
 39 37  2  0
 38 39  1  0
 41 40  2  0
 42 40  2  0
 43 40  1  0
 44 40  1  0
  1 45  1  0
  1 46  1  0
  2 47  1  0
  2 48  1  0
  4 49  1  6
  5 50  1  0
  6 51  1  0
  7 52  1  0
  7 53  1  0
  7 54  1  0
  8 55  1  0
  9 56  1  0
 10 57  1  0
 11 58  1  0
 11 59  1  0
 12 60  1  0
 12 61  1  0
 14 62  1  6
 15 63  1  0
 16 64  1  0
 17 65  1  0
 17 66  1  0
 17 67  1  0
 18 68  1  0
 19 69  1  0
 20 70  1  0
 21 71  1  0
 21 72  1  0
 24 73  1  6
 27 74  1  0
 27 75  1  0
 28 76  1  0
 29 77  1  0
 30 78  1  0
 30 79  1  0
 31 80  1  0
 31 81  1  0
 33 82  1  1
 34 83  1  0
 35 84  1  0
 36 85  1  0
 36 86  1  0
 36 87  1  0
 37 88  1  0
 38 89  1  0
 39 90  1  0
 43 91  1  0
 44 92  1  0
M  END
$$$$
