
     RDKit          3D

 92 90  0  0  0  0  0  0  0  0999 V2000
   -0.7677   -0.2007   -0.8391 C   0  0  0  0  0  0  0  0  0  0  0  0
   -1.8984    1.4152    0.6887 N   0  0  0  0  0  0  0  0  0  0  0  0
    0.7140   -0.1073   -0.5503 C   0  0  0  0  0  0  0  0  0  0  0  0
   -1.6655   -0.0084    0.4048 C   0  0  1  0  0  0  0  0  0  0  0  0
    1.5220   -1.2525   -0.6053 C   0  0  0  0  0  0  0  0  0  0  0  0
    1.3052    1.1211   -0.2292 C   0  0  0  0  0  0  0  0  0  0  0  0
   -3.0178   -0.6939    0.1968 C   0  0  0  0  0  0  0  0  0  0  0  0
    2.8923   -1.1677   -0.3478 C   0  0  0  0  0  0  0  0  0  0  0  0
    2.6749    1.2029    0.0291 C   0  0  0  0  0  0  0  0  0  0  0  0
    3.4687    0.0610   -0.0322 C   0  0  0  0  0  0  0  0  0  0  0  0
   -0.6712    0.7156    0.7837 C   0  0  0  0  0  0  0  0  0  0  0  0
   -3.0531    1.1246    0.2418 N   0  0  0  0  0  0  0  0  0  0  0  0
    0.6773    0.2471    0.2904 C   0  0  0  0  0  0  0  0  0  0  0  0
   -1.8152    0.4854   -0.2267 C   0  0  2  0  0  0  0  0  0  0  0  0
    1.2515   -0.9262    0.7962 C   0  0  0  0  0  0  0  0  0  0  0  0
    1.3692    0.9731   -0.6883 C   0  0  0  0  0  0  0  0  0  0  0  0
   -2.1004   -0.9998   -0.4555 C   0  0  0  0  0  0  0  0  0  0  0  0
    2.6096    0.5339   -1.1524 C   0  0  0  0  0  0  0  0  0  0  0  0
    2.4910   -1.3654    0.3307 C   0  0  0  0  0  0  0  0  0  0  0  0
    3.1677   -0.6370   -0.6445 C   0  0  0  0  0  0  0  0  0  0  0  0
    0.4185   -1.0477    0.2941 C   0  0  0  0  0  0  0  0  0  0  0  0
   -0.6331    1.2127    0.0625 C   0  0  0  0  0  0  0  0  0  0  0  0
    1.7743   -0.4616    0.5583 C   0  0  0  0  0  0  0  0  0  0  0  0
   -0.4178   -0.1492   -0.6086 C   0  0  2  0  0  0  0  0  0  0  0  0
    0.1930    2.1046    0.1635 O   0  0  0  0  0  0  0  0  0  0  0  0
    2.2594   -0.2555    1.6574 O   0  0  0  0  0  0  0  0  0  0  0  0
   -1.7197   -0.8088   -0.9061 N   0  0  0  0  0  0  0  0  0  0  0  0
   -1.8657    1.3682    0.5981 O   0  0  0  0  0  0  0  0  0  0  0  0
    2.4708   -0.2070   -0.5631 O   0  0  0  0  0  0  0  0  0  0  0  0
   -0.6164    0.8507   -0.7413 C   0  0  0  0  0  0  0  0  0  0  0  0
   -3.0047    1.2696   -0.2276 N   0  0  0  0  0  0  0  0  0  0  0  0
    0.6964    0.2629   -0.2786 C   0  0  0  0  0  0  0  0  0  0  0  0
   -1.8028    0.5369    0.1976 C   0  0  1  0  0  0  0  0  0  0  0  0
    1.2298   -0.8724   -0.9034 C   0  0  0  0  0  0  0  0  0  0  0  0
    1.3927    0.8367    0.7931 C   0  0  0  0  0  0  0  0  0  0  0  0
   -2.1386   -0.9551    0.2355 C   0  0  0  0  0  0  0  0  0  0  0  0
    2.4340   -1.4235   -0.4623 C   0  0  0  0  0  0  0  0  0  0  0  0
    2.5978    0.2859    1.2314 C   0  0  0  0  0  0  0  0  0  0  0  0
    3.1169   -0.8446    0.6051 C   0  0  0  0  0  0  0  0  0  0  0  0
   -0.0868    0.3702    0.1888 S   0  0  0  0  0  0  0  0  0  0  0  0
   -1.1019    1.2970   -0.2478 O   0  0  0  0  0  0  0  0  0  0  0  0
    0.3957    0.3173    1.5461 O   0  0  0  0  0  0  0  0  0  0  0  0
   -0.6198   -1.0998   -0.1723 O   0  0  0  0  0  0  0  0  0  0  0  0
    1.1932    0.4900   -0.7719 O   0  0  0  0  0  0  0  0  0  0  0  0
   -1.0232    0.5247   -1.6231 H   0  0  0  0  0  0  0  0  0  0  0  0
   -0.9697   -1.1852   -1.2828 H   0  0  0  0  0  0  0  0  0  0  0  0
   -2.4162    1.8374   -0.0801 H   0  0  0  0  0  0  0  0  0  0  0  0
   -2.4914    1.5050    1.5125 H   0  0  0  0  0  0  0  0  0  0  0  0
   -1.1850   -0.4585    1.2832 H   0  0  0  0  0  0  0  0  0  0  0  0
    1.0923   -2.2212   -0.8498 H   0  0  0  0  0  0  0  0  0  0  0  0
    0.6988    2.0228   -0.1703 H   0  0  0  0  0  0  0  0  0  0  0  0
   -3.5505   -0.2787   -0.6657 H   0  0  0  0  0  0  0  0  0  0  0  0
   -2.8861   -1.7700    0.0329 H   0  0  0  0  0  0  0  0  0  0  0  0
   -3.6592   -0.5738    1.0766 H   0  0  0  0  0  0  0  0  0  0  0  0
    3.5083   -2.0615   -0.3961 H   0  0  0  0  0  0  0  0  0  0  0  0
    3.1196    2.1624    0.2782 H   0  0  0  0  0  0  0  0  0  0  0  0
    4.5345    0.1268    0.1677 H   0  0  0  0  0  0  0  0  0  0  0  0
   -0.5886    1.7869    1.0134 H   0  0  0  0  0  0  0  0  0  0  0  0
   -0.9080    0.2299    1.7393 H   0  0  0  0  0  0  0  0  0  0  0  0
   -3.3419    0.7115    1.1271 H   0  0  0  0  0  0  0  0  0  0  0  0
   -2.8823    2.1112    0.4275 H   0  0  0  0  0  0  0  0  0  0  0  0
   -1.5542    0.9385   -1.1896 H   0  0  0  0  0  0  0  0  0  0  0  0
    0.7337   -1.5089    1.5540 H   0  0  0  0  0  0  0  0  0  0  0  0
    0.9444    1.8871   -1.0972 H   0  0  0  0  0  0  0  0  0  0  0  0
   -1.2391   -1.5042   -0.9056 H   0  0  0  0  0  0  0  0  0  0  0  0
   -2.9487   -1.1359   -1.1363 H   0  0  0  0  0  0  0  0  0  0  0  0
   -2.3378   -1.5112    0.4831 H   0  0  0  0  0  0  0  0  0  0  0  0
    3.1380    1.1024   -1.9124 H   0  0  0  0  0  0  0  0  0  0  0  0
    2.9281   -2.2773    0.7292 H   0  0  0  0  0  0  0  0  0  0  0  0
    4.1303   -0.9813   -1.0093 H   0  0  0  0  0  0  0  0  0  0  0  0
   -0.0757   -1.1915    1.2635 H   0  0  0  0  0  0  0  0  0  0  0  0
    0.5625   -2.0388   -0.1521 H   0  0  0  0  0  0  0  0  0  0  0  0
    0.0787    0.0316   -1.5688 H   0  0  0  0  0  0  0  0  0  0  0  0
   -2.2634   -0.8221   -0.0373 H   0  0  0  0  0  0  0  0  0  0  0  0
   -2.2556   -0.1862   -1.5151 H   0  0  0  0  0  0  0  0  0  0  0  0
   -1.8363    2.2629    0.9949 H   0  0  0  0  0  0  0  0  0  0  0  0
    3.3099    0.1884   -0.2412 H   0  0  0  0  0  0  0  0  0  0  0  0
   -0.8393    0.5033   -1.7593 H   0  0  0  0  0  0  0  0  0  0  0  0
   -0.4856    1.9385   -0.8247 H   0  0  0  0  0  0  0  0  0  0  0  0
   -2.7936    2.2648   -0.2943 H   0  0  0  0  0  0  0  0  0  0  0  0
   -3.2760    0.9739   -1.1652 H   0  0  0  0  0  0  0  0  0  0  0  0
   -1.5619    0.8619    1.2165 H   0  0  0  0  0  0  0  0  0  0  0  0
    0.7078   -1.3397   -1.7344 H   0  0  0  0  0  0  0  0  0  0  0  0
    1.0007    1.7184    1.2943 H   0  0  0  0  0  0  0  0  0  0  0  0
   -1.3064   -1.5376    0.6435 H   0  0  0  0  0  0  0  0  0  0  0  0
   -3.0074   -1.1460    0.8747 H   0  0  0  0  0  0  0  0  0  0  0  0
   -2.3662   -1.3404   -0.7636 H   0  0  0  0  0  0  0  0  0  0  0  0
    2.8373   -2.3077   -0.9488 H   0  0  0  0  0  0  0  0  0  0  0  0
    3.1327    0.7388    2.0621 H   0  0  0  0  0  0  0  0  0  0  0  0
    4.0531   -1.2753    0.9496 H   0  0  0  0  0  0  0  0  0  0  0  0
   -1.5812   -1.1217    0.0294 H   0  0  0  0  0  0  0  0  0  0  0  0
    1.8008   -0.2530   -0.5722 H   0  0  0  0  0  0  0  0  0  0  0  0
  4  2  1  0
  3  1  1  0
  4  1  1  0
  5  3  2  0
  6  3  1  0
  4  7  1  0
  8  5  1  0
  9  6  2  0
 10  8  2  0
  9 10  1  0
 12 14  1  0
 13 11  1  0
 14 11  1  0
 15 13  2  0
 16 13  1  0
 17 14  1  0
 18 16  2  0
 19 15  1  0
 20 18  1  0
 19 20  2  0
 22 24  1  0
 23 21  1  0
 24 21  1  0
 25 22  2  0
 26 23  2  0
 27 24  1  0
 28 22  1  0
 29 23  1  0
 33 31  1  0
 32 30  1  0
 33 30  1  0
 34 32  2  0
 35 32  1  0
 33 36  1  0
 37 34  1  0
 38 35  2  0
 39 37  2  0
 38 39  1  0
 41 40  2  0
 42 40  2  0
 43 40  1  0
 44 40  1  0
  1 45  1  0
  1 46  1  0
  2 47  1  0
  2 48  1  0
  4 49  1  1
  5 50  1  0
  6 51  1  0
  7 52  1  0
  7 53  1  0
  7 54  1  0
  8 55  1  0
  9 56  1  0
 10 57  1  0
 11 58  1  0
 11 59  1  0
 12 60  1  0
 12 61  1  0
 14 62  1  6
 15 63  1  0
 16 64  1  0
 17 65  1  0
 17 66  1  0
 17 67  1  0
 18 68  1  0
 19 69  1  0
 20 70  1  0
 21 71  1  0
 21 72  1  0
 24 73  1  6
 27 74  1  0
 27 75  1  0
 28 76  1  0
 29 77  1  0
 30 78  1  0
 30 79  1  0
 31 80  1  0
 31 81  1  0
 33 82  1  1
 34 83  1  0
 35 84  1  0
 36 85  1  0
 36 86  1  0
 36 87  1  0
 37 88  1  0
 38 89  1  0
 39 90  1  0
 43 91  1  0
 44 92  1  0
M  END
$$$$
