
     RDKit          3D

 92 90  0  0  0  0  0  0  0  0999 V2000
    0.6915   -0.3754    1.0957 C   0  0  0  0  0  0  0  0  0  0  0  0
    2.9481    0.5965    1.2654 N   0  0  0  0  0  0  0  0  0  0  0  0
   -0.6817   -0.3033    0.4663 C   0  0  0  0  0  0  0  0  0  0  0  0
    1.7145    0.5931    0.4639 C   0  0  1  0  0  0  0  0  0  0  0  0
   -1.0982   -1.2735   -0.4567 C   0  0  0  0  0  0  0  0  0  0  0  0
   -1.5552    0.7435    0.7917 C   0  0  0  0  0  0  0  0  0  0  0  0
    2.0589    0.2212   -0.9799 C   0  0  0  0  0  0  0  0  0  0  0  0
   -2.3636   -1.1973   -1.0424 C   0  0  0  0  0  0  0  0  0  0  0  0
   -2.8218    0.8171    0.2082 C   0  0  0  0  0  0  0  0  0  0  0  0
   -3.2241   -0.1521   -0.7099 C   0  0  0  0  0  0  0  0  0  0  0  0
    0.6835   -1.0695    0.1583 C   0  0  0  0  0  0  0  0  0  0  0  0
    3.0627   -0.9692   -0.5138 N   0  0  0  0  0  0  0  0  0  0  0  0
   -0.6739   -0.4075    0.1232 C   0  0  0  0  0  0  0  0  0  0  0  0
    1.8234   -0.1871   -0.3958 C   0  0  2  0  0  0  0  0  0  0  0  0
   -1.2691    0.0609    1.3022 C   0  0  0  0  0  0  0  0  0  0  0  0
   -1.3543   -0.2468   -1.0919 C   0  0  0  0  0  0  0  0  0  0  0  0
    2.1049    1.0267    0.4911 C   0  0  0  0  0  0  0  0  0  0  0  0
   -2.6050    0.3706   -1.1282 C   0  0  0  0  0  0  0  0  0  0  0  0
   -2.5207    0.6775    1.2643 C   0  0  0  0  0  0  0  0  0  0  0  0
   -3.1874    0.8317    0.0502 C   0  0  0  0  0  0  0  0  0  0  0  0
    0.8014    0.1197   -0.8001 C   0  0  0  0  0  0  0  0  0  0  0  0
   -1.4186   -0.1208    0.3375 C   0  0  0  0  0  0  0  0  0  0  0  0
    1.4169   -1.1260   -0.2370 C   0  0  0  0  0  0  0  0  0  0  0  0
   -0.1728    0.7591    0.1789 C   0  0  2  0  0  0  0  0  0  0  0  0
   -2.5213    0.0951   -0.1445 O   0  0  0  0  0  0  0  0  0  0  0  0
    1.3691   -2.2366   -0.7377 O   0  0  0  0  0  0  0  0  0  0  0  0
   -0.5779    2.0940   -0.3414 N   0  0  0  0  0  0  0  0  0  0  0  0
   -1.2042   -1.2128    1.0948 O   0  0  0  0  0  0  0  0  0  0  0  0
    2.1032   -0.9132    0.9003 O   0  0  0  0  0  0  0  0  0  0  0  0
   -0.7313   -0.4645   -0.6886 C   0  0  0  0  0  0  0  0  0  0  0  0
   -2.0536    1.2341    0.5768 N   0  0  0  0  0  0  0  0  0  0  0  0
    0.7171   -0.0909   -0.4704 C   0  0  0  0  0  0  0  0  0  0  0  0
   -1.6339   -0.1744    0.5316 C   0  0  1  0  0  0  0  0  0  0  0  0
    1.6752   -1.0853   -0.2270 C   0  0  0  0  0  0  0  0  0  0  0  0
    1.1249    1.2486   -0.4990 C   0  0  0  0  0  0  0  0  0  0  0  0
   -2.8839   -1.0564    0.4903 C   0  0  0  0  0  0  0  0  0  0  0  0
    3.0133   -0.7450   -0.0214 C   0  0  0  0  0  0  0  0  0  0  0  0
    2.4628    1.5867   -0.2909 C   0  0  0  0  0  0  0  0  0  0  0  0
    3.4089    0.5905   -0.0560 C   0  0  0  0  0  0  0  0  0  0  0  0
   -0.0067    0.4042    0.0871 S   0  0  0  0  0  0  0  0  0  0  0  0
    0.5667    1.6186   -0.4349 O   0  0  0  0  0  0  0  0  0  0  0  0
   -0.3380    0.2392    1.4807 O   0  0  0  0  0  0  0  0  0  0  0  0
   -1.3178    0.0218   -0.7587 O   0  0  0  0  0  0  0  0  0  0  0  0
    0.9900   -0.8018   -0.2794 O   0  0  0  0  0  0  0  0  0  0  0  0
    1.0673   -1.4073    1.0454 H   0  0  0  0  0  0  0  0  0  0  0  0
    0.5813   -0.1513    2.1672 H   0  0  0  0  0  0  0  0  0  0  0  0
    3.6303    1.2184    0.8330 H   0  0  0  0  0  0  0  0  0  0  0  0
    3.3691   -0.3311    1.2490 H   0  0  0  0  0  0  0  0  0  0  0  0
    1.3117    1.6126    0.4723 H   0  0  0  0  0  0  0  0  0  0  0  0
   -0.4371   -2.0932   -0.7281 H   0  0  0  0  0  0  0  0  0  0  0  0
   -1.2540    1.5064    1.5074 H   0  0  0  0  0  0  0  0  0  0  0  0
    1.1842    0.3131   -1.6313 H   0  0  0  0  0  0  0  0  0  0  0  0
    2.4307   -0.8074   -1.0520 H   0  0  0  0  0  0  0  0  0  0  0  0
    2.8292    0.8883   -1.3839 H   0  0  0  0  0  0  0  0  0  0  0  0
   -2.6772   -1.9540   -1.7570 H   0  0  0  0  0  0  0  0  0  0  0  0
   -3.4941    1.6302    0.4711 H   0  0  0  0  0  0  0  0  0  0  0  0
   -4.2098   -0.0944   -1.1643 H   0  0  0  0  0  0  0  0  0  0  0  0
    0.6147   -1.9990   -0.4230 H   0  0  0  0  0  0  0  0  0  0  0  0
    0.9175   -1.3865    1.1828 H   0  0  0  0  0  0  0  0  0  0  0  0
    3.3508   -1.3077    0.4045 H   0  0  0  0  0  0  0  0  0  0  0  0
    2.8942   -1.7961   -1.0866 H   0  0  0  0  0  0  0  0  0  0  0  0
    1.5596    0.1723   -1.3967 H   0  0  0  0  0  0  0  0  0  0  0  0
   -0.7604   -0.0467    2.2573 H   0  0  0  0  0  0  0  0  0  0  0  0
   -0.9123   -0.6021   -2.0201 H   0  0  0  0  0  0  0  0  0  0  0  0
    2.3489    0.7317    1.5178 H   0  0  0  0  0  0  0  0  0  0  0  0
    2.9462    1.6114    0.1005 H   0  0  0  0  0  0  0  0  0  0  0  0
    1.2384    1.6944    0.5284 H   0  0  0  0  0  0  0  0  0  0  0  0
   -3.1250    0.4904   -2.0751 H   0  0  0  0  0  0  0  0  0  0  0  0
   -2.9756    1.0382    2.1827 H   0  0  0  0  0  0  0  0  0  0  0  0
   -4.1613    1.3125    0.0224 H   0  0  0  0  0  0  0  0  0  0  0  0
    0.2970   -0.1480   -1.7372 H   0  0  0  0  0  0  0  0  0  0  0  0
    1.6186    0.8031   -1.0587 H   0  0  0  0  0  0  0  0  0  0  0  0
    0.2714    0.9101    1.1688 H   0  0  0  0  0  0  0  0  0  0  0  0
   -1.2284    2.5111    0.3290 H   0  0  0  0  0  0  0  0  0  0  0  0
   -1.1474    1.9501   -1.1826 H   0  0  0  0  0  0  0  0  0  0  0  0
   -2.0633   -1.6869    1.0930 H   0  0  0  0  0  0  0  0  0  0  0  0
    2.4563   -1.7980    1.1368 H   0  0  0  0  0  0  0  0  0  0  0  0
   -0.7756   -1.5345   -0.9321 H   0  0  0  0  0  0  0  0  0  0  0  0
   -1.1057    0.0502   -1.5833 H   0  0  0  0  0  0  0  0  0  0  0  0
   -2.6325    1.3886    1.4013 H   0  0  0  0  0  0  0  0  0  0  0  0
   -2.6410    1.4452   -0.2281 H   0  0  0  0  0  0  0  0  0  0  0  0
   -1.0850   -0.3968    1.4551 H   0  0  0  0  0  0  0  0  0  0  0  0
    1.3862   -2.1332   -0.1968 H   0  0  0  0  0  0  0  0  0  0  0  0
    0.3969    2.0370   -0.6769 H   0  0  0  0  0  0  0  0  0  0  0  0
   -3.5342   -0.8583    1.3499 H   0  0  0  0  0  0  0  0  0  0  0  0
   -3.4622   -0.8882   -0.4249 H   0  0  0  0  0  0  0  0  0  0  0  0
   -2.6080   -2.1160    0.5239 H   0  0  0  0  0  0  0  0  0  0  0  0
    3.7468   -1.5227    0.1693 H   0  0  0  0  0  0  0  0  0  0  0  0
    2.7648    2.6303   -0.3088 H   0  0  0  0  0  0  0  0  0  0  0  0
    4.4502    0.8551    0.1062 H   0  0  0  0  0  0  0  0  0  0  0  0
   -1.6989   -0.7894   -0.3560 H   0  0  0  0  0  0  0  0  0  0  0  0
    1.8047   -0.6926    0.2612 H   0  0  0  0  0  0  0  0  0  0  0  0
  4  2  1  0
  3  1  1  0
  4  1  1  0
  5  3  2  0
  6  3  1  0
  4  7  1  0
  8  5  1  0
  9  6  2  0
 10  8  2  0
  9 10  1  0
 12 14  1  0
 13 11  1  0
 14 11  1  0
 15 13  2  0
 16 13  1  0
 17 14  1  0
 18 16  2  0
 19 15  1  0
 20 18  1  0
 19 20  2  0
 22 24  1  0
 23 21  1  0
 24 21  1  0
 25 22  2  0
 26 23  2  0
 27 24  1  0
 28 22  1  0
 29 23  1  0
 33 31  1  0
 32 30  1  0
 33 30  1  0
 34 32  2  0
 35 32  1  0
 33 36  1  0
 37 34  1  0
 38 35  2  0
 39 37  2  0
 38 39  1  0
 41 40  2  0
 42 40  2  0
 43 40  1  0
 44 40  1  0
  1 45  1  0
  1 46  1  0
  2 47  1  0
  2 48  1  0
  4 49  1  6
  5 50  1  0
  6 51  1  0
  7 52  1  0
  7 53  1  0
  7 54  1  0
  8 55  1  0
  9 56  1  0
 10 57  1  0
 11 58  1  0
 11 59  1  0
 12 60  1  0
 12 61  1  0
 14 62  1  6
 15 63  1  0
 16 64  1  0
 17 65  1  0
 17 66  1  0
 17 67  1  0
 18 68  1  0
 19 69  1  0
 20 70  1  0
 21 71  1  0
 21 72  1  0
 24 73  1  1
 27 74  1  0
 27 75  1  0
 28 76  1  0
 29 77  1  0
 30 78  1  0
 30 79  1  0
 31 80  1  0
 31 81  1  0
 33 82  1  1
 34 83  1  0
 35 84  1  0
 36 85  1  0
 36 86  1  0
 36 87  1  0
 37 88  1  0
 38 89  1  0
 39 90  1  0
 43 91  1  0
 44 92  1  0
M  END
$$$$
