
     RDKit          3D

 92 90  0  0  0  0  0  0  0  0999 V2000
   -0.6958    0.9426   -0.8113 C   0  0  0  0  0  0  0  0  0  0  0  0
   -2.4258   -0.8819   -0.7104 N   0  0  0  0  0  0  0  0  0  0  0  0
    0.6204    0.3124   -0.4073 C   0  0  0  0  0  0  0  0  0  0  0  0
   -1.9939    0.4065   -0.1562 C   0  0  1  0  0  0  0  0  0  0  0  0
    0.8323   -1.0690   -0.4945 C   0  0  0  0  0  0  0  0  0  0  0  0
    1.6823    1.1244    0.0193 C   0  0  0  0  0  0  0  0  0  0  0  0
   -1.9057    0.3169    1.3665 C   0  0  0  0  0  0  0  0  0  0  0  0
    2.0633   -1.6273   -0.1411 C   0  0  0  0  0  0  0  0  0  0  0  0
    2.9149    0.5667    0.3691 C   0  0  0  0  0  0  0  0  0  0  0  0
    3.1042   -0.8103    0.2902 C   0  0  0  0  0  0  0  0  0  0  0  0
   -0.6858    0.6568   -0.7468 C   0  0  0  0  0  0  0  0  0  0  0  0
   -3.0914    0.1005   -0.9356 N   0  0  0  0  0  0  0  0  0  0  0  0
    0.6734    0.2430   -0.2323 C   0  0  0  0  0  0  0  0  0  0  0  0
   -1.8400   -0.2368   -0.2423 C   0  0  2  0  0  0  0  0  0  0  0  0
    1.2965    0.9607    0.7980 C   0  0  0  0  0  0  0  0  0  0  0  0
    1.3259   -0.8745   -0.7706 C   0  0  0  0  0  0  0  0  0  0  0  0
   -2.0731   -0.0906    1.2625 C   0  0  0  0  0  0  0  0  0  0  0  0
    2.5767   -1.2642   -0.2878 C   0  0  0  0  0  0  0  0  0  0  0  0
    2.5461    0.5665    1.2806 C   0  0  0  0  0  0  0  0  0  0  0  0
    3.1862   -0.5458    0.7388 C   0  0  0  0  0  0  0  0  0  0  0  0
    0.8248    0.2878   -0.6488 C   0  0  0  0  0  0  0  0  0  0  0  0
   -1.4944   -0.2263    0.2812 C   0  0  0  0  0  0  0  0  0  0  0  0
    1.6178   -0.8273   -0.0275 C   0  0  0  0  0  0  0  0  0  0  0  0
   -0.2964    0.7379    0.2861 C   0  0  2  0  0  0  0  0  0  0  0  0
   -2.6545    0.0832    0.5113 O   0  0  0  0  0  0  0  0  0  0  0  0
    1.7120   -1.0946    1.1586 O   0  0  0  0  0  0  0  0  0  0  0  0
   -0.7683    2.0861   -0.1313 N   0  0  0  0  0  0  0  0  0  0  0  0
   -1.1855   -1.5077    0.0209 O   0  0  0  0  0  0  0  0  0  0  0  0
    2.2912   -1.5448   -0.9491 O   0  0  0  0  0  0  0  0  0  0  0  0
   -0.8055    0.2392   -1.0808 C   0  0  0  0  0  0  0  0  0  0  0  0
   -3.1642    0.7085   -0.4875 N   0  0  0  0  0  0  0  0  0  0  0  0
    0.6203    0.1181   -0.5976 C   0  0  0  0  0  0  0  0  0  0  0  0
   -1.8345    0.4006    0.0591 C   0  0  1  0  0  0  0  0  0  0  0  0
    1.2703   -1.1235   -0.5984 C   0  0  0  0  0  0  0  0  0  0  0  0
    1.3094    1.2452   -0.1293 C   0  0  0  0  0  0  0  0  0  0  0  0
   -1.9525   -0.8589    0.9186 C   0  0  0  0  0  0  0  0  0  0  0  0
    2.5828   -1.2358   -0.1359 C   0  0  0  0  0  0  0  0  0  0  0  0
    2.6222    1.1312    0.3311 C   0  0  0  0  0  0  0  0  0  0  0  0
    3.2587   -0.1089    0.3286 C   0  0  0  0  0  0  0  0  0  0  0  0
    0.3514   -0.0001    0.2519 S   0  0  0  0  0  0  0  0  0  0  0  0
    0.2024    0.5327    1.5827 O   0  0  0  0  0  0  0  0  0  0  0  0
    1.5130   -0.7302   -0.1890 O   0  0  0  0  0  0  0  0  0  0  0  0
    0.0796    1.2092   -0.7670 O   0  0  0  0  0  0  0  0  0  0  0  0
   -0.9082   -0.9485   -0.0414 O   0  0  0  0  0  0  0  0  0  0  0  0
   -0.7803    0.8787   -1.9048 H   0  0  0  0  0  0  0  0  0  0  0  0
   -0.6479    2.0181   -0.5893 H   0  0  0  0  0  0  0  0  0  0  0  0
   -3.3223   -1.1452   -0.3029 H   0  0  0  0  0  0  0  0  0  0  0  0
   -2.5798   -0.7852   -1.7132 H   0  0  0  0  0  0  0  0  0  0  0  0
   -2.7875    1.1247   -0.4000 H   0  0  0  0  0  0  0  0  0  0  0  0
    0.0383   -1.7289   -0.8337 H   0  0  0  0  0  0  0  0  0  0  0  0
    1.5586    2.2030    0.0818 H   0  0  0  0  0  0  0  0  0  0  0  0
   -1.5977    1.2775    1.7931 H   0  0  0  0  0  0  0  0  0  0  0  0
   -1.1916   -0.4452    1.6968 H   0  0  0  0  0  0  0  0  0  0  0  0
   -2.8812    0.0620    1.7963 H   0  0  0  0  0  0  0  0  0  0  0  0
    2.2050   -2.7025   -0.2049 H   0  0  0  0  0  0  0  0  0  0  0  0
    3.7277    1.2078    0.6957 H   0  0  0  0  0  0  0  0  0  0  0  0
    4.0624   -1.2458    0.5610 H   0  0  0  0  0  0  0  0  0  0  0  0
   -0.6497    0.6306   -1.8455 H   0  0  0  0  0  0  0  0  0  0  0  0
   -0.8795    1.7062   -0.4846 H   0  0  0  0  0  0  0  0  0  0  0  0
   -2.9593    0.0177   -1.9427 H   0  0  0  0  0  0  0  0  0  0  0  0
   -3.3355    1.0742   -0.7584 H   0  0  0  0  0  0  0  0  0  0  0  0
   -1.6167   -1.2887   -0.4566 H   0  0  0  0  0  0  0  0  0  0  0  0
    0.8102    1.8292    1.2361 H   0  0  0  0  0  0  0  0  0  0  0  0
    0.8646   -1.4483   -1.5720 H   0  0  0  0  0  0  0  0  0  0  0  0
   -2.2725    0.9506    1.5428 H   0  0  0  0  0  0  0  0  0  0  0  0
   -1.2034   -0.4353    1.8320 H   0  0  0  0  0  0  0  0  0  0  0  0
   -2.9278   -0.6959    1.5866 H   0  0  0  0  0  0  0  0  0  0  0  0
    3.0762   -2.1311   -0.7122 H   0  0  0  0  0  0  0  0  0  0  0  0
    3.0206    1.1274    2.0814 H   0  0  0  0  0  0  0  0  0  0  0  0
    4.1583   -0.8521    1.1163 H   0  0  0  0  0  0  0  0  0  0  0  0
    1.5273    1.1068   -0.8446 H   0  0  0  0  0  0  0  0  0  0  0  0
    0.4147   -0.0526   -1.6065 H   0  0  0  0  0  0  0  0  0  0  0  0
    0.0555    0.8122    1.3198 H   0  0  0  0  0  0  0  0  0  0  0  0
   -1.1959    2.0187   -1.0566 H   0  0  0  0  0  0  0  0  0  0  0  0
   -1.5429    2.3469    0.4872 H   0  0  0  0  0  0  0  0  0  0  0  0
   -2.0411   -1.9807    0.1040 H   0  0  0  0  0  0  0  0  0  0  0  0
    2.7356   -2.2456   -0.4284 H   0  0  0  0  0  0  0  0  0  0  0  0
   -1.0639   -0.6292   -1.7022 H   0  0  0  0  0  0  0  0  0  0  0  0
   -0.8555    1.1077   -1.7526 H   0  0  0  0  0  0  0  0  0  0  0  0
   -3.4675   -0.0454   -1.1007 H   0  0  0  0  0  0  0  0  0  0  0  0
   -3.1115    1.5428   -1.0695 H   0  0  0  0  0  0  0  0  0  0  0  0
   -1.5418    1.2350    0.7068 H   0  0  0  0  0  0  0  0  0  0  0  0
    0.7554   -2.0128   -0.9546 H   0  0  0  0  0  0  0  0  0  0  0  0
    0.8252    2.2194   -0.1187 H   0  0  0  0  0  0  0  0  0  0  0  0
   -2.2172   -1.7361    0.3167 H   0  0  0  0  0  0  0  0  0  0  0  0
   -1.0123   -1.0744    1.4373 H   0  0  0  0  0  0  0  0  0  0  0  0
   -2.7239   -0.7341    1.6874 H   0  0  0  0  0  0  0  0  0  0  0  0
    3.0776   -2.2035   -0.1374 H   0  0  0  0  0  0  0  0  0  0  0  0
    3.1481    2.0106    0.6938 H   0  0  0  0  0  0  0  0  0  0  0  0
    4.2802   -0.1955    0.6897 H   0  0  0  0  0  0  0  0  0  0  0  0
   -0.6801    1.7201   -0.4196 H   0  0  0  0  0  0  0  0  0  0  0  0
   -0.5581   -1.7831   -0.4176 H   0  0  0  0  0  0  0  0  0  0  0  0
  4  2  1  0
  3  1  1  0
  4  1  1  0
  5  3  2  0
  6  3  1  0
  4  7  1  0
  8  5  1  0
  9  6  2  0
 10  8  2  0
  9 10  1  0
 12 14  1  0
 13 11  1  0
 14 11  1  0
 15 13  2  0
 16 13  1  0
 17 14  1  0
 18 16  2  0
 19 15  1  0
 20 18  1  0
 19 20  2  0
 22 24  1  0
 23 21  1  0
 24 21  1  0
 25 22  2  0
 26 23  2  0
 27 24  1  0
 28 22  1  0
 29 23  1  0
 33 31  1  0
 32 30  1  0
 33 30  1  0
 34 32  2  0
 35 32  1  0
 33 36  1  0
 37 34  1  0
 38 35  2  0
 39 37  2  0
 38 39  1  0
 41 40  2  0
 42 40  2  0
 43 40  1  0
 44 40  1  0
  1 45  1  0
  1 46  1  0
  2 47  1  0
  2 48  1  0
  4 49  1  1
  5 50  1  0
  6 51  1  0
  7 52  1  0
  7 53  1  0
  7 54  1  0
  8 55  1  0
  9 56  1  0
 10 57  1  0
 11 58  1  0
 11 59  1  0
 12 60  1  0
 12 61  1  0
 14 62  1  1
 15 63  1  0
 16 64  1  0
 17 65  1  0
 17 66  1  0
 17 67  1  0
 18 68  1  0
 19 69  1  0
 20 70  1  0
 21 71  1  0
 21 72  1  0
 24 73  1  1
 27 74  1  0
 27 75  1  0
 28 76  1  0
 29 77  1  0
 30 78  1  0
 30 79  1  0
 31 80  1  0
 31 81  1  0
 33 82  1  1
 34 83  1  0
 35 84  1  0
 36 85  1  0
 36 86  1  0
 36 87  1  0
 37 88  1  0
 38 89  1  0
 39 90  1  0
 43 91  1  0
 44 92  1  0
M  END
$$$$
