
     RDKit          3D

 92 90  0  0  0  0  0  0  0  0999 V2000
    0.7307   -0.3510   -0.8893 C   0  0  0  0  0  0  0  0  0  0  0  0
    1.6467   -0.9159    1.3594 N   0  0  0  0  0  0  0  0  0  0  0  0
   -0.6891   -0.0279   -0.4813 C   0  0  0  0  0  0  0  0  0  0  0  0
    1.7716   -0.0210    0.2014 C   0  0  1  0  0  0  0  0  0  0  0  0
   -1.1667    1.2879   -0.5510 C   0  0  0  0  0  0  0  0  0  0  0  0
   -1.5406   -1.0369   -0.0107 C   0  0  0  0  0  0  0  0  0  0  0  0
    3.1872   -0.1466   -0.3587 C   0  0  0  0  0  0  0  0  0  0  0  0
   -2.4721    1.5869   -0.1566 C   0  0  0  0  0  0  0  0  0  0  0  0
   -2.8452   -0.7352    0.3837 C   0  0  0  0  0  0  0  0  0  0  0  0
   -3.3108    0.5763    0.3113 C   0  0  0  0  0  0  0  0  0  0  0  0
   -0.7904   -0.9919   -0.1693 C   0  0  0  0  0  0  0  0  0  0  0  0
   -3.1884   -0.6491    0.3501 N   0  0  0  0  0  0  0  0  0  0  0  0
    0.6252   -0.4799   -0.0419 C   0  0  0  0  0  0  0  0  0  0  0  0
   -1.8605   -0.0178    0.3699 C   0  0  2  0  0  0  0  0  0  0  0  0
    1.3529   -0.1086   -1.1813 C   0  0  0  0  0  0  0  0  0  0  0  0
    1.2310   -0.3661    1.2173 C   0  0  0  0  0  0  0  0  0  0  0  0
   -1.9328    1.2741   -0.4448 C   0  0  0  0  0  0  0  0  0  0  0  0
    2.5367    0.1134    1.3345 C   0  0  0  0  0  0  0  0  0  0  0  0
    2.6588    0.3699   -1.0625 C   0  0  0  0  0  0  0  0  0  0  0  0
    3.2497    0.4811    0.1949 C   0  0  0  0  0  0  0  0  0  0  0  0
    0.4057   -0.7972    0.6075 C   0  0  0  0  0  0  0  0  0  0  0  0
   -1.3347    0.8073   -0.2377 C   0  0  0  0  0  0  0  0  0  0  0  0
    1.8001   -0.2756    0.8000 C   0  0  0  0  0  0  0  0  0  0  0  0
   -0.2464   -0.1986   -0.6380 C   0  0  2  0  0  0  0  0  0  0  0  0
   -2.5404    0.6528   -0.3813 O   0  0  0  0  0  0  0  0  0  0  0  0
    2.8140   -0.9510    0.8703 O   0  0  0  0  0  0  0  0  0  0  0  0
   -0.8790   -1.2802   -1.4443 N   0  0  0  0  0  0  0  0  0  0  0  0
   -0.8587    1.9450    0.2974 O   0  0  0  0  0  0  0  0  0  0  0  0
    1.8642    1.0576    0.9521 O   0  0  0  0  0  0  0  0  0  0  0  0
   -0.7496    0.3354    0.5896 C   0  0  0  0  0  0  0  0  0  0  0  0
   -1.8414   -1.4941   -0.7107 N   0  0  0  0  0  0  0  0  0  0  0  0
    0.7232    0.1911    0.2763 C   0  0  0  0  0  0  0  0  0  0  0  0
   -1.6781   -0.0383   -0.5874 C   0  0  1  0  0  0  0  0  0  0  0  0
    1.3295   -1.0720    0.2566 C   0  0  0  0  0  0  0  0  0  0  0  0
    1.5051    1.3215    0.0008 C   0  0  0  0  0  0  0  0  0  0  0  0
   -3.0580    0.5962   -0.3997 C   0  0  0  0  0  0  0  0  0  0  0  0
    2.6893   -1.2023   -0.0285 C   0  0  0  0  0  0  0  0  0  0  0  0
    2.8663    1.1905   -0.2816 C   0  0  0  0  0  0  0  0  0  0  0  0
    3.4582   -0.0711   -0.2951 C   0  0  0  0  0  0  0  0  0  0  0  0
   -0.0290    0.4555    0.0357 S   0  0  0  0  0  0  0  0  0  0  0  0
   -0.5317    1.1959   -1.0931 O   0  0  0  0  0  0  0  0  0  0  0  0
    0.4040    1.0651    1.2667 O   0  0  0  0  0  0  0  0  0  0  0  0
   -1.1353   -0.6535    0.3810 O   0  0  0  0  0  0  0  0  0  0  0  0
    1.1852   -0.4655   -0.4646 O   0  0  0  0  0  0  0  0  0  0  0  0
    0.9589    0.2166   -1.8014 H   0  0  0  0  0  0  0  0  0  0  0  0
    0.8025   -1.4076   -1.1812 H   0  0  0  0  0  0  0  0  0  0  0  0
    2.2985   -0.6247    2.0876 H   0  0  0  0  0  0  0  0  0  0  0  0
    0.7120   -0.8065    1.7571 H   0  0  0  0  0  0  0  0  0  0  0  0
    1.6281    1.0103    0.5467 H   0  0  0  0  0  0  0  0  0  0  0  0
   -0.5247    2.0881   -0.9133 H   0  0  0  0  0  0  0  0  0  0  0  0
   -1.1879   -2.0650    0.0549 H   0  0  0  0  0  0  0  0  0  0  0  0
    3.3906   -1.1635   -0.7143 H   0  0  0  0  0  0  0  0  0  0  0  0
    3.9369    0.1010    0.4015 H   0  0  0  0  0  0  0  0  0  0  0  0
    3.3321    0.5399   -1.2008 H   0  0  0  0  0  0  0  0  0  0  0  0
   -2.8356    2.6095   -0.2140 H   0  0  0  0  0  0  0  0  0  0  0  0
   -3.4969   -1.5248    0.7499 H   0  0  0  0  0  0  0  0  0  0  0  0
   -4.3262    0.8102    0.6190 H   0  0  0  0  0  0  0  0  0  0  0  0
   -1.0051   -1.2395   -1.2174 H   0  0  0  0  0  0  0  0  0  0  0  0
   -0.8477   -1.9438    0.3756 H   0  0  0  0  0  0  0  0  0  0  0  0
   -3.1504   -1.5457    0.8324 H   0  0  0  0  0  0  0  0  0  0  0  0
   -3.4599   -0.8526   -0.6106 H   0  0  0  0  0  0  0  0  0  0  0  0
   -1.6346    0.2437    1.4103 H   0  0  0  0  0  0  0  0  0  0  0  0
    0.9065   -0.1863   -2.1699 H   0  0  0  0  0  0  0  0  0  0  0  0
    0.6887   -0.6503    2.1162 H   0  0  0  0  0  0  0  0  0  0  0  0
   -2.7334    1.9249   -0.0761 H   0  0  0  0  0  0  0  0  0  0  0  0
   -0.9984    1.8402   -0.3725 H   0  0  0  0  0  0  0  0  0  0  0  0
   -2.1249    1.0716   -1.5042 H   0  0  0  0  0  0  0  0  0  0  0  0
    2.9966    0.2013    2.3151 H   0  0  0  0  0  0  0  0  0  0  0  0
    3.2146    0.6567   -1.9519 H   0  0  0  0  0  0  0  0  0  0  0  0
    4.2658    0.8546    0.2861 H   0  0  0  0  0  0  0  0  0  0  0  0
    0.5028   -1.8873    0.5144 H   0  0  0  0  0  0  0  0  0  0  0  0
   -0.1666   -0.6084    1.5240 H   0  0  0  0  0  0  0  0  0  0  0  0
    0.4699    0.3159   -1.2890 H   0  0  0  0  0  0  0  0  0  0  0  0
   -1.6648   -1.6573   -0.9075 H   0  0  0  0  0  0  0  0  0  0  0  0
   -1.3264   -0.8495   -2.2566 H   0  0  0  0  0  0  0  0  0  0  0  0
   -1.6546    2.4850    0.4853 H   0  0  0  0  0  0  0  0  0  0  0  0
    2.8152    1.2416    1.1034 H   0  0  0  0  0  0  0  0  0  0  0  0
   -0.9890   -0.2612    1.4804 H   0  0  0  0  0  0  0  0  0  0  0  0
   -0.9363    1.3765    0.8855 H   0  0  0  0  0  0  0  0  0  0  0  0
   -2.4600   -1.7017   -1.4933 H   0  0  0  0  0  0  0  0  0  0  0  0
   -2.2982   -1.8623    0.1226 H   0  0  0  0  0  0  0  0  0  0  0  0
   -1.2522    0.3382   -1.5250 H   0  0  0  0  0  0  0  0  0  0  0  0
    0.7391   -1.9631    0.4566 H   0  0  0  0  0  0  0  0  0  0  0  0
    1.0603    2.3132    0.0042 H   0  0  0  0  0  0  0  0  0  0  0  0
   -3.7234    0.3471   -1.2338 H   0  0  0  0  0  0  0  0  0  0  0  0
   -3.5335    0.2571    0.5277 H   0  0  0  0  0  0  0  0  0  0  0  0
   -2.9791    1.6885   -0.3581 H   0  0  0  0  0  0  0  0  0  0  0  0
    3.1463   -2.1884   -0.0460 H   0  0  0  0  0  0  0  0  0  0  0  0
    3.4641    2.0727   -0.4918 H   0  0  0  0  0  0  0  0  0  0  0  0
    4.5172   -0.1736   -0.5164 H   0  0  0  0  0  0  0  0  0  0  0  0
   -1.5936   -0.8774   -0.4546 H   0  0  0  0  0  0  0  0  0  0  0  0
    1.7004   -0.7202    0.3290 H   0  0  0  0  0  0  0  0  0  0  0  0
  4  2  1  0
  3  1  1  0
  4  1  1  0
  5  3  2  0
  6  3  1  0
  4  7  1  0
  8  5  1  0
  9  6  2  0
 10  8  2  0
  9 10  1  0
 12 14  1  0
 13 11  1  0
 14 11  1  0
 15 13  2  0
 16 13  1  0
 17 14  1  0
 18 16  2  0
 19 15  1  0
 20 18  1  0
 19 20  2  0
 22 24  1  0
 23 21  1  0
 24 21  1  0
 25 22  2  0
 26 23  2  0
 27 24  1  0
 28 22  1  0
 29 23  1  0
 33 31  1  0
 32 30  1  0
 33 30  1  0
 34 32  2  0
 35 32  1  0
 33 36  1  0
 37 34  1  0
 38 35  2  0
 39 37  2  0
 38 39  1  0
 41 40  2  0
 42 40  2  0
 43 40  1  0
 44 40  1  0
  1 45  1  0
  1 46  1  0
  2 47  1  0
  2 48  1  0
  4 49  1  1
  5 50  1  0
  6 51  1  0
  7 52  1  0
  7 53  1  0
  7 54  1  0
  8 55  1  0
  9 56  1  0
 10 57  1  0
 11 58  1  0
 11 59  1  0
 12 60  1  0
 12 61  1  0
 14 62  1  1
 15 63  1  0
 16 64  1  0
 17 65  1  0
 17 66  1  0
 17 67  1  0
 18 68  1  0
 19 69  1  0
 20 70  1  0
 21 71  1  0
 21 72  1  0
 24 73  1  6
 27 74  1  0
 27 75  1  0
 28 76  1  0
 29 77  1  0
 30 78  1  0
 30 79  1  0
 31 80  1  0
 31 81  1  0
 33 82  1  6
 34 83  1  0
 35 84  1  0
 36 85  1  0
 36 86  1  0
 36 87  1  0
 37 88  1  0
 38 89  1  0
 39 90  1  0
 43 91  1  0
 44 92  1  0
M  END
$$$$
