
     RDKit          3D

 42 44  0  0  0  0  0  0  0  0999 V2000
   44.4785    3.0975    8.6517 C   0  0  1  0  0  0  0  0  0  0  0  0
   44.3423    2.5121   10.0383 C   0  0  0  0  0  0  0  0  0  0  0  0
   44.4658    3.9939    9.8713 C   0  0  2  0  0  0  0  0  0  0  0  0
   45.7559    2.9067    7.8684 C   0  0  0  0  0  0  0  0  0  0  0  0
   43.2948    4.8305   10.1322 N   0  0  0  0  0  0  0  0  0  0  0  0
   46.4322    3.9995    7.3006 C   0  0  0  0  0  0  0  0  0  0  0  0
   46.2962    1.6289    7.6481 C   0  0  0  0  0  0  0  0  0  0  0  0
   47.4710    1.4500    6.9128 C   0  0  0  0  0  0  0  0  0  0  0  0
   47.6070    3.8282    6.5632 C   0  0  0  0  0  0  0  0  0  0  0  0
   48.1281    2.5518    6.3725 C   0  0  0  0  0  0  0  0  0  0  0  0
   45.6557    3.5061    9.5422 C   0  0  2  0  0  0  0  0  0  0  0  0
   44.4110    3.0235   10.2509 C   0  0  0  0  0  0  0  0  0  0  0  0
   44.3800    4.3205    9.5053 C   0  0  1  0  0  0  0  0  0  0  0  0
   46.1391    2.8061    8.2940 C   0  0  0  0  0  0  0  0  0  0  0  0
   44.3055    5.5673   10.2666 N   0  0  0  0  0  0  0  0  0  0  0  0
   46.3709    1.4206    8.2744 C   0  0  0  0  0  0  0  0  0  0  0  0
   46.4055    3.5214    7.1144 C   0  0  0  0  0  0  0  0  0  0  0  0
   46.8639    2.8808    5.9600 C   0  0  0  0  0  0  0  0  0  0  0  0
   46.8289    0.7733    7.1236 C   0  0  0  0  0  0  0  0  0  0  0  0
   47.0733    1.5047    5.9650 C   0  0  0  0  0  0  0  0  0  0  0  0
   43.5717    3.0929    8.0492 H   0  0  0  0  0  0  0  0  0  0  0  0
   43.3783    2.0995   10.3128 H   0  0  0  0  0  0  0  0  0  0  0  0
   45.1844    1.9865   10.4730 H   0  0  0  0  0  0  0  0  0  0  0  0
   45.4133    4.4325   10.1793 H   0  0  0  0  0  0  0  0  0  0  0  0
   43.2242    5.0473   11.1261 H   0  0  0  0  0  0  0  0  0  0  0  0
   43.3802    5.7265    9.6530 H   0  0  0  0  0  0  0  0  0  0  0  0
   46.0334    5.0032    7.4332 H   0  0  0  0  0  0  0  0  0  0  0  0
   45.7901    0.7565    8.0559 H   0  0  0  0  0  0  0  0  0  0  0  0
   47.8689    0.4501    6.7614 H   0  0  0  0  0  0  0  0  0  0  0  0
   48.1106    4.6916    6.1368 H   0  0  0  0  0  0  0  0  0  0  0  0
   49.0406    2.4153    5.7988 H   0  0  0  0  0  0  0  0  0  0  0  0
   46.4476    3.8818   10.1880 H   0  0  0  0  0  0  0  0  0  0  0  0
   44.4118    3.0496   11.3347 H   0  0  0  0  0  0  0  0  0  0  0  0
   43.8565    2.1916    9.8323 H   0  0  0  0  0  0  0  0  0  0  0  0
   43.8162    4.3244    8.5741 H   0  0  0  0  0  0  0  0  0  0  0  0
   43.3345    5.8103   10.4611 H   0  0  0  0  0  0  0  0  0  0  0  0
   44.6861    6.3418    9.7236 H   0  0  0  0  0  0  0  0  0  0  0  0
   46.1920    0.8351    9.1739 H   0  0  0  0  0  0  0  0  0  0  0  0
   46.2550    4.5989    7.0963 H   0  0  0  0  0  0  0  0  0  0  0  0
   47.0594    3.4584    5.0606 H   0  0  0  0  0  0  0  0  0  0  0  0
   46.9970   -0.3004    7.1362 H   0  0  0  0  0  0  0  0  0  0  0  0
   47.4308    1.0040    5.0694 H   0  0  0  0  0  0  0  0  0  0  0  0
  2  1  1  0
  3  1  1  0
  1  4  1  0
  3  5  1  0
  6  4  2  0
  7  4  1  0
  8  7  2  0
  9  6  1  0
 10  9  2  0
  3  2  1  0
  8 10  1  0
 12 11  1  0
 13 11  1  0
 11 14  1  0
 13 15  1  0
 16 14  2  0
 17 14  1  0
 18 17  2  0
 19 16  1  0
 20 19  2  0
 13 12  1  0
 18 20  1  0
  1 21  1  6
  2 22  1  0
  2 23  1  0
  3 24  1  1
  5 25  1  0
  5 26  1  0
  6 27  1  0
  7 28  1  0
  8 29  1  0
  9 30  1  0
 10 31  1  0
 11 32  1  1
 12 33  1  0
 12 34  1  0
 13 35  1  6
 15 36  1  0
 15 37  1  0
 16 38  1  0
 17 39  1  0
 18 40  1  0
 19 41  1  0
 20 42  1  0
M  END
> <Uni-Dock RESULT> 
ENERGY=   -8.769  LOWER_BOUND=    0.000  UPPER_BOUND=    0.000
INTER + INTRA:          -8.769
INTER:                  -8.769
INTRA:                   0.000
UNBOUND:                 0.000

$$$$

     RDKit          3D

 42 44  0  0  0  0  0  0  0  0999 V2000
   45.6873    3.4971    9.3991 C   0  0  1  0  0  0  0  0  0  0  0  0
   44.5839    4.5203    9.2612 C   0  0  0  0  0  0  0  0  0  0  0  0
   44.3038    3.2203    9.9469 C   0  0  2  0  0  0  0  0  0  0  0  0
   46.1830    2.7458    8.1860 C   0  0  0  0  0  0  0  0  0  0  0  0
   44.0942    3.2202   11.3945 N   0  0  0  0  0  0  0  0  0  0  0  0
   46.2596    1.3429    8.1792 C   0  0  0  0  0  0  0  0  0  0  0  0
   46.6187    3.4210    7.0338 C   0  0  0  0  0  0  0  0  0  0  0  0
   47.0895    2.7275    5.9156 C   0  0  0  0  0  0  0  0  0  0  0  0
   46.7303    0.6428    7.0649 C   0  0  0  0  0  0  0  0  0  0  0  0
   47.1423    1.3367    5.9310 C   0  0  0  0  0  0  0  0  0  0  0  0
   44.4766    2.9091    8.6682 C   0  0  2  0  0  0  0  0  0  0  0  0
   44.2288    4.1544    9.4880 C   0  0  0  0  0  0  0  0  0  0  0  0
   44.5752    2.8728   10.1784 C   0  0  1  0  0  0  0  0  0  0  0  0
   45.7265    2.7885    7.8284 C   0  0  0  0  0  0  0  0  0  0  0  0
   43.5372    2.1852   10.9463 N   0  0  0  0  0  0  0  0  0  0  0  0
   46.0741    3.7717    6.8870 C   0  0  0  0  0  0  0  0  0  0  0  0
   46.5714    1.6711    7.9360 C   0  0  0  0  0  0  0  0  0  0  0  0
   47.7228    1.5486    7.1535 C   0  0  0  0  0  0  0  0  0  0  0  0
   47.2241    3.6560    6.1015 C   0  0  0  0  0  0  0  0  0  0  0  0
   48.0499    2.5440    6.2371 C   0  0  0  0  0  0  0  0  0  0  0  0
   46.4565    3.7324   10.1328 H   0  0  0  0  0  0  0  0  0  0  0  0
   44.6589    5.4187    9.8629 H   0  0  0  0  0  0  0  0  0  0  0  0
   44.1321    4.6798    8.2892 H   0  0  0  0  0  0  0  0  0  0  0  0
   43.6810    2.5152    9.3992 H   0  0  0  0  0  0  0  0  0  0  0  0
   43.1217    3.4334   11.6153 H   0  0  0  0  0  0  0  0  0  0  0  0
   44.2758    2.2951   11.7831 H   0  0  0  0  0  0  0  0  0  0  0  0
   45.9494    0.7858    9.0608 H   0  0  0  0  0  0  0  0  0  0  0  0
   46.5925    4.5082    7.0088 H   0  0  0  0  0  0  0  0  0  0  0  0
   47.4165    3.2755    5.0359 H   0  0  0  0  0  0  0  0  0  0  0  0
   46.7770   -0.4427    7.0864 H   0  0  0  0  0  0  0  0  0  0  0  0
   47.5096    0.7951    5.0636 H   0  0  0  0  0  0  0  0  0  0  0  0
   43.5908    2.4498    8.2327 H   0  0  0  0  0  0  0  0  0  0  0  0
   43.2088    4.5163    9.5502 H   0  0  0  0  0  0  0  0  0  0  0  0
   44.9744    4.9411    9.4884 H   0  0  0  0  0  0  0  0  0  0  0  0
   45.5715    2.8170   10.6132 H   0  0  0  0  0  0  0  0  0  0  0  0
   43.5080    2.5365   11.9030 H   0  0  0  0  0  0  0  0  0  0  0  0
   43.7452    1.1896   11.0181 H   0  0  0  0  0  0  0  0  0  0  0  0
   45.4353    4.6439    6.7631 H   0  0  0  0  0  0  0  0  0  0  0  0
   46.3254    0.8801    8.6416 H   0  0  0  0  0  0  0  0  0  0  0  0
   48.3599    0.6747    7.2592 H   0  0  0  0  0  0  0  0  0  0  0  0
   47.4701    4.4333    5.3829 H   0  0  0  0  0  0  0  0  0  0  0  0
   48.9439    2.4509    5.6265 H   0  0  0  0  0  0  0  0  0  0  0  0
  2  1  1  0
  3  1  1  0
  1  4  1  0
  3  5  1  0
  6  4  2  0
  7  4  1  0
  8  7  2  0
  9  6  1  0
 10  9  2  0
  3  2  1  0
  8 10  1  0
 12 11  1  0
 13 11  1  0
 11 14  1  0
 13 15  1  0
 16 14  2  0
 17 14  1  0
 18 17  2  0
 19 16  1  0
 20 19  2  0
 13 12  1  0
 18 20  1  0
  1 21  1  6
  2 22  1  0
  2 23  1  0
  3 24  1  1
  5 25  1  0
  5 26  1  0
  6 27  1  0
  7 28  1  0
  8 29  1  0
  9 30  1  0
 10 31  1  0
 11 32  1  1
 12 33  1  0
 12 34  1  0
 13 35  1  6
 15 36  1  0
 15 37  1  0
 16 38  1  0
 17 39  1  0
 18 40  1  0
 19 41  1  0
 20 42  1  0
M  END
> <Uni-Dock RESULT> 
ENERGY=   -8.632  LOWER_BOUND=    0.842  UPPER_BOUND=    2.096
INTER + INTRA:          -8.632
INTER:                  -8.632
INTRA:                   0.000
UNBOUND:                 0.000

$$$$

     RDKit          3D

 42 44  0  0  0  0  0  0  0  0999 V2000
   43.3836    3.8208   11.1506 C   0  0  1  0  0  0  0  0  0  0  0  0
   43.5690    2.9896   12.3989 C   0  0  0  0  0  0  0  0  0  0  0  0
   43.7837    4.4692   12.4584 C   0  0  2  0  0  0  0  0  0  0  0  0
   44.3801    3.7258   10.0193 C   0  0  0  0  0  0  0  0  0  0  0  0
   42.8107    5.2922   13.1762 N   0  0  0  0  0  0  0  0  0  0  0  0
   44.9802    4.8754    9.4788 C   0  0  0  0  0  0  0  0  0  0  0  0
   44.7173    2.4903    9.4422 C   0  0  0  0  0  0  0  0  0  0  0  0
   45.6294    2.4023    8.3871 C   0  0  0  0  0  0  0  0  0  0  0  0
   45.8924    4.7951    8.4230 C   0  0  0  0  0  0  0  0  0  0  0  0
   46.2194    3.5563    7.8795 C   0  0  0  0  0  0  0  0  0  0  0  0
   44.7898    4.0005   11.7303 C   0  0  2  0  0  0  0  0  0  0  0  0
   43.7406    3.4478   12.6674 C   0  0  0  0  0  0  0  0  0  0  0  0
   43.6345    4.8628   12.1924 C   0  0  1  0  0  0  0  0  0  0  0  0
   44.8519    3.5293   10.2965 C   0  0  0  0  0  0  0  0  0  0  0  0
   43.8858    5.9446   13.1444 N   0  0  0  0  0  0  0  0  0  0  0  0
   44.9370    2.1638    9.9772 C   0  0  0  0  0  0  0  0  0  0  0  0
   44.8591    4.4429    9.2291 C   0  0  0  0  0  0  0  0  0  0  0  0
   44.9282    4.0133    7.9010 C   0  0  0  0  0  0  0  0  0  0  0  0
   45.0059    1.7270    8.6515 C   0  0  0  0  0  0  0  0  0  0  0  0
   44.9992    2.6534    7.6129 C   0  0  0  0  0  0  0  0  0  0  0  0
   42.3522    3.9709   10.8356 H   0  0  0  0  0  0  0  0  0  0  0  0
   42.6792    2.5756   12.8590 H   0  0  0  0  0  0  0  0  0  0  0  0
   44.4428    2.3543   12.4835 H   0  0  0  0  0  0  0  0  0  0  0  0
   44.8164    4.7989   12.5577 H   0  0  0  0  0  0  0  0  0  0  0  0
   43.0302    5.3194   14.1717 H   0  0  0  0  0  0  0  0  0  0  0  0
   42.8494    6.2582   12.8520 H   0  0  0  0  0  0  0  0  0  0  0  0
   44.7290    5.8523    9.8868 H   0  0  0  0  0  0  0  0  0  0  0  0
   44.2584    1.5797    9.8212 H   0  0  0  0  0  0  0  0  0  0  0  0
   45.8751    1.4327    7.9623 H   0  0  0  0  0  0  0  0  0  0  0  0
   46.3431    5.7006    8.0256 H   0  0  0  0  0  0  0  0  0  0  0  0
   46.9274    3.4909    7.0579 H   0  0  0  0  0  0  0  0  0  0  0  0
   45.7579    4.2113   12.1816 H   0  0  0  0  0  0  0  0  0  0  0  0
   44.0343    3.2677   13.6953 H   0  0  0  0  0  0  0  0  0  0  0  0
   43.0175    2.7359   12.2865 H   0  0  0  0  0  0  0  0  0  0  0  0
   42.8447    5.0683   11.4720 H   0  0  0  0  0  0  0  0  0  0  0  0
   43.0303    6.1890   13.6423 H   0  0  0  0  0  0  0  0  0  0  0  0
   44.1788    6.7904   12.6563 H   0  0  0  0  0  0  0  0  0  0  0  0
   44.9509    1.4268   10.7776 H   0  0  0  0  0  0  0  0  0  0  0  0
   44.8126    5.5099    9.4376 H   0  0  0  0  0  0  0  0  0  0  0  0
   44.9295    4.7419    7.0948 H   0  0  0  0  0  0  0  0  0  0  0  0
   45.0682    0.6641    8.4336 H   0  0  0  0  0  0  0  0  0  0  0  0
   45.0542    2.3164    6.5814 H   0  0  0  0  0  0  0  0  0  0  0  0
  2  1  1  0
  3  1  1  0
  1  4  1  0
  3  5  1  0
  6  4  2  0
  7  4  1  0
  8  7  2  0
  9  6  1  0
 10  9  2  0
  3  2  1  0
  8 10  1  0
 12 11  1  0
 13 11  1  0
 11 14  1  0
 13 15  1  0
 16 14  2  0
 17 14  1  0
 18 17  2  0
 19 16  1  0
 20 19  2  0
 13 12  1  0
 18 20  1  0
  1 21  1  6
  2 22  1  0
  2 23  1  0
  3 24  1  1
  5 25  1  0
  5 26  1  0
  6 27  1  0
  7 28  1  0
  8 29  1  0
  9 30  1  0
 10 31  1  0
 11 32  1  1
 12 33  1  0
 12 34  1  0
 13 35  1  6
 15 36  1  0
 15 37  1  0
 16 38  1  0
 17 39  1  0
 18 40  1  0
 19 41  1  0
 20 42  1  0
M  END
> <Uni-Dock RESULT> 
ENERGY=   -7.190  LOWER_BOUND=    1.774  UPPER_BOUND=    2.697
INTER + INTRA:          -7.190
INTER:                  -7.190
INTRA:                   0.000
UNBOUND:                 0.000

$$$$

     RDKit          3D

 42 44  0  0  0  0  0  0  0  0999 V2000
   45.4539    3.2402    9.7162 C   0  0  1  0  0  0  0  0  0  0  0  0
   44.5501    2.3235    8.9246 C   0  0  0  0  0  0  0  0  0  0  0  0
   45.4173    3.3076    8.2045 C   0  0  2  0  0  0  0  0  0  0  0  0
   44.8661    4.3643   10.5363 C   0  0  0  0  0  0  0  0  0  0  0  0
   46.5590    2.8092    7.4382 N   0  0  0  0  0  0  0  0  0  0  0  0
   45.3279    5.6842   10.3996 C   0  0  0  0  0  0  0  0  0  0  0  0
   43.8623    4.1279   11.4900 C   0  0  0  0  0  0  0  0  0  0  0  0
   43.3267    5.1650   12.2584 C   0  0  0  0  0  0  0  0  0  0  0  0
   44.7978    6.7262   11.1653 C   0  0  0  0  0  0  0  0  0  0  0  0
   43.7935    6.4659   12.0931 C   0  0  0  0  0  0  0  0  0  0  0  0
   44.4999    4.0401    8.8241 C   0  0  2  0  0  0  0  0  0  0  0  0
   44.7055    2.5880    8.4584 C   0  0  0  0  0  0  0  0  0  0  0  0
   45.8373    3.5551    8.3062 C   0  0  1  0  0  0  0  0  0  0  0  0
   44.3547    4.4458   10.2719 C   0  0  0  0  0  0  0  0  0  0  0  0
   46.2621    3.9335    6.9586 N   0  0  0  0  0  0  0  0  0  0  0  0
   43.3972    3.8475   11.1077 C   0  0  0  0  0  0  0  0  0  0  0  0
   45.1520    5.4605   10.8275 C   0  0  0  0  0  0  0  0  0  0  0  0
   45.0142    5.8481   12.1631 C   0  0  0  0  0  0  0  0  0  0  0  0
   43.2541    4.2296   12.4443 C   0  0  0  0  0  0  0  0  0  0  0  0
   44.0654    5.2297   12.9723 C   0  0  0  0  0  0  0  0  0  0  0  0
   46.3319    2.7691   10.1551 H   0  0  0  0  0  0  0  0  0  0  0  0
   44.8151    1.2732    8.8864 H   0  0  0  0  0  0  0  0  0  0  0  0
   43.4821    2.5067    8.9266 H   0  0  0  0  0  0  0  0  0  0  0  0
   44.9054    4.1562    7.7541 H   0  0  0  0  0  0  0  0  0  0  0  0
   46.2672    2.5301    6.5018 H   0  0  0  0  0  0  0  0  0  0  0  0
   47.2536    3.5447    7.3101 H   0  0  0  0  0  0  0  0  0  0  0  0
   46.1184    5.9032    9.6848 H   0  0  0  0  0  0  0  0  0  0  0  0
   43.4927    3.1155   11.6380 H   0  0  0  0  0  0  0  0  0  0  0  0
   42.5478    4.9540   12.9863 H   0  0  0  0  0  0  0  0  0  0  0  0
   45.1725    7.7383   11.0376 H   0  0  0  0  0  0  0  0  0  0  0  0
   43.3802    7.2738   12.6906 H   0  0  0  0  0  0  0  0  0  0  0  0
   43.8954    4.6185    8.1274 H   0  0  0  0  0  0  0  0  0  0  0  0
   44.2125    2.2238    7.5643 H   0  0  0  0  0  0  0  0  0  0  0  0
   44.7789    1.8515    9.2501 H   0  0  0  0  0  0  0  0  0  0  0  0
   46.6479    3.4609    9.0265 H   0  0  0  0  0  0  0  0  0  0  0  0
   46.9542    3.2746    6.6033 H   0  0  0  0  0  0  0  0  0  0  0  0
   46.7203    4.8443    6.9701 H   0  0  0  0  0  0  0  0  0  0  0  0
   42.7497    3.0692   10.7087 H   0  0  0  0  0  0  0  0  0  0  0  0
   45.8927    5.9599   10.2061 H   0  0  0  0  0  0  0  0  0  0  0  0
   45.6460    6.6343   12.5676 H   0  0  0  0  0  0  0  0  0  0  0  0
   42.5066    3.7476   13.0689 H   0  0  0  0  0  0  0  0  0  0  0  0
   43.9552    5.5297   14.0108 H   0  0  0  0  0  0  0  0  0  0  0  0
  2  1  1  0
  3  1  1  0
  1  4  1  0
  3  5  1  0
  6  4  2  0
  7  4  1  0
  8  7  2  0
  9  6  1  0
 10  9  2  0
  3  2  1  0
  8 10  1  0
 12 11  1  0
 13 11  1  0
 11 14  1  0
 13 15  1  0
 16 14  2  0
 17 14  1  0
 18 17  2  0
 19 16  1  0
 20 19  2  0
 13 12  1  0
 18 20  1  0
  1 21  1  6
  2 22  1  0
  2 23  1  0
  3 24  1  1
  5 25  1  0
  5 26  1  0
  6 27  1  0
  7 28  1  0
  8 29  1  0
  9 30  1  0
 10 31  1  0
 11 32  1  1
 12 33  1  0
 12 34  1  0
 13 35  1  6
 15 36  1  0
 15 37  1  0
 16 38  1  0
 17 39  1  0
 18 40  1  0
 19 41  1  0
 20 42  1  0
M  END
> <Uni-Dock RESULT> 
ENERGY=   -6.718  LOWER_BOUND=    2.356  UPPER_BOUND=    4.993
INTER + INTRA:          -6.718
INTER:                  -6.718
INTRA:                   0.000
UNBOUND:                 0.000

$$$$

     RDKit          3D

 42 44  0  0  0  0  0  0  0  0999 V2000
   43.7636    5.3047   10.7762 C   0  0  1  0  0  0  0  0  0  0  0  0
   43.7958    5.0681   12.2684 C   0  0  0  0  0  0  0  0  0  0  0  0
   44.4663    6.2781   11.6980 C   0  0  2  0  0  0  0  0  0  0  0  0
   44.5706    4.4258    9.8498 C   0  0  0  0  0  0  0  0  0  0  0  0
   43.8702    7.5916   11.9403 N   0  0  0  0  0  0  0  0  0  0  0  0
   45.4465    4.9787    8.9006 C   0  0  0  0  0  0  0  0  0  0  0  0
   44.4499    3.0266    9.8778 C   0  0  0  0  0  0  0  0  0  0  0  0
   45.1863    2.2130    9.0126 C   0  0  0  0  0  0  0  0  0  0  0  0
   46.1855    4.1714    8.0315 C   0  0  0  0  0  0  0  0  0  0  0  0
   46.0571    2.7868    8.0907 C   0  0  0  0  0  0  0  0  0  0  0  0
   45.2032    5.2498   11.2961 C   0  0  2  0  0  0  0  0  0  0  0  0
   44.1261    5.5146   12.3228 C   0  0  0  0  0  0  0  0  0  0  0  0
   44.4232    6.5472   11.2813 C   0  0  1  0  0  0  0  0  0  0  0  0
   44.9812    4.2247   10.2090 C   0  0  0  0  0  0  0  0  0  0  0  0
   45.0873    7.7853   11.6884 N   0  0  0  0  0  0  0  0  0  0  0  0
   44.6055    2.9054   10.5120 C   0  0  0  0  0  0  0  0  0  0  0  0
   45.1737    4.5457    8.8548 C   0  0  0  0  0  0  0  0  0  0  0  0
   44.9811    3.5984    7.8456 C   0  0  0  0  0  0  0  0  0  0  0  0
   44.4107    1.9529    9.5081 C   0  0  0  0  0  0  0  0  0  0  0  0
   44.5968    2.3013    8.1735 C   0  0  0  0  0  0  0  0  0  0  0  0
   42.8060    5.6303   10.3732 H   0  0  0  0  0  0  0  0  0  0  0  0
   42.8681    5.1977   12.8139 H   0  0  0  0  0  0  0  0  0  0  0  0
   44.4314    4.2845   12.6637 H   0  0  0  0  0  0  0  0  0  0  0  0
   45.5548    6.2674   11.7006 H   0  0  0  0  0  0  0  0  0  0  0  0
   44.1790    7.9646   12.8378 H   0  0  0  0  0  0  0  0  0  0  0  0
   44.1782    8.2607   11.2352 H   0  0  0  0  0  0  0  0  0  0  0  0
   45.5520    6.0597    8.8356 H   0  0  0  0  0  0  0  0  0  0  0  0
   43.7670    2.5626   10.5863 H   0  0  0  0  0  0  0  0  0  0  0  0
   45.0763    1.1328    9.0590 H   0  0  0  0  0  0  0  0  0  0  0  0
   46.8572    4.6259    7.3082 H   0  0  0  0  0  0  0  0  0  0  0  0
   46.6295    2.1566    7.4155 H   0  0  0  0  0  0  0  0  0  0  0  0
   46.2264    5.3078   11.6636 H   0  0  0  0  0  0  0  0  0  0  0  0
   44.4434    5.7019   13.3423 H   0  0  0  0  0  0  0  0  0  0  0  0
   43.1847    4.9829   12.2468 H   0  0  0  0  0  0  0  0  0  0  0  0
   43.6736    6.6709   10.5018 H   0  0  0  0  0  0  0  0  0  0  0  0
   44.4012    8.4779   11.9871 H   0  0  0  0  0  0  0  0  0  0  0  0
   45.5830    8.2016   10.9006 H   0  0  0  0  0  0  0  0  0  0  0  0
   44.4631    2.6144   11.5509 H   0  0  0  0  0  0  0  0  0  0  0  0
   45.4823    5.5529    8.5821 H   0  0  0  0  0  0  0  0  0  0  0  0
   45.1346    3.8747    6.8059 H   0  0  0  0  0  0  0  0  0  0  0  0
   44.1174    0.9401    9.7713 H   0  0  0  0  0  0  0  0  0  0  0  0
   44.4474    1.5623    7.3911 H   0  0  0  0  0  0  0  0  0  0  0  0
  2  1  1  0
  3  1  1  0
  1  4  1  0
  3  5  1  0
  6  4  2  0
  7  4  1  0
  8  7  2  0
  9  6  1  0
 10  9  2  0
  3  2  1  0
  8 10  1  0
 12 11  1  0
 13 11  1  0
 11 14  1  0
 13 15  1  0
 16 14  2  0
 17 14  1  0
 18 17  2  0
 19 16  1  0
 20 19  2  0
 13 12  1  0
 18 20  1  0
  1 21  1  6
  2 22  1  0
  2 23  1  0
  3 24  1  1
  5 25  1  0
  5 26  1  0
  6 27  1  0
  7 28  1  0
  8 29  1  0
  9 30  1  0
 10 31  1  0
 11 32  1  1
 12 33  1  0
 12 34  1  0
 13 35  1  6
 15 36  1  0
 15 37  1  0
 16 38  1  0
 17 39  1  0
 18 40  1  0
 19 41  1  0
 20 42  1  0
M  END
> <Uni-Dock RESULT> 
ENERGY=   -6.480  LOWER_BOUND=    1.771  UPPER_BOUND=    2.945
INTER + INTRA:          -6.480
INTER:                  -6.480
INTRA:                   0.000
UNBOUND:                 0.000

$$$$

     RDKit          3D

 42 44  0  0  0  0  0  0  0  0999 V2000
   47.1294    2.2383    7.8192 C   0  0  1  0  0  0  0  0  0  0  0  0
   46.8518    0.9421    7.0936 C   0  0  0  0  0  0  0  0  0  0  0  0
   47.2212    2.1623    6.3103 C   0  0  2  0  0  0  0  0  0  0  0  0
   45.9999    3.0024    8.4690 C   0  0  0  0  0  0  0  0  0  0  0  0
   48.5351    2.2151    5.6698 N   0  0  0  0  0  0  0  0  0  0  0  0
   45.7958    4.3668    8.2032 C   0  0  0  0  0  0  0  0  0  0  0  0
   45.1341    2.3881    9.3890 C   0  0  0  0  0  0  0  0  0  0  0  0
   44.0967    3.0971   10.0006 C   0  0  0  0  0  0  0  0  0  0  0  0
   44.7611    5.0825    8.8119 C   0  0  0  0  0  0  0  0  0  0  0  0
   43.9089    4.4451    9.7089 C   0  0  0  0  0  0  0  0  0  0  0  0
   46.0085    2.4103    6.7897 C   0  0  2  0  0  0  0  0  0  0  0  0
   46.9111    1.2117    6.6085 C   0  0  0  0  0  0  0  0  0  0  0  0
   47.4618    2.5881    6.4045 C   0  0  1  0  0  0  0  0  0  0  0  0
   45.5408    2.8076    8.1700 C   0  0  0  0  0  0  0  0  0  0  0  0
   47.7941    3.0180    5.0464 N   0  0  0  0  0  0  0  0  0  0  0  0
   44.8984    1.8901    9.0179 C   0  0  0  0  0  0  0  0  0  0  0  0
   45.7031    4.1201    8.6444 C   0  0  0  0  0  0  0  0  0  0  0  0
   45.2621    4.4964    9.9160 C   0  0  0  0  0  0  0  0  0  0  0  0
   44.4551    2.2592   10.2909 C   0  0  0  0  0  0  0  0  0  0  0  0
   44.6395    3.5634   10.7403 C   0  0  0  0  0  0  0  0  0  0  0  0
   48.0752    2.2821    8.3566 H   0  0  0  0  0  0  0  0  0  0  0  0
   47.5832    0.1484    7.1932 H   0  0  0  0  0  0  0  0  0  0  0  0
   45.8299    0.5899    7.0170 H   0  0  0  0  0  0  0  0  0  0  0  0
   46.4190    2.6233    5.7366 H   0  0  0  0  0  0  0  0  0  0  0  0
   48.5076    1.7585    4.7584 H   0  0  0  0  0  0  0  0  0  0  0  0
   48.8096    3.1813    5.4936 H   0  0  0  0  0  0  0  0  0  0  0  0
   46.4584    4.8820    7.5109 H   0  0  0  0  0  0  0  0  0  0  0  0
   45.2727    1.3375    9.6348 H   0  0  0  0  0  0  0  0  0  0  0  0
   43.4391    2.5954   10.7055 H   0  0  0  0  0  0  0  0  0  0  0  0
   44.6250    6.1368    8.5864 H   0  0  0  0  0  0  0  0  0  0  0  0
   43.1043    4.9992   10.1844 H   0  0  0  0  0  0  0  0  0  0  0  0
   45.2781    2.5717    5.9986 H   0  0  0  0  0  0  0  0  0  0  0  0
   46.7433    0.5874    5.7383 H   0  0  0  0  0  0  0  0  0  0  0  0
   47.2413    0.6646    7.4840 H   0  0  0  0  0  0  0  0  0  0  0  0
   48.1419    2.9507    7.1732 H   0  0  0  0  0  0  0  0  0  0  0  0
   48.7476    2.7467    4.8084 H   0  0  0  0  0  0  0  0  0  0  0  0
   47.7646    4.0347    4.9754 H   0  0  0  0  0  0  0  0  0  0  0  0
   44.7396    0.8684    8.6791 H   0  0  0  0  0  0  0  0  0  0  0  0
   46.1803    4.8637    8.0091 H   0  0  0  0  0  0  0  0  0  0  0  0
   45.4028    5.5180   10.2585 H   0  0  0  0  0  0  0  0  0  0  0  0
   43.9636    1.5278   10.9269 H   0  0  0  0  0  0  0  0  0  0  0  0
   44.2945    3.8533   11.7290 H   0  0  0  0  0  0  0  0  0  0  0  0
  2  1  1  0
  3  1  1  0
  1  4  1  0
  3  5  1  0
  6  4  2  0
  7  4  1  0
  8  7  2  0
  9  6  1  0
 10  9  2  0
  3  2  1  0
  8 10  1  0
 12 11  1  0
 13 11  1  0
 11 14  1  0
 13 15  1  0
 16 14  2  0
 17 14  1  0
 18 17  2  0
 19 16  1  0
 20 19  2  0
 13 12  1  0
 18 20  1  0
  1 21  1  6
  2 22  1  0
  2 23  1  0
  3 24  1  1
  5 25  1  0
  5 26  1  0
  6 27  1  0
  7 28  1  0
  8 29  1  0
  9 30  1  0
 10 31  1  0
 11 32  1  1
 12 33  1  0
 12 34  1  0
 13 35  1  6
 15 36  1  0
 15 37  1  0
 16 38  1  0
 17 39  1  0
 18 40  1  0
 19 41  1  0
 20 42  1  0
M  END
> <Uni-Dock RESULT> 
ENERGY=   -6.408  LOWER_BOUND=    2.335  UPPER_BOUND=    4.238
INTER + INTRA:          -6.408
INTER:                  -6.408
INTRA:                   0.000
UNBOUND:                 0.000

$$$$

     RDKit          3D

 42 44  0  0  0  0  0  0  0  0999 V2000
   43.9707    5.7016   12.6005 C   0  0  1  0  0  0  0  0  0  0  0  0
   42.8554    5.8824   11.5968 C   0  0  0  0  0  0  0  0  0  0  0  0
   43.6842    4.6370   11.5634 C   0  0  2  0  0  0  0  0  0  0  0  0
   45.2264    6.5351   12.4995 C   0  0  0  0  0  0  0  0  0  0  0  0
   43.0741    3.3755   11.9827 N   0  0  0  0  0  0  0  0  0  0  0  0
   46.4982    5.9381   12.4923 C   0  0  0  0  0  0  0  0  0  0  0  0
   45.1722    7.9377   12.4447 C   0  0  0  0  0  0  0  0  0  0  0  0
   46.3337    8.7105   12.3642 C   0  0  0  0  0  0  0  0  0  0  0  0
   47.6642    6.7046   12.4129 C   0  0  0  0  0  0  0  0  0  0  0  0
   47.5806    8.0923   12.3454 C   0  0  0  0  0  0  0  0  0  0  0  0
   44.4979    5.6073   11.1656 C   0  0  2  0  0  0  0  0  0  0  0  0
   43.0115    5.4060   11.3515 C   0  0  0  0  0  0  0  0  0  0  0  0
   43.9673    4.3875   11.8883 C   0  0  1  0  0  0  0  0  0  0  0  0
   45.2211    6.6855   11.9378 C   0  0  0  0  0  0  0  0  0  0  0  0
   44.0420    3.0807   11.2353 N   0  0  0  0  0  0  0  0  0  0  0  0
   44.7899    8.0222   11.9081 C   0  0  0  0  0  0  0  0  0  0  0  0
   46.3721    6.3955   12.6896 C   0  0  0  0  0  0  0  0  0  0  0  0
   47.0520    7.3909   13.3967 C   0  0  0  0  0  0  0  0  0  0  0  0
   45.4645    9.0227   12.6131 C   0  0  0  0  0  0  0  0  0  0  0  0
   46.5955    8.7053   13.3596 C   0  0  0  0  0  0  0  0  0  0  0  0
   43.6546    5.4786   13.6182 H   0  0  0  0  0  0  0  0  0  0  0  0
   41.8380    5.8188   11.9652 H   0  0  0  0  0  0  0  0  0  0  0  0
   42.9855    6.5907   10.7871 H   0  0  0  0  0  0  0  0  0  0  0  0
   44.3811    4.5485   10.7319 H   0  0  0  0  0  0  0  0  0  0  0  0
   42.5727    2.9450   11.2061 H   0  0  0  0  0  0  0  0  0  0  0  0
   43.7907    2.7060   12.2620 H   0  0  0  0  0  0  0  0  0  0  0  0
   46.5813    4.8549   12.5530 H   0  0  0  0  0  0  0  0  0  0  0  0
   44.2059    8.4370   12.4676 H   0  0  0  0  0  0  0  0  0  0  0  0
   46.2620    9.7939   12.3189 H   0  0  0  0  0  0  0  0  0  0  0  0
   48.6350    6.2163   12.4072 H   0  0  0  0  0  0  0  0  0  0  0  0
   48.4854    8.6908   12.2847 H   0  0  0  0  0  0  0  0  0  0  0  0
   44.8710    5.4437   10.1559 H   0  0  0  0  0  0  0  0  0  0  0  0
   42.4279    5.1554   10.4729 H   0  0  0  0  0  0  0  0  0  0  0  0
   42.4826    6.0235   12.0682 H   0  0  0  0  0  0  0  0  0  0  0  0
   44.0796    4.3596   12.9707 H   0  0  0  0  0  0  0  0  0  0  0  0
   43.3508    2.4435   11.6298 H   0  0  0  0  0  0  0  0  0  0  0  0
   44.9505    2.6487   11.4016 H   0  0  0  0  0  0  0  0  0  0  0  0
   43.9118    8.2886   11.3233 H   0  0  0  0  0  0  0  0  0  0  0  0
   46.7469    5.3745   12.7222 H   0  0  0  0  0  0  0  0  0  0  0  0
   47.9384    7.1380   13.9722 H   0  0  0  0  0  0  0  0  0  0  0  0
   45.1070   10.0482   12.5744 H   0  0  0  0  0  0  0  0  0  0  0  0
   47.1227    9.4816   13.9074 H   0  0  0  0  0  0  0  0  0  0  0  0
  2  1  1  0
  3  1  1  0
  1  4  1  0
  3  5  1  0
  6  4  2  0
  7  4  1  0
  8  7  2  0
  9  6  1  0
 10  9  2  0
  3  2  1  0
  8 10  1  0
 12 11  1  0
 13 11  1  0
 11 14  1  0
 13 15  1  0
 16 14  2  0
 17 14  1  0
 18 17  2  0
 19 16  1  0
 20 19  2  0
 13 12  1  0
 18 20  1  0
  1 21  1  6
  2 22  1  0
  2 23  1  0
  3 24  1  1
  5 25  1  0
  5 26  1  0
  6 27  1  0
  7 28  1  0
  8 29  1  0
  9 30  1  0
 10 31  1  0
 11 32  1  1
 12 33  1  0
 12 34  1  0
 13 35  1  6
 15 36  1  0
 15 37  1  0
 16 38  1  0
 17 39  1  0
 18 40  1  0
 19 41  1  0
 20 42  1  0
M  END
> <Uni-Dock RESULT> 
ENERGY=   -6.205  LOWER_BOUND=    4.760  UPPER_BOUND=    6.369
INTER + INTRA:          -6.205
INTER:                  -6.205
INTRA:                   0.000
UNBOUND:                 0.000

$$$$

     RDKit          3D

 42 44  0  0  0  0  0  0  0  0999 V2000
   44.1381    3.0108    9.3998 C   0  0  1  0  0  0  0  0  0  0  0  0
   44.4139    3.7313    8.1004 C   0  0  0  0  0  0  0  0  0  0  0  0
   45.3875    2.7107    8.5998 C   0  0  2  0  0  0  0  0  0  0  0  0
   44.2425    3.7478   10.7143 C   0  0  0  0  0  0  0  0  0  0  0  0
   45.4942    1.4356    7.8912 N   0  0  0  0  0  0  0  0  0  0  0  0
   45.0215    3.2463   11.7706 C   0  0  0  0  0  0  0  0  0  0  0  0
   43.5383    4.9415   10.9427 C   0  0  0  0  0  0  0  0  0  0  0  0
   43.6239    5.6175   12.1628 C   0  0  0  0  0  0  0  0  0  0  0  0
   45.1111    3.9163   12.9938 C   0  0  0  0  0  0  0  0  0  0  0  0
   44.4138    5.1051   13.1880 C   0  0  0  0  0  0  0  0  0  0  0  0
   45.4893    3.7307    9.4430 C   0  0  2  0  0  0  0  0  0  0  0  0
   44.9075    3.4723    8.0722 C   0  0  0  0  0  0  0  0  0  0  0  0
   45.3687    2.3197    8.9078 C   0  0  1  0  0  0  0  0  0  0  0  0
   44.5971    4.1865   10.5736 C   0  0  0  0  0  0  0  0  0  0  0  0
   46.5783    1.6011    8.5075 N   0  0  0  0  0  0  0  0  0  0  0  0
   43.7701    5.3148   10.4447 C   0  0  0  0  0  0  0  0  0  0  0  0
   44.5858    3.5162   11.8082 C   0  0  0  0  0  0  0  0  0  0  0  0
   43.7712    3.9402   12.8616 C   0  0  0  0  0  0  0  0  0  0  0  0
   42.9525    5.7443   11.4935 C   0  0  0  0  0  0  0  0  0  0  0  0
   42.9522    5.0543   12.7022 C   0  0  0  0  0  0  0  0  0  0  0  0
   43.3511    2.2595    9.3620 H   0  0  0  0  0  0  0  0  0  0  0  0
   43.7907    3.4811    7.2496 H   0  0  0  0  0  0  0  0  0  0  0  0
   44.7207    4.7702    8.1291 H   0  0  0  0  0  0  0  0  0  0  0  0
   46.3308    3.0966    8.9821 H   0  0  0  0  0  0  0  0  0  0  0  0
   46.1351    1.5172    7.1022 H   0  0  0  0  0  0  0  0  0  0  0  0
   45.8865    0.7183    8.5007 H   0  0  0  0  0  0  0  0  0  0  0  0
   45.5661    2.3137   11.6379 H   0  0  0  0  0  0  0  0  0  0  0  0
   42.9094    5.3507   10.1550 H   0  0  0  0  0  0  0  0  0  0  0  0
   43.0714    6.5415   12.3106 H   0  0  0  0  0  0  0  0  0  0  0  0
   45.7227    3.5066   13.7932 H   0  0  0  0  0  0  0  0  0  0  0  0
   44.4807    5.6276   14.1382 H   0  0  0  0  0  0  0  0  0  0  0  0
   46.4912    4.1566    9.4550 H   0  0  0  0  0  0  0  0  0  0  0  0
   45.5040    3.7608    7.2142 H   0  0  0  0  0  0  0  0  0  0  0  0
   43.8401    3.5878    7.9235 H   0  0  0  0  0  0  0  0  0  0  0  0
   44.5869    1.6904    9.3291 H   0  0  0  0  0  0  0  0  0  0  0  0
   46.3511    0.8580    7.8474 H   0  0  0  0  0  0  0  0  0  0  0  0
   47.0050    1.1424    9.3119 H   0  0  0  0  0  0  0  0  0  0  0  0
   43.7640    5.8701    9.5089 H   0  0  0  0  0  0  0  0  0  0  0  0
   45.2265    2.6484   11.9520 H   0  0  0  0  0  0  0  0  0  0  0  0
   43.7804    3.4013   13.8052 H   0  0  0  0  0  0  0  0  0  0  0  0
   42.3206    6.6191   11.3650 H   0  0  0  0  0  0  0  0  0  0  0  0
   42.3185    5.3871   13.5198 H   0  0  0  0  0  0  0  0  0  0  0  0
  2  1  1  0
  3  1  1  0
  1  4  1  0
  3  5  1  0
  6  4  2  0
  7  4  1  0
  8  7  2  0
  9  6  1  0
 10  9  2  0
  3  2  1  0
  8 10  1  0
 12 11  1  0
 13 11  1  0
 11 14  1  0
 13 15  1  0
 16 14  2  0
 17 14  1  0
 18 17  2  0
 19 16  1  0
 20 19  2  0
 13 12  1  0
 18 20  1  0
  1 21  1  6
  2 22  1  0
  2 23  1  0
  3 24  1  1
  5 25  1  0
  5 26  1  0
  6 27  1  0
  7 28  1  0
  8 29  1  0
  9 30  1  0
 10 31  1  0
 11 32  1  1
 12 33  1  0
 12 34  1  0
 13 35  1  6
 15 36  1  0
 15 37  1  0
 16 38  1  0
 17 39  1  0
 18 40  1  0
 19 41  1  0
 20 42  1  0
M  END
> <Uni-Dock RESULT> 
ENERGY=   -6.158  LOWER_BOUND=    2.457  UPPER_BOUND=    5.276
INTER + INTRA:          -6.158
INTER:                  -6.158
INTRA:                   0.000
UNBOUND:                 0.000

$$$$

     RDKit          3D

 42 44  0  0  0  0  0  0  0  0999 V2000
   45.0970    5.2321   11.7454 C   0  0  1  0  0  0  0  0  0  0  0  0
   44.7997    3.9666   12.5160 C   0  0  0  0  0  0  0  0  0  0  0  0
   43.6880    4.9168   12.1994 C   0  0  2  0  0  0  0  0  0  0  0  0
   45.8665    6.3562   12.3981 C   0  0  0  0  0  0  0  0  0  0  0  0
   42.6879    4.5228   11.2074 N   0  0  0  0  0  0  0  0  0  0  0  0
   45.3742    7.6721   12.3978 C   0  0  0  0  0  0  0  0  0  0  0  0
   47.1175    6.1359   12.9979 C   0  0  0  0  0  0  0  0  0  0  0  0
   47.8362    7.1774   13.5907 C   0  0  0  0  0  0  0  0  0  0  0  0
   46.0879    8.7189   12.9878 C   0  0  0  0  0  0  0  0  0  0  0  0
   47.3187    8.4696   13.5878 C   0  0  0  0  0  0  0  0  0  0  0  0
   44.4406    5.5470   13.0929 C   0  0  2  0  0  0  0  0  0  0  0  0
   44.2716    4.1373   12.5745 C   0  0  0  0  0  0  0  0  0  0  0  0
   43.6072    5.2716   11.8594 C   0  0  1  0  0  0  0  0  0  0  0  0
   45.7710    6.2503   12.9618 C   0  0  0  0  0  0  0  0  0  0  0  0
   42.1518    5.3957   11.9374 N   0  0  0  0  0  0  0  0  0  0  0  0
   46.9565    5.6710   13.4440 C   0  0  0  0  0  0  0  0  0  0  0  0
   45.8665    7.5258   12.3803 C   0  0  0  0  0  0  0  0  0  0  0  0
   47.0928    8.1863   12.2668 C   0  0  0  0  0  0  0  0  0  0  0  0
   48.1864    6.3254   13.3335 C   0  0  0  0  0  0  0  0  0  0  0  0
   48.2539    7.5834   12.7422 C   0  0  0  0  0  0  0  0  0  0  0  0
   45.3013    5.0984   10.6844 H   0  0  0  0  0  0  0  0  0  0  0  0
   44.8511    3.0292   11.9742 H   0  0  0  0  0  0  0  0  0  0  0  0
   45.1149    3.8935   13.5502 H   0  0  0  0  0  0  0  0  0  0  0  0
   43.2934    5.4876   13.0381 H   0  0  0  0  0  0  0  0  0  0  0  0
   41.9542    3.9633   11.6417 H   0  0  0  0  0  0  0  0  0  0  0  0
   42.2246    5.3441   10.8195 H   0  0  0  0  0  0  0  0  0  0  0  0
   44.4175    7.8854   11.9255 H   0  0  0  0  0  0  0  0  0  0  0  0
   47.5403    5.1336   13.0008 H   0  0  0  0  0  0  0  0  0  0  0  0
   48.8001    6.9776   14.0513 H   0  0  0  0  0  0  0  0  0  0  0  0
   45.6824    9.7270   12.9748 H   0  0  0  0  0  0  0  0  0  0  0  0
   47.8763    9.2815   14.0465 H   0  0  0  0  0  0  0  0  0  0  0  0
   43.8904    5.7817   14.0025 H   0  0  0  0  0  0  0  0  0  0  0  0
   43.6559    3.4616   13.1573 H   0  0  0  0  0  0  0  0  0  0  0  0
   45.1071    3.6546   12.0810 H   0  0  0  0  0  0  0  0  0  0  0  0
   44.0338    5.5462   10.8963 H   0  0  0  0  0  0  0  0  0  0  0  0
   41.7060    4.8475   11.2024 H   0  0  0  0  0  0  0  0  0  0  0  0
   41.8659    6.3618   11.7810 H   0  0  0  0  0  0  0  0  0  0  0  0
   46.9201    4.6911   13.9158 H   0  0  0  0  0  0  0  0  0  0  0  0
   44.9670    8.0145   12.0113 H   0  0  0  0  0  0  0  0  0  0  0  0
   47.1380    9.1713   11.8102 H   0  0  0  0  0  0  0  0  0  0  0  0
   49.0882    5.8522   13.7129 H   0  0  0  0  0  0  0  0  0  0  0  0
   49.2087    8.0950   12.6563 H   0  0  0  0  0  0  0  0  0  0  0  0
  2  1  1  0
  3  1  1  0
  1  4  1  0
  3  5  1  0
  6  4  2  0
  7  4  1  0
  8  7  2  0
  9  6  1  0
 10  9  2  0
  3  2  1  0
  8 10  1  0
 12 11  1  0
 13 11  1  0
 11 14  1  0
 13 15  1  0
 16 14  2  0
 17 14  1  0
 18 17  2  0
 19 16  1  0
 20 19  2  0
 13 12  1  0
 18 20  1  0
  1 21  1  6
  2 22  1  0
  2 23  1  0
  3 24  1  1
  5 25  1  0
  5 26  1  0
  6 27  1  0
  7 28  1  0
  8 29  1  0
  9 30  1  0
 10 31  1  0
 11 32  1  1
 12 33  1  0
 12 34  1  0
 13 35  1  6
 15 36  1  0
 15 37  1  0
 16 38  1  0
 17 39  1  0
 18 40  1  0
 19 41  1  0
 20 42  1  0
M  END
> <Uni-Dock RESULT> 
ENERGY=   -5.815  LOWER_BOUND=    4.810  UPPER_BOUND=    6.216
INTER + INTRA:          -5.815
INTER:                  -5.815
INTRA:                   0.000
UNBOUND:                 0.000

$$$$
