
     RDKit          3D

 42 44  0  0  0  0  0  0  0  0999 V2000
   44.3558    2.8422    9.5086 C   0  0  1  0  0  0  0  0  0  0  0  0
   44.5418    3.4370    8.1307 C   0  0  0  0  0  0  0  0  0  0  0  0
   45.6759    2.7050    8.7781 C   0  0  2  0  0  0  0  0  0  0  0  0
   44.2524    3.7459   10.7149 C   0  0  0  0  0  0  0  0  0  0  0  0
   46.0874    1.4063    8.2468 N   0  0  0  0  0  0  0  0  0  0  0  0
   43.2867    4.7640   10.7838 C   0  0  0  0  0  0  0  0  0  0  0  0
   45.0972    3.5811   11.8257 C   0  0  0  0  0  0  0  0  0  0  0  0
   44.9977    4.4094   12.9469 C   0  0  0  0  0  0  0  0  0  0  0  0
   43.1816    5.5951   11.9024 C   0  0  0  0  0  0  0  0  0  0  0  0
   44.0406    5.4193   12.9829 C   0  0  0  0  0  0  0  0  0  0  0  0
   45.5491    3.3740    9.6618 C   0  0  2  0  0  0  0  0  0  0  0  0
   45.2117    3.5688    8.2013 C   0  0  0  0  0  0  0  0  0  0  0  0
   45.0193    2.2247    8.8302 C   0  0  1  0  0  0  0  0  0  0  0  0
   44.6807    3.9963   10.7298 C   0  0  0  0  0  0  0  0  0  0  0  0
   45.9053    1.1228    8.4547 N   0  0  0  0  0  0  0  0  0  0  0  0
   44.4132    5.3756   10.7421 C   0  0  0  0  0  0  0  0  0  0  0  0
   44.1362    3.2241   11.7694 C   0  0  0  0  0  0  0  0  0  0  0  0
   43.3458    3.7988   12.7684 C   0  0  0  0  0  0  0  0  0  0  0  0
   43.6240    5.9568   11.7383 C   0  0  0  0  0  0  0  0  0  0  0  0
   43.0888    5.1663   12.7513 C   0  0  0  0  0  0  0  0  0  0  0  0
   43.7285    1.9549    9.5562 H   0  0  0  0  0  0  0  0  0  0  0  0
   44.6402    4.5121    8.0293 H   0  0  0  0  0  0  0  0  0  0  0  0
   44.0247    2.9692    7.3014 H   0  0  0  0  0  0  0  0  0  0  0  0
   46.5050    3.3236    9.1181 H   0  0  0  0  0  0  0  0  0  0  0  0
   46.5214    0.8426    8.9776 H   0  0  0  0  0  0  0  0  0  0  0  0
   45.2901    0.8659    7.9109 H   0  0  0  0  0  0  0  0  0  0  0  0
   42.6031    4.9115    9.9501 H   0  0  0  0  0  0  0  0  0  0  0  0
   45.8490    2.7942   11.8163 H   0  0  0  0  0  0  0  0  0  0  0  0
   45.6688    4.2643   13.7894 H   0  0  0  0  0  0  0  0  0  0  0  0
   42.4277    6.3772   11.9275 H   0  0  0  0  0  0  0  0  0  0  0  0
   43.9617    6.0651   13.8532 H   0  0  0  0  0  0  0  0  0  0  0  0
   46.6104    3.3570    9.8996 H   0  0  0  0  0  0  0  0  0  0  0  0
   46.0300    3.7064    7.5042 H   0  0  0  0  0  0  0  0  0  0  0  0
   44.3193    4.1253    7.9364 H   0  0  0  0  0  0  0  0  0  0  0  0
   43.9859    1.9226    8.9903 H   0  0  0  0  0  0  0  0  0  0  0  0
   46.8587    1.4459    8.2955 H   0  0  0  0  0  0  0  0  0  0  0  0
   45.9641    0.4390    9.2095 H   0  0  0  0  0  0  0  0  0  0  0  0
   44.8260    6.0087    9.9598 H   0  0  0  0  0  0  0  0  0  0  0  0
   44.3310    2.1545   11.8012 H   0  0  0  0  0  0  0  0  0  0  0  0
   42.9337    3.1773   13.5588 H   0  0  0  0  0  0  0  0  0  0  0  0
   43.4297    7.0258   11.7213 H   0  0  0  0  0  0  0  0  0  0  0  0
   42.4744    5.6155   13.5269 H   0  0  0  0  0  0  0  0  0  0  0  0
  2  1  1  0
  3  1  1  0
  1  4  1  0
  3  5  1  0
  6  4  2  0
  7  4  1  0
  8  7  2  0
  9  6  1  0
 10  9  2  0
  3  2  1  0
  8 10  1  0
 12 11  1  0
 13 11  1  0
 11 14  1  0
 13 15  1  0
 16 14  2  0
 17 14  1  0
 18 17  2  0
 19 16  1  0
 20 19  2  0
 13 12  1  0
 18 20  1  0
  1 21  1  1
  2 22  1  0
  2 23  1  0
  3 24  1  6
  5 25  1  0
  5 26  1  0
  6 27  1  0
  7 28  1  0
  8 29  1  0
  9 30  1  0
 10 31  1  0
 11 32  1  6
 12 33  1  0
 12 34  1  0
 13 35  1  1
 15 36  1  0
 15 37  1  0
 16 38  1  0
 17 39  1  0
 18 40  1  0
 19 41  1  0
 20 42  1  0
M  END
> <Uni-Dock RESULT> 
ENERGY=   -7.092  LOWER_BOUND=    0.000  UPPER_BOUND=    0.000
INTER + INTRA:          -7.092
INTER:                  -7.092
INTRA:                   0.000
UNBOUND:                 0.000

$$$$

     RDKit          3D

 42 44  0  0  0  0  0  0  0  0999 V2000
   45.5229    3.5845    9.5164 C   0  0  1  0  0  0  0  0  0  0  0  0
   45.3139    2.1532    9.0751 C   0  0  0  0  0  0  0  0  0  0  0  0
   44.9330    3.2720    8.1564 C   0  0  2  0  0  0  0  0  0  0  0  0
   44.6506    4.1774   10.5980 C   0  0  0  0  0  0  0  0  0  0  0  0
   45.7194    3.5052    6.9458 N   0  0  0  0  0  0  0  0  0  0  0  0
   44.5414    3.5726   11.8614 C   0  0  0  0  0  0  0  0  0  0  0  0
   43.9413    5.3728   10.3911 C   0  0  0  0  0  0  0  0  0  0  0  0
   43.1412    5.9288   11.3929 C   0  0  0  0  0  0  0  0  0  0  0  0
   43.7436    4.1240   12.8676 C   0  0  0  0  0  0  0  0  0  0  0  0
   43.0403    5.3012   12.6311 C   0  0  0  0  0  0  0  0  0  0  0  0
   44.3225    3.6934    8.9897 C   0  0  2  0  0  0  0  0  0  0  0  0
   44.7628    2.2797    8.6861 C   0  0  0  0  0  0  0  0  0  0  0  0
   45.6939    3.4180    8.4097 C   0  0  1  0  0  0  0  0  0  0  0  0
   44.1871    4.1540   10.4221 C   0  0  0  0  0  0  0  0  0  0  0  0
   45.9902    3.7831    7.0244 N   0  0  0  0  0  0  0  0  0  0  0  0
   43.3757    3.4634   11.3380 C   0  0  0  0  0  0  0  0  0  0  0  0
   44.8408    5.3092   10.8821 C   0  0  0  0  0  0  0  0  0  0  0  0
   44.7050    5.7476   12.2021 C   0  0  0  0  0  0  0  0  0  0  0  0
   43.2353    3.8966   12.6592 C   0  0  0  0  0  0  0  0  0  0  0  0
   43.9025    5.0393   13.0912 C   0  0  0  0  0  0  0  0  0  0  0  0
   46.5560    3.9239    9.5352 H   0  0  0  0  0  0  0  0  0  0  0  0
   44.5072    1.5778    9.5156 H   0  0  0  0  0  0  0  0  0  0  0  0
   46.1903    1.5608    8.8403 H   0  0  0  0  0  0  0  0  0  0  0  0
   43.8640    3.4315    8.0237 H   0  0  0  0  0  0  0  0  0  0  0  0
   45.6575    4.4830    6.6625 H   0  0  0  0  0  0  0  0  0  0  0  0
   46.7106    3.3185    7.0977 H   0  0  0  0  0  0  0  0  0  0  0  0
   45.0893    2.6547   12.0652 H   0  0  0  0  0  0  0  0  0  0  0  0
   44.0114    5.8791    9.4303 H   0  0  0  0  0  0  0  0  0  0  0  0
   42.5977    6.8507   11.2034 H   0  0  0  0  0  0  0  0  0  0  0  0
   43.6745    3.6330   13.8345 H   0  0  0  0  0  0  0  0  0  0  0  0
   42.4182    5.7311   13.4114 H   0  0  0  0  0  0  0  0  0  0  0  0
   43.5795    4.1088    8.3124 H   0  0  0  0  0  0  0  0  0  0  0  0
   44.2981    1.7708    7.8496 H   0  0  0  0  0  0  0  0  0  0  0  0
   45.0166    1.6190    9.5078 H   0  0  0  0  0  0  0  0  0  0  0  0
   46.5487    3.5010    9.0784 H   0  0  0  0  0  0  0  0  0  0  0  0
   45.1727    3.6758    6.4253 H   0  0  0  0  0  0  0  0  0  0  0  0
   46.2545    4.7666    6.9632 H   0  0  0  0  0  0  0  0  0  0  0  0
   42.8447    2.5702   11.0164 H   0  0  0  0  0  0  0  0  0  0  0  0
   45.4682    5.8778   10.1995 H   0  0  0  0  0  0  0  0  0  0  0  0
   45.2254    6.6425   12.5327 H   0  0  0  0  0  0  0  0  0  0  0  0
   42.6044    3.3410   13.3477 H   0  0  0  0  0  0  0  0  0  0  0  0
   43.7954    5.3782   14.1182 H   0  0  0  0  0  0  0  0  0  0  0  0
  2  1  1  0
  3  1  1  0
  1  4  1  0
  3  5  1  0
  6  4  2  0
  7  4  1  0
  8  7  2  0
  9  6  1  0
 10  9  2  0
  3  2  1  0
  8 10  1  0
 12 11  1  0
 13 11  1  0
 11 14  1  0
 13 15  1  0
 16 14  2  0
 17 14  1  0
 18 17  2  0
 19 16  1  0
 20 19  2  0
 13 12  1  0
 18 20  1  0
  1 21  1  1
  2 22  1  0
  2 23  1  0
  3 24  1  6
  5 25  1  0
  5 26  1  0
  6 27  1  0
  7 28  1  0
  8 29  1  0
  9 30  1  0
 10 31  1  0
 11 32  1  6
 12 33  1  0
 12 34  1  0
 13 35  1  1
 15 36  1  0
 15 37  1  0
 16 38  1  0
 17 39  1  0
 18 40  1  0
 19 41  1  0
 20 42  1  0
M  END
> <Uni-Dock RESULT> 
ENERGY=   -6.881  LOWER_BOUND=    1.022  UPPER_BOUND=    1.934
INTER + INTRA:          -6.881
INTER:                  -6.881
INTRA:                   0.000
UNBOUND:                 0.000

$$$$

     RDKit          3D

 42 44  0  0  0  0  0  0  0  0999 V2000
   44.6093    3.2997    8.3953 C   0  0  1  0  0  0  0  0  0  0  0  0
   44.2513    2.4948    9.6246 C   0  0  0  0  0  0  0  0  0  0  0  0
   44.7149    3.9099    9.7778 C   0  0  2  0  0  0  0  0  0  0  0  0
   45.8628    2.9746    7.6172 C   0  0  0  0  0  0  0  0  0  0  0  0
   43.7617    4.9350   10.2007 N   0  0  0  0  0  0  0  0  0  0  0  0
   46.0932    1.6851    7.1093 C   0  0  0  0  0  0  0  0  0  0  0  0
   46.8294    3.9578    7.3453 C   0  0  0  0  0  0  0  0  0  0  0  0
   47.9854    3.6625    6.6177 C   0  0  0  0  0  0  0  0  0  0  0  0
   47.2468    1.3836    6.3802 C   0  0  0  0  0  0  0  0  0  0  0  0
   48.1949    2.3729    6.1378 C   0  0  0  0  0  0  0  0  0  0  0  0
   45.6132    3.6374    9.1751 C   0  0  2  0  0  0  0  0  0  0  0  0
   44.6989    2.8038   10.0432 C   0  0  0  0  0  0  0  0  0  0  0  0
   44.1243    3.9105    9.2159 C   0  0  1  0  0  0  0  0  0  0  0  0
   46.2372    3.0378    7.9368 C   0  0  0  0  0  0  0  0  0  0  0  0
   43.6179    5.1129    9.8775 N   0  0  0  0  0  0  0  0  0  0  0  0
   46.9992    1.8591    8.0001 C   0  0  0  0  0  0  0  0  0  0  0  0
   46.1067    3.6552    6.6817 C   0  0  0  0  0  0  0  0  0  0  0  0
   46.6961    3.1124    5.5367 C   0  0  0  0  0  0  0  0  0  0  0  0
   47.5916    1.3111    6.8592 C   0  0  0  0  0  0  0  0  0  0  0  0
   47.4378    1.9385    5.6261 C   0  0  0  0  0  0  0  0  0  0  0  0
   43.7695    3.6192    7.7823 H   0  0  0  0  0  0  0  0  0  0  0  0
   44.9255    1.7140    9.9586 H   0  0  0  0  0  0  0  0  0  0  0  0
   43.2059    2.2670    9.7959 H   0  0  0  0  0  0  0  0  0  0  0  0
   45.7123    4.0379   10.1958 H   0  0  0  0  0  0  0  0  0  0  0  0
   44.0479    5.8521    9.8582 H   0  0  0  0  0  0  0  0  0  0  0  0
   42.8322    4.7683    9.8152 H   0  0  0  0  0  0  0  0  0  0  0  0
   45.3593    0.9011    7.2847 H   0  0  0  0  0  0  0  0  0  0  0  0
   46.6803    4.9724    7.7096 H   0  0  0  0  0  0  0  0  0  0  0  0
   48.7201    4.4405    6.4280 H   0  0  0  0  0  0  0  0  0  0  0  0
   47.4012    0.3767    6.0023 H   0  0  0  0  0  0  0  0  0  0  0  0
   49.0933    2.1406    5.5724 H   0  0  0  0  0  0  0  0  0  0  0  0
   46.2537    4.3382    9.7062 H   0  0  0  0  0  0  0  0  0  0  0  0
   44.7601    2.9331   11.1175 H   0  0  0  0  0  0  0  0  0  0  0  0
   44.4684    1.7877    9.7421 H   0  0  0  0  0  0  0  0  0  0  0  0
   43.5322    3.5988    8.3575 H   0  0  0  0  0  0  0  0  0  0  0  0
   44.1858    5.3634   10.6859 H   0  0  0  0  0  0  0  0  0  0  0  0
   43.6620    5.9131    9.2461 H   0  0  0  0  0  0  0  0  0  0  0  0
   47.1321    1.3574    8.9561 H   0  0  0  0  0  0  0  0  0  0  0  0
   45.5346    4.5761    6.5942 H   0  0  0  0  0  0  0  0  0  0  0  0
   46.5757    3.6086    4.5774 H   0  0  0  0  0  0  0  0  0  0  0  0
   48.1724    0.3960    6.9362 H   0  0  0  0  0  0  0  0  0  0  0  0
   47.8970    1.5144    4.7372 H   0  0  0  0  0  0  0  0  0  0  0  0
  2  1  1  0
  3  1  1  0
  1  4  1  0
  3  5  1  0
  6  4  2  0
  7  4  1  0
  8  7  2  0
  9  6  1  0
 10  9  2  0
  3  2  1  0
  8 10  1  0
 12 11  1  0
 13 11  1  0
 11 14  1  0
 13 15  1  0
 16 14  2  0
 17 14  1  0
 18 17  2  0
 19 16  1  0
 20 19  2  0
 13 12  1  0
 18 20  1  0
  1 21  1  1
  2 22  1  0
  2 23  1  0
  3 24  1  6
  5 25  1  0
  5 26  1  0
  6 27  1  0
  7 28  1  0
  8 29  1  0
  9 30  1  0
 10 31  1  0
 11 32  1  6
 12 33  1  0
 12 34  1  0
 13 35  1  1
 15 36  1  0
 15 37  1  0
 16 38  1  0
 17 39  1  0
 18 40  1  0
 19 41  1  0
 20 42  1  0
M  END
> <Uni-Dock RESULT> 
ENERGY=   -6.779  LOWER_BOUND=    2.543  UPPER_BOUND=    5.426
INTER + INTRA:          -6.779
INTER:                  -6.779
INTRA:                   0.000
UNBOUND:                 0.000

$$$$

     RDKit          3D

 42 44  0  0  0  0  0  0  0  0999 V2000
   43.4159    3.7332   11.0824 C   0  0  1  0  0  0  0  0  0  0  0  0
   43.5656    2.8668   12.3129 C   0  0  0  0  0  0  0  0  0  0  0  0
   43.8997    4.3240   12.3909 C   0  0  2  0  0  0  0  0  0  0  0  0
   44.3753    3.5766    9.9259 C   0  0  0  0  0  0  0  0  0  0  0  0
   43.0319    5.2187   13.1557 N   0  0  0  0  0  0  0  0  0  0  0  0
   44.5646    2.3345    9.2973 C   0  0  0  0  0  0  0  0  0  0  0  0
   45.0898    4.6739    9.4157 C   0  0  0  0  0  0  0  0  0  0  0  0
   45.9707    4.5341    8.3399 C   0  0  0  0  0  0  0  0  0  0  0  0
   45.4434    2.1882    8.2206 C   0  0  0  0  0  0  0  0  0  0  0  0
   46.1495    3.2887    7.7445 C   0  0  0  0  0  0  0  0  0  0  0  0
   44.5767    4.1733   11.5171 C   0  0  2  0  0  0  0  0  0  0  0  0
   44.0893    3.2188   12.5830 C   0  0  0  0  0  0  0  0  0  0  0  0
   43.1619    4.2649   12.0492 C   0  0  1  0  0  0  0  0  0  0  0  0
   44.8243    3.6779   10.1116 C   0  0  0  0  0  0  0  0  0  0  0  0
   42.7727    5.3844   12.9066 N   0  0  0  0  0  0  0  0  0  0  0  0
   45.6870    2.5980    9.8589 C   0  0  0  0  0  0  0  0  0  0  0  0
   44.2273    4.3001    9.0026 C   0  0  0  0  0  0  0  0  0  0  0  0
   44.4666    3.8549    7.6998 C   0  0  0  0  0  0  0  0  0  0  0  0
   45.9310    2.1481    8.5586 C   0  0  0  0  0  0  0  0  0  0  0  0
   45.3183    2.7770    7.4785 C   0  0  0  0  0  0  0  0  0  0  0  0
   42.3933    3.9618   10.7908 H   0  0  0  0  0  0  0  0  0  0  0  0
   44.3914    2.1661   12.3673 H   0  0  0  0  0  0  0  0  0  0  0  0
   42.6636    2.5118   12.7970 H   0  0  0  0  0  0  0  0  0  0  0  0
   44.9590    4.5623   12.4735 H   0  0  0  0  0  0  0  0  0  0  0  0
   43.0912    6.1701   12.7931 H   0  0  0  0  0  0  0  0  0  0  0  0
   42.0511    4.9493   13.0798 H   0  0  0  0  0  0  0  0  0  0  0  0
   44.0160    1.4647    9.6532 H   0  0  0  0  0  0  0  0  0  0  0  0
   44.9596    5.6558    9.8667 H   0  0  0  0  0  0  0  0  0  0  0  0
   46.5161    5.3983    7.9699 H   0  0  0  0  0  0  0  0  0  0  0  0
   45.5734    1.2148    7.7555 H   0  0  0  0  0  0  0  0  0  0  0  0
   46.8345    3.1773    6.9084 H   0  0  0  0  0  0  0  0  0  0  0  0
   45.2762    4.9352   11.8543 H   0  0  0  0  0  0  0  0  0  0  0  0
   44.4825    3.3330   13.5864 H   0  0  0  0  0  0  0  0  0  0  0  0
   43.8836    2.1887   12.3134 H   0  0  0  0  0  0  0  0  0  0  0  0
   42.3597    3.9016   11.4095 H   0  0  0  0  0  0  0  0  0  0  0  0
   43.5424    5.6850   13.5032 H   0  0  0  0  0  0  0  0  0  0  0  0
   42.5230    6.1965   12.3418 H   0  0  0  0  0  0  0  0  0  0  0  0
   46.1765    2.0970   10.6911 H   0  0  0  0  0  0  0  0  0  0  0  0
   43.5627    5.1472    9.1568 H   0  0  0  0  0  0  0  0  0  0  0  0
   43.9883    4.3521    6.8602 H   0  0  0  0  0  0  0  0  0  0  0  0
   46.5997    1.3079    8.3921 H   0  0  0  0  0  0  0  0  0  0  0  0
   45.5059    2.4289    6.4663 H   0  0  0  0  0  0  0  0  0  0  0  0
  2  1  1  0
  3  1  1  0
  1  4  1  0
  3  5  1  0
  6  4  2  0
  7  4  1  0
  8  7  2  0
  9  6  1  0
 10  9  2  0
  3  2  1  0
  8 10  1  0
 12 11  1  0
 13 11  1  0
 11 14  1  0
 13 15  1  0
 16 14  2  0
 17 14  1  0
 18 17  2  0
 19 16  1  0
 20 19  2  0
 13 12  1  0
 18 20  1  0
  1 21  1  1
  2 22  1  0
  2 23  1  0
  3 24  1  6
  5 25  1  0
  5 26  1  0
  6 27  1  0
  7 28  1  0
  8 29  1  0
  9 30  1  0
 10 31  1  0
 11 32  1  6
 12 33  1  0
 12 34  1  0
 13 35  1  1
 15 36  1  0
 15 37  1  0
 16 38  1  0
 17 39  1  0
 18 40  1  0
 19 41  1  0
 20 42  1  0
M  END
> <Uni-Dock RESULT> 
ENERGY=   -6.277  LOWER_BOUND=    2.389  UPPER_BOUND=    4.485
INTER + INTRA:          -6.277
INTER:                  -6.277
INTRA:                   0.000
UNBOUND:                 0.000

$$$$

     RDKit          3D

 42 44  0  0  0  0  0  0  0  0999 V2000
   45.7191    3.2934    9.2341 C   0  0  1  0  0  0  0  0  0  0  0  0
   44.7694    4.4701    9.2585 C   0  0  0  0  0  0  0  0  0  0  0  0
   44.2493    3.0957    9.5436 C   0  0  2  0  0  0  0  0  0  0  0  0
   46.2850    2.8055    7.9210 C   0  0  0  0  0  0  0  0  0  0  0  0
   43.8260    2.7564   10.9015 N   0  0  0  0  0  0  0  0  0  0  0  0
   46.9844    3.6691    7.0614 C   0  0  0  0  0  0  0  0  0  0  0  0
   46.1605    1.4627    7.5258 C   0  0  0  0  0  0  0  0  0  0  0  0
   46.6912    1.0063    6.3163 C   0  0  0  0  0  0  0  0  0  0  0  0
   47.5182    3.2187    5.8510 C   0  0  0  0  0  0  0  0  0  0  0  0
   47.3678    1.8868    5.4771 C   0  0  0  0  0  0  0  0  0  0  0  0
   44.7061    2.7677    8.5800 C   0  0  2  0  0  0  0  0  0  0  0  0
   44.2181    4.1194    9.0484 C   0  0  0  0  0  0  0  0  0  0  0  0
   44.9045    3.2069   10.0156 C   0  0  1  0  0  0  0  0  0  0  0  0
   45.8921    2.6709    7.6493 C   0  0  0  0  0  0  0  0  0  0  0  0
   44.1291    2.5816   11.0868 N   0  0  0  0  0  0  0  0  0  0  0  0
   45.9168    3.3568    6.4233 C   0  0  0  0  0  0  0  0  0  0  0  0
   46.9997    1.8645    7.9600 C   0  0  0  0  0  0  0  0  0  0  0  0
   48.0916    1.7595    7.0941 C   0  0  0  0  0  0  0  0  0  0  0  0
   47.0052    3.2559    5.5527 C   0  0  0  0  0  0  0  0  0  0  0  0
   48.0941    2.4572    5.8902 C   0  0  0  0  0  0  0  0  0  0  0  0
   46.4086    3.2291   10.0727 H   0  0  0  0  0  0  0  0  0  0  0  0
   44.4721    4.9275    8.3214 H   0  0  0  0  0  0  0  0  0  0  0  0
   44.8554    5.1754   10.0766 H   0  0  0  0  0  0  0  0  0  0  0  0
   43.6269    2.6552    8.7661 H   0  0  0  0  0  0  0  0  0  0  0  0
   43.9160    1.7536   11.0638 H   0  0  0  0  0  0  0  0  0  0  0  0
   44.4117    3.2087   11.6036 H   0  0  0  0  0  0  0  0  0  0  0  0
   47.1163    4.7125    7.3411 H   0  0  0  0  0  0  0  0  0  0  0  0
   45.6378    0.7595    8.1712 H   0  0  0  0  0  0  0  0  0  0  0  0
   46.5741   -0.0361    6.0319 H   0  0  0  0  0  0  0  0  0  0  0  0
   48.0514    3.9094    5.2034 H   0  0  0  0  0  0  0  0  0  0  0  0
   47.7807    1.5345    4.5358 H   0  0  0  0  0  0  0  0  0  0  0  0
   43.9310    2.0266    8.3981 H   0  0  0  0  0  0  0  0  0  0  0  0
   43.1489    4.2698    9.1419 H   0  0  0  0  0  0  0  0  0  0  0  0
   44.7549    5.0096    8.7391 H   0  0  0  0  0  0  0  0  0  0  0  0
   45.9070    3.5063   10.3159 H   0  0  0  0  0  0  0  0  0  0  0  0
   43.1916    2.3320   10.7745 H   0  0  0  0  0  0  0  0  0  0  0  0
   44.5672    1.7088   11.3819 H   0  0  0  0  0  0  0  0  0  0  0  0
   45.0728    3.9829    6.1424 H   0  0  0  0  0  0  0  0  0  0  0  0
   47.0124    1.3082    8.8945 H   0  0  0  0  0  0  0  0  0  0  0  0
   48.9374    1.1316    7.3612 H   0  0  0  0  0  0  0  0  0  0  0  0
   46.9997    3.8006    4.6125 H   0  0  0  0  0  0  0  0  0  0  0  0
   48.9421    2.3773    5.2152 H   0  0  0  0  0  0  0  0  0  0  0  0
  2  1  1  0
  3  1  1  0
  1  4  1  0
  3  5  1  0
  6  4  2  0
  7  4  1  0
  8  7  2  0
  9  6  1  0
 10  9  2  0
  3  2  1  0
  8 10  1  0
 12 11  1  0
 13 11  1  0
 11 14  1  0
 13 15  1  0
 16 14  2  0
 17 14  1  0
 18 17  2  0
 19 16  1  0
 20 19  2  0
 13 12  1  0
 18 20  1  0
  1 21  1  1
  2 22  1  0
  2 23  1  0
  3 24  1  6
  5 25  1  0
  5 26  1  0
  6 27  1  0
  7 28  1  0
  8 29  1  0
  9 30  1  0
 10 31  1  0
 11 32  1  6
 12 33  1  0
 12 34  1  0
 13 35  1  1
 15 36  1  0
 15 37  1  0
 16 38  1  0
 17 39  1  0
 18 40  1  0
 19 41  1  0
 20 42  1  0
M  END
> <Uni-Dock RESULT> 
ENERGY=   -5.957  LOWER_BOUND=    2.413  UPPER_BOUND=    5.305
INTER + INTRA:          -5.957
INTER:                  -5.957
INTRA:                   0.000
UNBOUND:                 0.000

$$$$

     RDKit          3D

 42 44  0  0  0  0  0  0  0  0999 V2000
   43.9807    5.3599   12.6331 C   0  0  1  0  0  0  0  0  0  0  0  0
   42.6155    5.6422   12.0469 C   0  0  0  0  0  0  0  0  0  0  0  0
   43.4866    4.5984   11.4203 C   0  0  2  0  0  0  0  0  0  0  0  0
   45.0913    6.3734   12.4856 C   0  0  0  0  0  0  0  0  0  0  0  0
   43.1168    3.1888   11.5411 N   0  0  0  0  0  0  0  0  0  0  0  0
   44.9339    7.6984   12.9255 C   0  0  0  0  0  0  0  0  0  0  0  0
   46.3338    6.0203   11.9322 C   0  0  0  0  0  0  0  0  0  0  0  0
   47.3664    6.9531   11.8031 C   0  0  0  0  0  0  0  0  0  0  0  0
   45.9628    8.6358   12.8001 C   0  0  0  0  0  0  0  0  0  0  0  0
   47.1785    8.2629   12.2349 C   0  0  0  0  0  0  0  0  0  0  0  0
   44.2914    5.3682   11.3550 C   0  0  2  0  0  0  0  0  0  0  0  0
   42.7858    5.4944   11.3987 C   0  0  0  0  0  0  0  0  0  0  0  0
   43.4623    4.4422   12.2200 C   0  0  1  0  0  0  0  0  0  0  0  0
   45.1595    6.4250   11.9967 C   0  0  0  0  0  0  0  0  0  0  0  0
   43.3104    3.0349   11.8503 N   0  0  0  0  0  0  0  0  0  0  0  0
   45.0367    7.7810   11.6499 C   0  0  0  0  0  0  0  0  0  0  0  0
   46.1448    6.0866   12.9392 C   0  0  0  0  0  0  0  0  0  0  0  0
   46.9608    7.0595   13.5229 C   0  0  0  0  0  0  0  0  0  0  0  0
   45.8497    8.7588   12.2294 C   0  0  0  0  0  0  0  0  0  0  0  0
   46.8115    8.3967   13.1682 C   0  0  0  0  0  0  0  0  0  0  0  0
   43.9836    4.8240   13.5795 H   0  0  0  0  0  0  0  0  0  0  0  0
   42.4606    6.5585   11.4881 H   0  0  0  0  0  0  0  0  0  0  0  0
   41.7455    5.3261   12.6102 H   0  0  0  0  0  0  0  0  0  0  0  0
   43.9160    4.8589   10.4541 H   0  0  0  0  0  0  0  0  0  0  0  0
   43.9444    2.5959   11.4804 H   0  0  0  0  0  0  0  0  0  0  0  0
   42.6915    2.9863   12.4459 H   0  0  0  0  0  0  0  0  0  0  0  0
   43.9917    8.0054   13.3752 H   0  0  0  0  0  0  0  0  0  0  0  0
   46.4996    4.9997   11.5926 H   0  0  0  0  0  0  0  0  0  0  0  0
   48.3150    6.6547   11.3648 H   0  0  0  0  0  0  0  0  0  0  0  0
   45.8124    9.6550   13.1454 H   0  0  0  0  0  0  0  0  0  0  0  0
   47.9795    8.9903   12.1350 H   0  0  0  0  0  0  0  0  0  0  0  0
   44.7003    4.9465   10.4394 H   0  0  0  0  0  0  0  0  0  0  0  0
   42.2244    5.1916   10.5225 H   0  0  0  0  0  0  0  0  0  0  0  0
   42.3423    6.3297   11.9295 H   0  0  0  0  0  0  0  0  0  0  0  0
   43.4708    4.6158   13.2944 H   0  0  0  0  0  0  0  0  0  0  0  0
   43.2884    2.9133   10.8387 H   0  0  0  0  0  0  0  0  0  0  0  0
   44.1083    2.4912   12.1800 H   0  0  0  0  0  0  0  0  0  0  0  0
   44.2923    8.0811   10.9157 H   0  0  0  0  0  0  0  0  0  0  0  0
   46.2787    5.0456   13.2245 H   0  0  0  0  0  0  0  0  0  0  0  0
   47.7125    6.7704   14.2525 H   0  0  0  0  0  0  0  0  0  0  0  0
   45.7304    9.8009   11.9458 H   0  0  0  0  0  0  0  0  0  0  0  0
   47.4448    9.1550   13.6208 H   0  0  0  0  0  0  0  0  0  0  0  0
  2  1  1  0
  3  1  1  0
  1  4  1  0
  3  5  1  0
  6  4  2  0
  7  4  1  0
  8  7  2  0
  9  6  1  0
 10  9  2  0
  3  2  1  0
  8 10  1  0
 12 11  1  0
 13 11  1  0
 11 14  1  0
 13 15  1  0
 16 14  2  0
 17 14  1  0
 18 17  2  0
 19 16  1  0
 20 19  2  0
 13 12  1  0
 18 20  1  0
  1 21  1  1
  2 22  1  0
  2 23  1  0
  3 24  1  6
  5 25  1  0
  5 26  1  0
  6 27  1  0
  7 28  1  0
  8 29  1  0
  9 30  1  0
 10 31  1  0
 11 32  1  6
 12 33  1  0
 12 34  1  0
 13 35  1  1
 15 36  1  0
 15 37  1  0
 16 38  1  0
 17 39  1  0
 18 40  1  0
 19 41  1  0
 20 42  1  0
M  END
> <Uni-Dock RESULT> 
ENERGY=   -5.734  LOWER_BOUND=    2.801  UPPER_BOUND=    4.008
INTER + INTRA:          -5.734
INTER:                  -5.734
INTRA:                   0.000
UNBOUND:                 0.000

$$$$

     RDKit          3D

 42 44  0  0  0  0  0  0  0  0999 V2000
   45.8847    6.6281   13.0265 C   0  0  1  0  0  0  0  0  0  0  0  0
   47.2465    6.8728   12.4159 C   0  0  0  0  0  0  0  0  0  0  0  0
   46.1573    7.8808   12.2194 C   0  0  2  0  0  0  0  0  0  0  0  0
   44.9868    5.5505   12.4652 C   0  0  0  0  0  0  0  0  0  0  0  0
   46.2509    9.1775   12.8890 N   0  0  0  0  0  0  0  0  0  0  0  0
   45.4221    4.2188   12.3601 C   0  0  0  0  0  0  0  0  0  0  0  0
   43.6723    5.8340   12.0572 C   0  0  0  0  0  0  0  0  0  0  0  0
   42.8362    4.8376   11.5465 C   0  0  0  0  0  0  0  0  0  0  0  0
   44.5906    3.2176   11.8509 C   0  0  0  0  0  0  0  0  0  0  0  0
   43.2979    3.5288   11.4406 C   0  0  0  0  0  0  0  0  0  0  0  0
   45.5157    7.0520   11.8373 C   0  0  2  0  0  0  0  0  0  0  0  0
   47.0172    7.2222   11.8714 C   0  0  0  0  0  0  0  0  0  0  0  0
   46.1921    7.7176   13.0173 C   0  0  1  0  0  0  0  0  0  0  0  0
   44.9047    5.6792   11.9930 C   0  0  0  0  0  0  0  0  0  0  0  0
   46.0473    9.1580   13.2280 N   0  0  0  0  0  0  0  0  0  0  0  0
   45.2714    4.6164   11.1502 C   0  0  0  0  0  0  0  0  0  0  0  0
   43.9226    5.4232   12.9643 C   0  0  0  0  0  0  0  0  0  0  0  0
   43.3434    4.1588   13.1007 C   0  0  0  0  0  0  0  0  0  0  0  0
   44.6958    3.3497   11.2809 C   0  0  0  0  0  0  0  0  0  0  0  0
   43.7318    3.1213   12.2587 C   0  0  0  0  0  0  0  0  0  0  0  0
   45.8265    6.7447   14.1063 H   0  0  0  0  0  0  0  0  0  0  0  0
   47.5478    6.2943   11.5496 H   0  0  0  0  0  0  0  0  0  0  0  0
   48.0661    7.1137   13.0823 H   0  0  0  0  0  0  0  0  0  0  0  0
   45.7374    7.9335   11.2161 H   0  0  0  0  0  0  0  0  0  0  0  0
   45.3216    9.5696   13.0397 H   0  0  0  0  0  0  0  0  0  0  0  0
   46.6749    9.0954   13.8130 H   0  0  0  0  0  0  0  0  0  0  0  0
   46.4282    3.9569   12.6818 H   0  0  0  0  0  0  0  0  0  0  0  0
   43.2934    6.8512   12.1363 H   0  0  0  0  0  0  0  0  0  0  0  0
   41.8261    5.0862   11.2316 H   0  0  0  0  0  0  0  0  0  0  0  0
   44.9545    2.1964   11.7773 H   0  0  0  0  0  0  0  0  0  0  0  0
   42.6500    2.7524   11.0431 H   0  0  0  0  0  0  0  0  0  0  0  0
   44.9855    7.7037   11.1462 H   0  0  0  0  0  0  0  0  0  0  0  0
   47.4626    7.9453   11.1982 H   0  0  0  0  0  0  0  0  0  0  0  0
   47.6419    6.3536   12.0484 H   0  0  0  0  0  0  0  0  0  0  0  0
   46.2734    7.1447   13.9392 H   0  0  0  0  0  0  0  0  0  0  0  0
   45.9927    9.6625   12.3441 H   0  0  0  0  0  0  0  0  0  0  0  0
   45.1770    9.3610   13.7200 H   0  0  0  0  0  0  0  0  0  0  0  0
   46.0209    4.7782   10.3786 H   0  0  0  0  0  0  0  0  0  0  0  0
   43.6034    6.2239   13.6276 H   0  0  0  0  0  0  0  0  0  0  0  0
   42.5886    3.9873   13.8635 H   0  0  0  0  0  0  0  0  0  0  0  0
   45.0010    2.5446   10.6181 H   0  0  0  0  0  0  0  0  0  0  0  0
   43.2829    2.1371   12.3628 H   0  0  0  0  0  0  0  0  0  0  0  0
  2  1  1  0
  3  1  1  0
  1  4  1  0
  3  5  1  0
  6  4  2  0
  7  4  1  0
  8  7  2  0
  9  6  1  0
 10  9  2  0
  3  2  1  0
  8 10  1  0
 12 11  1  0
 13 11  1  0
 11 14  1  0
 13 15  1  0
 16 14  2  0
 17 14  1  0
 18 17  2  0
 19 16  1  0
 20 19  2  0
 13 12  1  0
 18 20  1  0
  1 21  1  1
  2 22  1  0
  2 23  1  0
  3 24  1  6
  5 25  1  0
  5 26  1  0
  6 27  1  0
  7 28  1  0
  8 29  1  0
  9 30  1  0
 10 31  1  0
 11 32  1  6
 12 33  1  0
 12 34  1  0
 13 35  1  1
 15 36  1  0
 15 37  1  0
 16 38  1  0
 17 39  1  0
 18 40  1  0
 19 41  1  0
 20 42  1  0
M  END
> <Uni-Dock RESULT> 
ENERGY=   -5.680  LOWER_BOUND=    3.371  UPPER_BOUND=    4.690
INTER + INTRA:          -5.680
INTER:                  -5.680
INTRA:                   0.000
UNBOUND:                 0.000

$$$$

     RDKit          3D

 42 44  0  0  0  0  0  0  0  0999 V2000
   46.2469    7.3046   12.5682 C   0  0  1  0  0  0  0  0  0  0  0  0
   47.2420    6.9760   13.6586 C   0  0  0  0  0  0  0  0  0  0  0  0
   47.7023    7.0467   12.2358 C   0  0  2  0  0  0  0  0  0  0  0  0
   45.1939    6.2948   12.1761 C   0  0  0  0  0  0  0  0  0  0  0  0
   48.5642    8.1504   11.8149 N   0  0  0  0  0  0  0  0  0  0  0  0
   44.3088    5.7567   13.1253 C   0  0  0  0  0  0  0  0  0  0  0  0
   45.0399    5.8804   10.8421 C   0  0  0  0  0  0  0  0  0  0  0  0
   44.0606    4.9537   10.4747 C   0  0  0  0  0  0  0  0  0  0  0  0
   43.3269    4.8302   12.7642 C   0  0  0  0  0  0  0  0  0  0  0  0
   43.2057    4.4261   11.4381 C   0  0  0  0  0  0  0  0  0  0  0  0
   46.8939    6.3210   11.9816 C   0  0  2  0  0  0  0  0  0  0  0  0
   47.6421    6.5761   13.2699 C   0  0  0  0  0  0  0  0  0  0  0  0
   47.2809    7.7282   12.3858 C   0  0  1  0  0  0  0  0  0  0  0  0
   45.4445    5.8966   12.0181 C   0  0  0  0  0  0  0  0  0  0  0  0
   48.3363    8.4348   11.6601 N   0  0  0  0  0  0  0  0  0  0  0  0
   45.0319    4.7678   12.7459 C   0  0  0  0  0  0  0  0  0  0  0  0
   44.4610    6.5953   11.2983 C   0  0  0  0  0  0  0  0  0  0  0  0
   43.1219    6.1961   11.3165 C   0  0  0  0  0  0  0  0  0  0  0  0
   43.6945    4.3629   12.7680 C   0  0  0  0  0  0  0  0  0  0  0  0
   42.7389    5.0797   12.0534 C   0  0  0  0  0  0  0  0  0  0  0  0
   45.9131    8.3392   12.5335 H   0  0  0  0  0  0  0  0  0  0  0  0
   47.2129    5.9958   14.1214 H   0  0  0  0  0  0  0  0  0  0  0  0
   47.5294    7.7683   14.3397 H   0  0  0  0  0  0  0  0  0  0  0  0
   47.9503    6.0935   11.7715 H   0  0  0  0  0  0  0  0  0  0  0  0
   48.4489    8.3336   10.8182 H   0  0  0  0  0  0  0  0  0  0  0  0
   48.3233    9.0200   12.2905 H   0  0  0  0  0  0  0  0  0  0  0  0
   44.3859    6.0662   14.1657 H   0  0  0  0  0  0  0  0  0  0  0  0
   45.6972    6.2853   10.0750 H   0  0  0  0  0  0  0  0  0  0  0  0
   43.9683    4.6453    9.4367 H   0  0  0  0  0  0  0  0  0  0  0  0
   42.6579    4.4273   13.5197 H   0  0  0  0  0  0  0  0  0  0  0  0
   42.4439    3.7048   11.1551 H   0  0  0  0  0  0  0  0  0  0  0  0
   47.4756    5.8639   11.1841 H   0  0  0  0  0  0  0  0  0  0  0  0
   48.6792    6.2664   13.3257 H   0  0  0  0  0  0  0  0  0  0  0  0
   47.1131    6.4887   14.2126 H   0  0  0  0  0  0  0  0  0  0  0  0
   46.4922    8.3792   12.7585 H   0  0  0  0  0  0  0  0  0  0  0  0
   49.0650    7.7967   11.3428 H   0  0  0  0  0  0  0  0  0  0  0  0
   47.9601    8.8705   10.8178 H   0  0  0  0  0  0  0  0  0  0  0  0
   45.7660    4.1944   13.3075 H   0  0  0  0  0  0  0  0  0  0  0  0
   44.7435    7.4674   10.7129 H   0  0  0  0  0  0  0  0  0  0  0  0
   42.3809    6.7574   10.7537 H   0  0  0  0  0  0  0  0  0  0  0  0
   43.4023    3.4883   13.3427 H   0  0  0  0  0  0  0  0  0  0  0  0
   41.6981    4.7673   12.0692 H   0  0  0  0  0  0  0  0  0  0  0  0
  2  1  1  0
  3  1  1  0
  1  4  1  0
  3  5  1  0
  6  4  2  0
  7  4  1  0
  8  7  2  0
  9  6  1  0
 10  9  2  0
  3  2  1  0
  8 10  1  0
 12 11  1  0
 13 11  1  0
 11 14  1  0
 13 15  1  0
 16 14  2  0
 17 14  1  0
 18 17  2  0
 19 16  1  0
 20 19  2  0
 13 12  1  0
 18 20  1  0
  1 21  1  1
  2 22  1  0
  2 23  1  0
  3 24  1  6
  5 25  1  0
  5 26  1  0
  6 27  1  0
  7 28  1  0
  8 29  1  0
  9 30  1  0
 10 31  1  0
 11 32  1  6
 12 33  1  0
 12 34  1  0
 13 35  1  1
 15 36  1  0
 15 37  1  0
 16 38  1  0
 17 39  1  0
 18 40  1  0
 19 41  1  0
 20 42  1  0
M  END
> <Uni-Dock RESULT> 
ENERGY=   -5.460  LOWER_BOUND=    3.261  UPPER_BOUND=    4.621
INTER + INTRA:          -5.460
INTER:                  -5.460
INTRA:                   0.000
UNBOUND:                 0.000

$$$$

     RDKit          3D

 42 44  0  0  0  0  0  0  0  0999 V2000
   46.5251    6.7478   11.8435 C   0  0  1  0  0  0  0  0  0  0  0  0
   46.5200    8.0476   12.6164 C   0  0  0  0  0  0  0  0  0  0  0  0
   47.4351    6.9408   13.0392 C   0  0  2  0  0  0  0  0  0  0  0  0
   45.3465    5.8073   11.9375 C   0  0  0  0  0  0  0  0  0  0  0  0
   48.8769    7.0892   12.8458 N   0  0  0  0  0  0  0  0  0  0  0  0
   44.0436    6.2370   11.6346 C   0  0  0  0  0  0  0  0  0  0  0  0
   45.5139    4.4601   12.3004 C   0  0  0  0  0  0  0  0  0  0  0  0
   44.4269    3.5854   12.3790 C   0  0  0  0  0  0  0  0  0  0  0  0
   42.9525    5.3670   11.7106 C   0  0  0  0  0  0  0  0  0  0  0  0
   43.1447    4.0412   12.0867 C   0  0  0  0  0  0  0  0  0  0  0  0
   46.5436    6.2708   13.0691 C   0  0  2  0  0  0  0  0  0  0  0  0
   46.6766    7.7685   13.2236 C   0  0  0  0  0  0  0  0  0  0  0  0
   47.5427    7.0484   12.2383 C   0  0  1  0  0  0  0  0  0  0  0  0
   45.3147    5.6823   12.4167 C   0  0  0  0  0  0  0  0  0  0  0  0
   48.9754    6.9172   12.5031 N   0  0  0  0  0  0  0  0  0  0  0  0
   44.0247    5.9757   12.8900 C   0  0  0  0  0  0  0  0  0  0  0  0
   45.4181    4.7932   11.3339 C   0  0  0  0  0  0  0  0  0  0  0  0
   44.2844    4.2340   10.7382 C   0  0  0  0  0  0  0  0  0  0  0  0
   42.8869    5.4196   12.2992 C   0  0  0  0  0  0  0  0  0  0  0  0
   43.0180    4.5491   11.2209 C   0  0  0  0  0  0  0  0  0  0  0  0
   46.9920    6.7870   10.8619 H   0  0  0  0  0  0  0  0  0  0  0  0
   45.6811    8.2717   13.2659 H   0  0  0  0  0  0  0  0  0  0  0  0
   46.9455    8.9232   12.1407 H   0  0  0  0  0  0  0  0  0  0  0  0
   47.1655    6.4316   13.9632 H   0  0  0  0  0  0  0  0  0  0  0  0
   49.3208    6.1757   12.7529 H   0  0  0  0  0  0  0  0  0  0  0  0
   49.0926    7.5955   11.9870 H   0  0  0  0  0  0  0  0  0  0  0  0
   43.8762    7.2691   11.3331 H   0  0  0  0  0  0  0  0  0  0  0  0
   46.5099    4.0856   12.5289 H   0  0  0  0  0  0  0  0  0  0  0  0
   44.5841    2.5499   12.6693 H   0  0  0  0  0  0  0  0  0  0  0  0
   41.9548    5.7271   11.4743 H   0  0  0  0  0  0  0  0  0  0  0  0
   42.2977    3.3632   12.1479 H   0  0  0  0  0  0  0  0  0  0  0  0
   46.9451    5.6775   13.8878 H   0  0  0  0  0  0  0  0  0  0  0  0
   47.1262    8.1481   14.1337 H   0  0  0  0  0  0  0  0  0  0  0  0
   45.8988    8.4104   12.8248 H   0  0  0  0  0  0  0  0  0  0  0  0
   47.3030    7.2153   11.1897 H   0  0  0  0  0  0  0  0  0  0  0  0
   49.1623    6.7807   13.4957 H   0  0  0  0  0  0  0  0  0  0  0  0
   49.3515    6.0941   12.0320 H   0  0  0  0  0  0  0  0  0  0  0  0
   43.9042    6.6516   13.7337 H   0  0  0  0  0  0  0  0  0  0  0  0
   46.4004    4.5319   10.9469 H   0  0  0  0  0  0  0  0  0  0  0  0
   44.3930    3.5522    9.8990 H   0  0  0  0  0  0  0  0  0  0  0  0
   41.9009    5.6670   12.6829 H   0  0  0  0  0  0  0  0  0  0  0  0
   42.1348    4.1156   10.7593 H   0  0  0  0  0  0  0  0  0  0  0  0
  2  1  1  0
  3  1  1  0
  1  4  1  0
  3  5  1  0
  6  4  2  0
  7  4  1  0
  8  7  2  0
  9  6  1  0
 10  9  2  0
  3  2  1  0
  8 10  1  0
 12 11  1  0
 13 11  1  0
 11 14  1  0
 13 15  1  0
 16 14  2  0
 17 14  1  0
 18 17  2  0
 19 16  1  0
 20 19  2  0
 13 12  1  0
 18 20  1  0
  1 21  1  1
  2 22  1  0
  2 23  1  0
  3 24  1  6
  5 25  1  0
  5 26  1  0
  6 27  1  0
  7 28  1  0
  8 29  1  0
  9 30  1  0
 10 31  1  0
 11 32  1  6
 12 33  1  0
 12 34  1  0
 13 35  1  1
 15 36  1  0
 15 37  1  0
 16 38  1  0
 17 39  1  0
 18 40  1  0
 19 41  1  0
 20 42  1  0
M  END
> <Uni-Dock RESULT> 
ENERGY=   -5.415  LOWER_BOUND=    3.106  UPPER_BOUND=    4.353
INTER + INTRA:          -5.415
INTER:                  -5.415
INTRA:                   0.000
UNBOUND:                 0.000

$$$$
