
     RDKit          3D

 42 44  0  0  0  0  0  0  0  0999 V2000
   45.9599    3.0374    7.0083 C   0  0  1  0  0  0  0  0  0  0  0  0
   47.3855    3.4211    6.6873 C   0  0  0  0  0  0  0  0  0  0  0  0
   47.0330    1.9767    6.8740 C   0  0  2  0  0  0  0  0  0  0  0  0
   45.3728    3.3365    8.3678 C   0  0  0  0  0  0  0  0  0  0  0  0
   47.0233    1.0768    5.7180 N   0  0  0  0  0  0  0  0  0  0  0  0
   44.6856    2.3454    9.0913 C   0  0  0  0  0  0  0  0  0  0  0  0
   45.4551    4.6161    8.9421 C   0  0  0  0  0  0  0  0  0  0  0  0
   44.8948    4.8904   10.1927 C   0  0  0  0  0  0  0  0  0  0  0  0
   44.1149    2.6158   10.3379 C   0  0  0  0  0  0  0  0  0  0  0  0
   44.2233    3.8897   10.8899 C   0  0  0  0  0  0  0  0  0  0  0  0
   45.5056    3.4746    9.2941 C   0  0  2  0  0  0  0  0  0  0  0  0
   44.3149    2.6807    9.7842 C   0  0  0  0  0  0  0  0  0  0  0  0
   44.1041    4.0381    9.1913 C   0  0  1  0  0  0  0  0  0  0  0  0
   46.2432    3.0313    8.0525 C   0  0  0  0  0  0  0  0  0  0  0  0
   43.6887    5.1343   10.0619 N   0  0  0  0  0  0  0  0  0  0  0  0
   46.3993    3.8829    6.9451 C   0  0  0  0  0  0  0  0  0  0  0  0
   46.8373    1.7605    7.9785 C   0  0  0  0  0  0  0  0  0  0  0  0
   47.5457    1.3512    6.8456 C   0  0  0  0  0  0  0  0  0  0  0  0
   47.1039    3.4782    5.8078 C   0  0  0  0  0  0  0  0  0  0  0  0
   47.6777    2.2105    5.7593 C   0  0  0  0  0  0  0  0  0  0  0  0
   45.2474    3.1102    6.1841 H   0  0  0  0  0  0  0  0  0  0  0  0
   47.5935    3.7904    5.6876 H   0  0  0  0  0  0  0  0  0  0  0  0
   47.9934    3.8879    7.4584 H   0  0  0  0  0  0  0  0  0  0  0  0
   47.3854    1.5099    7.7953 H   0  0  0  0  0  0  0  0  0  0  0  0
   47.9618    0.7120    5.5438 H   0  0  0  0  0  0  0  0  0  0  0  0
   46.7547    1.5720    4.8682 H   0  0  0  0  0  0  0  0  0  0  0  0
   44.5884    1.3469    8.6690 H   0  0  0  0  0  0  0  0  0  0  0  0
   45.9593    5.4165    8.4025 H   0  0  0  0  0  0  0  0  0  0  0  0
   44.9781    5.8848   10.6174 H   0  0  0  0  0  0  0  0  0  0  0  0
   43.5784    1.8320   10.8709 H   0  0  0  0  0  0  0  0  0  0  0  0
   43.7798    4.1023   11.8590 H   0  0  0  0  0  0  0  0  0  0  0  0
   46.1444    3.8820   10.0731 H   0  0  0  0  0  0  0  0  0  0  0  0
   43.9783    1.8276    9.2060 H   0  0  0  0  0  0  0  0  0  0  0  0
   44.1927    2.5551   10.8530 H   0  0  0  0  0  0  0  0  0  0  0  0
   43.6348    4.0541    8.2093 H   0  0  0  0  0  0  0  0  0  0  0  0
   43.7910    6.0303    9.5809 H   0  0  0  0  0  0  0  0  0  0  0  0
   44.2713    5.1914   10.8959 H   0  0  0  0  0  0  0  0  0  0  0  0
   45.9707    4.8822    6.9711 H   0  0  0  0  0  0  0  0  0  0  0  0
   46.7504    1.0792    8.8224 H   0  0  0  0  0  0  0  0  0  0  0  0
   47.9997    0.3657    6.8189 H   0  0  0  0  0  0  0  0  0  0  0  0
   47.2133    4.1573    4.9672 H   0  0  0  0  0  0  0  0  0  0  0  0
   48.2313    1.8959    4.8787 H   0  0  0  0  0  0  0  0  0  0  0  0
  2  1  1  0
  3  1  1  0
  1  4  1  0
  3  5  1  0
  6  4  2  0
  7  4  1  0
  8  7  2  0
  9  6  1  0
 10  9  2  0
  3  2  1  0
  8 10  1  0
 12 11  1  0
 13 11  1  0
 11 14  1  0
 13 15  1  0
 16 14  2  0
 17 14  1  0
 18 17  2  0
 19 16  1  0
 20 19  2  0
 13 12  1  0
 18 20  1  0
  1 21  1  1
  2 22  1  0
  2 23  1  0
  3 24  1  6
  5 25  1  0
  5 26  1  0
  6 27  1  0
  7 28  1  0
  8 29  1  0
  9 30  1  0
 10 31  1  0
 11 32  1  6
 12 33  1  0
 12 34  1  0
 13 35  1  1
 15 36  1  0
 15 37  1  0
 16 38  1  0
 17 39  1  0
 18 40  1  0
 19 41  1  0
 20 42  1  0
M  END
> <Uni-Dock RESULT> 
ENERGY=   -8.205  LOWER_BOUND=    0.000  UPPER_BOUND=    0.000
INTER + INTRA:          -8.205
INTER:                  -8.205
INTRA:                   0.000
UNBOUND:                 0.000

$$$$

     RDKit          3D

 42 44  0  0  0  0  0  0  0  0999 V2000
   44.6556    3.0891    8.8063 C   0  0  1  0  0  0  0  0  0  0  0  0
   44.8468    2.9648   10.2997 C   0  0  0  0  0  0  0  0  0  0  0  0
   44.6883    4.3222    9.6854 C   0  0  2  0  0  0  0  0  0  0  0  0
   45.8020    2.8165    7.8609 C   0  0  0  0  0  0  0  0  0  0  0  0
   43.4575    5.0832    9.9145 N   0  0  0  0  0  0  0  0  0  0  0  0
   46.1177    3.7191    6.8297 C   0  0  0  0  0  0  0  0  0  0  0  0
   46.5678    1.6418    7.9489 C   0  0  0  0  0  0  0  0  0  0  0  0
   47.6163    1.3878    7.0603 C   0  0  0  0  0  0  0  0  0  0  0  0
   47.1586    3.4665    5.9321 C   0  0  0  0  0  0  0  0  0  0  0  0
   47.9104    2.3003    6.0508 C   0  0  0  0  0  0  0  0  0  0  0  0
   46.7346    2.8000    7.7033 C   0  0  2  0  0  0  0  0  0  0  0  0
   46.7090    3.3877    6.3097 C   0  0  0  0  0  0  0  0  0  0  0  0
   46.3013    1.9634    6.5182 C   0  0  1  0  0  0  0  0  0  0  0  0
   45.7219    3.2547    8.7279 C   0  0  0  0  0  0  0  0  0  0  0  0
   47.1656    0.8987    6.0168 N   0  0  0  0  0  0  0  0  0  0  0  0
   44.8624    2.3451    9.3680 C   0  0  0  0  0  0  0  0  0  0  0  0
   45.6329    4.6041    9.1083 C   0  0  0  0  0  0  0  0  0  0  0  0
   44.7188    5.0308   10.0753 C   0  0  0  0  0  0  0  0  0  0  0  0
   43.9438    2.7661   10.3337 C   0  0  0  0  0  0  0  0  0  0  0  0
   43.8731    4.1109   10.6872 C   0  0  0  0  0  0  0  0  0  0  0  0
   43.6762    2.7955    8.4230 H   0  0  0  0  0  0  0  0  0  0  0  0
   44.0284    2.5464   10.8780 H   0  0  0  0  0  0  0  0  0  0  0  0
   45.8293    2.7061   10.6868 H   0  0  0  0  0  0  0  0  0  0  0  0
   45.5877    4.9386    9.6401 H   0  0  0  0  0  0  0  0  0  0  0  0
   43.5212    5.6070   10.7895 H   0  0  0  0  0  0  0  0  0  0  0  0
   42.6552    4.4628   10.0190 H   0  0  0  0  0  0  0  0  0  0  0  0
   45.5344    4.6317    6.7218 H   0  0  0  0  0  0  0  0  0  0  0  0
   46.3396    0.9073    8.7198 H   0  0  0  0  0  0  0  0  0  0  0  0
   48.1970    0.4767    7.1537 H   0  0  0  0  0  0  0  0  0  0  0  0
   47.3735    4.1777    5.1358 H   0  0  0  0  0  0  0  0  0  0  0  0
   48.7201    2.1016    5.3536 H   0  0  0  0  0  0  0  0  0  0  0  0
   47.7246    2.6063    8.1074 H   0  0  0  0  0  0  0  0  0  0  0  0
   45.9295    4.0957    6.0523 H   0  0  0  0  0  0  0  0  0  0  0  0
   47.6567    3.5922    5.8267 H   0  0  0  0  0  0  0  0  0  0  0  0
   45.2385    1.7575    6.4043 H   0  0  0  0  0  0  0  0  0  0  0  0
   46.8856   -0.0027    6.4088 H   0  0  0  0  0  0  0  0  0  0  0  0
   48.1352    1.0409    6.2961 H   0  0  0  0  0  0  0  0  0  0  0  0
   44.9139    1.2885    9.1154 H   0  0  0  0  0  0  0  0  0  0  0  0
   46.2925    5.3352    8.6453 H   0  0  0  0  0  0  0  0  0  0  0  0
   44.6766    6.0789   10.3540 H   0  0  0  0  0  0  0  0  0  0  0  0
   43.2938    2.0419   10.8162 H   0  0  0  0  0  0  0  0  0  0  0  0
   43.1641    4.4396   11.4424 H   0  0  0  0  0  0  0  0  0  0  0  0
  2  1  1  0
  3  1  1  0
  1  4  1  0
  3  5  1  0
  6  4  2  0
  7  4  1  0
  8  7  2  0
  9  6  1  0
 10  9  2  0
  3  2  1  0
  8 10  1  0
 12 11  1  0
 13 11  1  0
 11 14  1  0
 13 15  1  0
 16 14  2  0
 17 14  1  0
 18 17  2  0
 19 16  1  0
 20 19  2  0
 13 12  1  0
 18 20  1  0
  1 21  1  1
  2 22  1  0
  2 23  1  0
  3 24  1  6
  5 25  1  0
  5 26  1  0
  6 27  1  0
  7 28  1  0
  8 29  1  0
  9 30  1  0
 10 31  1  0
 11 32  1  6
 12 33  1  0
 12 34  1  0
 13 35  1  1
 15 36  1  0
 15 37  1  0
 16 38  1  0
 17 39  1  0
 18 40  1  0
 19 41  1  0
 20 42  1  0
M  END
> <Uni-Dock RESULT> 
ENERGY=   -8.140  LOWER_BOUND=    0.503  UPPER_BOUND=    4.594
INTER + INTRA:          -8.140
INTER:                  -8.140
INTRA:                   0.000
UNBOUND:                 0.000

$$$$

     RDKit          3D

 42 44  0  0  0  0  0  0  0  0999 V2000
   45.3690    3.1622    9.7103 C   0  0  1  0  0  0  0  0  0  0  0  0
   44.6504    2.3751    8.6395 C   0  0  0  0  0  0  0  0  0  0  0  0
   45.6893    3.3807    8.2460 C   0  0  2  0  0  0  0  0  0  0  0  0
   44.6471    4.2398   10.4848 C   0  0  0  0  0  0  0  0  0  0  0  0
   46.9734    2.9247    7.7080 N   0  0  0  0  0  0  0  0  0  0  0  0
   45.2180    5.5143   10.6518 C   0  0  0  0  0  0  0  0  0  0  0  0
   43.4050    4.0025   11.0970 C   0  0  0  0  0  0  0  0  0  0  0  0
   42.7504    4.9989   11.8265 C   0  0  0  0  0  0  0  0  0  0  0  0
   44.5731    6.5118   11.3880 C   0  0  0  0  0  0  0  0  0  0  0  0
   43.3360    6.2535   11.9729 C   0  0  0  0  0  0  0  0  0  0  0  0
   43.9606    4.8897   10.5193 C   0  0  2  0  0  0  0  0  0  0  0  0
   44.7571    5.9815   11.1988 C   0  0  0  0  0  0  0  0  0  0  0  0
   44.2643    4.8186   12.0008 C   0  0  1  0  0  0  0  0  0  0  0  0
   44.6457    3.9515    9.5537 C   0  0  0  0  0  0  0  0  0  0  0  0
   43.2010    5.0325   12.9785 N   0  0  0  0  0  0  0  0  0  0  0  0
   44.6297    2.5587    9.7432 C   0  0  0  0  0  0  0  0  0  0  0  0
   45.2903    4.4392    8.4047 C   0  0  0  0  0  0  0  0  0  0  0  0
   45.9029    3.5779    7.4907 C   0  0  0  0  0  0  0  0  0  0  0  0
   45.2433    1.6921    8.8343 C   0  0  0  0  0  0  0  0  0  0  0  0
   45.8802    2.2035    7.7068 C   0  0  0  0  0  0  0  0  0  0  0  0
   46.1131    2.6125   10.2903 H   0  0  0  0  0  0  0  0  0  0  0  0
   44.8788    1.3169    8.5550 H   0  0  0  0  0  0  0  0  0  0  0  0
   43.6147    2.6157    8.4123 H   0  0  0  0  0  0  0  0  0  0  0  0
   45.3206    4.3015    7.7908 H   0  0  0  0  0  0  0  0  0  0  0  0
   46.9012    2.7678    6.7008 H   0  0  0  0  0  0  0  0  0  0  0  0
   47.2438    2.0281    8.1109 H   0  0  0  0  0  0  0  0  0  0  0  0
   46.1872    5.7279   10.2049 H   0  0  0  0  0  0  0  0  0  0  0  0
   42.9411    3.0211   11.0099 H   0  0  0  0  0  0  0  0  0  0  0  0
   41.7890    4.7926   12.2836 H   0  0  0  0  0  0  0  0  0  0  0  0
   45.0439    7.4862   11.5107 H   0  0  0  0  0  0  0  0  0  0  0  0
   42.8330    7.0277   12.5463 H   0  0  0  0  0  0  0  0  0  0  0  0
   42.9472    5.1617   10.2366 H   0  0  0  0  0  0  0  0  0  0  0  0
   45.8240    6.0441   11.0172 H   0  0  0  0  0  0  0  0  0  0  0  0
   44.2837    6.9460   11.3357 H   0  0  0  0  0  0  0  0  0  0  0  0
   45.0286    4.1164   12.3287 H   0  0  0  0  0  0  0  0  0  0  0  0
   42.8187    4.1378   13.2913 H   0  0  0  0  0  0  0  0  0  0  0  0
   42.4208    5.5496   12.5759 H   0  0  0  0  0  0  0  0  0  0  0  0
   44.1240    2.1404   10.6105 H   0  0  0  0  0  0  0  0  0  0  0  0
   45.3103    5.5107    8.2166 H   0  0  0  0  0  0  0  0  0  0  0  0
   46.3882    3.9825    6.6082 H   0  0  0  0  0  0  0  0  0  0  0  0
   45.2128    0.6195    9.0022 H   0  0  0  0  0  0  0  0  0  0  0  0
   46.3526    1.5314    6.9954 H   0  0  0  0  0  0  0  0  0  0  0  0
  2  1  1  0
  3  1  1  0
  1  4  1  0
  3  5  1  0
  6  4  2  0
  7  4  1  0
  8  7  2  0
  9  6  1  0
 10  9  2  0
  3  2  1  0
  8 10  1  0
 12 11  1  0
 13 11  1  0
 11 14  1  0
 13 15  1  0
 16 14  2  0
 17 14  1  0
 18 17  2  0
 19 16  1  0
 20 19  2  0
 13 12  1  0
 18 20  1  0
  1 21  1  1
  2 22  1  0
  2 23  1  0
  3 24  1  6
  5 25  1  0
  5 26  1  0
  6 27  1  0
  7 28  1  0
  8 29  1  0
  9 30  1  0
 10 31  1  0
 11 32  1  6
 12 33  1  0
 12 34  1  0
 13 35  1  1
 15 36  1  0
 15 37  1  0
 16 38  1  0
 17 39  1  0
 18 40  1  0
 19 41  1  0
 20 42  1  0
M  END
> <Uni-Dock RESULT> 
ENERGY=   -6.988  LOWER_BOUND=    1.466  UPPER_BOUND=    3.062
INTER + INTRA:          -6.988
INTER:                  -6.988
INTRA:                   0.000
UNBOUND:                 0.000

$$$$

     RDKit          3D

 42 44  0  0  0  0  0  0  0  0999 V2000
   46.1489    6.1412   13.4793 C   0  0  1  0  0  0  0  0  0  0  0  0
   47.5038    6.3622   12.8486 C   0  0  0  0  0  0  0  0  0  0  0  0
   46.5294    7.4981   12.9237 C   0  0  2  0  0  0  0  0  0  0  0  0
   45.1002    5.3137   12.7737 C   0  0  0  0  0  0  0  0  0  0  0  0
   46.7832    8.6124   13.8404 N   0  0  0  0  0  0  0  0  0  0  0  0
   43.7827    5.7852   12.6330 C   0  0  0  0  0  0  0  0  0  0  0  0
   45.3865    4.0344   12.2682 C   0  0  0  0  0  0  0  0  0  0  0  0
   44.4071    3.2671   11.6315 C   0  0  0  0  0  0  0  0  0  0  0  0
   42.7966    5.0190   12.0059 C   0  0  0  0  0  0  0  0  0  0  0  0
   43.1113    3.7595   11.5019 C   0  0  0  0  0  0  0  0  0  0  0  0
   44.7353    4.9896   11.9634 C   0  0  2  0  0  0  0  0  0  0  0  0
   43.2761    5.1741   12.3171 C   0  0  0  0  0  0  0  0  0  0  0  0
   44.0412    4.0331   12.9097 C   0  0  1  0  0  0  0  0  0  0  0  0
   45.7627    5.9673   12.4837 C   0  0  0  0  0  0  0  0  0  0  0  0
   43.7300    2.6728   12.4798 N   0  0  0  0  0  0  0  0  0  0  0  0
   46.8587    5.5430   13.2549 C   0  0  0  0  0  0  0  0  0  0  0  0
   45.6798    7.3358   12.1777 C   0  0  0  0  0  0  0  0  0  0  0  0
   46.6402    8.2442   12.6305 C   0  0  0  0  0  0  0  0  0  0  0  0
   47.8209    6.4472   13.7136 C   0  0  0  0  0  0  0  0  0  0  0  0
   47.7106    7.7992   13.4000 C   0  0  0  0  0  0  0  0  0  0  0  0
   46.1364    6.0514   14.5674 H   0  0  0  0  0  0  0  0  0  0  0  0
   48.3693    6.3627   13.5043 H   0  0  0  0  0  0  0  0  0  0  0  0
   47.7036    5.9431   11.8654 H   0  0  0  0  0  0  0  0  0  0  0  0
   46.0632    7.7961   11.9831 H   0  0  0  0  0  0  0  0  0  0  0  0
   47.3894    9.3057   13.3976 H   0  0  0  0  0  0  0  0  0  0  0  0
   47.2810    8.2983   14.6728 H   0  0  0  0  0  0  0  0  0  0  0  0
   43.5215    6.7655   13.0276 H   0  0  0  0  0  0  0  0  0  0  0  0
   46.3894    3.6246   12.3780 H   0  0  0  0  0  0  0  0  0  0  0  0
   44.6553    2.2852   11.2437 H   0  0  0  0  0  0  0  0  0  0  0  0
   41.7815    5.4046   11.9212 H   0  0  0  0  0  0  0  0  0  0  0  0
   42.3458    3.1618   11.0142 H   0  0  0  0  0  0  0  0  0  0  0  0
   44.9270    4.6327   10.9550 H   0  0  0  0  0  0  0  0  0  0  0  0
   42.9948    5.9830   12.9818 H   0  0  0  0  0  0  0  0  0  0  0  0
   42.5374    4.9644   11.5533 H   0  0  0  0  0  0  0  0  0  0  0  0
   44.2650    4.1186   13.9715 H   0  0  0  0  0  0  0  0  0  0  0  0
   44.4563    2.0250   12.7920 H   0  0  0  0  0  0  0  0  0  0  0  0
   43.7008    2.5986   11.4640 H   0  0  0  0  0  0  0  0  0  0  0  0
   46.9693    4.4885   13.4969 H   0  0  0  0  0  0  0  0  0  0  0  0
   44.8534    7.6992   11.5702 H   0  0  0  0  0  0  0  0  0  0  0  0
   46.5540    9.2951   12.3733 H   0  0  0  0  0  0  0  0  0  0  0  0
   48.6605    6.0925   14.3045 H   0  0  0  0  0  0  0  0  0  0  0  0
   48.4609    8.5031   13.7502 H   0  0  0  0  0  0  0  0  0  0  0  0
  2  1  1  0
  3  1  1  0
  1  4  1  0
  3  5  1  0
  6  4  2  0
  7  4  1  0
  8  7  2  0
  9  6  1  0
 10  9  2  0
  3  2  1  0
  8 10  1  0
 12 11  1  0
 13 11  1  0
 11 14  1  0
 13 15  1  0
 16 14  2  0
 17 14  1  0
 18 17  2  0
 19 16  1  0
 20 19  2  0
 13 12  1  0
 18 20  1  0
  1 21  1  1
  2 22  1  0
  2 23  1  0
  3 24  1  6
  5 25  1  0
  5 26  1  0
  6 27  1  0
  7 28  1  0
  8 29  1  0
  9 30  1  0
 10 31  1  0
 11 32  1  6
 12 33  1  0
 12 34  1  0
 13 35  1  1
 15 36  1  0
 15 37  1  0
 16 38  1  0
 17 39  1  0
 18 40  1  0
 19 41  1  0
 20 42  1  0
M  END
> <Uni-Dock RESULT> 
ENERGY=   -5.752  LOWER_BOUND=    4.469  UPPER_BOUND=    6.242
INTER + INTRA:          -5.752
INTER:                  -5.752
INTRA:                   0.000
UNBOUND:                 0.000

$$$$

     RDKit          3D

 42 44  0  0  0  0  0  0  0  0999 V2000
   44.5978    5.6225   12.4288 C   0  0  1  0  0  0  0  0  0  0  0  0
   43.2665    5.7873   11.7339 C   0  0  0  0  0  0  0  0  0  0  0  0
   44.2778    4.8322   11.1768 C   0  0  2  0  0  0  0  0  0  0  0  0
   45.6333    6.7211   12.3731 C   0  0  0  0  0  0  0  0  0  0  0  0
   44.0415    3.3893   11.2699 N   0  0  0  0  0  0  0  0  0  0  0  0
   46.9693    6.4376   12.0374 C   0  0  0  0  0  0  0  0  0  0  0  0
   45.3146    8.0525   12.6893 C   0  0  0  0  0  0  0  0  0  0  0  0
   46.2813    9.0612   12.6522 C   0  0  0  0  0  0  0  0  0  0  0  0
   47.9426    7.4400   12.0079 C   0  0  0  0  0  0  0  0  0  0  0  0
   47.5961    8.7539   12.3127 C   0  0  0  0  0  0  0  0  0  0  0  0
   46.0056    7.4598   11.9142 C   0  0  2  0  0  0  0  0  0  0  0  0
   47.4616    7.1263   12.1531 C   0  0  0  0  0  0  0  0  0  0  0  0
   46.6437    7.7021   13.2656 C   0  0  1  0  0  0  0  0  0  0  0  0
   45.0009    6.3463   11.7330 C   0  0  0  0  0  0  0  0  0  0  0  0
   46.9173    9.0646   13.7137 N   0  0  0  0  0  0  0  0  0  0  0  0
   43.8731    6.2295   12.5639 C   0  0  0  0  0  0  0  0  0  0  0  0
   45.1384    5.4090   10.6958 C   0  0  0  0  0  0  0  0  0  0  0  0
   44.1999    4.3919   10.5022 C   0  0  0  0  0  0  0  0  0  0  0  0
   42.9324    5.2125   12.3774 C   0  0  0  0  0  0  0  0  0  0  0  0
   43.0969    4.2934   11.3447 C   0  0  0  0  0  0  0  0  0  0  0  0
   44.5818    5.0660   13.3681 H   0  0  0  0  0  0  0  0  0  0  0  0
   42.3865    5.3944   12.2342 H   0  0  0  0  0  0  0  0  0  0  0  0
   43.0753    6.6951   11.1670 H   0  0  0  0  0  0  0  0  0  0  0  0
   44.7759    5.1406   10.2561 H   0  0  0  0  0  0  0  0  0  0  0  0
   43.4703    3.0714   10.4845 H   0  0  0  0  0  0  0  0  0  0  0  0
   43.5138    3.1561   12.1104 H   0  0  0  0  0  0  0  0  0  0  0  0
   47.2551    5.4140   11.8027 H   0  0  0  0  0  0  0  0  0  0  0  0
   44.2957    8.3081   12.9764 H   0  0  0  0  0  0  0  0  0  0  0  0
   46.0082   10.0824   12.8940 H   0  0  0  0  0  0  0  0  0  0  0  0
   48.9721    7.1897   11.7557 H   0  0  0  0  0  0  0  0  0  0  0  0
   48.3515    9.5349   12.2907 H   0  0  0  0  0  0  0  0  0  0  0  0
   45.8252    8.3316   11.2911 H   0  0  0  0  0  0  0  0  0  0  0  0
   47.7552    6.0862   12.2383 H   0  0  0  0  0  0  0  0  0  0  0  0
   48.2102    7.7504   11.6806 H   0  0  0  0  0  0  0  0  0  0  0  0
   46.3983    7.0144   14.0729 H   0  0  0  0  0  0  0  0  0  0  0  0
   46.1618    9.4013   14.3142 H   0  0  0  0  0  0  0  0  0  0  0  0
   46.9676    9.7136   12.9298 H   0  0  0  0  0  0  0  0  0  0  0  0
   43.7203    6.9475   13.3664 H   0  0  0  0  0  0  0  0  0  0  0  0
   45.9909    5.4766   10.0230 H   0  0  0  0  0  0  0  0  0  0  0  0
   44.3286    3.6854    9.6885 H   0  0  0  0  0  0  0  0  0  0  0  0
   42.0675    5.1472   13.0311 H   0  0  0  0  0  0  0  0  0  0  0  0
   42.3636    3.5057   11.1938 H   0  0  0  0  0  0  0  0  0  0  0  0
  2  1  1  0
  3  1  1  0
  1  4  1  0
  3  5  1  0
  6  4  2  0
  7  4  1  0
  8  7  2  0
  9  6  1  0
 10  9  2  0
  3  2  1  0
  8 10  1  0
 12 11  1  0
 13 11  1  0
 11 14  1  0
 13 15  1  0
 16 14  2  0
 17 14  1  0
 18 17  2  0
 19 16  1  0
 20 19  2  0
 13 12  1  0
 18 20  1  0
  1 21  1  1
  2 22  1  0
  2 23  1  0
  3 24  1  6
  5 25  1  0
  5 26  1  0
  6 27  1  0
  7 28  1  0
  8 29  1  0
  9 30  1  0
 10 31  1  0
 11 32  1  6
 12 33  1  0
 12 34  1  0
 13 35  1  1
 15 36  1  0
 15 37  1  0
 16 38  1  0
 17 39  1  0
 18 40  1  0
 19 41  1  0
 20 42  1  0
M  END
> <Uni-Dock RESULT> 
ENERGY=   -5.610  LOWER_BOUND=    3.900  UPPER_BOUND=    6.056
INTER + INTRA:          -5.610
INTER:                  -5.610
INTRA:                   0.000
UNBOUND:                 0.000

$$$$

     RDKit          3D

 42 44  0  0  0  0  0  0  0  0999 V2000
   46.5586    6.6752   12.1809 C   0  0  1  0  0  0  0  0  0  0  0  0
   46.7347    7.8134   13.1587 C   0  0  0  0  0  0  0  0  0  0  0  0
   47.7232    6.6873   13.1496 C   0  0  2  0  0  0  0  0  0  0  0  0
   45.4453    5.6708   12.3655 C   0  0  0  0  0  0  0  0  0  0  0  0
   49.0808    6.9176   12.6494 N   0  0  0  0  0  0  0  0  0  0  0  0
   45.7009    4.2894   12.2992 C   0  0  0  0  0  0  0  0  0  0  0  0
   44.1148    6.0730   12.5704 C   0  0  0  0  0  0  0  0  0  0  0  0
   43.0869    5.1385   12.7235 C   0  0  0  0  0  0  0  0  0  0  0  0
   44.6761    3.3502   12.4419 C   0  0  0  0  0  0  0  0  0  0  0  0
   43.3681    3.7766   12.6576 C   0  0  0  0  0  0  0  0  0  0  0  0
   44.8559    5.2138   12.9474 C   0  0  2  0  0  0  0  0  0  0  0  0
   44.9701    3.8470   12.3094 C   0  0  0  0  0  0  0  0  0  0  0  0
   44.1514    4.9070   11.6429 C   0  0  1  0  0  0  0  0  0  0  0  0
   46.0540    6.1336   12.9700 C   0  0  0  0  0  0  0  0  0  0  0  0
   42.6986    4.7637   11.6099 N   0  0  0  0  0  0  0  0  0  0  0  0
   46.0055    7.4204   12.4062 C   0  0  0  0  0  0  0  0  0  0  0  0
   47.2511    5.7476   13.5957 C   0  0  0  0  0  0  0  0  0  0  0  0
   48.3560    6.6016   13.6467 C   0  0  0  0  0  0  0  0  0  0  0  0
   47.1083    8.2780   12.4512 C   0  0  0  0  0  0  0  0  0  0  0  0
   48.2844    7.8671   13.0728 C   0  0  0  0  0  0  0  0  0  0  0  0
   46.7954    6.8986   11.1387 H   0  0  0  0  0  0  0  0  0  0  0  0
   47.0283    8.7790   12.7582 H   0  0  0  0  0  0  0  0  0  0  0  0
   46.0680    7.8824   14.0147 H   0  0  0  0  0  0  0  0  0  0  0  0
   47.6733    5.9955   13.9920 H   0  0  0  0  0  0  0  0  0  0  0  0
   49.6754    7.2882   13.3932 H   0  0  0  0  0  0  0  0  0  0  0  0
   49.0869    7.6209   11.9114 H   0  0  0  0  0  0  0  0  0  0  0  0
   46.7178    3.9424   12.1252 H   0  0  0  0  0  0  0  0  0  0  0  0
   43.8729    7.1342   12.6050 H   0  0  0  0  0  0  0  0  0  0  0  0
   42.0690    5.4747   12.8876 H   0  0  0  0  0  0  0  0  0  0  0  0
   44.9011    2.2867   12.3746 H   0  0  0  0  0  0  0  0  0  0  0  0
   42.5695    3.0478   12.7684 H   0  0  0  0  0  0  0  0  0  0  0  0
   44.2397    5.2589   13.8413 H   0  0  0  0  0  0  0  0  0  0  0  0
   45.9025    3.5657   11.8333 H   0  0  0  0  0  0  0  0  0  0  0  0
   44.4603    3.0190   12.7866 H   0  0  0  0  0  0  0  0  0  0  0  0
   44.5733    5.3214   10.7290 H   0  0  0  0  0  0  0  0  0  0  0  0
   42.2598    5.6418   11.3254 H   0  0  0  0  0  0  0  0  0  0  0  0
   42.3232    4.5440   12.5313 H   0  0  0  0  0  0  0  0  0  0  0  0
   45.0902    7.7640   11.9297 H   0  0  0  0  0  0  0  0  0  0  0  0
   47.3212    4.7644   14.0564 H   0  0  0  0  0  0  0  0  0  0  0  0
   49.2661    6.2790   14.1424 H   0  0  0  0  0  0  0  0  0  0  0  0
   47.0430    9.2690   12.0114 H   0  0  0  0  0  0  0  0  0  0  0  0
   49.1410    8.5345   13.1145 H   0  0  0  0  0  0  0  0  0  0  0  0
  2  1  1  0
  3  1  1  0
  1  4  1  0
  3  5  1  0
  6  4  2  0
  7  4  1  0
  8  7  2  0
  9  6  1  0
 10  9  2  0
  3  2  1  0
  8 10  1  0
 12 11  1  0
 13 11  1  0
 11 14  1  0
 13 15  1  0
 16 14  2  0
 17 14  1  0
 18 17  2  0
 19 16  1  0
 20 19  2  0
 13 12  1  0
 18 20  1  0
  1 21  1  1
  2 22  1  0
  2 23  1  0
  3 24  1  6
  5 25  1  0
  5 26  1  0
  6 27  1  0
  7 28  1  0
  8 29  1  0
  9 30  1  0
 10 31  1  0
 11 32  1  6
 12 33  1  0
 12 34  1  0
 13 35  1  1
 15 36  1  0
 15 37  1  0
 16 38  1  0
 17 39  1  0
 18 40  1  0
 19 41  1  0
 20 42  1  0
M  END
> <Uni-Dock RESULT> 
ENERGY=   -5.521  LOWER_BOUND=    4.753  UPPER_BOUND=    5.956
INTER + INTRA:          -5.521
INTER:                  -5.521
INTRA:                   0.000
UNBOUND:                 0.000

$$$$

     RDKit          3D

 42 44  0  0  0  0  0  0  0  0999 V2000
   45.2638    4.8613   11.9882 C   0  0  1  0  0  0  0  0  0  0  0  0
   44.5958    3.8051   12.8371 C   0  0  0  0  0  0  0  0  0  0  0  0
   43.7715    4.9072   12.2442 C   0  0  2  0  0  0  0  0  0  0  0  0
   46.1613    5.8990   12.6206 C   0  0  0  0  0  0  0  0  0  0  0  0
   42.8387    4.6098   11.1544 N   0  0  0  0  0  0  0  0  0  0  0  0
   46.0070    7.2649   12.3230 C   0  0  0  0  0  0  0  0  0  0  0  0
   47.2023    5.5411   13.4938 C   0  0  0  0  0  0  0  0  0  0  0  0
   48.0398    6.5049   14.0621 C   0  0  0  0  0  0  0  0  0  0  0  0
   46.8472    8.2325   12.8805 C   0  0  0  0  0  0  0  0  0  0  0  0
   47.8626    7.8510   13.7538 C   0  0  0  0  0  0  0  0  0  0  0  0
   46.3934    6.4141   13.3793 C   0  0  2  0  0  0  0  0  0  0  0  0
   46.6461    7.7207   12.6601 C   0  0  0  0  0  0  0  0  0  0  0  0
   47.6617    6.6251   12.5799 C   0  0  1  0  0  0  0  0  0  0  0  0
   45.3211    5.4763   12.8765 C   0  0  0  0  0  0  0  0  0  0  0  0
   48.9406    6.7934   13.2642 N   0  0  0  0  0  0  0  0  0  0  0  0
   45.6124    4.1484   12.5193 C   0  0  0  0  0  0  0  0  0  0  0  0
   43.9814    5.8896   12.7878 C   0  0  0  0  0  0  0  0  0  0  0  0
   42.9775    5.0216   12.3506 C   0  0  0  0  0  0  0  0  0  0  0  0
   44.6132    3.2761   12.0782 C   0  0  0  0  0  0  0  0  0  0  0  0
   43.2943    3.7144   11.9945 C   0  0  0  0  0  0  0  0  0  0  0  0
   45.5726    4.5476   10.9890 H   0  0  0  0  0  0  0  0  0  0  0  0
   44.5171    2.8040   12.4240 H   0  0  0  0  0  0  0  0  0  0  0  0
   44.7451    3.8205   13.9139 H   0  0  0  0  0  0  0  0  0  0  0  0
   43.4119    5.6675   12.9396 H   0  0  0  0  0  0  0  0  0  0  0  0
   41.9435    4.2908   11.5300 H   0  0  0  0  0  0  0  0  0  0  0  0
   43.1839    3.8476   10.5720 H   0  0  0  0  0  0  0  0  0  0  0  0
   45.2211    7.5765   11.6374 H   0  0  0  0  0  0  0  0  0  0  0  0
   47.3685    4.4914   13.7310 H   0  0  0  0  0  0  0  0  0  0  0  0
   48.8317    6.2034   14.7388 H   0  0  0  0  0  0  0  0  0  0  0  0
   46.7119    9.2821   12.6233 H   0  0  0  0  0  0  0  0  0  0  0  0
   48.5173    8.6018   14.1881 H   0  0  0  0  0  0  0  0  0  0  0  0
   46.4807    6.4555   14.4617 H   0  0  0  0  0  0  0  0  0  0  0  0
   46.0824    7.9434   11.7613 H   0  0  0  0  0  0  0  0  0  0  0  0
   46.8704    8.5953   13.2585 H   0  0  0  0  0  0  0  0  0  0  0  0
   47.7413    6.1281   11.6147 H   0  0  0  0  0  0  0  0  0  0  0  0
   49.4410    5.9034   13.3093 H   0  0  0  0  0  0  0  0  0  0  0  0
   48.8120    7.0962   14.2286 H   0  0  0  0  0  0  0  0  0  0  0  0
   46.6346    3.7842   12.5926 H   0  0  0  0  0  0  0  0  0  0  0  0
   43.7153    6.9062   13.0701 H   0  0  0  0  0  0  0  0  0  0  0  0
   41.9497    5.3665   12.2982 H   0  0  0  0  0  0  0  0  0  0  0  0
   44.8645    2.2535   11.8122 H   0  0  0  0  0  0  0  0  0  0  0  0
   42.5148    3.0362   11.6579 H   0  0  0  0  0  0  0  0  0  0  0  0
  2  1  1  0
  3  1  1  0
  1  4  1  0
  3  5  1  0
  6  4  2  0
  7  4  1  0
  8  7  2  0
  9  6  1  0
 10  9  2  0
  3  2  1  0
  8 10  1  0
 12 11  1  0
 13 11  1  0
 11 14  1  0
 13 15  1  0
 16 14  2  0
 17 14  1  0
 18 17  2  0
 19 16  1  0
 20 19  2  0
 13 12  1  0
 18 20  1  0
  1 21  1  1
  2 22  1  0
  2 23  1  0
  3 24  1  6
  5 25  1  0
  5 26  1  0
  6 27  1  0
  7 28  1  0
  8 29  1  0
  9 30  1  0
 10 31  1  0
 11 32  1  6
 12 33  1  0
 12 34  1  0
 13 35  1  1
 15 36  1  0
 15 37  1  0
 16 38  1  0
 17 39  1  0
 18 40  1  0
 19 41  1  0
 20 42  1  0
M  END
> <Uni-Dock RESULT> 
ENERGY=   -5.506  LOWER_BOUND=    4.628  UPPER_BOUND=    6.308
INTER + INTRA:          -5.506
INTER:                  -5.506
INTRA:                   0.000
UNBOUND:                 0.000

$$$$

     RDKit          3D

 42 44  0  0  0  0  0  0  0  0999 V2000
   44.6083    6.4078   12.5727 C   0  0  1  0  0  0  0  0  0  0  0  0
   43.9928    5.8974   11.2909 C   0  0  0  0  0  0  0  0  0  0  0  0
   44.0185    5.0144   12.5013 C   0  0  2  0  0  0  0  0  0  0  0  0
   46.1047    6.5793   12.6898 C   0  0  0  0  0  0  0  0  0  0  0  0
   42.7708    4.7173   13.2093 N   0  0  0  0  0  0  0  0  0  0  0  0
   46.8051    6.0705   13.7982 C   0  0  0  0  0  0  0  0  0  0  0  0
   46.8451    7.2815   11.7240 C   0  0  0  0  0  0  0  0  0  0  0  0
   48.2269    7.4511   11.8471 C   0  0  0  0  0  0  0  0  0  0  0  0
   48.1852    6.2450   13.9320 C   0  0  0  0  0  0  0  0  0  0  0  0
   48.8965    6.9336   12.9526 C   0  0  0  0  0  0  0  0  0  0  0  0
   46.9729    6.3178   12.4200 C   0  0  2  0  0  0  0  0  0  0  0  0
   47.6176    6.3346   13.7883 C   0  0  0  0  0  0  0  0  0  0  0  0
   47.3399    7.6266   13.0869 C   0  0  1  0  0  0  0  0  0  0  0  0
   45.5244    5.9131   12.2782 C   0  0  0  0  0  0  0  0  0  0  0  0
   48.4617    8.4157   12.5859 N   0  0  0  0  0  0  0  0  0  0  0  0
   44.5756    6.7662   11.6882 C   0  0  0  0  0  0  0  0  0  0  0  0
   45.0824    4.6467   12.6958 C   0  0  0  0  0  0  0  0  0  0  0  0
   43.7506    4.2519   12.5435 C   0  0  0  0  0  0  0  0  0  0  0  0
   43.2414    6.3784   11.5360 C   0  0  0  0  0  0  0  0  0  0  0  0
   42.8296    5.1193   11.9643 C   0  0  0  0  0  0  0  0  0  0  0  0
   44.0256    7.1511   13.1207 H   0  0  0  0  0  0  0  0  0  0  0  0
   43.0511    6.3368   10.9759 H   0  0  0  0  0  0  0  0  0  0  0  0
   44.6440    5.6257   10.4637 H   0  0  0  0  0  0  0  0  0  0  0  0
   44.7216    4.1803   12.4744 H   0  0  0  0  0  0  0  0  0  0  0  0
   42.2964    3.9231   12.7752 H   0  0  0  0  0  0  0  0  0  0  0  0
   42.1184    5.4984   13.1492 H   0  0  0  0  0  0  0  0  0  0  0  0
   46.2607    5.5353   14.5740 H   0  0  0  0  0  0  0  0  0  0  0  0
   46.3353    7.7104   10.8626 H   0  0  0  0  0  0  0  0  0  0  0  0
   48.7766    7.9913   11.0842 H   0  0  0  0  0  0  0  0  0  0  0  0
   48.7000    5.8501   14.8068 H   0  0  0  0  0  0  0  0  0  0  0  0
   49.9697    7.0708   13.0549 H   0  0  0  0  0  0  0  0  0  0  0  0
   47.6133    5.9815   11.6091 H   0  0  0  0  0  0  0  0  0  0  0  0
   47.0128    6.1002   14.6570 H   0  0  0  0  0  0  0  0  0  0  0  0
   48.6436    5.9975   13.8711 H   0  0  0  0  0  0  0  0  0  0  0  0
   46.5336    8.2253   13.5068 H   0  0  0  0  0  0  0  0  0  0  0  0
   48.1296    9.1456   11.9522 H   0  0  0  0  0  0  0  0  0  0  0  0
   49.1098    7.8442   12.0460 H   0  0  0  0  0  0  0  0  0  0  0  0
   44.8824    7.7477   11.3340 H   0  0  0  0  0  0  0  0  0  0  0  0
   45.7914    3.9533   13.1434 H   0  0  0  0  0  0  0  0  0  0  0  0
   43.4387    3.2649   12.8697 H   0  0  0  0  0  0  0  0  0  0  0  0
   42.5293    7.0553   11.0729 H   0  0  0  0  0  0  0  0  0  0  0  0
   41.7942    4.8131   11.8413 H   0  0  0  0  0  0  0  0  0  0  0  0
  2  1  1  0
  3  1  1  0
  1  4  1  0
  3  5  1  0
  6  4  2  0
  7  4  1  0
  8  7  2  0
  9  6  1  0
 10  9  2  0
  3  2  1  0
  8 10  1  0
 12 11  1  0
 13 11  1  0
 11 14  1  0
 13 15  1  0
 16 14  2  0
 17 14  1  0
 18 17  2  0
 19 16  1  0
 20 19  2  0
 13 12  1  0
 18 20  1  0
  1 21  1  1
  2 22  1  0
  2 23  1  0
  3 24  1  6
  5 25  1  0
  5 26  1  0
  6 27  1  0
  7 28  1  0
  8 29  1  0
  9 30  1  0
 10 31  1  0
 11 32  1  6
 12 33  1  0
 12 34  1  0
 13 35  1  1
 15 36  1  0
 15 37  1  0
 16 38  1  0
 17 39  1  0
 18 40  1  0
 19 41  1  0
 20 42  1  0
M  END
> <Uni-Dock RESULT> 
ENERGY=   -5.264  LOWER_BOUND=    5.193  UPPER_BOUND=    6.407
INTER + INTRA:          -5.264
INTER:                  -5.264
INTRA:                   0.000
UNBOUND:                 0.000

$$$$
