
     RDKit          3D

 42 44  0  0  0  0  0  0  0  0999 V2000
   46.8054    2.6826    7.7806 C   0  0  1  0  0  0  0  0  0  0  0  0
   46.6570    1.3933    7.0061 C   0  0  0  0  0  0  0  0  0  0  0  0
   46.5584    2.7016    6.2872 C   0  0  2  0  0  0  0  0  0  0  0  0
   45.7192    3.1249    8.7328 C   0  0  0  0  0  0  0  0  0  0  0  0
   47.6444    3.0929    5.3893 N   0  0  0  0  0  0  0  0  0  0  0  0
   45.2705    2.2894    9.7695 C   0  0  0  0  0  0  0  0  0  0  0  0
   45.1386    4.4005    8.6354 C   0  0  0  0  0  0  0  0  0  0  0  0
   44.1424    4.8179    9.5220 C   0  0  0  0  0  0  0  0  0  0  0  0
   44.2744    2.7007   10.6592 C   0  0  0  0  0  0  0  0  0  0  0  0
   43.7090    3.9658   10.5335 C   0  0  0  0  0  0  0  0  0  0  0  0
   44.7322    3.6289    8.5247 C   0  0  2  0  0  0  0  0  0  0  0  0
   45.0301    4.8470    9.3704 C   0  0  0  0  0  0  0  0  0  0  0  0
   44.7047    3.5464   10.0369 C   0  0  1  0  0  0  0  0  0  0  0  0
   45.8428    2.9587    7.7503 C   0  0  0  0  0  0  0  0  0  0  0  0
   43.4293    3.3994   10.7373 N   0  0  0  0  0  0  0  0  0  0  0  0
   46.6190    3.6741    6.8227 C   0  0  0  0  0  0  0  0  0  0  0  0
   46.1197    1.5899    7.9037 C   0  0  0  0  0  0  0  0  0  0  0  0
   47.1365    0.9658    7.1760 C   0  0  0  0  0  0  0  0  0  0  0  0
   47.6372    3.0552    6.0924 C   0  0  0  0  0  0  0  0  0  0  0  0
   47.8962    1.6997    6.2708 C   0  0  0  0  0  0  0  0  0  0  0  0
   47.8170    2.9237    8.1035 H   0  0  0  0  0  0  0  0  0  0  0  0
   45.7478    0.8138    7.1178 H   0  0  0  0  0  0  0  0  0  0  0  0
   47.5463    0.7899    6.8642 H   0  0  0  0  0  0  0  0  0  0  0  0
   45.5640    2.9876    5.9482 H   0  0  0  0  0  0  0  0  0  0  0  0
   47.4881    2.7209    4.4538 H   0  0  0  0  0  0  0  0  0  0  0  0
   47.6796    4.1061    5.2890 H   0  0  0  0  0  0  0  0  0  0  0  0
   45.7067    1.2997    9.8855 H   0  0  0  0  0  0  0  0  0  0  0  0
   45.4716    5.0818    7.8559 H   0  0  0  0  0  0  0  0  0  0  0  0
   43.7092    5.8099    9.4227 H   0  0  0  0  0  0  0  0  0  0  0  0
   43.9446    2.0325   11.4505 H   0  0  0  0  0  0  0  0  0  0  0  0
   42.9359    4.2886   11.2252 H   0  0  0  0  0  0  0  0  0  0  0  0
   43.7686    3.6312    8.0182 H   0  0  0  0  0  0  0  0  0  0  0  0
   44.2952    5.6436    9.3905 H   0  0  0  0  0  0  0  0  0  0  0  0
   46.0534    5.1998    9.4458 H   0  0  0  0  0  0  0  0  0  0  0  0
   45.5366    3.0446   10.5276 H   0  0  0  0  0  0  0  0  0  0  0  0
   43.1147    2.4311   10.7054 H   0  0  0  0  0  0  0  0  0  0  0  0
   42.6927    3.9485   10.2956 H   0  0  0  0  0  0  0  0  0  0  0  0
   46.4268    4.7331    6.6673 H   0  0  0  0  0  0  0  0  0  0  0  0
   45.5329    0.9990    8.6037 H   0  0  0  0  0  0  0  0  0  0  0  0
   47.3330   -0.0935    7.3182 H   0  0  0  0  0  0  0  0  0  0  0  0
   48.2249    3.6337    5.3847 H   0  0  0  0  0  0  0  0  0  0  0  0
   48.6877    1.2161    5.7045 H   0  0  0  0  0  0  0  0  0  0  0  0
  2  1  1  0
  3  1  1  0
  1  4  1  0
  3  5  1  0
  6  4  2  0
  7  4  1  0
  8  7  2  0
  9  6  1  0
 10  9  2  0
  3  2  1  0
  8 10  1  0
 12 11  1  0
 13 11  1  0
 11 14  1  0
 13 15  1  0
 16 14  2  0
 17 14  1  0
 18 17  2  0
 19 16  1  0
 20 19  2  0
 13 12  1  0
 18 20  1  0
  1 21  1  6
  2 22  1  0
  2 23  1  0
  3 24  1  1
  5 25  1  0
  5 26  1  0
  6 27  1  0
  7 28  1  0
  8 29  1  0
  9 30  1  0
 10 31  1  0
 11 32  1  1
 12 33  1  0
 12 34  1  0
 13 35  1  6
 15 36  1  0
 15 37  1  0
 16 38  1  0
 17 39  1  0
 18 40  1  0
 19 41  1  0
 20 42  1  0
M  END
> <Uni-Dock RESULT> 
ENERGY=   -8.804  LOWER_BOUND=    0.000  UPPER_BOUND=    0.000
INTER + INTRA:          -8.804
INTER:                  -8.804
INTRA:                   0.000
UNBOUND:                 0.000

$$$$

     RDKit          3D

 42 44  0  0  0  0  0  0  0  0999 V2000
   44.5821    3.2925    9.0632 C   0  0  1  0  0  0  0  0  0  0  0  0
   44.6806    3.0104   10.5447 C   0  0  0  0  0  0  0  0  0  0  0  0
   44.8583    4.4099   10.0465 C   0  0  2  0  0  0  0  0  0  0  0  0
   45.6707    2.8220    8.1274 C   0  0  0  0  0  0  0  0  0  0  0  0
   43.8106    5.3919   10.3233 N   0  0  0  0  0  0  0  0  0  0  0  0
   46.0572    1.4722    8.0747 C   0  0  0  0  0  0  0  0  0  0  0  0
   46.3162    3.7124    7.2530 C   0  0  0  0  0  0  0  0  0  0  0  0
   47.3149    3.2787    6.3770 C   0  0  0  0  0  0  0  0  0  0  0  0
   47.0555    1.0322    7.2013 C   0  0  0  0  0  0  0  0  0  0  0  0
   47.6857    1.9375    6.3532 C   0  0  0  0  0  0  0  0  0  0  0  0
   46.6855    3.2647    7.9132 C   0  0  2  0  0  0  0  0  0  0  0  0
   46.4328    3.4535    6.4340 C   0  0  0  0  0  0  0  0  0  0  0  0
   46.6800    2.0782    6.9717 C   0  0  1  0  0  0  0  0  0  0  0  0
   45.5577    3.4523    8.9008 C   0  0  0  0  0  0  0  0  0  0  0  0
   47.9328    1.3966    6.6481 N   0  0  0  0  0  0  0  0  0  0  0  0
   44.8362    4.6566    8.9627 C   0  0  0  0  0  0  0  0  0  0  0  0
   45.2098    2.4441    9.8151 C   0  0  0  0  0  0  0  0  0  0  0  0
   44.1771    2.6230   10.7396 C   0  0  0  0  0  0  0  0  0  0  0  0
   43.8025    4.8410    9.8849 C   0  0  0  0  0  0  0  0  0  0  0  0
   43.4726    3.8220   10.7732 C   0  0  0  0  0  0  0  0  0  0  0  0
   43.5779    3.2589    8.6437 H   0  0  0  0  0  0  0  0  0  0  0  0
   45.5574    2.4998   10.9261 H   0  0  0  0  0  0  0  0  0  0  0  0
   43.7651    2.7590   11.0679 H   0  0  0  0  0  0  0  0  0  0  0  0
   45.8720    4.8055   10.0824 H   0  0  0  0  0  0  0  0  0  0  0  0
   43.9659    5.8374   11.2263 H   0  0  0  0  0  0  0  0  0  0  0  0
   43.8280    6.1398    9.6317 H   0  0  0  0  0  0  0  0  0  0  0  0
   45.5698    0.7506    8.7266 H   0  0  0  0  0  0  0  0  0  0  0  0
   46.0327    4.7623    7.2530 H   0  0  0  0  0  0  0  0  0  0  0  0
   47.7990    3.9896    5.7122 H   0  0  0  0  0  0  0  0  0  0  0  0
   47.3363   -0.0176    7.1835 H   0  0  0  0  0  0  0  0  0  0  0  0
   48.4607    1.5975    5.6718 H   0  0  0  0  0  0  0  0  0  0  0  0
   47.6575    3.5991    8.2716 H   0  0  0  0  0  0  0  0  0  0  0  0
   47.2061    3.9313    5.8434 H   0  0  0  0  0  0  0  0  0  0  0  0
   45.4272    3.6794    6.0948 H   0  0  0  0  0  0  0  0  0  0  0  0
   45.8148    1.4184    7.0004 H   0  0  0  0  0  0  0  0  0  0  0  0
   48.1991    0.7641    7.4008 H   0  0  0  0  0  0  0  0  0  0  0  0
   48.7042    2.0556    6.5492 H   0  0  0  0  0  0  0  0  0  0  0  0
   45.0841    5.4652    8.2790 H   0  0  0  0  0  0  0  0  0  0  0  0
   45.7529    1.5014    9.8066 H   0  0  0  0  0  0  0  0  0  0  0  0
   43.9252    1.8243   11.4321 H   0  0  0  0  0  0  0  0  0  0  0  0
   43.2580    5.7812    9.9078 H   0  0  0  0  0  0  0  0  0  0  0  0
   42.6688    3.9625   11.4910 H   0  0  0  0  0  0  0  0  0  0  0  0
  2  1  1  0
  3  1  1  0
  1  4  1  0
  3  5  1  0
  6  4  2  0
  7  4  1  0
  8  7  2  0
  9  6  1  0
 10  9  2  0
  3  2  1  0
  8 10  1  0
 12 11  1  0
 13 11  1  0
 11 14  1  0
 13 15  1  0
 16 14  2  0
 17 14  1  0
 18 17  2  0
 19 16  1  0
 20 19  2  0
 13 12  1  0
 18 20  1  0
  1 21  1  6
  2 22  1  0
  2 23  1  0
  3 24  1  1
  5 25  1  0
  5 26  1  0
  6 27  1  0
  7 28  1  0
  8 29  1  0
  9 30  1  0
 10 31  1  0
 11 32  1  1
 12 33  1  0
 12 34  1  0
 13 35  1  6
 15 36  1  0
 15 37  1  0
 16 38  1  0
 17 39  1  0
 18 40  1  0
 19 41  1  0
 20 42  1  0
M  END
> <Uni-Dock RESULT> 
ENERGY=   -8.608  LOWER_BOUND=    0.807  UPPER_BOUND=    4.305
INTER + INTRA:          -8.608
INTER:                  -8.608
INTRA:                   0.000
UNBOUND:                 0.000

$$$$

     RDKit          3D

 42 44  0  0  0  0  0  0  0  0999 V2000
   45.5643    3.3208    9.1878 C   0  0  1  0  0  0  0  0  0  0  0  0
   44.3569    4.2246    9.0900 C   0  0  0  0  0  0  0  0  0  0  0  0
   44.1725    2.7824    9.4424 C   0  0  2  0  0  0  0  0  0  0  0  0
   46.3144    2.9191    7.9396 C   0  0  0  0  0  0  0  0  0  0  0  0
   43.7794    2.4381   10.8082 N   0  0  0  0  0  0  0  0  0  0  0  0
   46.8241    3.8808    7.0511 C   0  0  0  0  0  0  0  0  0  0  0  0
   46.5564    1.5686    7.6368 C   0  0  0  0  0  0  0  0  0  0  0  0
   47.2606    1.1936    6.4895 C   0  0  0  0  0  0  0  0  0  0  0  0
   47.5288    3.5122    5.9020 C   0  0  0  0  0  0  0  0  0  0  0  0
   47.7453    2.1668    5.6208 C   0  0  0  0  0  0  0  0  0  0  0  0
   46.0720    2.1331    7.1682 C   0  0  2  0  0  0  0  0  0  0  0  0
   47.3535    1.3557    7.3710 C   0  0  0  0  0  0  0  0  0  0  0  0
   47.3896    2.6627    6.6413 C   0  0  1  0  0  0  0  0  0  0  0  0
   45.4029    2.8041    8.3448 C   0  0  0  0  0  0  0  0  0  0  0  0
   47.6498    2.6731    5.2022 N   0  0  0  0  0  0  0  0  0  0  0  0
   45.0270    2.0722    9.4840 C   0  0  0  0  0  0  0  0  0  0  0  0
   45.1021    4.1763    8.3313 C   0  0  0  0  0  0  0  0  0  0  0  0
   44.4688    4.7945    9.4130 C   0  0  0  0  0  0  0  0  0  0  0  0
   44.3937    2.6851   10.5686 C   0  0  0  0  0  0  0  0  0  0  0  0
   44.1157    4.0481   10.5325 C   0  0  0  0  0  0  0  0  0  0  0  0
   46.1912    3.4666   10.0662 H   0  0  0  0  0  0  0  0  0  0  0  0
   44.0195    4.5480    8.1120 H   0  0  0  0  0  0  0  0  0  0  0  0
   44.2249    4.9688    9.8670 H   0  0  0  0  0  0  0  0  0  0  0  0
   43.7304    2.1540    8.6708 H   0  0  0  0  0  0  0  0  0  0  0  0
   42.7651    2.4516   10.9039 H   0  0  0  0  0  0  0  0  0  0  0  0
   44.0729    1.4900   11.0379 H   0  0  0  0  0  0  0  0  0  0  0  0
   46.6691    4.9370    7.2598 H   0  0  0  0  0  0  0  0  0  0  0  0
   46.1917    0.7958    8.3093 H   0  0  0  0  0  0  0  0  0  0  0  0
   47.4322    0.1411    6.2787 H   0  0  0  0  0  0  0  0  0  0  0  0
   47.9097    4.2775    5.2307 H   0  0  0  0  0  0  0  0  0  0  0  0
   48.2947    1.8778    4.7291 H   0  0  0  0  0  0  0  0  0  0  0  0
   45.3824    1.7213    6.4333 H   0  0  0  0  0  0  0  0  0  0  0  0
   47.4857    0.4386    6.8085 H   0  0  0  0  0  0  0  0  0  0  0  0
   47.8029    1.3270    8.3582 H   0  0  0  0  0  0  0  0  0  0  0  0
   47.8480    3.4917    7.1773 H   0  0  0  0  0  0  0  0  0  0  0  0
   47.1858    3.4658    4.7619 H   0  0  0  0  0  0  0  0  0  0  0  0
   47.2762    1.8410    4.7470 H   0  0  0  0  0  0  0  0  0  0  0  0
   45.2323    1.0051    9.5268 H   0  0  0  0  0  0  0  0  0  0  0  0
   45.3666    4.7750    7.4624 H   0  0  0  0  0  0  0  0  0  0  0  0
   44.2526    5.8589    9.3783 H   0  0  0  0  0  0  0  0  0  0  0  0
   44.1178    2.0957   11.4389 H   0  0  0  0  0  0  0  0  0  0  0  0
   43.6238    4.5273   11.3748 H   0  0  0  0  0  0  0  0  0  0  0  0
  2  1  1  0
  3  1  1  0
  1  4  1  0
  3  5  1  0
  6  4  2  0
  7  4  1  0
  8  7  2  0
  9  6  1  0
 10  9  2  0
  3  2  1  0
  8 10  1  0
 12 11  1  0
 13 11  1  0
 11 14  1  0
 13 15  1  0
 16 14  2  0
 17 14  1  0
 18 17  2  0
 19 16  1  0
 20 19  2  0
 13 12  1  0
 18 20  1  0
  1 21  1  6
  2 22  1  0
  2 23  1  0
  3 24  1  1
  5 25  1  0
  5 26  1  0
  6 27  1  0
  7 28  1  0
  8 29  1  0
  9 30  1  0
 10 31  1  0
 11 32  1  1
 12 33  1  0
 12 34  1  0
 13 35  1  6
 15 36  1  0
 15 37  1  0
 16 38  1  0
 17 39  1  0
 18 40  1  0
 19 41  1  0
 20 42  1  0
M  END
> <Uni-Dock RESULT> 
ENERGY=   -8.587  LOWER_BOUND=    0.634  UPPER_BOUND=    4.626
INTER + INTRA:          -8.587
INTER:                  -8.587
INTRA:                   0.000
UNBOUND:                 0.000

$$$$

     RDKit          3D

 42 44  0  0  0  0  0  0  0  0999 V2000
   45.9133    2.7356    7.2473 C   0  0  1  0  0  0  0  0  0  0  0  0
   47.1215    3.5155    6.7822 C   0  0  0  0  0  0  0  0  0  0  0  0
   47.3015    2.1387    7.3391 C   0  0  2  0  0  0  0  0  0  0  0  0
   45.1821    3.1473    8.5035 C   0  0  0  0  0  0  0  0  0  0  0  0
   47.6745    1.0565    6.4290 N   0  0  0  0  0  0  0  0  0  0  0  0
   44.6851    4.4513    8.6665 C   0  0  0  0  0  0  0  0  0  0  0  0
   44.9455    2.2321    9.5429 C   0  0  0  0  0  0  0  0  0  0  0  0
   44.2586    2.6058   10.7011 C   0  0  0  0  0  0  0  0  0  0  0  0
   43.9977    4.8313    9.8224 C   0  0  0  0  0  0  0  0  0  0  0  0
   43.7863    3.9074   10.8410 C   0  0  0  0  0  0  0  0  0  0  0  0
   45.4364    2.9600    9.5860 C   0  0  2  0  0  0  0  0  0  0  0  0
   44.1525    2.2217    9.8929 C   0  0  0  0  0  0  0  0  0  0  0  0
   44.1264    3.7086    9.7191 C   0  0  1  0  0  0  0  0  0  0  0  0
   46.0875    2.8092    8.2311 C   0  0  0  0  0  0  0  0  0  0  0  0
   43.8877    4.5621   10.8825 N   0  0  0  0  0  0  0  0  0  0  0  0
   46.4470    1.5457    7.7319 C   0  0  0  0  0  0  0  0  0  0  0  0
   46.3877    3.9269    7.4346 C   0  0  0  0  0  0  0  0  0  0  0  0
   47.0045    3.7892    6.1880 C   0  0  0  0  0  0  0  0  0  0  0  0
   47.0637    1.4021    6.4862 C   0  0  0  0  0  0  0  0  0  0  0  0
   47.3413    2.5257    5.7136 C   0  0  0  0  0  0  0  0  0  0  0  0
   45.2734    2.3445    6.4578 H   0  0  0  0  0  0  0  0  0  0  0  0
   47.4732    4.3477    7.3811 H   0  0  0  0  0  0  0  0  0  0  0  0
   47.2414    3.6625    5.7149 H   0  0  0  0  0  0  0  0  0  0  0  0
   47.7554    2.0777    8.3269 H   0  0  0  0  0  0  0  0  0  0  0  0
   48.6872    1.0031    6.3310 H   0  0  0  0  0  0  0  0  0  0  0  0
   47.3782    0.1559    6.8019 H   0  0  0  0  0  0  0  0  0  0  0  0
   44.8363    5.1838    7.8768 H   0  0  0  0  0  0  0  0  0  0  0  0
   45.3006    1.2088    9.4461 H   0  0  0  0  0  0  0  0  0  0  0  0
   44.0908    1.8776   11.4905 H   0  0  0  0  0  0  0  0  0  0  0  0
   43.6264    5.8479    9.9229 H   0  0  0  0  0  0  0  0  0  0  0  0
   43.2504    4.1999   11.7397 H   0  0  0  0  0  0  0  0  0  0  0  0
   46.1371    3.0510   10.4142 H   0  0  0  0  0  0  0  0  0  0  0  0
   44.0293    1.8089   10.8876 H   0  0  0  0  0  0  0  0  0  0  0  0
   43.6885    1.6239    9.1153 H   0  0  0  0  0  0  0  0  0  0  0  0
   43.6596    4.0704    8.8048 H   0  0  0  0  0  0  0  0  0  0  0  0
   44.3577    5.4586   10.7692 H   0  0  0  0  0  0  0  0  0  0  0  0
   44.2686    4.1512   11.7342 H   0  0  0  0  0  0  0  0  0  0  0  0
   46.2417    0.6575    8.3249 H   0  0  0  0  0  0  0  0  0  0  0  0
   46.1357    4.9232    7.7913 H   0  0  0  0  0  0  0  0  0  0  0  0
   47.2205    4.6704    5.5900 H   0  0  0  0  0  0  0  0  0  0  0  0
   47.3270    0.4124    6.1227 H   0  0  0  0  0  0  0  0  0  0  0  0
   47.8204    2.4168    4.7442 H   0  0  0  0  0  0  0  0  0  0  0  0
  2  1  1  0
  3  1  1  0
  1  4  1  0
  3  5  1  0
  6  4  2  0
  7  4  1  0
  8  7  2  0
  9  6  1  0
 10  9  2  0
  3  2  1  0
  8 10  1  0
 12 11  1  0
 13 11  1  0
 11 14  1  0
 13 15  1  0
 16 14  2  0
 17 14  1  0
 18 17  2  0
 19 16  1  0
 20 19  2  0
 13 12  1  0
 18 20  1  0
  1 21  1  6
  2 22  1  0
  2 23  1  0
  3 24  1  1
  5 25  1  0
  5 26  1  0
  6 27  1  0
  7 28  1  0
  8 29  1  0
  9 30  1  0
 10 31  1  0
 11 32  1  1
 12 33  1  0
 12 34  1  0
 13 35  1  6
 15 36  1  0
 15 37  1  0
 16 38  1  0
 17 39  1  0
 18 40  1  0
 19 41  1  0
 20 42  1  0
M  END
> <Uni-Dock RESULT> 
ENERGY=   -8.434  LOWER_BOUND=    0.845  UPPER_BOUND=    1.922
INTER + INTRA:          -8.434
INTER:                  -8.434
INTRA:                   0.000
UNBOUND:                 0.000

$$$$

     RDKit          3D

 42 44  0  0  0  0  0  0  0  0999 V2000
   45.4073    3.4646    9.5381 C   0  0  1  0  0  0  0  0  0  0  0  0
   44.8596    2.2590    8.8095 C   0  0  0  0  0  0  0  0  0  0  0  0
   44.9473    3.5732    8.1000 C   0  0  2  0  0  0  0  0  0  0  0  0
   44.6043    4.1143   10.6405 C   0  0  0  0  0  0  0  0  0  0  0  0
   45.9441    3.7347    7.0422 N   0  0  0  0  0  0  0  0  0  0  0  0
   44.1431    3.3750   11.7427 C   0  0  0  0  0  0  0  0  0  0  0  0
   44.3148    5.4889   10.6190 C   0  0  0  0  0  0  0  0  0  0  0  0
   43.5829    6.0959   11.6431 C   0  0  0  0  0  0  0  0  0  0  0  0
   43.4105    3.9760   12.7698 C   0  0  0  0  0  0  0  0  0  0  0  0
   43.1290    5.3376   12.7182 C   0  0  0  0  0  0  0  0  0  0  0  0
   43.7347    4.8296   10.5803 C   0  0  2  0  0  0  0  0  0  0  0  0
   44.4213    5.9309   11.3571 C   0  0  0  0  0  0  0  0  0  0  0  0
   43.9190    4.7196   12.0797 C   0  0  1  0  0  0  0  0  0  0  0  0
   44.5373    3.9480    9.6525 C   0  0  0  0  0  0  0  0  0  0  0  0
   42.7643    4.8428   12.9687 N   0  0  0  0  0  0  0  0  0  0  0  0
   45.3036    4.4950    8.6092 C   0  0  0  0  0  0  0  0  0  0  0  0
   44.5221    2.5487    9.7766 C   0  0  0  0  0  0  0  0  0  0  0  0
   45.2519    1.7318    8.9087 C   0  0  0  0  0  0  0  0  0  0  0  0
   46.0354    3.6830    7.7385 C   0  0  0  0  0  0  0  0  0  0  0  0
   46.0097    2.3000    7.8899 C   0  0  0  0  0  0  0  0  0  0  0  0
   46.4842    3.4674    9.6996 H   0  0  0  0  0  0  0  0  0  0  0  0
   43.8719    1.8933    9.0655 H   0  0  0  0  0  0  0  0  0  0  0  0
   45.5599    1.4768    8.5398 H   0  0  0  0  0  0  0  0  0  0  0  0
   44.0021    4.0806    7.9141 H   0  0  0  0  0  0  0  0  0  0  0  0
   45.5689    3.4289    6.1457 H   0  0  0  0  0  0  0  0  0  0  0  0
   46.1887    4.7169    6.9266 H   0  0  0  0  0  0  0  0  0  0  0  0
   44.3603    2.3108   11.8014 H   0  0  0  0  0  0  0  0  0  0  0  0
   44.6691    6.0975    9.7904 H   0  0  0  0  0  0  0  0  0  0  0  0
   43.3719    7.1614   11.6004 H   0  0  0  0  0  0  0  0  0  0  0  0
   43.0639    3.3792   13.6095 H   0  0  0  0  0  0  0  0  0  0  0  0
   42.5613    5.8076   13.5166 H   0  0  0  0  0  0  0  0  0  0  0  0
   42.7304    5.0576   10.2273 H   0  0  0  0  0  0  0  0  0  0  0  0
   43.8942    6.8700   11.4808 H   0  0  0  0  0  0  0  0  0  0  0  0
   45.4968    6.0459   11.2712 H   0  0  0  0  0  0  0  0  0  0  0  0
   44.6827    4.0342   12.4428 H   0  0  0  0  0  0  0  0  0  0  0  0
   42.2407    3.9695   12.9959 H   0  0  0  0  0  0  0  0  0  0  0  0
   42.1104    5.5519   12.6389 H   0  0  0  0  0  0  0  0  0  0  0  0
   45.3310    5.5737    8.4735 H   0  0  0  0  0  0  0  0  0  0  0  0
   43.9315    2.0864   10.5646 H   0  0  0  0  0  0  0  0  0  0  0  0
   45.2265    0.6523    9.0307 H   0  0  0  0  0  0  0  0  0  0  0  0
   46.6230    4.1332    6.9429 H   0  0  0  0  0  0  0  0  0  0  0  0
   46.5783    1.6663    7.2145 H   0  0  0  0  0  0  0  0  0  0  0  0
  2  1  1  0
  3  1  1  0
  1  4  1  0
  3  5  1  0
  6  4  2  0
  7  4  1  0
  8  7  2  0
  9  6  1  0
 10  9  2  0
  3  2  1  0
  8 10  1  0
 12 11  1  0
 13 11  1  0
 11 14  1  0
 13 15  1  0
 16 14  2  0
 17 14  1  0
 18 17  2  0
 19 16  1  0
 20 19  2  0
 13 12  1  0
 18 20  1  0
  1 21  1  6
  2 22  1  0
  2 23  1  0
  3 24  1  1
  5 25  1  0
  5 26  1  0
  6 27  1  0
  7 28  1  0
  8 29  1  0
  9 30  1  0
 10 31  1  0
 11 32  1  1
 12 33  1  0
 12 34  1  0
 13 35  1  6
 15 36  1  0
 15 37  1  0
 16 38  1  0
 17 39  1  0
 18 40  1  0
 19 41  1  0
 20 42  1  0
M  END
> <Uni-Dock RESULT> 
ENERGY=   -8.255  LOWER_BOUND=    1.566  UPPER_BOUND=    2.529
INTER + INTRA:          -8.255
INTER:                  -8.255
INTRA:                   0.000
UNBOUND:                 0.000

$$$$

     RDKit          3D

 42 44  0  0  0  0  0  0  0  0999 V2000
   45.7849    6.7848   13.0587 C   0  0  1  0  0  0  0  0  0  0  0  0
   47.1881    6.9548   12.5237 C   0  0  0  0  0  0  0  0  0  0  0  0
   46.1220    7.9237   12.1202 C   0  0  2  0  0  0  0  0  0  0  0  0
   44.9240    5.6394   12.5799 C   0  0  0  0  0  0  0  0  0  0  0  0
   46.1780    9.2877   12.6447 N   0  0  0  0  0  0  0  0  0  0  0  0
   45.3624    4.3076   12.6696 C   0  0  0  0  0  0  0  0  0  0  0  0
   43.6400    5.8619   12.0548 C   0  0  0  0  0  0  0  0  0  0  0  0
   42.8357    4.8041   11.6224 C   0  0  0  0  0  0  0  0  0  0  0  0
   44.5632    3.2453   12.2386 C   0  0  0  0  0  0  0  0  0  0  0  0
   43.2993    3.4949   11.7129 C   0  0  0  0  0  0  0  0  0  0  0  0
   44.3309    5.5258   11.6277 C   0  0  2  0  0  0  0  0  0  0  0  0
   43.0020    5.3416   12.3262 C   0  0  0  0  0  0  0  0  0  0  0  0
   44.0015    4.2268   12.3336 C   0  0  1  0  0  0  0  0  0  0  0  0
   45.3647    6.4617   12.2085 C   0  0  0  0  0  0  0  0  0  0  0  0
   43.7337    3.0190   11.5536 N   0  0  0  0  0  0  0  0  0  0  0  0
   45.0677    7.8129   12.4553 C   0  0  0  0  0  0  0  0  0  0  0  0
   46.6696    6.0257   12.4928 C   0  0  0  0  0  0  0  0  0  0  0  0
   47.6311    6.8949   13.0154 C   0  0  0  0  0  0  0  0  0  0  0  0
   46.0251    8.6865   12.9778 C   0  0  0  0  0  0  0  0  0  0  0  0
   47.3077    8.2258   13.2589 C   0  0  0  0  0  0  0  0  0  0  0  0
   45.6452    7.0501   14.1055 H   0  0  0  0  0  0  0  0  0  0  0  0
   47.5506    6.2665   11.7689 H   0  0  0  0  0  0  0  0  0  0  0  0
   47.9519    7.2845   13.2187 H   0  0  0  0  0  0  0  0  0  0  0  0
   45.7692    7.8467   11.0930 H   0  0  0  0  0  0  0  0  0  0  0  0
   46.7530    9.8789   12.0464 H   0  0  0  0  0  0  0  0  0  0  0  0
   45.2501    9.7082   12.6508 H   0  0  0  0  0  0  0  0  0  0  0  0
   46.3453    4.0950   13.0841 H   0  0  0  0  0  0  0  0  0  0  0  0
   43.2592    6.8782   11.9847 H   0  0  0  0  0  0  0  0  0  0  0  0
   41.8467    5.0050   11.2187 H   0  0  0  0  0  0  0  0  0  0  0  0
   44.9289    2.2249   12.3174 H   0  0  0  0  0  0  0  0  0  0  0  0
   42.6752    2.6706   11.3790 H   0  0  0  0  0  0  0  0  0  0  0  0
   44.2970    5.5124   10.5396 H   0  0  0  0  0  0  0  0  0  0  0  0
   42.1142    5.2444   11.7118 H   0  0  0  0  0  0  0  0  0  0  0  0
   42.8243    5.8537   13.2661 H   0  0  0  0  0  0  0  0  0  0  0  0
   44.4904    4.0354   13.2870 H   0  0  0  0  0  0  0  0  0  0  0  0
   44.6060    2.5964   11.2402 H   0  0  0  0  0  0  0  0  0  0  0  0
   43.2034    3.2276   10.7084 H   0  0  0  0  0  0  0  0  0  0  0  0
   44.0717    8.1908   12.2368 H   0  0  0  0  0  0  0  0  0  0  0  0
   46.9420    4.9894   12.3045 H   0  0  0  0  0  0  0  0  0  0  0  0
   48.6316    6.5298   13.2312 H   0  0  0  0  0  0  0  0  0  0  0  0
   45.7668    9.7257   13.1629 H   0  0  0  0  0  0  0  0  0  0  0  0
   48.0540    8.9029   13.6658 H   0  0  0  0  0  0  0  0  0  0  0  0
  2  1  1  0
  3  1  1  0
  1  4  1  0
  3  5  1  0
  6  4  2  0
  7  4  1  0
  8  7  2  0
  9  6  1  0
 10  9  2  0
  3  2  1  0
  8 10  1  0
 12 11  1  0
 13 11  1  0
 11 14  1  0
 13 15  1  0
 16 14  2  0
 17 14  1  0
 18 17  2  0
 19 16  1  0
 20 19  2  0
 13 12  1  0
 18 20  1  0
  1 21  1  6
  2 22  1  0
  2 23  1  0
  3 24  1  1
  5 25  1  0
  5 26  1  0
  6 27  1  0
  7 28  1  0
  8 29  1  0
  9 30  1  0
 10 31  1  0
 11 32  1  1
 12 33  1  0
 12 34  1  0
 13 35  1  6
 15 36  1  0
 15 37  1  0
 16 38  1  0
 17 39  1  0
 18 40  1  0
 19 41  1  0
 20 42  1  0
M  END
> <Uni-Dock RESULT> 
ENERGY=   -6.014  LOWER_BOUND=    4.638  UPPER_BOUND=    6.018
INTER + INTRA:          -6.014
INTER:                  -6.014
INTRA:                   0.000
UNBOUND:                 0.000

$$$$

     RDKit          3D

 42 44  0  0  0  0  0  0  0  0999 V2000
   46.6738    6.7008   12.2384 C   0  0  1  0  0  0  0  0  0  0  0  0
   46.8776    8.0833   12.8142 C   0  0  0  0  0  0  0  0  0  0  0  0
   47.3555    6.8884   13.5770 C   0  0  2  0  0  0  0  0  0  0  0  0
   45.2879    6.1032   12.1723 C   0  0  0  0  0  0  0  0  0  0  0  0
   48.7950    6.6534   13.6837 N   0  0  0  0  0  0  0  0  0  0  0  0
   44.2325    6.7726   11.5303 C   0  0  0  0  0  0  0  0  0  0  0  0
   45.0106    4.8414   12.7244 C   0  0  0  0  0  0  0  0  0  0  0  0
   43.7329    4.2798   12.6543 C   0  0  0  0  0  0  0  0  0  0  0  0
   42.9525    6.2166   11.4572 C   0  0  0  0  0  0  0  0  0  0  0  0
   42.7029    4.9696   12.0216 C   0  0  0  0  0  0  0  0  0  0  0  0
   44.6702    5.6115   12.9773 C   0  0  2  0  0  0  0  0  0  0  0  0
   44.5373    4.2928   12.2486 C   0  0  0  0  0  0  0  0  0  0  0  0
   43.7506    5.4778   11.7812 C   0  0  1  0  0  0  0  0  0  0  0  0
   45.9477    6.4100   12.8643 C   0  0  0  0  0  0  0  0  0  0  0  0
   42.3004    5.4948   11.9692 N   0  0  0  0  0  0  0  0  0  0  0  0
   47.1894    5.8514   13.2121 C   0  0  0  0  0  0  0  0  0  0  0  0
   45.9389    7.7490   12.4395 C   0  0  0  0  0  0  0  0  0  0  0  0
   47.1185    8.4932   12.3499 C   0  0  0  0  0  0  0  0  0  0  0  0
   48.3720    6.5907   13.1243 C   0  0  0  0  0  0  0  0  0  0  0  0
   48.3356    7.9127   12.6916 C   0  0  0  0  0  0  0  0  0  0  0  0
   47.3205    6.4395   11.4022 H   0  0  0  0  0  0  0  0  0  0  0  0
   46.0227    8.6202   13.2091 H   0  0  0  0  0  0  0  0  0  0  0  0
   47.6124    8.7209   12.3362 H   0  0  0  0  0  0  0  0  0  0  0  0
   46.7863    6.6308   14.4687 H   0  0  0  0  0  0  0  0  0  0  0  0
   49.1813    7.1508   14.4846 H   0  0  0  0  0  0  0  0  0  0  0  0
   48.9864    5.6658   13.8444 H   0  0  0  0  0  0  0  0  0  0  0  0
   44.4126    7.7455   11.0783 H   0  0  0  0  0  0  0  0  0  0  0  0
   45.8060    4.2854   13.2151 H   0  0  0  0  0  0  0  0  0  0  0  0
   43.5457    3.3023   13.0915 H   0  0  0  0  0  0  0  0  0  0  0  0
   42.1540    6.7579   10.9565 H   0  0  0  0  0  0  0  0  0  0  0  0
   41.7091    4.5343   11.9643 H   0  0  0  0  0  0  0  0  0  0  0  0
   44.1950    5.6591   13.9556 H   0  0  0  0  0  0  0  0  0  0  0  0
   44.0177    3.4848   12.7509 H   0  0  0  0  0  0  0  0  0  0  0  0
   45.3503    3.9562   11.6137 H   0  0  0  0  0  0  0  0  0  0  0  0
   44.0780    5.9237   10.8438 H   0  0  0  0  0  0  0  0  0  0  0  0
   41.9672    6.4504   12.0849 H   0  0  0  0  0  0  0  0  0  0  0  0
   42.0255    4.9973   12.8154 H   0  0  0  0  0  0  0  0  0  0  0  0
   47.2353    4.8210   13.5569 H   0  0  0  0  0  0  0  0  0  0  0  0
   44.9958    8.2211   12.1726 H   0  0  0  0  0  0  0  0  0  0  0  0
   47.0836    9.5258   12.0130 H   0  0  0  0  0  0  0  0  0  0  0  0
   49.3191    6.1321   13.3956 H   0  0  0  0  0  0  0  0  0  0  0  0
   49.2539    8.4897   12.6219 H   0  0  0  0  0  0  0  0  0  0  0  0
  2  1  1  0
  3  1  1  0
  1  4  1  0
  3  5  1  0
  6  4  2  0
  7  4  1  0
  8  7  2  0
  9  6  1  0
 10  9  2  0
  3  2  1  0
  8 10  1  0
 12 11  1  0
 13 11  1  0
 11 14  1  0
 13 15  1  0
 16 14  2  0
 17 14  1  0
 18 17  2  0
 19 16  1  0
 20 19  2  0
 13 12  1  0
 18 20  1  0
  1 21  1  6
  2 22  1  0
  2 23  1  0
  3 24  1  1
  5 25  1  0
  5 26  1  0
  6 27  1  0
  7 28  1  0
  8 29  1  0
  9 30  1  0
 10 31  1  0
 11 32  1  1
 12 33  1  0
 12 34  1  0
 13 35  1  6
 15 36  1  0
 15 37  1  0
 16 38  1  0
 17 39  1  0
 18 40  1  0
 19 41  1  0
 20 42  1  0
M  END
> <Uni-Dock RESULT> 
ENERGY=   -5.861  LOWER_BOUND=    5.045  UPPER_BOUND=    6.229
INTER + INTRA:          -5.861
INTER:                  -5.861
INTRA:                   0.000
UNBOUND:                 0.000

$$$$
