
     RDKit          3D

 42 44  0  0  0  0  0  0  0  0999 V2000
   45.3127    2.3844    7.9635 C   0  0  1  0  0  0  0  0  0  0  0  0
   46.3432    3.0055    7.0480 C   0  0  0  0  0  0  0  0  0  0  0  0
   46.7433    1.8875    7.9592 C   0  0  2  0  0  0  0  0  0  0  0  0
   44.7877    3.1578    9.1503 C   0  0  0  0  0  0  0  0  0  0  0  0
   47.0558    0.5731    7.3981 N   0  0  0  0  0  0  0  0  0  0  0  0
   44.2174    4.4329    9.0006 C   0  0  0  0  0  0  0  0  0  0  0  0
   44.8208    2.6132   10.4449 C   0  0  0  0  0  0  0  0  0  0  0  0
   44.3235    3.3163   11.5452 C   0  0  0  0  0  0  0  0  0  0  0  0
   43.7183    5.1417   10.0968 C   0  0  0  0  0  0  0  0  0  0  0  0
   43.7735    4.5827   11.3704 C   0  0  0  0  0  0  0  0  0  0  0  0
   44.4130    3.3977    9.6619 C   0  0  2  0  0  0  0  0  0  0  0  0
   44.8174    4.2220   10.8631 C   0  0  0  0  0  0  0  0  0  0  0  0
   44.5483    2.7589   11.0285 C   0  0  1  0  0  0  0  0  0  0  0  0
   45.4221    3.0899    8.5807 C   0  0  0  0  0  0  0  0  0  0  0  0
   43.3559    2.3264   11.7570 N   0  0  0  0  0  0  0  0  0  0  0  0
   46.1212    4.1146    7.9209 C   0  0  0  0  0  0  0  0  0  0  0  0
   45.6744    1.7698    8.1717 C   0  0  0  0  0  0  0  0  0  0  0  0
   46.5957    1.4825    7.1609 C   0  0  0  0  0  0  0  0  0  0  0  0
   47.0438    3.8343    6.9095 C   0  0  0  0  0  0  0  0  0  0  0  0
   47.2818    2.5164    6.5308 C   0  0  0  0  0  0  0  0  0  0  0  0
   44.5766    1.7417    7.4851 H   0  0  0  0  0  0  0  0  0  0  0  0
   46.7211    3.9951    7.2799 H   0  0  0  0  0  0  0  0  0  0  0  0
   46.2501    2.8138    5.9858 H   0  0  0  0  0  0  0  0  0  0  0  0
   47.3639    2.1604    8.8112 H   0  0  0  0  0  0  0  0  0  0  0  0
   46.4680    0.3598    6.5937 H   0  0  0  0  0  0  0  0  0  0  0  0
   48.0165    0.5499    7.0572 H   0  0  0  0  0  0  0  0  0  0  0  0
   44.1603    4.8818    8.0113 H   0  0  0  0  0  0  0  0  0  0  0  0
   45.2419    1.6208   10.5963 H   0  0  0  0  0  0  0  0  0  0  0  0
   44.3648    2.8716   12.5358 H   0  0  0  0  0  0  0  0  0  0  0  0
   43.2849    6.1278    9.9533 H   0  0  0  0  0  0  0  0  0  0  0  0
   43.3851    5.1310   12.2243 H   0  0  0  0  0  0  0  0  0  0  0  0
   43.4010    3.5629    9.2979 H   0  0  0  0  0  0  0  0  0  0  0  0
   45.8469    4.5495   10.9555 H   0  0  0  0  0  0  0  0  0  0  0  0
   44.0995    4.9318   11.2565 H   0  0  0  0  0  0  0  0  0  0  0  0
   45.4230    2.1357   11.2083 H   0  0  0  0  0  0  0  0  0  0  0  0
   42.5646    2.9440   11.5817 H   0  0  0  0  0  0  0  0  0  0  0  0
   43.0632    1.4007   11.4455 H   0  0  0  0  0  0  0  0  0  0  0  0
   45.9432    5.1510    8.2006 H   0  0  0  0  0  0  0  0  0  0  0  0
   45.1436    0.9493    8.6501 H   0  0  0  0  0  0  0  0  0  0  0  0
   46.7744    0.4518    6.8669 H   0  0  0  0  0  0  0  0  0  0  0  0
   47.5736    4.6463    6.4186 H   0  0  0  0  0  0  0  0  0  0  0  0
   47.9986    2.2959    5.7444 H   0  0  0  0  0  0  0  0  0  0  0  0
  2  1  1  0
  3  1  1  0
  1  4  1  0
  3  5  1  0
  6  4  2  0
  7  4  1  0
  8  7  2  0
  9  6  1  0
 10  9  2  0
  3  2  1  0
  8 10  1  0
 12 11  1  0
 13 11  1  0
 11 14  1  0
 13 15  1  0
 16 14  2  0
 17 14  1  0
 18 17  2  0
 19 16  1  0
 20 19  2  0
 13 12  1  0
 18 20  1  0
  1 21  1  6
  2 22  1  0
  2 23  1  0
  3 24  1  1
  5 25  1  0
  5 26  1  0
  6 27  1  0
  7 28  1  0
  8 29  1  0
  9 30  1  0
 10 31  1  0
 11 32  1  6
 12 33  1  0
 12 34  1  0
 13 35  1  1
 15 36  1  0
 15 37  1  0
 16 38  1  0
 17 39  1  0
 18 40  1  0
 19 41  1  0
 20 42  1  0
M  END
> <Uni-Dock RESULT> 
ENERGY=   -8.338  LOWER_BOUND=    0.000  UPPER_BOUND=    0.000
INTER + INTRA:          -8.338
INTER:                  -8.338
INTRA:                   0.000
UNBOUND:                 0.000

$$$$

     RDKit          3D

 42 44  0  0  0  0  0  0  0  0999 V2000
   45.3060    2.3941    7.9698 C   0  0  1  0  0  0  0  0  0  0  0  0
   46.3348    3.0185    7.0545 C   0  0  0  0  0  0  0  0  0  0  0  0
   46.7372    1.8986    7.9624 C   0  0  2  0  0  0  0  0  0  0  0  0
   44.7818    3.1640    9.1592 C   0  0  0  0  0  0  0  0  0  0  0  0
   47.0502    0.5860    7.3976 N   0  0  0  0  0  0  0  0  0  0  0  0
   44.2100    4.4389    9.0135 C   0  0  0  0  0  0  0  0  0  0  0  0
   44.8172    2.6161   10.4524 C   0  0  0  0  0  0  0  0  0  0  0  0
   44.3205    3.3160   11.5551 C   0  0  0  0  0  0  0  0  0  0  0  0
   43.7117    5.1444   10.1121 C   0  0  0  0  0  0  0  0  0  0  0  0
   43.7691    4.5822   11.3842 C   0  0  0  0  0  0  0  0  0  0  0  0
   44.4075    3.4022    9.6719 C   0  0  2  0  0  0  0  0  0  0  0  0
   44.8126    4.2239   10.8746 C   0  0  0  0  0  0  0  0  0  0  0  0
   44.5453    2.7601   11.0368 C   0  0  1  0  0  0  0  0  0  0  0  0
   45.4156    3.0981    8.5887 C   0  0  0  0  0  0  0  0  0  0  0  0
   43.3542    2.3245   11.7657 N   0  0  0  0  0  0  0  0  0  0  0  0
   46.1127    4.1252    7.9305 C   0  0  0  0  0  0  0  0  0  0  0  0
   45.6686    1.7793    8.1760 C   0  0  0  0  0  0  0  0  0  0  0  0
   46.5889    1.4955    7.1633 C   0  0  0  0  0  0  0  0  0  0  0  0
   47.0344    3.8484    6.9172 C   0  0  0  0  0  0  0  0  0  0  0  0
   47.2732    2.5316    6.5349 C   0  0  0  0  0  0  0  0  0  0  0  0
   44.5700    1.7518    7.4907 H   0  0  0  0  0  0  0  0  0  0  0  0
   46.7119    4.0079    7.2885 H   0  0  0  0  0  0  0  0  0  0  0  0
   46.2404    2.8293    5.9920 H   0  0  0  0  0  0  0  0  0  0  0  0
   47.3586    2.1699    8.8143 H   0  0  0  0  0  0  0  0  0  0  0  0
   46.4616    0.3740    6.5935 H   0  0  0  0  0  0  0  0  0  0  0  0
   48.0106    0.5646    7.0555 H   0  0  0  0  0  0  0  0  0  0  0  0
   44.1511    4.8902    8.0254 H   0  0  0  0  0  0  0  0  0  0  0  0
   45.2395    1.6238   10.6008 H   0  0  0  0  0  0  0  0  0  0  0  0
   44.3636    2.8688   12.5446 H   0  0  0  0  0  0  0  0  0  0  0  0
   43.2771    6.1304    9.9716 H   0  0  0  0  0  0  0  0  0  0  0  0
   43.3812    5.1280   12.2399 H   0  0  0  0  0  0  0  0  0  0  0  0
   43.3949    3.5673    9.3096 H   0  0  0  0  0  0  0  0  0  0  0  0
   45.8420    4.5522   10.9665 H   0  0  0  0  0  0  0  0  0  0  0  0
   44.0945    4.9320   11.2708 H   0  0  0  0  0  0  0  0  0  0  0  0
   45.4208    2.1374   11.2139 H   0  0  0  0  0  0  0  0  0  0  0  0
   42.5621    2.9418   11.5929 H   0  0  0  0  0  0  0  0  0  0  0  0
   43.0621    1.3994   11.4523 H   0  0  0  0  0  0  0  0  0  0  0  0
   45.9341    5.1607    8.2130 H   0  0  0  0  0  0  0  0  0  0  0  0
   45.1393    0.9571    8.6531 H   0  0  0  0  0  0  0  0  0  0  0  0
   46.7683    0.4656    6.8665 H   0  0  0  0  0  0  0  0  0  0  0  0
   47.5627    4.6621    6.4277 H   0  0  0  0  0  0  0  0  0  0  0  0
   47.9891    2.3138    5.7471 H   0  0  0  0  0  0  0  0  0  0  0  0
  2  1  1  0
  3  1  1  0
  1  4  1  0
  3  5  1  0
  6  4  2  0
  7  4  1  0
  8  7  2  0
  9  6  1  0
 10  9  2  0
  3  2  1  0
  8 10  1  0
 12 11  1  0
 13 11  1  0
 11 14  1  0
 13 15  1  0
 16 14  2  0
 17 14  1  0
 18 17  2  0
 19 16  1  0
 20 19  2  0
 13 12  1  0
 18 20  1  0
  1 21  1  6
  2 22  1  0
  2 23  1  0
  3 24  1  1
  5 25  1  0
  5 26  1  0
  6 27  1  0
  7 28  1  0
  8 29  1  0
  9 30  1  0
 10 31  1  0
 11 32  1  6
 12 33  1  0
 12 34  1  0
 13 35  1  1
 15 36  1  0
 15 37  1  0
 16 38  1  0
 17 39  1  0
 18 40  1  0
 19 41  1  0
 20 42  1  0
M  END
> <Uni-Dock RESULT> 
ENERGY=   -8.333  LOWER_BOUND=    0.014  UPPER_BOUND=    0.014
INTER + INTRA:          -8.333
INTER:                  -8.333
INTRA:                   0.000
UNBOUND:                 0.000

$$$$

     RDKit          3D

 42 44  0  0  0  0  0  0  0  0999 V2000
   44.7253    4.0653   11.5330 C   0  0  1  0  0  0  0  0  0  0  0  0
   43.8070    5.2069   11.9064 C   0  0  0  0  0  0  0  0  0  0  0  0
   43.3356    3.7960   12.0717 C   0  0  2  0  0  0  0  0  0  0  0  0
   45.0375    3.7862   10.0815 C   0  0  0  0  0  0  0  0  0  0  0  0
   43.1704    3.2407   13.4149 N   0  0  0  0  0  0  0  0  0  0  0  0
   45.5609    4.7814    9.2395 C   0  0  0  0  0  0  0  0  0  0  0  0
   44.8464    2.5084    9.5298 C   0  0  0  0  0  0  0  0  0  0  0  0
   45.1470    2.2389    8.1921 C   0  0  0  0  0  0  0  0  0  0  0  0
   45.8635    4.5187    7.9006 C   0  0  0  0  0  0  0  0  0  0  0  0
   45.6544    3.2462    7.3768 C   0  0  0  0  0  0  0  0  0  0  0  0
   45.3233    3.5884    9.4994 C   0  0  2  0  0  0  0  0  0  0  0  0
   44.7122    3.3950    8.1301 C   0  0  0  0  0  0  0  0  0  0  0  0
   45.0254    2.1993    8.9743 C   0  0  1  0  0  0  0  0  0  0  0  0
   44.4948    4.1650   10.6233 C   0  0  0  0  0  0  0  0  0  0  0  0
   46.1213    1.3124    8.5841 N   0  0  0  0  0  0  0  0  0  0  0  0
   43.8483    5.4055   10.4921 C   0  0  0  0  0  0  0  0  0  0  0  0
   44.3677    3.4981   11.8532 C   0  0  0  0  0  0  0  0  0  0  0  0
   43.6151    4.0362   12.9007 C   0  0  0  0  0  0  0  0  0  0  0  0
   43.0941    5.9492   11.5353 C   0  0  0  0  0  0  0  0  0  0  0  0
   42.9766    5.2623   12.7401 C   0  0  0  0  0  0  0  0  0  0  0  0
   45.5523    3.8771   12.2145 H   0  0  0  0  0  0  0  0  0  0  0  0
   43.3525    5.7933   11.1156 H   0  0  0  0  0  0  0  0  0  0  0  0
   44.0600    5.7859   12.7864 H   0  0  0  0  0  0  0  0  0  0  0  0
   42.5873    3.4525   11.3592 H   0  0  0  0  0  0  0  0  0  0  0  0
   43.8766    3.5971   14.0571 H   0  0  0  0  0  0  0  0  0  0  0  0
   42.2704    3.5167   13.8069 H   0  0  0  0  0  0  0  0  0  0  0  0
   45.7368    5.7797    9.6344 H   0  0  0  0  0  0  0  0  0  0  0  0
   44.4566    1.7086   10.1570 H   0  0  0  0  0  0  0  0  0  0  0  0
   44.9864    1.2417    7.7912 H   0  0  0  0  0  0  0  0  0  0  0  0
   46.2647    5.3078    7.2704 H   0  0  0  0  0  0  0  0  0  0  0  0
   45.8900    3.0388    6.3366 H   0  0  0  0  0  0  0  0  0  0  0  0
   46.3677    3.8936    9.5089 H   0  0  0  0  0  0  0  0  0  0  0  0
   43.6654    3.6352    7.9810 H   0  0  0  0  0  0  0  0  0  0  0  0
   45.3315    3.5987    7.2646 H   0  0  0  0  0  0  0  0  0  0  0  0
   44.1653    1.6776    9.3910 H   0  0  0  0  0  0  0  0  0  0  0  0
   46.8987    1.8323    8.1794 H   0  0  0  0  0  0  0  0  0  0  0  0
   46.4999    0.8322    9.3999 H   0  0  0  0  0  0  0  0  0  0  0  0
   43.9341    5.9586    9.5590 H   0  0  0  0  0  0  0  0  0  0  0  0
   44.8639    2.5407   11.9981 H   0  0  0  0  0  0  0  0  0  0  0  0
   43.5302    3.4970   13.8403 H   0  0  0  0  0  0  0  0  0  0  0  0
   42.6011    6.9088   11.4051 H   0  0  0  0  0  0  0  0  0  0  0  0
   42.3909    5.6831   13.5529 H   0  0  0  0  0  0  0  0  0  0  0  0
  2  1  1  0
  3  1  1  0
  1  4  1  0
  3  5  1  0
  6  4  2  0
  7  4  1  0
  8  7  2  0
  9  6  1  0
 10  9  2  0
  3  2  1  0
  8 10  1  0
 12 11  1  0
 13 11  1  0
 11 14  1  0
 13 15  1  0
 16 14  2  0
 17 14  1  0
 18 17  2  0
 19 16  1  0
 20 19  2  0
 13 12  1  0
 18 20  1  0
  1 21  1  6
  2 22  1  0
  2 23  1  0
  3 24  1  1
  5 25  1  0
  5 26  1  0
  6 27  1  0
  7 28  1  0
  8 29  1  0
  9 30  1  0
 10 31  1  0
 11 32  1  6
 12 33  1  0
 12 34  1  0
 13 35  1  1
 15 36  1  0
 15 37  1  0
 16 38  1  0
 17 39  1  0
 18 40  1  0
 19 41  1  0
 20 42  1  0
M  END
> <Uni-Dock RESULT> 
ENERGY=   -7.087  LOWER_BOUND=    1.187  UPPER_BOUND=    4.553
INTER + INTRA:          -7.087
INTER:                  -7.087
INTRA:                   0.000
UNBOUND:                 0.000

$$$$

     RDKit          3D

 42 44  0  0  0  0  0  0  0  0999 V2000
   45.5376    3.9434    9.5504 C   0  0  1  0  0  0  0  0  0  0  0  0
   45.4521    2.5466    8.9783 C   0  0  0  0  0  0  0  0  0  0  0  0
   45.0105    3.7121    8.1496 C   0  0  2  0  0  0  0  0  0  0  0  0
   44.5936    4.3725   10.6490 C   0  0  0  0  0  0  0  0  0  0  0  0
   45.8086    4.1226    6.9944 N   0  0  0  0  0  0  0  0  0  0  0  0
   44.4817    3.6450   11.8456 C   0  0  0  0  0  0  0  0  0  0  0  0
   43.8168    5.5366   10.5261 C   0  0  0  0  0  0  0  0  0  0  0  0
   42.9526    5.9480   11.5442 C   0  0  0  0  0  0  0  0  0  0  0  0
   43.6192    4.0506   12.8676 C   0  0  0  0  0  0  0  0  0  0  0  0
   42.8529    5.2026   12.7151 C   0  0  0  0  0  0  0  0  0  0  0  0
   44.3005    4.6789   11.1781 C   0  0  2  0  0  0  0  0  0  0  0  0
   42.8494    4.7169   11.6010 C   0  0  0  0  0  0  0  0  0  0  0  0
   43.4550    5.9112   10.9322 C   0  0  1  0  0  0  0  0  0  0  0  0
   44.7280    3.8119   10.0172 C   0  0  0  0  0  0  0  0  0  0  0  0
   43.6886    7.1278   11.7101 N   0  0  0  0  0  0  0  0  0  0  0  0
   44.4547    2.4339    9.9951 C   0  0  0  0  0  0  0  0  0  0  0  0
   45.4440    4.3451    8.9325 C   0  0  0  0  0  0  0  0  0  0  0  0
   45.8549    3.5430    7.8644 C   0  0  0  0  0  0  0  0  0  0  0  0
   44.8625    1.6262    8.9302 C   0  0  0  0  0  0  0  0  0  0  0  0
   45.5620    2.1825    7.8633 C   0  0  0  0  0  0  0  0  0  0  0  0
   46.5372    4.3662    9.6267 H   0  0  0  0  0  0  0  0  0  0  0  0
   44.6818    1.8769    9.3446 H   0  0  0  0  0  0  0  0  0  0  0  0
   46.3821    2.0472    8.7346 H   0  0  0  0  0  0  0  0  0  0  0  0
   43.9369    3.8177    8.0018 H   0  0  0  0  0  0  0  0  0  0  0  0
   46.8051    3.9939    7.1627 H   0  0  0  0  0  0  0  0  0  0  0  0
   45.5847    3.5466    6.1833 H   0  0  0  0  0  0  0  0  0  0  0  0
   45.0783    2.7459   11.9840 H   0  0  0  0  0  0  0  0  0  0  0  0
   43.8890    6.1336    9.6187 H   0  0  0  0  0  0  0  0  0  0  0  0
   42.3613    6.8514   11.4206 H   0  0  0  0  0  0  0  0  0  0  0  0
   43.5498    3.4676   13.7820 H   0  0  0  0  0  0  0  0  0  0  0  0
   42.1825    5.5210   13.5087 H   0  0  0  0  0  0  0  0  0  0  0  0
   45.0270    4.7380   11.9860 H   0  0  0  0  0  0  0  0  0  0  0  0
   42.1199    4.1491   11.0343 H   0  0  0  0  0  0  0  0  0  0  0  0
   42.6308    4.7680   12.6610 H   0  0  0  0  0  0  0  0  0  0  0  0
   43.1240    6.0990    9.9120 H   0  0  0  0  0  0  0  0  0  0  0  0
   43.9758    6.9137   12.6640 H   0  0  0  0  0  0  0  0  0  0  0  0
   44.4496    7.6710   11.3036 H   0  0  0  0  0  0  0  0  0  0  0  0
   43.9136    1.9815   10.8237 H   0  0  0  0  0  0  0  0  0  0  0  0
   45.6859    5.4059    8.9189 H   0  0  0  0  0  0  0  0  0  0  0  0
   46.4041    3.9824    7.0361 H   0  0  0  0  0  0  0  0  0  0  0  0
   44.6340    0.5638    8.9370 H   0  0  0  0  0  0  0  0  0  0  0  0
   45.8804    1.5565    7.0342 H   0  0  0  0  0  0  0  0  0  0  0  0
  2  1  1  0
  3  1  1  0
  1  4  1  0
  3  5  1  0
  6  4  2  0
  7  4  1  0
  8  7  2  0
  9  6  1  0
 10  9  2  0
  3  2  1  0
  8 10  1  0
 12 11  1  0
 13 11  1  0
 11 14  1  0
 13 15  1  0
 16 14  2  0
 17 14  1  0
 18 17  2  0
 19 16  1  0
 20 19  2  0
 13 12  1  0
 18 20  1  0
  1 21  1  6
  2 22  1  0
  2 23  1  0
  3 24  1  1
  5 25  1  0
  5 26  1  0
  6 27  1  0
  7 28  1  0
  8 29  1  0
  9 30  1  0
 10 31  1  0
 11 32  1  6
 12 33  1  0
 12 34  1  0
 13 35  1  1
 15 36  1  0
 15 37  1  0
 16 38  1  0
 17 39  1  0
 18 40  1  0
 19 41  1  0
 20 42  1  0
M  END
> <Uni-Dock RESULT> 
ENERGY=   -6.517  LOWER_BOUND=    1.674  UPPER_BOUND=    2.831
INTER + INTRA:          -6.517
INTER:                  -6.517
INTRA:                   0.000
UNBOUND:                 0.000

$$$$

     RDKit          3D

 42 44  0  0  0  0  0  0  0  0999 V2000
   44.4971    6.0639   11.4433 C   0  0  1  0  0  0  0  0  0  0  0  0
   44.4099    4.6608   11.9997 C   0  0  0  0  0  0  0  0  0  0  0  0
   43.3499    5.6594   12.3456 C   0  0  2  0  0  0  0  0  0  0  0  0
   45.5540    7.0169   11.9503 C   0  0  0  0  0  0  0  0  0  0  0  0
   42.0050    5.5090   11.7902 N   0  0  0  0  0  0  0  0  0  0  0  0
   46.9175    6.6797   11.9269 C   0  0  0  0  0  0  0  0  0  0  0  0
   45.2121    8.2911   12.4332 C   0  0  0  0  0  0  0  0  0  0  0  0
   46.1855    9.1836   12.8898 C   0  0  0  0  0  0  0  0  0  0  0  0
   47.8961    7.5675   12.3822 C   0  0  0  0  0  0  0  0  0  0  0  0
   47.5285    8.8200   12.8657 C   0  0  0  0  0  0  0  0  0  0  0  0
   46.0043    7.5191   12.0192 C   0  0  2  0  0  0  0  0  0  0  0  0
   46.6380    8.0956   13.2649 C   0  0  0  0  0  0  0  0  0  0  0  0
   45.5381    8.8461   12.5814 C   0  0  1  0  0  0  0  0  0  0  0  0
   45.1138    6.3027   12.1165 C   0  0  0  0  0  0  0  0  0  0  0  0
   45.8480   10.0901   11.8771 N   0  0  0  0  0  0  0  0  0  0  0  0
   45.5675    5.1107   12.7061 C   0  0  0  0  0  0  0  0  0  0  0  0
   43.8109    6.3075   11.5912 C   0  0  0  0  0  0  0  0  0  0  0  0
   42.9900    5.1789   11.6654 C   0  0  0  0  0  0  0  0  0  0  0  0
   44.7518    3.9787   12.7837 C   0  0  0  0  0  0  0  0  0  0  0  0
   43.4613    4.0142   12.2639 C   0  0  0  0  0  0  0  0  0  0  0  0
   44.2650    6.1720   10.3858 H   0  0  0  0  0  0  0  0  0  0  0  0
   45.0927    4.3673   12.7893 H   0  0  0  0  0  0  0  0  0  0  0  0
   44.1765    3.8610   11.3073 H   0  0  0  0  0  0  0  0  0  0  0  0
   43.3641    6.0421   13.3648 H   0  0  0  0  0  0  0  0  0  0  0  0
   42.0304    5.1333   10.8434 H   0  0  0  0  0  0  0  0  0  0  0  0
   41.4637    4.8434   12.3413 H   0  0  0  0  0  0  0  0  0  0  0  0
   47.2228    5.7075   11.5461 H   0  0  0  0  0  0  0  0  0  0  0  0
   44.1662    8.5923   12.4520 H   0  0  0  0  0  0  0  0  0  0  0  0
   45.8918   10.1619   13.2608 H   0  0  0  0  0  0  0  0  0  0  0  0
   48.9437    7.2801   12.3557 H   0  0  0  0  0  0  0  0  0  0  0  0
   48.2874    9.5126   13.2191 H   0  0  0  0  0  0  0  0  0  0  0  0
   46.6160    7.5572   11.1202 H   0  0  0  0  0  0  0  0  0  0  0  0
   46.4100    7.6504   14.2270 H   0  0  0  0  0  0  0  0  0  0  0  0
   47.6510    8.4731   13.1909 H   0  0  0  0  0  0  0  0  0  0  0  0
   44.5831    8.8635   13.1041 H   0  0  0  0  0  0  0  0  0  0  0  0
   46.7567   10.0451   11.4184 H   0  0  0  0  0  0  0  0  0  0  0  0
   45.1683   10.2601   11.1364 H   0  0  0  0  0  0  0  0  0  0  0  0
   46.5757    5.0637   13.1126 H   0  0  0  0  0  0  0  0  0  0  0  0
   43.4277    7.2079   11.1156 H   0  0  0  0  0  0  0  0  0  0  0  0
   41.9847    5.2115   11.2543 H   0  0  0  0  0  0  0  0  0  0  0  0
   45.1269    3.0710   13.2488 H   0  0  0  0  0  0  0  0  0  0  0  0
   42.8253    3.1352   12.3228 H   0  0  0  0  0  0  0  0  0  0  0  0
  2  1  1  0
  3  1  1  0
  1  4  1  0
  3  5  1  0
  6  4  2  0
  7  4  1  0
  8  7  2  0
  9  6  1  0
 10  9  2  0
  3  2  1  0
  8 10  1  0
 12 11  1  0
 13 11  1  0
 11 14  1  0
 13 15  1  0
 16 14  2  0
 17 14  1  0
 18 17  2  0
 19 16  1  0
 20 19  2  0
 13 12  1  0
 18 20  1  0
  1 21  1  6
  2 22  1  0
  2 23  1  0
  3 24  1  1
  5 25  1  0
  5 26  1  0
  6 27  1  0
  7 28  1  0
  8 29  1  0
  9 30  1  0
 10 31  1  0
 11 32  1  6
 12 33  1  0
 12 34  1  0
 13 35  1  1
 15 36  1  0
 15 37  1  0
 16 38  1  0
 17 39  1  0
 18 40  1  0
 19 41  1  0
 20 42  1  0
M  END
> <Uni-Dock RESULT> 
ENERGY=   -6.227  LOWER_BOUND=    4.360  UPPER_BOUND=    6.042
INTER + INTRA:          -6.227
INTER:                  -6.227
INTRA:                   0.000
UNBOUND:                 0.000

$$$$

     RDKit          3D

 42 44  0  0  0  0  0  0  0  0999 V2000
   46.7042    6.5328   12.2295 C   0  0  1  0  0  0  0  0  0  0  0  0
   46.9178    7.9790   12.6153 C   0  0  0  0  0  0  0  0  0  0  0  0
   47.3384    6.8939   13.5566 C   0  0  2  0  0  0  0  0  0  0  0  0
   45.3088    5.9550   12.1942 C   0  0  0  0  0  0  0  0  0  0  0  0
   48.7619    6.6384   13.7768 N   0  0  0  0  0  0  0  0  0  0  0  0
   44.2897    6.5456   11.4287 C   0  0  0  0  0  0  0  0  0  0  0  0
   44.9891    4.7838   12.9012 C   0  0  0  0  0  0  0  0  0  0  0  0
   43.7046    4.2352   12.8613 C   0  0  0  0  0  0  0  0  0  0  0  0
   43.0029    6.0023   11.3845 C   0  0  0  0  0  0  0  0  0  0  0  0
   42.7105    4.8467   12.1034 C   0  0  0  0  0  0  0  0  0  0  0  0
   44.7569    5.5835   12.0636 C   0  0  2  0  0  0  0  0  0  0  0  0
   43.4668    5.4486   12.8403 C   0  0  0  0  0  0  0  0  0  0  0  0
   44.4867    4.3552   12.9077 C   0  0  1  0  0  0  0  0  0  0  0  0
   45.8012    6.5845   12.4988 C   0  0  0  0  0  0  0  0  0  0  0  0
   44.2061    3.0714   12.2652 N   0  0  0  0  0  0  0  0  0  0  0  0
   45.4898    7.9463   12.6491 C   0  0  0  0  0  0  0  0  0  0  0  0
   47.1302    6.1965   12.7369 C   0  0  0  0  0  0  0  0  0  0  0  0
   48.1025    7.1227   13.1243 C   0  0  0  0  0  0  0  0  0  0  0  0
   46.4571    8.8776   13.0363 C   0  0  0  0  0  0  0  0  0  0  0  0
   47.7643    8.4641   13.2754 C   0  0  0  0  0  0  0  0  0  0  0  0
   47.3723    6.1401   11.4659 H   0  0  0  0  0  0  0  0  0  0  0  0
   46.0592    8.5776   12.8987 H   0  0  0  0  0  0  0  0  0  0  0  0
   47.6760    8.5343   12.0766 H   0  0  0  0  0  0  0  0  0  0  0  0
   46.7262    6.7667   14.4479 H   0  0  0  0  0  0  0  0  0  0  0  0
   49.3045    6.7837   12.9268 H   0  0  0  0  0  0  0  0  0  0  0  0
   49.1390    7.2896   14.4648 H   0  0  0  0  0  0  0  0  0  0  0  0
   44.5028    7.4454   10.8555 H   0  0  0  0  0  0  0  0  0  0  0  0
   45.7580    4.2905   13.4931 H   0  0  0  0  0  0  0  0  0  0  0  0
   43.4848    3.3298   13.4206 H   0  0  0  0  0  0  0  0  0  0  0  0
   42.2322    6.4811   10.7865 H   0  0  0  0  0  0  0  0  0  0  0  0
   41.7112    4.4214   12.0698 H   0  0  0  0  0  0  0  0  0  0  0  0
   44.6710    5.4640   10.9855 H   0  0  0  0  0  0  0  0  0  0  0  0
   43.3234    6.0475   13.7327 H   0  0  0  0  0  0  0  0  0  0  0  0
   42.5541    5.2764   12.2823 H   0  0  0  0  0  0  0  0  0  0  0  0
   45.0212    4.2662   13.8522 H   0  0  0  0  0  0  0  0  0  0  0  0
   43.6872    3.1921   11.3966 H   0  0  0  0  0  0  0  0  0  0  0  0
   45.0746    2.6023   12.0100 H   0  0  0  0  0  0  0  0  0  0  0  0
   44.4740    8.2878   12.4608 H   0  0  0  0  0  0  0  0  0  0  0  0
   47.4136    5.1527   12.6191 H   0  0  0  0  0  0  0  0  0  0  0  0
   49.1224    6.7944   13.3059 H   0  0  0  0  0  0  0  0  0  0  0  0
   46.1876    9.9243   13.1489 H   0  0  0  0  0  0  0  0  0  0  0  0
   48.5183    9.1863   13.5764 H   0  0  0  0  0  0  0  0  0  0  0  0
  2  1  1  0
  3  1  1  0
  1  4  1  0
  3  5  1  0
  6  4  2  0
  7  4  1  0
  8  7  2  0
  9  6  1  0
 10  9  2  0
  3  2  1  0
  8 10  1  0
 12 11  1  0
 13 11  1  0
 11 14  1  0
 13 15  1  0
 16 14  2  0
 17 14  1  0
 18 17  2  0
 19 16  1  0
 20 19  2  0
 13 12  1  0
 18 20  1  0
  1 21  1  6
  2 22  1  0
  2 23  1  0
  3 24  1  1
  5 25  1  0
  5 26  1  0
  6 27  1  0
  7 28  1  0
  8 29  1  0
  9 30  1  0
 10 31  1  0
 11 32  1  6
 12 33  1  0
 12 34  1  0
 13 35  1  1
 15 36  1  0
 15 37  1  0
 16 38  1  0
 17 39  1  0
 18 40  1  0
 19 41  1  0
 20 42  1  0
M  END
> <Uni-Dock RESULT> 
ENERGY=   -5.963  LOWER_BOUND=    4.430  UPPER_BOUND=    5.585
INTER + INTRA:          -5.963
INTER:                  -5.963
INTRA:                   0.000
UNBOUND:                 0.000

$$$$

     RDKit          3D

 42 44  0  0  0  0  0  0  0  0999 V2000
   44.6457    5.5969   13.1008 C   0  0  1  0  0  0  0  0  0  0  0  0
   43.4934    5.5855   12.1220 C   0  0  0  0  0  0  0  0  0  0  0  0
   44.4477    4.4328   12.1524 C   0  0  2  0  0  0  0  0  0  0  0  0
   45.8043    6.5449   12.8978 C   0  0  0  0  0  0  0  0  0  0  0  0
   44.0035    3.1389   12.6706 N   0  0  0  0  0  0  0  0  0  0  0  0
   45.6050    7.9294   12.7677 C   0  0  0  0  0  0  0  0  0  0  0  0
   47.1287    6.0774   12.8656 C   0  0  0  0  0  0  0  0  0  0  0  0
   48.2064    6.9499   12.6933 C   0  0  0  0  0  0  0  0  0  0  0  0
   46.6783    8.8075   12.5950 C   0  0  0  0  0  0  0  0  0  0  0  0
   47.9800    8.3161   12.5560 C   0  0  0  0  0  0  0  0  0  0  0  0
   46.3414    6.9501   12.9816 C   0  0  2  0  0  0  0  0  0  0  0  0
   47.3429    7.4621   11.9713 C   0  0  0  0  0  0  0  0  0  0  0  0
   47.7295    6.3500   12.8956 C   0  0  1  0  0  0  0  0  0  0  0  0
   45.1436    6.1522   12.5225 C   0  0  0  0  0  0  0  0  0  0  0  0
   48.7050    6.6042   13.9555 N   0  0  0  0  0  0  0  0  0  0  0  0
   44.2510    6.6608   11.5641 C   0  0  0  0  0  0  0  0  0  0  0  0
   44.8593    4.8864   13.0615 C   0  0  0  0  0  0  0  0  0  0  0  0
   43.7433    4.1523   12.6506 C   0  0  0  0  0  0  0  0  0  0  0  0
   43.1334    5.9319   11.1487 C   0  0  0  0  0  0  0  0  0  0  0  0
   42.8809    4.6757   11.6920 C   0  0  0  0  0  0  0  0  0  0  0  0
   44.3870    5.4204   14.1427 H   0  0  0  0  0  0  0  0  0  0  0  0
   43.5330    6.2408   11.2589 H   0  0  0  0  0  0  0  0  0  0  0  0
   42.4959    5.4563   12.5242 H   0  0  0  0  0  0  0  0  0  0  0  0
   45.1366    4.3567   11.3126 H   0  0  0  0  0  0  0  0  0  0  0  0
   43.3480    3.2497   13.4428 H   0  0  0  0  0  0  0  0  0  0  0  0
   43.5028    2.6190   11.9505 H   0  0  0  0  0  0  0  0  0  0  0  0
   44.5946    8.3311   12.8026 H   0  0  0  0  0  0  0  0  0  0  0  0
   47.3220    5.0121   12.9784 H   0  0  0  0  0  0  0  0  0  0  0  0
   49.2205    6.5599   12.6694 H   0  0  0  0  0  0  0  0  0  0  0  0
   46.4957    9.8740   12.4940 H   0  0  0  0  0  0  0  0  0  0  0  0
   48.8165    8.9968   12.4231 H   0  0  0  0  0  0  0  0  0  0  0  0
   46.1456    7.6094   13.8247 H   0  0  0  0  0  0  0  0  0  0  0  0
   47.2107    7.2123   10.9244 H   0  0  0  0  0  0  0  0  0  0  0  0
   47.7686    8.4454   12.1321 H   0  0  0  0  0  0  0  0  0  0  0  0
   47.8252    5.3671   12.4369 H   0  0  0  0  0  0  0  0  0  0  0  0
   48.5995    7.5393   14.3461 H   0  0  0  0  0  0  0  0  0  0  0  0
   48.5649    5.9587   14.7321 H   0  0  0  0  0  0  0  0  0  0  0  0
   44.4302    7.6436   11.1330 H   0  0  0  0  0  0  0  0  0  0  0  0
   45.5202    4.4636   13.8154 H   0  0  0  0  0  0  0  0  0  0  0  0
   43.5493    3.1737   13.0813 H   0  0  0  0  0  0  0  0  0  0  0  0
   42.4615    6.3478   10.4026 H   0  0  0  0  0  0  0  0  0  0  0  0
   42.0124    4.1072   11.3708 H   0  0  0  0  0  0  0  0  0  0  0  0
  2  1  1  0
  3  1  1  0
  1  4  1  0
  3  5  1  0
  6  4  2  0
  7  4  1  0
  8  7  2  0
  9  6  1  0
 10  9  2  0
  3  2  1  0
  8 10  1  0
 12 11  1  0
 13 11  1  0
 11 14  1  0
 13 15  1  0
 16 14  2  0
 17 14  1  0
 18 17  2  0
 19 16  1  0
 20 19  2  0
 13 12  1  0
 18 20  1  0
  1 21  1  6
  2 22  1  0
  2 23  1  0
  3 24  1  1
  5 25  1  0
  5 26  1  0
  6 27  1  0
  7 28  1  0
  8 29  1  0
  9 30  1  0
 10 31  1  0
 11 32  1  6
 12 33  1  0
 12 34  1  0
 13 35  1  1
 15 36  1  0
 15 37  1  0
 16 38  1  0
 17 39  1  0
 18 40  1  0
 19 41  1  0
 20 42  1  0
M  END
> <Uni-Dock RESULT> 
ENERGY=   -5.799  LOWER_BOUND=    4.177  UPPER_BOUND=    5.744
INTER + INTRA:          -5.799
INTER:                  -5.799
INTRA:                   0.000
UNBOUND:                 0.000

$$$$

     RDKit          3D

 42 44  0  0  0  0  0  0  0  0999 V2000
   45.6010    7.6694   12.9473 C   0  0  1  0  0  0  0  0  0  0  0  0
   47.0878    7.8653   12.7545 C   0  0  0  0  0  0  0  0  0  0  0  0
   46.1251    8.6821   11.9505 C   0  0  2  0  0  0  0  0  0  0  0  0
   44.9321    6.4067   12.4569 C   0  0  0  0  0  0  0  0  0  0  0  0
   45.9852   10.1124   12.2238 N   0  0  0  0  0  0  0  0  0  0  0  0
   45.3807    5.1367   12.8560 C   0  0  0  0  0  0  0  0  0  0  0  0
   43.8135    6.4593   11.6086 C   0  0  0  0  0  0  0  0  0  0  0  0
   43.1804    5.2960   11.1631 C   0  0  0  0  0  0  0  0  0  0  0  0
   44.7523    3.9693   12.4140 C   0  0  0  0  0  0  0  0  0  0  0  0
   43.6521    4.0500   11.5652 C   0  0  0  0  0  0  0  0  0  0  0  0
   44.5146    5.8808   12.3628 C   0  0  2  0  0  0  0  0  0  0  0  0
   44.3684    4.9525   11.1785 C   0  0  0  0  0  0  0  0  0  0  0  0
   43.3553    6.0319   11.3999 C   0  0  1  0  0  0  0  0  0  0  0  0
   45.6183    6.9122   12.3843 C   0  0  0  0  0  0  0  0  0  0  0  0
   42.0016    5.6704   11.8199 N   0  0  0  0  0  0  0  0  0  0  0  0
   46.9648    6.5445   12.2234 C   0  0  0  0  0  0  0  0  0  0  0  0
   45.3422    8.2727   12.5994 C   0  0  0  0  0  0  0  0  0  0  0  0
   46.3622    9.2274   12.6357 C   0  0  0  0  0  0  0  0  0  0  0  0
   47.9895    7.4940   12.2585 C   0  0  0  0  0  0  0  0  0  0  0  0
   47.6868    8.8369   12.4633 C   0  0  0  0  0  0  0  0  0  0  0  0
   45.1836    8.0700   13.8687 H   0  0  0  0  0  0  0  0  0  0  0  0
   47.6525    7.1030   12.2291 H   0  0  0  0  0  0  0  0  0  0  0  0
   47.6391    8.3381   13.5582 H   0  0  0  0  0  0  0  0  0  0  0  0
   46.0415    8.4261   10.8955 H   0  0  0  0  0  0  0  0  0  0  0  0
   46.0860   10.3156   13.2171 H   0  0  0  0  0  0  0  0  0  0  0  0
   46.7210   10.6391   11.7539 H   0  0  0  0  0  0  0  0  0  0  0  0
   46.2352    5.0556   13.5245 H   0  0  0  0  0  0  0  0  0  0  0  0
   43.4290    7.4269   11.2910 H   0  0  0  0  0  0  0  0  0  0  0  0
   42.3186    5.3666   10.5049 H   0  0  0  0  0  0  0  0  0  0  0  0
   45.1217    2.9993   12.7359 H   0  0  0  0  0  0  0  0  0  0  0  0
   43.1608    3.1440   11.2210 H   0  0  0  0  0  0  0  0  0  0  0  0
   44.2898    5.4432   13.3333 H   0  0  0  0  0  0  0  0  0  0  0  0
   45.0371    5.0673   10.3327 H   0  0  0  0  0  0  0  0  0  0  0  0
   44.0854    3.9245   11.3712 H   0  0  0  0  0  0  0  0  0  0  0  0
   43.3900    6.8628   10.6970 H   0  0  0  0  0  0  0  0  0  0  0  0
   42.0065    4.8770   12.4593 H   0  0  0  0  0  0  0  0  0  0  0  0
   41.5688    6.4393   12.3307 H   0  0  0  0  0  0  0  0  0  0  0  0
   47.2198    5.4983   12.0678 H   0  0  0  0  0  0  0  0  0  0  0  0
   44.3127    8.5953   12.7407 H   0  0  0  0  0  0  0  0  0  0  0  0
   46.1199   10.2739   12.7998 H   0  0  0  0  0  0  0  0  0  0  0  0
   49.0222    7.1823   12.1271 H   0  0  0  0  0  0  0  0  0  0  0  0
   48.4819    9.5770   12.4912 H   0  0  0  0  0  0  0  0  0  0  0  0
  2  1  1  0
  3  1  1  0
  1  4  1  0
  3  5  1  0
  6  4  2  0
  7  4  1  0
  8  7  2  0
  9  6  1  0
 10  9  2  0
  3  2  1  0
  8 10  1  0
 12 11  1  0
 13 11  1  0
 11 14  1  0
 13 15  1  0
 16 14  2  0
 17 14  1  0
 18 17  2  0
 19 16  1  0
 20 19  2  0
 13 12  1  0
 18 20  1  0
  1 21  1  6
  2 22  1  0
  2 23  1  0
  3 24  1  1
  5 25  1  0
  5 26  1  0
  6 27  1  0
  7 28  1  0
  8 29  1  0
  9 30  1  0
 10 31  1  0
 11 32  1  6
 12 33  1  0
 12 34  1  0
 13 35  1  1
 15 36  1  0
 15 37  1  0
 16 38  1  0
 17 39  1  0
 18 40  1  0
 19 41  1  0
 20 42  1  0
M  END
> <Uni-Dock RESULT> 
ENERGY=   -5.795  LOWER_BOUND=    4.016  UPPER_BOUND=    6.002
INTER + INTRA:          -5.795
INTER:                  -5.795
INTRA:                   0.000
UNBOUND:                 0.000

$$$$
