
     RDKit          3D

 42 44  0  0  0  0  0  0  0  0999 V2000
   44.7042    2.9474    9.5950 C   0  0  1  0  0  0  0  0  0  0  0  0
   44.5393    3.4518    8.1794 C   0  0  0  0  0  0  0  0  0  0  0  0
   45.9128    3.1980    8.7173 C   0  0  2  0  0  0  0  0  0  0  0  0
   44.4147    3.8616   10.7623 C   0  0  0  0  0  0  0  0  0  0  0  0
   46.6891    2.0715    8.1995 N   0  0  0  0  0  0  0  0  0  0  0  0
   43.1695    4.4976   10.9002 C   0  0  0  0  0  0  0  0  0  0  0  0
   45.3677    4.0834   11.7705 C   0  0  0  0  0  0  0  0  0  0  0  0
   45.0971    4.9163   12.8596 C   0  0  0  0  0  0  0  0  0  0  0  0
   42.8926    5.3316   11.9867 C   0  0  0  0  0  0  0  0  0  0  0  0
   43.8586    5.5419   12.9661 C   0  0  0  0  0  0  0  0  0  0  0  0
   44.0532    4.6384   11.0802 C   0  0  2  0  0  0  0  0  0  0  0  0
   44.9447    5.3901   12.0417 C   0  0  0  0  0  0  0  0  0  0  0  0
   44.3388    4.0877   12.4610 C   0  0  1  0  0  0  0  0  0  0  0  0
   44.6441    3.9672    9.8628 C   0  0  0  0  0  0  0  0  0  0  0  0
   43.2779    4.0975   13.4678 N   0  0  0  0  0  0  0  0  0  0  0  0
   45.4395    4.6778    8.9485 C   0  0  0  0  0  0  0  0  0  0  0  0
   44.3919    2.6137    9.5826 C   0  0  0  0  0  0  0  0  0  0  0  0
   44.9251    1.9911    8.4508 C   0  0  0  0  0  0  0  0  0  0  0  0
   45.9758    4.0614    7.8148 C   0  0  0  0  0  0  0  0  0  0  0  0
   45.7196    2.7161    7.5675 C   0  0  0  0  0  0  0  0  0  0  0  0
   44.4264    1.9083    9.7587 H   0  0  0  0  0  0  0  0  0  0  0  0
   44.2542    4.4856    8.0180 H   0  0  0  0  0  0  0  0  0  0  0  0
   44.1341    2.7699    7.4415 H   0  0  0  0  0  0  0  0  0  0  0  0
   46.5096    4.0849    8.9240 H   0  0  0  0  0  0  0  0  0  0  0  0
   47.3678    1.7569    8.8925 H   0  0  0  0  0  0  0  0  0  0  0  0
   46.0963    1.2664    8.0023 H   0  0  0  0  0  0  0  0  0  0  0  0
   42.4010    4.3402   10.1462 H   0  0  0  0  0  0  0  0  0  0  0  0
   46.3395    3.5984   11.7061 H   0  0  0  0  0  0  0  0  0  0  0  0
   45.8542    5.0735   13.6233 H   0  0  0  0  0  0  0  0  0  0  0  0
   41.9221    5.8141   12.0663 H   0  0  0  0  0  0  0  0  0  0  0  0
   43.6458    6.1899   13.8120 H   0  0  0  0  0  0  0  0  0  0  0  0
   43.0632    5.0648   10.9277 H   0  0  0  0  0  0  0  0  0  0  0  0
   46.0134    5.4093   11.8630 H   0  0  0  0  0  0  0  0  0  0  0  0
   44.5549    6.3053   12.4721 H   0  0  0  0  0  0  0  0  0  0  0  0
   45.0215    3.2428   12.5309 H   0  0  0  0  0  0  0  0  0  0  0  0
   43.6753    4.0924   14.4067 H   0  0  0  0  0  0  0  0  0  0  0  0
   42.7088    3.2546   13.3971 H   0  0  0  0  0  0  0  0  0  0  0  0
   45.6432    5.7323    9.1230 H   0  0  0  0  0  0  0  0  0  0  0  0
   43.7656    2.0351   10.2583 H   0  0  0  0  0  0  0  0  0  0  0  0
   44.7156    0.9421    8.2594 H   0  0  0  0  0  0  0  0  0  0  0  0
   46.5901    4.6348    7.1257 H   0  0  0  0  0  0  0  0  0  0  0  0
   46.1343    2.2350    6.6859 H   0  0  0  0  0  0  0  0  0  0  0  0
  2  1  1  0
  3  1  1  0
  1  4  1  0
  3  5  1  0
  6  4  2  0
  7  4  1  0
  8  7  2  0
  9  6  1  0
 10  9  2  0
  3  2  1  0
  8 10  1  0
 12 11  1  0
 13 11  1  0
 11 14  1  0
 13 15  1  0
 16 14  2  0
 17 14  1  0
 18 17  2  0
 19 16  1  0
 20 19  2  0
 13 12  1  0
 18 20  1  0
  1 21  1  1
  2 22  1  0
  2 23  1  0
  3 24  1  6
  5 25  1  0
  5 26  1  0
  6 27  1  0
  7 28  1  0
  8 29  1  0
  9 30  1  0
 10 31  1  0
 11 32  1  6
 12 33  1  0
 12 34  1  0
 13 35  1  1
 15 36  1  0
 15 37  1  0
 16 38  1  0
 17 39  1  0
 18 40  1  0
 19 41  1  0
 20 42  1  0
M  END
> <Uni-Dock RESULT> 
ENERGY=   -6.473  LOWER_BOUND=    0.000  UPPER_BOUND=    0.000
INTER + INTRA:          -6.473
INTER:                  -6.473
INTRA:                   0.000
UNBOUND:                 0.000

$$$$

     RDKit          3D

 42 44  0  0  0  0  0  0  0  0999 V2000
   44.3706    5.6341   12.6045 C   0  0  1  0  0  0  0  0  0  0  0  0
   43.4020    5.5626   11.4460 C   0  0  0  0  0  0  0  0  0  0  0  0
   44.3701    4.4431   11.6690 C   0  0  2  0  0  0  0  0  0  0  0  0
   45.5153    6.6195   12.5735 C   0  0  0  0  0  0  0  0  0  0  0  0
   43.8740    3.1472   12.1322 N   0  0  0  0  0  0  0  0  0  0  0  0
   45.2904    7.9943   12.3909 C   0  0  0  0  0  0  0  0  0  0  0  0
   46.8439    6.2021   12.7595 C   0  0  0  0  0  0  0  0  0  0  0  0
   47.9033    7.1133   12.7469 C   0  0  0  0  0  0  0  0  0  0  0  0
   46.3454    8.9107   12.3773 C   0  0  0  0  0  0  0  0  0  0  0  0
   47.6530    8.4686   12.5539 C   0  0  0  0  0  0  0  0  0  0  0  0
   45.9100    7.3528   12.1970 C   0  0  2  0  0  0  0  0  0  0  0  0
   47.3917    7.1979   11.9421 C   0  0  0  0  0  0  0  0  0  0  0  0
   46.8902    7.2911   13.3489 C   0  0  1  0  0  0  0  0  0  0  0  0
   44.9706    6.1974   11.9427 C   0  0  0  0  0  0  0  0  0  0  0  0
   47.1689    8.5049   14.1158 N   0  0  0  0  0  0  0  0  0  0  0  0
   44.9342    5.5431   10.7000 C   0  0  0  0  0  0  0  0  0  0  0  0
   44.0742    5.7562   12.9305 C   0  0  0  0  0  0  0  0  0  0  0  0
   43.1937    4.6966   12.6962 C   0  0  0  0  0  0  0  0  0  0  0  0
   44.0564    4.4829   10.4590 C   0  0  0  0  0  0  0  0  0  0  0  0
   43.1870    4.0584   11.4594 C   0  0  0  0  0  0  0  0  0  0  0  0
   43.9362    5.4813   13.5902 H   0  0  0  0  0  0  0  0  0  0  0  0
   43.5673    6.1950   10.5808 H   0  0  0  0  0  0  0  0  0  0  0  0
   42.3546    5.3984   11.6694 H   0  0  0  0  0  0  0  0  0  0  0  0
   45.1814    4.3703   10.9465 H   0  0  0  0  0  0  0  0  0  0  0  0
   44.6057    2.6425   12.6319 H   0  0  0  0  0  0  0  0  0  0  0  0
   43.1058    3.2540   12.7932 H   0  0  0  0  0  0  0  0  0  0  0  0
   44.2737    8.3577   12.2565 H   0  0  0  0  0  0  0  0  0  0  0  0
   47.0576    5.1470   12.9167 H   0  0  0  0  0  0  0  0  0  0  0  0
   48.9221    6.7626   12.8892 H   0  0  0  0  0  0  0  0  0  0  0  0
   46.1430    9.9682   12.2302 H   0  0  0  0  0  0  0  0  0  0  0  0
   48.4751    9.1791   12.5438 H   0  0  0  0  0  0  0  0  0  0  0  0
   45.4951    8.3334   11.9704 H   0  0  0  0  0  0  0  0  0  0  0  0
   47.7711    6.2389   11.6095 H   0  0  0  0  0  0  0  0  0  0  0  0
   47.9173    8.0477   11.5221 H   0  0  0  0  0  0  0  0  0  0  0  0
   46.9216    6.3712   13.9300 H   0  0  0  0  0  0  0  0  0  0  0  0
   48.0849    8.4456   14.5597 H   0  0  0  0  0  0  0  0  0  0  0  0
   46.4944    8.6135   14.8726 H   0  0  0  0  0  0  0  0  0  0  0  0
   45.6021    5.8675    9.9047 H   0  0  0  0  0  0  0  0  0  0  0  0
   44.0606    6.2501   13.8998 H   0  0  0  0  0  0  0  0  0  0  0  0
   42.5123    4.3743   13.4789 H   0  0  0  0  0  0  0  0  0  0  0  0
   44.0517    3.9930    9.4890 H   0  0  0  0  0  0  0  0  0  0  0  0
   42.5025    3.2353   11.2739 H   0  0  0  0  0  0  0  0  0  0  0  0
  2  1  1  0
  3  1  1  0
  1  4  1  0
  3  5  1  0
  6  4  2  0
  7  4  1  0
  8  7  2  0
  9  6  1  0
 10  9  2  0
  3  2  1  0
  8 10  1  0
 12 11  1  0
 13 11  1  0
 11 14  1  0
 13 15  1  0
 16 14  2  0
 17 14  1  0
 18 17  2  0
 19 16  1  0
 20 19  2  0
 13 12  1  0
 18 20  1  0
  1 21  1  1
  2 22  1  0
  2 23  1  0
  3 24  1  6
  5 25  1  0
  5 26  1  0
  6 27  1  0
  7 28  1  0
  8 29  1  0
  9 30  1  0
 10 31  1  0
 11 32  1  6
 12 33  1  0
 12 34  1  0
 13 35  1  1
 15 36  1  0
 15 37  1  0
 16 38  1  0
 17 39  1  0
 18 40  1  0
 19 41  1  0
 20 42  1  0
M  END
> <Uni-Dock RESULT> 
ENERGY=   -5.872  LOWER_BOUND=    2.497  UPPER_BOUND=    4.126
INTER + INTRA:          -5.872
INTER:                  -5.872
INTRA:                   0.000
UNBOUND:                 0.000

$$$$

     RDKit          3D

 42 44  0  0  0  0  0  0  0  0999 V2000
   44.8344    4.4806   11.5077 C   0  0  1  0  0  0  0  0  0  0  0  0
   44.2354    5.8355   11.8091 C   0  0  0  0  0  0  0  0  0  0  0  0
   43.4346    4.5990   12.0735 C   0  0  2  0  0  0  0  0  0  0  0  0
   45.0368    4.0449   10.0755 C   0  0  0  0  0  0  0  0  0  0  0  0
   43.1660    4.2000   13.4550 N   0  0  0  0  0  0  0  0  0  0  0  0
   45.7862    4.8207    9.1752 C   0  0  0  0  0  0  0  0  0  0  0  0
   44.5116    2.8316    9.5997 C   0  0  0  0  0  0  0  0  0  0  0  0
   44.7104    2.4185    8.2796 C   0  0  0  0  0  0  0  0  0  0  0  0
   45.9887    4.4132    7.8539 C   0  0  0  0  0  0  0  0  0  0  0  0
   45.4484    3.2115    7.4061 C   0  0  0  0  0  0  0  0  0  0  0  0
   45.0682    4.2574    9.1872 C   0  0  2  0  0  0  0  0  0  0  0  0
   44.3233    3.2941    8.2919 C   0  0  0  0  0  0  0  0  0  0  0  0
   45.5798    2.8490    8.9719 C   0  0  1  0  0  0  0  0  0  0  0  0
   44.4891    4.6538   10.5249 C   0  0  0  0  0  0  0  0  0  0  0  0
   46.7809    2.6408    8.1637 N   0  0  0  0  0  0  0  0  0  0  0  0
   43.1904    5.1784   10.6341 C   0  0  0  0  0  0  0  0  0  0  0  0
   45.2416    4.5432   11.7062 C   0  0  0  0  0  0  0  0  0  0  0  0
   44.7156    4.9209   12.9446 C   0  0  0  0  0  0  0  0  0  0  0  0
   42.6583    5.5579   11.8692 C   0  0  0  0  0  0  0  0  0  0  0  0
   43.4215    5.4268   13.0255 C   0  0  0  0  0  0  0  0  0  0  0  0
   45.6116    4.1478   12.1925 H   0  0  0  0  0  0  0  0  0  0  0  0
   43.9161    6.4656   10.9864 H   0  0  0  0  0  0  0  0  0  0  0  0
   44.6320    6.3899   12.6513 H   0  0  0  0  0  0  0  0  0  0  0  0
   42.6012    4.4230   11.3954 H   0  0  0  0  0  0  0  0  0  0  0  0
   43.0088    3.1941   13.5121 H   0  0  0  0  0  0  0  0  0  0  0  0
   43.9604    4.3944   14.0629 H   0  0  0  0  0  0  0  0  0  0  0  0
   46.2201    5.7606    9.5102 H   0  0  0  0  0  0  0  0  0  0  0  0
   43.9363    2.1967   10.2702 H   0  0  0  0  0  0  0  0  0  0  0  0
   44.2893    1.4771    7.9368 H   0  0  0  0  0  0  0  0  0  0  0  0
   46.5694    5.0350    7.1778 H   0  0  0  0  0  0  0  0  0  0  0  0
   45.6045    2.8923    6.3791 H   0  0  0  0  0  0  0  0  0  0  0  0
   45.6108    5.0498    8.6747 H   0  0  0  0  0  0  0  0  0  0  0  0
   43.3895    2.8678    8.6390 H   0  0  0  0  0  0  0  0  0  0  0  0
   44.3505    3.4820    7.2247 H   0  0  0  0  0  0  0  0  0  0  0  0
   45.4563    2.1417    9.7900 H   0  0  0  0  0  0  0  0  0  0  0  0
   46.7884    1.7006    7.7692 H   0  0  0  0  0  0  0  0  0  0  0  0
   47.6182    2.7118    8.7411 H   0  0  0  0  0  0  0  0  0  0  0  0
   42.5831    5.2946    9.7388 H   0  0  0  0  0  0  0  0  0  0  0  0
   46.2579    4.1579   11.6591 H   0  0  0  0  0  0  0  0  0  0  0  0
   45.3190    4.8227   13.8429 H   0  0  0  0  0  0  0  0  0  0  0  0
   41.6495    5.9583   11.9246 H   0  0  0  0  0  0  0  0  0  0  0  0
   43.0105    5.7227   13.9867 H   0  0  0  0  0  0  0  0  0  0  0  0
  2  1  1  0
  3  1  1  0
  1  4  1  0
  3  5  1  0
  6  4  2  0
  7  4  1  0
  8  7  2  0
  9  6  1  0
 10  9  2  0
  3  2  1  0
  8 10  1  0
 12 11  1  0
 13 11  1  0
 11 14  1  0
 13 15  1  0
 16 14  2  0
 17 14  1  0
 18 17  2  0
 19 16  1  0
 20 19  2  0
 13 12  1  0
 18 20  1  0
  1 21  1  1
  2 22  1  0
  2 23  1  0
  3 24  1  6
  5 25  1  0
  5 26  1  0
  6 27  1  0
  7 28  1  0
  8 29  1  0
  9 30  1  0
 10 31  1  0
 11 32  1  6
 12 33  1  0
 12 34  1  0
 13 35  1  1
 15 36  1  0
 15 37  1  0
 16 38  1  0
 17 39  1  0
 18 40  1  0
 19 41  1  0
 20 42  1  0
M  END
> <Uni-Dock RESULT> 
ENERGY=   -5.696  LOWER_BOUND=    0.558  UPPER_BOUND=    4.477
INTER + INTRA:          -5.696
INTER:                  -5.696
INTRA:                   0.000
UNBOUND:                 0.000

$$$$

     RDKit          3D

 42 44  0  0  0  0  0  0  0  0999 V2000
   46.4498    6.8240   12.5973 C   0  0  1  0  0  0  0  0  0  0  0  0
   46.8616    8.0501   11.8147 C   0  0  0  0  0  0  0  0  0  0  0  0
   46.2397    8.2116   13.1665 C   0  0  2  0  0  0  0  0  0  0  0  0
   45.2636    6.0032   12.1484 C   0  0  0  0  0  0  0  0  0  0  0  0
   47.0615    8.6783   14.2831 N   0  0  0  0  0  0  0  0  0  0  0  0
   45.1951    5.4681   10.8511 C   0  0  0  0  0  0  0  0  0  0  0  0
   44.2010    5.7165   13.0217 C   0  0  0  0  0  0  0  0  0  0  0  0
   43.1098    4.9445   12.6139 C   0  0  0  0  0  0  0  0  0  0  0  0
   44.1068    4.6953   10.4372 C   0  0  0  0  0  0  0  0  0  0  0  0
   43.0627    4.4352   11.3197 C   0  0  0  0  0  0  0  0  0  0  0  0
   44.6492    5.7990   11.5034 C   0  0  2  0  0  0  0  0  0  0  0  0
   43.2312    5.6796   12.0127 C   0  0  0  0  0  0  0  0  0  0  0  0
   44.2434    4.6469   12.3975 C   0  0  1  0  0  0  0  0  0  0  0  0
   45.5583    6.8824   12.0343 C   0  0  0  0  0  0  0  0  0  0  0  0
   44.1307    3.3049   11.8269 N   0  0  0  0  0  0  0  0  0  0  0  0
   45.1784    8.2347   12.0088 C   0  0  0  0  0  0  0  0  0  0  0  0
   46.8325    6.5798   12.5430 C   0  0  0  0  0  0  0  0  0  0  0  0
   47.6830    7.5794   13.0230 C   0  0  0  0  0  0  0  0  0  0  0  0
   46.0238    9.2392   12.4872 C   0  0  0  0  0  0  0  0  0  0  0  0
   47.2764    8.9102   12.9967 C   0  0  0  0  0  0  0  0  0  0  0  0
   47.2652    6.2408   13.0201 H   0  0  0  0  0  0  0  0  0  0  0  0
   46.2693    8.3522   10.9580 H   0  0  0  0  0  0  0  0  0  0  0  0
   47.9208    8.2477   11.7010 H   0  0  0  0  0  0  0  0  0  0  0  0
   45.2240    8.6038   13.1745 H   0  0  0  0  0  0  0  0  0  0  0  0
   46.6776    8.3525   15.1698 H   0  0  0  0  0  0  0  0  0  0  0  0
   48.0085    8.3049   14.2337 H   0  0  0  0  0  0  0  0  0  0  0  0
   46.0052    5.6575   10.1499 H   0  0  0  0  0  0  0  0  0  0  0  0
   44.2235    6.1023   14.0386 H   0  0  0  0  0  0  0  0  0  0  0  0
   42.2993    4.7414   13.3089 H   0  0  0  0  0  0  0  0  0  0  0  0
   44.0779    4.2971    9.4265 H   0  0  0  0  0  0  0  0  0  0  0  0
   42.2154    3.8345   11.0003 H   0  0  0  0  0  0  0  0  0  0  0  0
   44.7905    5.5638   10.4500 H   0  0  0  0  0  0  0  0  0  0  0  0
   42.8908    6.3581   12.7861 H   0  0  0  0  0  0  0  0  0  0  0  0
   42.4643    5.4113   11.2953 H   0  0  0  0  0  0  0  0  0  0  0  0
   44.5837    4.6722   13.4312 H   0  0  0  0  0  0  0  0  0  0  0  0
   43.4939    2.7327   12.3807 H   0  0  0  0  0  0  0  0  0  0  0  0
   45.0318    2.8286   11.8503 H   0  0  0  0  0  0  0  0  0  0  0  0
   44.2055    8.5097   11.6067 H   0  0  0  0  0  0  0  0  0  0  0  0
   47.1690    5.5454   12.5626 H   0  0  0  0  0  0  0  0  0  0  0  0
   48.6626    7.3169   13.4131 H   0  0  0  0  0  0  0  0  0  0  0  0
   45.7030   10.2771   12.4578 H   0  0  0  0  0  0  0  0  0  0  0  0
   47.9361    9.6897   13.3678 H   0  0  0  0  0  0  0  0  0  0  0  0
  2  1  1  0
  3  1  1  0
  1  4  1  0
  3  5  1  0
  6  4  2  0
  7  4  1  0
  8  7  2  0
  9  6  1  0
 10  9  2  0
  3  2  1  0
  8 10  1  0
 12 11  1  0
 13 11  1  0
 11 14  1  0
 13 15  1  0
 16 14  2  0
 17 14  1  0
 18 17  2  0
 19 16  1  0
 20 19  2  0
 13 12  1  0
 18 20  1  0
  1 21  1  1
  2 22  1  0
  2 23  1  0
  3 24  1  6
  5 25  1  0
  5 26  1  0
  6 27  1  0
  7 28  1  0
  8 29  1  0
  9 30  1  0
 10 31  1  0
 11 32  1  6
 12 33  1  0
 12 34  1  0
 13 35  1  1
 15 36  1  0
 15 37  1  0
 16 38  1  0
 17 39  1  0
 18 40  1  0
 19 41  1  0
 20 42  1  0
M  END
> <Uni-Dock RESULT> 
ENERGY=   -5.496  LOWER_BOUND=    2.597  UPPER_BOUND=    4.888
INTER + INTRA:          -5.496
INTER:                  -5.496
INTRA:                   0.000
UNBOUND:                 0.000

$$$$

     RDKit          3D

 42 44  0  0  0  0  0  0  0  0999 V2000
   43.6407    4.2919   11.1467 C   0  0  1  0  0  0  0  0  0  0  0  0
   43.9197    3.7552   12.5322 C   0  0  0  0  0  0  0  0  0  0  0  0
   44.2996    5.1633   12.1956 C   0  0  2  0  0  0  0  0  0  0  0  0
   44.4412    3.7927    9.9668 C   0  0  0  0  0  0  0  0  0  0  0  0
   43.5585    6.2702   12.8002 N   0  0  0  0  0  0  0  0  0  0  0  0
   44.5137    2.4234    9.6606 C   0  0  0  0  0  0  0  0  0  0  0  0
   45.1151    4.6815    9.1125 C   0  0  0  0  0  0  0  0  0  0  0  0
   45.8435    4.2238    8.0112 C   0  0  0  0  0  0  0  0  0  0  0  0
   45.2404    1.9592    8.5609 C   0  0  0  0  0  0  0  0  0  0  0  0
   45.9071    2.8609    7.7369 C   0  0  0  0  0  0  0  0  0  0  0  0
   45.0210    3.1807    9.6139 C   0  0  2  0  0  0  0  0  0  0  0  0
   46.1465    3.7857    8.8068 C   0  0  0  0  0  0  0  0  0  0  0  0
   44.7472    3.8411    8.2796 C   0  0  1  0  0  0  0  0  0  0  0  0
   44.5617    3.8424   10.8919 C   0  0  0  0  0  0  0  0  0  0  0  0
   44.3957    3.0089    7.1293 N   0  0  0  0  0  0  0  0  0  0  0  0
   45.4641    4.1445   11.9254 C   0  0  0  0  0  0  0  0  0  0  0  0
   43.2078    4.1500   11.1073 C   0  0  0  0  0  0  0  0  0  0  0  0
   42.7754    4.7500   12.2930 C   0  0  0  0  0  0  0  0  0  0  0  0
   45.0385    4.7445   13.1135 C   0  0  0  0  0  0  0  0  0  0  0  0
   43.6929    5.0491   13.2959 C   0  0  0  0  0  0  0  0  0  0  0  0
   42.5959    4.4996   10.9250 H   0  0  0  0  0  0  0  0  0  0  0  0
   44.7269    3.0441   12.6694 H   0  0  0  0  0  0  0  0  0  0  0  0
   43.0760    3.5859   13.1905 H   0  0  0  0  0  0  0  0  0  0  0  0
   45.3670    5.3525   12.0946 H   0  0  0  0  0  0  0  0  0  0  0  0
   43.6078    7.0988   12.2079 H   0  0  0  0  0  0  0  0  0  0  0  0
   42.5675    6.0515   12.8940 H   0  0  0  0  0  0  0  0  0  0  0  0
   43.9943    1.7050   10.2915 H   0  0  0  0  0  0  0  0  0  0  0  0
   45.0721    5.7507    9.3090 H   0  0  0  0  0  0  0  0  0  0  0  0
   46.3588    4.9331    7.3691 H   0  0  0  0  0  0  0  0  0  0  0  0
   45.2828    0.8940    8.3497 H   0  0  0  0  0  0  0  0  0  0  0  0
   46.4727    2.5025    6.8811 H   0  0  0  0  0  0  0  0  0  0  0  0
   44.9864    2.0927    9.6283 H   0  0  0  0  0  0  0  0  0  0  0  0
   46.5921    4.7157    9.1397 H   0  0  0  0  0  0  0  0  0  0  0  0
   46.8490    3.1041    8.3411 H   0  0  0  0  0  0  0  0  0  0  0  0
   44.2686    4.8186    8.2943 H   0  0  0  0  0  0  0  0  0  0  0  0
   44.6286    3.4852    6.2584 H   0  0  0  0  0  0  0  0  0  0  0  0
   43.3901    2.8431    7.1007 H   0  0  0  0  0  0  0  0  0  0  0  0
   46.5184    3.9059   11.8020 H   0  0  0  0  0  0  0  0  0  0  0  0
   42.4765    3.9146   10.3369 H   0  0  0  0  0  0  0  0  0  0  0  0
   41.7223    4.9790   12.4324 H   0  0  0  0  0  0  0  0  0  0  0  0
   45.7590    4.9695   13.8953 H   0  0  0  0  0  0  0  0  0  0  0  0
   43.3593    5.5142   14.2195 H   0  0  0  0  0  0  0  0  0  0  0  0
  2  1  1  0
  3  1  1  0
  1  4  1  0
  3  5  1  0
  6  4  2  0
  7  4  1  0
  8  7  2  0
  9  6  1  0
 10  9  2  0
  3  2  1  0
  8 10  1  0
 12 11  1  0
 13 11  1  0
 11 14  1  0
 13 15  1  0
 16 14  2  0
 17 14  1  0
 18 17  2  0
 19 16  1  0
 20 19  2  0
 13 12  1  0
 18 20  1  0
  1 21  1  1
  2 22  1  0
  2 23  1  0
  3 24  1  6
  5 25  1  0
  5 26  1  0
  6 27  1  0
  7 28  1  0
  8 29  1  0
  9 30  1  0
 10 31  1  0
 11 32  1  6
 12 33  1  0
 12 34  1  0
 13 35  1  1
 15 36  1  0
 15 37  1  0
 16 38  1  0
 17 39  1  0
 18 40  1  0
 19 41  1  0
 20 42  1  0
M  END
> <Uni-Dock RESULT> 
ENERGY=   -5.451  LOWER_BOUND=    0.897  UPPER_BOUND=    4.442
INTER + INTRA:          -5.451
INTER:                  -5.451
INTRA:                   0.000
UNBOUND:                 0.000

$$$$

     RDKit          3D

 42 44  0  0  0  0  0  0  0  0999 V2000
   45.1608    4.4299    9.2421 C   0  0  1  0  0  0  0  0  0  0  0  0
   45.9692    3.1554    9.1548 C   0  0  0  0  0  0  0  0  0  0  0  0
   44.6157    3.2161    8.5188 C   0  0  2  0  0  0  0  0  0  0  0  0
   44.5612    4.8564   10.5615 C   0  0  0  0  0  0  0  0  0  0  0  0
   44.5081    3.2190    7.0599 N   0  0  0  0  0  0  0  0  0  0  0  0
   45.3591    5.0245   11.7057 C   0  0  0  0  0  0  0  0  0  0  0  0
   43.1893    5.1332   10.6851 C   0  0  0  0  0  0  0  0  0  0  0  0
   42.6345    5.5429   11.9006 C   0  0  0  0  0  0  0  0  0  0  0  0
   44.8105    5.4340   12.9240 C   0  0  0  0  0  0  0  0  0  0  0  0
   43.4464    5.6916   13.0210 C   0  0  0  0  0  0  0  0  0  0  0  0
   44.5165    4.7648   11.4697 C   0  0  2  0  0  0  0  0  0  0  0  0
   43.1098    4.7205   12.0205 C   0  0  0  0  0  0  0  0  0  0  0  0
   43.6393    5.9983   11.4496 C   0  0  1  0  0  0  0  0  0  0  0  0
   44.8496    4.0544   10.1788 C   0  0  0  0  0  0  0  0  0  0  0  0
   43.9397    7.1036   12.3592 N   0  0  0  0  0  0  0  0  0  0  0  0
   44.5629    2.6910    9.9982 C   0  0  0  0  0  0  0  0  0  0  0  0
   45.4894    4.7245    9.1226 C   0  0  0  0  0  0  0  0  0  0  0  0
   45.8119    4.0689    7.9313 C   0  0  0  0  0  0  0  0  0  0  0  0
   44.8825    2.0294    8.8096 C   0  0  0  0  0  0  0  0  0  0  0  0
   45.5058    2.7203    7.7747 C   0  0  0  0  0  0  0  0  0  0  0  0
   45.5113    5.2519    8.6215 H   0  0  0  0  0  0  0  0  0  0  0  0
   46.0735    2.5357   10.0386 H   0  0  0  0  0  0  0  0  0  0  0  0
   46.8453    3.1526    8.5174 H   0  0  0  0  0  0  0  0  0  0  0  0
   43.8350    2.6426    9.0158 H   0  0  0  0  0  0  0  0  0  0  0  0
   43.6433    3.6725    6.7664 H   0  0  0  0  0  0  0  0  0  0  0  0
   45.2634    3.7505    6.6290 H   0  0  0  0  0  0  0  0  0  0  0  0
   46.4284    4.8322   11.6462 H   0  0  0  0  0  0  0  0  0  0  0  0
   42.5405    5.0270    9.8183 H   0  0  0  0  0  0  0  0  0  0  0  0
   41.5691    5.7464   11.9691 H   0  0  0  0  0  0  0  0  0  0  0  0
   45.4505    5.5522   13.7943 H   0  0  0  0  0  0  0  0  0  0  0  0
   43.0173    6.0102   13.9671 H   0  0  0  0  0  0  0  0  0  0  0  0
   45.3118    4.7521   12.2130 H   0  0  0  0  0  0  0  0  0  0  0  0
   42.3407    4.2033   11.4590 H   0  0  0  0  0  0  0  0  0  0  0  0
   42.9971    4.6409   13.0956 H   0  0  0  0  0  0  0  0  0  0  0  0
   43.2249    6.3016   10.4899 H   0  0  0  0  0  0  0  0  0  0  0  0
   43.1022    7.6563   12.5398 H   0  0  0  0  0  0  0  0  0  0  0  0
   44.6140    7.7417   11.9375 H   0  0  0  0  0  0  0  0  0  0  0  0
   44.0827    2.1343   10.8003 H   0  0  0  0  0  0  0  0  0  0  0  0
   45.7436    5.7766    9.2323 H   0  0  0  0  0  0  0  0  0  0  0  0
   46.3049    4.6120    7.1296 H   0  0  0  0  0  0  0  0  0  0  0  0
   44.6466    0.9747    8.6962 H   0  0  0  0  0  0  0  0  0  0  0  0
   45.7567    2.2076    6.8502 H   0  0  0  0  0  0  0  0  0  0  0  0
  2  1  1  0
  3  1  1  0
  1  4  1  0
  3  5  1  0
  6  4  2  0
  7  4  1  0
  8  7  2  0
  9  6  1  0
 10  9  2  0
  3  2  1  0
  8 10  1  0
 12 11  1  0
 13 11  1  0
 11 14  1  0
 13 15  1  0
 16 14  2  0
 17 14  1  0
 18 17  2  0
 19 16  1  0
 20 19  2  0
 13 12  1  0
 18 20  1  0
  1 21  1  1
  2 22  1  0
  2 23  1  0
  3 24  1  6
  5 25  1  0
  5 26  1  0
  6 27  1  0
  7 28  1  0
  8 29  1  0
  9 30  1  0
 10 31  1  0
 11 32  1  6
 12 33  1  0
 12 34  1  0
 13 35  1  1
 15 36  1  0
 15 37  1  0
 16 38  1  0
 17 39  1  0
 18 40  1  0
 19 41  1  0
 20 42  1  0
M  END
> <Uni-Dock RESULT> 
ENERGY=   -5.446  LOWER_BOUND=    1.100  UPPER_BOUND=    2.053
INTER + INTRA:          -5.446
INTER:                  -5.446
INTRA:                   0.000
UNBOUND:                 0.000

$$$$

     RDKit          3D

 42 44  0  0  0  0  0  0  0  0999 V2000
   45.9614    7.5918   12.4914 C   0  0  1  0  0  0  0  0  0  0  0  0
   46.9808    7.4634   13.6004 C   0  0  0  0  0  0  0  0  0  0  0  0
   47.4427    7.5469   12.1791 C   0  0  2  0  0  0  0  0  0  0  0  0
   45.0780    6.4187   12.1366 C   0  0  0  0  0  0  0  0  0  0  0  0
   48.1317    8.7523   11.7184 N   0  0  0  0  0  0  0  0  0  0  0  0
   44.2727    5.7927   13.1029 C   0  0  0  0  0  0  0  0  0  0  0  0
   45.0036    5.9318   10.8208 C   0  0  0  0  0  0  0  0  0  0  0  0
   44.1756    4.8568   10.4866 C   0  0  0  0  0  0  0  0  0  0  0  0
   43.4425    4.7174   12.7752 C   0  0  0  0  0  0  0  0  0  0  0  0
   43.3958    4.2486   11.4657 C   0  0  0  0  0  0  0  0  0  0  0  0
   44.7457    5.5940   12.3479 C   0  0  2  0  0  0  0  0  0  0  0  0
   44.7595    4.6073   11.2032 C   0  0  0  0  0  0  0  0  0  0  0  0
   43.8228    5.7736   11.1616 C   0  0  1  0  0  0  0  0  0  0  0  0
   45.9069    6.5388   12.5506 C   0  0  0  0  0  0  0  0  0  0  0  0
   42.3901    5.5310   11.3276 N   0  0  0  0  0  0  0  0  0  0  0  0
   47.2257    6.0661   12.6558 C   0  0  0  0  0  0  0  0  0  0  0  0
   45.7062    7.9238   12.6749 C   0  0  0  0  0  0  0  0  0  0  0  0
   46.7754    8.8010   12.8758 C   0  0  0  0  0  0  0  0  0  0  0  0
   48.2993    6.9377   12.8566 C   0  0  0  0  0  0  0  0  0  0  0  0
   48.0733    8.3066   12.9645 C   0  0  0  0  0  0  0  0  0  0  0  0
   45.4743    8.5612   12.4110 H   0  0  0  0  0  0  0  0  0  0  0  0
   47.0958    6.5094   14.1030 H   0  0  0  0  0  0  0  0  0  0  0  0
   47.1347    8.3170   14.2497 H   0  0  0  0  0  0  0  0  0  0  0  0
   47.8405    6.6253   11.7577 H   0  0  0  0  0  0  0  0  0  0  0  0
   48.0131    8.8691   10.7124 H   0  0  0  0  0  0  0  0  0  0  0  0
   47.7441    9.5925   12.1456 H   0  0  0  0  0  0  0  0  0  0  0  0
   44.2932    6.1499   14.1304 H   0  0  0  0  0  0  0  0  0  0  0  0
   45.6025    6.3984   10.0416 H   0  0  0  0  0  0  0  0  0  0  0  0
   44.1404    4.4976    9.4615 H   0  0  0  0  0  0  0  0  0  0  0  0
   42.8330    4.2494   13.5435 H   0  0  0  0  0  0  0  0  0  0  0  0
   42.7511    3.4126   11.2083 H   0  0  0  0  0  0  0  0  0  0  0  0
   44.2835    5.2390   13.2675 H   0  0  0  0  0  0  0  0  0  0  0  0
   45.5953    4.6130   10.5134 H   0  0  0  0  0  0  0  0  0  0  0  0
   44.3507    3.6209   11.3896 H   0  0  0  0  0  0  0  0  0  0  0  0
   44.0694    6.5603   10.4508 H   0  0  0  0  0  0  0  0  0  0  0  0
   41.9615    5.2917   10.4339 H   0  0  0  0  0  0  0  0  0  0  0  0
   41.9185    6.3754   11.6502 H   0  0  0  0  0  0  0  0  0  0  0  0
   47.4188    4.9979   12.5812 H   0  0  0  0  0  0  0  0  0  0  0  0
   44.6968    8.3255   12.6167 H   0  0  0  0  0  0  0  0  0  0  0  0
   46.5917    9.8682   12.9664 H   0  0  0  0  0  0  0  0  0  0  0  0
   49.3097    6.5446   12.9315 H   0  0  0  0  0  0  0  0  0  0  0  0
   48.9064    8.9861   13.1223 H   0  0  0  0  0  0  0  0  0  0  0  0
  2  1  1  0
  3  1  1  0
  1  4  1  0
  3  5  1  0
  6  4  2  0
  7  4  1  0
  8  7  2  0
  9  6  1  0
 10  9  2  0
  3  2  1  0
  8 10  1  0
 12 11  1  0
 13 11  1  0
 11 14  1  0
 13 15  1  0
 16 14  2  0
 17 14  1  0
 18 17  2  0
 19 16  1  0
 20 19  2  0
 13 12  1  0
 18 20  1  0
  1 21  1  1
  2 22  1  0
  2 23  1  0
  3 24  1  6
  5 25  1  0
  5 26  1  0
  6 27  1  0
  7 28  1  0
  8 29  1  0
  9 30  1  0
 10 31  1  0
 11 32  1  6
 12 33  1  0
 12 34  1  0
 13 35  1  1
 15 36  1  0
 15 37  1  0
 16 38  1  0
 17 39  1  0
 18 40  1  0
 19 41  1  0
 20 42  1  0
M  END
> <Uni-Dock RESULT> 
ENERGY=   -5.243  LOWER_BOUND=    2.785  UPPER_BOUND=    4.863
INTER + INTRA:          -5.243
INTER:                  -5.243
INTRA:                   0.000
UNBOUND:                 0.000

$$$$

     RDKit          3D

 42 44  0  0  0  0  0  0  0  0999 V2000
   47.5689    4.9597   18.6459 C   0  0  1  0  0  0  0  0  0  0  0  0
   48.5983    4.6907   17.5719 C   0  0  0  0  0  0  0  0  0  0  0  0
   47.9753    3.5419   18.3017 C   0  0  2  0  0  0  0  0  0  0  0  0
   47.9909    5.5687   19.9625 C   0  0  0  0  0  0  0  0  0  0  0  0
   47.0435    2.6634   17.5945 N   0  0  0  0  0  0  0  0  0  0  0  0
   48.6844    6.7895   20.0132 C   0  0  0  0  0  0  0  0  0  0  0  0
   47.6763    4.9540   21.1860 C   0  0  0  0  0  0  0  0  0  0  0  0
   48.0518    5.5229   22.4060 C   0  0  0  0  0  0  0  0  0  0  0  0
   49.0627    7.3638   21.2298 C   0  0  0  0  0  0  0  0  0  0  0  0
   48.7471    6.7282   22.4269 C   0  0  0  0  0  0  0  0  0  0  0  0
   48.6252    5.9969   20.4619 C   0  0  2  0  0  0  0  0  0  0  0  0
   48.8205    5.4193   21.8448 C   0  0  0  0  0  0  0  0  0  0  0  0
   47.5509    6.1410   21.5186 C   0  0  1  0  0  0  0  0  0  0  0  0
   48.4041    5.0817   19.2806 C   0  0  0  0  0  0  0  0  0  0  0  0
   47.3127    7.4522   22.1212 N   0  0  0  0  0  0  0  0  0  0  0  0
   49.2996    4.0410   18.9829 C   0  0  0  0  0  0  0  0  0  0  0  0
   47.3109    5.2591   18.4161 C   0  0  0  0  0  0  0  0  0  0  0  0
   47.1088    4.4237   17.3142 C   0  0  0  0  0  0  0  0  0  0  0  0
   49.1035    3.2020   17.8828 C   0  0  0  0  0  0  0  0  0  0  0  0
   48.0055    3.3928   17.0492 C   0  0  0  0  0  0  0  0  0  0  0  0
   46.5945    5.2886   18.2909 H   0  0  0  0  0  0  0  0  0  0  0  0
   49.6421    4.9003   17.7778 H   0  0  0  0  0  0  0  0  0  0  0  0
   48.3152    4.8690   16.5414 H   0  0  0  0  0  0  0  0  0  0  0  0
   48.6249    3.0204   19.0025 H   0  0  0  0  0  0  0  0  0  0  0  0
   46.3979    2.2250   18.2509 H   0  0  0  0  0  0  0  0  0  0  0  0
   46.4642    3.1828   16.9364 H   0  0  0  0  0  0  0  0  0  0  0  0
   48.9347    7.3025   19.0868 H   0  0  0  0  0  0  0  0  0  0  0  0
   47.1288    4.0138   21.1888 H   0  0  0  0  0  0  0  0  0  0  0  0
   47.7990    5.0238   23.3377 H   0  0  0  0  0  0  0  0  0  0  0  0
   49.6019    8.3072   21.2395 H   0  0  0  0  0  0  0  0  0  0  0  0
   49.0400    7.1726   23.3742 H   0  0  0  0  0  0  0  0  0  0  0  0
   49.2056    6.8911   20.2409 H   0  0  0  0  0  0  0  0  0  0  0  0
   48.7644    4.3455   21.9795 H   0  0  0  0  0  0  0  0  0  0  0  0
   49.5415    5.9059   22.4916 H   0  0  0  0  0  0  0  0  0  0  0  0
   46.6616    5.5220   21.4151 H   0  0  0  0  0  0  0  0  0  0  0  0
   46.8921    7.3508   23.0445 H   0  0  0  0  0  0  0  0  0  0  0  0
   46.6467    7.9870   21.5644 H   0  0  0  0  0  0  0  0  0  0  0  0
   50.1673    3.8829   19.6201 H   0  0  0  0  0  0  0  0  0  0  0  0
   46.6055    6.0658   18.6041 H   0  0  0  0  0  0  0  0  0  0  0  0
   46.2534    4.5822   16.6630 H   0  0  0  0  0  0  0  0  0  0  0  0
   49.8109    2.4030   17.6777 H   0  0  0  0  0  0  0  0  0  0  0  0
   47.8518    2.7427   16.1924 H   0  0  0  0  0  0  0  0  0  0  0  0
  2  1  1  0
  3  1  1  0
  1  4  1  0
  3  5  1  0
  6  4  2  0
  7  4  1  0
  8  7  2  0
  9  6  1  0
 10  9  2  0
  3  2  1  0
  8 10  1  0
 12 11  1  0
 13 11  1  0
 11 14  1  0
 13 15  1  0
 16 14  2  0
 17 14  1  0
 18 17  2  0
 19 16  1  0
 20 19  2  0
 13 12  1  0
 18 20  1  0
  1 21  1  1
  2 22  1  0
  2 23  1  0
  3 24  1  6
  5 25  1  0
  5 26  1  0
  6 27  1  0
  7 28  1  0
  8 29  1  0
  9 30  1  0
 10 31  1  0
 11 32  1  6
 12 33  1  0
 12 34  1  0
 13 35  1  1
 15 36  1  0
 15 37  1  0
 16 38  1  0
 17 39  1  0
 18 40  1  0
 19 41  1  0
 20 42  1  0
M  END
> <Uni-Dock RESULT> 
ENERGY=   -4.714  LOWER_BOUND=    7.880  UPPER_BOUND=   10.181
INTER + INTRA:          -4.714
INTER:                  -4.714
INTRA:                   0.000
UNBOUND:                 0.000

$$$$

     RDKit          3D

 42 44  0  0  0  0  0  0  0  0999 V2000
   39.7559   12.3672   14.1670 C   0  0  1  0  0  0  0  0  0  0  0  0
   39.4834   13.7850   14.6153 C   0  0  0  0  0  0  0  0  0  0  0  0
   38.5839   12.6800   15.0737 C   0  0  2  0  0  0  0  0  0  0  0  0
   39.5149   11.9689   12.7298 C   0  0  0  0  0  0  0  0  0  0  0  0
   38.6120   12.2675   16.4769 N   0  0  0  0  0  0  0  0  0  0  0  0
   40.1287   12.6558   11.6690 C   0  0  0  0  0  0  0  0  0  0  0  0
   38.6947   10.8762   12.4022 C   0  0  0  0  0  0  0  0  0  0  0  0
   38.4823   10.4958   11.0744 C   0  0  0  0  0  0  0  0  0  0  0  0
   39.9205   12.2805   10.3391 C   0  0  0  0  0  0  0  0  0  0  0  0
   39.0949   11.2002   10.0424 C   0  0  0  0  0  0  0  0  0  0  0  0
   39.3548   12.2130   11.8638 C   0  0  2  0  0  0  0  0  0  0  0  0
   38.2600   11.4201   11.1877 C   0  0  0  0  0  0  0  0  0  0  0  0
   39.5570   10.7525   11.5211 C   0  0  1  0  0  0  0  0  0  0  0  0
   39.2063   12.6362   13.3063 C   0  0  0  0  0  0  0  0  0  0  0  0
   40.4635   10.3932   10.4309 N   0  0  0  0  0  0  0  0  0  0  0  0
   38.0818   13.3539   13.7468 C   0  0  0  0  0  0  0  0  0  0  0  0
   40.2046   12.3558   14.2543 C   0  0  0  0  0  0  0  0  0  0  0  0
   40.0785   12.7565   15.5872 C   0  0  0  0  0  0  0  0  0  0  0  0
   37.9493   13.7576   15.0780 C   0  0  0  0  0  0  0  0  0  0  0  0
   38.9482   13.4564   15.9990 C   0  0  0  0  0  0  0  0  0  0  0  0
   40.6157   11.8857   14.6282 H   0  0  0  0  0  0  0  0  0  0  0  0
   39.0740   14.4935   13.9037 H   0  0  0  0  0  0  0  0  0  0  0  0
   40.1656   14.2319   15.3286 H   0  0  0  0  0  0  0  0  0  0  0  0
   37.5888   12.6681   14.6322 H   0  0  0  0  0  0  0  0  0  0  0  0
   38.3117   11.2975   16.5702 H   0  0  0  0  0  0  0  0  0  0  0  0
   39.5553   12.3068   16.8608 H   0  0  0  0  0  0  0  0  0  0  0  0
   40.7814   13.4996   11.8834 H   0  0  0  0  0  0  0  0  0  0  0  0
   38.2117   10.3109   13.1965 H   0  0  0  0  0  0  0  0  0  0  0  0
   37.8396    9.6489   10.8491 H   0  0  0  0  0  0  0  0  0  0  0  0
   40.4050   12.8321    9.5379 H   0  0  0  0  0  0  0  0  0  0  0  0
   38.9314   10.9063    9.0091 H   0  0  0  0  0  0  0  0  0  0  0  0
   39.8724   12.9317   11.2309 H   0  0  0  0  0  0  0  0  0  0  0  0
   37.3875   11.1317   11.7622 H   0  0  0  0  0  0  0  0  0  0  0  0
   38.0466   11.6485   10.1499 H   0  0  0  0  0  0  0  0  0  0  0  0
   39.5304   10.0379   12.3418 H   0  0  0  0  0  0  0  0  0  0  0  0
   40.2166    9.4821   10.0455 H   0  0  0  0  0  0  0  0  0  0  0  0
   41.4196   10.3054   10.7739 H   0  0  0  0  0  0  0  0  0  0  0  0
   37.2952   13.6042   13.0378 H   0  0  0  0  0  0  0  0  0  0  0  0
   41.0985   11.8173   13.9467 H   0  0  0  0  0  0  0  0  0  0  0  0
   40.8652   12.5245   16.3000 H   0  0  0  0  0  0  0  0  0  0  0  0
   37.0673   14.3094   15.3917 H   0  0  0  0  0  0  0  0  0  0  0  0
   38.8482   13.7706   17.0343 H   0  0  0  0  0  0  0  0  0  0  0  0
  2  1  1  0
  3  1  1  0
  1  4  1  0
  3  5  1  0
  6  4  2  0
  7  4  1  0
  8  7  2  0
  9  6  1  0
 10  9  2  0
  3  2  1  0
  8 10  1  0
 12 11  1  0
 13 11  1  0
 11 14  1  0
 13 15  1  0
 16 14  2  0
 17 14  1  0
 18 17  2  0
 19 16  1  0
 20 19  2  0
 13 12  1  0
 18 20  1  0
  1 21  1  1
  2 22  1  0
  2 23  1  0
  3 24  1  6
  5 25  1  0
  5 26  1  0
  6 27  1  0
  7 28  1  0
  8 29  1  0
  9 30  1  0
 10 31  1  0
 11 32  1  6
 12 33  1  0
 12 34  1  0
 13 35  1  1
 15 36  1  0
 15 37  1  0
 16 38  1  0
 17 39  1  0
 18 40  1  0
 19 41  1  0
 20 42  1  0
M  END
> <Uni-Dock RESULT> 
ENERGY=   -4.698  LOWER_BOUND=    8.877  UPPER_BOUND=   11.215
INTER + INTRA:          -4.698
INTER:                  -4.698
INTRA:                   0.000
UNBOUND:                 0.000

$$$$
