
     RDKit          3D

 42 44  0  0  0  0  0  0  0  0999 V2000
   45.7416    3.3942    9.4472 C   0  0  1  0  0  0  0  0  0  0  0  0
   44.6088    4.3925    9.5249 C   0  0  0  0  0  0  0  0  0  0  0  0
   44.3987    2.9971   10.0241 C   0  0  2  0  0  0  0  0  0  0  0  0
   46.1795    2.8487    8.1082 C   0  0  0  0  0  0  0  0  0  0  0  0
   44.2580    2.7641   11.4615 N   0  0  0  0  0  0  0  0  0  0  0  0
   46.2520    1.4661    7.8719 C   0  0  0  0  0  0  0  0  0  0  0  0
   46.5627    3.7037    7.0604 C   0  0  0  0  0  0  0  0  0  0  0  0
   46.9821    3.2016    5.8255 C   0  0  0  0  0  0  0  0  0  0  0  0
   46.6708    0.9575    6.6394 C   0  0  0  0  0  0  0  0  0  0  0  0
   47.0345    1.8272    5.6152 C   0  0  0  0  0  0  0  0  0  0  0  0
   44.5196    2.9239    8.5957 C   0  0  2  0  0  0  0  0  0  0  0  0
   44.2680    4.2322    9.3097 C   0  0  0  0  0  0  0  0  0  0  0  0
   44.5733    3.0030   10.1067 C   0  0  1  0  0  0  0  0  0  0  0  0
   45.7915    2.7212    7.8061 C   0  0  0  0  0  0  0  0  0  0  0  0
   43.5023    2.3903   10.8927 N   0  0  0  0  0  0  0  0  0  0  0  0
   46.6166    1.6056    8.0273 C   0  0  0  0  0  0  0  0  0  0  0  0
   46.1790    3.6205    6.7987 C   0  0  0  0  0  0  0  0  0  0  0  0
   47.3487    3.4269    6.0587 C   0  0  0  0  0  0  0  0  0  0  0  0
   47.7875    1.4060    7.2908 C   0  0  0  0  0  0  0  0  0  0  0  0
   48.1544    2.3194    6.3072 C   0  0  0  0  0  0  0  0  0  0  0  0
   46.5522    3.5467   10.1568 H   0  0  0  0  0  0  0  0  0  0  0  0
   44.6899    5.1976   10.2455 H   0  0  0  0  0  0  0  0  0  0  0  0
   44.0916    4.6755    8.6146 H   0  0  0  0  0  0  0  0  0  0  0  0
   43.7535    2.3697    9.4115 H   0  0  0  0  0  0  0  0  0  0  0  0
   44.5340    1.8114   11.6973 H   0  0  0  0  0  0  0  0  0  0  0  0
   44.8686    3.3746   12.0027 H   0  0  0  0  0  0  0  0  0  0  0  0
   45.9754    0.7716    8.6626 H   0  0  0  0  0  0  0  0  0  0  0  0
   46.5323    4.7809    7.2093 H   0  0  0  0  0  0  0  0  0  0  0  0
   47.2681    3.8858    5.0308 H   0  0  0  0  0  0  0  0  0  0  0  0
   46.7125   -0.1172    6.4821 H   0  0  0  0  0  0  0  0  0  0  0  0
   47.3601    1.4344    4.6558 H   0  0  0  0  0  0  0  0  0  0  0  0
   43.6390    2.4486    8.1678 H   0  0  0  0  0  0  0  0  0  0  0  0
   43.2525    4.6119    9.3124 H   0  0  0  0  0  0  0  0  0  0  0  0
   45.0254    5.0063    9.2721 H   0  0  0  0  0  0  0  0  0  0  0  0
   45.5556    2.9669   10.5743 H   0  0  0  0  0  0  0  0  0  0  0  0
   43.6955    1.4015   11.0502 H   0  0  0  0  0  0  0  0  0  0  0  0
   43.4496    2.8171   11.8170 H   0  0  0  0  0  0  0  0  0  0  0  0
   46.3395    0.8773    8.7864 H   0  0  0  0  0  0  0  0  0  0  0  0
   45.5560    4.4864    6.5857 H   0  0  0  0  0  0  0  0  0  0  0  0
   47.6256    4.1401    5.2870 H   0  0  0  0  0  0  0  0  0  0  0  0
   48.4088    0.5361    7.4851 H   0  0  0  0  0  0  0  0  0  0  0  0
   49.0634    2.1662    5.7319 H   0  0  0  0  0  0  0  0  0  0  0  0
  2  1  1  0
  3  1  1  0
  1  4  1  0
  3  5  1  0
  6  4  2  0
  7  4  1  0
  8  7  2  0
  9  6  1  0
 10  9  2  0
  3  2  1  0
  8 10  1  0
 12 11  1  0
 13 11  1  0
 11 14  1  0
 13 15  1  0
 16 14  2  0
 17 14  1  0
 18 17  2  0
 19 16  1  0
 20 19  2  0
 13 12  1  0
 18 20  1  0
  1 21  1  1
  2 22  1  0
  2 23  1  0
  3 24  1  6
  5 25  1  0
  5 26  1  0
  6 27  1  0
  7 28  1  0
  8 29  1  0
  9 30  1  0
 10 31  1  0
 11 32  1  6
 12 33  1  0
 12 34  1  0
 13 35  1  1
 15 36  1  0
 15 37  1  0
 16 38  1  0
 17 39  1  0
 18 40  1  0
 19 41  1  0
 20 42  1  0
M  END
> <Uni-Dock RESULT> 
ENERGY=   -8.214  LOWER_BOUND=    0.000  UPPER_BOUND=    0.000
INTER + INTRA:          -8.214
INTER:                  -8.214
INTRA:                   0.000
UNBOUND:                 0.000

$$$$

     RDKit          3D

 42 44  0  0  0  0  0  0  0  0999 V2000
   44.1782    2.8507    9.4658 C   0  0  1  0  0  0  0  0  0  0  0  0
   44.5245    3.3651    8.0869 C   0  0  0  0  0  0  0  0  0  0  0  0
   45.4717    2.4445    8.7909 C   0  0  2  0  0  0  0  0  0  0  0  0
   44.2064    3.7860   10.6519 C   0  0  0  0  0  0  0  0  0  0  0  0
   45.6435    1.0784    8.2965 N   0  0  0  0  0  0  0  0  0  0  0  0
   44.9550    3.4845   11.8013 C   0  0  0  0  0  0  0  0  0  0  0  0
   43.4581    4.9758   10.6626 C   0  0  0  0  0  0  0  0  0  0  0  0
   43.4708    5.8356   11.7642 C   0  0  0  0  0  0  0  0  0  0  0  0
   44.9719    4.3398   12.9063 C   0  0  0  0  0  0  0  0  0  0  0  0
   44.2297    5.5174   12.8860 C   0  0  0  0  0  0  0  0  0  0  0  0
   45.4918    3.6950    9.4952 C   0  0  2  0  0  0  0  0  0  0  0  0
   44.9064    3.5697    8.1073 C   0  0  0  0  0  0  0  0  0  0  0  0
   45.3214    2.3372    8.8476 C   0  0  1  0  0  0  0  0  0  0  0  0
   44.6126    4.0909   10.6582 C   0  0  0  0  0  0  0  0  0  0  0  0
   46.5058    1.6088    8.3928 N   0  0  0  0  0  0  0  0  0  0  0  0
   44.5689    3.3221   11.8335 C   0  0  0  0  0  0  0  0  0  0  0  0
   43.8331    5.2592   10.6223 C   0  0  0  0  0  0  0  0  0  0  0  0
   43.0294    5.6332   11.7028 C   0  0  0  0  0  0  0  0  0  0  0  0
   43.7674    3.6905   12.9175 C   0  0  0  0  0  0  0  0  0  0  0  0
   42.9954    4.8463   12.8503 C   0  0  0  0  0  0  0  0  0  0  0  0
   43.3907    2.1009    9.5038 H   0  0  0  0  0  0  0  0  0  0  0  0
   43.9565    2.9856    7.2458 H   0  0  0  0  0  0  0  0  0  0  0  0
   44.8327    4.3985    7.9713 H   0  0  0  0  0  0  0  0  0  0  0  0
   46.3922    2.9010    9.1510 H   0  0  0  0  0  0  0  0  0  0  0  0
   45.9534    0.4632    9.0481 H   0  0  0  0  0  0  0  0  0  0  0  0
   44.7648    0.6876    7.9593 H   0  0  0  0  0  0  0  0  0  0  0  0
   45.5378    2.5661   11.8362 H   0  0  0  0  0  0  0  0  0  0  0  0
   42.8553    5.2377    9.7957 H   0  0  0  0  0  0  0  0  0  0  0  0
   42.8864    6.7519   11.7436 H   0  0  0  0  0  0  0  0  0  0  0  0
   45.5644    4.0843   13.7810 H   0  0  0  0  0  0  0  0  0  0  0  0
   44.2414    6.1844   13.7438 H   0  0  0  0  0  0  0  0  0  0  0  0
   46.5070    4.0847    9.5404 H   0  0  0  0  0  0  0  0  0  0  0  0
   45.5168    3.9045    7.2762 H   0  0  0  0  0  0  0  0  0  0  0  0
   43.8449    3.7367    7.9669 H   0  0  0  0  0  0  0  0  0  0  0  0
   44.5152    1.7055    9.2163 H   0  0  0  0  0  0  0  0  0  0  0  0
   46.9084    1.0681    9.1580 H   0  0  0  0  0  0  0  0  0  0  0  0
   46.2538    0.9325    7.6729 H   0  0  0  0  0  0  0  0  0  0  0  0
   45.1732    2.4204   11.9058 H   0  0  0  0  0  0  0  0  0  0  0  0
   43.8551    5.8901    9.7364 H   0  0  0  0  0  0  0  0  0  0  0  0
   42.4347    6.5409   11.6466 H   0  0  0  0  0  0  0  0  0  0  0  0
   43.7501    3.0754   13.8131 H   0  0  0  0  0  0  0  0  0  0  0  0
   42.3725    5.1361   13.6921 H   0  0  0  0  0  0  0  0  0  0  0  0
  2  1  1  0
  3  1  1  0
  1  4  1  0
  3  5  1  0
  6  4  2  0
  7  4  1  0
  8  7  2  0
  9  6  1  0
 10  9  2  0
  3  2  1  0
  8 10  1  0
 12 11  1  0
 13 11  1  0
 11 14  1  0
 13 15  1  0
 16 14  2  0
 17 14  1  0
 18 17  2  0
 19 16  1  0
 20 19  2  0
 13 12  1  0
 18 20  1  0
  1 21  1  1
  2 22  1  0
  2 23  1  0
  3 24  1  6
  5 25  1  0
  5 26  1  0
  6 27  1  0
  7 28  1  0
  8 29  1  0
  9 30  1  0
 10 31  1  0
 11 32  1  6
 12 33  1  0
 12 34  1  0
 13 35  1  1
 15 36  1  0
 15 37  1  0
 16 38  1  0
 17 39  1  0
 18 40  1  0
 19 41  1  0
 20 42  1  0
M  END
> <Uni-Dock RESULT> 
ENERGY=   -7.031  LOWER_BOUND=    2.346  UPPER_BOUND=    5.128
INTER + INTRA:          -7.031
INTER:                  -7.031
INTRA:                   0.000
UNBOUND:                 0.000

$$$$

     RDKit          3D

 42 44  0  0  0  0  0  0  0  0999 V2000
   45.6413    3.2653    9.6731 C   0  0  1  0  0  0  0  0  0  0  0  0
   45.1805    2.0221    8.9465 C   0  0  0  0  0  0  0  0  0  0  0  0
   45.4389    3.2769    8.1723 C   0  0  2  0  0  0  0  0  0  0  0  0
   44.6853    4.0161   10.5701 C   0  0  0  0  0  0  0  0  0  0  0  0
   46.5940    3.3412    7.2769 N   0  0  0  0  0  0  0  0  0  0  0  0
   44.4543    5.3912   10.4018 C   0  0  0  0  0  0  0  0  0  0  0  0
   44.0173    3.3739   11.6270 C   0  0  0  0  0  0  0  0  0  0  0  0
   43.1435    4.0691   12.4673 C   0  0  0  0  0  0  0  0  0  0  0  0
   43.5820    6.0924   11.2387 C   0  0  0  0  0  0  0  0  0  0  0  0
   42.9251    5.4292   12.2715 C   0  0  0  0  0  0  0  0  0  0  0  0
   44.2672    3.5031    8.9699 C   0  0  2  0  0  0  0  0  0  0  0  0
   44.8151    2.1147    8.7318 C   0  0  0  0  0  0  0  0  0  0  0  0
   45.5987    3.3056    8.2769 C   0  0  1  0  0  0  0  0  0  0  0  0
   44.2227    4.0734   10.3682 C   0  0  0  0  0  0  0  0  0  0  0  0
   45.7040    3.5722    6.8424 N   0  0  0  0  0  0  0  0  0  0  0  0
   44.7793    5.3298   10.6609 C   0  0  0  0  0  0  0  0  0  0  0  0
   43.5937    3.3858   11.4195 C   0  0  0  0  0  0  0  0  0  0  0  0
   43.5405    3.9184   12.7106 C   0  0  0  0  0  0  0  0  0  0  0  0
   44.7296    5.8681   11.9497 C   0  0  0  0  0  0  0  0  0  0  0  0
   44.1112    5.1598   12.9756 C   0  0  0  0  0  0  0  0  0  0  0  0
   46.6701    3.2488   10.0271 H   0  0  0  0  0  0  0  0  0  0  0  0
   45.8793    1.1993    8.8544 H   0  0  0  0  0  0  0  0  0  0  0  0
   44.1480    1.7054    9.0453 H   0  0  0  0  0  0  0  0  0  0  0  0
   44.5553    3.7834    7.7876 H   0  0  0  0  0  0  0  0  0  0  0  0
   46.8926    4.3074    7.1484 H   0  0  0  0  0  0  0  0  0  0  0  0
   47.3978    2.8490    7.6645 H   0  0  0  0  0  0  0  0  0  0  0  0
   44.9625    5.9266    9.6023 H   0  0  0  0  0  0  0  0  0  0  0  0
   44.1801    2.3119   11.7974 H   0  0  0  0  0  0  0  0  0  0  0  0
   42.6362    3.5464   13.2740 H   0  0  0  0  0  0  0  0  0  0  0  0
   43.4178    7.1555   11.0826 H   0  0  0  0  0  0  0  0  0  0  0  0
   42.2460    5.9720   12.9234 H   0  0  0  0  0  0  0  0  0  0  0  0
   43.4305    3.7900    8.3358 H   0  0  0  0  0  0  0  0  0  0  0  0
   44.3204    1.5044    7.9847 H   0  0  0  0  0  0  0  0  0  0  0  0
   45.2026    1.5506    9.5721 H   0  0  0  0  0  0  0  0  0  0  0  0
   46.4974    3.5340    8.8471 H   0  0  0  0  0  0  0  0  0  0  0  0
   45.8916    4.5606    6.6754 H   0  0  0  0  0  0  0  0  0  0  0  0
   46.4928    3.0651    6.4426 H   0  0  0  0  0  0  0  0  0  0  0  0
   45.2585    5.9004    9.8683 H   0  0  0  0  0  0  0  0  0  0  0  0
   43.1349    2.4183   11.2275 H   0  0  0  0  0  0  0  0  0  0  0  0
   43.0498    3.3634   13.5055 H   0  0  0  0  0  0  0  0  0  0  0  0
   45.1713    6.8407   12.1487 H   0  0  0  0  0  0  0  0  0  0  0  0
   44.0696    5.5765   13.9782 H   0  0  0  0  0  0  0  0  0  0  0  0
  2  1  1  0
  3  1  1  0
  1  4  1  0
  3  5  1  0
  6  4  2  0
  7  4  1  0
  8  7  2  0
  9  6  1  0
 10  9  2  0
  3  2  1  0
  8 10  1  0
 12 11  1  0
 13 11  1  0
 11 14  1  0
 13 15  1  0
 16 14  2  0
 17 14  1  0
 18 17  2  0
 19 16  1  0
 20 19  2  0
 13 12  1  0
 18 20  1  0
  1 21  1  1
  2 22  1  0
  2 23  1  0
  3 24  1  6
  5 25  1  0
  5 26  1  0
  6 27  1  0
  7 28  1  0
  8 29  1  0
  9 30  1  0
 10 31  1  0
 11 32  1  6
 12 33  1  0
 12 34  1  0
 13 35  1  1
 15 36  1  0
 15 37  1  0
 16 38  1  0
 17 39  1  0
 18 40  1  0
 19 41  1  0
 20 42  1  0
M  END
> <Uni-Dock RESULT> 
ENERGY=   -6.733  LOWER_BOUND=    2.441  UPPER_BOUND=    5.301
INTER + INTRA:          -6.733
INTER:                  -6.733
INTRA:                   0.000
UNBOUND:                 0.000

$$$$

     RDKit          3D

 42 44  0  0  0  0  0  0  0  0999 V2000
   43.9792    5.6233   12.7144 C   0  0  1  0  0  0  0  0  0  0  0  0
   42.7431    5.7629   11.8551 C   0  0  0  0  0  0  0  0  0  0  0  0
   43.6437    4.5823   11.6668 C   0  0  2  0  0  0  0  0  0  0  0  0
   45.1534    6.5513   12.5082 C   0  0  0  0  0  0  0  0  0  0  0  0
   43.1802    3.2556   12.0733 N   0  0  0  0  0  0  0  0  0  0  0  0
   46.4478    6.0526   12.2884 C   0  0  0  0  0  0  0  0  0  0  0  0
   45.0000    7.9474   12.5622 C   0  0  0  0  0  0  0  0  0  0  0  0
   46.0870    8.8080   12.3863 C   0  0  0  0  0  0  0  0  0  0  0  0
   47.5390    6.9076   12.1119 C   0  0  0  0  0  0  0  0  0  0  0  0
   47.3570    8.2869   12.1596 C   0  0  0  0  0  0  0  0  0  0  0  0
   44.3563    5.7388   11.2032 C   0  0  2  0  0  0  0  0  0  0  0  0
   42.8634    5.7620   11.4384 C   0  0  0  0  0  0  0  0  0  0  0  0
   43.6585    4.5660   11.8588 C   0  0  1  0  0  0  0  0  0  0  0  0
   45.2683    6.6250   12.0189 C   0  0  0  0  0  0  0  0  0  0  0  0
   43.5017    3.3187   11.1106 N   0  0  0  0  0  0  0  0  0  0  0  0
   46.3783    6.0978   12.7003 C   0  0  0  0  0  0  0  0  0  0  0  0
   45.0615    8.0123   12.0989 C   0  0  0  0  0  0  0  0  0  0  0  0
   45.9122    8.8348   12.8426 C   0  0  0  0  0  0  0  0  0  0  0  0
   47.2328    6.9147   13.4457 C   0  0  0  0  0  0  0  0  0  0  0  0
   46.9974    8.2843   13.5182 C   0  0  0  0  0  0  0  0  0  0  0  0
   43.8019    5.3471   13.7518 H   0  0  0  0  0  0  0  0  0  0  0  0
   41.7784    5.6133   12.3251 H   0  0  0  0  0  0  0  0  0  0  0  0
   42.7305    6.5066   11.0658 H   0  0  0  0  0  0  0  0  0  0  0  0
   44.2336    4.5809   10.7518 H   0  0  0  0  0  0  0  0  0  0  0  0
   43.9726    2.6499   12.2844 H   0  0  0  0  0  0  0  0  0  0  0  0
   42.6243    3.2969   12.9265 H   0  0  0  0  0  0  0  0  0  0  0  0
   46.6093    4.9770   12.2523 H   0  0  0  0  0  0  0  0  0  0  0  0
   44.0149    8.3719   12.7432 H   0  0  0  0  0  0  0  0  0  0  0  0
   45.9389    9.8840   12.4280 H   0  0  0  0  0  0  0  0  0  0  0  0
   48.5293    6.4945   11.9382 H   0  0  0  0  0  0  0  0  0  0  0  0
   48.2037    8.9540   12.0223 H   0  0  0  0  0  0  0  0  0  0  0  0
   44.6640    5.6009   10.1684 H   0  0  0  0  0  0  0  0  0  0  0  0
   42.2201    5.6767   10.5699 H   0  0  0  0  0  0  0  0  0  0  0  0
   42.4635    6.3981   12.2193 H   0  0  0  0  0  0  0  0  0  0  0  0
   43.7988    4.4366   12.9305 H   0  0  0  0  0  0  0  0  0  0  0  0
   44.3321    2.7354   11.2105 H   0  0  0  0  0  0  0  0  0  0  0  0
   42.7276    2.7724   11.4867 H   0  0  0  0  0  0  0  0  0  0  0  0
   46.5817    5.0306   12.6465 H   0  0  0  0  0  0  0  0  0  0  0  0
   44.2231    8.4597   11.5695 H   0  0  0  0  0  0  0  0  0  0  0  0
   45.7268    9.9045   12.8891 H   0  0  0  0  0  0  0  0  0  0  0  0
   48.0821    6.4799   13.9656 H   0  0  0  0  0  0  0  0  0  0  0  0
   47.6609    8.9222   14.0957 H   0  0  0  0  0  0  0  0  0  0  0  0
  2  1  1  0
  3  1  1  0
  1  4  1  0
  3  5  1  0
  6  4  2  0
  7  4  1  0
  8  7  2  0
  9  6  1  0
 10  9  2  0
  3  2  1  0
  8 10  1  0
 12 11  1  0
 13 11  1  0
 11 14  1  0
 13 15  1  0
 16 14  2  0
 17 14  1  0
 18 17  2  0
 19 16  1  0
 20 19  2  0
 13 12  1  0
 18 20  1  0
  1 21  1  1
  2 22  1  0
  2 23  1  0
  3 24  1  6
  5 25  1  0
  5 26  1  0
  6 27  1  0
  7 28  1  0
  8 29  1  0
  9 30  1  0
 10 31  1  0
 11 32  1  6
 12 33  1  0
 12 34  1  0
 13 35  1  1
 15 36  1  0
 15 37  1  0
 16 38  1  0
 17 39  1  0
 18 40  1  0
 19 41  1  0
 20 42  1  0
M  END
> <Uni-Dock RESULT> 
ENERGY=   -6.284  LOWER_BOUND=    4.934  UPPER_BOUND=    6.238
INTER + INTRA:          -6.284
INTER:                  -6.284
INTRA:                   0.000
UNBOUND:                 0.000

$$$$

     RDKit          3D

 42 44  0  0  0  0  0  0  0  0999 V2000
   43.5790    5.3580   10.7235 C   0  0  1  0  0  0  0  0  0  0  0  0
   43.5617    5.3381   12.2351 C   0  0  0  0  0  0  0  0  0  0  0  0
   44.2728    6.4437   11.5194 C   0  0  2  0  0  0  0  0  0  0  0  0
   44.3959    4.3403    9.9622 C   0  0  0  0  0  0  0  0  0  0  0  0
   43.7156    7.7958   11.5562 N   0  0  0  0  0  0  0  0  0  0  0  0
   45.3386    4.7346    8.9987 C   0  0  0  0  0  0  0  0  0  0  0  0
   44.2190    2.9609   10.1657 C   0  0  0  0  0  0  0  0  0  0  0  0
   44.9630    2.0170    9.4525 C   0  0  0  0  0  0  0  0  0  0  0  0
   46.0856    3.7959    8.2818 C   0  0  0  0  0  0  0  0  0  0  0  0
   45.8979    2.4358    8.5110 C   0  0  0  0  0  0  0  0  0  0  0  0
   45.0259    5.2417   11.2999 C   0  0  2  0  0  0  0  0  0  0  0  0
   43.9712    5.3373   12.3783 C   0  0  0  0  0  0  0  0  0  0  0  0
   44.1253    6.4549   11.3952 C   0  0  1  0  0  0  0  0  0  0  0  0
   44.8591    4.2671   10.1576 C   0  0  0  0  0  0  0  0  0  0  0  0
   44.6846    7.7254   11.8566 N   0  0  0  0  0  0  0  0  0  0  0  0
   44.9610    4.6871    8.8206 C   0  0  0  0  0  0  0  0  0  0  0  0
   44.6304    2.9004   10.3888 C   0  0  0  0  0  0  0  0  0  0  0  0
   44.4889    1.9958    9.3328 C   0  0  0  0  0  0  0  0  0  0  0  0
   44.8205    3.7878    7.7601 C   0  0  0  0  0  0  0  0  0  0  0  0
   44.5820    2.4411    8.0175 C   0  0  0  0  0  0  0  0  0  0  0  0
   42.6391    5.6273   10.2460 H   0  0  0  0  0  0  0  0  0  0  0  0
   42.6259    5.5576   12.7352 H   0  0  0  0  0  0  0  0  0  0  0  0
   44.1747    4.6138   12.7603 H   0  0  0  0  0  0  0  0  0  0  0  0
   45.3600    6.4144   11.5691 H   0  0  0  0  0  0  0  0  0  0  0  0
   44.0202    8.3297   10.7429 H   0  0  0  0  0  0  0  0  0  0  0  0
   42.6973    7.7838   11.5178 H   0  0  0  0  0  0  0  0  0  0  0  0
   45.4954    5.7936    8.8036 H   0  0  0  0  0  0  0  0  0  0  0  0
   43.4889    2.6159   10.8946 H   0  0  0  0  0  0  0  0  0  0  0  0
   44.8093    0.9563    9.6335 H   0  0  0  0  0  0  0  0  0  0  0  0
   46.8123    4.1292    7.5454 H   0  0  0  0  0  0  0  0  0  0  0  0
   46.4777    1.7038    7.9552 H   0  0  0  0  0  0  0  0  0  0  0  0
   46.0521    5.3741   11.6373 H   0  0  0  0  0  0  0  0  0  0  0  0
   44.3108    5.4926   13.3961 H   0  0  0  0  0  0  0  0  0  0  0  0
   43.0830    4.7211   12.3018 H   0  0  0  0  0  0  0  0  0  0  0  0
   43.3362    6.5510   10.6515 H   0  0  0  0  0  0  0  0  0  0  0  0
   45.1012    8.2361   11.0784 H   0  0  0  0  0  0  0  0  0  0  0  0
   43.9481    8.3264   12.2248 H   0  0  0  0  0  0  0  0  0  0  0  0
   45.1561    5.7348    8.6023 H   0  0  0  0  0  0  0  0  0  0  0  0
   44.5638    2.5343   11.4110 H   0  0  0  0  0  0  0  0  0  0  0  0
   44.3100    0.9444    9.5408 H   0  0  0  0  0  0  0  0  0  0  0  0
   44.9007    4.1405    6.7356 H   0  0  0  0  0  0  0  0  0  0  0  0
   44.4738    1.7393    7.1950 H   0  0  0  0  0  0  0  0  0  0  0  0
  2  1  1  0
  3  1  1  0
  1  4  1  0
  3  5  1  0
  6  4  2  0
  7  4  1  0
  8  7  2  0
  9  6  1  0
 10  9  2  0
  3  2  1  0
  8 10  1  0
 12 11  1  0
 13 11  1  0
 11 14  1  0
 13 15  1  0
 16 14  2  0
 17 14  1  0
 18 17  2  0
 19 16  1  0
 20 19  2  0
 13 12  1  0
 18 20  1  0
  1 21  1  1
  2 22  1  0
  2 23  1  0
  3 24  1  6
  5 25  1  0
  5 26  1  0
  6 27  1  0
  7 28  1  0
  8 29  1  0
  9 30  1  0
 10 31  1  0
 11 32  1  6
 12 33  1  0
 12 34  1  0
 13 35  1  1
 15 36  1  0
 15 37  1  0
 16 38  1  0
 17 39  1  0
 18 40  1  0
 19 41  1  0
 20 42  1  0
M  END
> <Uni-Dock RESULT> 
ENERGY=   -5.969  LOWER_BOUND=    2.365  UPPER_BOUND=    3.830
INTER + INTRA:          -5.969
INTER:                  -5.969
INTRA:                   0.000
UNBOUND:                 0.000

$$$$

     RDKit          3D

 42 44  0  0  0  0  0  0  0  0999 V2000
   44.9134    6.4605   11.3019 C   0  0  1  0  0  0  0  0  0  0  0  0
   44.8284    4.9525   11.3696 C   0  0  0  0  0  0  0  0  0  0  0  0
   43.7955    5.7822   12.0660 C   0  0  2  0  0  0  0  0  0  0  0  0
   46.0040    7.1916   12.0493 C   0  0  0  0  0  0  0  0  0  0  0  0
   42.4287    5.8104   11.5450 N   0  0  0  0  0  0  0  0  0  0  0  0
   45.7041    8.2307   12.9454 C   0  0  0  0  0  0  0  0  0  0  0  0
   47.3605    6.8820   11.8505 C   0  0  0  0  0  0  0  0  0  0  0  0
   48.3721    7.5664   12.5295 C   0  0  0  0  0  0  0  0  0  0  0  0
   46.7108    8.9193   13.6275 C   0  0  0  0  0  0  0  0  0  0  0  0
   48.0461    8.5849   13.4197 C   0  0  0  0  0  0  0  0  0  0  0  0
   45.0307    5.9573   12.7758 C   0  0  2  0  0  0  0  0  0  0  0  0
   44.8309    4.8323   11.7864 C   0  0  0  0  0  0  0  0  0  0  0  0
   43.7887    5.8987   11.9120 C   0  0  1  0  0  0  0  0  0  0  0  0
   46.0766    7.0172   12.5208 C   0  0  0  0  0  0  0  0  0  0  0  0
   42.5057    5.5593   12.5275 N   0  0  0  0  0  0  0  0  0  0  0  0
   45.7530    8.3840   12.5573 C   0  0  0  0  0  0  0  0  0  0  0  0
   47.4171    6.6780   12.2722 C   0  0  0  0  0  0  0  0  0  0  0  0
   48.3881    7.6582   12.0491 C   0  0  0  0  0  0  0  0  0  0  0  0
   46.7191    9.3692   12.3351 C   0  0  0  0  0  0  0  0  0  0  0  0
   48.0374    9.0049   12.0785 C   0  0  0  0  0  0  0  0  0  0  0  0
   44.6511    6.9036   10.3434 H   0  0  0  0  0  0  0  0  0  0  0  0
   44.5483    4.4187   10.4692 H   0  0  0  0  0  0  0  0  0  0  0  0
   45.5318    4.4119   11.9934 H   0  0  0  0  0  0  0  0  0  0  0  0
   43.8521    5.7901   13.1532 H   0  0  0  0  0  0  0  0  0  0  0  0
   41.9611    6.6749   11.8162 H   0  0  0  0  0  0  0  0  0  0  0  0
   42.4145    5.7922   10.5262 H   0  0  0  0  0  0  0  0  0  0  0  0
   44.6659    8.5082   13.1168 H   0  0  0  0  0  0  0  0  0  0  0  0
   47.6335    6.0917   11.1545 H   0  0  0  0  0  0  0  0  0  0  0  0
   49.4130    7.3029   12.3604 H   0  0  0  0  0  0  0  0  0  0  0  0
   46.4500    9.7160   14.3194 H   0  0  0  0  0  0  0  0  0  0  0  0
   48.8308    9.1185   13.9491 H   0  0  0  0  0  0  0  0  0  0  0  0
   44.9044    5.6867   13.8224 H   0  0  0  0  0  0  0  0  0  0  0  0
   44.6153    3.8480   12.1867 H   0  0  0  0  0  0  0  0  0  0  0  0
   45.4254    4.8164   10.8804 H   0  0  0  0  0  0  0  0  0  0  0  0
   43.7218    6.6030   11.0847 H   0  0  0  0  0  0  0  0  0  0  0  0
   42.0620    6.3932   12.9118 H   0  0  0  0  0  0  0  0  0  0  0  0
   41.8601    5.1946   11.8279 H   0  0  0  0  0  0  0  0  0  0  0  0
   44.7289    8.6860   12.7654 H   0  0  0  0  0  0  0  0  0  0  0  0
   47.7097    5.6305   12.2545 H   0  0  0  0  0  0  0  0  0  0  0  0
   49.4171    7.3671   11.8565 H   0  0  0  0  0  0  0  0  0  0  0  0
   46.4404   10.4189   12.3658 H   0  0  0  0  0  0  0  0  0  0  0  0
   48.7910    9.7686   11.9069 H   0  0  0  0  0  0  0  0  0  0  0  0
  2  1  1  0
  3  1  1  0
  1  4  1  0
  3  5  1  0
  6  4  2  0
  7  4  1  0
  8  7  2  0
  9  6  1  0
 10  9  2  0
  3  2  1  0
  8 10  1  0
 12 11  1  0
 13 11  1  0
 11 14  1  0
 13 15  1  0
 16 14  2  0
 17 14  1  0
 18 17  2  0
 19 16  1  0
 20 19  2  0
 13 12  1  0
 18 20  1  0
  1 21  1  1
  2 22  1  0
  2 23  1  0
  3 24  1  6
  5 25  1  0
  5 26  1  0
  6 27  1  0
  7 28  1  0
  8 29  1  0
  9 30  1  0
 10 31  1  0
 11 32  1  6
 12 33  1  0
 12 34  1  0
 13 35  1  1
 15 36  1  0
 15 37  1  0
 16 38  1  0
 17 39  1  0
 18 40  1  0
 19 41  1  0
 20 42  1  0
M  END
> <Uni-Dock RESULT> 
ENERGY=   -5.582  LOWER_BOUND=    4.721  UPPER_BOUND=    6.706
INTER + INTRA:          -5.582
INTER:                  -5.582
INTRA:                   0.000
UNBOUND:                 0.000

$$$$

     RDKit          3D

 42 44  0  0  0  0  0  0  0  0999 V2000
   46.7627    6.1586   12.6988 C   0  0  1  0  0  0  0  0  0  0  0  0
   47.6097    7.1530   11.9375 C   0  0  0  0  0  0  0  0  0  0  0  0
   46.9505    7.5700   13.2150 C   0  0  2  0  0  0  0  0  0  0  0  0
   45.4232    5.7275   12.1489 C   0  0  0  0  0  0  0  0  0  0  0  0
   47.7738    7.8142   14.3994 N   0  0  0  0  0  0  0  0  0  0  0  0
   44.2527    5.8249   12.9190 C   0  0  0  0  0  0  0  0  0  0  0  0
   45.3038    5.1818   10.8592 C   0  0  0  0  0  0  0  0  0  0  0  0
   44.0683    4.7686   10.3534 C   0  0  0  0  0  0  0  0  0  0  0  0
   43.0142    5.4134   12.4194 C   0  0  0  0  0  0  0  0  0  0  0  0
   42.9228    4.8862   11.1342 C   0  0  0  0  0  0  0  0  0  0  0  0
   45.9122    7.3861   12.2413 C   0  0  2  0  0  0  0  0  0  0  0  0
   47.3665    7.5004   11.8458 C   0  0  0  0  0  0  0  0  0  0  0  0
   47.0008    7.4006   13.2934 C   0  0  1  0  0  0  0  0  0  0  0  0
   45.1473    6.1127   11.9659 C   0  0  0  0  0  0  0  0  0  0  0  0
   47.1586    8.5819   14.1417 N   0  0  0  0  0  0  0  0  0  0  0  0
   44.4384    5.4537   12.9844 C   0  0  0  0  0  0  0  0  0  0  0  0
   45.0875    5.5590   10.6761 C   0  0  0  0  0  0  0  0  0  0  0  0
   44.3694    4.3882   10.4176 C   0  0  0  0  0  0  0  0  0  0  0  0
   43.7183    4.2826   12.7327 C   0  0  0  0  0  0  0  0  0  0  0  0
   43.6862    3.7487   11.4480 C   0  0  0  0  0  0  0  0  0  0  0  0
   47.3102    5.3727   13.2151 H   0  0  0  0  0  0  0  0  0  0  0  0
   48.6829    7.0043   11.9287 H   0  0  0  0  0  0  0  0  0  0  0  0
   47.2234    7.5809   11.0188 H   0  0  0  0  0  0  0  0  0  0  0  0
   46.1144    8.2594   13.1106 H   0  0  0  0  0  0  0  0  0  0  0  0
   47.2265    7.6781   15.2488 H   0  0  0  0  0  0  0  0  0  0  0  0
   48.5507    7.1575   14.4589 H   0  0  0  0  0  0  0  0  0  0  0  0
   44.3063    6.2307   13.9273 H   0  0  0  0  0  0  0  0  0  0  0  0
   46.1900    5.0782   10.2368 H   0  0  0  0  0  0  0  0  0  0  0  0
   44.0040    4.3546    9.3504 H   0  0  0  0  0  0  0  0  0  0  0  0
   42.1233    5.5050   13.0353 H   0  0  0  0  0  0  0  0  0  0  0  0
   41.9609    4.5658   10.7432 H   0  0  0  0  0  0  0  0  0  0  0  0
   45.3273    8.2981   12.1386 H   0  0  0  0  0  0  0  0  0  0  0  0
   47.7057    8.4560   11.4622 H   0  0  0  0  0  0  0  0  0  0  0  0
   47.8573    6.6470   11.3927 H   0  0  0  0  0  0  0  0  0  0  0  0
   47.2352    6.4570   13.7828 H   0  0  0  0  0  0  0  0  0  0  0  0
   46.5365    8.5285   14.9480 H   0  0  0  0  0  0  0  0  0  0  0  0
   48.1045    8.6258   14.5192 H   0  0  0  0  0  0  0  0  0  0  0  0
   44.4458    5.8628   13.9923 H   0  0  0  0  0  0  0  0  0  0  0  0
   45.6084    6.0512    9.8577 H   0  0  0  0  0  0  0  0  0  0  0  0
   44.3424    3.9806    9.4107 H   0  0  0  0  0  0  0  0  0  0  0  0
   43.1818    3.7917   13.5400 H   0  0  0  0  0  0  0  0  0  0  0  0
   43.1260    2.8392   11.2489 H   0  0  0  0  0  0  0  0  0  0  0  0
  2  1  1  0
  3  1  1  0
  1  4  1  0
  3  5  1  0
  6  4  2  0
  7  4  1  0
  8  7  2  0
  9  6  1  0
 10  9  2  0
  3  2  1  0
  8 10  1  0
 12 11  1  0
 13 11  1  0
 11 14  1  0
 13 15  1  0
 16 14  2  0
 17 14  1  0
 18 17  2  0
 19 16  1  0
 20 19  2  0
 13 12  1  0
 18 20  1  0
  1 21  1  1
  2 22  1  0
  2 23  1  0
  3 24  1  6
  5 25  1  0
  5 26  1  0
  6 27  1  0
  7 28  1  0
  8 29  1  0
  9 30  1  0
 10 31  1  0
 11 32  1  6
 12 33  1  0
 12 34  1  0
 13 35  1  1
 15 36  1  0
 15 37  1  0
 16 38  1  0
 17 39  1  0
 18 40  1  0
 19 41  1  0
 20 42  1  0
M  END
> <Uni-Dock RESULT> 
ENERGY=   -5.568  LOWER_BOUND=    4.512  UPPER_BOUND=    6.152
INTER + INTRA:          -5.568
INTER:                  -5.568
INTRA:                   0.000
UNBOUND:                 0.000

$$$$

     RDKit          3D

 42 44  0  0  0  0  0  0  0  0999 V2000
   45.0198    7.0496   12.9675 C   0  0  1  0  0  0  0  0  0  0  0  0
   46.4248    7.5712   13.1667 C   0  0  0  0  0  0  0  0  0  0  0  0
   45.5116    8.2599   12.2012 C   0  0  2  0  0  0  0  0  0  0  0  0
   44.7930    5.7409   12.2476 C   0  0  0  0  0  0  0  0  0  0  0  0
   44.9988    9.5912   12.5253 N   0  0  0  0  0  0  0  0  0  0  0  0
   43.9273    5.6550   11.1450 C   0  0  0  0  0  0  0  0  0  0  0  0
   45.4135    4.5544   12.6752 C   0  0  0  0  0  0  0  0  0  0  0  0
   45.1941    3.3396   12.0202 C   0  0  0  0  0  0  0  0  0  0  0  0
   43.7034    4.4434   10.4857 C   0  0  0  0  0  0  0  0  0  0  0  0
   44.3394    3.2851   10.9237 C   0  0  0  0  0  0  0  0  0  0  0  0
   45.8379    6.9803   11.6388 C   0  0  2  0  0  0  0  0  0  0  0  0
   46.6271    7.5743   12.7829 C   0  0  0  0  0  0  0  0  0  0  0  0
   45.3677    8.2431   12.3291 C   0  0  1  0  0  0  0  0  0  0  0  0
   45.0770    5.6892   11.8296 C   0  0  0  0  0  0  0  0  0  0  0  0
   45.4648    9.5212   11.6241 N   0  0  0  0  0  0  0  0  0  0  0  0
   43.7143    5.5911   11.5014 C   0  0  0  0  0  0  0  0  0  0  0  0
   45.7101    4.5303   12.3090 C   0  0  0  0  0  0  0  0  0  0  0  0
   45.0101    3.3318   12.4736 C   0  0  0  0  0  0  0  0  0  0  0  0
   43.0085    4.3958   11.6636 C   0  0  0  0  0  0  0  0  0  0  0  0
   43.6574    3.2660   12.1524 C   0  0  0  0  0  0  0  0  0  0  0  0
   44.3280    7.2377   13.7859 H   0  0  0  0  0  0  0  0  0  0  0  0
   46.6566    8.0606   14.1052 H   0  0  0  0  0  0  0  0  0  0  0  0
   47.2578    7.0158   12.7497 H   0  0  0  0  0  0  0  0  0  0  0  0
   45.7515    8.1253   11.1479 H   0  0  0  0  0  0  0  0  0  0  0  0
   44.1176    9.7617   12.0417 H   0  0  0  0  0  0  0  0  0  0  0  0
   44.7949    9.6836   13.5194 H   0  0  0  0  0  0  0  0  0  0  0  0
   43.4185    6.5497   10.7916 H   0  0  0  0  0  0  0  0  0  0  0  0
   46.0811    4.5779   13.5337 H   0  0  0  0  0  0  0  0  0  0  0  0
   45.6910    2.4380   12.3691 H   0  0  0  0  0  0  0  0  0  0  0  0
   43.0322    4.4066    9.6315 H   0  0  0  0  0  0  0  0  0  0  0  0
   44.1674    2.3418   10.4126 H   0  0  0  0  0  0  0  0  0  0  0  0
   46.2800    7.1051   10.6522 H   0  0  0  0  0  0  0  0  0  0  0  0
   47.5760    8.0415   12.5450 H   0  0  0  0  0  0  0  0  0  0  0  0
   46.6121    7.0779   13.7461 H   0  0  0  0  0  0  0  0  0  0  0  0
   44.5126    8.1584   12.9974 H   0  0  0  0  0  0  0  0  0  0  0  0
   44.6429    9.6698   11.0389 H   0  0  0  0  0  0  0  0  0  0  0  0
   45.4804   10.2944   12.2882 H   0  0  0  0  0  0  0  0  0  0  0  0
   43.1942    6.4625   11.1097 H   0  0  0  0  0  0  0  0  0  0  0  0
   46.7689    4.5623   12.5563 H   0  0  0  0  0  0  0  0  0  0  0  0
   45.5246    2.4514   12.8489 H   0  0  0  0  0  0  0  0  0  0  0  0
   41.9542    4.3490   11.4049 H   0  0  0  0  0  0  0  0  0  0  0  0
   43.1117    2.3348   12.2781 H   0  0  0  0  0  0  0  0  0  0  0  0
  2  1  1  0
  3  1  1  0
  1  4  1  0
  3  5  1  0
  6  4  2  0
  7  4  1  0
  8  7  2  0
  9  6  1  0
 10  9  2  0
  3  2  1  0
  8 10  1  0
 12 11  1  0
 13 11  1  0
 11 14  1  0
 13 15  1  0
 16 14  2  0
 17 14  1  0
 18 17  2  0
 19 16  1  0
 20 19  2  0
 13 12  1  0
 18 20  1  0
  1 21  1  1
  2 22  1  0
  2 23  1  0
  3 24  1  6
  5 25  1  0
  5 26  1  0
  6 27  1  0
  7 28  1  0
  8 29  1  0
  9 30  1  0
 10 31  1  0
 11 32  1  6
 12 33  1  0
 12 34  1  0
 13 35  1  1
 15 36  1  0
 15 37  1  0
 16 38  1  0
 17 39  1  0
 18 40  1  0
 19 41  1  0
 20 42  1  0
M  END
> <Uni-Dock RESULT> 
ENERGY=   -5.474  LOWER_BOUND=    4.539  UPPER_BOUND=    6.063
INTER + INTRA:          -5.474
INTER:                  -5.474
INTRA:                   0.000
UNBOUND:                 0.000

$$$$

     RDKit          3D

 42 44  0  0  0  0  0  0  0  0999 V2000
   46.4242    6.7109   11.8260 C   0  0  1  0  0  0  0  0  0  0  0  0
   46.6152    7.9288   12.7012 C   0  0  0  0  0  0  0  0  0  0  0  0
   47.6475    6.8450   12.7088 C   0  0  2  0  0  0  0  0  0  0  0  0
   45.3569    5.6962   12.1632 C   0  0  0  0  0  0  0  0  0  0  0  0
   48.9584    7.1000   12.1117 N   0  0  0  0  0  0  0  0  0  0  0  0
   45.6641    4.3327   12.3017 C   0  0  0  0  0  0  0  0  0  0  0  0
   44.0119    6.0738   12.3176 C   0  0  0  0  0  0  0  0  0  0  0  0
   43.0202    5.1352   12.6152 C   0  0  0  0  0  0  0  0  0  0  0  0
   44.6772    3.3889   12.5990 C   0  0  0  0  0  0  0  0  0  0  0  0
   43.3542    3.7920   12.7573 C   0  0  0  0  0  0  0  0  0  0  0  0
   46.4702    6.3153   13.3362 C   0  0  2  0  0  0  0  0  0  0  0  0
   46.6572    7.7984   13.1128 C   0  0  0  0  0  0  0  0  0  0  0  0
   47.6330    6.8331   12.5165 C   0  0  1  0  0  0  0  0  0  0  0  0
   45.3376    5.5810   12.6576 C   0  0  0  0  0  0  0  0  0  0  0  0
   48.9847    6.7660   13.0719 N   0  0  0  0  0  0  0  0  0  0  0  0
   45.5712    4.4201   11.9014 C   0  0  0  0  0  0  0  0  0  0  0  0
   44.0061    6.0107   12.7852 C   0  0  0  0  0  0  0  0  0  0  0  0
   42.9561    5.3247   12.1686 C   0  0  0  0  0  0  0  0  0  0  0  0
   44.5258    3.7294   11.2822 C   0  0  0  0  0  0  0  0  0  0  0  0
   43.2174    4.1843   11.4147 C   0  0  0  0  0  0  0  0  0  0  0  0
   46.5714    6.8703   10.7598 H   0  0  0  0  0  0  0  0  0  0  0  0
   46.8504    8.8697   12.2179 H   0  0  0  0  0  0  0  0  0  0  0  0
   46.0068    8.0390   13.5922 H   0  0  0  0  0  0  0  0  0  0  0  0
   47.6859    6.2372   13.6113 H   0  0  0  0  0  0  0  0  0  0  0  0
   49.3892    6.2266   11.8100 H   0  0  0  0  0  0  0  0  0  0  0  0
   48.8846    7.6788   11.2762 H   0  0  0  0  0  0  0  0  0  0  0  0
   46.6924    3.9992   12.1772 H   0  0  0  0  0  0  0  0  0  0  0  0
   43.7323    7.1191   12.2053 H   0  0  0  0  0  0  0  0  0  0  0  0
   41.9884    5.4557   12.7342 H   0  0  0  0  0  0  0  0  0  0  0  0
   44.9438    2.3406   12.7058 H   0  0  0  0  0  0  0  0  0  0  0  0
   42.5850    3.0603   12.9888 H   0  0  0  0  0  0  0  0  0  0  0  0
   46.7054    5.9606   14.3379 H   0  0  0  0  0  0  0  0  0  0  0  0
   46.9722    8.3951   13.9614 H   0  0  0  0  0  0  0  0  0  0  0  0
   45.9881    8.3171   12.4364 H   0  0  0  0  0  0  0  0  0  0  0  0
   47.5800    6.7038   11.4370 H   0  0  0  0  0  0  0  0  0  0  0  0
   49.4036    5.8556   12.8833 H   0  0  0  0  0  0  0  0  0  0  0  0
   49.5894    7.4523   12.6218 H   0  0  0  0  0  0  0  0  0  0  0  0
   46.5872    4.0461   11.7954 H   0  0  0  0  0  0  0  0  0  0  0  0
   43.7837    6.8951   13.3782 H   0  0  0  0  0  0  0  0  0  0  0  0
   41.9359    5.6811   12.2820 H   0  0  0  0  0  0  0  0  0  0  0  0
   44.7355    2.8361   10.7004 H   0  0  0  0  0  0  0  0  0  0  0  0
   42.4024    3.6486   10.9357 H   0  0  0  0  0  0  0  0  0  0  0  0
  2  1  1  0
  3  1  1  0
  1  4  1  0
  3  5  1  0
  6  4  2  0
  7  4  1  0
  8  7  2  0
  9  6  1  0
 10  9  2  0
  3  2  1  0
  8 10  1  0
 12 11  1  0
 13 11  1  0
 11 14  1  0
 13 15  1  0
 16 14  2  0
 17 14  1  0
 18 17  2  0
 19 16  1  0
 20 19  2  0
 13 12  1  0
 18 20  1  0
  1 21  1  1
  2 22  1  0
  2 23  1  0
  3 24  1  6
  5 25  1  0
  5 26  1  0
  6 27  1  0
  7 28  1  0
  8 29  1  0
  9 30  1  0
 10 31  1  0
 11 32  1  6
 12 33  1  0
 12 34  1  0
 13 35  1  1
 15 36  1  0
 15 37  1  0
 16 38  1  0
 17 39  1  0
 18 40  1  0
 19 41  1  0
 20 42  1  0
M  END
> <Uni-Dock RESULT> 
ENERGY=   -5.317  LOWER_BOUND=    4.746  UPPER_BOUND=    6.297
INTER + INTRA:          -5.317
INTER:                  -5.317
INTRA:                   0.000
UNBOUND:                 0.000

$$$$
