
     RDKit          3D

 42 44  0  0  0  0  0  0  0  0999 V2000
   44.5037    3.0907    8.8745 C   0  0  1  0  0  0  0  0  0  0  0  0
   44.4764    2.7071   10.3369 C   0  0  0  0  0  0  0  0  0  0  0  0
   44.5489    4.1524    9.9538 C   0  0  2  0  0  0  0  0  0  0  0  0
   45.7320    2.8125    8.0402 C   0  0  0  0  0  0  0  0  0  0  0  0
   43.3901    5.0182   10.1722 N   0  0  0  0  0  0  0  0  0  0  0  0
   46.2788    1.5218    7.9472 C   0  0  0  0  0  0  0  0  0  0  0  0
   46.3531    3.8318    7.2993 C   0  0  0  0  0  0  0  0  0  0  0  0
   47.4815    3.5796    6.5145 C   0  0  0  0  0  0  0  0  0  0  0  0
   47.4068    1.2625    7.1640 C   0  0  0  0  0  0  0  0  0  0  0  0
   48.0093    2.2935    6.4489 C   0  0  0  0  0  0  0  0  0  0  0  0
   44.6864    3.7475    8.8648 C   0  0  2  0  0  0  0  0  0  0  0  0
   45.1283    5.0221    9.5473 C   0  0  0  0  0  0  0  0  0  0  0  0
   44.8447    3.8044   10.3701 C   0  0  1  0  0  0  0  0  0  0  0  0
   45.6672    2.9573    8.0306 C   0  0  0  0  0  0  0  0  0  0  0  0
   43.6635    3.7802   11.2326 N   0  0  0  0  0  0  0  0  0  0  0  0
   46.3587    3.5498    6.9607 C   0  0  0  0  0  0  0  0  0  0  0  0
   45.8990    1.5930    8.2724 C   0  0  0  0  0  0  0  0  0  0  0  0
   46.7944    0.8558    7.4926 C   0  0  0  0  0  0  0  0  0  0  0  0
   47.2551    2.8183    6.1769 C   0  0  0  0  0  0  0  0  0  0  0  0
   47.4738    1.4703    6.4450 C   0  0  0  0  0  0  0  0  0  0  0  0
   43.5629    2.9867    8.3379 H   0  0  0  0  0  0  0  0  0  0  0  0
   45.3625    2.2653   10.7790 H   0  0  0  0  0  0  0  0  0  0  0  0
   43.5492    2.3117   10.7335 H   0  0  0  0  0  0  0  0  0  0  0  0
   45.5044    4.6472   10.1200 H   0  0  0  0  0  0  0  0  0  0  0  0
   43.3730    5.3555   11.1343 H   0  0  0  0  0  0  0  0  0  0  0  0
   42.5149    4.5140   10.0367 H   0  0  0  0  0  0  0  0  0  0  0  0
   45.8163    0.7030    8.4943 H   0  0  0  0  0  0  0  0  0  0  0  0
   45.9477    4.8416    7.3356 H   0  0  0  0  0  0  0  0  0  0  0  0
   47.9432    4.3881    5.9543 H   0  0  0  0  0  0  0  0  0  0  0  0
   47.8113    0.2553    7.1124 H   0  0  0  0  0  0  0  0  0  0  0  0
   48.8860    2.0945    5.8386 H   0  0  0  0  0  0  0  0  0  0  0  0
   43.6686    3.7490    8.4803 H   0  0  0  0  0  0  0  0  0  0  0  0
   46.1638    5.3331    9.4637 H   0  0  0  0  0  0  0  0  0  0  0  0
   44.4287    5.8487    9.5809 H   0  0  0  0  0  0  0  0  0  0  0  0
   45.7151    3.3143   10.8032 H   0  0  0  0  0  0  0  0  0  0  0  0
   43.3515    2.8215   11.3843 H   0  0  0  0  0  0  0  0  0  0  0  0
   42.8768    4.2669   10.8053 H   0  0  0  0  0  0  0  0  0  0  0  0
   46.1958    4.6014    6.7338 H   0  0  0  0  0  0  0  0  0  0  0  0
   45.3729    1.0950    9.0841 H   0  0  0  0  0  0  0  0  0  0  0  0
   46.9580   -0.1975    7.7044 H   0  0  0  0  0  0  0  0  0  0  0  0
   47.7796    3.3028    5.3577 H   0  0  0  0  0  0  0  0  0  0  0  0
   48.1704    0.8992    5.8371 H   0  0  0  0  0  0  0  0  0  0  0  0
  2  1  1  0
  3  1  1  0
  1  4  1  0
  3  5  1  0
  6  4  2  0
  7  4  1  0
  8  7  2  0
  9  6  1  0
 10  9  2  0
  3  2  1  0
  8 10  1  0
 12 11  1  0
 13 11  1  0
 11 14  1  0
 13 15  1  0
 16 14  2  0
 17 14  1  0
 18 17  2  0
 19 16  1  0
 20 19  2  0
 13 12  1  0
 18 20  1  0
  1 21  1  1
  2 22  1  0
  2 23  1  0
  3 24  1  6
  5 25  1  0
  5 26  1  0
  6 27  1  0
  7 28  1  0
  8 29  1  0
  9 30  1  0
 10 31  1  0
 11 32  1  1
 12 33  1  0
 12 34  1  0
 13 35  1  6
 15 36  1  0
 15 37  1  0
 16 38  1  0
 17 39  1  0
 18 40  1  0
 19 41  1  0
 20 42  1  0
M  END
> <Uni-Dock RESULT> 
ENERGY=  -11.826  LOWER_BOUND=    0.000  UPPER_BOUND=    0.000
INTER + INTRA:         -11.826
INTER:                 -11.826
INTRA:                   0.000
UNBOUND:                 0.000

$$$$

     RDKit          3D

 42 44  0  0  0  0  0  0  0  0999 V2000
   46.0954    3.0686    6.9289 C   0  0  1  0  0  0  0  0  0  0  0  0
   47.4882    3.5387    6.5745 C   0  0  0  0  0  0  0  0  0  0  0  0
   47.2224    2.0747    6.7384 C   0  0  2  0  0  0  0  0  0  0  0  0
   45.5386    3.3198    8.3106 C   0  0  0  0  0  0  0  0  0  0  0  0
   47.2322    1.2014    5.5649 N   0  0  0  0  0  0  0  0  0  0  0  0
   45.4883    4.6130    8.8573 C   0  0  0  0  0  0  0  0  0  0  0  0
   45.0197    2.2700    9.0867 C   0  0  0  0  0  0  0  0  0  0  0  0
   44.4906    2.4965   10.3601 C   0  0  0  0  0  0  0  0  0  0  0  0
   44.9603    4.8464   10.1300 C   0  0  0  0  0  0  0  0  0  0  0  0
   44.4630    3.7862   10.8822 C   0  0  0  0  0  0  0  0  0  0  0  0
   46.1678    2.4160    7.1127 C   0  0  2  0  0  0  0  0  0  0  0  0
   47.0100    1.1935    7.3986 C   0  0  0  0  0  0  0  0  0  0  0  0
   47.6712    2.4528    6.9322 C   0  0  1  0  0  0  0  0  0  0  0  0
   45.5241    3.1735    8.2504 C   0  0  0  0  0  0  0  0  0  0  0  0
   48.2468    2.5058    5.5884 N   0  0  0  0  0  0  0  0  0  0  0  0
   44.6737    2.5312    9.1660 C   0  0  0  0  0  0  0  0  0  0  0  0
   45.7250    4.5541    8.4150 C   0  0  0  0  0  0  0  0  0  0  0  0
   45.1186    5.2603    9.4575 C   0  0  0  0  0  0  0  0  0  0  0  0
   44.0640    3.2316   10.2104 C   0  0  0  0  0  0  0  0  0  0  0  0
   44.2886    4.5972   10.3565 C   0  0  0  0  0  0  0  0  0  0  0  0
   45.3579    3.1219    6.1307 H   0  0  0  0  0  0  0  0  0  0  0  0
   48.0873    4.0233    7.3375 H   0  0  0  0  0  0  0  0  0  0  0  0
   47.6435    3.9393    5.5801 H   0  0  0  0  0  0  0  0  0  0  0  0
   47.6272    1.6094    7.6356 H   0  0  0  0  0  0  0  0  0  0  0  0
   48.1857    0.9221    5.3358 H   0  0  0  0  0  0  0  0  0  0  0  0
   46.8744    1.6794    4.7391 H   0  0  0  0  0  0  0  0  0  0  0  0
   45.8666    5.4540    8.2801 H   0  0  0  0  0  0  0  0  0  0  0  0
   45.0285    1.2566    8.6889 H   0  0  0  0  0  0  0  0  0  0  0  0
   44.0987    1.6648   10.9394 H   0  0  0  0  0  0  0  0  0  0  0  0
   44.9366    5.8564   10.5303 H   0  0  0  0  0  0  0  0  0  0  0  0
   44.0512    3.9651   11.8717 H   0  0  0  0  0  0  0  0  0  0  0  0
   45.5679    2.3718    6.2062 H   0  0  0  0  0  0  0  0  0  0  0  0
   47.1781    0.8981    8.4284 H   0  0  0  0  0  0  0  0  0  0  0  0
   46.9395    0.3570    6.7136 H   0  0  0  0  0  0  0  0  0  0  0  0
   48.2550    2.9846    7.6816 H   0  0  0  0  0  0  0  0  0  0  0  0
   48.2649    3.4657    5.2452 H   0  0  0  0  0  0  0  0  0  0  0  0
   47.6870    1.9793    4.9193 H   0  0  0  0  0  0  0  0  0  0  0  0
   44.4829    1.4650    9.0634 H   0  0  0  0  0  0  0  0  0  0  0  0
   46.3668    5.0897    7.7186 H   0  0  0  0  0  0  0  0  0  0  0  0
   45.2947    6.3274    9.5641 H   0  0  0  0  0  0  0  0  0  0  0  0
   43.4137    2.7089   10.9068 H   0  0  0  0  0  0  0  0  0  0  0  0
   43.8158    5.1441   11.1679 H   0  0  0  0  0  0  0  0  0  0  0  0
  2  1  1  0
  3  1  1  0
  1  4  1  0
  3  5  1  0
  6  4  2  0
  7  4  1  0
  8  7  2  0
  9  6  1  0
 10  9  2  0
  3  2  1  0
  8 10  1  0
 12 11  1  0
 13 11  1  0
 11 14  1  0
 13 15  1  0
 16 14  2  0
 17 14  1  0
 18 17  2  0
 19 16  1  0
 20 19  2  0
 13 12  1  0
 18 20  1  0
  1 21  1  1
  2 22  1  0
  2 23  1  0
  3 24  1  6
  5 25  1  0
  5 26  1  0
  6 27  1  0
  7 28  1  0
  8 29  1  0
  9 30  1  0
 10 31  1  0
 11 32  1  1
 12 33  1  0
 12 34  1  0
 13 35  1  6
 15 36  1  0
 15 37  1  0
 16 38  1  0
 17 39  1  0
 18 40  1  0
 19 41  1  0
 20 42  1  0
M  END
> <Uni-Dock RESULT> 
ENERGY=   -9.118  LOWER_BOUND=    2.355  UPPER_BOUND=    4.582
INTER + INTRA:          -9.118
INTER:                  -9.118
INTRA:                   0.000
UNBOUND:                 0.000

$$$$
