
     RDKit          3D

 42 44  0  0  0  0  0  0  0  0999 V2000
   44.5716    2.8547    9.0301 C   0  0  1  0  0  0  0  0  0  0  0  0
   45.0992    3.4860    7.7624 C   0  0  0  0  0  0  0  0  0  0  0  0
   45.9694    2.5472    8.5372 C   0  0  2  0  0  0  0  0  0  0  0  0
   44.3765    3.6926   10.2717 C   0  0  0  0  0  0  0  0  0  0  0  0
   46.2547    1.2273    7.9753 N   0  0  0  0  0  0  0  0  0  0  0  0
   43.6060    4.8671   10.2488 C   0  0  0  0  0  0  0  0  0  0  0  0
   44.9318    3.3095   11.5041 C   0  0  0  0  0  0  0  0  0  0  0  0
   44.7432    4.0737   12.6588 C   0  0  0  0  0  0  0  0  0  0  0  0
   43.4136    5.6363   11.3996 C   0  0  0  0  0  0  0  0  0  0  0  0
   43.9850    5.2395   12.6050 C   0  0  0  0  0  0  0  0  0  0  0  0
   44.6459    3.1930    8.8583 C   0  0  2  0  0  0  0  0  0  0  0  0
   45.3674    1.8932    8.5836 C   0  0  0  0  0  0  0  0  0  0  0  0
   46.0305    3.1915    8.2444 C   0  0  1  0  0  0  0  0  0  0  0  0
   44.4497    3.6633   10.2805 C   0  0  0  0  0  0  0  0  0  0  0  0
   46.2102    3.5601    6.8402 N   0  0  0  0  0  0  0  0  0  0  0  0
   44.8644    4.9414   10.6910 C   0  0  0  0  0  0  0  0  0  0  0  0
   43.8151    2.8528   11.2366 C   0  0  0  0  0  0  0  0  0  0  0  0
   43.6174    3.2908   12.5488 C   0  0  0  0  0  0  0  0  0  0  0  0
   44.6695    5.3855   12.0016 C   0  0  0  0  0  0  0  0  0  0  0  0
   44.0465    4.5582   12.9311 C   0  0  0  0  0  0  0  0  0  0  0  0
   43.8288    2.0714    8.8898 H   0  0  0  0  0  0  0  0  0  0  0  0
   45.3673    4.5360    7.7691 H   0  0  0  0  0  0  0  0  0  0  0  0
   44.6782    3.1464    6.8230 H   0  0  0  0  0  0  0  0  0  0  0  0
   46.8004    2.9993    9.0758 H   0  0  0  0  0  0  0  0  0  0  0  0
   47.0525    1.2726    7.3419 H   0  0  0  0  0  0  0  0  0  0  0  0
   46.5154    0.5726    8.7122 H   0  0  0  0  0  0  0  0  0  0  0  0
   43.1457    5.1870    9.3162 H   0  0  0  0  0  0  0  0  0  0  0  0
   45.5200    2.3963   11.5651 H   0  0  0  0  0  0  0  0  0  0  0  0
   45.1861    3.7550   13.5985 H   0  0  0  0  0  0  0  0  0  0  0  0
   42.8151    6.5420   11.3522 H   0  0  0  0  0  0  0  0  0  0  0  0
   43.8355    5.8350   13.5015 H   0  0  0  0  0  0  0  0  0  0  0  0
   43.8164    3.4200    8.1918 H   0  0  0  0  0  0  0  0  0  0  0  0
   45.7769    1.3312    9.4157 H   0  0  0  0  0  0  0  0  0  0  0  0
   45.0000    1.2692    7.7778 H   0  0  0  0  0  0  0  0  0  0  0  0
   46.8647    3.4762    8.8836 H   0  0  0  0  0  0  0  0  0  0  0  0
   46.2613    4.5736    6.7408 H   0  0  0  0  0  0  0  0  0  0  0  0
   45.4195    3.2624    6.2702 H   0  0  0  0  0  0  0  0  0  0  0  0
   45.3487    5.6034    9.9763 H   0  0  0  0  0  0  0  0  0  0  0  0
   43.4685    1.8610   10.9532 H   0  0  0  0  0  0  0  0  0  0  0  0
   43.1266    2.6416   13.2689 H   0  0  0  0  0  0  0  0  0  0  0  0
   45.0033    6.3778   12.2931 H   0  0  0  0  0  0  0  0  0  0  0  0
   43.8937    4.9013   13.9508 H   0  0  0  0  0  0  0  0  0  0  0  0
  2  1  1  0
  3  1  1  0
  1  4  1  0
  3  5  1  0
  6  4  2  0
  7  4  1  0
  8  7  2  0
  9  6  1  0
 10  9  2  0
  3  2  1  0
  8 10  1  0
 12 11  1  0
 13 11  1  0
 11 14  1  0
 13 15  1  0
 16 14  2  0
 17 14  1  0
 18 17  2  0
 19 16  1  0
 20 19  2  0
 13 12  1  0
 18 20  1  0
  1 21  1  6
  2 22  1  0
  2 23  1  0
  3 24  1  1
  5 25  1  0
  5 26  1  0
  6 27  1  0
  7 28  1  0
  8 29  1  0
  9 30  1  0
 10 31  1  0
 11 32  1  6
 12 33  1  0
 12 34  1  0
 13 35  1  1
 15 36  1  0
 15 37  1  0
 16 38  1  0
 17 39  1  0
 18 40  1  0
 19 41  1  0
 20 42  1  0
M  END
> <Uni-Dock RESULT> 
ENERGY=   -7.356  LOWER_BOUND=    0.000  UPPER_BOUND=    0.000
INTER + INTRA:          -7.356
INTER:                  -7.356
INTRA:                   0.000
UNBOUND:                 0.000

$$$$

     RDKit          3D

 42 44  0  0  0  0  0  0  0  0999 V2000
   44.6522    3.2194    8.6070 C   0  0  1  0  0  0  0  0  0  0  0  0
   44.4142    2.6653    9.9927 C   0  0  0  0  0  0  0  0  0  0  0  0
   44.9150    4.0664    9.8338 C   0  0  2  0  0  0  0  0  0  0  0  0
   45.8087    2.7158    7.7758 C   0  0  0  0  0  0  0  0  0  0  0  0
   44.0125    5.1749   10.1434 N   0  0  0  0  0  0  0  0  0  0  0  0
   45.9850    1.3455    7.5209 C   0  0  0  0  0  0  0  0  0  0  0  0
   46.7325    3.6033    7.1989 C   0  0  0  0  0  0  0  0  0  0  0  0
   47.7963    3.1438    6.4179 C   0  0  0  0  0  0  0  0  0  0  0  0
   47.0469    0.8791    6.7412 C   0  0  0  0  0  0  0  0  0  0  0  0
   47.9543    1.7798    6.1913 C   0  0  0  0  0  0  0  0  0  0  0  0
   44.7518    2.9359    8.8503 C   0  0  2  0  0  0  0  0  0  0  0  0
   44.2857    4.3156    9.2558 C   0  0  0  0  0  0  0  0  0  0  0  0
   45.0844    3.4937   10.2186 C   0  0  1  0  0  0  0  0  0  0  0  0
   45.8388    2.7792    7.8129 C   0  0  0  0  0  0  0  0  0  0  0  0
   44.4328    2.9498   11.4101 N   0  0  0  0  0  0  0  0  0  0  0  0
   46.9943    2.0239    8.0740 C   0  0  0  0  0  0  0  0  0  0  0  0
   45.7188    3.3550    6.5370 C   0  0  0  0  0  0  0  0  0  0  0  0
   46.7149    3.1986    5.5694 C   0  0  0  0  0  0  0  0  0  0  0  0
   47.9939    1.8635    7.1107 C   0  0  0  0  0  0  0  0  0  0  0  0
   47.8539    2.4530    5.8579 C   0  0  0  0  0  0  0  0  0  0  0  0
   43.7560    3.4612    8.0384 H   0  0  0  0  0  0  0  0  0  0  0  0
   45.1038    1.9307   10.3917 H   0  0  0  0  0  0  0  0  0  0  0  0
   43.3857    2.5143   10.3000 H   0  0  0  0  0  0  0  0  0  0  0  0
   45.9538    4.2374   10.1103 H   0  0  0  0  0  0  0  0  0  0  0  0
   44.0411    5.3925   11.1391 H   0  0  0  0  0  0  0  0  0  0  0  0
   44.3072    6.0229    9.6599 H   0  0  0  0  0  0  0  0  0  0  0  0
   45.2800    0.6288    7.9367 H   0  0  0  0  0  0  0  0  0  0  0  0
   46.6183    4.6733    7.3592 H   0  0  0  0  0  0  0  0  0  0  0  0
   48.4974    3.8525    5.9856 H   0  0  0  0  0  0  0  0  0  0  0  0
   47.1607   -0.1868    6.5626 H   0  0  0  0  0  0  0  0  0  0  0  0
   48.7797    1.4197    5.5833 H   0  0  0  0  0  0  0  0  0  0  0  0
   43.9783    2.1718    8.8091 H   0  0  0  0  0  0  0  0  0  0  0  0
   44.7715    5.1842    8.8252 H   0  0  0  0  0  0  0  0  0  0  0  0
   43.2285    4.4593    9.4446 H   0  0  0  0  0  0  0  0  0  0  0  0
   46.1058    3.8290   10.3907 H   0  0  0  0  0  0  0  0  0  0  0  0
   44.9163    2.1109   11.7298 H   0  0  0  0  0  0  0  0  0  0  0  0
   43.4742    2.6636   11.2157 H   0  0  0  0  0  0  0  0  0  0  0  0
   47.1182    1.5519    9.0463 H   0  0  0  0  0  0  0  0  0  0  0  0
   44.8323    3.9368    6.2927 H   0  0  0  0  0  0  0  0  0  0  0  0
   46.5977    3.6580    4.5915 H   0  0  0  0  0  0  0  0  0  0  0  0
   48.8794    1.2768    7.3406 H   0  0  0  0  0  0  0  0  0  0  0  0
   48.6297    2.3295    5.1071 H   0  0  0  0  0  0  0  0  0  0  0  0
  2  1  1  0
  3  1  1  0
  1  4  1  0
  3  5  1  0
  6  4  2  0
  7  4  1  0
  8  7  2  0
  9  6  1  0
 10  9  2  0
  3  2  1  0
  8 10  1  0
 12 11  1  0
 13 11  1  0
 11 14  1  0
 13 15  1  0
 16 14  2  0
 17 14  1  0
 18 17  2  0
 19 16  1  0
 20 19  2  0
 13 12  1  0
 18 20  1  0
  1 21  1  6
  2 22  1  0
  2 23  1  0
  3 24  1  1
  5 25  1  0
  5 26  1  0
  6 27  1  0
  7 28  1  0
  8 29  1  0
  9 30  1  0
 10 31  1  0
 11 32  1  6
 12 33  1  0
 12 34  1  0
 13 35  1  1
 15 36  1  0
 15 37  1  0
 16 38  1  0
 17 39  1  0
 18 40  1  0
 19 41  1  0
 20 42  1  0
M  END
> <Uni-Dock RESULT> 
ENERGY=   -7.295  LOWER_BOUND=    2.181  UPPER_BOUND=    5.173
INTER + INTRA:          -7.295
INTER:                  -7.295
INTRA:                   0.000
UNBOUND:                 0.000

$$$$

     RDKit          3D

 42 44  0  0  0  0  0  0  0  0999 V2000
   45.4067    3.7559    9.5604 C   0  0  1  0  0  0  0  0  0  0  0  0
   45.4694    2.2723    9.2796 C   0  0  0  0  0  0  0  0  0  0  0  0
   44.7435    3.1732    8.3307 C   0  0  2  0  0  0  0  0  0  0  0  0
   44.5611    4.2787   10.6977 C   0  0  0  0  0  0  0  0  0  0  0  0
   45.3295    3.4270    7.0149 N   0  0  0  0  0  0  0  0  0  0  0  0
   44.7130    3.7920   12.0068 C   0  0  0  0  0  0  0  0  0  0  0  0
   43.6136    5.2958   10.4936 C   0  0  0  0  0  0  0  0  0  0  0  0
   42.8382    5.7927   11.5447 C   0  0  0  0  0  0  0  0  0  0  0  0
   43.9406    4.2840   13.0624 C   0  0  0  0  0  0  0  0  0  0  0  0
   43.0009    5.2839   12.8298 C   0  0  0  0  0  0  0  0  0  0  0  0
   45.3188    3.4078    9.7040 C   0  0  2  0  0  0  0  0  0  0  0  0
   45.4132    3.7516    8.2349 C   0  0  0  0  0  0  0  0  0  0  0  0
   44.6176    2.5587    8.6642 C   0  0  1  0  0  0  0  0  0  0  0  0
   44.5123    4.2824   10.6352 C   0  0  0  0  0  0  0  0  0  0  0  0
   45.1138    1.2172    8.3574 N   0  0  0  0  0  0  0  0  0  0  0  0
   43.5003    3.7452   11.4483 C   0  0  0  0  0  0  0  0  0  0  0  0
   44.7672    5.6595   10.7471 C   0  0  0  0  0  0  0  0  0  0  0  0
   44.0341    6.4686   11.6193 C   0  0  0  0  0  0  0  0  0  0  0  0
   42.7637    4.5488   12.3227 C   0  0  0  0  0  0  0  0  0  0  0  0
   43.0306    5.9120   12.4066 C   0  0  0  0  0  0  0  0  0  0  0  0
   46.3322    4.3041    9.3937 H   0  0  0  0  0  0  0  0  0  0  0  0
   44.8732    1.5968    9.8818 H   0  0  0  0  0  0  0  0  0  0  0  0
   46.4254    1.8617    8.9757 H   0  0  0  0  0  0  0  0  0  0  0  0
   43.6576    3.0986    8.3361 H   0  0  0  0  0  0  0  0  0  0  0  0
   45.0613    2.6962    6.3565 H   0  0  0  0  0  0  0  0  0  0  0  0
   44.9752    4.3009    6.6272 H   0  0  0  0  0  0  0  0  0  0  0  0
   45.4487    3.0160   12.2072 H   0  0  0  0  0  0  0  0  0  0  0  0
   43.4801    5.7104    9.4967 H   0  0  0  0  0  0  0  0  0  0  0  0
   42.1111    6.5783   11.3580 H   0  0  0  0  0  0  0  0  0  0  0  0
   44.0772    3.8871   14.0648 H   0  0  0  0  0  0  0  0  0  0  0  0
   42.4004    5.6693   13.6493 H   0  0  0  0  0  0  0  0  0  0  0  0
   46.2204    2.9909   10.1480 H   0  0  0  0  0  0  0  0  0  0  0  0
   44.8608    4.6045    7.8562 H   0  0  0  0  0  0  0  0  0  0  0  0
   46.3622    3.5937    7.7366 H   0  0  0  0  0  0  0  0  0  0  0  0
   43.5366    2.6574    8.5795 H   0  0  0  0  0  0  0  0  0  0  0  0
   44.7518    0.5405    9.0288 H   0  0  0  0  0  0  0  0  0  0  0  0
   46.1291    1.1673    8.4294 H   0  0  0  0  0  0  0  0  0  0  0  0
   43.2814    2.6806   11.3994 H   0  0  0  0  0  0  0  0  0  0  0  0
   45.5519    6.1102   10.1428 H   0  0  0  0  0  0  0  0  0  0  0  0
   44.2501    7.5317   11.6833 H   0  0  0  0  0  0  0  0  0  0  0  0
   41.9839    4.1076   12.9378 H   0  0  0  0  0  0  0  0  0  0  0  0
   42.4593    6.5390   13.0859 H   0  0  0  0  0  0  0  0  0  0  0  0
  2  1  1  0
  3  1  1  0
  1  4  1  0
  3  5  1  0
  6  4  2  0
  7  4  1  0
  8  7  2  0
  9  6  1  0
 10  9  2  0
  3  2  1  0
  8 10  1  0
 12 11  1  0
 13 11  1  0
 11 14  1  0
 13 15  1  0
 16 14  2  0
 17 14  1  0
 18 17  2  0
 19 16  1  0
 20 19  2  0
 13 12  1  0
 18 20  1  0
  1 21  1  6
  2 22  1  0
  2 23  1  0
  3 24  1  1
  5 25  1  0
  5 26  1  0
  6 27  1  0
  7 28  1  0
  8 29  1  0
  9 30  1  0
 10 31  1  0
 11 32  1  6
 12 33  1  0
 12 34  1  0
 13 35  1  1
 15 36  1  0
 15 37  1  0
 16 38  1  0
 17 39  1  0
 18 40  1  0
 19 41  1  0
 20 42  1  0
M  END
> <Uni-Dock RESULT> 
ENERGY=   -5.940  LOWER_BOUND=    0.880  UPPER_BOUND=    2.112
INTER + INTRA:          -5.940
INTER:                  -5.940
INTRA:                   0.000
UNBOUND:                 0.000

$$$$

     RDKit          3D

 42 44  0  0  0  0  0  0  0  0999 V2000
   44.3700    5.1547   11.4314 C   0  0  1  0  0  0  0  0  0  0  0  0
   43.8034    6.5533   11.3492 C   0  0  0  0  0  0  0  0  0  0  0  0
   42.9179    5.4213   11.7658 C   0  0  2  0  0  0  0  0  0  0  0  0
   44.7286    4.4051   10.1698 C   0  0  0  0  0  0  0  0  0  0  0  0
   42.4805    5.3470   13.1595 N   0  0  0  0  0  0  0  0  0  0  0  0
   45.5917    4.9587    9.2095 C   0  0  0  0  0  0  0  0  0  0  0  0
   44.2376    3.1114    9.9264 C   0  0  0  0  0  0  0  0  0  0  0  0
   44.5769    2.4080    8.7676 C   0  0  0  0  0  0  0  0  0  0  0  0
   45.9348    4.2611    8.0482 C   0  0  0  0  0  0  0  0  0  0  0  0
   45.4246    2.9852    7.8268 C   0  0  0  0  0  0  0  0  0  0  0  0
   44.3118    5.4536   11.1930 C   0  0  2  0  0  0  0  0  0  0  0  0
   43.4643    5.1155   12.3984 C   0  0  0  0  0  0  0  0  0  0  0  0
   42.8896    5.9621   11.3060 C   0  0  1  0  0  0  0  0  0  0  0  0
   44.6540    4.3822   10.1844 C   0  0  0  0  0  0  0  0  0  0  0  0
   42.6361    7.3810   11.5560 N   0  0  0  0  0  0  0  0  0  0  0  0
   44.3811    4.5526    8.8168 C   0  0  0  0  0  0  0  0  0  0  0  0
   45.2883    3.1901   10.5723 C   0  0  0  0  0  0  0  0  0  0  0  0
   45.6209    2.2039    9.6398 C   0  0  0  0  0  0  0  0  0  0  0  0
   44.7113    3.5703    7.8792 C   0  0  0  0  0  0  0  0  0  0  0  0
   45.3306    2.3945    8.2922 C   0  0  0  0  0  0  0  0  0  0  0  0
   45.0312    4.9655   12.2752 H   0  0  0  0  0  0  0  0  0  0  0  0
   43.6263    6.9933   10.3748 H   0  0  0  0  0  0  0  0  0  0  0  0
   44.1219    7.2659   12.1013 H   0  0  0  0  0  0  0  0  0  0  0  0
   42.1713    5.1055   11.0394 H   0  0  0  0  0  0  0  0  0  0  0  0
   41.6438    5.9119   13.3028 H   0  0  0  0  0  0  0  0  0  0  0  0
   42.2219    4.3915   13.4037 H   0  0  0  0  0  0  0  0  0  0  0  0
   46.0055    5.9518    9.3711 H   0  0  0  0  0  0  0  0  0  0  0  0
   43.5806    2.6425   10.6558 H   0  0  0  0  0  0  0  0  0  0  0  0
   44.1809    1.4095    8.6037 H   0  0  0  0  0  0  0  0  0  0  0  0
   46.6025    4.7149    7.3208 H   0  0  0  0  0  0  0  0  0  0  0  0
   45.6913    2.4402    6.9255 H   0  0  0  0  0  0  0  0  0  0  0  0
   45.1048    6.1785   11.3646 H   0  0  0  0  0  0  0  0  0  0  0  0
   43.0729    4.1096   12.5026 H   0  0  0  0  0  0  0  0  0  0  0  0
   43.7157    5.5829   13.3430 H   0  0  0  0  0  0  0  0  0  0  0  0
   42.1332    5.4831   10.6865 H   0  0  0  0  0  0  0  0  0  0  0  0
   42.6635    7.9077   10.6833 H   0  0  0  0  0  0  0  0  0  0  0  0
   43.3535    7.7906   12.1529 H   0  0  0  0  0  0  0  0  0  0  0  0
   43.9018    5.4677    8.4754 H   0  0  0  0  0  0  0  0  0  0  0  0
   45.5274    3.0270   11.6212 H   0  0  0  0  0  0  0  0  0  0  0  0
   46.1081    1.2896    9.9681 H   0  0  0  0  0  0  0  0  0  0  0  0
   44.4856    3.7267    6.8277 H   0  0  0  0  0  0  0  0  0  0  0  0
   45.5886    1.6293    7.5651 H   0  0  0  0  0  0  0  0  0  0  0  0
  2  1  1  0
  3  1  1  0
  1  4  1  0
  3  5  1  0
  6  4  2  0
  7  4  1  0
  8  7  2  0
  9  6  1  0
 10  9  2  0
  3  2  1  0
  8 10  1  0
 12 11  1  0
 13 11  1  0
 11 14  1  0
 13 15  1  0
 16 14  2  0
 17 14  1  0
 18 17  2  0
 19 16  1  0
 20 19  2  0
 13 12  1  0
 18 20  1  0
  1 21  1  6
  2 22  1  0
  2 23  1  0
  3 24  1  1
  5 25  1  0
  5 26  1  0
  6 27  1  0
  7 28  1  0
  8 29  1  0
  9 30  1  0
 10 31  1  0
 11 32  1  6
 12 33  1  0
 12 34  1  0
 13 35  1  1
 15 36  1  0
 15 37  1  0
 16 38  1  0
 17 39  1  0
 18 40  1  0
 19 41  1  0
 20 42  1  0
M  END
> <Uni-Dock RESULT> 
ENERGY=   -5.738  LOWER_BOUND=    2.493  UPPER_BOUND=    4.370
INTER + INTRA:          -5.738
INTER:                  -5.738
INTRA:                   0.000
UNBOUND:                 0.000

$$$$

     RDKit          3D

 42 44  0  0  0  0  0  0  0  0999 V2000
   46.8785    6.2202   12.5954 C   0  0  1  0  0  0  0  0  0  0  0  0
   47.5944    7.3484   11.8892 C   0  0  0  0  0  0  0  0  0  0  0  0
   47.0974    7.5493   13.2863 C   0  0  2  0  0  0  0  0  0  0  0  0
   45.4892    5.8140   12.1636 C   0  0  0  0  0  0  0  0  0  0  0  0
   48.0720    7.6375   14.3733 N   0  0  0  0  0  0  0  0  0  0  0  0
   45.2054    5.4810   10.8285 C   0  0  0  0  0  0  0  0  0  0  0  0
   44.4361    5.7221   13.0891 C   0  0  0  0  0  0  0  0  0  0  0  0
   43.1521    5.3336   12.6975 C   0  0  0  0  0  0  0  0  0  0  0  0
   43.9236    5.0923   10.4300 C   0  0  0  0  0  0  0  0  0  0  0  0
   42.8959    5.0209   11.3658 C   0  0  0  0  0  0  0  0  0  0  0  0
   46.8690    6.4479   12.2829 C   0  0  2  0  0  0  0  0  0  0  0  0
   47.4776    6.8156   13.6171 C   0  0  0  0  0  0  0  0  0  0  0  0
   47.0688    7.8988   12.6685 C   0  0  1  0  0  0  0  0  0  0  0  0
   45.4759    5.8667   12.2214 C   0  0  0  0  0  0  0  0  0  0  0  0
   48.0991    8.6982   12.0054 N   0  0  0  0  0  0  0  0  0  0  0  0
   44.4806    6.4395   11.4121 C   0  0  0  0  0  0  0  0  0  0  0  0
   45.1338    4.7122   12.9453 C   0  0  0  0  0  0  0  0  0  0  0  0
   43.8508    4.1625   12.8782 C   0  0  0  0  0  0  0  0  0  0  0  0
   43.1957    5.8946   11.3405 C   0  0  0  0  0  0  0  0  0  0  0  0
   42.8809    4.7557   12.0756 C   0  0  0  0  0  0  0  0  0  0  0  0
   47.5104    5.3972   12.9244 H   0  0  0  0  0  0  0  0  0  0  0  0
   47.0835    7.8814   11.0959 H   0  0  0  0  0  0  0  0  0  0  0  0
   48.6610    7.2401   11.7291 H   0  0  0  0  0  0  0  0  0  0  0  0
   46.2344    8.2031   13.3977 H   0  0  0  0  0  0  0  0  0  0  0  0
   48.4125    8.5935   14.4722 H   0  0  0  0  0  0  0  0  0  0  0  0
   47.6380    7.3982   15.2643 H   0  0  0  0  0  0  0  0  0  0  0  0
   45.9995    5.5240   10.0860 H   0  0  0  0  0  0  0  0  0  0  0  0
   44.6216    5.9549   14.1355 H   0  0  0  0  0  0  0  0  0  0  0  0
   42.3555    5.2731   13.4341 H   0  0  0  0  0  0  0  0  0  0  0  0
   43.7318    4.8430    9.3898 H   0  0  0  0  0  0  0  0  0  0  0  0
   41.8989    4.7172   11.0587 H   0  0  0  0  0  0  0  0  0  0  0  0
   47.5593    6.0381   11.5486 H   0  0  0  0  0  0  0  0  0  0  0  0
   46.8851    6.6971   14.5176 H   0  0  0  0  0  0  0  0  0  0  0  0
   48.5334    6.6220   13.7641 H   0  0  0  0  0  0  0  0  0  0  0  0
   46.1871    8.4693   12.9556 H   0  0  0  0  0  0  0  0  0  0  0  0
   47.7492    9.0707   11.1231 H   0  0  0  0  0  0  0  0  0  0  0  0
   48.9152    8.1359   11.7680 H   0  0  0  0  0  0  0  0  0  0  0  0
   44.7104    7.3272   10.8267 H   0  0  0  0  0  0  0  0  0  0  0  0
   45.8814    4.2324   13.5737 H   0  0  0  0  0  0  0  0  0  0  0  0
   43.6124    3.2706   13.4516 H   0  0  0  0  0  0  0  0  0  0  0  0
   42.4437    6.3602   10.7089 H   0  0  0  0  0  0  0  0  0  0  0  0
   41.8826    4.3300   12.0215 H   0  0  0  0  0  0  0  0  0  0  0  0
  2  1  1  0
  3  1  1  0
  1  4  1  0
  3  5  1  0
  6  4  2  0
  7  4  1  0
  8  7  2  0
  9  6  1  0
 10  9  2  0
  3  2  1  0
  8 10  1  0
 12 11  1  0
 13 11  1  0
 11 14  1  0
 13 15  1  0
 16 14  2  0
 17 14  1  0
 18 17  2  0
 19 16  1  0
 20 19  2  0
 13 12  1  0
 18 20  1  0
  1 21  1  6
  2 22  1  0
  2 23  1  0
  3 24  1  1
  5 25  1  0
  5 26  1  0
  6 27  1  0
  7 28  1  0
  8 29  1  0
  9 30  1  0
 10 31  1  0
 11 32  1  6
 12 33  1  0
 12 34  1  0
 13 35  1  1
 15 36  1  0
 15 37  1  0
 16 38  1  0
 17 39  1  0
 18 40  1  0
 19 41  1  0
 20 42  1  0
M  END
> <Uni-Dock RESULT> 
ENERGY=   -5.650  LOWER_BOUND=    3.290  UPPER_BOUND=    4.683
INTER + INTRA:          -5.650
INTER:                  -5.650
INTRA:                   0.000
UNBOUND:                 0.000

$$$$

     RDKit          3D

 42 44  0  0  0  0  0  0  0  0999 V2000
   46.1480    7.0981   11.7594 C   0  0  1  0  0  0  0  0  0  0  0  0
   46.2076    8.1838   12.8089 C   0  0  0  0  0  0  0  0  0  0  0  0
   47.2145    7.0772   12.8334 C   0  0  2  0  0  0  0  0  0  0  0  0
   45.0331    6.0791   11.7830 C   0  0  0  0  0  0  0  0  0  0  0  0
   48.5991    7.3785   12.4714 N   0  0  0  0  0  0  0  0  0  0  0  0
   43.6839    6.4704   11.8017 C   0  0  0  0  0  0  0  0  0  0  0  0
   45.3047    4.7010   11.7534 C   0  0  0  0  0  0  0  0  0  0  0  0
   44.2769    3.7541   11.7614 C   0  0  0  0  0  0  0  0  0  0  0  0
   42.6512    5.5289   11.8102 C   0  0  0  0  0  0  0  0  0  0  0  0
   42.9490    4.1695   11.7922 C   0  0  0  0  0  0  0  0  0  0  0  0
   45.9468    7.2702   12.0412 C   0  0  2  0  0  0  0  0  0  0  0  0
   47.4534    7.1620   11.9802 C   0  0  0  0  0  0  0  0  0  0  0  0
   46.7831    7.3986   13.2974 C   0  0  1  0  0  0  0  0  0  0  0  0
   45.0910    6.0442   11.8245 C   0  0  0  0  0  0  0  0  0  0  0  0
   46.9270    8.6987   13.9524 N   0  0  0  0  0  0  0  0  0  0  0  0
   44.1222    5.6542   12.7642 C   0  0  0  0  0  0  0  0  0  0  0  0
   45.2092    5.2679   10.6594 C   0  0  0  0  0  0  0  0  0  0  0  0
   44.4080    4.1426   10.4482 C   0  0  0  0  0  0  0  0  0  0  0  0
   43.3177    4.5301   12.5589 C   0  0  0  0  0  0  0  0  0  0  0  0
   43.4624    3.7733   11.4001 C   0  0  0  0  0  0  0  0  0  0  0  0
   46.4743    7.3908   10.7630 H   0  0  0  0  0  0  0  0  0  0  0  0
   45.4617    8.1978   13.5950 H   0  0  0  0  0  0  0  0  0  0  0  0
   46.5280    9.1691   12.4903 H   0  0  0  0  0  0  0  0  0  0  0  0
   47.1041    6.3476   13.6336 H   0  0  0  0  0  0  0  0  0  0  0  0
   49.1149    7.7203   13.2818 H   0  0  0  0  0  0  0  0  0  0  0  0
   49.0814    6.5341   12.1647 H   0  0  0  0  0  0  0  0  0  0  0  0
   43.4338    7.5292   11.8079 H   0  0  0  0  0  0  0  0  0  0  0  0
   46.3372    4.3597   11.7205 H   0  0  0  0  0  0  0  0  0  0  0  0
   44.5157    2.6943   11.7402 H   0  0  0  0  0  0  0  0  0  0  0  0
   41.6163    5.8599   11.8277 H   0  0  0  0  0  0  0  0  0  0  0  0
   42.1477    3.4356   11.7971 H   0  0  0  0  0  0  0  0  0  0  0  0
   45.5250    8.1890   11.6392 H   0  0  0  0  0  0  0  0  0  0  0  0
   47.9065    6.1893   11.8234 H   0  0  0  0  0  0  0  0  0  0  0  0
   48.0026    7.9752   11.5210 H   0  0  0  0  0  0  0  0  0  0  0  0
   46.7878    6.5562   13.9872 H   0  0  0  0  0  0  0  0  0  0  0  0
   46.1331    8.8791   14.5662 H   0  0  0  0  0  0  0  0  0  0  0  0
   46.9365    9.4606   13.2756 H   0  0  0  0  0  0  0  0  0  0  0  0
   43.9919    6.2370   13.6737 H   0  0  0  0  0  0  0  0  0  0  0  0
   45.9398    5.5454    9.9023 H   0  0  0  0  0  0  0  0  0  0  0  0
   44.5231    3.5581    9.5393 H   0  0  0  0  0  0  0  0  0  0  0  0
   42.5784    4.2490   13.3042 H   0  0  0  0  0  0  0  0  0  0  0  0
   42.8380    2.8988   11.2380 H   0  0  0  0  0  0  0  0  0  0  0  0
  2  1  1  0
  3  1  1  0
  1  4  1  0
  3  5  1  0
  6  4  2  0
  7  4  1  0
  8  7  2  0
  9  6  1  0
 10  9  2  0
  3  2  1  0
  8 10  1  0
 12 11  1  0
 13 11  1  0
 11 14  1  0
 13 15  1  0
 16 14  2  0
 17 14  1  0
 18 17  2  0
 19 16  1  0
 20 19  2  0
 13 12  1  0
 18 20  1  0
  1 21  1  6
  2 22  1  0
  2 23  1  0
  3 24  1  1
  5 25  1  0
  5 26  1  0
  6 27  1  0
  7 28  1  0
  8 29  1  0
  9 30  1  0
 10 31  1  0
 11 32  1  6
 12 33  1  0
 12 34  1  0
 13 35  1  1
 15 36  1  0
 15 37  1  0
 16 38  1  0
 17 39  1  0
 18 40  1  0
 19 41  1  0
 20 42  1  0
M  END
> <Uni-Dock RESULT> 
ENERGY=   -5.629  LOWER_BOUND=    3.087  UPPER_BOUND=    4.628
INTER + INTRA:          -5.629
INTER:                  -5.629
INTRA:                   0.000
UNBOUND:                 0.000

$$$$

     RDKit          3D

 42 44  0  0  0  0  0  0  0  0999 V2000
   46.1762    6.5923   13.1201 C   0  0  1  0  0  0  0  0  0  0  0  0
   47.6764    6.4519   13.0043 C   0  0  0  0  0  0  0  0  0  0  0  0
   46.9715    7.5135   12.2200 C   0  0  2  0  0  0  0  0  0  0  0  0
   45.2667    5.5479   12.5168 C   0  0  0  0  0  0  0  0  0  0  0  0
   47.1521    8.9118   12.6090 N   0  0  0  0  0  0  0  0  0  0  0  0
   45.4062    4.1858   12.8313 C   0  0  0  0  0  0  0  0  0  0  0  0
   44.2255    5.9049   11.6437 C   0  0  0  0  0  0  0  0  0  0  0  0
   43.3726    4.9444   11.0934 C   0  0  0  0  0  0  0  0  0  0  0  0
   44.5572    3.2199   12.2842 C   0  0  0  0  0  0  0  0  0  0  0  0
   43.5410    3.6003   11.4127 C   0  0  0  0  0  0  0  0  0  0  0  0
   46.4596    6.3468   13.0255 C   0  0  2  0  0  0  0  0  0  0  0  0
   46.5308    7.8529   12.9149 C   0  0  0  0  0  0  0  0  0  0  0  0
   47.4545    7.0079   12.0944 C   0  0  1  0  0  0  0  0  0  0  0  0
   45.2733    5.6021   12.4592 C   0  0  0  0  0  0  0  0  0  0  0  0
   48.8821    6.9879   12.4133 N   0  0  0  0  0  0  0  0  0  0  0  0
   45.4410    4.5478   11.5459 C   0  0  0  0  0  0  0  0  0  0  0  0
   43.9606    5.9141   12.8508 C   0  0  0  0  0  0  0  0  0  0  0  0
   42.8621    5.2166   12.3414 C   0  0  0  0  0  0  0  0  0  0  0  0
   44.3466    3.8463   11.0329 C   0  0  0  0  0  0  0  0  0  0  0  0
   43.0561    4.1826   11.4306 C   0  0  0  0  0  0  0  0  0  0  0  0
   45.8162    7.0236   14.0525 H   0  0  0  0  0  0  0  0  0  0  0  0
   48.0859    5.6131   12.4537 H   0  0  0  0  0  0  0  0  0  0  0  0
   48.2730    6.7492   13.8591 H   0  0  0  0  0  0  0  0  0  0  0  0
   46.9005    7.3477   11.1465 H   0  0  0  0  0  0  0  0  0  0  0  0
   47.9896    9.2989   12.1750 H   0  0  0  0  0  0  0  0  0  0  0  0
   46.3731    9.4798   12.2771 H   0  0  0  0  0  0  0  0  0  0  0  0
   46.1905    3.8726   13.5172 H   0  0  0  0  0  0  0  0  0  0  0  0
   44.0749    6.9522   11.3906 H   0  0  0  0  0  0  0  0  0  0  0  0
   42.5767    5.2484   10.4190 H   0  0  0  0  0  0  0  0  0  0  0  0
   44.6899    2.1728   12.5429 H   0  0  0  0  0  0  0  0  0  0  0  0
   42.8786    2.8513   10.9874 H   0  0  0  0  0  0  0  0  0  0  0  0
   46.8579    5.9239   13.9453 H   0  0  0  0  0  0  0  0  0  0  0  0
   45.7439    8.3809   12.3876 H   0  0  0  0  0  0  0  0  0  0  0  0
   46.9364    8.4049   13.7543 H   0  0  0  0  0  0  0  0  0  0  0  0
   47.2423    6.9769   11.0269 H   0  0  0  0  0  0  0  0  0  0  0  0
   49.3048    6.1131   12.1039 H   0  0  0  0  0  0  0  0  0  0  0  0
   49.0425    7.0363   13.4186 H   0  0  0  0  0  0  0  0  0  0  0  0
   46.4430    4.2681   11.2277 H   0  0  0  0  0  0  0  0  0  0  0  0
   43.7911    6.7163   13.5662 H   0  0  0  0  0  0  0  0  0  0  0  0
   41.8571    5.4814   12.6591 H   0  0  0  0  0  0  0  0  0  0  0  0
   44.5049    3.0371   10.3248 H   0  0  0  0  0  0  0  0  0  0  0  0
   42.2036    3.6384   11.0333 H   0  0  0  0  0  0  0  0  0  0  0  0
  2  1  1  0
  3  1  1  0
  1  4  1  0
  3  5  1  0
  6  4  2  0
  7  4  1  0
  8  7  2  0
  9  6  1  0
 10  9  2  0
  3  2  1  0
  8 10  1  0
 12 11  1  0
 13 11  1  0
 11 14  1  0
 13 15  1  0
 16 14  2  0
 17 14  1  0
 18 17  2  0
 19 16  1  0
 20 19  2  0
 13 12  1  0
 18 20  1  0
  1 21  1  6
  2 22  1  0
  2 23  1  0
  3 24  1  1
  5 25  1  0
  5 26  1  0
  6 27  1  0
  7 28  1  0
  8 29  1  0
  9 30  1  0
 10 31  1  0
 11 32  1  6
 12 33  1  0
 12 34  1  0
 13 35  1  1
 15 36  1  0
 15 37  1  0
 16 38  1  0
 17 39  1  0
 18 40  1  0
 19 41  1  0
 20 42  1  0
M  END
> <Uni-Dock RESULT> 
ENERGY=   -5.532  LOWER_BOUND=    2.957  UPPER_BOUND=    4.701
INTER + INTRA:          -5.532
INTER:                  -5.532
INTRA:                   0.000
UNBOUND:                 0.000

$$$$

     RDKit          3D

 42 44  0  0  0  0  0  0  0  0999 V2000
   48.8708    5.4242   20.1462 C   0  0  1  0  0  0  0  0  0  0  0  0
   48.0854    6.5845   20.7128 C   0  0  0  0  0  0  0  0  0  0  0  0
   48.0050    5.2450   21.3750 C   0  0  2  0  0  0  0  0  0  0  0  0
   48.4595    4.7966   18.8352 C   0  0  0  0  0  0  0  0  0  0  0  0
   48.6432    5.0659   22.6787 N   0  0  0  0  0  0  0  0  0  0  0  0
   48.2979    5.5687   17.6727 C   0  0  0  0  0  0  0  0  0  0  0  0
   48.2555    3.4110   18.7228 C   0  0  0  0  0  0  0  0  0  0  0  0
   47.8883    2.8234   17.5093 C   0  0  0  0  0  0  0  0  0  0  0  0
   47.9303    4.9876   16.4560 C   0  0  0  0  0  0  0  0  0  0  0  0
   47.7234    3.6137   16.3757 C   0  0  0  0  0  0  0  0  0  0  0  0
   48.6000    5.6874   20.0627 C   0  0  2  0  0  0  0  0  0  0  0  0
   48.8852    5.1296   21.4386 C   0  0  0  0  0  0  0  0  0  0  0  0
   47.5505    5.7440   21.1532 C   0  0  1  0  0  0  0  0  0  0  0  0
   48.4219    4.7525   18.8894 C   0  0  0  0  0  0  0  0  0  0  0  0
   47.2032    7.0240   21.7705 N   0  0  0  0  0  0  0  0  0  0  0  0
   47.2765    4.8090   18.0778 C   0  0  0  0  0  0  0  0  0  0  0  0
   49.4102    3.8147   18.5465 C   0  0  0  0  0  0  0  0  0  0  0  0
   49.2560    2.9594   17.4522 C   0  0  0  0  0  0  0  0  0  0  0  0
   47.1162    3.9566   16.9821 C   0  0  0  0  0  0  0  0  0  0  0  0
   48.1068    3.0302   16.6705 C   0  0  0  0  0  0  0  0  0  0  0  0
   49.9455    5.4582   20.3158 H   0  0  0  0  0  0  0  0  0  0  0  0
   47.2064    6.9336   20.1838 H   0  0  0  0  0  0  0  0  0  0  0  0
   48.6440    7.3728   21.2042 H   0  0  0  0  0  0  0  0  0  0  0  0
   47.0674    4.7060   21.2519 H   0  0  0  0  0  0  0  0  0  0  0  0
   48.0142    5.3538   23.4279 H   0  0  0  0  0  0  0  0  0  0  0  0
   48.8489    4.0812   22.8449 H   0  0  0  0  0  0  0  0  0  0  0  0
   48.4637    6.6431   17.7165 H   0  0  0  0  0  0  0  0  0  0  0  0
   48.3887    2.7780   19.5975 H   0  0  0  0  0  0  0  0  0  0  0  0
   47.7349    1.7492   17.4514 H   0  0  0  0  0  0  0  0  0  0  0  0
   47.8097    5.6095   15.5731 H   0  0  0  0  0  0  0  0  0  0  0  0
   47.4391    3.1594   15.4305 H   0  0  0  0  0  0  0  0  0  0  0  0
   49.1036    6.6209   19.8205 H   0  0  0  0  0  0  0  0  0  0  0  0
   48.9156    4.0543   21.5759 H   0  0  0  0  0  0  0  0  0  0  0  0
   49.5826    5.6672   22.0698 H   0  0  0  0  0  0  0  0  0  0  0  0
   46.7159    5.0483   21.0850 H   0  0  0  0  0  0  0  0  0  0  0  0
   46.5161    7.5193   21.2030 H   0  0  0  0  0  0  0  0  0  0  0  0
   48.0116    7.6414   21.8337 H   0  0  0  0  0  0  0  0  0  0  0  0
   46.4941    5.5304   18.3037 H   0  0  0  0  0  0  0  0  0  0  0  0
   50.3174    3.7494   19.1437 H   0  0  0  0  0  0  0  0  0  0  0  0
   50.0351    2.2409   17.2116 H   0  0  0  0  0  0  0  0  0  0  0  0
   46.2183    4.0194   16.3730 H   0  0  0  0  0  0  0  0  0  0  0  0
   47.9847    2.3665   15.8188 H   0  0  0  0  0  0  0  0  0  0  0  0
  2  1  1  0
  3  1  1  0
  1  4  1  0
  3  5  1  0
  6  4  2  0
  7  4  1  0
  8  7  2  0
  9  6  1  0
 10  9  2  0
  3  2  1  0
  8 10  1  0
 12 11  1  0
 13 11  1  0
 11 14  1  0
 13 15  1  0
 16 14  2  0
 17 14  1  0
 18 17  2  0
 19 16  1  0
 20 19  2  0
 13 12  1  0
 18 20  1  0
  1 21  1  6
  2 22  1  0
  2 23  1  0
  3 24  1  1
  5 25  1  0
  5 26  1  0
  6 27  1  0
  7 28  1  0
  8 29  1  0
  9 30  1  0
 10 31  1  0
 11 32  1  6
 12 33  1  0
 12 34  1  0
 13 35  1  1
 15 36  1  0
 15 37  1  0
 16 38  1  0
 17 39  1  0
 18 40  1  0
 19 41  1  0
 20 42  1  0
M  END
> <Uni-Dock RESULT> 
ENERGY=   -5.525  LOWER_BOUND=    8.432  UPPER_BOUND=   10.482
INTER + INTRA:          -5.525
INTER:                  -5.525
INTRA:                   0.000
UNBOUND:                 0.000

$$$$

     RDKit          3D

 42 44  0  0  0  0  0  0  0  0999 V2000
   44.2573    6.2383   11.2994 C   0  0  1  0  0  0  0  0  0  0  0  0
   44.1700    4.7309   11.3631 C   0  0  0  0  0  0  0  0  0  0  0  0
   43.2415    5.5600   12.1936 C   0  0  2  0  0  0  0  0  0  0  0  0
   45.4380    6.9573   11.9085 C   0  0  0  0  0  0  0  0  0  0  0  0
   41.8256    5.6070   11.8303 N   0  0  0  0  0  0  0  0  0  0  0  0
   46.7575    6.6246   11.5592 C   0  0  0  0  0  0  0  0  0  0  0  0
   45.2584    8.0088   12.8229 C   0  0  0  0  0  0  0  0  0  0  0  0
   46.3467    8.6864   13.3791 C   0  0  0  0  0  0  0  0  0  0  0  0
   47.8504    7.2977   12.1119 C   0  0  0  0  0  0  0  0  0  0  0  0
   47.6439    8.3281   13.0244 C   0  0  0  0  0  0  0  0  0  0  0  0
   44.4584    5.9179   11.3793 C   0  0  2  0  0  0  0  0  0  0  0  0
   42.9611    6.0714   11.5212 C   0  0  0  0  0  0  0  0  0  0  0  0
   43.6699    5.0019   12.2921 C   0  0  1  0  0  0  0  0  0  0  0  0
   45.3844    6.9569   11.9671 C   0  0  0  0  0  0  0  0  0  0  0  0
   43.4673    3.6000   11.9264 N   0  0  0  0  0  0  0  0  0  0  0  0
   46.4165    6.5993   12.8506 C   0  0  0  0  0  0  0  0  0  0  0  0
   45.2688    8.3148   11.6256 C   0  0  0  0  0  0  0  0  0  0  0  0
   46.1338    9.2763   12.1547 C   0  0  0  0  0  0  0  0  0  0  0  0
   47.2849    7.5559   13.3832 C   0  0  0  0  0  0  0  0  0  0  0  0
   47.1418    8.8957   13.0354 C   0  0  0  0  0  0  0  0  0  0  0  0
   43.8697    6.6924   10.3891 H   0  0  0  0  0  0  0  0  0  0  0  0
   44.9462    4.1800   11.8811 H   0  0  0  0  0  0  0  0  0  0  0  0
   43.7709    4.2170   10.4962 H   0  0  0  0  0  0  0  0  0  0  0  0
   43.4347    5.5668   13.2648 H   0  0  0  0  0  0  0  0  0  0  0  0
   41.3232    4.8228   12.2454 H   0  0  0  0  0  0  0  0  0  0  0  0
   41.3883    6.4506   12.2001 H   0  0  0  0  0  0  0  0  0  0  0  0
   46.9360    5.8269   10.8413 H   0  0  0  0  0  0  0  0  0  0  0  0
   44.2506    8.3069   13.1042 H   0  0  0  0  0  0  0  0  0  0  0  0
   46.1788    9.4946   14.0857 H   0  0  0  0  0  0  0  0  0  0  0  0
   48.8606    7.0174   11.8257 H   0  0  0  0  0  0  0  0  0  0  0  0
   48.4920    8.8540   13.4542 H   0  0  0  0  0  0  0  0  0  0  0  0
   44.8001    5.4932   10.4377 H   0  0  0  0  0  0  0  0  0  0  0  0
   42.5680    6.9098   12.0855 H   0  0  0  0  0  0  0  0  0  0  0  0
   42.3396    5.7842   10.6816 H   0  0  0  0  0  0  0  0  0  0  0  0
   43.7511    5.1688   13.3649 H   0  0  0  0  0  0  0  0  0  0  0  0
   44.2729    3.0391   12.2022 H   0  0  0  0  0  0  0  0  0  0  0  0
   43.3778    3.4847   10.9178 H   0  0  0  0  0  0  0  0  0  0  0  0
   46.5462    5.5557   13.1297 H   0  0  0  0  0  0  0  0  0  0  0  0
   44.4895    8.6290   10.9342 H   0  0  0  0  0  0  0  0  0  0  0  0
   46.0194   10.3204   11.8760 H   0  0  0  0  0  0  0  0  0  0  0  0
   48.0727    7.2520   14.0674 H   0  0  0  0  0  0  0  0  0  0  0  0
   47.8160    9.6415   13.4480 H   0  0  0  0  0  0  0  0  0  0  0  0
  2  1  1  0
  3  1  1  0
  1  4  1  0
  3  5  1  0
  6  4  2  0
  7  4  1  0
  8  7  2  0
  9  6  1  0
 10  9  2  0
  3  2  1  0
  8 10  1  0
 12 11  1  0
 13 11  1  0
 11 14  1  0
 13 15  1  0
 16 14  2  0
 17 14  1  0
 18 17  2  0
 19 16  1  0
 20 19  2  0
 13 12  1  0
 18 20  1  0
  1 21  1  6
  2 22  1  0
  2 23  1  0
  3 24  1  1
  5 25  1  0
  5 26  1  0
  6 27  1  0
  7 28  1  0
  8 29  1  0
  9 30  1  0
 10 31  1  0
 11 32  1  6
 12 33  1  0
 12 34  1  0
 13 35  1  1
 15 36  1  0
 15 37  1  0
 16 38  1  0
 17 39  1  0
 18 40  1  0
 19 41  1  0
 20 42  1  0
M  END
> <Uni-Dock RESULT> 
ENERGY=   -5.370  LOWER_BOUND=    3.271  UPPER_BOUND=    4.920
INTER + INTRA:          -5.370
INTER:                  -5.370
INTRA:                   0.000
UNBOUND:                 0.000

$$$$
