
     RDKit          3D

 42 44  0  0  0  0  0  0  0  0999 V2000
   45.4178    3.3726    9.4757 C   0  0  1  0  0  0  0  0  0  0  0  0
   44.2891    4.3495    9.2610 C   0  0  0  0  0  0  0  0  0  0  0  0
   43.9775    2.9462    9.6842 C   0  0  2  0  0  0  0  0  0  0  0  0
   46.1965    2.8387    8.2964 C   0  0  0  0  0  0  0  0  0  0  0  0
   43.4687    2.7269   11.0396 N   0  0  0  0  0  0  0  0  0  0  0  0
   46.8167    3.7029    7.3786 C   0  0  0  0  0  0  0  0  0  0  0  0
   46.3574    1.4579    8.0927 C   0  0  0  0  0  0  0  0  0  0  0  0
   47.0895    0.9604    7.0113 C   0  0  0  0  0  0  0  0  0  0  0  0
   47.5503    3.2119    6.2952 C   0  0  0  0  0  0  0  0  0  0  0  0
   47.6847    1.8391    6.1111 C   0  0  0  0  0  0  0  0  0  0  0  0
   44.6172    3.0421    8.8705 C   0  0  2  0  0  0  0  0  0  0  0  0
   44.6045    4.3769    9.5803 C   0  0  0  0  0  0  0  0  0  0  0  0
   44.9660    3.1397   10.3411 C   0  0  1  0  0  0  0  0  0  0  0  0
   45.6959    2.7302    7.8599 C   0  0  0  0  0  0  0  0  0  0  0  0
   44.0427    2.6115   11.3452 N   0  0  0  0  0  0  0  0  0  0  0  0
   45.9366    3.5716    6.7609 C   0  0  0  0  0  0  0  0  0  0  0  0
   46.4767    1.5670    7.9658 C   0  0  0  0  0  0  0  0  0  0  0  0
   47.4667    1.2647    7.0272 C   0  0  0  0  0  0  0  0  0  0  0  0
   46.9250    3.2749    5.8185 C   0  0  0  0  0  0  0  0  0  0  0  0
   47.6917    2.1212    5.9537 C   0  0  0  0  0  0  0  0  0  0  0  0
   46.0143    3.5407   10.3700 H   0  0  0  0  0  0  0  0  0  0  0  0
   44.0216    4.6347    8.2500 H   0  0  0  0  0  0  0  0  0  0  0  0
   44.1639    5.1456    9.9862 H   0  0  0  0  0  0  0  0  0  0  0  0
   43.5199    2.3177    8.9220 H   0  0  0  0  0  0  0  0  0  0  0  0
   44.2313    2.5484   11.6924 H   0  0  0  0  0  0  0  0  0  0  0  0
   42.8783    1.8958   11.0732 H   0  0  0  0  0  0  0  0  0  0  0  0
   46.7263    4.7791    7.5110 H   0  0  0  0  0  0  0  0  0  0  0  0
   45.9041    0.7566    8.7902 H   0  0  0  0  0  0  0  0  0  0  0  0
   47.1951   -0.1126    6.8754 H   0  0  0  0  0  0  0  0  0  0  0  0
   48.0170    3.9033    5.5987 H   0  0  0  0  0  0  0  0  0  0  0  0
   48.2552    1.4549    5.2698 H   0  0  0  0  0  0  0  0  0  0  0  0
   43.6428    2.6210    8.6317 H   0  0  0  0  0  0  0  0  0  0  0  0
   43.6420    4.8419    9.7555 H   0  0  0  0  0  0  0  0  0  0  0  0
   45.3999    5.0856    9.3769 H   0  0  0  0  0  0  0  0  0  0  0  0
   46.0158    3.0292   10.6086 H   0  0  0  0  0  0  0  0  0  0  0  0
   44.1523    3.1101   12.2280 H   0  0  0  0  0  0  0  0  0  0  0  0
   43.0710    2.7431   11.0675 H   0  0  0  0  0  0  0  0  0  0  0  0
   45.3421    4.4740    6.6365 H   0  0  0  0  0  0  0  0  0  0  0  0
   46.3077    0.8841    8.7967 H   0  0  0  0  0  0  0  0  0  0  0  0
   48.0579    0.3594    7.1362 H   0  0  0  0  0  0  0  0  0  0  0  0
   47.0924    3.9446    4.9792 H   0  0  0  0  0  0  0  0  0  0  0  0
   48.4602    1.8878    5.2219 H   0  0  0  0  0  0  0  0  0  0  0  0
  2  1  1  0
  3  1  1  0
  1  4  1  0
  3  5  1  0
  6  4  2  0
  7  4  1  0
  8  7  2  0
  9  6  1  0
 10  9  2  0
  3  2  1  0
  8 10  1  0
 12 11  1  0
 13 11  1  0
 11 14  1  0
 13 15  1  0
 16 14  2  0
 17 14  1  0
 18 17  2  0
 19 16  1  0
 20 19  2  0
 13 12  1  0
 18 20  1  0
  1 21  1  1
  2 22  1  0
  2 23  1  0
  3 24  1  6
  5 25  1  0
  5 26  1  0
  6 27  1  0
  7 28  1  0
  8 29  1  0
  9 30  1  0
 10 31  1  0
 11 32  1  1
 12 33  1  0
 12 34  1  0
 13 35  1  6
 15 36  1  0
 15 37  1  0
 16 38  1  0
 17 39  1  0
 18 40  1  0
 19 41  1  0
 20 42  1  0
M  END
> <Uni-Dock RESULT> 
ENERGY=   -9.709  LOWER_BOUND=    0.000  UPPER_BOUND=    0.000
INTER + INTRA:          -9.709
INTER:                  -9.709
INTRA:                   0.000
UNBOUND:                 0.000

$$$$

     RDKit          3D

 42 44  0  0  0  0  0  0  0  0999 V2000
   44.5917    3.2862    8.7548 C   0  0  1  0  0  0  0  0  0  0  0  0
   44.5592    2.6285   10.1115 C   0  0  0  0  0  0  0  0  0  0  0  0
   44.9002    4.0838   10.0072 C   0  0  2  0  0  0  0  0  0  0  0  0
   45.6980    2.9622    7.7785 C   0  0  0  0  0  0  0  0  0  0  0  0
   43.9320    5.0612   10.5087 N   0  0  0  0  0  0  0  0  0  0  0  0
   45.9693    1.6383    7.3946 C   0  0  0  0  0  0  0  0  0  0  0  0
   46.4746    3.9759    7.1927 C   0  0  0  0  0  0  0  0  0  0  0  0
   47.4891    3.6812    6.2779 C   0  0  0  0  0  0  0  0  0  0  0  0
   46.9822    1.3367    6.4802 C   0  0  0  0  0  0  0  0  0  0  0  0
   47.7436    2.3598    5.9232 C   0  0  0  0  0  0  0  0  0  0  0  0
   45.4298    3.4487    9.3774 C   0  0  2  0  0  0  0  0  0  0  0  0
   44.2063    2.6906    9.8400 C   0  0  0  0  0  0  0  0  0  0  0  0
   44.0419    4.0175    9.1674 C   0  0  1  0  0  0  0  0  0  0  0  0
   46.2273    2.9529    8.1940 C   0  0  0  0  0  0  0  0  0  0  0  0
   43.6037    5.1750    9.9470 N   0  0  0  0  0  0  0  0  0  0  0  0
   46.7431    1.6468    8.1526 C   0  0  0  0  0  0  0  0  0  0  0  0
   46.5101    3.7937    7.1045 C   0  0  0  0  0  0  0  0  0  0  0  0
   47.2589    3.3466    6.0129 C   0  0  0  0  0  0  0  0  0  0  0  0
   47.4930    1.1934    7.0640 C   0  0  0  0  0  0  0  0  0  0  0  0
   47.7490    2.0442    5.9926 C   0  0  0  0  0  0  0  0  0  0  0  0
   43.6195    3.4513    8.2948 H   0  0  0  0  0  0  0  0  0  0  0  0
   45.3575    1.9497   10.3894 H   0  0  0  0  0  0  0  0  0  0  0  0
   43.5924    2.3542   10.5181 H   0  0  0  0  0  0  0  0  0  0  0  0
   45.9409    4.3366   10.2032 H   0  0  0  0  0  0  0  0  0  0  0  0
   43.2938    5.3563    9.7703 H   0  0  0  0  0  0  0  0  0  0  0  0
   44.4042    5.9102   10.8191 H   0  0  0  0  0  0  0  0  0  0  0  0
   45.3797    0.8269    7.8163 H   0  0  0  0  0  0  0  0  0  0  0  0
   46.2852    5.0150    7.4537 H   0  0  0  0  0  0  0  0  0  0  0  0
   48.0772    4.4847    5.8425 H   0  0  0  0  0  0  0  0  0  0  0  0
   47.1725    0.3032    6.2035 H   0  0  0  0  0  0  0  0  0  0  0  0
   48.5313    2.1278    5.2115 H   0  0  0  0  0  0  0  0  0  0  0  0
   46.0278    3.9099   10.1606 H   0  0  0  0  0  0  0  0  0  0  0  0
   44.0375    2.6153   10.9074 H   0  0  0  0  0  0  0  0  0  0  0  0
   43.8952    1.8110    9.2869 H   0  0  0  0  0  0  0  0  0  0  0  0
   43.6474    3.9967    8.1527 H   0  0  0  0  0  0  0  0  0  0  0  0
   42.5890    5.1726   10.0498 H   0  0  0  0  0  0  0  0  0  0  0  0
   43.9814    5.1548   10.8934 H   0  0  0  0  0  0  0  0  0  0  0  0
   46.5579    0.9708    8.9846 H   0  0  0  0  0  0  0  0  0  0  0  0
   46.1389    4.8172    7.1093 H   0  0  0  0  0  0  0  0  0  0  0  0
   47.4594    4.0180    5.1823 H   0  0  0  0  0  0  0  0  0  0  0  0
   47.8778    0.1772    7.0562 H   0  0  0  0  0  0  0  0  0  0  0  0
   48.3325    1.6945    5.1454 H   0  0  0  0  0  0  0  0  0  0  0  0
  2  1  1  0
  3  1  1  0
  1  4  1  0
  3  5  1  0
  6  4  2  0
  7  4  1  0
  8  7  2  0
  9  6  1  0
 10  9  2  0
  3  2  1  0
  8 10  1  0
 12 11  1  0
 13 11  1  0
 11 14  1  0
 13 15  1  0
 16 14  2  0
 17 14  1  0
 18 17  2  0
 19 16  1  0
 20 19  2  0
 13 12  1  0
 18 20  1  0
  1 21  1  1
  2 22  1  0
  2 23  1  0
  3 24  1  6
  5 25  1  0
  5 26  1  0
  6 27  1  0
  7 28  1  0
  8 29  1  0
  9 30  1  0
 10 31  1  0
 11 32  1  1
 12 33  1  0
 12 34  1  0
 13 35  1  6
 15 36  1  0
 15 37  1  0
 16 38  1  0
 17 39  1  0
 18 40  1  0
 19 41  1  0
 20 42  1  0
M  END
> <Uni-Dock RESULT> 
ENERGY=   -8.511  LOWER_BOUND=    0.908  UPPER_BOUND=    1.976
INTER + INTRA:          -8.511
INTER:                  -8.511
INTRA:                   0.000
UNBOUND:                 0.000

$$$$

     RDKit          3D

 42 44  0  0  0  0  0  0  0  0999 V2000
   44.3844    3.0426    9.2591 C   0  0  1  0  0  0  0  0  0  0  0  0
   45.1935    3.7786    8.2207 C   0  0  0  0  0  0  0  0  0  0  0  0
   45.8341    2.6756    9.0070 C   0  0  2  0  0  0  0  0  0  0  0  0
   43.9959    3.7287   10.5477 C   0  0  0  0  0  0  0  0  0  0  0  0
   46.1627    1.4288    8.3129 N   0  0  0  0  0  0  0  0  0  0  0  0
   43.3024    4.9505   10.5448 C   0  0  0  0  0  0  0  0  0  0  0  0
   44.2844    3.1534   11.7966 C   0  0  0  0  0  0  0  0  0  0  0  0
   43.9135    3.7779   12.9905 C   0  0  0  0  0  0  0  0  0  0  0  0
   42.9285    5.5800   11.7350 C   0  0  0  0  0  0  0  0  0  0  0  0
   43.2364    4.9933   12.9588 C   0  0  0  0  0  0  0  0  0  0  0  0
   45.3325    3.3959    9.5637 C   0  0  2  0  0  0  0  0  0  0  0  0
   44.8375    3.5160    8.1403 C   0  0  0  0  0  0  0  0  0  0  0  0
   44.7412    2.2000    8.8467 C   0  0  1  0  0  0  0  0  0  0  0  0
   44.5690    4.0513   10.6906 C   0  0  0  0  0  0  0  0  0  0  0  0
   45.6074    1.0941    8.4387 N   0  0  0  0  0  0  0  0  0  0  0  0
   44.2685    5.4236   10.6720 C   0  0  0  0  0  0  0  0  0  0  0  0
   44.1600    3.3159   11.8156 C   0  0  0  0  0  0  0  0  0  0  0  0
   43.4657    3.9182   12.8681 C   0  0  0  0  0  0  0  0  0  0  0  0
   43.5748    6.0321   11.7215 C   0  0  0  0  0  0  0  0  0  0  0  0
   43.1716    5.2775   12.8193 C   0  0  0  0  0  0  0  0  0  0  0  0
   43.6307    2.3637    8.8656 H   0  0  0  0  0  0  0  0  0  0  0  0
   45.5221    4.7910    8.4262 H   0  0  0  0  0  0  0  0  0  0  0  0
   44.9611    3.5990    7.1772 H   0  0  0  0  0  0  0  0  0  0  0  0
   46.5719    2.9917    9.7425 H   0  0  0  0  0  0  0  0  0  0  0  0
   45.3931    0.7626    8.3728 H   0  0  0  0  0  0  0  0  0  0  0  0
   46.9589    0.9691    8.7545 H   0  0  0  0  0  0  0  0  0  0  0  0
   43.0488    5.4201    9.5966 H   0  0  0  0  0  0  0  0  0  0  0  0
   44.8076    2.2005   11.8400 H   0  0  0  0  0  0  0  0  0  0  0  0
   44.1524    3.3125   13.9431 H   0  0  0  0  0  0  0  0  0  0  0  0
   42.3954    6.5265   11.7033 H   0  0  0  0  0  0  0  0  0  0  0  0
   42.9461    5.4806   13.8856 H   0  0  0  0  0  0  0  0  0  0  0  0
   46.4127    3.3963    9.6933 H   0  0  0  0  0  0  0  0  0  0  0  0
   45.5792    3.6438    7.3612 H   0  0  0  0  0  0  0  0  0  0  0  0
   43.9112    4.0476    7.9512 H   0  0  0  0  0  0  0  0  0  0  0  0
   43.7423    1.8876    9.1473 H   0  0  0  0  0  0  0  0  0  0  0  0
   45.2166    0.6155    7.6273 H   0  0  0  0  0  0  0  0  0  0  0  0
   46.5282    1.4245    8.1528 H   0  0  0  0  0  0  0  0  0  0  0  0
   44.5820    6.0294    9.8246 H   0  0  0  0  0  0  0  0  0  0  0  0
   44.3886    2.2529   11.8709 H   0  0  0  0  0  0  0  0  0  0  0  0
   43.1587    3.3239   13.7246 H   0  0  0  0  0  0  0  0  0  0  0  0
   43.3528    7.0951   11.6804 H   0  0  0  0  0  0  0  0  0  0  0  0
   42.6328    5.7484   13.6370 H   0  0  0  0  0  0  0  0  0  0  0  0
  2  1  1  0
  3  1  1  0
  1  4  1  0
  3  5  1  0
  6  4  2  0
  7  4  1  0
  8  7  2  0
  9  6  1  0
 10  9  2  0
  3  2  1  0
  8 10  1  0
 12 11  1  0
 13 11  1  0
 11 14  1  0
 13 15  1  0
 16 14  2  0
 17 14  1  0
 18 17  2  0
 19 16  1  0
 20 19  2  0
 13 12  1  0
 18 20  1  0
  1 21  1  1
  2 22  1  0
  2 23  1  0
  3 24  1  6
  5 25  1  0
  5 26  1  0
  6 27  1  0
  7 28  1  0
  8 29  1  0
  9 30  1  0
 10 31  1  0
 11 32  1  1
 12 33  1  0
 12 34  1  0
 13 35  1  6
 15 36  1  0
 15 37  1  0
 16 38  1  0
 17 39  1  0
 18 40  1  0
 19 41  1  0
 20 42  1  0
M  END
> <Uni-Dock RESULT> 
ENERGY=   -7.581  LOWER_BOUND=    2.312  UPPER_BOUND=    5.152
INTER + INTRA:          -7.581
INTER:                  -7.581
INTRA:                   0.000
UNBOUND:                 0.000

$$$$

     RDKit          3D

 42 44  0  0  0  0  0  0  0  0999 V2000
   44.4077    4.9368   11.3979 C   0  0  1  0  0  0  0  0  0  0  0  0
   43.7002    6.2426   11.1361 C   0  0  0  0  0  0  0  0  0  0  0  0
   42.9439    5.1072   11.7558 C   0  0  2  0  0  0  0  0  0  0  0  0
   44.8007    4.0403   10.2472 C   0  0  0  0  0  0  0  0  0  0  0  0
   42.5431    5.2243   13.1593 N   0  0  0  0  0  0  0  0  0  0  0  0
   45.5894    4.5162    9.1865 C   0  0  0  0  0  0  0  0  0  0  0  0
   44.4198    2.6884   10.2121 C   0  0  0  0  0  0  0  0  0  0  0  0
   44.7939    1.8523    9.1567 C   0  0  0  0  0  0  0  0  0  0  0  0
   45.9671    3.6853    8.1282 C   0  0  0  0  0  0  0  0  0  0  0  0
   45.5668    2.3526    8.1132 C   0  0  0  0  0  0  0  0  0  0  0  0
   43.4801    4.8777   10.8954 C   0  0  2  0  0  0  0  0  0  0  0  0
   44.0368    6.1788   11.4272 C   0  0  0  0  0  0  0  0  0  0  0  0
   44.0005    4.9739   12.3144 C   0  0  1  0  0  0  0  0  0  0  0  0
   44.2503    4.0883    9.8629 C   0  0  0  0  0  0  0  0  0  0  0  0
   43.0646    4.9300   13.4378 N   0  0  0  0  0  0  0  0  0  0  0  0
   44.6602    4.6695    8.6513 C   0  0  0  0  0  0  0  0  0  0  0  0
   44.5560    2.7319   10.0645 C   0  0  0  0  0  0  0  0  0  0  0  0
   45.2558    1.9917    9.1081 C   0  0  0  0  0  0  0  0  0  0  0  0
   45.3601    3.9347    7.6905 C   0  0  0  0  0  0  0  0  0  0  0  0
   45.6595    2.5951    7.9208 C   0  0  0  0  0  0  0  0  0  0  0  0
   45.1190    4.9504   12.2211 H   0  0  0  0  0  0  0  0  0  0  0  0
   43.4462    6.5115   10.1171 H   0  0  0  0  0  0  0  0  0  0  0  0
   43.9569    7.0913   11.7598 H   0  0  0  0  0  0  0  0  0  0  0  0
   42.2064    4.6293   11.1132 H   0  0  0  0  0  0  0  0  0  0  0  0
   43.2540    4.8333   13.7769 H   0  0  0  0  0  0  0  0  0  0  0  0
   41.6964    4.6847   13.3389 H   0  0  0  0  0  0  0  0  0  0  0  0
   45.9156    5.5542    9.1855 H   0  0  0  0  0  0  0  0  0  0  0  0
   43.8207    2.2789   11.0227 H   0  0  0  0  0  0  0  0  0  0  0  0
   44.4825    0.8111    9.1529 H   0  0  0  0  0  0  0  0  0  0  0  0
   46.5751    4.0808    7.3190 H   0  0  0  0  0  0  0  0  0  0  0  0
   45.8599    1.7044    7.2917 H   0  0  0  0  0  0  0  0  0  0  0  0
   42.3992    4.8352   10.7787 H   0  0  0  0  0  0  0  0  0  0  0  0
   43.3379    6.9869   11.6057 H   0  0  0  0  0  0  0  0  0  0  0  0
   45.0092    6.5124   11.0815 H   0  0  0  0  0  0  0  0  0  0  0  0
   44.9590    4.5011   12.5227 H   0  0  0  0  0  0  0  0  0  0  0  0
   43.4463    5.4309   14.2401 H   0  0  0  0  0  0  0  0  0  0  0  0
   42.1848    5.3920   13.2115 H   0  0  0  0  0  0  0  0  0  0  0  0
   44.4286    5.7136    8.4524 H   0  0  0  0  0  0  0  0  0  0  0  0
   44.2410    2.2446   10.9856 H   0  0  0  0  0  0  0  0  0  0  0  0
   45.4815    0.9448    9.2923 H   0  0  0  0  0  0  0  0  0  0  0  0
   45.6679    4.4097    6.7629 H   0  0  0  0  0  0  0  0  0  0  0  0
   46.2028    2.0213    7.1750 H   0  0  0  0  0  0  0  0  0  0  0  0
  2  1  1  0
  3  1  1  0
  1  4  1  0
  3  5  1  0
  6  4  2  0
  7  4  1  0
  8  7  2  0
  9  6  1  0
 10  9  2  0
  3  2  1  0
  8 10  1  0
 12 11  1  0
 13 11  1  0
 11 14  1  0
 13 15  1  0
 16 14  2  0
 17 14  1  0
 18 17  2  0
 19 16  1  0
 20 19  2  0
 13 12  1  0
 18 20  1  0
  1 21  1  1
  2 22  1  0
  2 23  1  0
  3 24  1  6
  5 25  1  0
  5 26  1  0
  6 27  1  0
  7 28  1  0
  8 29  1  0
  9 30  1  0
 10 31  1  0
 11 32  1  1
 12 33  1  0
 12 34  1  0
 13 35  1  6
 15 36  1  0
 15 37  1  0
 16 38  1  0
 17 39  1  0
 18 40  1  0
 19 41  1  0
 20 42  1  0
M  END
> <Uni-Dock RESULT> 
ENERGY=   -7.385  LOWER_BOUND=    1.898  UPPER_BOUND=    2.889
INTER + INTRA:          -7.385
INTER:                  -7.385
INTRA:                   0.000
UNBOUND:                 0.000

$$$$

     RDKit          3D

 42 44  0  0  0  0  0  0  0  0999 V2000
   45.4100    3.4192    9.3996 C   0  0  1  0  0  0  0  0  0  0  0  0
   45.1123    2.0147    8.9380 C   0  0  0  0  0  0  0  0  0  0  0  0
   44.7343    3.1721    8.0646 C   0  0  2  0  0  0  0  0  0  0  0  0
   44.6254    4.0285   10.5378 C   0  0  0  0  0  0  0  0  0  0  0  0
   45.4786    3.3743    6.8199 N   0  0  0  0  0  0  0  0  0  0  0  0
   44.5385    3.3931   11.7878 C   0  0  0  0  0  0  0  0  0  0  0  0
   43.9815    5.2693   10.3984 C   0  0  0  0  0  0  0  0  0  0  0  0
   43.2671    5.8431   11.4537 C   0  0  0  0  0  0  0  0  0  0  0  0
   43.8260    3.9615   12.8472 C   0  0  0  0  0  0  0  0  0  0  0  0
   43.1884    5.1869   12.6784 C   0  0  0  0  0  0  0  0  0  0  0  0
   44.4281    3.2343    9.0560 C   0  0  2  0  0  0  0  0  0  0  0  0
   45.5213    2.1916    8.9974 C   0  0  0  0  0  0  0  0  0  0  0  0
   45.7888    3.5714    8.4828 C   0  0  1  0  0  0  0  0  0  0  0  0
   44.0053    3.8168   10.3843 C   0  0  0  0  0  0  0  0  0  0  0  0
   45.9390    3.7911    7.0444 N   0  0  0  0  0  0  0  0  0  0  0  0
   43.5903    2.9960   11.4462 C   0  0  0  0  0  0  0  0  0  0  0  0
   43.9808    5.2058   10.5939 C   0  0  0  0  0  0  0  0  0  0  0  0
   43.5776    5.7524   11.8150 C   0  0  0  0  0  0  0  0  0  0  0  0
   43.1856    3.5363   12.6699 C   0  0  0  0  0  0  0  0  0  0  0  0
   43.1815    4.9159   12.8542 C   0  0  0  0  0  0  0  0  0  0  0  0
   46.4597    3.7045    9.3731 H   0  0  0  0  0  0  0  0  0  0  0  0
   44.3063    1.4631    9.4084 H   0  0  0  0  0  0  0  0  0  0  0  0
   45.9477    1.3933    8.6361 H   0  0  0  0  0  0  0  0  0  0  0  0
   43.6672    3.3753    7.9917 H   0  0  0  0  0  0  0  0  0  0  0  0
   46.2748    3.9942    6.9660 H   0  0  0  0  0  0  0  0  0  0  0  0
   44.8955    3.8360    6.1219 H   0  0  0  0  0  0  0  0  0  0  0  0
   45.0359    2.4372   11.9385 H   0  0  0  0  0  0  0  0  0  0  0  0
   44.0379    5.7992    9.4499 H   0  0  0  0  0  0  0  0  0  0  0  0
   42.7754    6.8025   11.3175 H   0  0  0  0  0  0  0  0  0  0  0  0
   43.7726    3.4465   13.8026 H   0  0  0  0  0  0  0  0  0  0  0  0
   42.6343    5.6312   13.5009 H   0  0  0  0  0  0  0  0  0  0  0  0
   43.6179    3.1148    8.3397 H   0  0  0  0  0  0  0  0  0  0  0  0
   45.4011    1.3790    8.2913 H   0  0  0  0  0  0  0  0  0  0  0  0
   46.0161    1.8996    9.9174 H   0  0  0  0  0  0  0  0  0  0  0  0
   46.4418    4.1938    9.0926 H   0  0  0  0  0  0  0  0  0  0  0  0
   46.8875    3.5643    6.7459 H   0  0  0  0  0  0  0  0  0  0  0  0
   45.3227    3.1839    6.5057 H   0  0  0  0  0  0  0  0  0  0  0  0
   43.5813    1.9160   11.3169 H   0  0  0  0  0  0  0  0  0  0  0  0
   44.2817    5.8731    9.7880 H   0  0  0  0  0  0  0  0  0  0  0  0
   43.5718    6.8307   11.9501 H   0  0  0  0  0  0  0  0  0  0  0  0
   42.8721    2.8783   13.4759 H   0  0  0  0  0  0  0  0  0  0  0  0
   42.8665    5.3385   13.8044 H   0  0  0  0  0  0  0  0  0  0  0  0
  2  1  1  0
  3  1  1  0
  1  4  1  0
  3  5  1  0
  6  4  2  0
  7  4  1  0
  8  7  2  0
  9  6  1  0
 10  9  2  0
  3  2  1  0
  8 10  1  0
 12 11  1  0
 13 11  1  0
 11 14  1  0
 13 15  1  0
 16 14  2  0
 17 14  1  0
 18 17  2  0
 19 16  1  0
 20 19  2  0
 13 12  1  0
 18 20  1  0
  1 21  1  1
  2 22  1  0
  2 23  1  0
  3 24  1  6
  5 25  1  0
  5 26  1  0
  6 27  1  0
  7 28  1  0
  8 29  1  0
  9 30  1  0
 10 31  1  0
 11 32  1  1
 12 33  1  0
 12 34  1  0
 13 35  1  6
 15 36  1  0
 15 37  1  0
 16 38  1  0
 17 39  1  0
 18 40  1  0
 19 41  1  0
 20 42  1  0
M  END
> <Uni-Dock RESULT> 
ENERGY=   -6.990  LOWER_BOUND=    2.435  UPPER_BOUND=    5.359
INTER + INTRA:          -6.990
INTER:                  -6.990
INTRA:                   0.000
UNBOUND:                 0.000

$$$$
