
     RDKit          3D

 77 74  0  0  0  0  0  0  0  0999 V2000
    2.0344   -0.4550    1.1258 C   0  0  0  0  0  0  0  0  0  0  0  0
    3.3753   -0.8120    1.0635 C   0  0  0  0  0  0  0  0  0  0  0  0
    1.4790    0.3451    0.1151 C   0  0  0  0  0  0  0  0  0  0  0  0
    4.1844   -0.3575    0.0272 C   0  0  0  0  0  0  0  0  0  0  0  0
    2.3001    0.7665   -0.9483 C   0  0  0  0  0  0  0  0  0  0  0  0
   -2.2417    0.4648   -0.9474 N   0  0  0  0  0  0  0  0  0  0  0  0
    3.6515    0.4145   -0.9923 C   0  0  0  0  0  0  0  0  0  0  0  0
   -0.8368    0.0107   -0.8986 C   0  0  0  0  0  0  0  0  0  0  0  0
    0.0162    0.7355    0.1731 C   0  0  2  0  0  0  0  0  0  0  0  0
    3.8806   -1.6430    2.0207 O   0  0  0  0  0  0  0  0  0  0  0  0
    5.5194   -0.6393    0.0157 O   0  0  0  0  0  0  0  0  0  0  0  0
   -0.1138    2.1542    0.0061 O   0  0  0  0  0  0  0  0  0  0  0  0
   -3.0711   -0.0260    0.1597 C   0  0  0  0  0  0  0  0  0  0  0  0
   -3.4332   -1.5018   -0.0228 C   0  0  0  0  0  0  0  0  0  0  0  0
   -4.3503    0.8129    0.2142 C   0  0  0  0  0  0  0  0  0  0  0  0
   -0.1138    0.3944   -0.0340 S   0  0  0  0  0  0  0  0  0  0  0  0
   -0.1490    1.5997   -0.8250 O   0  0  0  0  0  0  0  0  0  0  0  0
   -0.1639    0.4028    1.4085 O   0  0  0  0  0  0  0  0  0  0  0  0
   -1.2764   -0.5973   -0.5276 O   0  0  0  0  0  0  0  0  0  0  0  0
    1.2173   -0.4190   -0.4199 O   0  0  0  0  0  0  0  0  0  0  0  0
   -2.0753   -0.7292    0.6411 C   0  0  0  0  0  0  0  0  0  0  0  0
   -3.1112    0.1717    0.8459 C   0  0  0  0  0  0  0  0  0  0  0  0
   -1.1708   -0.5229   -0.4121 C   0  0  0  0  0  0  0  0  0  0  0  0
   -3.2709    1.2797    0.0197 C   0  0  0  0  0  0  0  0  0  0  0  0
   -1.3480    0.5949   -1.2488 C   0  0  0  0  0  0  0  0  0  0  0  0
    1.5679   -0.4630    1.0815 N   0  0  0  0  0  0  0  0  0  0  0  0
   -2.3944    1.4986   -1.0338 C   0  0  0  0  0  0  0  0  0  0  0  0
    0.9337   -1.6735    0.5341 C   0  0  0  0  0  0  0  0  0  0  0  0
   -0.0316   -1.4931   -0.6680 C   0  0  1  0  0  0  0  0  0  0  0  0
   -3.9802   -0.0396    1.8765 O   0  0  0  0  0  0  0  0  0  0  0  0
   -4.3104    2.1274    0.2862 O   0  0  0  0  0  0  0  0  0  0  0  0
   -0.5649   -2.7706   -1.0336 O   0  0  0  0  0  0  0  0  0  0  0  0
    2.4317    0.2679    0.1490 C   0  0  0  0  0  0  0  0  0  0  0  0
    2.9231    1.5349    0.8572 C   0  0  0  0  0  0  0  0  0  0  0  0
    3.6323   -0.5588   -0.3158 C   0  0  0  0  0  0  0  0  0  0  0  0
   -0.0361    0.3959    0.0000 O   0  0  0  0  0  0  0  0  0  0  0  0
   -0.0269    0.3967    0.0000 O   0  0  0  0  0  0  0  0  0  0  0  0
    1.4251   -0.8149    1.9516 H   0  0  0  0  0  0  0  0  0  0  0  0
    1.8879    1.3846   -1.7454 H   0  0  0  0  0  0  0  0  0  0  0  0
   -2.2051    1.4888   -0.9059 H   0  0  0  0  0  0  0  0  0  0  0  0
    4.2841    0.7566   -1.8064 H   0  0  0  0  0  0  0  0  0  0  0  0
   -0.7652   -1.0766   -0.7835 H   0  0  0  0  0  0  0  0  0  0  0  0
   -0.4227    0.2382   -1.8892 H   0  0  0  0  0  0  0  0  0  0  0  0
   -0.3752    0.5097    1.1711 H   0  0  0  0  0  0  0  0  0  0  0  0
    4.5005   -2.2385    1.5585 H   0  0  0  0  0  0  0  0  0  0  0  0
    5.8077   -0.6128    0.9468 H   0  0  0  0  0  0  0  0  0  0  0  0
    0.6572    2.5601    0.4392 H   0  0  0  0  0  0  0  0  0  0  0  0
   -2.5567    0.1018    1.1182 H   0  0  0  0  0  0  0  0  0  0  0  0
   -4.1245   -1.8250    0.7640 H   0  0  0  0  0  0  0  0  0  0  0  0
   -2.5494   -2.1451    0.0379 H   0  0  0  0  0  0  0  0  0  0  0  0
   -3.9188   -1.6804   -0.9899 H   0  0  0  0  0  0  0  0  0  0  0  0
   -4.1190    1.8706    0.3831 H   0  0  0  0  0  0  0  0  0  0  0  0
   -4.9239    0.7325   -0.7157 H   0  0  0  0  0  0  0  0  0  0  0  0
   -4.9958    0.4807    1.0353 H   0  0  0  0  0  0  0  0  0  0  0  0
   -1.4415   -1.2397    0.1974 H   0  0  0  0  0  0  0  0  0  0  0  0
    1.9273   -0.1409    0.2005 H   0  0  0  0  0  0  0  0  0  0  0  0
   -1.9790   -1.5878    1.3016 H   0  0  0  0  0  0  0  0  0  0  0  0
   -0.6658    0.7711   -2.0782 H   0  0  0  0  0  0  0  0  0  0  0  0
    0.8334    0.1608    1.4228 H   0  0  0  0  0  0  0  0  0  0  0  0
   -2.5040    2.3543   -1.6933 H   0  0  0  0  0  0  0  0  0  0  0  0
    1.6964   -2.4180    0.2743 H   0  0  0  0  0  0  0  0  0  0  0  0
    0.3853   -2.1477    1.3589 H   0  0  0  0  0  0  0  0  0  0  0  0
    0.5473   -1.1553   -1.5350 H   0  0  0  0  0  0  0  0  0  0  0  0
   -4.5919    0.7233    1.8440 H   0  0  0  0  0  0  0  0  0  0  0  0
   -4.2797    2.8602   -0.3544 H   0  0  0  0  0  0  0  0  0  0  0  0
   -1.5144   -2.6609   -1.2155 H   0  0  0  0  0  0  0  0  0  0  0  0
    1.8574    0.5869   -0.7273 H   0  0  0  0  0  0  0  0  0  0  0  0
    3.5072    1.2957    1.7532 H   0  0  0  0  0  0  0  0  0  0  0  0
    2.0823    2.1712    1.1604 H   0  0  0  0  0  0  0  0  0  0  0  0
    3.5604    2.1270    0.1914 H   0  0  0  0  0  0  0  0  0  0  0  0
    3.3207   -1.4072   -0.9339 H   0  0  0  0  0  0  0  0  0  0  0  0
    4.3100    0.0515   -0.9232 H   0  0  0  0  0  0  0  0  0  0  0  0
    4.2034   -0.9493    0.5330 H   0  0  0  0  0  0  0  0  0  0  0  0
   -0.7427   -0.2673    0.0000 H   0  0  0  0  0  0  0  0  0  0  0  0
    0.7787   -0.1286    0.0000 H   0  0  0  0  0  0  0  0  0  0  0  0
    0.7756   -0.1466    0.0000 H   0  0  0  0  0  0  0  0  0  0  0  0
   -0.7487   -0.2501    0.0000 H   0  0  0  0  0  0  0  0  0  0  0  0
  2  1  2  0
  3  1  1  0
  4  2  1  0
  5  3  2  0
  6  8  1  0
  7  5  1  0
  8  9  1  0
  9  3  1  0
 10  2  1  0
 11  4  1  0
 12  9  1  0
 13  6  1  0
 14 13  1  0
 15 13  1  0
  7  4  2  0
 17 16  2  0
 18 16  2  0
 19 16  1  0
 20 16  1  0
 22 21  2  0
 23 21  1  0
 24 22  1  0
 25 23  2  0
 26 28  1  0
 27 25  1  0
 28 29  1  0
 29 23  1  0
 30 22  1  0
 31 24  1  0
 32 29  1  0
 33 26  1  0
 34 33  1  0
 35 33  1  0
 27 24  2  0
  1 38  1  0
  5 39  1  0
  6 40  1  0
  7 41  1  0
  8 42  1  0
  8 43  1  0
  9 44  1  1
 10 45  1  0
 11 46  1  0
 12 47  1  0
 13 48  1  0
 14 49  1  0
 14 50  1  0
 14 51  1  0
 15 52  1  0
 15 53  1  0
 15 54  1  0
 19 55  1  0
 20 56  1  0
 21 57  1  0
 25 58  1  0
 26 59  1  0
 27 60  1  0
 28 61  1  0
 28 62  1  0
 29 63  1  6
 30 64  1  0
 31 65  1  0
 32 66  1  0
 33 67  1  0
 34 68  1  0
 34 69  1  0
 34 70  1  0
 35 71  1  0
 35 72  1  0
 35 73  1  0
 36 74  1  0
 36 75  1  0
 37 76  1  0
 37 77  1  0
M  END
$$$$
