
     RDKit          3D

 77 74  0  0  0  0  0  0  0  0999 V2000
    2.2225    1.1138    0.2017 C   0  0  0  0  0  0  0  0  0  0  0  0
    3.5815    0.8955    0.4027 C   0  0  0  0  0  0  0  0  0  0  0  0
    1.3746    0.0223   -0.0539 C   0  0  0  0  0  0  0  0  0  0  0  0
    4.1037   -0.3940    0.3522 C   0  0  0  0  0  0  0  0  0  0  0  0
    1.9200   -1.2759   -0.1010 C   0  0  0  0  0  0  0  0  0  0  0  0
   -2.2228    0.3598    1.2419 N   0  0  0  0  0  0  0  0  0  0  0  0
    3.2854   -1.4835    0.1002 C   0  0  0  0  0  0  0  0  0  0  0  0
   -0.9339   -0.2982    0.9475 C   0  0  0  0  0  0  0  0  0  0  0  0
   -0.1159    0.2428   -0.2536 C   0  0  2  0  0  0  0  0  0  0  0  0
    4.4498    1.9216    0.6546 O   0  0  0  0  0  0  0  0  0  0  0  0
    5.4382   -0.5993    0.5561 O   0  0  0  0  0  0  0  0  0  0  0  0
   -0.4999   -0.4122   -1.4655 O   0  0  0  0  0  0  0  0  0  0  0  0
   -3.3298    0.1535    0.2960 C   0  0  0  0  0  0  0  0  0  0  0  0
   -3.5099   -1.2768   -0.2125 C   0  0  0  0  0  0  0  0  0  0  0  0
   -3.3199    1.1719   -0.8421 C   0  0  0  0  0  0  0  0  0  0  0  0
   -0.0606    0.3650    0.1803 S   0  0  0  0  0  0  0  0  0  0  0  0
   -0.6926    0.1984    1.4663 O   0  0  0  0  0  0  0  0  0  0  0  0
    0.6412    1.5647   -0.2005 O   0  0  0  0  0  0  0  0  0  0  0  0
    0.9826   -0.8415    0.0046 O   0  0  0  0  0  0  0  0  0  0  0  0
   -1.1559    0.0090   -0.9382 O   0  0  0  0  0  0  0  0  0  0  0  0
    2.5855    0.1634    0.8727 C   0  0  0  0  0  0  0  0  0  0  0  0
    3.8973    0.1371    0.4097 C   0  0  0  0  0  0  0  0  0  0  0  0
    1.5466   -0.3127    0.0526 C   0  0  0  0  0  0  0  0  0  0  0  0
    4.1870   -0.3511   -0.8606 C   0  0  0  0  0  0  0  0  0  0  0  0
    1.8603   -0.8126   -1.2268 C   0  0  0  0  0  0  0  0  0  0  0  0
   -2.0058    1.1772    0.3907 N   0  0  0  0  0  0  0  0  0  0  0  0
    3.1797   -0.8293   -1.6839 C   0  0  0  0  0  0  0  0  0  0  0  0
   -0.7291    0.7881   -0.2307 C   0  0  0  0  0  0  0  0  0  0  0  0
    0.1111   -0.2685    0.5405 C   0  0  1  0  0  0  0  0  0  0  0  0
    4.9419    0.5864    1.1714 O   0  0  0  0  0  0  0  0  0  0  0  0
    5.4766   -0.3659   -1.3077 O   0  0  0  0  0  0  0  0  0  0  0  0
   -0.4236   -1.5874    0.4347 O   0  0  0  0  0  0  0  0  0  0  0  0
   -3.0723    0.1722    0.3994 C   0  0  0  0  0  0  0  0  0  0  0  0
   -4.2562    0.7583    1.1777 C   0  0  0  0  0  0  0  0  0  0  0  0
   -3.5316   -0.2122   -1.0090 C   0  0  0  0  0  0  0  0  0  0  0  0
    0.0248    0.3968    0.0000 O   0  0  0  0  0  0  0  0  0  0  0  0
    0.0267    0.3968    0.0000 O   0  0  0  0  0  0  0  0  0  0  0  0
    1.8115    2.1178    0.2463 H   0  0  0  0  0  0  0  0  0  0  0  0
    1.2767   -2.1332   -0.2950 H   0  0  0  0  0  0  0  0  0  0  0  0
   -2.5320    0.0053    2.1486 H   0  0  0  0  0  0  0  0  0  0  0  0
    3.7050   -2.4844    0.0650 H   0  0  0  0  0  0  0  0  0  0  0  0
   -1.0736   -1.3829    0.8620 H   0  0  0  0  0  0  0  0  0  0  0  0
   -0.3345   -0.1456    1.8558 H   0  0  0  0  0  0  0  0  0  0  0  0
   -0.3087    1.3143   -0.3833 H   0  0  0  0  0  0  0  0  0  0  0  0
    3.9486    2.7569    0.6428 H   0  0  0  0  0  0  0  0  0  0  0  0
    5.8029    0.2941    0.7176 H   0  0  0  0  0  0  0  0  0  0  0  0
    0.2068   -0.2484   -2.1160 H   0  0  0  0  0  0  0  0  0  0  0  0
   -4.2367    0.3823    0.8736 H   0  0  0  0  0  0  0  0  0  0  0  0
   -2.7083   -1.5856   -0.8876 H   0  0  0  0  0  0  0  0  0  0  0  0
   -4.4523   -1.3674   -0.7633 H   0  0  0  0  0  0  0  0  0  0  0  0
   -3.5481   -1.9852    0.6207 H   0  0  0  0  0  0  0  0  0  0  0  0
   -4.2543    1.1132   -1.4126 H   0  0  0  0  0  0  0  0  0  0  0  0
   -3.2418    2.1923   -0.4528 H   0  0  0  0  0  0  0  0  0  0  0  0
   -2.5049    1.0152   -1.5474 H   0  0  0  0  0  0  0  0  0  0  0  0
    1.8787   -0.4706    0.1627 H   0  0  0  0  0  0  0  0  0  0  0  0
   -1.5935   -0.8250   -0.6752 H   0  0  0  0  0  0  0  0  0  0  0  0
    2.3595    0.5488    1.8625 H   0  0  0  0  0  0  0  0  0  0  0  0
    1.0766   -1.2000   -1.8742 H   0  0  0  0  0  0  0  0  0  0  0  0
   -1.8294    1.4875    1.3480 H   0  0  0  0  0  0  0  0  0  0  0  0
    3.4187   -1.2160   -2.6691 H   0  0  0  0  0  0  0  0  0  0  0  0
   -0.1387    1.7119   -0.2929 H   0  0  0  0  0  0  0  0  0  0  0  0
   -0.8941    0.4743   -1.2675 H   0  0  0  0  0  0  0  0  0  0  0  0
    0.1046   -0.0179    1.6081 H   0  0  0  0  0  0  0  0  0  0  0  0
    4.5954    0.8170    2.0516 H   0  0  0  0  0  0  0  0  0  0  0  0
    5.9983   -0.0146   -0.5564 H   0  0  0  0  0  0  0  0  0  0  0  0
   -1.0483   -1.5961   -0.3065 H   0  0  0  0  0  0  0  0  0  0  0  0
   -2.7505   -0.7266    0.9371 H   0  0  0  0  0  0  0  0  0  0  0  0
   -3.9704    0.9944    2.2103 H   0  0  0  0  0  0  0  0  0  0  0  0
   -4.6322    1.6758    0.7094 H   0  0  0  0  0  0  0  0  0  0  0  0
   -5.0844    0.0414    1.2220 H   0  0  0  0  0  0  0  0  0  0  0  0
   -3.8101    0.6696   -1.5964 H   0  0  0  0  0  0  0  0  0  0  0  0
   -4.4069   -0.8702   -0.9611 H   0  0  0  0  0  0  0  0  0  0  0  0
   -2.7556   -0.7527   -1.5556 H   0  0  0  0  0  0  0  0  0  0  0  0
   -0.7747   -0.1509    0.0000 H   0  0  0  0  0  0  0  0  0  0  0  0
    0.7500   -0.2460    0.0000 H   0  0  0  0  0  0  0  0  0  0  0  0
   -0.7754   -0.1470    0.0000 H   0  0  0  0  0  0  0  0  0  0  0  0
    0.7486   -0.2498    0.0000 H   0  0  0  0  0  0  0  0  0  0  0  0
  2  1  2  0
  3  1  1  0
  4  2  1  0
  5  3  2  0
  6  8  1  0
  7  5  1  0
  8  9  1  0
  9  3  1  0
 10  2  1  0
 11  4  1  0
 12  9  1  0
 13  6  1  0
 14 13  1  0
 15 13  1  0
  7  4  2  0
 17 16  2  0
 18 16  2  0
 19 16  1  0
 20 16  1  0
 22 21  2  0
 23 21  1  0
 24 22  1  0
 25 23  2  0
 26 28  1  0
 27 25  1  0
 28 29  1  0
 29 23  1  0
 30 22  1  0
 31 24  1  0
 32 29  1  0
 33 26  1  0
 34 33  1  0
 35 33  1  0
 27 24  2  0
  1 38  1  0
  5 39  1  0
  6 40  1  0
  7 41  1  0
  8 42  1  0
  8 43  1  0
  9 44  1  6
 10 45  1  0
 11 46  1  0
 12 47  1  0
 13 48  1  0
 14 49  1  0
 14 50  1  0
 14 51  1  0
 15 52  1  0
 15 53  1  0
 15 54  1  0
 19 55  1  0
 20 56  1  0
 21 57  1  0
 25 58  1  0
 26 59  1  0
 27 60  1  0
 28 61  1  0
 28 62  1  0
 29 63  1  1
 30 64  1  0
 31 65  1  0
 32 66  1  0
 33 67  1  0
 34 68  1  0
 34 69  1  0
 34 70  1  0
 35 71  1  0
 35 72  1  0
 35 73  1  0
 36 74  1  0
 36 75  1  0
 37 76  1  0
 37 77  1  0
M  END
$$$$
