
     RDKit          3D

 77 74  0  0  0  0  0  0  0  0999 V2000
    2.4862    1.1023   -0.2020 C   0  0  0  0  0  0  0  0  0  0  0  0
    3.6088    0.2855   -0.1882 C   0  0  0  0  0  0  0  0  0  0  0  0
    1.3524    0.7458    0.5469 C   0  0  0  0  0  0  0  0  0  0  0  0
    3.6222   -0.8986    0.5432 C   0  0  0  0  0  0  0  0  0  0  0  0
    1.3761   -0.4587    1.2772 C   0  0  0  0  0  0  0  0  0  0  0  0
   -1.8037    0.0123    0.1557 N   0  0  0  0  0  0  0  0  0  0  0  0
    2.5077   -1.2821    1.2773 C   0  0  0  0  0  0  0  0  0  0  0  0
   -0.9860    1.0937   -0.4251 C   0  0  0  0  0  0  0  0  0  0  0  0
    0.1006    1.6043    0.5566 C   0  0  2  0  0  0  0  0  0  0  0  0
    4.7106    0.6543   -0.9075 O   0  0  0  0  0  0  0  0  0  0  0  0
    4.7588   -1.6588    0.5036 O   0  0  0  0  0  0  0  0  0  0  0  0
    0.4087    2.9687    0.2485 O   0  0  0  0  0  0  0  0  0  0  0  0
   -2.6249   -0.6903   -0.8382 C   0  0  0  0  0  0  0  0  0  0  0  0
   -3.3121   -1.8571   -0.1272 C   0  0  0  0  0  0  0  0  0  0  0  0
   -3.6736    0.2074   -1.4961 C   0  0  0  0  0  0  0  0  0  0  0  0
   -0.3317   -0.3271   -0.0929 S   0  0  0  0  0  0  0  0  0  0  0  0
   -1.1580   -0.8017    0.9869 O   0  0  0  0  0  0  0  0  0  0  0  0
   -0.4720   -0.7527   -1.4616 O   0  0  0  0  0  0  0  0  0  0  0  0
    1.1917   -0.5651    0.3521 O   0  0  0  0  0  0  0  0  0  0  0  0
   -0.3975    1.2770   -0.1100 O   0  0  0  0  0  0  0  0  0  0  0  0
    2.5481    1.3520    0.6725 C   0  0  0  0  0  0  0  0  0  0  0  0
    3.7545    0.9462    0.1087 C   0  0  0  0  0  0  0  0  0  0  0  0
    1.4006    0.5487    0.5320 C   0  0  0  0  0  0  0  0  0  0  0  0
    3.8395   -0.2569   -0.5843 C   0  0  0  0  0  0  0  0  0  0  0  0
    1.5138   -0.6715   -0.1586 C   0  0  0  0  0  0  0  0  0  0  0  0
   -1.6984   -0.5453    0.2900 N   0  0  0  0  0  0  0  0  0  0  0  0
    2.7302   -1.0725   -0.7195 C   0  0  0  0  0  0  0  0  0  0  0  0
   -1.1832    0.8350    0.2996 C   0  0  0  0  0  0  0  0  0  0  0  0
    0.0953    0.9951    1.1711 C   0  0  1  0  0  0  0  0  0  0  0  0
    4.8899    1.7016    0.2099 O   0  0  0  0  0  0  0  0  0  0  0  0
    5.0266   -0.6426   -1.1366 O   0  0  0  0  0  0  0  0  0  0  0  0
   -0.0935    0.3274    2.4289 O   0  0  0  0  0  0  0  0  0  0  0  0
   -2.9694   -0.7490   -0.4124 C   0  0  0  0  0  0  0  0  0  0  0  0
   -4.1545   -0.0695    0.2791 C   0  0  0  0  0  0  0  0  0  0  0  0
   -2.8975   -0.3635   -1.8920 C   0  0  0  0  0  0  0  0  0  0  0  0
    0.0455    0.3941    0.0000 O   0  0  0  0  0  0  0  0  0  0  0  0
    0.0318    0.3967    0.0000 O   0  0  0  0  0  0  0  0  0  0  0  0
    2.5019    2.0101   -0.8010 H   0  0  0  0  0  0  0  0  0  0  0  0
    0.4950   -0.7681    1.8381 H   0  0  0  0  0  0  0  0  0  0  0  0
   -2.4020    0.4105    0.8832 H   0  0  0  0  0  0  0  0  0  0  0  0
    2.4957   -2.2055    1.8465 H   0  0  0  0  0  0  0  0  0  0  0  0
   -0.5089    0.7608   -1.3551 H   0  0  0  0  0  0  0  0  0  0  0  0
   -1.6401    1.9341   -0.6881 H   0  0  0  0  0  0  0  0  0  0  0  0
   -0.3049    1.6290    1.5768 H   0  0  0  0  0  0  0  0  0  0  0  0
    5.3612   -0.0582   -0.7387 H   0  0  0  0  0  0  0  0  0  0  0  0
    4.5959   -2.4672    1.0212 H   0  0  0  0  0  0  0  0  0  0  0  0
    1.1576    3.2162    0.8215 H   0  0  0  0  0  0  0  0  0  0  0  0
   -1.9703   -1.1085   -1.6100 H   0  0  0  0  0  0  0  0  0  0  0  0
   -2.5809   -2.5222    0.3435 H   0  0  0  0  0  0  0  0  0  0  0  0
   -4.0004   -1.5069    0.6513 H   0  0  0  0  0  0  0  0  0  0  0  0
   -3.8906   -2.4563   -0.8410 H   0  0  0  0  0  0  0  0  0  0  0  0
   -3.2099    0.9888   -2.1075 H   0  0  0  0  0  0  0  0  0  0  0  0
   -4.3187   -0.3783   -2.1586 H   0  0  0  0  0  0  0  0  0  0  0  0
   -4.3125    0.6931   -0.7481 H   0  0  0  0  0  0  0  0  0  0  0  0
    1.2541   -0.4000    1.3175 H   0  0  0  0  0  0  0  0  0  0  0  0
   -0.0866    1.5695   -0.9920 H   0  0  0  0  0  0  0  0  0  0  0  0
    2.4874    2.2891    1.2181 H   0  0  0  0  0  0  0  0  0  0  0  0
    0.6552   -1.3315   -0.2689 H   0  0  0  0  0  0  0  0  0  0  0  0
   -1.7873   -0.8428    1.2676 H   0  0  0  0  0  0  0  0  0  0  0  0
    2.8035   -2.0152   -1.2545 H   0  0  0  0  0  0  0  0  0  0  0  0
   -1.9470    1.4869    0.7372 H   0  0  0  0  0  0  0  0  0  0  0  0
   -0.9742    1.1877   -0.7158 H   0  0  0  0  0  0  0  0  0  0  0  0
    0.1783    2.0647    1.4024 H   0  0  0  0  0  0  0  0  0  0  0  0
    4.6858    2.4903    0.7415 H   0  0  0  0  0  0  0  0  0  0  0  0
    5.6354    0.0962   -0.9467 H   0  0  0  0  0  0  0  0  0  0  0  0
    0.6773   -0.2485    2.5687 H   0  0  0  0  0  0  0  0  0  0  0  0
   -3.1575   -1.8289   -0.3752 H   0  0  0  0  0  0  0  0  0  0  0  0
   -4.0979    1.0231    0.2178 H   0  0  0  0  0  0  0  0  0  0  0  0
   -5.0957   -0.3746   -0.1913 H   0  0  0  0  0  0  0  0  0  0  0  0
   -4.2070   -0.3506    1.3370 H   0  0  0  0  0  0  0  0  0  0  0  0
   -3.7849   -0.7297   -2.4189 H   0  0  0  0  0  0  0  0  0  0  0  0
   -2.0234   -0.8145   -2.3729 H   0  0  0  0  0  0  0  0  0  0  0  0
   -2.8500    0.7205   -2.0348 H   0  0  0  0  0  0  0  0  0  0  0  0
   -0.7825   -0.1085    0.0000 H   0  0  0  0  0  0  0  0  0  0  0  0
    0.7369   -0.2856    0.0000 H   0  0  0  0  0  0  0  0  0  0  0  0
    0.7450   -0.2594    0.0000 H   0  0  0  0  0  0  0  0  0  0  0  0
   -0.7768   -0.1373    0.0000 H   0  0  0  0  0  0  0  0  0  0  0  0
  2  1  2  0
  3  1  1  0
  4  2  1  0
  5  3  2  0
  6  8  1  0
  7  5  1  0
  8  9  1  0
  9  3  1  0
 10  2  1  0
 11  4  1  0
 12  9  1  0
 13  6  1  0
 14 13  1  0
 15 13  1  0
  7  4  2  0
 17 16  2  0
 18 16  2  0
 19 16  1  0
 20 16  1  0
 22 21  2  0
 23 21  1  0
 24 22  1  0
 25 23  2  0
 26 28  1  0
 27 25  1  0
 28 29  1  0
 29 23  1  0
 30 22  1  0
 31 24  1  0
 32 29  1  0
 33 26  1  0
 34 33  1  0
 35 33  1  0
 27 24  2  0
  1 38  1  0
  5 39  1  0
  6 40  1  0
  7 41  1  0
  8 42  1  0
  8 43  1  0
  9 44  1  1
 10 45  1  0
 11 46  1  0
 12 47  1  0
 13 48  1  0
 14 49  1  0
 14 50  1  0
 14 51  1  0
 15 52  1  0
 15 53  1  0
 15 54  1  0
 19 55  1  0
 20 56  1  0
 21 57  1  0
 25 58  1  0
 26 59  1  0
 27 60  1  0
 28 61  1  0
 28 62  1  0
 29 63  1  1
 30 64  1  0
 31 65  1  0
 32 66  1  0
 33 67  1  0
 34 68  1  0
 34 69  1  0
 34 70  1  0
 35 71  1  0
 35 72  1  0
 35 73  1  0
 36 74  1  0
 36 75  1  0
 37 76  1  0
 37 77  1  0
M  END
$$$$
