
     RDKit          3D

 77 74  0  0  0  0  0  0  0  0999 V2000
    2.6575    0.8329    0.8122 C   0  0  0  0  0  0  0  0  0  0  0  0
    3.8284    0.1130    0.5961 C   0  0  0  0  0  0  0  0  0  0  0  0
    1.4621    0.4429    0.1762 C   0  0  0  0  0  0  0  0  0  0  0  0
    3.8316   -0.9833   -0.2594 C   0  0  0  0  0  0  0  0  0  0  0  0
    1.4903   -0.6632   -0.6927 C   0  0  0  0  0  0  0  0  0  0  0  0
   -1.6832    0.1518   -0.8438 N   0  0  0  0  0  0  0  0  0  0  0  0
    2.6733   -1.3759   -0.9093 C   0  0  0  0  0  0  0  0  0  0  0  0
   -1.1398    0.4793    0.4868 C   0  0  0  0  0  0  0  0  0  0  0  0
    0.2040    1.2591    0.4147 C   0  0  2  0  0  0  0  0  0  0  0  0
    5.0044    0.4469    1.2083 O   0  0  0  0  0  0  0  0  0  0  0  0
    4.9846   -1.6845   -0.4659 O   0  0  0  0  0  0  0  0  0  0  0  0
    0.1011    2.2964   -0.5707 O   0  0  0  0  0  0  0  0  0  0  0  0
   -3.0458   -0.3947   -0.8549 C   0  0  0  0  0  0  0  0  0  0  0  0
   -4.1040    0.6431   -0.4760 C   0  0  0  0  0  0  0  0  0  0  0  0
   -3.1885   -1.6623   -0.0119 C   0  0  0  0  0  0  0  0  0  0  0  0
    0.0631   -0.4498   -0.0215 S   0  0  0  0  0  0  0  0  0  0  0  0
    0.4333   -1.0233   -1.2902 O   0  0  0  0  0  0  0  0  0  0  0  0
   -0.1254   -1.2169    1.1842 O   0  0  0  0  0  0  0  0  0  0  0  0
    1.1163    0.7058    0.3398 O   0  0  0  0  0  0  0  0  0  0  0  0
   -1.2627    0.4140   -0.2843 O   0  0  0  0  0  0  0  0  0  0  0  0
    2.4906    0.8414    0.6060 C   0  0  0  0  0  0  0  0  0  0  0  0
    3.8386    0.6218    0.3395 C   0  0  0  0  0  0  0  0  0  0  0  0
    1.5137    0.0288   -0.0002 C   0  0  0  0  0  0  0  0  0  0  0  0
    4.2288   -0.4018   -0.5162 C   0  0  0  0  0  0  0  0  0  0  0  0
    1.9291   -1.0129   -0.8509 C   0  0  0  0  0  0  0  0  0  0  0  0
   -2.2440    0.7235   -0.7479 N   0  0  0  0  0  0  0  0  0  0  0  0
    3.2857   -1.2231   -1.1139 C   0  0  0  0  0  0  0  0  0  0  0  0
   -0.9114    0.1024   -0.8793 C   0  0  0  0  0  0  0  0  0  0  0  0
    0.0492    0.2588    0.3350 C   0  0  1  0  0  0  0  0  0  0  0  0
    4.8218    1.3834    0.9101 O   0  0  0  0  0  0  0  0  0  0  0  0
    5.5531   -0.6126   -0.7697 O   0  0  0  0  0  0  0  0  0  0  0  0
   -0.3187   -0.6411    1.3845 O   0  0  0  0  0  0  0  0  0  0  0  0
   -3.1005    0.1600    0.3048 C   0  0  0  0  0  0  0  0  0  0  0  0
   -4.3915    0.9859    0.3443 C   0  0  0  0  0  0  0  0  0  0  0  0
   -3.4464   -1.3110    0.0659 C   0  0  0  0  0  0  0  0  0  0  0  0
    0.0367    0.3963    0.0000 O   0  0  0  0  0  0  0  0  0  0  0  0
   -0.1133    0.3812    0.0000 O   0  0  0  0  0  0  0  0  0  0  0  0
    2.6590    1.6982    1.4695 H   0  0  0  0  0  0  0  0  0  0  0  0
    0.5904   -0.9874   -1.2136 H   0  0  0  0  0  0  0  0  0  0  0  0
   -1.6529    1.0122   -1.3978 H   0  0  0  0  0  0  0  0  0  0  0  0
    2.6838   -2.2344   -1.5754 H   0  0  0  0  0  0  0  0  0  0  0  0
   -1.8511    1.1332    1.0035 H   0  0  0  0  0  0  0  0  0  0  0  0
   -1.0041   -0.4228    1.0933 H   0  0  0  0  0  0  0  0  0  0  0  0
    0.3115    1.7645    1.3825 H   0  0  0  0  0  0  0  0  0  0  0  0
    4.8289    1.1803    1.8209 H   0  0  0  0  0  0  0  0  0  0  0  0
    5.6432   -1.2427    0.1057 H   0  0  0  0  0  0  0  0  0  0  0  0
    0.8056    2.1399   -1.2251 H   0  0  0  0  0  0  0  0  0  0  0  0
   -3.2423   -0.6835   -1.8955 H   0  0  0  0  0  0  0  0  0  0  0  0
   -4.0015    1.5487   -1.0842 H   0  0  0  0  0  0  0  0  0  0  0  0
   -5.1090    0.2417   -0.6484 H   0  0  0  0  0  0  0  0  0  0  0  0
   -4.0425    0.9325    0.5786 H   0  0  0  0  0  0  0  0  0  0  0  0
   -2.4234   -2.4002   -0.2786 H   0  0  0  0  0  0  0  0  0  0  0  0
   -3.1055   -1.4550    1.0601 H   0  0  0  0  0  0  0  0  0  0  0  0
   -4.1662   -2.1266   -0.1833 H   0  0  0  0  0  0  0  0  0  0  0  0
    1.0233    0.8862    1.2981 H   0  0  0  0  0  0  0  0  0  0  0  0
   -1.2480    0.6840   -1.2262 H   0  0  0  0  0  0  0  0  0  0  0  0
    2.1867    1.6348    1.2820 H   0  0  0  0  0  0  0  0  0  0  0  0
    1.2044   -1.6775   -1.3185 H   0  0  0  0  0  0  0  0  0  0  0  0
   -2.1236    1.7210   -0.5735 H   0  0  0  0  0  0  0  0  0  0  0  0
    3.6019   -2.0253   -1.7733 H   0  0  0  0  0  0  0  0  0  0  0  0
   -0.4502    0.5813   -1.7525 H   0  0  0  0  0  0  0  0  0  0  0  0
   -1.0292   -0.9550   -1.1419 H   0  0  0  0  0  0  0  0  0  0  0  0
   -0.0653    1.2765    0.7277 H   0  0  0  0  0  0  0  0  0  0  0  0
    4.4042    1.9986    1.5384 H   0  0  0  0  0  0  0  0  0  0  0  0
    6.0144    0.0798   -0.2564 H   0  0  0  0  0  0  0  0  0  0  0  0
    0.3735   -1.3208    1.4605 H   0  0  0  0  0  0  0  0  0  0  0  0
   -2.6225    0.2686    1.2842 H   0  0  0  0  0  0  0  0  0  0  0  0
   -5.0677    0.6133    1.1205 H   0  0  0  0  0  0  0  0  0  0  0  0
   -4.1802    2.0364    0.5709 H   0  0  0  0  0  0  0  0  0  0  0  0
   -4.9227    0.9454   -0.6127 H   0  0  0  0  0  0  0  0  0  0  0  0
   -4.1733   -1.6625    0.8068 H   0  0  0  0  0  0  0  0  0  0  0  0
   -3.8839   -1.4644   -0.9283 H   0  0  0  0  0  0  0  0  0  0  0  0
   -2.5645   -1.9536    0.1540 H   0  0  0  0  0  0  0  0  0  0  0  0
    0.7416   -0.2687    0.0000 H   0  0  0  0  0  0  0  0  0  0  0  0
   -0.7784   -0.1276    0.0000 H   0  0  0  0  0  0  0  0  0  0  0  0
    0.7885    0.0274    0.0000 H   0  0  0  0  0  0  0  0  0  0  0  0
   -0.6752   -0.4086    0.0000 H   0  0  0  0  0  0  0  0  0  0  0  0
  2  1  2  0
  3  1  1  0
  4  2  1  0
  5  3  2  0
  6  8  1  0
  7  5  1  0
  8  9  1  0
  9  3  1  0
 10  2  1  0
 11  4  1  0
 12  9  1  0
 13  6  1  0
 14 13  1  0
 15 13  1  0
  7  4  2  0
 17 16  2  0
 18 16  2  0
 19 16  1  0
 20 16  1  0
 22 21  2  0
 23 21  1  0
 24 22  1  0
 25 23  2  0
 26 28  1  0
 27 25  1  0
 28 29  1  0
 29 23  1  0
 30 22  1  0
 31 24  1  0
 32 29  1  0
 33 26  1  0
 34 33  1  0
 35 33  1  0
 27 24  2  0
  1 38  1  0
  5 39  1  0
  6 40  1  0
  7 41  1  0
  8 42  1  0
  8 43  1  0
  9 44  1  1
 10 45  1  0
 11 46  1  0
 12 47  1  0
 13 48  1  0
 14 49  1  0
 14 50  1  0
 14 51  1  0
 15 52  1  0
 15 53  1  0
 15 54  1  0
 19 55  1  0
 20 56  1  0
 21 57  1  0
 25 58  1  0
 26 59  1  0
 27 60  1  0
 28 61  1  0
 28 62  1  0
 29 63  1  1
 30 64  1  0
 31 65  1  0
 32 66  1  0
 33 67  1  0
 34 68  1  0
 34 69  1  0
 34 70  1  0
 35 71  1  0
 35 72  1  0
 35 73  1  0
 36 74  1  0
 36 75  1  0
 37 76  1  0
 37 77  1  0
M  END
$$$$
