
     RDKit          3D

 37 34  0  0  0  0  0  0  0  0999 V2000
    1.3923    0.0080   -1.1683 C   0  0  0  0  0  0  0  0  0  0  0  0
    2.6167    0.5458   -0.8220 C   0  0  0  0  0  0  0  0  0  0  0  0
    0.5942   -0.5248   -0.1498 C   0  0  0  0  0  0  0  0  0  0  0  0
    3.0498    0.5598    0.5031 C   0  0  0  0  0  0  0  0  0  0  0  0
    1.0311   -0.5068    1.1597 C   0  0  0  0  0  0  0  0  0  0  0  0
   -3.0715   -0.7194   -0.3889 N   0  0  0  0  0  0  0  0  0  0  0  0
    2.2654    0.0339    1.5189 C   0  0  0  0  0  0  0  0  0  0  0  0
   -1.7865   -0.1416   -0.0690 C   0  0  0  0  0  0  0  0  0  0  0  0
   -0.7161   -1.0946   -0.5595 C   0  0  0  0  0  0  0  0  0  0  0  0
    3.4005    1.0729   -1.8481 O   0  0  0  0  0  0  0  0  0  0  0  0
    4.3037    1.1230    0.7722 O   0  0  0  0  0  0  0  0  0  0  0  0
   -0.8840   -2.3174    0.0882 O   0  0  0  0  0  0  0  0  0  0  0  0
   -4.1072    0.1524    0.0592 C   0  0  0  0  0  0  0  0  0  0  0  0
   -3.9460    1.4809   -0.6429 C   0  0  0  0  0  0  0  0  0  0  0  0
   -4.1426    0.3279    1.5471 C   0  0  0  0  0  0  0  0  0  0  0  0
   -0.0039   -0.0325    0.0097 S   0  0  0  0  0  0  0  0  0  0  0  0
    0.0463   -0.9636   -1.1663 O   0  0  0  0  0  0  0  0  0  0  0  0
   -0.1966   -0.8370    1.2591 O   0  0  0  0  0  0  0  0  0  0  0  0
    1.4417    0.8169    0.0628 O   0  0  0  0  0  0  0  0  0  0  0  0
   -1.2875    1.0161   -0.1654 O   0  0  0  0  0  0  0  0  0  0  0  0
   -1.0332    0.5549    0.5039 C   0  0  0  0  0  0  0  0  0  0  0  0
   -2.2353    0.4524    1.1865 C   0  0  0  0  0  0  0  0  0  0  0  0
   -0.4501   -0.5116   -0.1548 C   0  0  0  0  0  0  0  0  0  0  0  0
   -2.8855   -0.7661    1.2141 C   0  0  0  0  0  0  0  0  0  0  0  0
   -1.1351   -1.7331   -0.1070 C   0  0  0  0  0  0  0  0  0  0  0  0
    3.1728   -0.0801   -0.8524 N   0  0  0  0  0  0  0  0  0  0  0  0
   -2.3350   -1.8671    0.5648 C   0  0  0  0  0  0  0  0  0  0  0  0
    2.0480   -0.6321   -0.0769 C   0  0  0  0  0  0  0  0  0  0  0  0
    0.8202   -0.3934   -0.8793 C   0  0  0  0  0  0  0  0  0  0  0  0
   -2.7424    1.5893    1.8207 O   0  0  0  0  0  0  0  0  0  0  0  0
   -4.0996   -0.8603    1.9059 O   0  0  0  0  0  0  0  0  0  0  0  0
    0.8302   -0.9989   -2.1337 O   0  0  0  0  0  0  0  0  0  0  0  0
    2.9869    1.3728   -0.8506 C   0  0  0  0  0  0  0  0  0  0  0  0
    3.0149    1.8639    0.5672 C   0  0  0  0  0  0  0  0  0  0  0  0
    4.0430    2.0092   -1.7152 C   0  0  0  0  0  0  0  0  0  0  0  0
    0.0000    0.0000    0.0000 O   0  0  0  0  0  0  0  0  0  0  0  0
    0.0000    0.0000    0.0000 O   0  0  0  0  0  0  0  0  0  0  0  0
  2  1  2  0
  3  1  1  0
  4  2  1  0
  5  3  2  0
  6  8  1  0
  7  5  1  0
  8  9  1  0
  9  3  1  0
 10  2  1  0
 11  4  1  0
 12  9  1  0
 13  6  1  0
 14 13  1  0
 15 13  1  0
  7  4  2  0
 17 16  2  0
 18 16  2  0
 19 16  1  0
 20 16  1  0
 22 21  2  0
 23 21  1  0
 24 22  1  0
 25 23  2  0
 26 28  1  0
 27 25  1  0
 28 29  1  0
 29 23  1  0
 30 22  1  0
 31 24  1  0
 32 29  1  0
 33 26  1  0
 34 33  1  0
 35 33  1  0
 27 24  2  0
M  END
