
     RDKit          3D

 77 74  0  0  0  0  0  0  0  0999 V2000
    2.6401   -0.1585    0.5943 C   0  0  0  0  0  0  0  0  0  0  0  0
    3.6507    0.5851   -0.0041 C   0  0  0  0  0  0  0  0  0  0  0  0
    1.3854   -0.2683   -0.0328 C   0  0  0  0  0  0  0  0  0  0  0  0
    3.4261    1.2371   -1.2117 C   0  0  0  0  0  0  0  0  0  0  0  0
    1.1772    0.4060   -1.2514 C   0  0  0  0  0  0  0  0  0  0  0  0
   -1.6137    0.6818    0.6620 N   0  0  0  0  0  0  0  0  0  0  0  0
    2.1953    1.1557   -1.8420 C   0  0  0  0  0  0  0  0  0  0  0  0
   -0.7392   -0.2356    1.4052 C   0  0  0  0  0  0  0  0  0  0  0  0
    0.2579   -1.0847    0.5724 C   0  0  2  0  0  0  0  0  0  0  0  0
    4.8924    0.6976    0.5598 O   0  0  0  0  0  0  0  0  0  0  0  0
    4.4271    1.9592   -1.7939 O   0  0  0  0  0  0  0  0  0  0  0  0
    0.8049   -2.1084    1.4180 O   0  0  0  0  0  0  0  0  0  0  0  0
   -2.6209    0.0410   -0.1903 C   0  0  0  0  0  0  0  0  0  0  0  0
   -3.2465    1.1303   -1.0658 C   0  0  0  0  0  0  0  0  0  0  0  0
   -3.7127   -0.6679    0.6141 C   0  0  0  0  0  0  0  0  0  0  0  0
    0.0248    0.4511    0.0826 S   0  0  0  0  0  0  0  0  0  0  0  0
    0.4241    1.3142   -0.9994 O   0  0  0  0  0  0  0  0  0  0  0  0
   -0.2840    0.9166    1.4108 O   0  0  0  0  0  0  0  0  0  0  0  0
   -1.2371   -0.4149   -0.3998 O   0  0  0  0  0  0  0  0  0  0  0  0
    1.1525   -0.6843    0.1956 O   0  0  0  0  0  0  0  0  0  0  0  0
    2.0255    0.3010   -1.0319 C   0  0  0  0  0  0  0  0  0  0  0  0
    3.1002    0.9419   -0.4246 C   0  0  0  0  0  0  0  0  0  0  0  0
    1.2630   -0.6289   -0.3032 C   0  0  0  0  0  0  0  0  0  0  0  0
    3.4355    0.6576    0.8956 C   0  0  0  0  0  0  0  0  0  0  0  0
    1.6225   -0.9087    1.0294 C   0  0  0  0  0  0  0  0  0  0  0  0
   -1.5750    0.6040   -0.5571 N   0  0  0  0  0  0  0  0  0  0  0  0
    2.7085   -0.2667    1.6283 C   0  0  0  0  0  0  0  0  0  0  0  0
   -1.0193   -0.3858   -1.4844 C   0  0  0  0  0  0  0  0  0  0  0  0
    0.0782   -1.3368   -0.9296 C   0  0  1  0  0  0  0  0  0  0  0  0
    3.8593    1.8648   -1.0900 O   0  0  0  0  0  0  0  0  0  0  0  0
    4.4928    1.2914    1.4828 O   0  0  0  0  0  0  0  0  0  0  0  0
    0.5829   -2.1527   -1.9918 O   0  0  0  0  0  0  0  0  0  0  0  0
   -2.8258    0.2189    0.0969 C   0  0  0  0  0  0  0  0  0  0  0  0
   -2.6553   -0.9038    1.1205 C   0  0  0  0  0  0  0  0  0  0  0  0
   -3.3909    1.4652    0.7848 C   0  0  0  0  0  0  0  0  0  0  0  0
    0.0415    0.3960    0.0000 O   0  0  0  0  0  0  0  0  0  0  0  0
   -0.0061    0.3981    0.0000 O   0  0  0  0  0  0  0  0  0  0  0  0
    2.8106   -0.6643    1.5396 H   0  0  0  0  0  0  0  0  0  0  0  0
    0.2099    0.3488   -1.7495 H   0  0  0  0  0  0  0  0  0  0  0  0
   -2.0716    1.3122    1.3202 H   0  0  0  0  0  0  0  0  0  0  0  0
    2.0300    1.6676   -2.7836 H   0  0  0  0  0  0  0  0  0  0  0  0
   -1.3441   -0.8983    2.0374 H   0  0  0  0  0  0  0  0  0  0  0  0
   -0.1577    0.3662    2.1174 H   0  0  0  0  0  0  0  0  0  0  0  0
   -0.2566   -1.6165   -0.2360 H   0  0  0  0  0  0  0  0  0  0  0  0
    4.9188    0.0972    1.3270 H   0  0  0  0  0  0  0  0  0  0  0  0
    5.1847    1.8561   -1.1860 H   0  0  0  0  0  0  0  0  0  0  0  0
    0.1216   -2.7976    1.4858 H   0  0  0  0  0  0  0  0  0  0  0  0
   -2.1490   -0.6807   -0.8653 H   0  0  0  0  0  0  0  0  0  0  0  0
   -3.9695    0.6962   -1.7653 H   0  0  0  0  0  0  0  0  0  0  0  0
   -3.7702    1.8805   -0.4612 H   0  0  0  0  0  0  0  0  0  0  0  0
   -2.4824    1.6472   -1.6593 H   0  0  0  0  0  0  0  0  0  0  0  0
   -3.3138   -1.5225    1.1695 H   0  0  0  0  0  0  0  0  0  0  0  0
   -4.4939   -1.0510   -0.0545 H   0  0  0  0  0  0  0  0  0  0  0  0
   -4.1909    0.0110    1.3302 H   0  0  0  0  0  0  0  0  0  0  0  0
   -1.6414   -0.8081    0.4008 H   0  0  0  0  0  0  0  0  0  0  0  0
    1.5611   -0.7745   -0.6907 H   0  0  0  0  0  0  0  0  0  0  0  0
    1.7740    0.5052   -2.0687 H   0  0  0  0  0  0  0  0  0  0  0  0
    1.0625   -1.6385    1.6112 H   0  0  0  0  0  0  0  0  0  0  0  0
   -0.8735    0.8896    0.1285 H   0  0  0  0  0  0  0  0  0  0  0  0
    2.9864   -0.4886    2.6547 H   0  0  0  0  0  0  0  0  0  0  0  0
   -1.8158   -0.9856   -1.9444 H   0  0  0  0  0  0  0  0  0  0  0  0
   -0.5929    0.1742   -2.3274 H   0  0  0  0  0  0  0  0  0  0  0  0
   -0.3648   -2.0189   -0.1956 H   0  0  0  0  0  0  0  0  0  0  0  0
    3.4878    1.9621   -1.9855 H   0  0  0  0  0  0  0  0  0  0  0  0
    4.8206    1.9054    0.7937 H   0  0  0  0  0  0  0  0  0  0  0  0
   -0.1411   -2.7395   -2.2684 H   0  0  0  0  0  0  0  0  0  0  0  0
   -3.5566   -0.0941   -0.6607 H   0  0  0  0  0  0  0  0  0  0  0  0
   -3.5799   -1.0554    1.6890 H   0  0  0  0  0  0  0  0  0  0  0  0
   -1.8586   -0.6789    1.8373 H   0  0  0  0  0  0  0  0  0  0  0  0
   -2.4231   -1.8546    0.6323 H   0  0  0  0  0  0  0  0  0  0  0  0
   -4.3545    1.2434    1.2559 H   0  0  0  0  0  0  0  0  0  0  0  0
   -3.5566    2.2711    0.0593 H   0  0  0  0  0  0  0  0  0  0  0  0
   -2.7160    1.8416    1.5631 H   0  0  0  0  0  0  0  0  0  0  0  0
   -0.7795   -0.1186    0.0000 H   0  0  0  0  0  0  0  0  0  0  0  0
    0.7381   -0.2774    0.0000 H   0  0  0  0  0  0  0  0  0  0  0  0
    0.7662   -0.1874    0.0000 H   0  0  0  0  0  0  0  0  0  0  0  0
   -0.7601   -0.2107    0.0000 H   0  0  0  0  0  0  0  0  0  0  0  0
  2  1  2  0
  3  1  1  0
  4  2  1  0
  5  3  2  0
  6  8  1  0
  7  5  1  0
  8  9  1  0
  9  3  1  0
 10  2  1  0
 11  4  1  0
 12  9  1  0
 13  6  1  0
 14 13  1  0
 15 13  1  0
  7  4  2  0
 17 16  2  0
 18 16  2  0
 19 16  1  0
 20 16  1  0
 22 21  2  0
 23 21  1  0
 24 22  1  0
 25 23  2  0
 26 28  1  0
 27 25  1  0
 28 29  1  0
 29 23  1  0
 30 22  1  0
 31 24  1  0
 32 29  1  0
 33 26  1  0
 34 33  1  0
 35 33  1  0
 27 24  2  0
  1 38  1  0
  5 39  1  0
  6 40  1  0
  7 41  1  0
  8 42  1  0
  8 43  1  0
  9 44  1  6
 10 45  1  0
 11 46  1  0
 12 47  1  0
 13 48  1  0
 14 49  1  0
 14 50  1  0
 14 51  1  0
 15 52  1  0
 15 53  1  0
 15 54  1  0
 19 55  1  0
 20 56  1  0
 21 57  1  0
 25 58  1  0
 26 59  1  0
 27 60  1  0
 28 61  1  0
 28 62  1  0
 29 63  1  1
 30 64  1  0
 31 65  1  0
 32 66  1  0
 33 67  1  0
 34 68  1  0
 34 69  1  0
 34 70  1  0
 35 71  1  0
 35 72  1  0
 35 73  1  0
 36 74  1  0
 36 75  1  0
 37 76  1  0
 37 77  1  0
M  END
$$$$
