
     RDKit          3D

 77 74  0  0  0  0  0  0  0  0999 V2000
    2.1769   -0.6727    0.2327 C   0  0  0  0  0  0  0  0  0  0  0  0
    3.1360    0.0772    0.9053 C   0  0  0  0  0  0  0  0  0  0  0  0
    1.4483   -0.0894   -0.8206 C   0  0  0  0  0  0  0  0  0  0  0  0
    3.3772    1.3990    0.5420 C   0  0  0  0  0  0  0  0  0  0  0  0
    1.7060    1.2477   -1.1742 C   0  0  0  0  0  0  0  0  0  0  0  0
   -1.5926    0.0563   -0.3008 N   0  0  0  0  0  0  0  0  0  0  0  0
    2.6713    1.9916   -0.4931 C   0  0  0  0  0  0  0  0  0  0  0  0
   -0.8768   -1.1659   -0.7049 C   0  0  0  0  0  0  0  0  0  0  0  0
    0.3830   -0.8776   -1.5602 C   0  0  2  0  0  0  0  0  0  0  0  0
    3.8676   -0.4428    1.9366 O   0  0  0  0  0  0  0  0  0  0  0  0
    4.3178    2.1291    1.2101 O   0  0  0  0  0  0  0  0  0  0  0  0
    0.9517   -2.1182   -1.9915 O   0  0  0  0  0  0  0  0  0  0  0  0
   -2.7215   -0.2172    0.6000 C   0  0  0  0  0  0  0  0  0  0  0  0
   -3.1711    1.1086    1.2213 C   0  0  0  0  0  0  0  0  0  0  0  0
   -3.8965   -0.8625   -0.1359 C   0  0  0  0  0  0  0  0  0  0  0  0
   -0.0091    0.4007    0.2134 S   0  0  0  0  0  0  0  0  0  0  0  0
   -0.7559    0.5042    1.4414 O   0  0  0  0  0  0  0  0  0  0  0  0
    0.7538    1.4816   -0.3567 O   0  0  0  0  0  0  0  0  0  0  0  0
    0.9975   -0.8417    0.3393 O   0  0  0  0  0  0  0  0  0  0  0  0
   -1.0311   -0.1423   -0.8981 O   0  0  0  0  0  0  0  0  0  0  0  0
   -2.8888   -0.7157   -0.6202 C   0  0  0  0  0  0  0  0  0  0  0  0
   -3.9405   -0.1691    0.1022 C   0  0  0  0  0  0  0  0  0  0  0  0
   -1.5711   -0.2739   -0.3969 C   0  0  0  0  0  0  0  0  0  0  0  0
   -3.7119    0.8131    1.0596 C   0  0  0  0  0  0  0  0  0  0  0  0
   -1.3557    0.7124    0.5816 C   0  0  0  0  0  0  0  0  0  0  0  0
    1.6917   -0.2790   -0.0417 N   0  0  0  0  0  0  0  0  0  0  0  0
   -2.4212    1.2589    1.3071 C   0  0  0  0  0  0  0  0  0  0  0  0
    0.9018   -0.1630   -1.2832 C   0  0  0  0  0  0  0  0  0  0  0  0
   -0.4547   -0.9160   -1.2025 C   0  0  1  0  0  0  0  0  0  0  0  0
   -5.2121   -0.6080   -0.1344 O   0  0  0  0  0  0  0  0  0  0  0  0
   -4.7916    1.3075    1.7365 O   0  0  0  0  0  0  0  0  0  0  0  0
   -0.2122   -2.2401   -0.7034 O   0  0  0  0  0  0  0  0  0  0  0  0
    2.9911    0.3949   -0.1193 C   0  0  0  0  0  0  0  0  0  0  0  0
    4.0102   -0.3895   -0.9482 C   0  0  0  0  0  0  0  0  0  0  0  0
    3.5079    0.5644    1.3111 C   0  0  0  0  0  0  0  0  0  0  0  0
   -0.0532    0.3944    0.0000 O   0  0  0  0  0  0  0  0  0  0  0  0
   -0.0459    0.3952    0.0000 O   0  0  0  0  0  0  0  0  0  0  0  0
    1.9827   -1.7053    0.5104 H   0  0  0  0  0  0  0  0  0  0  0  0
    1.1483    1.7220   -1.9803 H   0  0  0  0  0  0  0  0  0  0  0  0
   -0.9306    0.6716    0.1769 H   0  0  0  0  0  0  0  0  0  0  0  0
    2.8681    3.0247   -0.7654 H   0  0  0  0  0  0  0  0  0  0  0  0
   -0.5893   -1.7480    0.1806 H   0  0  0  0  0  0  0  0  0  0  0  0
   -1.5360   -1.8107   -1.2974 H   0  0  0  0  0  0  0  0  0  0  0  0
    0.0836   -0.3419   -2.4695 H   0  0  0  0  0  0  0  0  0  0  0  0
    3.5975   -1.3692    2.0626 H   0  0  0  0  0  0  0  0  0  0  0  0
    4.6636    1.5160    1.8899 H   0  0  0  0  0  0  0  0  0  0  0  0
    1.8129   -1.9020   -2.3899 H   0  0  0  0  0  0  0  0  0  0  0  0
   -2.3998   -0.8743    1.4179 H   0  0  0  0  0  0  0  0  0  0  0  0
   -4.0062    0.9494    1.9131 H   0  0  0  0  0  0  0  0  0  0  0  0
   -2.3570    1.5740    1.7889 H   0  0  0  0  0  0  0  0  0  0  0  0
   -3.4996    1.8207    0.4555 H   0  0  0  0  0  0  0  0  0  0  0  0
   -3.6364   -1.8497   -0.5286 H   0  0  0  0  0  0  0  0  0  0  0  0
   -4.2331   -0.2417   -0.9727 H   0  0  0  0  0  0  0  0  0  0  0  0
   -4.7461   -0.9986    0.5413 H   0  0  0  0  0  0  0  0  0  0  0  0
    1.7246   -0.6872   -0.3002 H   0  0  0  0  0  0  0  0  0  0  0  0
   -1.6799   -0.7153   -0.4391 H   0  0  0  0  0  0  0  0  0  0  0  0
   -3.0966   -1.4888   -1.3564 H   0  0  0  0  0  0  0  0  0  0  0  0
   -0.3511    1.0699    0.8010 H   0  0  0  0  0  0  0  0  0  0  0  0
    1.8223   -1.2755    0.1489 H   0  0  0  0  0  0  0  0  0  0  0  0
   -2.2180    2.0183    2.0553 H   0  0  0  0  0  0  0  0  0  0  0  0
    0.7311    0.8894   -1.5379 H   0  0  0  0  0  0  0  0  0  0  0  0
    1.4717   -0.6185   -2.1009 H   0  0  0  0  0  0  0  0  0  0  0  0
   -0.8119   -1.0276   -2.2342 H   0  0  0  0  0  0  0  0  0  0  0  0
   -5.7654   -0.0907    0.4847 H   0  0  0  0  0  0  0  0  0  0  0  0
   -4.4717    1.9838    2.3586 H   0  0  0  0  0  0  0  0  0  0  0  0
   -0.4882   -2.2340    0.2306 H   0  0  0  0  0  0  0  0  0  0  0  0
    2.8678    1.3971   -0.5482 H   0  0  0  0  0  0  0  0  0  0  0  0
    4.9844    0.1106   -0.9302 H   0  0  0  0  0  0  0  0  0  0  0  0
    3.7047   -0.4688   -1.9954 H   0  0  0  0  0  0  0  0  0  0  0  0
    4.1495   -1.4032   -0.5570 H   0  0  0  0  0  0  0  0  0  0  0  0
    2.8045    1.1483    1.9151 H   0  0  0  0  0  0  0  0  0  0  0  0
    4.4658    1.0956    1.3158 H   0  0  0  0  0  0  0  0  0  0  0  0
    3.6580   -0.4029    1.8043 H   0  0  0  0  0  0  0  0  0  0  0  0
    0.7830   -0.0951    0.0000 H   0  0  0  0  0  0  0  0  0  0  0  0
   -0.7297   -0.2992    0.0000 H   0  0  0  0  0  0  0  0  0  0  0  0
    0.7812   -0.1098    0.0000 H   0  0  0  0  0  0  0  0  0  0  0  0
   -0.7353   -0.2854    0.0000 H   0  0  0  0  0  0  0  0  0  0  0  0
  2  1  2  0
  3  1  1  0
  4  2  1  0
  5  3  2  0
  6  8  1  0
  7  5  1  0
  8  9  1  0
  9  3  1  0
 10  2  1  0
 11  4  1  0
 12  9  1  0
 13  6  1  0
 14 13  1  0
 15 13  1  0
  7  4  2  0
 17 16  2  0
 18 16  2  0
 19 16  1  0
 20 16  1  0
 22 21  2  0
 23 21  1  0
 24 22  1  0
 25 23  2  0
 26 28  1  0
 27 25  1  0
 28 29  1  0
 29 23  1  0
 30 22  1  0
 31 24  1  0
 32 29  1  0
 33 26  1  0
 34 33  1  0
 35 33  1  0
 27 24  2  0
  1 38  1  0
  5 39  1  0
  6 40  1  0
  7 41  1  0
  8 42  1  0
  8 43  1  0
  9 44  1  6
 10 45  1  0
 11 46  1  0
 12 47  1  0
 13 48  1  0
 14 49  1  0
 14 50  1  0
 14 51  1  0
 15 52  1  0
 15 53  1  0
 15 54  1  0
 19 55  1  0
 20 56  1  0
 21 57  1  0
 25 58  1  0
 26 59  1  0
 27 60  1  0
 28 61  1  0
 28 62  1  0
 29 63  1  6
 30 64  1  0
 31 65  1  0
 32 66  1  0
 33 67  1  0
 34 68  1  0
 34 69  1  0
 34 70  1  0
 35 71  1  0
 35 72  1  0
 35 73  1  0
 36 74  1  0
 36 75  1  0
 37 76  1  0
 37 77  1  0
M  END
$$$$
