
     RDKit          3D

 77 74  0  0  0  0  0  0  0  0999 V2000
    2.1767   -0.9543    0.0087 C   0  0  0  0  0  0  0  0  0  0  0  0
    3.4105   -1.1259    0.6349 C   0  0  0  0  0  0  0  0  0  0  0  0
    1.7070    0.3370   -0.2884 C   0  0  0  0  0  0  0  0  0  0  0  0
    4.1865   -0.0184    0.9732 C   0  0  0  0  0  0  0  0  0  0  0  0
    2.4973    1.4436    0.0596 C   0  0  0  0  0  0  0  0  0  0  0  0
   -2.1012    0.5639   -0.6387 N   0  0  0  0  0  0  0  0  0  0  0  0
    3.7338    1.2673    0.6875 C   0  0  0  0  0  0  0  0  0  0  0  0
   -0.8138    0.2765    0.0151 C   0  0  0  0  0  0  0  0  0  0  0  0
    0.3622    0.5404   -0.9558 C   0  0  2  0  0  0  0  0  0  0  0  0
    3.8701   -2.3810    0.9205 O   0  0  0  0  0  0  0  0  0  0  0  0
    5.3922   -0.2066    1.5882 O   0  0  0  0  0  0  0  0  0  0  0  0
    0.2551   -0.3385   -2.0856 O   0  0  0  0  0  0  0  0  0  0  0  0
   -3.2604    0.2133    0.1860 C   0  0  0  0  0  0  0  0  0  0  0  0
   -4.4797    0.9308   -0.3974 C   0  0  0  0  0  0  0  0  0  0  0  0
   -3.5176   -1.2948    0.2232 C   0  0  0  0  0  0  0  0  0  0  0  0
    0.1943    0.4079    0.0386 S   0  0  0  0  0  0  0  0  0  0  0  0
    0.0987    1.3132   -1.0783 O   0  0  0  0  0  0  0  0  0  0  0  0
    0.8754    0.7209    1.2692 O   0  0  0  0  0  0  0  0  0  0  0  0
    0.8156   -0.9759   -0.4836 O   0  0  0  0  0  0  0  0  0  0  0  0
   -1.3061   -0.0381    0.3895 O   0  0  0  0  0  0  0  0  0  0  0  0
    2.5660   -1.1589   -0.3127 C   0  0  0  0  0  0  0  0  0  0  0  0
    3.9047   -0.7850   -0.2584 C   0  0  0  0  0  0  0  0  0  0  0  0
    1.5715   -0.3259    0.2418 C   0  0  0  0  0  0  0  0  0  0  0  0
    4.2750    0.4094    0.3470 C   0  0  0  0  0  0  0  0  0  0  0  0
    1.9700    0.8797    0.8472 C   0  0  0  0  0  0  0  0  0  0  0  0
   -2.3199   -0.3616    0.6923 N   0  0  0  0  0  0  0  0  0  0  0  0
    3.3196    1.2460    0.8995 C   0  0  0  0  0  0  0  0  0  0  0  0
   -0.9429    0.1672    0.7734 C   0  0  0  0  0  0  0  0  0  0  0  0
    0.1251   -0.7869    0.1655 C   0  0  1  0  0  0  0  0  0  0  0  0
    4.8949   -1.5641   -0.7899 O   0  0  0  0  0  0  0  0  0  0  0  0
    5.5899    0.7710    0.4019 O   0  0  0  0  0  0  0  0  0  0  0  0
   -0.1932   -1.0267   -1.2133 O   0  0  0  0  0  0  0  0  0  0  0  0
   -3.1205    0.2652   -0.3688 C   0  0  0  0  0  0  0  0  0  0  0  0
   -3.6130    1.6475    0.0664 C   0  0  0  0  0  0  0  0  0  0  0  0
   -4.3232   -0.6330   -0.6738 C   0  0  0  0  0  0  0  0  0  0  0  0
   -0.0051    0.3978    0.0000 O   0  0  0  0  0  0  0  0  0  0  0  0
   -0.0224    0.3972    0.0000 O   0  0  0  0  0  0  0  0  0  0  0  0
    1.5698   -1.8165   -0.2565 H   0  0  0  0  0  0  0  0  0  0  0  0
    2.1533    2.4538   -0.1537 H   0  0  0  0  0  0  0  0  0  0  0  0
   -2.1237    0.0535   -1.5260 H   0  0  0  0  0  0  0  0  0  0  0  0
    4.3251    2.1399    0.9471 H   0  0  0  0  0  0  0  0  0  0  0  0
   -0.7060    0.9050    0.9070 H   0  0  0  0  0  0  0  0  0  0  0  0
   -0.7826   -0.7726    0.3301 H   0  0  0  0  0  0  0  0  0  0  0  0
    0.2938    1.5631   -1.3478 H   0  0  0  0  0  0  0  0  0  0  0  0
    3.2130   -3.0328    0.6311 H   0  0  0  0  0  0  0  0  0  0  0  0
    5.8093    0.6555    1.7386 H   0  0  0  0  0  0  0  0  0  0  0  0
    1.1046   -0.2843   -2.5580 H   0  0  0  0  0  0  0  0  0  0  0  0
   -3.1167    0.5822    1.2095 H   0  0  0  0  0  0  0  0  0  0  0  0
   -4.6954    0.5977   -1.4191 H   0  0  0  0  0  0  0  0  0  0  0  0
   -5.3692    0.7403    0.2129 H   0  0  0  0  0  0  0  0  0  0  0  0
   -4.3225    2.0149   -0.4198 H   0  0  0  0  0  0  0  0  0  0  0  0
   -4.4321   -1.5136    0.7853 H   0  0  0  0  0  0  0  0  0  0  0  0
   -3.6383   -1.7060   -0.7858 H   0  0  0  0  0  0  0  0  0  0  0  0
   -2.7010   -1.8334    0.7134 H   0  0  0  0  0  0  0  0  0  0  0  0
    1.1496   -1.4568    0.3019 H   0  0  0  0  0  0  0  0  0  0  0  0
   -1.8275    0.0288   -0.4372 H   0  0  0  0  0  0  0  0  0  0  0  0
    2.2724   -2.0948   -0.7823 H   0  0  0  0  0  0  0  0  0  0  0  0
    1.2477    1.5570    1.2952 H   0  0  0  0  0  0  0  0  0  0  0  0
   -2.2644   -1.3671    0.5095 H   0  0  0  0  0  0  0  0  0  0  0  0
    3.6218    2.1770    1.3700 H   0  0  0  0  0  0  0  0  0  0  0  0
   -0.8740    1.1514    0.2942 H   0  0  0  0  0  0  0  0  0  0  0  0
   -0.7194    0.3133    1.8377 H   0  0  0  0  0  0  0  0  0  0  0  0
    0.0567   -1.7520    0.6849 H   0  0  0  0  0  0  0  0  0  0  0  0
    4.4779   -2.3313   -1.2183 H   0  0  0  0  0  0  0  0  0  0  0  0
    6.0618    0.0460   -0.0553 H   0  0  0  0  0  0  0  0  0  0  0  0
    0.0831   -0.2324   -1.7036 H   0  0  0  0  0  0  0  0  0  0  0  0
   -2.5328    0.3593   -1.2902 H   0  0  0  0  0  0  0  0  0  0  0  0
   -4.2440    2.0922   -0.7112 H   0  0  0  0  0  0  0  0  0  0  0  0
   -4.2083    1.5882    0.9848 H   0  0  0  0  0  0  0  0  0  0  0  0
   -2.7837    2.3392    0.2461 H   0  0  0  0  0  0  0  0  0  0  0  0
   -4.9419   -0.1953   -1.4654 H   0  0  0  0  0  0  0  0  0  0  0  0
   -4.9569   -0.7724    0.2096 H   0  0  0  0  0  0  0  0  0  0  0  0
   -3.9999   -1.6220   -1.0173 H   0  0  0  0  0  0  0  0  0  0  0  0
    0.7659   -0.1891    0.0000 H   0  0  0  0  0  0  0  0  0  0  0  0
   -0.7608   -0.2087    0.0000 H   0  0  0  0  0  0  0  0  0  0  0  0
    0.7734   -0.1556    0.0000 H   0  0  0  0  0  0  0  0  0  0  0  0
   -0.7510   -0.2416    0.0000 H   0  0  0  0  0  0  0  0  0  0  0  0
  2  1  2  0
  3  1  1  0
  4  2  1  0
  5  3  2  0
  6  8  1  0
  7  5  1  0
  8  9  1  0
  9  3  1  0
 10  2  1  0
 11  4  1  0
 12  9  1  0
 13  6  1  0
 14 13  1  0
 15 13  1  0
  7  4  2  0
 17 16  2  0
 18 16  2  0
 19 16  1  0
 20 16  1  0
 22 21  2  0
 23 21  1  0
 24 22  1  0
 25 23  2  0
 26 28  1  0
 27 25  1  0
 28 29  1  0
 29 23  1  0
 30 22  1  0
 31 24  1  0
 32 29  1  0
 33 26  1  0
 34 33  1  0
 35 33  1  0
 27 24  2  0
  1 38  1  0
  5 39  1  0
  6 40  1  0
  7 41  1  0
  8 42  1  0
  8 43  1  0
  9 44  1  6
 10 45  1  0
 11 46  1  0
 12 47  1  0
 13 48  1  0
 14 49  1  0
 14 50  1  0
 14 51  1  0
 15 52  1  0
 15 53  1  0
 15 54  1  0
 19 55  1  0
 20 56  1  0
 21 57  1  0
 25 58  1  0
 26 59  1  0
 27 60  1  0
 28 61  1  0
 28 62  1  0
 29 63  1  1
 30 64  1  0
 31 65  1  0
 32 66  1  0
 33 67  1  0
 34 68  1  0
 34 69  1  0
 34 70  1  0
 35 71  1  0
 35 72  1  0
 35 73  1  0
 36 74  1  0
 36 75  1  0
 37 76  1  0
 37 77  1  0
M  END
$$$$
