
     RDKit          3D

 18 17  0  0  0  0  0  0  0  0999 V2000
   46.0947    2.9767    7.9519 Na  0  0  0  0  0 15  0  0  0  0  0  0
   45.1015    4.5854    9.8771 C   0  0  0  0  0  0  0  0  0  0  0  0
   44.9188    3.9110   10.9329 O   0  0  0  0  0  0  0  0  0  0  0  0
   45.5866    5.7473    9.7430 O   0  0  0  0  0  0  0  0  0  0  0  0
   44.6080    3.9296    8.5879 C   0  0  0  0  0  0  0  0  0  0  0  0
   45.6809    3.1064    7.9197 C   0  0  0  0  0  0  0  0  0  0  0  0
   45.8429    1.7532    8.2422 C   0  0  0  0  0  0  0  0  0  0  0  0
   46.5474    3.6901    6.9870 C   0  0  0  0  0  0  0  0  0  0  0  0
   47.5404    2.9285    6.3686 C   0  0  0  0  0  0  0  0  0  0  0  0
   46.8359    0.9912    7.6241 C   0  0  0  0  0  0  0  0  0  0  0  0
   47.6816    1.5777    6.6835 C   0  0  0  0  0  0  0  0  0  0  0  0
   43.7365    3.2991    8.8056 H   0  0  0  0  0  0  0  0  0  0  0  0
   44.2466    4.7018    7.8968 H   0  0  0  0  0  0  0  0  0  0  0  0
   45.2016    1.3015    8.9964 H   0  0  0  0  0  0  0  0  0  0  0  0
   46.4559    4.7506    6.7611 H   0  0  0  0  0  0  0  0  0  0  0  0
   48.2099    3.3973    5.6541 H   0  0  0  0  0  0  0  0  0  0  0  0
   46.9546   -0.0543    7.8910 H   0  0  0  0  0  0  0  0  0  0  0  0
   48.4604    0.9880    6.2107 H   0  0  0  0  0  0  0  0  0  0  0  0
  3  2  1  0
  4  2  2  0
  5  2  1  0
  6  5  1  0
  7  6  2  0
  8  6  1  0
  9  8  2  0
 10  7  1  0
 11 10  2  0
 11  9  1  0
  5 12  1  0
  5 13  1  0
  7 14  1  0
  8 15  1  0
  9 16  1  0
 10 17  1  0
 11 18  1  0
M  CHG  2   1   1   3  -1
M  END
> <Uni-Dock RESULT> 
ENERGY=   -5.893  LOWER_BOUND=    0.000  UPPER_BOUND=    0.000
INTER + INTRA:          -5.893
INTER:                  -5.893
INTRA:                   0.000
UNBOUND:                 0.000

$$$$

     RDKit          3D

 18 17  0  0  0  0  0  0  0  0999 V2000
   45.7274    3.2202    8.3631 Na  0  0  0  0  0 15  0  0  0  0  0  0
   47.6199    2.0393    6.8451 C   0  0  0  0  0  0  0  0  0  0  0  0
   48.5514    2.8665    6.6190 O   0  0  0  0  0  0  0  0  0  0  0  0
   47.6948    0.8125    7.1490 O   0  0  0  0  0  0  0  0  0  0  0  0
   46.2033    2.5830    6.6630 C   0  0  0  0  0  0  0  0  0  0  0  0
   45.6403    3.1482    7.9433 C   0  0  0  0  0  0  0  0  0  0  0  0
   45.8382    4.4948    8.2735 C   0  0  0  0  0  0  0  0  0  0  0  0
   44.9345    2.3281    8.8326 C   0  0  0  0  0  0  0  0  0  0  0  0
   44.4136    2.8508   10.0174 C   0  0  0  0  0  0  0  0  0  0  0  0
   45.3175    5.0180    9.4583 C   0  0  0  0  0  0  0  0  0  0  0  0
   44.6009    4.1971   10.3281 C   0  0  0  0  0  0  0  0  0  0  0  0
   46.2025    3.3553    5.8833 H   0  0  0  0  0  0  0  0  0  0  0  0
   45.5482    1.7863    6.2881 H   0  0  0  0  0  0  0  0  0  0  0  0
   46.4209    5.1295    7.6089 H   0  0  0  0  0  0  0  0  0  0  0  0
   44.8118    1.2713    8.6045 H   0  0  0  0  0  0  0  0  0  0  0  0
   43.8763    2.2006   10.7007 H   0  0  0  0  0  0  0  0  0  0  0  0
   45.4867    6.0616    9.7045 H   0  0  0  0  0  0  0  0  0  0  0  0
   44.2050    4.6012   11.2543 H   0  0  0  0  0  0  0  0  0  0  0  0
  3  2  1  0
  4  2  2  0
  5  2  1  0
  6  5  1  0
  7  6  2  0
  8  6  1  0
  9  8  2  0
 10  7  1  0
 11 10  2  0
 11  9  1  0
  5 12  1  0
  5 13  1  0
  7 14  1  0
  8 15  1  0
  9 16  1  0
 10 17  1  0
 11 18  1  0
M  CHG  2   1   1   3  -1
M  END
> <Uni-Dock RESULT> 
ENERGY=   -4.958  LOWER_BOUND=    2.490  UPPER_BOUND=    4.144
INTER + INTRA:          -4.958
INTER:                  -4.958
INTRA:                   0.000
UNBOUND:                 0.000

$$$$

     RDKit          3D

 18 17  0  0  0  0  0  0  0  0999 V2000
   44.6263    4.2909   10.0181 Na  0  0  0  0  0 15  0  0  0  0  0  0
   43.0484    5.8871   11.5157 C   0  0  0  0  0  0  0  0  0  0  0  0
   43.0269    7.0477   11.0102 O   0  0  0  0  0  0  0  0  0  0  0  0
   42.0952    5.2042   11.9934 O   0  0  0  0  0  0  0  0  0  0  0  0
   44.4311    5.2452   11.6226 C   0  0  0  0  0  0  0  0  0  0  0  0
   44.7738    4.4229   10.4053 C   0  0  0  0  0  0  0  0  0  0  0  0
   45.4148    5.0108    9.3076 C   0  0  0  0  0  0  0  0  0  0  0  0
   44.4321    3.0660   10.3447 C   0  0  0  0  0  0  0  0  0  0  0  0
   44.7489    2.3049    9.2184 C   0  0  0  0  0  0  0  0  0  0  0  0
   45.7318    4.2500    8.1809 C   0  0  0  0  0  0  0  0  0  0  0  0
   45.4032    2.8957    8.1383 C   0  0  0  0  0  0  0  0  0  0  0  0
   45.1889    6.0251   11.7702 H   0  0  0  0  0  0  0  0  0  0  0  0
   44.4772    4.6169   12.5213 H   0  0  0  0  0  0  0  0  0  0  0  0
   45.6467    6.0737    9.3286 H   0  0  0  0  0  0  0  0  0  0  0  0
   43.8967    2.6107   11.1755 H   0  0  0  0  0  0  0  0  0  0  0  0
   44.4697    1.2564    9.1828 H   0  0  0  0  0  0  0  0  0  0  0  0
   46.2209    4.7220    7.3345 H   0  0  0  0  0  0  0  0  0  0  0  0
   45.6402    2.3066    7.2581 H   0  0  0  0  0  0  0  0  0  0  0  0
  3  2  1  0
  4  2  2  0
  5  2  1  0
  6  5  1  0
  7  6  2  0
  8  6  1  0
  9  8  2  0
 10  7  1  0
 11 10  2  0
 11  9  1  0
  5 12  1  0
  5 13  1  0
  7 14  1  0
  8 15  1  0
  9 16  1  0
 10 17  1  0
 11 18  1  0
M  CHG  2   1   1   3  -1
M  END
> <Uni-Dock RESULT> 
ENERGY=   -4.473  LOWER_BOUND=    2.286  UPPER_BOUND=    3.477
INTER + INTRA:          -4.473
INTER:                  -4.473
INTRA:                   0.000
UNBOUND:                 0.000

$$$$

     RDKit          3D

 18 17  0  0  0  0  0  0  0  0999 V2000
   46.2770    2.8021    7.6435 Na  0  0  0  0  0 15  0  0  0  0  0  0
   44.2898    3.3986    9.3685 C   0  0  0  0  0  0  0  0  0  0  0  0
   43.6973    4.4472    8.9779 O   0  0  0  0  0  0  0  0  0  0  0  0
   43.7990    2.3260    9.8287 O   0  0  0  0  0  0  0  0  0  0  0  0
   45.8165    3.4603    9.3398 C   0  0  0  0  0  0  0  0  0  0  0  0
   46.3830    2.9635    8.0331 C   0  0  0  0  0  0  0  0  0  0  0  0
   46.5839    3.8457    6.9640 C   0  0  0  0  0  0  0  0  0  0  0  0
   46.6913    1.6081    7.8614 C   0  0  0  0  0  0  0  0  0  0  0  0
   47.2154    1.1480    6.6522 C   0  0  0  0  0  0  0  0  0  0  0  0
   47.1079    3.3860    5.7546 C   0  0  0  0  0  0  0  0  0  0  0  0
   47.4284    2.0379    5.6003 C   0  0  0  0  0  0  0  0  0  0  0  0
   46.1469    4.4911    9.5208 H   0  0  0  0  0  0  0  0  0  0  0  0
   46.2246    2.8708   10.1707 H   0  0  0  0  0  0  0  0  0  0  0  0
   46.3082    4.8925    7.0741 H   0  0  0  0  0  0  0  0  0  0  0  0
   46.4995    0.9081    8.6722 H   0  0  0  0  0  0  0  0  0  0  0  0
   47.4413    0.0931    6.5316 H   0  0  0  0  0  0  0  0  0  0  0  0
   47.2497    4.0805    4.9324 H   0  0  0  0  0  0  0  0  0  0  0  0
   47.8260    1.6786    4.6565 H   0  0  0  0  0  0  0  0  0  0  0  0
  3  2  1  0
  4  2  2  0
  5  2  1  0
  6  5  1  0
  7  6  2  0
  8  6  1  0
  9  8  2  0
 10  7  1  0
 11 10  2  0
 11  9  1  0
  5 12  1  0
  5 13  1  0
  7 14  1  0
  8 15  1  0
  9 16  1  0
 10 17  1  0
 11 18  1  0
M  CHG  2   1   1   3  -1
M  END
> <Uni-Dock RESULT> 
ENERGY=   -3.524  LOWER_BOUND=    1.257  UPPER_BOUND=    2.165
INTER + INTRA:          -3.524
INTER:                  -3.524
INTRA:                   0.000
UNBOUND:                 0.000

$$$$

     RDKit          3D

 18 17  0  0  0  0  0  0  0  0999 V2000
   44.8881    7.2129   12.1362 Na  0  0  0  0  0 15  0  0  0  0  0  0
   42.9167    5.3709   12.1036 C   0  0  0  0  0  0  0  0  0  0  0  0
   43.1607    4.4814   12.9710 O   0  0  0  0  0  0  0  0  0  0  0  0
   41.8193    5.9373   11.8244 O   0  0  0  0  0  0  0  0  0  0  0  0
   44.1019    5.7719   11.2261 C   0  0  0  0  0  0  0  0  0  0  0  0
   44.8710    6.9345   11.8027 C   0  0  0  0  0  0  0  0  0  0  0  0
   45.9324    6.7149   12.6896 C   0  0  0  0  0  0  0  0  0  0  0  0
   44.5175    8.2507   11.4801 C   0  0  0  0  0  0  0  0  0  0  0  0
   45.2289    9.3267   12.0137 C   0  0  0  0  0  0  0  0  0  0  0  0
   46.6441    7.7906   13.2235 C   0  0  0  0  0  0  0  0  0  0  0  0
   46.2954    9.0966   12.8816 C   0  0  0  0  0  0  0  0  0  0  0  0
   44.7707    4.9118   11.0948 H   0  0  0  0  0  0  0  0  0  0  0  0
   43.7460    6.0239   10.2190 H   0  0  0  0  0  0  0  0  0  0  0  0
   46.1874    5.6974   12.9787 H   0  0  0  0  0  0  0  0  0  0  0  0
   43.6679    8.4321   10.8249 H   0  0  0  0  0  0  0  0  0  0  0  0
   44.9374   10.3414   11.7610 H   0  0  0  0  0  0  0  0  0  0  0  0
   47.4587    7.6046   13.9164 H   0  0  0  0  0  0  0  0  0  0  0  0
   46.8419    9.9333   13.3049 H   0  0  0  0  0  0  0  0  0  0  0  0
  3  2  1  0
  4  2  2  0
  5  2  1  0
  6  5  1  0
  7  6  2  0
  8  6  1  0
  9  8  2  0
 10  7  1  0
 11 10  2  0
 11  9  1  0
  5 12  1  0
  5 13  1  0
  7 14  1  0
  8 15  1  0
  9 16  1  0
 10 17  1  0
 11 18  1  0
M  CHG  2   1   1   3  -1
M  END
> <Uni-Dock RESULT> 
ENERGY=   -3.422  LOWER_BOUND=    5.152  UPPER_BOUND=    6.442
INTER + INTRA:          -3.422
INTER:                  -3.422
INTRA:                   0.000
UNBOUND:                 0.000

$$$$

     RDKit          3D

 18 17  0  0  0  0  0  0  0  0999 V2000
   39.2075   11.6696   13.0069 Na  0  0  0  0  0 15  0  0  0  0  0  0
   39.6133   12.5115   15.5381 C   0  0  0  0  0  0  0  0  0  0  0  0
   38.5451   12.3690   16.2028 O   0  0  0  0  0  0  0  0  0  0  0  0
   40.8068   12.2590   15.8769 O   0  0  0  0  0  0  0  0  0  0  0  0
   39.4442   13.1364   14.1538 C   0  0  0  0  0  0  0  0  0  0  0  0
   39.2389   12.0971   13.0800 C   0  0  0  0  0  0  0  0  0  0  0  0
   37.9501   11.6556   12.7551 C   0  0  0  0  0  0  0  0  0  0  0  0
   40.3358   11.5396   12.4112 C   0  0  0  0  0  0  0  0  0  0  0  0
   40.1461   10.5777   11.4176 C   0  0  0  0  0  0  0  0  0  0  0  0
   37.7599   10.6936   11.7616 C   0  0  0  0  0  0  0  0  0  0  0  0
   38.8577   10.1582   11.0893 C   0  0  0  0  0  0  0  0  0  0  0  0
   38.5959   13.8326   14.1650 H   0  0  0  0  0  0  0  0  0  0  0  0
   40.3235   13.7486   13.9161 H   0  0  0  0  0  0  0  0  0  0  0  0
   37.0949   12.0524   13.2983 H   0  0  0  0  0  0  0  0  0  0  0  0
   41.3432   11.8459   12.6859 H   0  0  0  0  0  0  0  0  0  0  0  0
   41.0068   10.1486   10.9142 H   0  0  0  0  0  0  0  0  0  0  0  0
   36.7555   10.3552   11.5271 H   0  0  0  0  0  0  0  0  0  0  0  0
   38.7106    9.4026   10.3241 H   0  0  0  0  0  0  0  0  0  0  0  0
  3  2  1  0
  4  2  2  0
  5  2  1  0
  6  5  1  0
  7  6  2  0
  8  6  1  0
  9  8  2  0
 10  7  1  0
 11 10  2  0
 11  9  1  0
  5 12  1  0
  5 13  1  0
  7 14  1  0
  8 15  1  0
  9 16  1  0
 10 17  1  0
 11 18  1  0
M  CHG  2   1   1   3  -1
M  END
> <Uni-Dock RESULT> 
ENERGY=   -3.404  LOWER_BOUND=   10.764  UPPER_BOUND=   12.140
INTER + INTRA:          -3.404
INTER:                  -3.404
INTRA:                   0.000
UNBOUND:                 0.000

$$$$

     RDKit          3D

 18 17  0  0  0  0  0  0  0  0999 V2000
   49.9906    3.1130   17.4677 Na  0  0  0  0  0 15  0  0  0  0  0  0
   47.3517    3.6174   17.7174 C   0  0  0  0  0  0  0  0  0  0  0  0
   46.7204    2.5218   17.7818 O   0  0  0  0  0  0  0  0  0  0  0  0
   47.1900    4.6755   18.3938 O   0  0  0  0  0  0  0  0  0  0  0  0
   48.4177    3.6954   16.6252 C   0  0  0  0  0  0  0  0  0  0  0  0
   49.7743    3.2590   17.1199 C   0  0  0  0  0  0  0  0  0  0  0  0
   50.1607    1.9150   17.0425 C   0  0  0  0  0  0  0  0  0  0  0  0
   50.6562    4.1869   17.6880 C   0  0  0  0  0  0  0  0  0  0  0  0
   51.9114    3.7833   18.1461 C   0  0  0  0  0  0  0  0  0  0  0  0
   51.4159    1.5109   17.5005 C   0  0  0  0  0  0  0  0  0  0  0  0
   52.2934    2.4460   18.0479 C   0  0  0  0  0  0  0  0  0  0  0  0
   48.1160    3.0758   15.7711 H   0  0  0  0  0  0  0  0  0  0  0  0
   48.4747    4.7210   16.2386 H   0  0  0  0  0  0  0  0  0  0  0  0
   49.4660    1.1800   16.6411 H   0  0  0  0  0  0  0  0  0  0  0  0
   50.3482    5.2255   17.7906 H   0  0  0  0  0  0  0  0  0  0  0  0
   52.5805    4.5127   18.5919 H   0  0  0  0  0  0  0  0  0  0  0  0
   51.6975    0.4642   17.4416 H   0  0  0  0  0  0  0  0  0  0  0  0
   53.2651    2.1300   18.4136 H   0  0  0  0  0  0  0  0  0  0  0  0
  3  2  1  0
  4  2  2  0
  5  2  1  0
  6  5  1  0
  7  6  2  0
  8  6  1  0
  9  8  2  0
 10  7  1  0
 11 10  2  0
 11  9  1  0
  5 12  1  0
  5 13  1  0
  7 14  1  0
  8 15  1  0
  9 16  1  0
 10 17  1  0
 11 18  1  0
M  CHG  2   1   1   3  -1
M  END
> <Uni-Dock RESULT> 
ENERGY=   -3.328  LOWER_BOUND=    9.254  UPPER_BOUND=   10.183
INTER + INTRA:          -3.328
INTER:                  -3.328
INTRA:                   0.000
UNBOUND:                 0.000

$$$$

     RDKit          3D

 18 17  0  0  0  0  0  0  0  0999 V2000
   45.3463    5.4933   12.8262 Na  0  0  0  0  0 15  0  0  0  0  0  0
   43.2023    4.5871   11.4614 C   0  0  0  0  0  0  0  0  0  0  0  0
   42.9588    5.3701   10.4966 O   0  0  0  0  0  0  0  0  0  0  0  0
   43.1944    3.3213   11.4868 O   0  0  0  0  0  0  0  0  0  0  0  0
   43.4832    5.2668   12.8010 C   0  0  0  0  0  0  0  0  0  0  0  0
   44.9532    5.5355   13.0071 C   0  0  0  0  0  0  0  0  0  0  0  0
   45.5244    6.7372   12.5700 C   0  0  0  0  0  0  0  0  0  0  0  0
   45.7729    4.5761   13.6146 C   0  0  0  0  0  0  0  0  0  0  0  0
   47.1333    4.8244   13.8052 C   0  0  0  0  0  0  0  0  0  0  0  0
   46.8847    6.9860   12.7604 C   0  0  0  0  0  0  0  0  0  0  0  0
   47.6883    6.0315   13.3826 C   0  0  0  0  0  0  0  0  0  0  0  0
   42.9209    6.2072   12.8620 H   0  0  0  0  0  0  0  0  0  0  0  0
   43.1008    4.6422   13.6184 H   0  0  0  0  0  0  0  0  0  0  0  0
   44.9039    7.4710   12.0595 H   0  0  0  0  0  0  0  0  0  0  0  0
   45.3464    3.6226   13.9197 H   0  0  0  0  0  0  0  0  0  0  0  0
   47.7574    4.0674   14.2698 H   0  0  0  0  0  0  0  0  0  0  0  0
   47.3144    7.9186   12.4083 H   0  0  0  0  0  0  0  0  0  0  0  0
   48.7480    6.2205   13.5212 H   0  0  0  0  0  0  0  0  0  0  0  0
  3  2  1  0
  4  2  2  0
  5  2  1  0
  6  5  1  0
  7  6  2  0
  8  6  1  0
  9  8  2  0
 10  7  1  0
 11 10  2  0
 11  9  1  0
  5 12  1  0
  5 13  1  0
  7 14  1  0
  8 15  1  0
  9 16  1  0
 10 17  1  0
 11 18  1  0
M  CHG  2   1   1   3  -1
M  END
> <Uni-Dock RESULT> 
ENERGY=   -3.315  LOWER_BOUND=    5.020  UPPER_BOUND=    5.922
INTER + INTRA:          -3.315
INTER:                  -3.315
INTRA:                   0.000
UNBOUND:                 0.000

$$$$

     RDKit          3D

 18 17  0  0  0  0  0  0  0  0999 V2000
   52.5843    1.7594   17.6609 Na  0  0  0  0  0 15  0  0  0  0  0  0
   54.5901    0.1784   16.7904 C   0  0  0  0  0  0  0  0  0  0  0  0
   54.1335   -0.6537   15.9524 O   0  0  0  0  0  0  0  0  0  0  0  0
   55.6637    0.8484   16.7500 O   0  0  0  0  0  0  0  0  0  0  0  0
   53.7585    0.3509   18.0610 C   0  0  0  0  0  0  0  0  0  0  0  0
   52.7408    1.4566   17.9309 C   0  0  0  0  0  0  0  0  0  0  0  0
   51.4584    1.1879   17.4363 C   0  0  0  0  0  0  0  0  0  0  0  0
   53.0723    2.7724   18.2777 C   0  0  0  0  0  0  0  0  0  0  0  0
   52.1308    3.7958   18.1573 C   0  0  0  0  0  0  0  0  0  0  0  0
   50.5164    2.2111   17.3156 C   0  0  0  0  0  0  0  0  0  0  0  0
   50.8511    3.5144   17.6808 C   0  0  0  0  0  0  0  0  0  0  0  0
   53.2536   -0.5933   18.3018 H   0  0  0  0  0  0  0  0  0  0  0  0
   54.4224    0.5541   18.9110 H   0  0  0  0  0  0  0  0  0  0  0  0
   51.2051    0.1765   17.1250 H   0  0  0  0  0  0  0  0  0  0  0  0
   54.0792    2.9980   18.6233 H   0  0  0  0  0  0  0  0  0  0  0  0
   52.4055    4.8121   18.4220 H   0  0  0  0  0  0  0  0  0  0  0  0
   49.5294    1.9886   16.9225 H   0  0  0  0  0  0  0  0  0  0  0  0
   50.1222    4.3118   17.5770 H   0  0  0  0  0  0  0  0  0  0  0  0
  3  2  1  0
  4  2  2  0
  5  2  1  0
  6  5  1  0
  7  6  2  0
  8  6  1  0
  9  8  2  0
 10  7  1  0
 11 10  2  0
 11  9  1  0
  5 12  1  0
  5 13  1  0
  7 14  1  0
  8 15  1  0
  9 16  1  0
 10 17  1  0
 11 18  1  0
M  CHG  2   1   1   3  -1
M  END
> <Uni-Dock RESULT> 
ENERGY=   -3.145  LOWER_BOUND=   11.334  UPPER_BOUND=   12.179
INTER + INTRA:          -3.145
INTER:                  -3.145
INTRA:                   0.000
UNBOUND:                 0.000

$$$$
