
     RDKit          3D

 18 17  0  0  0  0  0  0  0  0999 V2000
   46.0948    2.9768    7.9519 Na  0  0  0  0  0 15  0  0  0  0  0  0
   45.1017    4.5856    9.8771 C   0  0  0  0  0  0  0  0  0  0  0  0
   45.5869    5.7474    9.7430 O   0  0  0  0  0  0  0  0  0  0  0  0
   44.9191    3.9111   10.9330 O   0  0  0  0  0  0  0  0  0  0  0  0
   44.6081    3.9298    8.5880 C   0  0  0  0  0  0  0  0  0  0  0  0
   45.6809    3.1065    7.9197 C   0  0  0  0  0  0  0  0  0  0  0  0
   46.5474    3.6902    6.9870 C   0  0  0  0  0  0  0  0  0  0  0  0
   45.8430    1.7532    8.2422 C   0  0  0  0  0  0  0  0  0  0  0  0
   46.8359    0.9912    7.6241 C   0  0  0  0  0  0  0  0  0  0  0  0
   47.5404    2.9286    6.3685 C   0  0  0  0  0  0  0  0  0  0  0  0
   47.6817    1.5778    6.6835 C   0  0  0  0  0  0  0  0  0  0  0  0
   44.2467    4.7018    7.8969 H   0  0  0  0  0  0  0  0  0  0  0  0
   43.7366    3.2992    8.8059 H   0  0  0  0  0  0  0  0  0  0  0  0
   46.4560    4.7507    6.7611 H   0  0  0  0  0  0  0  0  0  0  0  0
   45.2017    1.3016    8.9963 H   0  0  0  0  0  0  0  0  0  0  0  0
   46.9546   -0.0542    7.8909 H   0  0  0  0  0  0  0  0  0  0  0  0
   48.2099    3.3974    5.6541 H   0  0  0  0  0  0  0  0  0  0  0  0
   48.4604    0.9881    6.2106 H   0  0  0  0  0  0  0  0  0  0  0  0
  3  2  1  0
  4  2  2  0
  5  2  1  0
  6  5  1  0
  7  6  2  0
  8  6  1  0
  9  8  2  0
 10  7  1  0
 11 10  2  0
 11  9  1  0
  5 12  1  0
  5 13  1  0
  7 14  1  0
  8 15  1  0
  9 16  1  0
 10 17  1  0
 11 18  1  0
M  CHG  2   1   1   3  -1
M  END
> <Uni-Dock RESULT> 
ENERGY=   -5.893  LOWER_BOUND=    0.000  UPPER_BOUND=    0.000
INTER + INTRA:          -5.893
INTER:                  -5.893
INTRA:                   0.000
UNBOUND:                 0.000

$$$$

     RDKit          3D

 18 17  0  0  0  0  0  0  0  0999 V2000
   45.7740    3.3047    8.3091 Na  0  0  0  0  0 15  0  0  0  0  0  0
   47.6145    1.9948    6.8333 C   0  0  0  0  0  0  0  0  0  0  0  0
   47.6091    0.7688    7.1497 O   0  0  0  0  0  0  0  0  0  0  0  0
   48.5986    2.7612    6.6153 O   0  0  0  0  0  0  0  0  0  0  0  0
   46.2371    2.6224    6.6229 C   0  0  0  0  0  0  0  0  0  0  0  0
   45.6894    3.2339    7.8884 C   0  0  0  0  0  0  0  0  0  0  0  0
   44.9205    2.4676    8.7733 C   0  0  0  0  0  0  0  0  0  0  0  0
   45.9643    4.5691    8.2097 C   0  0  0  0  0  0  0  0  0  0  0  0
   45.4577    5.1351    9.3809 C   0  0  0  0  0  0  0  0  0  0  0  0
   44.4137    3.0331    9.9446 C   0  0  0  0  0  0  0  0  0  0  0  0
   44.6783    4.3683   10.2461 C   0  0  0  0  0  0  0  0  0  0  0  0
   45.5405    1.8637    6.2444 H   0  0  0  0  0  0  0  0  0  0  0  0
   46.2963    3.3855    5.8362 H   0  0  0  0  0  0  0  0  0  0  0  0
   44.7368    1.4180    8.5528 H   0  0  0  0  0  0  0  0  0  0  0  0
   46.5954    5.1602    7.5492 H   0  0  0  0  0  0  0  0  0  0  0  0
   45.6866    6.1687    9.6204 H   0  0  0  0  0  0  0  0  0  0  0  0
   43.8268    2.4239   10.6248 H   0  0  0  0  0  0  0  0  0  0  0  0
   44.2932    4.8053   11.1619 H   0  0  0  0  0  0  0  0  0  0  0  0
  3  2  1  0
  4  2  2  0
  5  2  1  0
  6  5  1  0
  7  6  2  0
  8  6  1  0
  9  8  2  0
 10  7  1  0
 11 10  2  0
 11  9  1  0
  5 12  1  0
  5 13  1  0
  7 14  1  0
  8 15  1  0
  9 16  1  0
 10 17  1  0
 11 18  1  0
M  CHG  2   1   1   3  -1
M  END
> <Uni-Dock RESULT> 
ENERGY=   -4.986  LOWER_BOUND=    2.501  UPPER_BOUND=    4.150
INTER + INTRA:          -4.986
INTER:                  -4.986
INTRA:                   0.000
UNBOUND:                 0.000

$$$$

     RDKit          3D

 18 17  0  0  0  0  0  0  0  0999 V2000
   45.9001    2.6197    8.4677 Na  0  0  0  0  0 15  0  0  0  0  0  0
   45.0547    3.3703   10.9177 C   0  0  0  0  0  0  0  0  0  0  0  0
   45.1633    4.6268   11.0310 O   0  0  0  0  0  0  0  0  0  0  0  0
   45.3386    2.4634   11.7544 O   0  0  0  0  0  0  0  0  0  0  0  0
   44.4336    2.8826    9.6093 C   0  0  0  0  0  0  0  0  0  0  0  0
   45.4732    2.6127    8.5501 C   0  0  0  0  0  0  0  0  0  0  0  0
   45.8804    3.6301    7.6780 C   0  0  0  0  0  0  0  0  0  0  0  0
   46.0654    1.3482    8.4410 C   0  0  0  0  0  0  0  0  0  0  0  0
   47.0275    1.0982    7.4610 C   0  0  0  0  0  0  0  0  0  0  0  0
   46.8425    3.3807    6.6979 C   0  0  0  0  0  0  0  0  0  0  0  0
   47.4127    2.1133    6.5862 C   0  0  0  0  0  0  0  0  0  0  0  0
   43.7139    3.6259    9.2436 H   0  0  0  0  0  0  0  0  0  0  0  0
   43.8478    1.9735    9.7961 H   0  0  0  0  0  0  0  0  0  0  0  0
   45.4564    4.6268    7.7823 H   0  0  0  0  0  0  0  0  0  0  0  0
   45.7858    0.5633    9.1409 H   0  0  0  0  0  0  0  0  0  0  0  0
   47.4836    0.1155    7.3945 H   0  0  0  0  0  0  0  0  0  0  0  0
   47.1540    4.1818    6.0350 H   0  0  0  0  0  0  0  0  0  0  0  0
   48.1684    1.9220    5.8310 H   0  0  0  0  0  0  0  0  0  0  0  0
  3  2  1  0
  4  2  2  0
  5  2  1  0
  6  5  1  0
  7  6  2  0
  8  6  1  0
  9  8  2  0
 10  7  1  0
 11 10  2  0
 11  9  1  0
  5 12  1  0
  5 13  1  0
  7 14  1  0
  8 15  1  0
  9 16  1  0
 10 17  1  0
 11 18  1  0
M  CHG  2   1   1   3  -1
M  END
> <Uni-Dock RESULT> 
ENERGY=   -4.840  LOWER_BOUND=    0.996  UPPER_BOUND=    1.141
INTER + INTRA:          -4.840
INTER:                  -4.840
INTRA:                   0.000
UNBOUND:                 0.000

$$$$

     RDKit          3D

 18 17  0  0  0  0  0  0  0  0999 V2000
   45.3396    3.2544    9.1503 Na  0  0  0  0  0 15  0  0  0  0  0  0
   44.7997    4.1624   11.6332 C   0  0  0  0  0  0  0  0  0  0  0  0
   45.2288    5.3481   11.7475 O   0  0  0  0  0  0  0  0  0  0  0  0
   44.8722    3.2018   12.4550 O   0  0  0  0  0  0  0  0  0  0  0  0
   44.0294    3.8664   10.3469 C   0  0  0  0  0  0  0  0  0  0  0  0
   44.9281    3.3551    9.2486 C   0  0  0  0  0  0  0  0  0  0  0  0
   45.5503    4.2470    8.3661 C   0  0  0  0  0  0  0  0  0  0  0  0
   45.1743    1.9831    9.1123 C   0  0  0  0  0  0  0  0  0  0  0  0
   46.0061    1.5097    8.0961 C   0  0  0  0  0  0  0  0  0  0  0  0
   46.3822    3.7742    7.3497 C   0  0  0  0  0  0  0  0  0  0  0  0
   46.6063    2.4050    7.2117 C   0  0  0  0  0  0  0  0  0  0  0  0
   43.5105    4.7733   10.0113 H   0  0  0  0  0  0  0  0  0  0  0  0
   43.2382    3.1339   10.5517 H   0  0  0  0  0  0  0  0  0  0  0  0
   45.3982    5.3173    8.4902 H   0  0  0  0  0  0  0  0  0  0  0  0
   44.7286    1.2859    9.8189 H   0  0  0  0  0  0  0  0  0  0  0  0
   46.1940    0.4443    8.0086 H   0  0  0  0  0  0  0  0  0  0  0  0
   46.8642    4.4784    6.6790 H   0  0  0  0  0  0  0  0  0  0  0  0
   47.2614    2.0379    6.4281 H   0  0  0  0  0  0  0  0  0  0  0  0
  3  2  1  0
  4  2  2  0
  5  2  1  0
  6  5  1  0
  7  6  2  0
  8  6  1  0
  9  8  2  0
 10  7  1  0
 11 10  2  0
 11  9  1  0
  5 12  1  0
  5 13  1  0
  7 14  1  0
  8 15  1  0
  9 16  1  0
 10 17  1  0
 11 18  1  0
M  CHG  2   1   1   3  -1
M  END
> <Uni-Dock RESULT> 
ENERGY=   -4.512  LOWER_BOUND=    1.302  UPPER_BOUND=    1.629
INTER + INTRA:          -4.512
INTER:                  -4.512
INTRA:                   0.000
UNBOUND:                 0.000

$$$$

     RDKit          3D

 18 17  0  0  0  0  0  0  0  0999 V2000
   44.6265    4.2908   10.0181 Na  0  0  0  0  0 15  0  0  0  0  0  0
   43.0486    5.8870   11.5159 C   0  0  0  0  0  0  0  0  0  0  0  0
   42.0955    5.2039   11.9935 O   0  0  0  0  0  0  0  0  0  0  0  0
   43.0270    7.0476   11.0102 O   0  0  0  0  0  0  0  0  0  0  0  0
   44.4314    5.2451   11.6225 C   0  0  0  0  0  0  0  0  0  0  0  0
   44.7741    4.4228   10.4053 C   0  0  0  0  0  0  0  0  0  0  0  0
   44.4323    3.0659   10.3447 C   0  0  0  0  0  0  0  0  0  0  0  0
   45.4149    5.0107    9.3074 C   0  0  0  0  0  0  0  0  0  0  0  0
   45.7320    4.2499    8.1808 C   0  0  0  0  0  0  0  0  0  0  0  0
   44.7491    2.3047    9.2183 C   0  0  0  0  0  0  0  0  0  0  0  0
   45.4033    2.8956    8.1382 C   0  0  0  0  0  0  0  0  0  0  0  0
   44.4776    4.6169   12.5212 H   0  0  0  0  0  0  0  0  0  0  0  0
   45.1891    6.0252   11.7701 H   0  0  0  0  0  0  0  0  0  0  0  0
   43.8971    2.6106   11.1755 H   0  0  0  0  0  0  0  0  0  0  0  0
   45.6468    6.0736    9.3284 H   0  0  0  0  0  0  0  0  0  0  0  0
   46.2210    4.7218    7.3344 H   0  0  0  0  0  0  0  0  0  0  0  0
   44.4700    1.2564    9.1828 H   0  0  0  0  0  0  0  0  0  0  0  0
   45.6403    2.3064    7.2580 H   0  0  0  0  0  0  0  0  0  0  0  0
  3  2  1  0
  4  2  2  0
  5  2  1  0
  6  5  1  0
  7  6  2  0
  8  6  1  0
  9  8  2  0
 10  7  1  0
 11 10  2  0
 11  9  1  0
  5 12  1  0
  5 13  1  0
  7 14  1  0
  8 15  1  0
  9 16  1  0
 10 17  1  0
 11 18  1  0
M  CHG  2   1   1   3  -1
M  END
> <Uni-Dock RESULT> 
ENERGY=   -4.472  LOWER_BOUND=    2.286  UPPER_BOUND=    3.477
INTER + INTRA:          -4.472
INTER:                  -4.472
INTRA:                   0.000
UNBOUND:                 0.000

$$$$

     RDKit          3D

 18 17  0  0  0  0  0  0  0  0999 V2000
   44.8242    4.1883    9.9255 Na  0  0  0  0  0 15  0  0  0  0  0  0
   44.7137    5.5312   12.2633 C   0  0  0  0  0  0  0  0  0  0  0  0
   45.4955    6.5259   12.2118 O   0  0  0  0  0  0  0  0  0  0  0  0
   44.5232    4.7106   13.2086 O   0  0  0  0  0  0  0  0  0  0  0  0
   43.8287    5.3301   11.0338 C   0  0  0  0  0  0  0  0  0  0  0  0
   44.4698    4.4252   10.0112 C   0  0  0  0  0  0  0  0  0  0  0  0
   45.2954    4.9547    9.0116 C   0  0  0  0  0  0  0  0  0  0  0  0
   44.2700    3.0399   10.0630 C   0  0  0  0  0  0  0  0  0  0  0  0
   44.8633    2.2023    9.1169 C   0  0  0  0  0  0  0  0  0  0  0  0
   45.8890    4.1176    8.0653 C   0  0  0  0  0  0  0  0  0  0  0  0
   45.6691    2.7417    8.1150 C   0  0  0  0  0  0  0  0  0  0  0  0
   43.6022    6.3031   10.5797 H   0  0  0  0  0  0  0  0  0  0  0  0
   42.8596    4.9166   11.3412 H   0  0  0  0  0  0  0  0  0  0  0  0
   45.4901    6.0250    8.9886 H   0  0  0  0  0  0  0  0  0  0  0  0
   43.6640    2.6154   10.8608 H   0  0  0  0  0  0  0  0  0  0  0  0
   44.7059    1.1300    9.1753 H   0  0  0  0  0  0  0  0  0  0  0  0
   46.5334    4.5420    7.3018 H   0  0  0  0  0  0  0  0  0  0  0  0
   46.1389    2.0895    7.3857 H   0  0  0  0  0  0  0  0  0  0  0  0
  3  2  1  0
  4  2  2  0
  5  2  1  0
  6  5  1  0
  7  6  2  0
  8  6  1  0
  9  8  2  0
 10  7  1  0
 11 10  2  0
 11  9  1  0
  5 12  1  0
  5 13  1  0
  7 14  1  0
  8 15  1  0
  9 16  1  0
 10 17  1  0
 11 18  1  0
M  CHG  2   1   1   3  -1
M  END
> <Uni-Dock RESULT> 
ENERGY=   -3.917  LOWER_BOUND=    1.988  UPPER_BOUND=    2.685
INTER + INTRA:          -3.917
INTER:                  -3.917
INTRA:                   0.000
UNBOUND:                 0.000

$$$$

     RDKit          3D

 18 17  0  0  0  0  0  0  0  0999 V2000
   44.2969    4.5194   10.8900 Na  0  0  0  0  0 15  0  0  0  0  0  0
   45.0200    3.3486    8.5690 C   0  0  0  0  0  0  0  0  0  0  0  0
   44.1198    3.5485    7.7013 O   0  0  0  0  0  0  0  0  0  0  0  0
   45.6711    2.2916    8.8185 O   0  0  0  0  0  0  0  0  0  0  0  0
   45.4223    4.5740    9.3888 C   0  0  0  0  0  0  0  0  0  0  0  0
   44.6141    4.7029   10.6560 C   0  0  0  0  0  0  0  0  0  0  0  0
   43.4084    5.4153   10.6608 C   0  0  0  0  0  0  0  0  0  0  0  0
   45.0446    4.0896   11.8393 C   0  0  0  0  0  0  0  0  0  0  0  0
   44.2968    4.2087   13.0120 C   0  0  0  0  0  0  0  0  0  0  0  0
   42.6602    5.5347   11.8332 C   0  0  0  0  0  0  0  0  0  0  0  0
   43.1068    4.9354   13.0101 C   0  0  0  0  0  0  0  0  0  0  0  0
   45.3060    5.4792    8.7795 H   0  0  0  0  0  0  0  0  0  0  0  0
   46.4909    4.5192    9.6328 H   0  0  0  0  0  0  0  0  0  0  0  0
   43.0449    5.8599    9.7365 H   0  0  0  0  0  0  0  0  0  0  0  0
   45.9586    3.4993   11.8350 H   0  0  0  0  0  0  0  0  0  0  0  0
   44.6391    3.7205   13.9190 H   0  0  0  0  0  0  0  0  0  0  0  0
   41.7234    6.0827   11.8190 H   0  0  0  0  0  0  0  0  0  0  0  0
   42.5200    5.0192   13.9193 H   0  0  0  0  0  0  0  0  0  0  0  0
  3  2  1  0
  4  2  2  0
  5  2  1  0
  6  5  1  0
  7  6  2  0
  8  6  1  0
  9  8  2  0
 10  7  1  0
 11 10  2  0
 11  9  1  0
  5 12  1  0
  5 13  1  0
  7 14  1  0
  8 15  1  0
  9 16  1  0
 10 17  1  0
 11 18  1  0
M  CHG  2   1   1   3  -1
M  END
> <Uni-Dock RESULT> 
ENERGY=   -3.479  LOWER_BOUND=    2.667  UPPER_BOUND=    4.983
INTER + INTRA:          -3.479
INTER:                  -3.479
INTRA:                   0.000
UNBOUND:                 0.000

$$$$

     RDKit          3D

 18 17  0  0  0  0  0  0  0  0999 V2000
   44.8969    7.1904   12.1387 Na  0  0  0  0  0 15  0  0  0  0  0  0
   42.9104    5.3648   12.0947 C   0  0  0  0  0  0  0  0  0  0  0  0
   41.8160    5.9436   11.8295 O   0  0  0  0  0  0  0  0  0  0  0  0
   43.1524    4.4624   12.9494 O   0  0  0  0  0  0  0  0  0  0  0  0
   44.0936    5.7674   11.2152 C   0  0  0  0  0  0  0  0  0  0  0  0
   44.8755    6.9163   11.8017 C   0  0  0  0  0  0  0  0  0  0  0  0
   44.5307    8.2393   11.4980 C   0  0  0  0  0  0  0  0  0  0  0  0
   45.9404    6.6770   12.6794 C   0  0  0  0  0  0  0  0  0  0  0  0
   46.6640    7.7401   13.2224 C   0  0  0  0  0  0  0  0  0  0  0  0
   45.2540    9.3027   12.0408 C   0  0  0  0  0  0  0  0  0  0  0  0
   46.3238    9.0531   12.8993 C   0  0  0  0  0  0  0  0  0  0  0  0
   43.7338    6.0349   10.2136 H   0  0  0  0  0  0  0  0  0  0  0  0
   44.7546    4.9035   11.0690 H   0  0  0  0  0  0  0  0  0  0  0  0
   43.6788    8.4359   10.8504 H   0  0  0  0  0  0  0  0  0  0  0  0
   46.1890    5.6539   12.9539 H   0  0  0  0  0  0  0  0  0  0  0  0
   47.4812    7.5388   13.9078 H   0  0  0  0  0  0  0  0  0  0  0  0
   44.9692   10.3228   11.8028 H   0  0  0  0  0  0  0  0  0  0  0  0
   46.8796    9.8800   13.3297 H   0  0  0  0  0  0  0  0  0  0  0  0
  3  2  1  0
  4  2  2  0
  5  2  1  0
  6  5  1  0
  7  6  2  0
  8  6  1  0
  9  8  2  0
 10  7  1  0
 11 10  2  0
 11  9  1  0
  5 12  1  0
  5 13  1  0
  7 14  1  0
  8 15  1  0
  9 16  1  0
 10 17  1  0
 11 18  1  0
M  CHG  2   1   1   3  -1
M  END
> <Uni-Dock RESULT> 
ENERGY=   -3.424  LOWER_BOUND=    5.144  UPPER_BOUND=    6.426
INTER + INTRA:          -3.424
INTER:                  -3.424
INTRA:                   0.000
UNBOUND:                 0.000

$$$$

     RDKit          3D

 18 17  0  0  0  0  0  0  0  0999 V2000
   45.4972    5.4948   12.3589 Na  0  0  0  0  0 15  0  0  0  0  0  0
   43.0144    5.9351   11.3985 C   0  0  0  0  0  0  0  0  0  0  0  0
   42.8837    7.1644   11.1246 O   0  0  0  0  0  0  0  0  0  0  0  0
   42.2000    5.1507   11.9684 O   0  0  0  0  0  0  0  0  0  0  0  0
   44.3140    5.2918   10.9161 C   0  0  0  0  0  0  0  0  0  0  0  0
   45.4039    5.3579   11.9568 C   0  0  0  0  0  0  0  0  0  0  0  0
   46.2697    6.4575   12.0107 C   0  0  0  0  0  0  0  0  0  0  0  0
   45.5486    4.3335   12.9008 C   0  0  0  0  0  0  0  0  0  0  0  0
   46.5570    4.3946   13.8642 C   0  0  0  0  0  0  0  0  0  0  0  0
   47.2782    6.5190   12.9738 C   0  0  0  0  0  0  0  0  0  0  0  0
   47.4250    5.4852   13.8977 C   0  0  0  0  0  0  0  0  0  0  0  0
   44.6490    5.7845    9.9945 H   0  0  0  0  0  0  0  0  0  0  0  0
   44.1268    4.2465   10.6390 H   0  0  0  0  0  0  0  0  0  0  0  0
   46.1384    7.2778   11.3079 H   0  0  0  0  0  0  0  0  0  0  0  0
   44.8545    3.4956   12.8929 H   0  0  0  0  0  0  0  0  0  0  0  0
   46.6511    3.5970   14.5943 H   0  0  0  0  0  0  0  0  0  0  0  0
   47.9359    7.3818   13.0083 H   0  0  0  0  0  0  0  0  0  0  0  0
   48.2024    5.5378   14.6532 H   0  0  0  0  0  0  0  0  0  0  0  0
  3  2  1  0
  4  2  2  0
  5  2  1  0
  6  5  1  0
  7  6  2  0
  8  6  1  0
  9  8  2  0
 10  7  1  0
 11 10  2  0
 11  9  1  0
  5 12  1  0
  5 13  1  0
  7 14  1  0
  8 15  1  0
  9 16  1  0
 10 17  1  0
 11 18  1  0
M  CHG  2   1   1   3  -1
M  END
> <Uni-Dock RESULT> 
ENERGY=   -3.319  LOWER_BOUND=    4.602  UPPER_BOUND=    5.399
INTER + INTRA:          -3.319
INTER:                  -3.319
INTRA:                   0.000
UNBOUND:                 0.000

$$$$
