
     RDKit          3D

 18 17  0  0  0  0  0  0  0  0999 V2000
   46.0947    2.9765    7.9519 Na  0  0  0  0  0 15  0  0  0  0  0  0
   45.1017    4.5853    9.8771 C   0  0  0  0  0  0  0  0  0  0  0  0
   45.5870    5.7471    9.7431 O   0  0  0  0  0  0  0  0  0  0  0  0
   44.9190    3.9108   10.9330 O   0  0  0  0  0  0  0  0  0  0  0  0
   44.6081    3.9295    8.5880 C   0  0  0  0  0  0  0  0  0  0  0  0
   45.6809    3.1063    7.9197 C   0  0  0  0  0  0  0  0  0  0  0  0
   45.8430    1.7530    8.2422 C   0  0  0  0  0  0  0  0  0  0  0  0
   46.5474    3.6899    6.9871 C   0  0  0  0  0  0  0  0  0  0  0  0
   47.5404    2.9283    6.3686 C   0  0  0  0  0  0  0  0  0  0  0  0
   46.8358    0.9910    7.6240 C   0  0  0  0  0  0  0  0  0  0  0  0
   47.6816    1.5775    6.6835 C   0  0  0  0  0  0  0  0  0  0  0  0
   43.7365    3.2991    8.8057 H   0  0  0  0  0  0  0  0  0  0  0  0
   44.2467    4.7016    7.8969 H   0  0  0  0  0  0  0  0  0  0  0  0
   45.2015    1.3013    8.9963 H   0  0  0  0  0  0  0  0  0  0  0  0
   46.4561    4.7505    6.7611 H   0  0  0  0  0  0  0  0  0  0  0  0
   48.2099    3.3970    5.6542 H   0  0  0  0  0  0  0  0  0  0  0  0
   46.9545   -0.0545    7.8909 H   0  0  0  0  0  0  0  0  0  0  0  0
   48.4604    0.9877    6.2106 H   0  0  0  0  0  0  0  0  0  0  0  0
  3  2  1  0
  4  2  2  0
  5  2  1  0
  6  5  1  0
  7  6  2  0
  8  6  1  0
  9  8  2  0
 10  7  1  0
 11 10  2  0
 11  9  1  0
  5 12  1  0
  5 13  1  0
  7 14  1  0
  8 15  1  0
  9 16  1  0
 10 17  1  0
 11 18  1  0
M  CHG  2   1   1   3  -1
M  END
> <Uni-Dock RESULT> 
ENERGY=   -5.895  LOWER_BOUND=    0.000  UPPER_BOUND=    0.000
INTER + INTRA:          -5.895
INTER:                  -5.895
INTRA:                   0.000
UNBOUND:                 0.000

$$$$

     RDKit          3D

 18 17  0  0  0  0  0  0  0  0999 V2000
   46.1317    2.9015    7.9050 Na  0  0  0  0  0 15  0  0  0  0  0  0
   45.0203    4.2486    9.9618 C   0  0  0  0  0  0  0  0  0  0  0  0
   45.3824    5.4609    9.9125 O   0  0  0  0  0  0  0  0  0  0  0  0
   44.9284    3.4805   10.9642 O   0  0  0  0  0  0  0  0  0  0  0  0
   44.5694    3.6456    8.6319 C   0  0  0  0  0  0  0  0  0  0  0  0
   45.7063    2.9901    7.8882 C   0  0  0  0  0  0  0  0  0  0  0  0
   46.0113    1.6400    8.1024 C   0  0  0  0  0  0  0  0  0  0  0  0
   46.4900    3.7289    6.9930 C   0  0  0  0  0  0  0  0  0  0  0  0
   47.5422    3.1226    6.3048 C   0  0  0  0  0  0  0  0  0  0  0  0
   47.0635    1.0333    7.4144 C   0  0  0  0  0  0  0  0  0  0  0  0
   47.8261    1.7734    6.5118 C   0  0  0  0  0  0  0  0  0  0  0  0
   43.7709    2.9143    8.8108 H   0  0  0  0  0  0  0  0  0  0  0  0
   44.1176    4.4269    8.0075 H   0  0  0  0  0  0  0  0  0  0  0  0
   45.4345    1.0688    8.8270 H   0  0  0  0  0  0  0  0  0  0  0  0
   46.2870    4.7886    6.8514 H   0  0  0  0  0  0  0  0  0  0  0  0
   48.1460    3.7106    5.6206 H   0  0  0  0  0  0  0  0  0  0  0  0
   47.2930   -0.0118    7.5977 H   0  0  0  0  0  0  0  0  0  0  0  0
   48.6508    1.3044    5.9848 H   0  0  0  0  0  0  0  0  0  0  0  0
  3  2  1  0
  4  2  2  0
  5  2  1  0
  6  5  1  0
  7  6  2  0
  8  6  1  0
  9  8  2  0
 10  7  1  0
 11 10  2  0
 11  9  1  0
  5 12  1  0
  5 13  1  0
  7 14  1  0
  8 15  1  0
  9 16  1  0
 10 17  1  0
 11 18  1  0
M  CHG  2   1   1   3  -1
M  END
> <Uni-Dock RESULT> 
ENERGY=   -5.766  LOWER_BOUND=    0.281  UPPER_BOUND=    0.281
INTER + INTRA:          -5.766
INTER:                  -5.766
INTRA:                   0.000
UNBOUND:                 0.000

$$$$

     RDKit          3D

 18 17  0  0  0  0  0  0  0  0999 V2000
   45.7743    3.3041    8.3090 Na  0  0  0  0  0 15  0  0  0  0  0  0
   47.6150    1.9946    6.8333 C   0  0  0  0  0  0  0  0  0  0  0  0
   47.6100    0.7686    7.1497 O   0  0  0  0  0  0  0  0  0  0  0  0
   48.5989    2.7612    6.6151 O   0  0  0  0  0  0  0  0  0  0  0  0
   46.2375    2.6219    6.6228 C   0  0  0  0  0  0  0  0  0  0  0  0
   45.6897    3.2332    7.8883 C   0  0  0  0  0  0  0  0  0  0  0  0
   45.9643    4.5685    8.2096 C   0  0  0  0  0  0  0  0  0  0  0  0
   44.9211    2.4668    8.7734 C   0  0  0  0  0  0  0  0  0  0  0  0
   44.4143    3.0322    9.9446 C   0  0  0  0  0  0  0  0  0  0  0  0
   45.4576    5.1344    9.3808 C   0  0  0  0  0  0  0  0  0  0  0  0
   44.6784    4.3675   10.2461 C   0  0  0  0  0  0  0  0  0  0  0  0
   46.2963    3.3848    5.8361 H   0  0  0  0  0  0  0  0  0  0  0  0
   45.5410    1.8628    6.2444 H   0  0  0  0  0  0  0  0  0  0  0  0
   46.5952    5.1597    7.5489 H   0  0  0  0  0  0  0  0  0  0  0  0
   44.7376    1.4170    8.5529 H   0  0  0  0  0  0  0  0  0  0  0  0
   43.8274    2.4229   10.6249 H   0  0  0  0  0  0  0  0  0  0  0  0
   45.6863    6.1682    9.6202 H   0  0  0  0  0  0  0  0  0  0  0  0
   44.2933    4.8044   11.1619 H   0  0  0  0  0  0  0  0  0  0  0  0
  3  2  1  0
  4  2  2  0
  5  2  1  0
  6  5  1  0
  7  6  2  0
  8  6  1  0
  9  8  2  0
 10  7  1  0
 11 10  2  0
 11  9  1  0
  5 12  1  0
  5 13  1  0
  7 14  1  0
  8 15  1  0
  9 16  1  0
 10 17  1  0
 11 18  1  0
M  CHG  2   1   1   3  -1
M  END
> <Uni-Dock RESULT> 
ENERGY=   -4.989  LOWER_BOUND=    2.501  UPPER_BOUND=    4.150
INTER + INTRA:          -4.989
INTER:                  -4.989
INTRA:                   0.000
UNBOUND:                 0.000

$$$$

     RDKit          3D

 18 17  0  0  0  0  0  0  0  0999 V2000
   44.6262    4.2910   10.0182 Na  0  0  0  0  0 15  0  0  0  0  0  0
   43.0482    5.8870   11.5158 C   0  0  0  0  0  0  0  0  0  0  0  0
   42.0949    5.2040   11.9933 O   0  0  0  0  0  0  0  0  0  0  0  0
   43.0268    7.0478   11.0103 O   0  0  0  0  0  0  0  0  0  0  0  0
   44.4309    5.2451   11.6227 C   0  0  0  0  0  0  0  0  0  0  0  0
   44.7738    4.4228   10.4055 C   0  0  0  0  0  0  0  0  0  0  0  0
   45.4148    5.0108    9.3078 C   0  0  0  0  0  0  0  0  0  0  0  0
   44.4319    3.0661   10.3447 C   0  0  0  0  0  0  0  0  0  0  0  0
   44.7489    2.3050    9.2183 C   0  0  0  0  0  0  0  0  0  0  0  0
   45.7319    4.2501    8.1811 C   0  0  0  0  0  0  0  0  0  0  0  0
   45.4033    2.8959    8.1383 C   0  0  0  0  0  0  0  0  0  0  0  0
   45.1888    6.0251   11.7705 H   0  0  0  0  0  0  0  0  0  0  0  0
   44.4770    4.6168   12.5213 H   0  0  0  0  0  0  0  0  0  0  0  0
   45.6468    6.0738    9.3289 H   0  0  0  0  0  0  0  0  0  0  0  0
   43.8965    2.6106   11.1754 H   0  0  0  0  0  0  0  0  0  0  0  0
   44.4697    1.2566    9.1826 H   0  0  0  0  0  0  0  0  0  0  0  0
   46.2211    4.7222    7.3348 H   0  0  0  0  0  0  0  0  0  0  0  0
   45.6404    2.3068    7.2581 H   0  0  0  0  0  0  0  0  0  0  0  0
  3  2  1  0
  4  2  2  0
  5  2  1  0
  6  5  1  0
  7  6  2  0
  8  6  1  0
  9  8  2  0
 10  7  1  0
 11 10  2  0
 11  9  1  0
  5 12  1  0
  5 13  1  0
  7 14  1  0
  8 15  1  0
  9 16  1  0
 10 17  1  0
 11 18  1  0
M  CHG  2   1   1   3  -1
M  END
> <Uni-Dock RESULT> 
ENERGY=   -4.473  LOWER_BOUND=    2.286  UPPER_BOUND=    3.477
INTER + INTRA:          -4.473
INTER:                  -4.473
INTRA:                   0.000
UNBOUND:                 0.000

$$$$

     RDKit          3D

 18 17  0  0  0  0  0  0  0  0999 V2000
   44.9191    3.8555    9.8654 Na  0  0  0  0  0 15  0  0  0  0  0  0
   46.2332    3.1847    7.6063 C   0  0  0  0  0  0  0  0  0  0  0  0
   46.4317    1.9342    7.5933 O   0  0  0  0  0  0  0  0  0  0  0  0
   47.0197    4.1236    7.2851 O   0  0  0  0  0  0  0  0  0  0  0  0
   44.8237    3.6194    8.0058 C   0  0  0  0  0  0  0  0  0  0  0  0
   44.7004    3.8613    9.4896 C   0  0  0  0  0  0  0  0  0  0  0  0
   44.9655    5.1268   10.0281 C   0  0  0  0  0  0  0  0  0  0  0  0
   44.3452    2.8175   10.3531 C   0  0  0  0  0  0  0  0  0  0  0  0
   44.2312    3.0410   11.7262 C   0  0  0  0  0  0  0  0  0  0  0  0
   44.8517    5.3508   11.4012 C   0  0  0  0  0  0  0  0  0  0  0  0
   44.4798    4.3090   12.2499 C   0  0  0  0  0  0  0  0  0  0  0  0
   44.5490    4.5289    7.4563 H   0  0  0  0  0  0  0  0  0  0  0  0
   44.0999    2.8566    7.6917 H   0  0  0  0  0  0  0  0  0  0  0  0
   45.2826    5.9334    9.3701 H   0  0  0  0  0  0  0  0  0  0  0  0
   44.1781    1.8210    9.9489 H   0  0  0  0  0  0  0  0  0  0  0  0
   43.9634    2.2198   12.3836 H   0  0  0  0  0  0  0  0  0  0  0  0
   45.0688    6.3350   11.8045 H   0  0  0  0  0  0  0  0  0  0  0  0
   44.4015    4.4805   13.3187 H   0  0  0  0  0  0  0  0  0  0  0  0
  3  2  1  0
  4  2  2  0
  5  2  1  0
  6  5  1  0
  7  6  2  0
  8  6  1  0
  9  8  2  0
 10  7  1  0
 11 10  2  0
 11  9  1  0
  5 12  1  0
  5 13  1  0
  7 14  1  0
  8 15  1  0
  9 16  1  0
 10 17  1  0
 11 18  1  0
M  CHG  2   1   1   3  -1
M  END
> <Uni-Dock RESULT> 
ENERGY=   -3.968  LOWER_BOUND=    2.246  UPPER_BOUND=    4.413
INTER + INTRA:          -3.968
INTER:                  -3.968
INTRA:                   0.000
UNBOUND:                 0.000

$$$$

     RDKit          3D

 18 17  0  0  0  0  0  0  0  0999 V2000
   45.1702    4.5361   10.7645 Na  0  0  0  0  0 15  0  0  0  0  0  0
   45.4312    3.3041    8.3782 C   0  0  0  0  0  0  0  0  0  0  0  0
   45.5412    2.0561    8.5613 O   0  0  0  0  0  0  0  0  0  0  0  0
   46.0716    4.0567    7.5865 O   0  0  0  0  0  0  0  0  0  0  0  0
   44.3251    3.9884    9.1806 C   0  0  0  0  0  0  0  0  0  0  0  0
   44.8198    4.5044   10.5089 C   0  0  0  0  0  0  0  0  0  0  0  0
   45.3452    5.7981   10.6180 C   0  0  0  0  0  0  0  0  0  0  0  0
   44.7855    3.6879   11.6462 C   0  0  0  0  0  0  0  0  0  0  0  0
   45.2434    4.1651   12.8755 C   0  0  0  0  0  0  0  0  0  0  0  0
   45.8032    6.2757   11.8471 C   0  0  0  0  0  0  0  0  0  0  0  0
   45.7479    5.4608   12.9771 C   0  0  0  0  0  0  0  0  0  0  0  0
   43.9020    4.8142    8.5946 H   0  0  0  0  0  0  0  0  0  0  0  0
   43.4968    3.2862    9.3392 H   0  0  0  0  0  0  0  0  0  0  0  0
   45.4144    6.4249    9.7312 H   0  0  0  0  0  0  0  0  0  0  0  0
   44.4178    2.6671   11.5622 H   0  0  0  0  0  0  0  0  0  0  0  0
   45.2183    3.5173   13.7462 H   0  0  0  0  0  0  0  0  0  0  0  0
   46.2156    7.2776   11.9139 H   0  0  0  0  0  0  0  0  0  0  0  0
   46.1137    5.8284   13.9305 H   0  0  0  0  0  0  0  0  0  0  0  0
  3  2  1  0
  4  2  2  0
  5  2  1  0
  6  5  1  0
  7  6  2  0
  8  6  1  0
  9  8  2  0
 10  7  1  0
 11 10  2  0
 11  9  1  0
  5 12  1  0
  5 13  1  0
  7 14  1  0
  8 15  1  0
  9 16  1  0
 10 17  1  0
 11 18  1  0
M  CHG  2   1   1   3  -1
M  END
> <Uni-Dock RESULT> 
ENERGY=   -3.431  LOWER_BOUND=    2.393  UPPER_BOUND=    4.806
INTER + INTRA:          -3.431
INTER:                  -3.431
INTRA:                   0.000
UNBOUND:                 0.000

$$$$

     RDKit          3D

 18 17  0  0  0  0  0  0  0  0999 V2000
   44.8975    7.1893   12.1390 Na  0  0  0  0  0 15  0  0  0  0  0  0
   42.9105    5.3645   12.0943 C   0  0  0  0  0  0  0  0  0  0  0  0
   41.8162    5.9437   11.8294 O   0  0  0  0  0  0  0  0  0  0  0  0
   43.1523    4.4615   12.9485 O   0  0  0  0  0  0  0  0  0  0  0  0
   44.0938    5.7670   11.2149 C   0  0  0  0  0  0  0  0  0  0  0  0
   44.8760    6.9154   11.8019 C   0  0  0  0  0  0  0  0  0  0  0  0
   45.9409    6.6754   12.6794 C   0  0  0  0  0  0  0  0  0  0  0  0
   44.5317    8.2387   11.4989 C   0  0  0  0  0  0  0  0  0  0  0  0
   45.2553    9.3016   12.0421 C   0  0  0  0  0  0  0  0  0  0  0  0
   46.6648    7.7380   13.2229 C   0  0  0  0  0  0  0  0  0  0  0  0
   46.3251    9.0512   12.9004 C   0  0  0  0  0  0  0  0  0  0  0  0
   44.7545    4.9031   11.0682 H   0  0  0  0  0  0  0  0  0  0  0  0
   43.7340    6.0351   10.2134 H   0  0  0  0  0  0  0  0  0  0  0  0
   46.1892    5.6520   12.9534 H   0  0  0  0  0  0  0  0  0  0  0  0
   43.6797    8.4359   10.8512 H   0  0  0  0  0  0  0  0  0  0  0  0
   44.9709   10.3219   11.8046 H   0  0  0  0  0  0  0  0  0  0  0  0
   47.4820    7.5361   13.9083 H   0  0  0  0  0  0  0  0  0  0  0  0
   46.8811    9.8778   13.3312 H   0  0  0  0  0  0  0  0  0  0  0  0
  3  2  1  0
  4  2  2  0
  5  2  1  0
  6  5  1  0
  7  6  2  0
  8  6  1  0
  9  8  2  0
 10  7  1  0
 11 10  2  0
 11  9  1  0
  5 12  1  0
  5 13  1  0
  7 14  1  0
  8 15  1  0
  9 16  1  0
 10 17  1  0
 11 18  1  0
M  CHG  2   1   1   3  -1
M  END
> <Uni-Dock RESULT> 
ENERGY=   -3.424  LOWER_BOUND=    5.144  UPPER_BOUND=    6.426
INTER + INTRA:          -3.424
INTER:                  -3.424
INTRA:                   0.000
UNBOUND:                 0.000

$$$$

     RDKit          3D

 18 17  0  0  0  0  0  0  0  0999 V2000
   45.3464    5.4930   12.8263 Na  0  0  0  0  0 15  0  0  0  0  0  0
   43.2025    4.5871   11.4611 C   0  0  0  0  0  0  0  0  0  0  0  0
   43.1948    3.3211   11.4861 O   0  0  0  0  0  0  0  0  0  0  0  0
   42.9590    5.3704   10.4966 O   0  0  0  0  0  0  0  0  0  0  0  0
   43.4833    5.2664   12.8010 C   0  0  0  0  0  0  0  0  0  0  0  0
   44.9532    5.5351   13.0073 C   0  0  0  0  0  0  0  0  0  0  0  0
   45.5243    6.7371   12.5705 C   0  0  0  0  0  0  0  0  0  0  0  0
   45.7730    4.5756   13.6144 C   0  0  0  0  0  0  0  0  0  0  0  0
   47.1333    4.8240   13.8053 C   0  0  0  0  0  0  0  0  0  0  0  0
   46.8846    6.9859   12.7612 C   0  0  0  0  0  0  0  0  0  0  0  0
   47.6883    6.0313   13.3830 C   0  0  0  0  0  0  0  0  0  0  0  0
   42.9207    6.2067   12.8623 H   0  0  0  0  0  0  0  0  0  0  0  0
   43.1009    4.6416   13.6181 H   0  0  0  0  0  0  0  0  0  0  0  0
   44.9037    7.4710   12.0603 H   0  0  0  0  0  0  0  0  0  0  0  0
   45.3466    3.6220   13.9192 H   0  0  0  0  0  0  0  0  0  0  0  0
   47.7575    4.0670   14.2696 H   0  0  0  0  0  0  0  0  0  0  0  0
   47.3143    7.9187   12.4094 H   0  0  0  0  0  0  0  0  0  0  0  0
   48.7480    6.2203   13.5218 H   0  0  0  0  0  0  0  0  0  0  0  0
  3  2  1  0
  4  2  2  0
  5  2  1  0
  6  5  1  0
  7  6  2  0
  8  6  1  0
  9  8  2  0
 10  7  1  0
 11 10  2  0
 11  9  1  0
  5 12  1  0
  5 13  1  0
  7 14  1  0
  8 15  1  0
  9 16  1  0
 10 17  1  0
 11 18  1  0
M  CHG  2   1   1   3  -1
M  END
> <Uni-Dock RESULT> 
ENERGY=   -3.314  LOWER_BOUND=    5.020  UPPER_BOUND=    5.922
INTER + INTRA:          -3.314
INTER:                  -3.314
INTRA:                   0.000
UNBOUND:                 0.000

$$$$

     RDKit          3D

 18 17  0  0  0  0  0  0  0  0999 V2000
   45.7173    5.6503   12.4920 Na  0  0  0  0  0 15  0  0  0  0  0  0
   43.0444    5.3596   12.2640 C   0  0  0  0  0  0  0  0  0  0  0  0
   42.5830    6.2880   11.5371 O   0  0  0  0  0  0  0  0  0  0  0  0
   42.5821    4.8813   13.3413 O   0  0  0  0  0  0  0  0  0  0  0  0
   44.3039    4.6766   11.7322 C   0  0  0  0  0  0  0  0  0  0  0  0
   45.5649    5.3291   12.2415 C   0  0  0  0  0  0  0  0  0  0  0  0
   46.1513    4.9037   13.4402 C   0  0  0  0  0  0  0  0  0  0  0  0
   46.1524    6.3873   11.5370 C   0  0  0  0  0  0  0  0  0  0  0  0
   47.3192    6.9914   12.0081 C   0  0  0  0  0  0  0  0  0  0  0  0
   47.3182    5.5075   13.9117 C   0  0  0  0  0  0  0  0  0  0  0  0
   47.9050    6.5483   13.1932 C   0  0  0  0  0  0  0  0  0  0  0  0
   44.2941    3.6157   12.0130 H   0  0  0  0  0  0  0  0  0  0  0  0
   44.2949    4.6901   10.6349 H   0  0  0  0  0  0  0  0  0  0  0  0
   45.6789    4.1103   14.0158 H   0  0  0  0  0  0  0  0  0  0  0  0
   45.6808    6.7523   10.6267 H   0  0  0  0  0  0  0  0  0  0  0  0
   47.7579    7.8163   11.4554 H   0  0  0  0  0  0  0  0  0  0  0  0
   47.7560    5.1724   14.8469 H   0  0  0  0  0  0  0  0  0  0  0  0
   48.8063    7.0249   13.5652 H   0  0  0  0  0  0  0  0  0  0  0  0
  3  2  1  0
  4  2  2  0
  5  2  1  0
  6  5  1  0
  7  6  2  0
  8  6  1  0
  9  8  2  0
 10  7  1  0
 11 10  2  0
 11  9  1  0
  5 12  1  0
  5 13  1  0
  7 14  1  0
  8 15  1  0
  9 16  1  0
 10 17  1  0
 11 18  1  0
M  CHG  2   1   1   3  -1
M  END
> <Uni-Dock RESULT> 
ENERGY=   -3.234  LOWER_BOUND=    4.868  UPPER_BOUND=    5.545
INTER + INTRA:          -3.234
INTER:                  -3.234
INTRA:                   0.000
UNBOUND:                 0.000

$$$$
