
     RDKit          3D

 18 17  0  0  0  0  0  0  0  0999 V2000
   46.0958    2.9785    7.9472 Na  0  0  0  0  0 15  0  0  0  0  0  0
   45.0998    4.5818    9.8754 C   0  0  0  0  0  0  0  0  0  0  0  0
   45.5816    5.7452    9.7426 O   0  0  0  0  0  0  0  0  0  0  0  0
   44.9197    3.9054   10.9304 O   0  0  0  0  0  0  0  0  0  0  0  0
   44.6071    3.9265    8.5857 C   0  0  0  0  0  0  0  0  0  0  0  0
   45.6816    3.1070    7.9155 C   0  0  0  0  0  0  0  0  0  0  0  0
   45.8476    1.7539    8.2362 C   0  0  0  0  0  0  0  0  0  0  0  0
   46.5458    3.6944    6.9829 C   0  0  0  0  0  0  0  0  0  0  0  0
   47.5404    2.9364    6.3627 C   0  0  0  0  0  0  0  0  0  0  0  0
   46.8421    0.9954    7.6162 C   0  0  0  0  0  0  0  0  0  0  0  0
   47.6856    1.5855    6.6759 C   0  0  0  0  0  0  0  0  0  0  0  0
   44.2431    4.6986    7.8960 H   0  0  0  0  0  0  0  0  0  0  0  0
   43.7374    3.2933    8.8033 H   0  0  0  0  0  0  0  0  0  0  0  0
   45.2081    1.2995    8.9901 H   0  0  0  0  0  0  0  0  0  0  0  0
   46.4513    4.7550    6.7586 H   0  0  0  0  0  0  0  0  0  0  0  0
   48.2080    3.4079    5.6484 H   0  0  0  0  0  0  0  0  0  0  0  0
   46.9640   -0.0500    7.8816 H   0  0  0  0  0  0  0  0  0  0  0  0
   48.4657    0.9986    6.2015 H   0  0  0  0  0  0  0  0  0  0  0  0
  3  2  1  0
  4  2  2  0
  5  2  1  0
  6  5  1  0
  7  6  2  0
  8  6  1  0
  9  8  2  0
 10  7  1  0
 11 10  2  0
 11  9  1  0
  5 12  1  0
  5 13  1  0
  7 14  1  0
  8 15  1  0
  9 16  1  0
 10 17  1  0
 11 18  1  0
M  CHG  2   1   1   3  -1
M  END
> <Uni-Dock RESULT> 
ENERGY=   -5.893  LOWER_BOUND=    0.000  UPPER_BOUND=    0.000
INTER + INTRA:          -5.893
INTER:                  -5.893
INTRA:                   0.000
UNBOUND:                 0.000

$$$$

     RDKit          3D

 18 17  0  0  0  0  0  0  0  0999 V2000
   46.0946    2.9764    7.9516 Na  0  0  0  0  0 15  0  0  0  0  0  0
   45.1014    4.5857    9.8764 C   0  0  0  0  0  0  0  0  0  0  0  0
   45.5868    5.7474    9.7422 O   0  0  0  0  0  0  0  0  0  0  0  0
   44.9183    3.9114   10.9322 O   0  0  0  0  0  0  0  0  0  0  0  0
   44.6080    3.9298    8.5872 C   0  0  0  0  0  0  0  0  0  0  0  0
   45.6807    3.1061    7.9193 C   0  0  0  0  0  0  0  0  0  0  0  0
   45.8425    1.7530    8.2422 C   0  0  0  0  0  0  0  0  0  0  0  0
   46.5475    3.6895    6.9867 C   0  0  0  0  0  0  0  0  0  0  0  0
   47.5405    2.9276    6.3686 C   0  0  0  0  0  0  0  0  0  0  0  0
   46.8354    0.9907    7.6244 C   0  0  0  0  0  0  0  0  0  0  0  0
   47.6814    1.5769    6.6839 C   0  0  0  0  0  0  0  0  0  0  0  0
   44.2469    4.7019    7.8959 H   0  0  0  0  0  0  0  0  0  0  0  0
   43.7362    3.2995    8.8049 H   0  0  0  0  0  0  0  0  0  0  0  0
   45.2009    1.3017    8.9962 H   0  0  0  0  0  0  0  0  0  0  0  0
   46.4563    4.7500    6.7605 H   0  0  0  0  0  0  0  0  0  0  0  0
   48.2102    3.3961    5.6541 H   0  0  0  0  0  0  0  0  0  0  0  0
   46.9539   -0.0547    7.8915 H   0  0  0  0  0  0  0  0  0  0  0  0
   48.4603    0.9869    6.2113 H   0  0  0  0  0  0  0  0  0  0  0  0
  3  2  1  0
  4  2  2  0
  5  2  1  0
  6  5  1  0
  7  6  2  0
  8  6  1  0
  9  8  2  0
 10  7  1  0
 11 10  2  0
 11  9  1  0
  5 12  1  0
  5 13  1  0
  7 14  1  0
  8 15  1  0
  9 16  1  0
 10 17  1  0
 11 18  1  0
M  CHG  2   1   1   3  -1
M  END
> <Uni-Dock RESULT> 
ENERGY=   -5.892  LOWER_BOUND=    0.008  UPPER_BOUND=    0.008
INTER + INTRA:          -5.892
INTER:                  -5.892
INTRA:                   0.000
UNBOUND:                 0.000

$$$$

     RDKit          3D

 18 17  0  0  0  0  0  0  0  0999 V2000
   45.7745    3.3030    8.3083 Na  0  0  0  0  0 15  0  0  0  0  0  0
   47.6154    1.9931    6.8332 C   0  0  0  0  0  0  0  0  0  0  0  0
   47.6103    0.7672    7.1499 O   0  0  0  0  0  0  0  0  0  0  0  0
   48.5992    2.7597    6.6149 O   0  0  0  0  0  0  0  0  0  0  0  0
   46.2377    2.6202    6.6225 C   0  0  0  0  0  0  0  0  0  0  0  0
   45.6898    3.2321    7.8877 C   0  0  0  0  0  0  0  0  0  0  0  0
   45.9645    4.5673    8.2085 C   0  0  0  0  0  0  0  0  0  0  0  0
   44.9211    2.4658    8.7728 C   0  0  0  0  0  0  0  0  0  0  0  0
   44.4141    3.0316    9.9439 C   0  0  0  0  0  0  0  0  0  0  0  0
   45.4576    5.1337    9.3794 C   0  0  0  0  0  0  0  0  0  0  0  0
   44.6784    4.3671   10.2449 C   0  0  0  0  0  0  0  0  0  0  0  0
   45.5414    1.8610    6.2442 H   0  0  0  0  0  0  0  0  0  0  0  0
   46.2967    3.3829    5.8355 H   0  0  0  0  0  0  0  0  0  0  0  0
   46.5954    5.1583    7.5478 H   0  0  0  0  0  0  0  0  0  0  0  0
   44.7376    1.4161    8.5526 H   0  0  0  0  0  0  0  0  0  0  0  0
   43.8271    2.4225   10.6242 H   0  0  0  0  0  0  0  0  0  0  0  0
   45.6864    6.1675    9.6186 H   0  0  0  0  0  0  0  0  0  0  0  0
   44.2931    4.8042   11.1606 H   0  0  0  0  0  0  0  0  0  0  0  0
  3  2  1  0
  4  2  2  0
  5  2  1  0
  6  5  1  0
  7  6  2  0
  8  6  1  0
  9  8  2  0
 10  7  1  0
 11 10  2  0
 11  9  1  0
  5 12  1  0
  5 13  1  0
  7 14  1  0
  8 15  1  0
  9 16  1  0
 10 17  1  0
 11 18  1  0
M  CHG  2   1   1   3  -1
M  END
> <Uni-Dock RESULT> 
ENERGY=   -4.992  LOWER_BOUND=    2.501  UPPER_BOUND=    4.151
INTER + INTRA:          -4.992
INTER:                  -4.992
INTRA:                   0.000
UNBOUND:                 0.000

$$$$

     RDKit          3D

 18 17  0  0  0  0  0  0  0  0999 V2000
   44.6263    4.2908   10.0181 Na  0  0  0  0  0 15  0  0  0  0  0  0
   43.0484    5.8871   11.5158 C   0  0  0  0  0  0  0  0  0  0  0  0
   42.0952    5.2041   11.9934 O   0  0  0  0  0  0  0  0  0  0  0  0
   43.0271    7.0476   11.0101 O   0  0  0  0  0  0  0  0  0  0  0  0
   44.4311    5.2450   11.6225 C   0  0  0  0  0  0  0  0  0  0  0  0
   44.7739    4.4227   10.4053 C   0  0  0  0  0  0  0  0  0  0  0  0
   45.4147    5.0106    9.3075 C   0  0  0  0  0  0  0  0  0  0  0  0
   44.4320    3.0659   10.3447 C   0  0  0  0  0  0  0  0  0  0  0  0
   44.7488    2.3047    9.2183 C   0  0  0  0  0  0  0  0  0  0  0  0
   45.7318    4.2498    8.1809 C   0  0  0  0  0  0  0  0  0  0  0  0
   45.4031    2.8956    8.1382 C   0  0  0  0  0  0  0  0  0  0  0  0
   44.4772    4.6168   12.5212 H   0  0  0  0  0  0  0  0  0  0  0  0
   45.1890    6.0250   11.7702 H   0  0  0  0  0  0  0  0  0  0  0  0
   45.6467    6.0735    9.3286 H   0  0  0  0  0  0  0  0  0  0  0  0
   43.8968    2.6105   11.1755 H   0  0  0  0  0  0  0  0  0  0  0  0
   44.4697    1.2563    9.1828 H   0  0  0  0  0  0  0  0  0  0  0  0
   46.2208    4.7218    7.3345 H   0  0  0  0  0  0  0  0  0  0  0  0
   45.6401    2.3064    7.2580 H   0  0  0  0  0  0  0  0  0  0  0  0
  3  2  1  0
  4  2  2  0
  5  2  1  0
  6  5  1  0
  7  6  2  0
  8  6  1  0
  9  8  2  0
 10  7  1  0
 11 10  2  0
 11  9  1  0
  5 12  1  0
  5 13  1  0
  7 14  1  0
  8 15  1  0
  9 16  1  0
 10 17  1  0
 11 18  1  0
M  CHG  2   1   1   3  -1
M  END
> <Uni-Dock RESULT> 
ENERGY=   -4.472  LOWER_BOUND=    2.288  UPPER_BOUND=    3.479
INTER + INTRA:          -4.472
INTER:                  -4.472
INTRA:                   0.000
UNBOUND:                 0.000

$$$$

     RDKit          3D

 18 17  0  0  0  0  0  0  0  0999 V2000
   44.6948    3.8824    9.9359 Na  0  0  0  0  0 15  0  0  0  0  0  0
   44.1742    4.8478   12.4012 C   0  0  0  0  0  0  0  0  0  0  0  0
   44.8293    5.9166   12.5790 O   0  0  0  0  0  0  0  0  0  0  0  0
   43.9864    3.8818   13.1978 O   0  0  0  0  0  0  0  0  0  0  0  0
   43.4555    4.7368   11.0570 C   0  0  0  0  0  0  0  0  0  0  0  0
   44.3069    4.0651   10.0085 C   0  0  0  0  0  0  0  0  0  0  0  0
   44.2738    2.6740    9.8500 C   0  0  0  0  0  0  0  0  0  0  0  0
   45.1627    4.8204    9.1969 C   0  0  0  0  0  0  0  0  0  0  0  0
   45.9510    4.1991    8.2268 C   0  0  0  0  0  0  0  0  0  0  0  0
   45.0618    2.0522    8.8799 C   0  0  0  0  0  0  0  0  0  0  0  0
   45.8969    2.8153    8.0650 C   0  0  0  0  0  0  0  0  0  0  0  0
   43.1611    5.7365   10.7130 H   0  0  0  0  0  0  0  0  0  0  0  0
   42.5172    4.1822   11.1857 H   0  0  0  0  0  0  0  0  0  0  0  0
   43.6433    2.0751   10.5039 H   0  0  0  0  0  0  0  0  0  0  0  0
   45.2263    5.8971    9.3412 H   0  0  0  0  0  0  0  0  0  0  0  0
   46.6157    4.7970    7.6112 H   0  0  0  0  0  0  0  0  0  0  0  0
   45.0316    0.9723    8.7749 H   0  0  0  0  0  0  0  0  0  0  0  0
   46.5176    2.3309    7.3178 H   0  0  0  0  0  0  0  0  0  0  0  0
  3  2  1  0
  4  2  2  0
  5  2  1  0
  6  5  1  0
  7  6  2  0
  8  6  1  0
  9  8  2  0
 10  7  1  0
 11 10  2  0
 11  9  1  0
  5 12  1  0
  5 13  1  0
  7 14  1  0
  8 15  1  0
  9 16  1  0
 10 17  1  0
 11 18  1  0
M  CHG  2   1   1   3  -1
M  END
> <Uni-Dock RESULT> 
ENERGY=   -3.997  LOWER_BOUND=    1.988  UPPER_BOUND=    2.665
INTER + INTRA:          -3.997
INTER:                  -3.997
INTRA:                   0.000
UNBOUND:                 0.000

$$$$

     RDKit          3D

 18 17  0  0  0  0  0  0  0  0999 V2000
   44.9099    3.8613    9.8687 Na  0  0  0  0  0 15  0  0  0  0  0  0
   46.2251    3.2190    7.6019 C   0  0  0  0  0  0  0  0  0  0  0  0
   46.4354    1.9706    7.5795 O   0  0  0  0  0  0  0  0  0  0  0  0
   47.0017    4.1676    7.2857 O   0  0  0  0  0  0  0  0  0  0  0  0
   44.8124    3.6374    8.0078 C   0  0  0  0  0  0  0  0  0  0  0  0
   44.6902    3.8678    9.4935 C   0  0  0  0  0  0  0  0  0  0  0  0
   44.9446    5.1318   10.0402 C   0  0  0  0  0  0  0  0  0  0  0  0
   44.3469    2.8144   10.3503 C   0  0  0  0  0  0  0  0  0  0  0  0
   44.2341    3.0272   11.7253 C   0  0  0  0  0  0  0  0  0  0  0  0
   44.8318    5.3451   11.4152 C   0  0  0  0  0  0  0  0  0  0  0  0
   44.4719    4.2938   12.2572 C   0  0  0  0  0  0  0  0  0  0  0  0
   44.0953    2.8699    7.6898 H   0  0  0  0  0  0  0  0  0  0  0  0
   44.5278    4.5481    7.4653 H   0  0  0  0  0  0  0  0  0  0  0  0
   45.2526    5.9459    9.3873 H   0  0  0  0  0  0  0  0  0  0  0  0
   44.1884    1.8194    9.9394 H   0  0  0  0  0  0  0  0  0  0  0  0
   43.9755    2.1988   12.3774 H   0  0  0  0  0  0  0  0  0  0  0  0
   45.0406    6.3283   11.8249 H   0  0  0  0  0  0  0  0  0  0  0  0
   44.3945    4.4570   13.3275 H   0  0  0  0  0  0  0  0  0  0  0  0
  3  2  1  0
  4  2  2  0
  5  2  1  0
  6  5  1  0
  7  6  2  0
  8  6  1  0
  9  8  2  0
 10  7  1  0
 11 10  2  0
 11  9  1  0
  5 12  1  0
  5 13  1  0
  7 14  1  0
  8 15  1  0
  9 16  1  0
 10 17  1  0
 11 18  1  0
M  CHG  2   1   1   3  -1
M  END
> <Uni-Dock RESULT> 
ENERGY=   -3.969  LOWER_BOUND=    2.244  UPPER_BOUND=    4.414
INTER + INTRA:          -3.969
INTER:                  -3.969
INTRA:                   0.000
UNBOUND:                 0.000

$$$$

     RDKit          3D

 18 17  0  0  0  0  0  0  0  0999 V2000
   49.9906    3.1130   17.4677 Na  0  0  0  0  0 15  0  0  0  0  0  0
   47.3516    3.6174   17.7174 C   0  0  0  0  0  0  0  0  0  0  0  0
   47.1900    4.6756   18.3937 O   0  0  0  0  0  0  0  0  0  0  0  0
   46.7205    2.5217   17.7818 O   0  0  0  0  0  0  0  0  0  0  0  0
   48.4177    3.6954   16.6253 C   0  0  0  0  0  0  0  0  0  0  0  0
   49.7743    3.2590   17.1198 C   0  0  0  0  0  0  0  0  0  0  0  0
   50.1606    1.9150   17.0426 C   0  0  0  0  0  0  0  0  0  0  0  0
   50.6561    4.1869   17.6879 C   0  0  0  0  0  0  0  0  0  0  0  0
   51.9115    3.7833   18.1460 C   0  0  0  0  0  0  0  0  0  0  0  0
   51.4159    1.5109   17.5005 C   0  0  0  0  0  0  0  0  0  0  0  0
   52.2933    2.4460   18.0479 C   0  0  0  0  0  0  0  0  0  0  0  0
   48.4747    4.7209   16.2386 H   0  0  0  0  0  0  0  0  0  0  0  0
   48.1160    3.0757   15.7711 H   0  0  0  0  0  0  0  0  0  0  0  0
   49.4660    1.1800   16.6412 H   0  0  0  0  0  0  0  0  0  0  0  0
   50.3482    5.2256   17.7903 H   0  0  0  0  0  0  0  0  0  0  0  0
   52.5805    4.5128   18.5917 H   0  0  0  0  0  0  0  0  0  0  0  0
   51.6975    0.4643   17.4418 H   0  0  0  0  0  0  0  0  0  0  0  0
   53.2652    2.1302   18.4137 H   0  0  0  0  0  0  0  0  0  0  0  0
  3  2  1  0
  4  2  2  0
  5  2  1  0
  6  5  1  0
  7  6  2  0
  8  6  1  0
  9  8  2  0
 10  7  1  0
 11 10  2  0
 11  9  1  0
  5 12  1  0
  5 13  1  0
  7 14  1  0
  8 15  1  0
  9 16  1  0
 10 17  1  0
 11 18  1  0
M  CHG  2   1   1   3  -1
M  END
> <Uni-Dock RESULT> 
ENERGY=   -3.328  LOWER_BOUND=    9.256  UPPER_BOUND=   10.187
INTER + INTRA:          -3.328
INTER:                  -3.328
INTRA:                   0.000
UNBOUND:                 0.000

$$$$

     RDKit          3D

 18 17  0  0  0  0  0  0  0  0999 V2000
   45.4980    5.4955   12.3613 Na  0  0  0  0  0 15  0  0  0  0  0  0
   43.0159    5.9347   11.3984 C   0  0  0  0  0  0  0  0  0  0  0  0
   42.8846    7.1640   11.1250 O   0  0  0  0  0  0  0  0  0  0  0  0
   42.2016    5.1494   11.9669 O   0  0  0  0  0  0  0  0  0  0  0  0
   44.3165    5.2927   10.9170 C   0  0  0  0  0  0  0  0  0  0  0  0
   45.4053    5.3588   11.9590 C   0  0  0  0  0  0  0  0  0  0  0  0
   45.5495    4.3340   12.9026 C   0  0  0  0  0  0  0  0  0  0  0  0
   46.2703    6.4588   12.0144 C   0  0  0  0  0  0  0  0  0  0  0  0
   47.2777    6.5205   12.9787 C   0  0  0  0  0  0  0  0  0  0  0  0
   46.5569    4.3951   13.8670 C   0  0  0  0  0  0  0  0  0  0  0  0
   47.4241    5.4862   13.9021 C   0  0  0  0  0  0  0  0  0  0  0  0
   44.6522    5.7862    9.9961 H   0  0  0  0  0  0  0  0  0  0  0  0
   44.1304    4.2473   10.6391 H   0  0  0  0  0  0  0  0  0  0  0  0
   44.8559    3.4957   12.8934 H   0  0  0  0  0  0  0  0  0  0  0  0
   46.1393    7.2795   11.3119 H   0  0  0  0  0  0  0  0  0  0  0  0
   47.9349    7.3837   13.0143 H   0  0  0  0  0  0  0  0  0  0  0  0
   46.6505    3.5972   14.5970 H   0  0  0  0  0  0  0  0  0  0  0  0
   48.2007    5.5390   14.6586 H   0  0  0  0  0  0  0  0  0  0  0  0
  3  2  1  0
  4  2  2  0
  5  2  1  0
  6  5  1  0
  7  6  2  0
  8  6  1  0
  9  8  2  0
 10  7  1  0
 11 10  2  0
 11  9  1  0
  5 12  1  0
  5 13  1  0
  7 14  1  0
  8 15  1  0
  9 16  1  0
 10 17  1  0
 11 18  1  0
M  CHG  2   1   1   3  -1
M  END
> <Uni-Dock RESULT> 
ENERGY=   -3.319  LOWER_BOUND=    4.604  UPPER_BOUND=    5.404
INTER + INTRA:          -3.319
INTER:                  -3.319
INTRA:                   0.000
UNBOUND:                 0.000

$$$$

     RDKit          3D

 18 17  0  0  0  0  0  0  0  0999 V2000
   45.3464    5.4933   12.8262 Na  0  0  0  0  0 15  0  0  0  0  0  0
   43.2023    4.5872   11.4614 C   0  0  0  0  0  0  0  0  0  0  0  0
   43.1945    3.3213   11.4868 O   0  0  0  0  0  0  0  0  0  0  0  0
   42.9590    5.3702   10.4966 O   0  0  0  0  0  0  0  0  0  0  0  0
   43.4834    5.2668   12.8010 C   0  0  0  0  0  0  0  0  0  0  0  0
   44.9533    5.5356   13.0072 C   0  0  0  0  0  0  0  0  0  0  0  0
   45.5245    6.7372   12.5699 C   0  0  0  0  0  0  0  0  0  0  0  0
   45.7730    4.5761   13.6146 C   0  0  0  0  0  0  0  0  0  0  0  0
   47.1334    4.8244   13.8053 C   0  0  0  0  0  0  0  0  0  0  0  0
   46.8848    6.9860   12.7604 C   0  0  0  0  0  0  0  0  0  0  0  0
   47.6884    6.0315   13.3825 C   0  0  0  0  0  0  0  0  0  0  0  0
   43.1009    4.6422   13.6183 H   0  0  0  0  0  0  0  0  0  0  0  0
   42.9209    6.2073   12.8621 H   0  0  0  0  0  0  0  0  0  0  0  0
   44.9039    7.4709   12.0595 H   0  0  0  0  0  0  0  0  0  0  0  0
   45.3465    3.6227   13.9198 H   0  0  0  0  0  0  0  0  0  0  0  0
   47.7575    4.0675   14.2700 H   0  0  0  0  0  0  0  0  0  0  0  0
   47.3146    7.9185   12.4083 H   0  0  0  0  0  0  0  0  0  0  0  0
   48.7482    6.2204   13.5212 H   0  0  0  0  0  0  0  0  0  0  0  0
  3  2  1  0
  4  2  2  0
  5  2  1  0
  6  5  1  0
  7  6  2  0
  8  6  1  0
  9  8  2  0
 10  7  1  0
 11 10  2  0
 11  9  1  0
  5 12  1  0
  5 13  1  0
  7 14  1  0
  8 15  1  0
  9 16  1  0
 10 17  1  0
 11 18  1  0
M  CHG  2   1   1   3  -1
M  END
> <Uni-Dock RESULT> 
ENERGY=   -3.315  LOWER_BOUND=    5.023  UPPER_BOUND=    5.924
INTER + INTRA:          -3.315
INTER:                  -3.315
INTRA:                   0.000
UNBOUND:                 0.000

$$$$
