
     RDKit          3D

 18 17  0  0  0  0  0  0  0  0999 V2000
   46.0945    2.9766    7.9516 Na  0  0  0  0  0 15  0  0  0  0  0  0
   45.1012    4.5855    9.8765 C   0  0  0  0  0  0  0  0  0  0  0  0
   45.5867    5.7473    9.7428 O   0  0  0  0  0  0  0  0  0  0  0  0
   44.9179    3.9110   10.9323 O   0  0  0  0  0  0  0  0  0  0  0  0
   44.6079    3.9299    8.5872 C   0  0  0  0  0  0  0  0  0  0  0  0
   45.6807    3.1064    7.9192 C   0  0  0  0  0  0  0  0  0  0  0  0
   46.5475    3.6897    6.9866 C   0  0  0  0  0  0  0  0  0  0  0  0
   45.8426    1.7533    8.2422 C   0  0  0  0  0  0  0  0  0  0  0  0
   46.8354    0.9909    7.6245 C   0  0  0  0  0  0  0  0  0  0  0  0
   47.5405    2.9278    6.3685 C   0  0  0  0  0  0  0  0  0  0  0  0
   47.6815    1.5770    6.6839 C   0  0  0  0  0  0  0  0  0  0  0  0
   43.7361    3.2998    8.8044 H   0  0  0  0  0  0  0  0  0  0  0  0
   44.2471    4.7022    7.8959 H   0  0  0  0  0  0  0  0  0  0  0  0
   46.4563    4.7502    6.7604 H   0  0  0  0  0  0  0  0  0  0  0  0
   45.2009    1.3019    8.9963 H   0  0  0  0  0  0  0  0  0  0  0  0
   46.9539   -0.0545    7.8916 H   0  0  0  0  0  0  0  0  0  0  0  0
   48.2102    3.3962    5.6541 H   0  0  0  0  0  0  0  0  0  0  0  0
   48.4602    0.9870    6.2113 H   0  0  0  0  0  0  0  0  0  0  0  0
  3  2  1  0
  4  2  2  0
  5  2  1  0
  6  5  1  0
  7  6  2  0
  8  6  1  0
  9  8  2  0
 10  7  1  0
 11 10  2  0
 11  9  1  0
  5 12  1  0
  5 13  1  0
  7 14  1  0
  8 15  1  0
  9 16  1  0
 10 17  1  0
 11 18  1  0
M  CHG  2   1   1   3  -1
M  END
> <Uni-Dock RESULT> 
ENERGY=   -5.891  LOWER_BOUND=    0.000  UPPER_BOUND=    0.000
INTER + INTRA:          -5.891
INTER:                  -5.891
INTRA:                   0.000
UNBOUND:                 0.000

$$$$

     RDKit          3D

 18 17  0  0  0  0  0  0  0  0999 V2000
   45.7746    3.3033    8.3088 Na  0  0  0  0  0 15  0  0  0  0  0  0
   47.6158    1.9942    6.8334 C   0  0  0  0  0  0  0  0  0  0  0  0
   47.6114    0.7683    7.1501 O   0  0  0  0  0  0  0  0  0  0  0  0
   48.5992    2.7612    6.6149 O   0  0  0  0  0  0  0  0  0  0  0  0
   46.2378    2.6207    6.6229 C   0  0  0  0  0  0  0  0  0  0  0  0
   45.6899    3.2323    7.8883 C   0  0  0  0  0  0  0  0  0  0  0  0
   44.9214    2.4659    8.7735 C   0  0  0  0  0  0  0  0  0  0  0  0
   45.9644    4.5676    8.2091 C   0  0  0  0  0  0  0  0  0  0  0  0
   45.4577    5.1338    9.3801 C   0  0  0  0  0  0  0  0  0  0  0  0
   44.4144    3.0317    9.9445 C   0  0  0  0  0  0  0  0  0  0  0  0
   44.6785    4.3671   10.2456 C   0  0  0  0  0  0  0  0  0  0  0  0
   46.2962    3.3833    5.8359 H   0  0  0  0  0  0  0  0  0  0  0  0
   45.5417    1.8611    6.2449 H   0  0  0  0  0  0  0  0  0  0  0  0
   44.7380    1.4162    8.5533 H   0  0  0  0  0  0  0  0  0  0  0  0
   46.5952    5.1588    7.5483 H   0  0  0  0  0  0  0  0  0  0  0  0
   45.6862    6.1677    9.6192 H   0  0  0  0  0  0  0  0  0  0  0  0
   43.8276    2.4225   10.6249 H   0  0  0  0  0  0  0  0  0  0  0  0
   44.2933    4.8042   11.1613 H   0  0  0  0  0  0  0  0  0  0  0  0
  3  2  1  0
  4  2  2  0
  5  2  1  0
  6  5  1  0
  7  6  2  0
  8  6  1  0
  9  8  2  0
 10  7  1  0
 11 10  2  0
 11  9  1  0
  5 12  1  0
  5 13  1  0
  7 14  1  0
  8 15  1  0
  9 16  1  0
 10 17  1  0
 11 18  1  0
M  CHG  2   1   1   3  -1
M  END
> <Uni-Dock RESULT> 
ENERGY=   -4.986  LOWER_BOUND=    2.501  UPPER_BOUND=    4.150
INTER + INTRA:          -4.986
INTER:                  -4.986
INTRA:                   0.000
UNBOUND:                 0.000

$$$$

     RDKit          3D

 18 17  0  0  0  0  0  0  0  0999 V2000
   44.6264    4.2909   10.0181 Na  0  0  0  0  0 15  0  0  0  0  0  0
   43.0486    5.8871   11.5158 C   0  0  0  0  0  0  0  0  0  0  0  0
   42.0952    5.2043   11.9933 O   0  0  0  0  0  0  0  0  0  0  0  0
   43.0275    7.0478   11.0102 O   0  0  0  0  0  0  0  0  0  0  0  0
   44.4312    5.2450   11.6226 C   0  0  0  0  0  0  0  0  0  0  0  0
   44.7740    4.4226   10.4054 C   0  0  0  0  0  0  0  0  0  0  0  0
   44.4324    3.0658   10.3447 C   0  0  0  0  0  0  0  0  0  0  0  0
   45.4146    5.0107    9.3077 C   0  0  0  0  0  0  0  0  0  0  0  0
   45.7318    4.2501    8.1809 C   0  0  0  0  0  0  0  0  0  0  0  0
   44.7493    2.3047    9.2183 C   0  0  0  0  0  0  0  0  0  0  0  0
   45.4034    2.8957    8.1381 C   0  0  0  0  0  0  0  0  0  0  0  0
   45.1892    6.0247   11.7705 H   0  0  0  0  0  0  0  0  0  0  0  0
   44.4770    4.6166   12.5213 H   0  0  0  0  0  0  0  0  0  0  0  0
   43.8972    2.6103   11.1755 H   0  0  0  0  0  0  0  0  0  0  0  0
   45.6465    6.0737    9.3287 H   0  0  0  0  0  0  0  0  0  0  0  0
   46.2208    4.7222    7.3346 H   0  0  0  0  0  0  0  0  0  0  0  0
   44.4703    1.2563    9.1827 H   0  0  0  0  0  0  0  0  0  0  0  0
   45.6405    2.3067    7.2580 H   0  0  0  0  0  0  0  0  0  0  0  0
  3  2  1  0
  4  2  2  0
  5  2  1  0
  6  5  1  0
  7  6  2  0
  8  6  1  0
  9  8  2  0
 10  7  1  0
 11 10  2  0
 11  9  1  0
  5 12  1  0
  5 13  1  0
  7 14  1  0
  8 15  1  0
  9 16  1  0
 10 17  1  0
 11 18  1  0
M  CHG  2   1   1   3  -1
M  END
> <Uni-Dock RESULT> 
ENERGY=   -4.473  LOWER_BOUND=    2.286  UPPER_BOUND=    3.477
INTER + INTRA:          -4.473
INTER:                  -4.473
INTRA:                   0.000
UNBOUND:                 0.000

$$$$

     RDKit          3D

 18 17  0  0  0  0  0  0  0  0999 V2000
   44.8962    7.1908   12.1384 Na  0  0  0  0  0 15  0  0  0  0  0  0
   42.9102    5.3647   12.0949 C   0  0  0  0  0  0  0  0  0  0  0  0
   41.8155    5.9431   11.8298 O   0  0  0  0  0  0  0  0  0  0  0  0
   43.1527    4.4625   12.9496 O   0  0  0  0  0  0  0  0  0  0  0  0
   44.0931    5.7676   11.2152 C   0  0  0  0  0  0  0  0  0  0  0  0
   44.8748    6.9168   11.8014 C   0  0  0  0  0  0  0  0  0  0  0  0
   44.5300    8.2397   11.4974 C   0  0  0  0  0  0  0  0  0  0  0  0
   45.9395    6.6777   12.6793 C   0  0  0  0  0  0  0  0  0  0  0  0
   46.6630    7.7409   13.2222 C   0  0  0  0  0  0  0  0  0  0  0  0
   45.2532    9.3033   12.0400 C   0  0  0  0  0  0  0  0  0  0  0  0
   46.3229    9.0538   12.8987 C   0  0  0  0  0  0  0  0  0  0  0  0
   44.7543    4.9040   11.0687 H   0  0  0  0  0  0  0  0  0  0  0  0
   43.7330    6.0350   10.2135 H   0  0  0  0  0  0  0  0  0  0  0  0
   43.6781    8.4361   10.8495 H   0  0  0  0  0  0  0  0  0  0  0  0
   46.1882    5.6546   12.9541 H   0  0  0  0  0  0  0  0  0  0  0  0
   47.4802    7.5398   13.9077 H   0  0  0  0  0  0  0  0  0  0  0  0
   44.9684   10.3233   11.8017 H   0  0  0  0  0  0  0  0  0  0  0  0
   46.8786    9.8808   13.3290 H   0  0  0  0  0  0  0  0  0  0  0  0
  3  2  1  0
  4  2  2  0
  5  2  1  0
  6  5  1  0
  7  6  2  0
  8  6  1  0
  9  8  2  0
 10  7  1  0
 11 10  2  0
 11  9  1  0
  5 12  1  0
  5 13  1  0
  7 14  1  0
  8 15  1  0
  9 16  1  0
 10 17  1  0
 11 18  1  0
M  CHG  2   1   1   3  -1
M  END
> <Uni-Dock RESULT> 
ENERGY=   -3.423  LOWER_BOUND=    5.145  UPPER_BOUND=    6.427
INTER + INTRA:          -3.423
INTER:                  -3.423
INTRA:                   0.000
UNBOUND:                 0.000

$$$$

     RDKit          3D

 18 17  0  0  0  0  0  0  0  0999 V2000
   39.2120   11.6698   13.0064 Na  0  0  0  0  0 15  0  0  0  0  0  0
   39.6148   12.5118   15.5381 C   0  0  0  0  0  0  0  0  0  0  0  0
   40.8085   12.2610   15.8778 O   0  0  0  0  0  0  0  0  0  0  0  0
   38.5463   12.3674   16.2020 O   0  0  0  0  0  0  0  0  0  0  0  0
   39.4457   13.1367   14.1538 C   0  0  0  0  0  0  0  0  0  0  0  0
   39.2427   12.0974   13.0796 C   0  0  0  0  0  0  0  0  0  0  0  0
   40.3409   11.5419   12.4111 C   0  0  0  0  0  0  0  0  0  0  0  0
   37.9549   11.6535   12.7542 C   0  0  0  0  0  0  0  0  0  0  0  0
   37.7667   10.6916   11.7603 C   0  0  0  0  0  0  0  0  0  0  0  0
   40.1533   10.5799   11.4171 C   0  0  0  0  0  0  0  0  0  0  0  0
   38.8657   10.1581   11.0883 C   0  0  0  0  0  0  0  0  0  0  0  0
   38.5964   13.8316   14.1646 H   0  0  0  0  0  0  0  0  0  0  0  0
   40.3243   13.7502   13.9168 H   0  0  0  0  0  0  0  0  0  0  0  0
   41.3476   11.8499   12.6863 H   0  0  0  0  0  0  0  0  0  0  0  0
   37.0987   12.0488   13.2972 H   0  0  0  0  0  0  0  0  0  0  0  0
   36.7630   10.3515   11.5253 H   0  0  0  0  0  0  0  0  0  0  0  0
   41.0149   10.1525   10.9140 H   0  0  0  0  0  0  0  0  0  0  0  0
   38.7203    9.4026   10.3229 H   0  0  0  0  0  0  0  0  0  0  0  0
  3  2  1  0
  4  2  2  0
  5  2  1  0
  6  5  1  0
  7  6  2  0
  8  6  1  0
  9  8  2  0
 10  7  1  0
 11 10  2  0
 11  9  1  0
  5 12  1  0
  5 13  1  0
  7 14  1  0
  8 15  1  0
  9 16  1  0
 10 17  1  0
 11 18  1  0
M  CHG  2   1   1   3  -1
M  END
> <Uni-Dock RESULT> 
ENERGY=   -3.402  LOWER_BOUND=   10.762  UPPER_BOUND=   12.138
INTER + INTRA:          -3.402
INTER:                  -3.402
INTRA:                   0.000
UNBOUND:                 0.000

$$$$

     RDKit          3D

 18 17  0  0  0  0  0  0  0  0999 V2000
   49.9904    3.1139   17.4676 Na  0  0  0  0  0 15  0  0  0  0  0  0
   47.3516    3.6189   17.7173 C   0  0  0  0  0  0  0  0  0  0  0  0
   47.1900    4.6764   18.3946 O   0  0  0  0  0  0  0  0  0  0  0  0
   46.7201    2.5233   17.7806 O   0  0  0  0  0  0  0  0  0  0  0  0
   48.4178    3.6975   16.6253 C   0  0  0  0  0  0  0  0  0  0  0  0
   49.7742    3.2603   17.1198 C   0  0  0  0  0  0  0  0  0  0  0  0
   50.6564    4.1875   17.6886 C   0  0  0  0  0  0  0  0  0  0  0  0
   50.1599    1.9163   17.0418 C   0  0  0  0  0  0  0  0  0  0  0  0
   51.4149    1.5112   17.4995 C   0  0  0  0  0  0  0  0  0  0  0  0
   51.9116    3.7830   18.1464 C   0  0  0  0  0  0  0  0  0  0  0  0
   52.2929    2.4456   18.0475 C   0  0  0  0  0  0  0  0  0  0  0  0
   48.1161    3.0789   15.7706 H   0  0  0  0  0  0  0  0  0  0  0  0
   48.4752    4.7234   16.2397 H   0  0  0  0  0  0  0  0  0  0  0  0
   50.3490    5.2262   17.7917 H   0  0  0  0  0  0  0  0  0  0  0  0
   49.4649    1.1817   16.6398 H   0  0  0  0  0  0  0  0  0  0  0  0
   51.6961    0.4645   17.4400 H   0  0  0  0  0  0  0  0  0  0  0  0
   52.5809    4.5118   18.5927 H   0  0  0  0  0  0  0  0  0  0  0  0
   53.2644    2.1290   18.4130 H   0  0  0  0  0  0  0  0  0  0  0  0
  3  2  1  0
  4  2  2  0
  5  2  1  0
  6  5  1  0
  7  6  2  0
  8  6  1  0
  9  8  2  0
 10  7  1  0
 11 10  2  0
 11  9  1  0
  5 12  1  0
  5 13  1  0
  7 14  1  0
  8 15  1  0
  9 16  1  0
 10 17  1  0
 11 18  1  0
M  CHG  2   1   1   3  -1
M  END
> <Uni-Dock RESULT> 
ENERGY=   -3.331  LOWER_BOUND=    9.255  UPPER_BOUND=   10.183
INTER + INTRA:          -3.331
INTER:                  -3.331
INTRA:                   0.000
UNBOUND:                 0.000

$$$$

     RDKit          3D

 18 17  0  0  0  0  0  0  0  0999 V2000
   45.3462    5.4929   12.8264 Na  0  0  0  0  0 15  0  0  0  0  0  0
   43.2021    4.5872   11.4612 C   0  0  0  0  0  0  0  0  0  0  0  0
   43.1946    3.3213   11.4856 O   0  0  0  0  0  0  0  0  0  0  0  0
   42.9585    5.3710   10.4971 O   0  0  0  0  0  0  0  0  0  0  0  0
   43.4832    5.2659   12.8013 C   0  0  0  0  0  0  0  0  0  0  0  0
   44.9530    5.5348   13.0075 C   0  0  0  0  0  0  0  0  0  0  0  0
   45.7731    4.5754   13.6144 C   0  0  0  0  0  0  0  0  0  0  0  0
   45.5239    6.7368   12.5707 C   0  0  0  0  0  0  0  0  0  0  0  0
   46.8841    6.9859   12.7611 C   0  0  0  0  0  0  0  0  0  0  0  0
   47.1334    4.8240   13.8051 C   0  0  0  0  0  0  0  0  0  0  0  0
   47.6881    6.0313   13.3828 C   0  0  0  0  0  0  0  0  0  0  0  0
   42.9205    6.2061   12.8633 H   0  0  0  0  0  0  0  0  0  0  0  0
   43.1011    4.6406   13.6182 H   0  0  0  0  0  0  0  0  0  0  0  0
   45.3469    3.6216   13.9192 H   0  0  0  0  0  0  0  0  0  0  0  0
   44.9031    7.4707   12.0606 H   0  0  0  0  0  0  0  0  0  0  0  0
   47.3136    7.9187   12.4094 H   0  0  0  0  0  0  0  0  0  0  0  0
   47.7577    4.0669   14.2692 H   0  0  0  0  0  0  0  0  0  0  0  0
   48.7478    6.2205   13.5214 H   0  0  0  0  0  0  0  0  0  0  0  0
  3  2  1  0
  4  2  2  0
  5  2  1  0
  6  5  1  0
  7  6  2  0
  8  6  1  0
  9  8  2  0
 10  7  1  0
 11 10  2  0
 11  9  1  0
  5 12  1  0
  5 13  1  0
  7 14  1  0
  8 15  1  0
  9 16  1  0
 10 17  1  0
 11 18  1  0
M  CHG  2   1   1   3  -1
M  END
> <Uni-Dock RESULT> 
ENERGY=   -3.315  LOWER_BOUND=    5.021  UPPER_BOUND=    5.922
INTER + INTRA:          -3.315
INTER:                  -3.315
INTRA:                   0.000
UNBOUND:                 0.000

$$$$

     RDKit          3D

 18 17  0  0  0  0  0  0  0  0999 V2000
   49.2536    3.3890   16.9059 Na  0  0  0  0  0 15  0  0  0  0  0  0
   47.3378    4.1441   15.1624 C   0  0  0  0  0  0  0  0  0  0  0  0
   47.2013    3.2493   14.2770 O   0  0  0  0  0  0  0  0  0  0  0  0
   47.3646    5.4032   15.0308 O   0  0  0  0  0  0  0  0  0  0  0  0
   47.4180    3.6347   16.6009 C   0  0  0  0  0  0  0  0  0  0  0  0
   48.8388    3.3749   17.0358 C   0  0  0  0  0  0  0  0  0  0  0  0
   49.4268    2.1203   16.8316 C   0  0  0  0  0  0  0  0  0  0  0  0
   49.5990    4.3925   17.6255 C   0  0  0  0  0  0  0  0  0  0  0  0
   50.9140    4.1526   18.0279 C   0  0  0  0  0  0  0  0  0  0  0  0
   50.7417    1.8797   17.2338 C   0  0  0  0  0  0  0  0  0  0  0  0
   51.4839    2.8946   17.8364 C   0  0  0  0  0  0  0  0  0  0  0  0
   46.9492    4.3619   17.2760 H   0  0  0  0  0  0  0  0  0  0  0  0
   46.8246    2.7167   16.7002 H   0  0  0  0  0  0  0  0  0  0  0  0
   48.8578    1.3360   16.3363 H   0  0  0  0  0  0  0  0  0  0  0  0
   49.1646    5.3824   17.7502 H   0  0  0  0  0  0  0  0  0  0  0  0
   51.4933    4.9539   18.4758 H   0  0  0  0  0  0  0  0  0  0  0  0
   51.1863    0.9047   17.0609 H   0  0  0  0  0  0  0  0  0  0  0  0
   52.5096    2.7109   18.1396 H   0  0  0  0  0  0  0  0  0  0  0  0
  3  2  1  0
  4  2  2  0
  5  2  1  0
  6  5  1  0
  7  6  2  0
  8  6  1  0
  9  8  2  0
 10  7  1  0
 11 10  2  0
 11  9  1  0
  5 12  1  0
  5 13  1  0
  7 14  1  0
  8 15  1  0
  9 16  1  0
 10 17  1  0
 11 18  1  0
M  CHG  2   1   1   3  -1
M  END
> <Uni-Dock RESULT> 
ENERGY=   -3.292  LOWER_BOUND=    8.189  UPPER_BOUND=    9.366
INTER + INTRA:          -3.292
INTER:                  -3.292
INTRA:                   0.000
UNBOUND:                 0.000

$$$$

     RDKit          3D

 18 17  0  0  0  0  0  0  0  0999 V2000
   44.6242    6.3463   12.3221 Na  0  0  0  0  0 15  0  0  0  0  0  0
   45.6243    8.7980   12.8417 C   0  0  0  0  0  0  0  0  0  0  0  0
   46.4393    8.7215   13.8077 O   0  0  0  0  0  0  0  0  0  0  0  0
   44.7355    9.6698   12.6110 O   0  0  0  0  0  0  0  0  0  0  0  0
   45.7774    7.7201   11.7692 C   0  0  0  0  0  0  0  0  0  0  0  0
   44.9132    6.5147   12.0443 C   0  0  0  0  0  0  0  0  0  0  0  0
   45.3999    5.4521   12.8159 C   0  0  0  0  0  0  0  0  0  0  0  0
   43.6026    6.4531   11.5545 C   0  0  0  0  0  0  0  0  0  0  0  0
   42.8025    5.3379   11.8090 C   0  0  0  0  0  0  0  0  0  0  0  0
   44.6002    4.3366   13.0706 C   0  0  0  0  0  0  0  0  0  0  0  0
   43.3030    4.2773   12.5631 C   0  0  0  0  0  0  0  0  0  0  0  0
   45.5285    8.1401   10.7864 H   0  0  0  0  0  0  0  0  0  0  0  0
   46.8297    7.4157   11.7005 H   0  0  0  0  0  0  0  0  0  0  0  0
   46.4022    5.5096   13.2356 H   0  0  0  0  0  0  0  0  0  0  0  0
   43.2017    7.2922   10.9894 H   0  0  0  0  0  0  0  0  0  0  0  0
   41.7858    5.3086   11.4298 H   0  0  0  0  0  0  0  0  0  0  0  0
   44.9886    3.5248   13.6776 H   0  0  0  0  0  0  0  0  0  0  0  0
   42.6774    3.4150   12.7700 H   0  0  0  0  0  0  0  0  0  0  0  0
  3  2  1  0
  4  2  2  0
  5  2  1  0
  6  5  1  0
  7  6  2  0
  8  6  1  0
  9  8  2  0
 10  7  1  0
 11 10  2  0
 11  9  1  0
  5 12  1  0
  5 13  1  0
  7 14  1  0
  8 15  1  0
  9 16  1  0
 10 17  1  0
 11 18  1  0
M  CHG  2   1   1   3  -1
M  END
> <Uni-Dock RESULT> 
ENERGY=   -3.155  LOWER_BOUND=    5.772  UPPER_BOUND=    6.196
INTER + INTRA:          -3.155
INTER:                  -3.155
INTRA:                   0.000
UNBOUND:                 0.000

$$$$
