
     RDKit          3D

 18 17  0  0  0  0  0  0  0  0999 V2000
   46.1230    2.9347    8.0521 Na  0  0  0  0  0 15  0  0  0  0  0  0
   45.1015    4.5853    9.8771 C   0  0  0  0  0  0  0  0  0  0  0  0
   45.5865    5.7471    9.7429 O   0  0  0  0  0  0  0  0  0  0  0  0
   44.9191    3.9108   10.9330 O   0  0  0  0  0  0  0  0  0  0  0  0
   44.6079    3.9293    8.5881 C   0  0  0  0  0  0  0  0  0  0  0  0
   45.6808    3.1061    7.9197 C   0  0  0  0  0  0  0  0  0  0  0  0
   46.5472    3.6900    6.9870 C   0  0  0  0  0  0  0  0  0  0  0  0
   45.8430    1.7530    8.2423 C   0  0  0  0  0  0  0  0  0  0  0  0
   46.8360    0.9911    7.6241 C   0  0  0  0  0  0  0  0  0  0  0  0
   47.5403    2.9285    6.3685 C   0  0  0  0  0  0  0  0  0  0  0  0
   47.6815    1.5777    6.6834 C   0  0  0  0  0  0  0  0  0  0  0  0
   44.2463    4.7014    7.8969 H   0  0  0  0  0  0  0  0  0  0  0  0
   43.7365    3.2987    8.8060 H   0  0  0  0  0  0  0  0  0  0  0  0
   46.4557    4.7504    6.7611 H   0  0  0  0  0  0  0  0  0  0  0  0
   45.2017    1.3012    8.9964 H   0  0  0  0  0  0  0  0  0  0  0  0
   46.9548   -0.0544    7.8909 H   0  0  0  0  0  0  0  0  0  0  0  0
   48.2096    3.3973    5.6540 H   0  0  0  0  0  0  0  0  0  0  0  0
   48.4604    0.9881    6.2105 H   0  0  0  0  0  0  0  0  0  0  0  0
  3  2  1  0
  4  2  2  0
  5  2  1  0
  6  5  1  0
  7  6  2  0
  8  6  1  0
  9  8  2  0
 10  7  1  0
 11 10  2  0
 11  9  1  0
  5 12  1  0
  5 13  1  0
  7 14  1  0
  8 15  1  0
  9 16  1  0
 10 17  1  0
 11 18  1  0
M  CHG  2   1   1   3  -1
M  END
> <Uni-Dock RESULT> 
ENERGY=   -5.893  LOWER_BOUND=    0.000  UPPER_BOUND=    0.000
INTER + INTRA:          -5.893
INTER:                  -5.893
INTRA:                   0.000
UNBOUND:                 0.000

$$$$

     RDKit          3D

 18 17  0  0  0  0  0  0  0  0999 V2000
   45.8753    3.3470    8.3289 Na  0  0  0  0  0 15  0  0  0  0  0  0
   47.6154    1.9931    6.8332 C   0  0  0  0  0  0  0  0  0  0  0  0
   47.6103    0.7672    7.1498 O   0  0  0  0  0  0  0  0  0  0  0  0
   48.5992    2.7597    6.6151 O   0  0  0  0  0  0  0  0  0  0  0  0
   46.2378    2.6202    6.6224 C   0  0  0  0  0  0  0  0  0  0  0  0
   45.6897    3.2318    7.8877 C   0  0  0  0  0  0  0  0  0  0  0  0
   44.9211    2.4653    8.7728 C   0  0  0  0  0  0  0  0  0  0  0  0
   45.9641    4.5671    8.2086 C   0  0  0  0  0  0  0  0  0  0  0  0
   45.4572    5.1333    9.3795 C   0  0  0  0  0  0  0  0  0  0  0  0
   44.4140    3.0311    9.9438 C   0  0  0  0  0  0  0  0  0  0  0  0
   44.6779    4.3665   10.2448 C   0  0  0  0  0  0  0  0  0  0  0  0
   45.5414    1.8609    6.2440 H   0  0  0  0  0  0  0  0  0  0  0  0
   46.2968    3.3829    5.8355 H   0  0  0  0  0  0  0  0  0  0  0  0
   44.7377    1.4156    8.5525 H   0  0  0  0  0  0  0  0  0  0  0  0
   46.5950    5.1583    7.5479 H   0  0  0  0  0  0  0  0  0  0  0  0
   45.6856    6.1671    9.6187 H   0  0  0  0  0  0  0  0  0  0  0  0
   43.8271    2.4218   10.6241 H   0  0  0  0  0  0  0  0  0  0  0  0
   44.2926    4.8035   11.1605 H   0  0  0  0  0  0  0  0  0  0  0  0
  3  2  1  0
  4  2  2  0
  5  2  1  0
  6  5  1  0
  7  6  2  0
  8  6  1  0
  9  8  2  0
 10  7  1  0
 11 10  2  0
 11  9  1  0
  5 12  1  0
  5 13  1  0
  7 14  1  0
  8 15  1  0
  9 16  1  0
 10 17  1  0
 11 18  1  0
M  CHG  2   1   1   3  -1
M  END
> <Uni-Dock RESULT> 
ENERGY=   -4.989  LOWER_BOUND=    2.500  UPPER_BOUND=    4.150
INTER + INTRA:          -4.989
INTER:                  -4.989
INTRA:                   0.000
UNBOUND:                 0.000

$$$$

     RDKit          3D

 18 17  0  0  0  0  0  0  0  0999 V2000
   44.5857    4.3729    9.9531 Na  0  0  0  0  0 15  0  0  0  0  0  0
   43.0482    5.8871   11.5158 C   0  0  0  0  0  0  0  0  0  0  0  0
   42.0951    5.2040   11.9934 O   0  0  0  0  0  0  0  0  0  0  0  0
   43.0268    7.0477   11.0103 O   0  0  0  0  0  0  0  0  0  0  0  0
   44.4310    5.2452   11.6226 C   0  0  0  0  0  0  0  0  0  0  0  0
   44.7739    4.4229   10.4054 C   0  0  0  0  0  0  0  0  0  0  0  0
   44.4319    3.0661   10.3447 C   0  0  0  0  0  0  0  0  0  0  0  0
   45.4149    5.0109    9.3077 C   0  0  0  0  0  0  0  0  0  0  0  0
   45.7320    4.2502    8.1811 C   0  0  0  0  0  0  0  0  0  0  0  0
   44.7489    2.3050    9.2182 C   0  0  0  0  0  0  0  0  0  0  0  0
   45.4034    2.8959    8.1383 C   0  0  0  0  0  0  0  0  0  0  0  0
   44.4771    4.6169   12.5213 H   0  0  0  0  0  0  0  0  0  0  0  0
   45.1888    6.0252   11.7704 H   0  0  0  0  0  0  0  0  0  0  0  0
   43.8966    2.6107   11.1753 H   0  0  0  0  0  0  0  0  0  0  0  0
   45.6469    6.0738    9.3288 H   0  0  0  0  0  0  0  0  0  0  0  0
   46.2212    4.7221    7.3348 H   0  0  0  0  0  0  0  0  0  0  0  0
   44.4697    1.2566    9.1826 H   0  0  0  0  0  0  0  0  0  0  0  0
   45.6404    2.3068    7.2581 H   0  0  0  0  0  0  0  0  0  0  0  0
  3  2  1  0
  4  2  2  0
  5  2  1  0
  6  5  1  0
  7  6  2  0
  8  6  1  0
  9  8  2  0
 10  7  1  0
 11 10  2  0
 11  9  1  0
  5 12  1  0
  5 13  1  0
  7 14  1  0
  8 15  1  0
  9 16  1  0
 10 17  1  0
 11 18  1  0
M  CHG  2   1   1   3  -1
M  END
> <Uni-Dock RESULT> 
ENERGY=   -4.473  LOWER_BOUND=    2.284  UPPER_BOUND=    3.476
INTER + INTRA:          -4.473
INTER:                  -4.473
INTRA:                   0.000
UNBOUND:                 0.000

$$$$

     RDKit          3D

 18 17  0  0  0  0  0  0  0  0999 V2000
   45.0199    3.9029    9.8450 Na  0  0  0  0  0 15  0  0  0  0  0  0
   46.2434    3.1799    7.5914 C   0  0  0  0  0  0  0  0  0  0  0  0
   46.4453    1.9300    7.5796 O   0  0  0  0  0  0  0  0  0  0  0  0
   47.0279    4.1209    7.2716 O   0  0  0  0  0  0  0  0  0  0  0  0
   44.8316    3.6109    7.9873 C   0  0  0  0  0  0  0  0  0  0  0  0
   44.7040    3.8533    9.4706 C   0  0  0  0  0  0  0  0  0  0  0  0
   44.3498    2.8089   10.3338 C   0  0  0  0  0  0  0  0  0  0  0  0
   44.9640    5.1199   10.0089 C   0  0  0  0  0  0  0  0  0  0  0  0
   44.8462    5.3444   11.3816 C   0  0  0  0  0  0  0  0  0  0  0  0
   44.2317    3.0330   11.7065 C   0  0  0  0  0  0  0  0  0  0  0  0
   44.4753    4.3020   12.2299 C   0  0  0  0  0  0  0  0  0  0  0  0
   44.1108    2.8458    7.6718 H   0  0  0  0  0  0  0  0  0  0  0  0
   44.5558    4.5192    7.4365 H   0  0  0  0  0  0  0  0  0  0  0  0
   44.1865    1.8118    9.9298 H   0  0  0  0  0  0  0  0  0  0  0  0
   45.2805    5.9270    9.3513 H   0  0  0  0  0  0  0  0  0  0  0  0
   45.0594    6.3294   11.7848 H   0  0  0  0  0  0  0  0  0  0  0  0
   43.9647    2.2113   12.3637 H   0  0  0  0  0  0  0  0  0  0  0  0
   44.3939    4.4738   13.2985 H   0  0  0  0  0  0  0  0  0  0  0  0
  3  2  1  0
  4  2  2  0
  5  2  1  0
  6  5  1  0
  7  6  2  0
  8  6  1  0
  9  8  2  0
 10  7  1  0
 11 10  2  0
 11  9  1  0
  5 12  1  0
  5 13  1  0
  7 14  1  0
  8 15  1  0
  9 16  1  0
 10 17  1  0
 11 18  1  0
M  CHG  2   1   1   3  -1
M  END
> <Uni-Dock RESULT> 
ENERGY=   -3.966  LOWER_BOUND=    2.238  UPPER_BOUND=    4.402
INTER + INTRA:          -3.966
INTER:                  -3.966
INTRA:                   0.000
UNBOUND:                 0.000

$$$$

     RDKit          3D

 18 17  0  0  0  0  0  0  0  0999 V2000
   44.8863    7.1460   12.2361 Na  0  0  0  0  0 15  0  0  0  0  0  0
   42.9066    5.3685   12.0955 C   0  0  0  0  0  0  0  0  0  0  0  0
   41.8122    5.9462   11.8278 O   0  0  0  0  0  0  0  0  0  0  0  0
   43.1483    4.4688   12.9529 O   0  0  0  0  0  0  0  0  0  0  0  0
   44.0902    5.7688   11.2155 C   0  0  0  0  0  0  0  0  0  0  0  0
   44.8715    6.9197   11.7990 C   0  0  0  0  0  0  0  0  0  0  0  0
   44.5264    8.2417   11.4913 C   0  0  0  0  0  0  0  0  0  0  0  0
   45.9359    6.6833   12.6779 C   0  0  0  0  0  0  0  0  0  0  0  0
   46.6589    7.7482   13.2182 C   0  0  0  0  0  0  0  0  0  0  0  0
   45.2491    9.3070   12.0313 C   0  0  0  0  0  0  0  0  0  0  0  0
   46.3185    9.0601   12.8910 C   0  0  0  0  0  0  0  0  0  0  0  0
   43.7309    6.0333   10.2128 H   0  0  0  0  0  0  0  0  0  0  0  0
   44.7515    4.9048   11.0722 H   0  0  0  0  0  0  0  0  0  0  0  0
   43.6748    8.4362   10.8425 H   0  0  0  0  0  0  0  0  0  0  0  0
   46.1846    5.6610   12.9556 H   0  0  0  0  0  0  0  0  0  0  0  0
   47.4758    7.5492   13.9047 H   0  0  0  0  0  0  0  0  0  0  0  0
   44.9642   10.3263   11.7900 H   0  0  0  0  0  0  0  0  0  0  0  0
   46.8738    9.8884   13.3193 H   0  0  0  0  0  0  0  0  0  0  0  0
  3  2  1  0
  4  2  2  0
  5  2  1  0
  6  5  1  0
  7  6  2  0
  8  6  1  0
  9  8  2  0
 10  7  1  0
 11 10  2  0
 11  9  1  0
  5 12  1  0
  5 13  1  0
  7 14  1  0
  8 15  1  0
  9 16  1  0
 10 17  1  0
 11 18  1  0
M  CHG  2   1   1   3  -1
M  END
> <Uni-Dock RESULT> 
ENERGY=   -3.419  LOWER_BOUND=    5.147  UPPER_BOUND=    6.428
INTER + INTRA:          -3.419
INTER:                  -3.419
INTRA:                   0.000
UNBOUND:                 0.000

$$$$

     RDKit          3D

 18 17  0  0  0  0  0  0  0  0999 V2000
   44.7605    7.2367   12.1969 Na  0  0  0  0  0 15  0  0  0  0  0  0
   42.8729    5.3571   12.1484 C   0  0  0  0  0  0  0  0  0  0  0  0
   41.7560    5.8606   11.8289 O   0  0  0  0  0  0  0  0  0  0  0  0
   43.1445    4.5285   13.0664 O   0  0  0  0  0  0  0  0  0  0  0  0
   44.0496    5.7577   11.2593 C   0  0  0  0  0  0  0  0  0  0  0  0
   44.7639    6.9819   11.7756 C   0  0  0  0  0  0  0  0  0  0  0  0
   44.3594    8.2620   11.3768 C   0  0  0  0  0  0  0  0  0  0  0  0
   45.8242    6.8569   12.6820 C   0  0  0  0  0  0  0  0  0  0  0  0
   46.4852    7.9896   13.1601 C   0  0  0  0  0  0  0  0  0  0  0  0
   45.0202    9.3951   11.8546 C   0  0  0  0  0  0  0  0  0  0  0  0
   46.0863    9.2586   12.7426 C   0  0  0  0  0  0  0  0  0  0  0  0
   43.6940    5.9378   10.2367 H   0  0  0  0  0  0  0  0  0  0  0  0
   44.7546    4.9202   11.1820 H   0  0  0  0  0  0  0  0  0  0  0  0
   43.5100    8.3708   10.7055 H   0  0  0  0  0  0  0  0  0  0  0  0
   46.1182    5.8686   13.0298 H   0  0  0  0  0  0  0  0  0  0  0  0
   47.2997    7.8769   13.8688 H   0  0  0  0  0  0  0  0  0  0  0  0
   44.6896   10.3809   11.5429 H   0  0  0  0  0  0  0  0  0  0  0  0
   46.5933   10.1399   13.1224 H   0  0  0  0  0  0  0  0  0  0  0  0
  3  2  1  0
  4  2  2  0
  5  2  1  0
  6  5  1  0
  7  6  2  0
  8  6  1  0
  9  8  2  0
 10  7  1  0
 11 10  2  0
 11  9  1  0
  5 12  1  0
  5 13  1  0
  7 14  1  0
  8 15  1  0
  9 16  1  0
 10 17  1  0
 11 18  1  0
M  CHG  2   1   1   3  -1
M  END
> <Uni-Dock RESULT> 
ENERGY=   -3.411  LOWER_BOUND=    5.193  UPPER_BOUND=    6.494
INTER + INTRA:          -3.411
INTER:                  -3.411
INTRA:                   0.000
UNBOUND:                 0.000

$$$$

     RDKit          3D

 18 17  0  0  0  0  0  0  0  0999 V2000
   39.1417   11.6149   13.0748 Na  0  0  0  0  0 15  0  0  0  0  0  0
   39.6149   12.5115   15.5386 C   0  0  0  0  0  0  0  0  0  0  0  0
   40.8092   12.2627   15.8777 O   0  0  0  0  0  0  0  0  0  0  0  0
   38.5470   12.3654   16.2029 O   0  0  0  0  0  0  0  0  0  0  0  0
   39.4443   13.1363   14.1544 C   0  0  0  0  0  0  0  0  0  0  0  0
   39.2427   12.0967   13.0801 C   0  0  0  0  0  0  0  0  0  0  0  0
   40.3417   11.5427   12.4117 C   0  0  0  0  0  0  0  0  0  0  0  0
   37.9554   11.6513   12.7547 C   0  0  0  0  0  0  0  0  0  0  0  0
   37.7686   10.6891   11.7607 C   0  0  0  0  0  0  0  0  0  0  0  0
   40.1553   10.5806   11.4177 C   0  0  0  0  0  0  0  0  0  0  0  0
   38.8684   10.1572   11.0888 C   0  0  0  0  0  0  0  0  0  0  0  0
   40.3218   13.7514   13.9172 H   0  0  0  0  0  0  0  0  0  0  0  0
   38.5939   13.8298   14.1656 H   0  0  0  0  0  0  0  0  0  0  0  0
   41.3479   11.8521   12.6869 H   0  0  0  0  0  0  0  0  0  0  0  0
   37.0987   12.0453   13.2977 H   0  0  0  0  0  0  0  0  0  0  0  0
   36.7654   10.3476   11.5257 H   0  0  0  0  0  0  0  0  0  0  0  0
   41.0176   10.1543   10.9146 H   0  0  0  0  0  0  0  0  0  0  0  0
   38.7240    9.4014   10.3234 H   0  0  0  0  0  0  0  0  0  0  0  0
  3  2  1  0
  4  2  2  0
  5  2  1  0
  6  5  1  0
  7  6  2  0
  8  6  1  0
  9  8  2  0
 10  7  1  0
 11 10  2  0
 11  9  1  0
  5 12  1  0
  5 13  1  0
  7 14  1  0
  8 15  1  0
  9 16  1  0
 10 17  1  0
 11 18  1  0
M  CHG  2   1   1   3  -1
M  END
> <Uni-Dock RESULT> 
ENERGY=   -3.403  LOWER_BOUND=   10.765  UPPER_BOUND=   12.140
INTER + INTRA:          -3.403
INTER:                  -3.403
INTRA:                   0.000
UNBOUND:                 0.000

$$$$

     RDKit          3D

 18 17  0  0  0  0  0  0  0  0999 V2000
   45.4230    5.4653   12.4383 Na  0  0  0  0  0 15  0  0  0  0  0  0
   43.0153    5.9350   11.3988 C   0  0  0  0  0  0  0  0  0  0  0  0
   42.8845    7.1642   11.1246 O   0  0  0  0  0  0  0  0  0  0  0  0
   42.2009    5.1506   11.9685 O   0  0  0  0  0  0  0  0  0  0  0  0
   44.3151    5.2918   10.9170 C   0  0  0  0  0  0  0  0  0  0  0  0
   45.4047    5.3583   11.9581 C   0  0  0  0  0  0  0  0  0  0  0  0
   46.2702    6.4580   12.0121 C   0  0  0  0  0  0  0  0  0  0  0  0
   45.5492    4.3340   12.9022 C   0  0  0  0  0  0  0  0  0  0  0  0
   46.5572    4.3953   13.8659 C   0  0  0  0  0  0  0  0  0  0  0  0
   47.2784    6.5198   12.9756 C   0  0  0  0  0  0  0  0  0  0  0  0
   47.4251    5.4861   13.8995 C   0  0  0  0  0  0  0  0  0  0  0  0
   44.6504    5.7845    9.9953 H   0  0  0  0  0  0  0  0  0  0  0  0
   44.1282    4.2465   10.6400 H   0  0  0  0  0  0  0  0  0  0  0  0
   46.1391    7.2782   11.3092 H   0  0  0  0  0  0  0  0  0  0  0  0
   44.8552    3.4959   12.8942 H   0  0  0  0  0  0  0  0  0  0  0  0
   46.6512    3.5978   14.5963 H   0  0  0  0  0  0  0  0  0  0  0  0
   47.9360    7.3828   13.0101 H   0  0  0  0  0  0  0  0  0  0  0  0
   48.2022    5.5390   14.6553 H   0  0  0  0  0  0  0  0  0  0  0  0
  3  2  1  0
  4  2  2  0
  5  2  1  0
  6  5  1  0
  7  6  2  0
  8  6  1  0
  9  8  2  0
 10  7  1  0
 11 10  2  0
 11  9  1  0
  5 12  1  0
  5 13  1  0
  7 14  1  0
  8 15  1  0
  9 16  1  0
 10 17  1  0
 11 18  1  0
M  CHG  2   1   1   3  -1
M  END
> <Uni-Dock RESULT> 
ENERGY=   -3.319  LOWER_BOUND=    4.602  UPPER_BOUND=    5.400
INTER + INTRA:          -3.319
INTER:                  -3.319
INTRA:                   0.000
UNBOUND:                 0.000

$$$$

     RDKit          3D

 18 17  0  0  0  0  0  0  0  0999 V2000
   45.3537    5.5293   12.7202 Na  0  0  0  0  0 15  0  0  0  0  0  0
   43.2029    4.5872   11.4611 C   0  0  0  0  0  0  0  0  0  0  0  0
   43.1952    3.3213   11.4865 O   0  0  0  0  0  0  0  0  0  0  0  0
   42.9596    5.3702   10.4964 O   0  0  0  0  0  0  0  0  0  0  0  0
   43.4838    5.2668   12.8008 C   0  0  0  0  0  0  0  0  0  0  0  0
   44.9536    5.5356   13.0072 C   0  0  0  0  0  0  0  0  0  0  0  0
   45.7733    4.5760   13.6145 C   0  0  0  0  0  0  0  0  0  0  0  0
   45.5248    6.7373   12.5702 C   0  0  0  0  0  0  0  0  0  0  0  0
   46.8851    6.9861   12.7609 C   0  0  0  0  0  0  0  0  0  0  0  0
   47.1337    4.8244   13.8054 C   0  0  0  0  0  0  0  0  0  0  0  0
   47.6886    6.0316   13.3830 C   0  0  0  0  0  0  0  0  0  0  0  0
   43.1012    4.6422   13.6181 H   0  0  0  0  0  0  0  0  0  0  0  0
   42.9213    6.2072   12.8618 H   0  0  0  0  0  0  0  0  0  0  0  0
   45.3469    3.6226   13.9195 H   0  0  0  0  0  0  0  0  0  0  0  0
   44.9043    7.4712   12.0598 H   0  0  0  0  0  0  0  0  0  0  0  0
   47.3149    7.9188   12.4090 H   0  0  0  0  0  0  0  0  0  0  0  0
   47.7577    4.0673   14.2700 H   0  0  0  0  0  0  0  0  0  0  0  0
   48.7484    6.2205   13.5218 H   0  0  0  0  0  0  0  0  0  0  0  0
  3  2  1  0
  4  2  2  0
  5  2  1  0
  6  5  1  0
  7  6  2  0
  8  6  1  0
  9  8  2  0
 10  7  1  0
 11 10  2  0
 11  9  1  0
  5 12  1  0
  5 13  1  0
  7 14  1  0
  8 15  1  0
  9 16  1  0
 10 17  1  0
 11 18  1  0
M  CHG  2   1   1   3  -1
M  END
> <Uni-Dock RESULT> 
ENERGY=   -3.315  LOWER_BOUND=    5.006  UPPER_BOUND=    5.910
INTER + INTRA:          -3.315
INTER:                  -3.315
INTRA:                   0.000
UNBOUND:                 0.000

$$$$
