
     RDKit          3D

 18 17  0  0  0  0  0  0  0  0999 V2000
   46.1097    3.0106    7.8994 Na  0  0  0  0  0 15  0  0  0  0  0  0
   45.1012    4.5856    9.8764 C   0  0  0  0  0  0  0  0  0  0  0  0
   45.5866    5.7473    9.7422 O   0  0  0  0  0  0  0  0  0  0  0  0
   44.9181    3.9113   10.9322 O   0  0  0  0  0  0  0  0  0  0  0  0
   44.6080    3.9296    8.5872 C   0  0  0  0  0  0  0  0  0  0  0  0
   45.6808    3.1060    7.9193 C   0  0  0  0  0  0  0  0  0  0  0  0
   46.5476    3.6895    6.9867 C   0  0  0  0  0  0  0  0  0  0  0  0
   45.8426    1.7529    8.2421 C   0  0  0  0  0  0  0  0  0  0  0  0
   46.8355    0.9907    7.6243 C   0  0  0  0  0  0  0  0  0  0  0  0
   47.5407    2.9277    6.3687 C   0  0  0  0  0  0  0  0  0  0  0  0
   47.6816    1.5769    6.6840 C   0  0  0  0  0  0  0  0  0  0  0  0
   43.7362    3.2993    8.8049 H   0  0  0  0  0  0  0  0  0  0  0  0
   44.2468    4.7017    7.8959 H   0  0  0  0  0  0  0  0  0  0  0  0
   46.4564    4.7500    6.7607 H   0  0  0  0  0  0  0  0  0  0  0  0
   45.2010    1.3015    8.9961 H   0  0  0  0  0  0  0  0  0  0  0  0
   46.9541   -0.0548    7.8914 H   0  0  0  0  0  0  0  0  0  0  0  0
   48.2104    3.3962    5.6544 H   0  0  0  0  0  0  0  0  0  0  0  0
   48.4604    0.9871    6.2113 H   0  0  0  0  0  0  0  0  0  0  0  0
  3  2  1  0
  4  2  2  0
  5  2  1  0
  6  5  1  0
  7  6  2  0
  8  6  1  0
  9  8  2  0
 10  7  1  0
 11 10  2  0
 11  9  1  0
  5 12  1  0
  5 13  1  0
  7 14  1  0
  8 15  1  0
  9 16  1  0
 10 17  1  0
 11 18  1  0
M  CHG  2   1   1   3  -1
M  END
> <Uni-Dock RESULT> 
ENERGY=   -5.892  LOWER_BOUND=    0.000  UPPER_BOUND=    0.000
INTER + INTRA:          -5.892
INTER:                  -5.892
INTRA:                   0.000
UNBOUND:                 0.000

$$$$

     RDKit          3D

 18 17  0  0  0  0  0  0  0  0999 V2000
   46.1675    2.9814    7.8248 Na  0  0  0  0  0 15  0  0  0  0  0  0
   45.0424    4.3413    9.8963 C   0  0  0  0  0  0  0  0  0  0  0  0
   45.4406    5.5420    9.8431 O   0  0  0  0  0  0  0  0  0  0  0  0
   44.9085    3.5860   10.9035 O   0  0  0  0  0  0  0  0  0  0  0  0
   44.6009    3.7387    8.5630 C   0  0  0  0  0  0  0  0  0  0  0  0
   45.7327    3.0433    7.8484 C   0  0  0  0  0  0  0  0  0  0  0  0
   46.5551    3.7506    6.9623 C   0  0  0  0  0  0  0  0  0  0  0  0
   45.9940    1.6873    8.0810 C   0  0  0  0  0  0  0  0  0  0  0  0
   47.0414    1.0436    7.4199 C   0  0  0  0  0  0  0  0  0  0  0  0
   47.6027    3.1074    6.3010 C   0  0  0  0  0  0  0  0  0  0  0  0
   47.8429    1.7526    6.5261 C   0  0  0  0  0  0  0  0  0  0  0  0
   43.7780    3.0325    8.7327 H   0  0  0  0  0  0  0  0  0  0  0  0
   44.1844    4.5266    7.9227 H   0  0  0  0  0  0  0  0  0  0  0  0
   46.3857    4.8142    6.8072 H   0  0  0  0  0  0  0  0  0  0  0  0
   45.3866    1.1401    8.7991 H   0  0  0  0  0  0  0  0  0  0  0  0
   47.2369   -0.0058    7.6172 H   0  0  0  0  0  0  0  0  0  0  0  0
   48.2367    3.6710    5.6238 H   0  0  0  0  0  0  0  0  0  0  0  0
   48.6640    1.2550    6.0200 H   0  0  0  0  0  0  0  0  0  0  0  0
  3  2  1  0
  4  2  2  0
  5  2  1  0
  6  5  1  0
  7  6  2  0
  8  6  1  0
  9  8  2  0
 10  7  1  0
 11 10  2  0
 11  9  1  0
  5 12  1  0
  5 13  1  0
  7 14  1  0
  8 15  1  0
  9 16  1  0
 10 17  1  0
 11 18  1  0
M  CHG  2   1   1   3  -1
M  END
> <Uni-Dock RESULT> 
ENERGY=   -5.800  LOWER_BOUND=    0.228  UPPER_BOUND=    0.228
INTER + INTRA:          -5.800
INTER:                  -5.800
INTRA:                   0.000
UNBOUND:                 0.000

$$$$

     RDKit          3D

 18 17  0  0  0  0  0  0  0  0999 V2000
   45.7271    3.2642    8.3248 Na  0  0  0  0  0 15  0  0  0  0  0  0
   47.6160    1.9947    6.8327 C   0  0  0  0  0  0  0  0  0  0  0  0
   47.6112    0.7688    7.1492 O   0  0  0  0  0  0  0  0  0  0  0  0
   48.5997    2.7615    6.6146 O   0  0  0  0  0  0  0  0  0  0  0  0
   46.2383    2.6217    6.6222 C   0  0  0  0  0  0  0  0  0  0  0  0
   45.6902    3.2331    7.8875 C   0  0  0  0  0  0  0  0  0  0  0  0
   44.9217    2.4664    8.7725 C   0  0  0  0  0  0  0  0  0  0  0  0
   45.9645    4.5683    8.2087 C   0  0  0  0  0  0  0  0  0  0  0  0
   45.4576    5.1343    9.3797 C   0  0  0  0  0  0  0  0  0  0  0  0
   44.4146    3.0318    9.9437 C   0  0  0  0  0  0  0  0  0  0  0  0
   44.6785    4.3673   10.2450 C   0  0  0  0  0  0  0  0  0  0  0  0
   46.2971    3.3846    5.8353 H   0  0  0  0  0  0  0  0  0  0  0  0
   45.5421    1.8625    6.2436 H   0  0  0  0  0  0  0  0  0  0  0  0
   44.7385    1.4167    8.5520 H   0  0  0  0  0  0  0  0  0  0  0  0
   46.5954    5.1596    7.5481 H   0  0  0  0  0  0  0  0  0  0  0  0
   45.6860    6.1681    9.6192 H   0  0  0  0  0  0  0  0  0  0  0  0
   43.8278    2.4225   10.6238 H   0  0  0  0  0  0  0  0  0  0  0  0
   44.2932    4.8041   11.1607 H   0  0  0  0  0  0  0  0  0  0  0  0
  3  2  1  0
  4  2  2  0
  5  2  1  0
  6  5  1  0
  7  6  2  0
  8  6  1  0
  9  8  2  0
 10  7  1  0
 11 10  2  0
 11  9  1  0
  5 12  1  0
  5 13  1  0
  7 14  1  0
  8 15  1  0
  9 16  1  0
 10 17  1  0
 11 18  1  0
M  CHG  2   1   1   3  -1
M  END
> <Uni-Dock RESULT> 
ENERGY=   -4.989  LOWER_BOUND=    2.502  UPPER_BOUND=    4.151
INTER + INTRA:          -4.989
INTER:                  -4.989
INTRA:                   0.000
UNBOUND:                 0.000

$$$$

     RDKit          3D

 18 17  0  0  0  0  0  0  0  0999 V2000
   44.6237    4.2304   10.0393 Na  0  0  0  0  0 15  0  0  0  0  0  0
   43.0485    5.8872   11.5158 C   0  0  0  0  0  0  0  0  0  0  0  0
   42.0955    5.2040   11.9935 O   0  0  0  0  0  0  0  0  0  0  0  0
   43.0270    7.0477   11.0101 O   0  0  0  0  0  0  0  0  0  0  0  0
   44.4313    5.2453   11.6224 C   0  0  0  0  0  0  0  0  0  0  0  0
   44.7741    4.4229   10.4052 C   0  0  0  0  0  0  0  0  0  0  0  0
   44.4323    3.0660   10.3447 C   0  0  0  0  0  0  0  0  0  0  0  0
   45.4148    5.0107    9.3073 C   0  0  0  0  0  0  0  0  0  0  0  0
   45.7318    4.2500    8.1808 C   0  0  0  0  0  0  0  0  0  0  0  0
   44.7491    2.3048    9.2184 C   0  0  0  0  0  0  0  0  0  0  0  0
   45.4033    2.8957    8.1382 C   0  0  0  0  0  0  0  0  0  0  0  0
   45.1891    6.0254   11.7699 H   0  0  0  0  0  0  0  0  0  0  0  0
   44.4775    4.6172   12.5211 H   0  0  0  0  0  0  0  0  0  0  0  0
   43.8971    2.6107   11.1756 H   0  0  0  0  0  0  0  0  0  0  0  0
   45.6466    6.0737    9.3283 H   0  0  0  0  0  0  0  0  0  0  0  0
   46.2208    4.7219    7.3342 H   0  0  0  0  0  0  0  0  0  0  0  0
   44.4700    1.2565    9.1829 H   0  0  0  0  0  0  0  0  0  0  0  0
   45.6402    2.3065    7.2581 H   0  0  0  0  0  0  0  0  0  0  0  0
  3  2  1  0
  4  2  2  0
  5  2  1  0
  6  5  1  0
  7  6  2  0
  8  6  1  0
  9  8  2  0
 10  7  1  0
 11 10  2  0
 11  9  1  0
  5 12  1  0
  5 13  1  0
  7 14  1  0
  8 15  1  0
  9 16  1  0
 10 17  1  0
 11 18  1  0
M  CHG  2   1   1   3  -1
M  END
> <Uni-Dock RESULT> 
ENERGY=   -4.472  LOWER_BOUND=    2.288  UPPER_BOUND=    3.479
INTER + INTRA:          -4.472
INTER:                  -4.472
INTRA:                   0.000
UNBOUND:                 0.000

$$$$

     RDKit          3D

 18 17  0  0  0  0  0  0  0  0999 V2000
   45.2929    3.7923    9.2475 Na  0  0  0  0  0 15  0  0  0  0  0  0
   44.9699    5.0507   11.6387 C   0  0  0  0  0  0  0  0  0  0  0  0
   45.6220    6.1355   11.6055 O   0  0  0  0  0  0  0  0  0  0  0  0
   44.8690    4.2055   12.5760 O   0  0  0  0  0  0  0  0  0  0  0  0
   44.1353    4.7505   10.3941 C   0  0  0  0  0  0  0  0  0  0  0  0
   44.8994    3.9406    9.3765 C   0  0  0  0  0  0  0  0  0  0  0  0
   45.6674    4.5769    8.3931 C   0  0  0  0  0  0  0  0  0  0  0  0
   44.8733    2.5410    9.4169 C   0  0  0  0  0  0  0  0  0  0  0  0
   45.5805    1.7914    8.4754 C   0  0  0  0  0  0  0  0  0  0  0  0
   46.3748    3.8277    7.4514 C   0  0  0  0  0  0  0  0  0  0  0  0
   46.3275    2.4348    7.4896 C   0  0  0  0  0  0  0  0  0  0  0  0
   43.2209    4.2171   10.6837 H   0  0  0  0  0  0  0  0  0  0  0  0
   43.7960    5.6914    9.9425 H   0  0  0  0  0  0  0  0  0  0  0  0
   45.7273    5.6633    8.3796 H   0  0  0  0  0  0  0  0  0  0  0  0
   44.3132    2.0380   10.2026 H   0  0  0  0  0  0  0  0  0  0  0  0
   45.5574    0.7072    8.5250 H   0  0  0  0  0  0  0  0  0  0  0  0
   46.9725    4.3351    6.7007 H   0  0  0  0  0  0  0  0  0  0  0  0
   46.8859    1.8521    6.7639 H   0  0  0  0  0  0  0  0  0  0  0  0
  3  2  1  0
  4  2  2  0
  5  2  1  0
  6  5  1  0
  7  6  2  0
  8  6  1  0
  9  8  2  0
 10  7  1  0
 11 10  2  0
 11  9  1  0
  5 12  1  0
  5 13  1  0
  7 14  1  0
  8 15  1  0
  9 16  1  0
 10 17  1  0
 11 18  1  0
M  CHG  2   1   1   3  -1
M  END
> <Uni-Dock RESULT> 
ENERGY=   -4.233  LOWER_BOUND=    1.379  UPPER_BOUND=    1.820
INTER + INTRA:          -4.233
INTER:                  -4.233
INTRA:                   0.000
UNBOUND:                 0.000

$$$$

     RDKit          3D

 18 17  0  0  0  0  0  0  0  0999 V2000
   44.6831    3.9066    9.9346 Na  0  0  0  0  0 15  0  0  0  0  0  0
   44.2302    4.8477   12.4476 C   0  0  0  0  0  0  0  0  0  0  0  0
   44.8135    5.9657   12.5618 O   0  0  0  0  0  0  0  0  0  0  0  0
   44.1624    3.8917   13.2749 O   0  0  0  0  0  0  0  0  0  0  0  0
   43.4432    4.6495   11.1526 C   0  0  0  0  0  0  0  0  0  0  0  0
   44.2784    4.0146   10.0688 C   0  0  0  0  0  0  0  0  0  0  0  0
   45.0260    4.8089    9.1903 C   0  0  0  0  0  0  0  0  0  0  0  0
   44.3394    2.6212    9.9425 C   0  0  0  0  0  0  0  0  0  0  0  0
   45.1123    2.0335    8.9398 C   0  0  0  0  0  0  0  0  0  0  0  0
   45.7992    4.2217    8.1874 C   0  0  0  0  0  0  0  0  0  0  0  0
   45.8386    2.8339    8.0590 C   0  0  0  0  0  0  0  0  0  0  0  0
   42.5580    4.0316   11.3505 H   0  0  0  0  0  0  0  0  0  0  0  0
   43.0553    5.6158   10.8059 H   0  0  0  0  0  0  0  0  0  0  0  0
   45.0178    5.8908    9.3071 H   0  0  0  0  0  0  0  0  0  0  0  0
   43.7951    1.9951   10.6467 H   0  0  0  0  0  0  0  0  0  0  0  0
   45.1563    0.9518    8.8601 H   0  0  0  0  0  0  0  0  0  0  0  0
   46.3798    4.8502    7.5196 H   0  0  0  0  0  0  0  0  0  0  0  0
   46.4480    2.3769    7.2860 H   0  0  0  0  0  0  0  0  0  0  0  0
  3  2  1  0
  4  2  2  0
  5  2  1  0
  6  5  1  0
  7  6  2  0
  8  6  1  0
  9  8  2  0
 10  7  1  0
 11 10  2  0
 11  9  1  0
  5 12  1  0
  5 13  1  0
  7 14  1  0
  8 15  1  0
  9 16  1  0
 10 17  1  0
 11 18  1  0
M  CHG  2   1   1   3  -1
M  END
> <Uni-Dock RESULT> 
ENERGY=   -4.088  LOWER_BOUND=    2.004  UPPER_BOUND=    2.696
INTER + INTRA:          -4.088
INTER:                  -4.088
INTRA:                   0.000
UNBOUND:                 0.000

$$$$

     RDKit          3D

 18 17  0  0  0  0  0  0  0  0999 V2000
   44.9071    3.7864    9.8191 Na  0  0  0  0  0 15  0  0  0  0  0  0
   46.2813    3.1273    7.5645 C   0  0  0  0  0  0  0  0  0  0  0  0
   46.4784    1.8766    7.5735 O   0  0  0  0  0  0  0  0  0  0  0  0
   47.0721    4.0602    7.2370 O   0  0  0  0  0  0  0  0  0  0  0  0
   44.8679    3.5696    7.9418 C   0  0  0  0  0  0  0  0  0  0  0  0
   44.7287    3.8353    9.4200 C   0  0  0  0  0  0  0  0  0  0  0  0
   44.3629    2.8055   10.2960 C   0  0  0  0  0  0  0  0  0  0  0  0
   44.9892    5.1088    9.9412 C   0  0  0  0  0  0  0  0  0  0  0  0
   44.8607    5.3548   11.3092 C   0  0  0  0  0  0  0  0  0  0  0  0
   44.2342    3.0510   11.6641 C   0  0  0  0  0  0  0  0  0  0  0  0
   44.4784    4.3270   12.1702 C   0  0  0  0  0  0  0  0  0  0  0  0
   44.6003    4.4705    7.3748 H   0  0  0  0  0  0  0  0  0  0  0  0
   44.1469    2.8026    7.6318 H   0  0  0  0  0  0  0  0  0  0  0  0
   44.1992    1.8030    9.9058 H   0  0  0  0  0  0  0  0  0  0  0  0
   45.3145    5.9045    9.2740 H   0  0  0  0  0  0  0  0  0  0  0  0
   45.0744    6.3450   11.6992 H   0  0  0  0  0  0  0  0  0  0  0  0
   43.9584    2.2406   12.3315 H   0  0  0  0  0  0  0  0  0  0  0  0
   44.3887    4.5154   13.2352 H   0  0  0  0  0  0  0  0  0  0  0  0
  3  2  1  0
  4  2  2  0
  5  2  1  0
  6  5  1  0
  7  6  2  0
  8  6  1  0
  9  8  2  0
 10  7  1  0
 11 10  2  0
 11  9  1  0
  5 12  1  0
  5 13  1  0
  7 14  1  0
  8 15  1  0
  9 16  1  0
 10 17  1  0
 11 18  1  0
M  CHG  2   1   1   3  -1
M  END
> <Uni-Dock RESULT> 
ENERGY=   -3.970  LOWER_BOUND=    2.249  UPPER_BOUND=    4.395
INTER + INTRA:          -3.970
INTER:                  -3.970
INTRA:                   0.000
UNBOUND:                 0.000

$$$$

     RDKit          3D

 18 17  0  0  0  0  0  0  0  0999 V2000
   44.9449    7.1560   12.1119 Na  0  0  0  0  0 15  0  0  0  0  0  0
   42.9215    5.3374   12.0450 C   0  0  0  0  0  0  0  0  0  0  0  0
   41.8402    5.9576   11.8231 O   0  0  0  0  0  0  0  0  0  0  0  0
   43.1494    4.3888   12.8519 O   0  0  0  0  0  0  0  0  0  0  0  0
   44.1041    5.7499   11.1692 C   0  0  0  0  0  0  0  0  0  0  0  0
   44.9248    6.8477   11.7988 C   0  0  0  0  0  0  0  0  0  0  0  0
   44.6128    8.1927   11.5635 C   0  0  0  0  0  0  0  0  0  0  0  0
   45.9937    6.5379   12.6489 C   0  0  0  0  0  0  0  0  0  0  0  0
   46.7533    7.5537   13.2318 C   0  0  0  0  0  0  0  0  0  0  0  0
   45.3720    9.2088   12.1462 C   0  0  0  0  0  0  0  0  0  0  0  0
   46.4454    8.8893   12.9767 C   0  0  0  0  0  0  0  0  0  0  0  0
   44.7390    4.8766   10.9725 H   0  0  0  0  0  0  0  0  0  0  0  0
   43.7389    6.0749   10.1866 H   0  0  0  0  0  0  0  0  0  0  0  0
   43.7584    8.4430   10.9380 H   0  0  0  0  0  0  0  0  0  0  0  0
   46.2174    5.4964   12.8707 H   0  0  0  0  0  0  0  0  0  0  0  0
   47.5734    7.2977   13.8954 H   0  0  0  0  0  0  0  0  0  0  0  0
   45.1125   10.2465   11.9612 H   0  0  0  0  0  0  0  0  0  0  0  0
   47.0292    9.6793   13.4382 H   0  0  0  0  0  0  0  0  0  0  0  0
  3  2  1  0
  4  2  2  0
  5  2  1  0
  6  5  1  0
  7  6  2  0
  8  6  1  0
  9  8  2  0
 10  7  1  0
 11 10  2  0
 11  9  1  0
  5 12  1  0
  5 13  1  0
  7 14  1  0
  8 15  1  0
  9 16  1  0
 10 17  1  0
 11 18  1  0
M  CHG  2   1   1   3  -1
M  END
> <Uni-Dock RESULT> 
ENERGY=   -3.418  LOWER_BOUND=    5.101  UPPER_BOUND=    6.365
INTER + INTRA:          -3.418
INTER:                  -3.418
INTRA:                   0.000
UNBOUND:                 0.000

$$$$

     RDKit          3D

 18 17  0  0  0  0  0  0  0  0999 V2000
   39.2669   11.6709   12.9739 Na  0  0  0  0  0 15  0  0  0  0  0  0
   39.6144   12.5118   15.5387 C   0  0  0  0  0  0  0  0  0  0  0  0
   40.8086   12.2624   15.8777 O   0  0  0  0  0  0  0  0  0  0  0  0
   38.5464   12.3662   16.2029 O   0  0  0  0  0  0  0  0  0  0  0  0
   39.4441   13.1365   14.1543 C   0  0  0  0  0  0  0  0  0  0  0  0
   39.2420   12.0970   13.0802 C   0  0  0  0  0  0  0  0  0  0  0  0
   40.3408   11.5426   12.4117 C   0  0  0  0  0  0  0  0  0  0  0  0
   37.9546   11.6519   12.7547 C   0  0  0  0  0  0  0  0  0  0  0  0
   37.7673   10.6899   11.7609 C   0  0  0  0  0  0  0  0  0  0  0  0
   40.1540   10.5805   11.4178 C   0  0  0  0  0  0  0  0  0  0  0  0
   38.8668   10.1575   11.0889 C   0  0  0  0  0  0  0  0  0  0  0  0
   38.5938   13.8305   14.1656 H   0  0  0  0  0  0  0  0  0  0  0  0
   40.3218   13.7512   13.9172 H   0  0  0  0  0  0  0  0  0  0  0  0
   41.3471   11.8517   12.6869 H   0  0  0  0  0  0  0  0  0  0  0  0
   37.0981   12.0464   13.2978 H   0  0  0  0  0  0  0  0  0  0  0  0
   36.7640   10.3487   11.5259 H   0  0  0  0  0  0  0  0  0  0  0  0
   41.0160   10.1539   10.9146 H   0  0  0  0  0  0  0  0  0  0  0  0
   38.7222    9.4018   10.3235 H   0  0  0  0  0  0  0  0  0  0  0  0
  3  2  1  0
  4  2  2  0
  5  2  1  0
  6  5  1  0
  7  6  2  0
  8  6  1  0
  9  8  2  0
 10  7  1  0
 11 10  2  0
 11  9  1  0
  5 12  1  0
  5 13  1  0
  7 14  1  0
  8 15  1  0
  9 16  1  0
 10 17  1  0
 11 18  1  0
M  CHG  2   1   1   3  -1
M  END
> <Uni-Dock RESULT> 
ENERGY=   -3.403  LOWER_BOUND=   10.759  UPPER_BOUND=   12.134
INTER + INTRA:          -3.403
INTER:                  -3.403
INTRA:                   0.000
UNBOUND:                 0.000

$$$$
