
     RDKit          3D

 18 17  0  0  0  0  0  0  0  0999 V2000
   46.0946    2.9765    7.9516 Na  0  0  0  0  0 15  0  0  0  0  0  0
   45.1012    4.5856    9.8765 C   0  0  0  0  0  0  0  0  0  0  0  0
   45.5867    5.7473    9.7424 O   0  0  0  0  0  0  0  0  0  0  0  0
   44.9181    3.9113   10.9324 O   0  0  0  0  0  0  0  0  0  0  0  0
   44.6078    3.9297    8.5873 C   0  0  0  0  0  0  0  0  0  0  0  0
   45.6808    3.1063    7.9194 C   0  0  0  0  0  0  0  0  0  0  0  0
   45.8427    1.7531    8.2422 C   0  0  0  0  0  0  0  0  0  0  0  0
   46.5475    3.6898    6.9867 C   0  0  0  0  0  0  0  0  0  0  0  0
   47.5406    2.9280    6.3687 C   0  0  0  0  0  0  0  0  0  0  0  0
   46.8356    0.9908    7.6242 C   0  0  0  0  0  0  0  0  0  0  0  0
   47.6816    1.5772    6.6838 C   0  0  0  0  0  0  0  0  0  0  0  0
   43.7362    3.2993    8.8049 H   0  0  0  0  0  0  0  0  0  0  0  0
   44.2468    4.7018    7.8960 H   0  0  0  0  0  0  0  0  0  0  0  0
   45.2011    1.3015    8.9961 H   0  0  0  0  0  0  0  0  0  0  0  0
   46.4563    4.7502    6.7608 H   0  0  0  0  0  0  0  0  0  0  0  0
   48.2102    3.3966    5.6542 H   0  0  0  0  0  0  0  0  0  0  0  0
   46.9542   -0.0546    7.8911 H   0  0  0  0  0  0  0  0  0  0  0  0
   48.4604    0.9873    6.2111 H   0  0  0  0  0  0  0  0  0  0  0  0
  3  2  1  0
  4  2  2  0
  5  2  1  0
  6  5  1  0
  7  6  2  0
  8  6  1  0
  9  8  2  0
 10  7  1  0
 11 10  2  0
 11  9  1  0
  5 12  1  0
  5 13  1  0
  7 14  1  0
  8 15  1  0
  9 16  1  0
 10 17  1  0
 11 18  1  0
M  CHG  2   1   1   3  -1
M  END
> <Uni-Dock RESULT> 
ENERGY=   -5.893  LOWER_BOUND=    0.000  UPPER_BOUND=    0.000
INTER + INTRA:          -5.893
INTER:                  -5.893
INTRA:                   0.000
UNBOUND:                 0.000

$$$$

     RDKit          3D

 18 17  0  0  0  0  0  0  0  0999 V2000
   45.7748    3.3039    8.3083 Na  0  0  0  0  0 15  0  0  0  0  0  0
   47.6158    1.9943    6.8330 C   0  0  0  0  0  0  0  0  0  0  0  0
   47.6107    0.7684    7.1496 O   0  0  0  0  0  0  0  0  0  0  0  0
   48.5996    2.7608    6.6148 O   0  0  0  0  0  0  0  0  0  0  0  0
   46.2381    2.6216    6.6223 C   0  0  0  0  0  0  0  0  0  0  0  0
   45.6902    3.2330    7.8877 C   0  0  0  0  0  0  0  0  0  0  0  0
   45.9649    4.5683    8.2088 C   0  0  0  0  0  0  0  0  0  0  0  0
   44.9214    2.4667    8.7727 C   0  0  0  0  0  0  0  0  0  0  0  0
   44.4145    3.0323    9.9438 C   0  0  0  0  0  0  0  0  0  0  0  0
   45.4579    5.1344    9.3798 C   0  0  0  0  0  0  0  0  0  0  0  0
   44.6786    4.3677   10.2451 C   0  0  0  0  0  0  0  0  0  0  0  0
   46.2972    3.3844    5.8355 H   0  0  0  0  0  0  0  0  0  0  0  0
   45.5418    1.8624    6.2439 H   0  0  0  0  0  0  0  0  0  0  0  0
   46.5958    5.1595    7.5482 H   0  0  0  0  0  0  0  0  0  0  0  0
   44.7380    1.4170    8.5523 H   0  0  0  0  0  0  0  0  0  0  0  0
   43.8274    2.4230   10.6240 H   0  0  0  0  0  0  0  0  0  0  0  0
   45.6865    6.1682    9.6192 H   0  0  0  0  0  0  0  0  0  0  0  0
   44.2933    4.8047   11.1608 H   0  0  0  0  0  0  0  0  0  0  0  0
  3  2  1  0
  4  2  2  0
  5  2  1  0
  6  5  1  0
  7  6  2  0
  8  6  1  0
  9  8  2  0
 10  7  1  0
 11 10  2  0
 11  9  1  0
  5 12  1  0
  5 13  1  0
  7 14  1  0
  8 15  1  0
  9 16  1  0
 10 17  1  0
 11 18  1  0
M  CHG  2   1   1   3  -1
M  END
> <Uni-Dock RESULT> 
ENERGY=   -4.990  LOWER_BOUND=    2.501  UPPER_BOUND=    4.150
INTER + INTRA:          -4.990
INTER:                  -4.990
INTRA:                   0.000
UNBOUND:                 0.000

$$$$

     RDKit          3D

 18 17  0  0  0  0  0  0  0  0999 V2000
   44.6262    4.2907   10.0180 Na  0  0  0  0  0 15  0  0  0  0  0  0
   43.0483    5.8870   11.5158 C   0  0  0  0  0  0  0  0  0  0  0  0
   42.0951    5.2040   11.9933 O   0  0  0  0  0  0  0  0  0  0  0  0
   43.0271    7.0477   11.0103 O   0  0  0  0  0  0  0  0  0  0  0  0
   44.4312    5.2450   11.6225 C   0  0  0  0  0  0  0  0  0  0  0  0
   44.7738    4.4226   10.4052 C   0  0  0  0  0  0  0  0  0  0  0  0
   45.4147    5.0106    9.3074 C   0  0  0  0  0  0  0  0  0  0  0  0
   44.4319    3.0658   10.3446 C   0  0  0  0  0  0  0  0  0  0  0  0
   44.7487    2.3047    9.2182 C   0  0  0  0  0  0  0  0  0  0  0  0
   45.7318    4.2497    8.1808 C   0  0  0  0  0  0  0  0  0  0  0  0
   45.4031    2.8955    8.1382 C   0  0  0  0  0  0  0  0  0  0  0  0
   45.1890    6.0250   11.7701 H   0  0  0  0  0  0  0  0  0  0  0  0
   44.4772    4.6168   12.5211 H   0  0  0  0  0  0  0  0  0  0  0  0
   45.6467    6.0735    9.3285 H   0  0  0  0  0  0  0  0  0  0  0  0
   43.8966    2.6105   11.1754 H   0  0  0  0  0  0  0  0  0  0  0  0
   44.4696    1.2562    9.1827 H   0  0  0  0  0  0  0  0  0  0  0  0
   46.2210    4.7216    7.3345 H   0  0  0  0  0  0  0  0  0  0  0  0
   45.6401    2.3063    7.2579 H   0  0  0  0  0  0  0  0  0  0  0  0
  3  2  1  0
  4  2  2  0
  5  2  1  0
  6  5  1  0
  7  6  2  0
  8  6  1  0
  9  8  2  0
 10  7  1  0
 11 10  2  0
 11  9  1  0
  5 12  1  0
  5 13  1  0
  7 14  1  0
  8 15  1  0
  9 16  1  0
 10 17  1  0
 11 18  1  0
M  CHG  2   1   1   3  -1
M  END
> <Uni-Dock RESULT> 
ENERGY=   -4.474  LOWER_BOUND=    2.286  UPPER_BOUND=    3.477
INTER + INTRA:          -4.474
INTER:                  -4.474
INTRA:                   0.000
UNBOUND:                 0.000

$$$$

     RDKit          3D

 18 17  0  0  0  0  0  0  0  0999 V2000
   45.0788    3.5508    9.3635 Na  0  0  0  0  0 15  0  0  0  0  0  0
   44.5114    4.6756   11.7497 C   0  0  0  0  0  0  0  0  0  0  0  0
   45.0336    5.8278   11.8038 O   0  0  0  0  0  0  0  0  0  0  0  0
   44.4673    3.7739   12.6375 O   0  0  0  0  0  0  0  0  0  0  0  0
   43.7747    4.3514   10.4505 C   0  0  0  0  0  0  0  0  0  0  0  0
   44.6734    3.6914    9.4346 C   0  0  0  0  0  0  0  0  0  0  0  0
   44.8088    2.2977    9.4042 C   0  0  0  0  0  0  0  0  0  0  0  0
   45.4058    4.4643    8.5247 C   0  0  0  0  0  0  0  0  0  0  0  0
   46.2377    3.8537    7.5846 C   0  0  0  0  0  0  0  0  0  0  0  0
   45.6405    1.6867    8.4641 C   0  0  0  0  0  0  0  0  0  0  0  0
   46.3513    2.4646    7.5511 C   0  0  0  0  0  0  0  0  0  0  0  0
   42.9165    3.7020   10.6658 H   0  0  0  0  0  0  0  0  0  0  0  0
   43.3490    5.2709   10.0291 H   0  0  0  0  0  0  0  0  0  0  0  0
   44.2761    1.6915   10.1340 H   0  0  0  0  0  0  0  0  0  0  0  0
   45.3392    5.5495    8.5682 H   0  0  0  0  0  0  0  0  0  0  0  0
   46.8055    4.4667    6.8916 H   0  0  0  0  0  0  0  0  0  0  0  0
   45.7416    0.6060    8.4586 H   0  0  0  0  0  0  0  0  0  0  0  0
   47.0062    1.9902    6.8271 H   0  0  0  0  0  0  0  0  0  0  0  0
  3  2  1  0
  4  2  2  0
  5  2  1  0
  6  5  1  0
  7  6  2  0
  8  6  1  0
  9  8  2  0
 10  7  1  0
 11 10  2  0
 11  9  1  0
  5 12  1  0
  5 13  1  0
  7 14  1  0
  8 15  1  0
  9 16  1  0
 10 17  1  0
 11 18  1  0
M  CHG  2   1   1   3  -1
M  END
> <Uni-Dock RESULT> 
ENERGY=   -4.291  LOWER_BOUND=    1.456  UPPER_BOUND=    1.903
INTER + INTRA:          -4.291
INTER:                  -4.291
INTRA:                   0.000
UNBOUND:                 0.000

$$$$

     RDKit          3D

 18 17  0  0  0  0  0  0  0  0999 V2000
   44.9794    3.7343    9.6044 Na  0  0  0  0  0 15  0  0  0  0  0  0
   44.5893    4.7934   12.0554 C   0  0  0  0  0  0  0  0  0  0  0  0
   45.1775    5.9124   12.1260 O   0  0  0  0  0  0  0  0  0  0  0  0
   44.5363    3.8612   12.9105 O   0  0  0  0  0  0  0  0  0  0  0  0
   43.7752    4.5613   10.7829 C   0  0  0  0  0  0  0  0  0  0  0  0
   44.5865    3.8939    9.7005 C   0  0  0  0  0  0  0  0  0  0  0  0
   44.6416    2.4972    9.6122 C   0  0  0  0  0  0  0  0  0  0  0  0
   45.3176    4.6609    8.7847 C   0  0  0  0  0  0  0  0  0  0  0  0
   46.0685    4.0435    7.7830 C   0  0  0  0  0  0  0  0  0  0  0  0
   45.3924    1.8793    8.6106 C   0  0  0  0  0  0  0  0  0  0  0  0
   46.1021    2.6526    7.6929 C   0  0  0  0  0  0  0  0  0  0  0  0
   42.8929    3.9517   11.0162 H   0  0  0  0  0  0  0  0  0  0  0  0
   43.3826    5.5185   10.4171 H   0  0  0  0  0  0  0  0  0  0  0  0
   44.1105    1.8926   10.3447 H   0  0  0  0  0  0  0  0  0  0  0  0
   45.3143    5.7456    8.8712 H   0  0  0  0  0  0  0  0  0  0  0  0
   46.6367    4.6515    7.0859 H   0  0  0  0  0  0  0  0  0  0  0  0
   45.4321    0.7957    8.5604 H   0  0  0  0  0  0  0  0  0  0  0  0
   46.6944    2.1722    6.9206 H   0  0  0  0  0  0  0  0  0  0  0  0
  3  2  1  0
  4  2  2  0
  5  2  1  0
  6  5  1  0
  7  6  2  0
  8  6  1  0
  9  8  2  0
 10  7  1  0
 11 10  2  0
 11  9  1  0
  5 12  1  0
  5 13  1  0
  7 14  1  0
  8 15  1  0
  9 16  1  0
 10 17  1  0
 11 18  1  0
M  CHG  2   1   1   3  -1
M  END
> <Uni-Dock RESULT> 
ENERGY=   -4.164  LOWER_BOUND=    1.651  UPPER_BOUND=    2.214
INTER + INTRA:          -4.164
INTER:                  -4.164
INTRA:                   0.000
UNBOUND:                 0.000

$$$$

     RDKit          3D

 18 17  0  0  0  0  0  0  0  0999 V2000
   45.3464    5.4933   12.8262 Na  0  0  0  0  0 15  0  0  0  0  0  0
   43.2023    4.5872   11.4614 C   0  0  0  0  0  0  0  0  0  0  0  0
   43.1946    3.3213   11.4868 O   0  0  0  0  0  0  0  0  0  0  0  0
   42.9587    5.3703   10.4968 O   0  0  0  0  0  0  0  0  0  0  0  0
   43.4833    5.2669   12.8011 C   0  0  0  0  0  0  0  0  0  0  0  0
   44.9532    5.5355   13.0072 C   0  0  0  0  0  0  0  0  0  0  0  0
   45.5244    6.7372   12.5700 C   0  0  0  0  0  0  0  0  0  0  0  0
   45.7730    4.5760   13.6146 C   0  0  0  0  0  0  0  0  0  0  0  0
   47.1333    4.8244   13.8052 C   0  0  0  0  0  0  0  0  0  0  0  0
   46.8848    6.9861   12.7606 C   0  0  0  0  0  0  0  0  0  0  0  0
   47.6884    6.0315   13.3826 C   0  0  0  0  0  0  0  0  0  0  0  0
   42.9209    6.2073   12.8622 H   0  0  0  0  0  0  0  0  0  0  0  0
   43.1009    4.6422   13.6184 H   0  0  0  0  0  0  0  0  0  0  0  0
   44.9039    7.4711   12.0597 H   0  0  0  0  0  0  0  0  0  0  0  0
   45.3465    3.6226   13.9196 H   0  0  0  0  0  0  0  0  0  0  0  0
   47.7575    4.0674   14.2698 H   0  0  0  0  0  0  0  0  0  0  0  0
   47.3146    7.9186   12.4087 H   0  0  0  0  0  0  0  0  0  0  0  0
   48.7482    6.2205   13.5213 H   0  0  0  0  0  0  0  0  0  0  0  0
  3  2  1  0
  4  2  2  0
  5  2  1  0
  6  5  1  0
  7  6  2  0
  8  6  1  0
  9  8  2  0
 10  7  1  0
 11 10  2  0
 11  9  1  0
  5 12  1  0
  5 13  1  0
  7 14  1  0
  8 15  1  0
  9 16  1  0
 10 17  1  0
 11 18  1  0
M  CHG  2   1   1   3  -1
M  END
> <Uni-Dock RESULT> 
ENERGY=   -3.315  LOWER_BOUND=    5.021  UPPER_BOUND=    5.922
INTER + INTRA:          -3.315
INTER:                  -3.315
INTRA:                   0.000
UNBOUND:                 0.000

$$$$

     RDKit          3D

 18 17  0  0  0  0  0  0  0  0999 V2000
   44.6208    6.3551   12.3228 Na  0  0  0  0  0 15  0  0  0  0  0  0
   45.6270    8.8046   12.8410 C   0  0  0  0  0  0  0  0  0  0  0  0
   46.4403    8.7267   13.8083 O   0  0  0  0  0  0  0  0  0  0  0  0
   44.7412    9.6788   12.6080 O   0  0  0  0  0  0  0  0  0  0  0  0
   45.7786    7.7249   11.7700 C   0  0  0  0  0  0  0  0  0  0  0  0
   44.9106    6.5224   12.0452 C   0  0  0  0  0  0  0  0  0  0  0  0
   43.6006    6.4637   11.5532 C   0  0  0  0  0  0  0  0  0  0  0  0
   45.3931    5.4594   12.8190 C   0  0  0  0  0  0  0  0  0  0  0  0
   44.5899    4.3466   13.0740 C   0  0  0  0  0  0  0  0  0  0  0  0
   42.7971    5.3509   11.8078 C   0  0  0  0  0  0  0  0  0  0  0  0
   43.2934    4.2901   12.5643 C   0  0  0  0  0  0  0  0  0  0  0  0
   45.5321    8.1447   10.7863 H   0  0  0  0  0  0  0  0  0  0  0  0
   46.8300    7.4176   11.7031 H   0  0  0  0  0  0  0  0  0  0  0  0
   43.2029    7.3030   10.9863 H   0  0  0  0  0  0  0  0  0  0  0  0
   46.3948    5.5149   13.2404 H   0  0  0  0  0  0  0  0  0  0  0  0
   44.9751    3.5345   13.6827 H   0  0  0  0  0  0  0  0  0  0  0  0
   41.7810    5.3238   11.4269 H   0  0  0  0  0  0  0  0  0  0  0  0
   42.6652    3.4296   12.7712 H   0  0  0  0  0  0  0  0  0  0  0  0
  3  2  1  0
  4  2  2  0
  5  2  1  0
  6  5  1  0
  7  6  2  0
  8  6  1  0
  9  8  2  0
 10  7  1  0
 11 10  2  0
 11  9  1  0
  5 12  1  0
  5 13  1  0
  7 14  1  0
  8 15  1  0
  9 16  1  0
 10 17  1  0
 11 18  1  0
M  CHG  2   1   1   3  -1
M  END
> <Uni-Dock RESULT> 
ENERGY=   -3.149  LOWER_BOUND=    5.779  UPPER_BOUND=    6.204
INTER + INTRA:          -3.149
INTER:                  -3.149
INTRA:                   0.000
UNBOUND:                 0.000

$$$$

     RDKit          3D

 18 17  0  0  0  0  0  0  0  0999 V2000
   50.6502    2.9609   17.8574 Na  0  0  0  0  0 15  0  0  0  0  0  0
   48.0940    3.6814   18.3350 C   0  0  0  0  0  0  0  0  0  0  0  0
   48.0753    4.6159   19.1890 O   0  0  0  0  0  0  0  0  0  0  0  0
   47.3484    2.6618   18.2472 O   0  0  0  0  0  0  0  0  0  0  0  0
   49.1212    3.8393   17.2144 C   0  0  0  0  0  0  0  0  0  0  0  0
   50.4386    3.1868   17.5520 C   0  0  0  0  0  0  0  0  0  0  0  0
   50.6712    1.8446   17.2264 C   0  0  0  0  0  0  0  0  0  0  0  0
   51.4379    3.9060   18.2195 C   0  0  0  0  0  0  0  0  0  0  0  0
   52.6570    3.3023   18.5322 C   0  0  0  0  0  0  0  0  0  0  0  0
   51.8903    1.2404   17.5387 C   0  0  0  0  0  0  0  0  0  0  0  0
   52.8851    1.9708   18.1874 C   0  0  0  0  0  0  0  0  0  0  0  0
   48.7216    3.4126   16.2856 H   0  0  0  0  0  0  0  0  0  0  0  0
   49.2767    4.9053   17.0049 H   0  0  0  0  0  0  0  0  0  0  0  0
   49.8853    1.2659   16.7451 H   0  0  0  0  0  0  0  0  0  0  0  0
   51.2505    4.9367   18.5137 H   0  0  0  0  0  0  0  0  0  0  0  0
   53.4185    3.8703   19.0575 H   0  0  0  0  0  0  0  0  0  0  0  0
   52.0524    0.1969   17.2876 H   0  0  0  0  0  0  0  0  0  0  0  0
   53.8290    1.4981   18.4398 H   0  0  0  0  0  0  0  0  0  0  0  0
  3  2  1  0
  4  2  2  0
  5  2  1  0
  6  5  1  0
  7  6  2  0
  8  6  1  0
  9  8  2  0
 10  7  1  0
 11 10  2  0
 11  9  1  0
  5 12  1  0
  5 13  1  0
  7 14  1  0
  8 15  1  0
  9 16  1  0
 10 17  1  0
 11 18  1  0
M  CHG  2   1   1   3  -1
M  END
> <Uni-Dock RESULT> 
ENERGY=   -3.080  LOWER_BOUND=    9.948  UPPER_BOUND=   10.787
INTER + INTRA:          -3.080
INTER:                  -3.080
INTRA:                   0.000
UNBOUND:                 0.000

$$$$

     RDKit          3D

 18 17  0  0  0  0  0  0  0  0999 V2000
   48.4035    4.3904   18.7003 Na  0  0  0  0  0 15  0  0  0  0  0  0
   48.2082    5.3147   21.2279 C   0  0  0  0  0  0  0  0  0  0  0  0
   49.1697    4.8601   21.9150 O   0  0  0  0  0  0  0  0  0  0  0  0
   46.9861    5.4294   21.5383 O   0  0  0  0  0  0  0  0  0  0  0  0
   48.5880    5.8609   19.8519 C   0  0  0  0  0  0  0  0  0  0  0  0
   48.4993    4.8078   18.7757 C   0  0  0  0  0  0  0  0  0  0  0  0
   47.3018    4.6024   18.0790 C   0  0  0  0  0  0  0  0  0  0  0  0
   49.6052    4.0022   18.4763 C   0  0  0  0  0  0  0  0  0  0  0  0
   49.5232    3.0275   17.4805 C   0  0  0  0  0  0  0  0  0  0  0  0
   47.2194    3.6278   17.0830 C   0  0  0  0  0  0  0  0  0  0  0  0
   48.3316    2.8435   16.7804 C   0  0  0  0  0  0  0  0  0  0  0  0
   47.9368    6.7074   19.5991 H   0  0  0  0  0  0  0  0  0  0  0  0
   49.6047    6.2726   19.8869 H   0  0  0  0  0  0  0  0  0  0  0  0
   46.4253    5.1950   18.3335 H   0  0  0  0  0  0  0  0  0  0  0  0
   50.5269    4.1262   19.0411 H   0  0  0  0  0  0  0  0  0  0  0  0
   50.3864    2.4052   17.2658 H   0  0  0  0  0  0  0  0  0  0  0  0
   46.2819    3.4747   16.5577 H   0  0  0  0  0  0  0  0  0  0  0  0
   48.2646    2.0785   16.0133 H   0  0  0  0  0  0  0  0  0  0  0  0
  3  2  1  0
  4  2  2  0
  5  2  1  0
  6  5  1  0
  7  6  2  0
  8  6  1  0
  9  8  2  0
 10  7  1  0
 11 10  2  0
 11  9  1  0
  5 12  1  0
  5 13  1  0
  7 14  1  0
  8 15  1  0
  9 16  1  0
 10 17  1  0
 11 18  1  0
M  CHG  2   1   1   3  -1
M  END
> <Uni-Dock RESULT> 
ENERGY=   -2.969  LOWER_BOUND=    9.953  UPPER_BOUND=   11.259
INTER + INTRA:          -2.969
INTER:                  -2.969
INTRA:                   0.000
UNBOUND:                 0.000

$$$$
