
     RDKit          3D

 18 17  0  0  0  0  0  0  0  0999 V2000
   46.0946    2.9765    7.9517 Na  0  0  0  0  0 15  0  0  0  0  0  0
   45.1013    4.5856    9.8765 C   0  0  0  0  0  0  0  0  0  0  0  0
   44.9184    3.9113   10.9324 O   0  0  0  0  0  0  0  0  0  0  0  0
   45.5866    5.7473    9.7424 O   0  0  0  0  0  0  0  0  0  0  0  0
   44.6079    3.9297    8.5874 C   0  0  0  0  0  0  0  0  0  0  0  0
   45.6807    3.1062    7.9194 C   0  0  0  0  0  0  0  0  0  0  0  0
   46.5475    3.6898    6.9868 C   0  0  0  0  0  0  0  0  0  0  0  0
   45.8427    1.7530    8.2421 C   0  0  0  0  0  0  0  0  0  0  0  0
   46.8356    0.9909    7.6242 C   0  0  0  0  0  0  0  0  0  0  0  0
   47.5406    2.9280    6.3687 C   0  0  0  0  0  0  0  0  0  0  0  0
   47.6816    1.5772    6.6838 C   0  0  0  0  0  0  0  0  0  0  0  0
   44.2466    4.7017    7.8961 H   0  0  0  0  0  0  0  0  0  0  0  0
   43.7362    3.2992    8.8051 H   0  0  0  0  0  0  0  0  0  0  0  0
   46.4562    4.7502    6.7608 H   0  0  0  0  0  0  0  0  0  0  0  0
   45.2011    1.3015    8.9961 H   0  0  0  0  0  0  0  0  0  0  0  0
   46.9541   -0.0546    7.8912 H   0  0  0  0  0  0  0  0  0  0  0  0
   48.2102    3.3966    5.6543 H   0  0  0  0  0  0  0  0  0  0  0  0
   48.4604    0.9874    6.2111 H   0  0  0  0  0  0  0  0  0  0  0  0
  3  2  1  0
  4  2  2  0
  5  2  1  0
  6  5  1  0
  7  6  2  0
  8  6  1  0
  9  8  2  0
 10  7  1  0
 11 10  2  0
 11  9  1  0
  5 12  1  0
  5 13  1  0
  7 14  1  0
  8 15  1  0
  9 16  1  0
 10 17  1  0
 11 18  1  0
M  CHG  2   1   1   3  -1
M  END
> <Uni-Dock RESULT> 
ENERGY=   -5.893  LOWER_BOUND=    0.000  UPPER_BOUND=    0.000
INTER + INTRA:          -5.893
INTER:                  -5.893
INTRA:                   0.000
UNBOUND:                 0.000

$$$$

     RDKit          3D

 18 17  0  0  0  0  0  0  0  0999 V2000
   45.9132    2.6888    8.3106 Na  0  0  0  0  0 15  0  0  0  0  0  0
   44.9946    3.5365   10.7019 C   0  0  0  0  0  0  0  0  0  0  0  0
   45.2869    2.6820   11.5893 O   0  0  0  0  0  0  0  0  0  0  0  0
   45.0643    4.7997   10.7530 O   0  0  0  0  0  0  0  0  0  0  0  0
   44.4159    2.9648    9.4082 C   0  0  0  0  0  0  0  0  0  0  0  0
   45.4850    2.6731    8.3848 C   0  0  0  0  0  0  0  0  0  0  0  0
   45.8810    3.6570    7.4702 C   0  0  0  0  0  0  0  0  0  0  0  0
   46.1159    1.4231    8.3522 C   0  0  0  0  0  0  0  0  0  0  0  0
   47.1054    1.1530    7.4055 C   0  0  0  0  0  0  0  0  0  0  0  0
   46.8706    3.3874    6.5232 C   0  0  0  0  0  0  0  0  0  0  0  0
   47.4795    2.1336    6.4877 C   0  0  0  0  0  0  0  0  0  0  0  0
   43.6827    3.6667    8.9908 H   0  0  0  0  0  0  0  0  0  0  0  0
   43.8528    2.0491    9.6295 H   0  0  0  0  0  0  0  0  0  0  0  0
   45.4261    4.6444    7.5149 H   0  0  0  0  0  0  0  0  0  0  0  0
   45.8444    0.6666    9.0857 H   0  0  0  0  0  0  0  0  0  0  0  0
   47.5911    0.1823    7.3983 H   0  0  0  0  0  0  0  0  0  0  0  0
   47.1726    4.1630    5.8265 H   0  0  0  0  0  0  0  0  0  0  0  0
   48.2563    1.9273    5.7584 H   0  0  0  0  0  0  0  0  0  0  0  0
  3  2  1  0
  4  2  2  0
  5  2  1  0
  6  5  1  0
  7  6  2  0
  8  6  1  0
  9  8  2  0
 10  7  1  0
 11 10  2  0
 11  9  1  0
  5 12  1  0
  5 13  1  0
  7 14  1  0
  8 15  1  0
  9 16  1  0
 10 17  1  0
 11 18  1  0
M  CHG  2   1   1   3  -1
M  END
> <Uni-Dock RESULT> 
ENERGY=   -5.191  LOWER_BOUND=    0.902  UPPER_BOUND=    0.976
INTER + INTRA:          -5.191
INTER:                  -5.191
INTRA:                   0.000
UNBOUND:                 0.000

$$$$

     RDKit          3D

 18 17  0  0  0  0  0  0  0  0999 V2000
   45.7745    3.3039    8.3087 Na  0  0  0  0  0 15  0  0  0  0  0  0
   47.6153    1.9943    6.8332 C   0  0  0  0  0  0  0  0  0  0  0  0
   48.5991    2.7609    6.6150 O   0  0  0  0  0  0  0  0  0  0  0  0
   47.6104    0.7684    7.1499 O   0  0  0  0  0  0  0  0  0  0  0  0
   46.2377    2.6214    6.6227 C   0  0  0  0  0  0  0  0  0  0  0  0
   45.6898    3.2330    7.8881 C   0  0  0  0  0  0  0  0  0  0  0  0
   44.9214    2.4666    8.7732 C   0  0  0  0  0  0  0  0  0  0  0  0
   45.9643    4.5683    8.2090 C   0  0  0  0  0  0  0  0  0  0  0  0
   45.4575    5.1345    9.3800 C   0  0  0  0  0  0  0  0  0  0  0  0
   44.4144    3.0323    9.9444 C   0  0  0  0  0  0  0  0  0  0  0  0
   44.6785    4.3678   10.2455 C   0  0  0  0  0  0  0  0  0  0  0  0
   45.5413    1.8623    6.2443 H   0  0  0  0  0  0  0  0  0  0  0  0
   46.2965    3.3842    5.8358 H   0  0  0  0  0  0  0  0  0  0  0  0
   44.7379    1.4169    8.5530 H   0  0  0  0  0  0  0  0  0  0  0  0
   46.5951    5.1595    7.5483 H   0  0  0  0  0  0  0  0  0  0  0  0
   45.6861    6.1683    9.6192 H   0  0  0  0  0  0  0  0  0  0  0  0
   43.8276    2.4231   10.6247 H   0  0  0  0  0  0  0  0  0  0  0  0
   44.2932    4.8048   11.1612 H   0  0  0  0  0  0  0  0  0  0  0  0
  3  2  1  0
  4  2  2  0
  5  2  1  0
  6  5  1  0
  7  6  2  0
  8  6  1  0
  9  8  2  0
 10  7  1  0
 11 10  2  0
 11  9  1  0
  5 12  1  0
  5 13  1  0
  7 14  1  0
  8 15  1  0
  9 16  1  0
 10 17  1  0
 11 18  1  0
M  CHG  2   1   1   3  -1
M  END
> <Uni-Dock RESULT> 
ENERGY=   -4.990  LOWER_BOUND=    2.501  UPPER_BOUND=    4.150
INTER + INTRA:          -4.990
INTER:                  -4.990
INTRA:                   0.000
UNBOUND:                 0.000

$$$$

     RDKit          3D

 18 17  0  0  0  0  0  0  0  0999 V2000
   44.6263    4.2909   10.0181 Na  0  0  0  0  0 15  0  0  0  0  0  0
   43.0484    5.8872   11.5157 C   0  0  0  0  0  0  0  0  0  0  0  0
   43.0271    7.0479   11.0101 O   0  0  0  0  0  0  0  0  0  0  0  0
   42.0951    5.2043   11.9932 O   0  0  0  0  0  0  0  0  0  0  0  0
   44.4311    5.2452   11.6225 C   0  0  0  0  0  0  0  0  0  0  0  0
   44.7738    4.4228   10.4053 C   0  0  0  0  0  0  0  0  0  0  0  0
   44.4317    3.0660   10.3447 C   0  0  0  0  0  0  0  0  0  0  0  0
   45.4149    5.0106    9.3076 C   0  0  0  0  0  0  0  0  0  0  0  0
   45.7320    4.2499    8.1810 C   0  0  0  0  0  0  0  0  0  0  0  0
   44.7486    2.3048    9.2182 C   0  0  0  0  0  0  0  0  0  0  0  0
   45.4032    2.8957    8.1382 C   0  0  0  0  0  0  0  0  0  0  0  0
   44.4771    4.6169   12.5212 H   0  0  0  0  0  0  0  0  0  0  0  0
   45.1890    6.0251   11.7702 H   0  0  0  0  0  0  0  0  0  0  0  0
   43.8964    2.6107   11.1753 H   0  0  0  0  0  0  0  0  0  0  0  0
   45.6470    6.0735    9.3287 H   0  0  0  0  0  0  0  0  0  0  0  0
   46.2213    4.7218    7.3347 H   0  0  0  0  0  0  0  0  0  0  0  0
   44.4693    1.2565    9.1826 H   0  0  0  0  0  0  0  0  0  0  0  0
   45.6401    2.3065    7.2581 H   0  0  0  0  0  0  0  0  0  0  0  0
  3  2  1  0
  4  2  2  0
  5  2  1  0
  6  5  1  0
  7  6  2  0
  8  6  1  0
  9  8  2  0
 10  7  1  0
 11 10  2  0
 11  9  1  0
  5 12  1  0
  5 13  1  0
  7 14  1  0
  8 15  1  0
  9 16  1  0
 10 17  1  0
 11 18  1  0
M  CHG  2   1   1   3  -1
M  END
> <Uni-Dock RESULT> 
ENERGY=   -4.473  LOWER_BOUND=    2.286  UPPER_BOUND=    3.477
INTER + INTRA:          -4.473
INTER:                  -4.473
INTRA:                   0.000
UNBOUND:                 0.000

$$$$

     RDKit          3D

 18 17  0  0  0  0  0  0  0  0999 V2000
   44.9900    3.8309    9.4526 Na  0  0  0  0  0 15  0  0  0  0  0  0
   44.5867    5.3498   11.6461 C   0  0  0  0  0  0  0  0  0  0  0  0
   44.4662    4.5991   12.6585 O   0  0  0  0  0  0  0  0  0  0  0  0
   45.2263    6.4359   11.5263 O   0  0  0  0  0  0  0  0  0  0  0  0
   43.7964    4.9162   10.4120 C   0  0  0  0  0  0  0  0  0  0  0  0
   44.6028    4.0223    9.5031 C   0  0  0  0  0  0  0  0  0  0  0  0
   45.3943    4.5707    8.4862 C   0  0  0  0  0  0  0  0  0  0  0  0
   44.5925    2.6331    9.6804 C   0  0  0  0  0  0  0  0  0  0  0  0
   45.3387    1.8056    8.8396 C   0  0  0  0  0  0  0  0  0  0  0  0
   46.1408    3.7436    7.6451 C   0  0  0  0  0  0  0  0  0  0  0  0
   46.1092    2.3606    7.8187 C   0  0  0  0  0  0  0  0  0  0  0  0
   43.4603    5.8029    9.8595 H   0  0  0  0  0  0  0  0  0  0  0  0
   42.8797    4.3998   10.7243 H   0  0  0  0  0  0  0  0  0  0  0  0
   45.4413    5.6512    8.3674 H   0  0  0  0  0  0  0  0  0  0  0  0
   44.0135    2.2010   10.4941 H   0  0  0  0  0  0  0  0  0  0  0  0
   45.3272    0.7314    8.9950 H   0  0  0  0  0  0  0  0  0  0  0  0
   46.7561    4.1841    6.8669 H   0  0  0  0  0  0  0  0  0  0  0  0
   46.6978    1.7181    7.1716 H   0  0  0  0  0  0  0  0  0  0  0  0
  3  2  1  0
  4  2  2  0
  5  2  1  0
  6  5  1  0
  7  6  2  0
  8  6  1  0
  9  8  2  0
 10  7  1  0
 11 10  2  0
 11  9  1  0
  5 12  1  0
  5 13  1  0
  7 14  1  0
  8 15  1  0
  9 16  1  0
 10 17  1  0
 11 18  1  0
M  CHG  2   1   1   3  -1
M  END
> <Uni-Dock RESULT> 
ENERGY=   -4.108  LOWER_BOUND=    1.543  UPPER_BOUND=    2.064
INTER + INTRA:          -4.108
INTER:                  -4.108
INTRA:                   0.000
UNBOUND:                 0.000

$$$$

     RDKit          3D

 18 17  0  0  0  0  0  0  0  0999 V2000
   44.6163    4.6011   10.4680 Na  0  0  0  0  0 15  0  0  0  0  0  0
   45.1502    2.5604    8.7854 C   0  0  0  0  0  0  0  0  0  0  0  0
   46.3590    2.6288    8.4149 O   0  0  0  0  0  0  0  0  0  0  0  0
   44.4745    1.5464    9.1297 O   0  0  0  0  0  0  0  0  0  0  0  0
   44.3796    3.8796    8.7515 C   0  0  0  0  0  0  0  0  0  0  0  0
   44.4538    4.6177   10.0649 C   0  0  0  0  0  0  0  0  0  0  0  0
   43.5026    4.3846   11.0661 C   0  0  0  0  0  0  0  0  0  0  0  0
   45.4904    5.5264   10.3122 C   0  0  0  0  0  0  0  0  0  0  0  0
   45.5595    6.2094   11.5276 C   0  0  0  0  0  0  0  0  0  0  0  0
   43.5713    5.0673   12.2818 C   0  0  0  0  0  0  0  0  0  0  0  0
   44.5970    5.9834   12.5108 C   0  0  0  0  0  0  0  0  0  0  0  0
   43.3309    3.6871    8.4915 H   0  0  0  0  0  0  0  0  0  0  0  0
   44.7703    4.5139    7.9455 H   0  0  0  0  0  0  0  0  0  0  0  0
   42.7178    3.6497   10.8990 H   0  0  0  0  0  0  0  0  0  0  0  0
   46.2576    5.6828    9.5565 H   0  0  0  0  0  0  0  0  0  0  0  0
   46.3737    6.9043   11.7076 H   0  0  0  0  0  0  0  0  0  0  0  0
   42.8316    4.8696   13.0511 H   0  0  0  0  0  0  0  0  0  0  0  0
   44.6566    6.5065   13.4599 H   0  0  0  0  0  0  0  0  0  0  0  0
  3  2  1  0
  4  2  2  0
  5  2  1  0
  6  5  1  0
  7  6  2  0
  8  6  1  0
  9  8  2  0
 10  7  1  0
 11 10  2  0
 11  9  1  0
  5 12  1  0
  5 13  1  0
  7 14  1  0
  8 15  1  0
  9 16  1  0
 10 17  1  0
 11 18  1  0
M  CHG  2   1   1   3  -1
M  END
> <Uni-Dock RESULT> 
ENERGY=   -3.587  LOWER_BOUND=    2.561  UPPER_BOUND=    4.876
INTER + INTRA:          -3.587
INTER:                  -3.587
INTRA:                   0.000
UNBOUND:                 0.000

$$$$

     RDKit          3D

 18 17  0  0  0  0  0  0  0  0999 V2000
   39.2119   11.6695   13.0067 Na  0  0  0  0  0 15  0  0  0  0  0  0
   39.6146   12.5118   15.5383 C   0  0  0  0  0  0  0  0  0  0  0  0
   38.5464   12.3668   16.2025 O   0  0  0  0  0  0  0  0  0  0  0  0
   40.8086   12.2617   15.8776 O   0  0  0  0  0  0  0  0  0  0  0  0
   39.4448   13.1366   14.1541 C   0  0  0  0  0  0  0  0  0  0  0  0
   39.2422   12.0971   13.0799 C   0  0  0  0  0  0  0  0  0  0  0  0
   40.3408   11.5420   12.4116 C   0  0  0  0  0  0  0  0  0  0  0  0
   37.9546   11.6527   12.7543 C   0  0  0  0  0  0  0  0  0  0  0  0
   37.7669   10.6907   11.7604 C   0  0  0  0  0  0  0  0  0  0  0  0
   40.1536   10.5798   11.4177 C   0  0  0  0  0  0  0  0  0  0  0  0
   38.8662   10.1576   11.0886 C   0  0  0  0  0  0  0  0  0  0  0  0
   40.3228   13.7508   13.9168 H   0  0  0  0  0  0  0  0  0  0  0  0
   38.5949   13.8310   14.1650 H   0  0  0  0  0  0  0  0  0  0  0  0
   41.3472   11.8505   12.6868 H   0  0  0  0  0  0  0  0  0  0  0  0
   37.0982   12.0477   13.2971 H   0  0  0  0  0  0  0  0  0  0  0  0
   36.7634   10.3502   11.5254 H   0  0  0  0  0  0  0  0  0  0  0  0
   41.0154   10.1527   10.9147 H   0  0  0  0  0  0  0  0  0  0  0  0
   38.7211    9.4019   10.3233 H   0  0  0  0  0  0  0  0  0  0  0  0
  3  2  1  0
  4  2  2  0
  5  2  1  0
  6  5  1  0
  7  6  2  0
  8  6  1  0
  9  8  2  0
 10  7  1  0
 11 10  2  0
 11  9  1  0
  5 12  1  0
  5 13  1  0
  7 14  1  0
  8 15  1  0
  9 16  1  0
 10 17  1  0
 11 18  1  0
M  CHG  2   1   1   3  -1
M  END
> <Uni-Dock RESULT> 
ENERGY=   -3.403  LOWER_BOUND=   10.762  UPPER_BOUND=   12.138
INTER + INTRA:          -3.403
INTER:                  -3.403
INTRA:                   0.000
UNBOUND:                 0.000

$$$$

     RDKit          3D

 18 17  0  0  0  0  0  0  0  0999 V2000
   45.3460    5.4930   12.8265 Na  0  0  0  0  0 15  0  0  0  0  0  0
   43.2019    4.5872   11.4615 C   0  0  0  0  0  0  0  0  0  0  0  0
   42.9585    5.3705   10.4969 O   0  0  0  0  0  0  0  0  0  0  0  0
   43.1942    3.3213   11.4864 O   0  0  0  0  0  0  0  0  0  0  0  0
   43.4829    5.2665   12.8012 C   0  0  0  0  0  0  0  0  0  0  0  0
   44.9528    5.5352   13.0076 C   0  0  0  0  0  0  0  0  0  0  0  0
   45.7726    4.5754   13.6145 C   0  0  0  0  0  0  0  0  0  0  0  0
   45.5240    6.7370   12.5708 C   0  0  0  0  0  0  0  0  0  0  0  0
   46.8843    6.9858   12.7614 C   0  0  0  0  0  0  0  0  0  0  0  0
   47.1330    4.8238   13.8053 C   0  0  0  0  0  0  0  0  0  0  0  0
   47.6880    6.0311   13.3831 C   0  0  0  0  0  0  0  0  0  0  0  0
   43.1005    4.6416   13.6185 H   0  0  0  0  0  0  0  0  0  0  0  0
   42.9205    6.2069   12.8627 H   0  0  0  0  0  0  0  0  0  0  0  0
   45.3462    3.6219   13.9193 H   0  0  0  0  0  0  0  0  0  0  0  0
   44.9035    7.4710   12.0607 H   0  0  0  0  0  0  0  0  0  0  0  0
   47.3140    7.9185   12.4097 H   0  0  0  0  0  0  0  0  0  0  0  0
   47.7571    4.0667   14.2695 H   0  0  0  0  0  0  0  0  0  0  0  0
   48.7477    6.2200   13.5218 H   0  0  0  0  0  0  0  0  0  0  0  0
  3  2  1  0
  4  2  2  0
  5  2  1  0
  6  5  1  0
  7  6  2  0
  8  6  1  0
  9  8  2  0
 10  7  1  0
 11 10  2  0
 11  9  1  0
  5 12  1  0
  5 13  1  0
  7 14  1  0
  8 15  1  0
  9 16  1  0
 10 17  1  0
 11 18  1  0
M  CHG  2   1   1   3  -1
M  END
> <Uni-Dock RESULT> 
ENERGY=   -3.315  LOWER_BOUND=    5.021  UPPER_BOUND=    5.922
INTER + INTRA:          -3.315
INTER:                  -3.315
INTRA:                   0.000
UNBOUND:                 0.000

$$$$

     RDKit          3D

 18 17  0  0  0  0  0  0  0  0999 V2000
   39.0074   12.0987   13.6601 Na  0  0  0  0  0 15  0  0  0  0  0  0
   38.9790   10.4076   11.5577 C   0  0  0  0  0  0  0  0  0  0  0  0
   40.0707    9.7673   11.5210 O   0  0  0  0  0  0  0  0  0  0  0  0
   37.7984    9.9886   11.3737 O   0  0  0  0  0  0  0  0  0  0  0  0
   39.1100   11.9115   11.7954 C   0  0  0  0  0  0  0  0  0  0  0  0
   39.0495   12.2651   13.2605 C   0  0  0  0  0  0  0  0  0  0  0  0
   37.8210   12.5352   13.8765 C   0  0  0  0  0  0  0  0  0  0  0  0
   40.2178   12.3019   14.0319 C   0  0  0  0  0  0  0  0  0  0  0  0
   40.1621   12.6288   15.3878 C   0  0  0  0  0  0  0  0  0  0  0  0
   37.7647   12.8622   15.2324 C   0  0  0  0  0  0  0  0  0  0  0  0
   38.9359   12.9137   15.9871 C   0  0  0  0  0  0  0  0  0  0  0  0
   38.3171   12.4409   11.2517 H   0  0  0  0  0  0  0  0  0  0  0  0
   40.0527   12.2719   11.3642 H   0  0  0  0  0  0  0  0  0  0  0  0
   36.9038   12.4682   13.2950 H   0  0  0  0  0  0  0  0  0  0  0  0
   41.1718   12.0526   13.5717 H   0  0  0  0  0  0  0  0  0  0  0  0
   41.0753   12.6448   15.9743 H   0  0  0  0  0  0  0  0  0  0  0  0
   36.8042   13.0606   15.6975 H   0  0  0  0  0  0  0  0  0  0  0  0
   38.8912   13.1576   17.0438 H   0  0  0  0  0  0  0  0  0  0  0  0
  3  2  1  0
  4  2  2  0
  5  2  1  0
  6  5  1  0
  7  6  2  0
  8  6  1  0
  9  8  2  0
 10  7  1  0
 11 10  2  0
 11  9  1  0
  5 12  1  0
  5 13  1  0
  7 14  1  0
  8 15  1  0
  9 16  1  0
 10 17  1  0
 11 18  1  0
M  CHG  2   1   1   3  -1
M  END
> <Uni-Dock RESULT> 
ENERGY=   -3.239  LOWER_BOUND=   10.862  UPPER_BOUND=   12.874
INTER + INTRA:          -3.239
INTER:                  -3.239
INTRA:                   0.000
UNBOUND:                 0.000

$$$$
