
     RDKit          3D

 18 17  0  0  0  0  0  0  0  0999 V2000
   46.0955    2.9765    7.9510 Na  0  0  0  0  0 15  0  0  0  0  0  0
   45.1016    4.5845    9.8763 C   0  0  0  0  0  0  0  0  0  0  0  0
   44.9187    3.9098   10.9320 O   0  0  0  0  0  0  0  0  0  0  0  0
   45.5866    5.7465    9.7426 O   0  0  0  0  0  0  0  0  0  0  0  0
   44.6085    3.9289    8.5869 C   0  0  0  0  0  0  0  0  0  0  0  0
   45.6816    3.1060    7.9188 C   0  0  0  0  0  0  0  0  0  0  0  0
   46.5483    3.6902    6.9864 C   0  0  0  0  0  0  0  0  0  0  0  0
   45.8439    1.7528    8.2409 C   0  0  0  0  0  0  0  0  0  0  0  0
   46.8370    0.9911    7.6228 C   0  0  0  0  0  0  0  0  0  0  0  0
   47.5415    2.9289    6.3680 C   0  0  0  0  0  0  0  0  0  0  0  0
   47.6830    1.5780    6.6828 C   0  0  0  0  0  0  0  0  0  0  0  0
   43.7370    3.2983    8.8043 H   0  0  0  0  0  0  0  0  0  0  0  0
   44.2471    4.7012    7.8959 H   0  0  0  0  0  0  0  0  0  0  0  0
   46.4567    4.7506    6.7608 H   0  0  0  0  0  0  0  0  0  0  0  0
   45.2023    1.3008    8.9948 H   0  0  0  0  0  0  0  0  0  0  0  0
   46.9560   -0.0544    7.8895 H   0  0  0  0  0  0  0  0  0  0  0  0
   48.2112    3.3980    5.6539 H   0  0  0  0  0  0  0  0  0  0  0  0
   48.4620    0.9885    6.2099 H   0  0  0  0  0  0  0  0  0  0  0  0
  3  2  1  0
  4  2  2  0
  5  2  1  0
  6  5  1  0
  7  6  2  0
  8  6  1  0
  9  8  2  0
 10  7  1  0
 11 10  2  0
 11  9  1  0
  5 12  1  0
  5 13  1  0
  7 14  1  0
  8 15  1  0
  9 16  1  0
 10 17  1  0
 11 18  1  0
M  CHG  2   1   1   3  -1
M  END
> <Uni-Dock RESULT> 
ENERGY=   -5.892  LOWER_BOUND=    0.000  UPPER_BOUND=    0.000
INTER + INTRA:          -5.892
INTER:                  -5.892
INTRA:                   0.000
UNBOUND:                 0.000

$$$$

     RDKit          3D

 18 17  0  0  0  0  0  0  0  0999 V2000
   46.2213    2.9396    7.9412 Na  0  0  0  0  0 15  0  0  0  0  0  0
   45.1788    3.7670   10.2884 C   0  0  0  0  0  0  0  0  0  0  0  0
   45.3135    2.8511   11.1522 O   0  0  0  0  0  0  0  0  0  0  0  0
   45.3585    5.0146   10.4095 O   0  0  0  0  0  0  0  0  0  0  0  0
   44.6654    3.3093    8.9237 C   0  0  0  0  0  0  0  0  0  0  0  0
   45.7886    2.9615    7.9790 C   0  0  0  0  0  0  0  0  0  0  0  0
   46.3508    3.9418    7.1515 C   0  0  0  0  0  0  0  0  0  0  0  0
   46.3033    1.6598    7.9349 C   0  0  0  0  0  0  0  0  0  0  0  0
   47.3428    1.3378    7.0607 C   0  0  0  0  0  0  0  0  0  0  0  0
   47.3904    3.6202    6.2772 C   0  0  0  0  0  0  0  0  0  0  0  0
   47.8834    2.3170    6.2284 C   0  0  0  0  0  0  0  0  0  0  0  0
   44.0040    2.4428    9.0507 H   0  0  0  0  0  0  0  0  0  0  0  0
   44.0385    4.0952    8.4835 H   0  0  0  0  0  0  0  0  0  0  0  0
   45.9857    4.9652    7.2088 H   0  0  0  0  0  0  0  0  0  0  0  0
   45.9010    0.9016    8.6038 H   0  0  0  0  0  0  0  0  0  0  0  0
   47.7369    0.3265    7.0444 H   0  0  0  0  0  0  0  0  0  0  0  0
   47.8216    4.3929    5.6483 H   0  0  0  0  0  0  0  0  0  0  0  0
   48.6988    2.0692    5.5562 H   0  0  0  0  0  0  0  0  0  0  0  0
  3  2  1  0
  4  2  2  0
  5  2  1  0
  6  5  1  0
  7  6  2  0
  8  6  1  0
  9  8  2  0
 10  7  1  0
 11 10  2  0
 11  9  1  0
  5 12  1  0
  5 13  1  0
  7 14  1  0
  8 15  1  0
  9 16  1  0
 10 17  1  0
 11 18  1  0
M  CHG  2   1   1   3  -1
M  END
> <Uni-Dock RESULT> 
ENERGY=   -5.159  LOWER_BOUND=    0.721  UPPER_BOUND=    0.750
INTER + INTRA:          -5.159
INTER:                  -5.159
INTRA:                   0.000
UNBOUND:                 0.000

$$$$

     RDKit          3D

 18 17  0  0  0  0  0  0  0  0999 V2000
   45.7747    3.3003    8.3071 Na  0  0  0  0  0 15  0  0  0  0  0  0
   47.6174    1.9930    6.8318 C   0  0  0  0  0  0  0  0  0  0  0  0
   48.6003    2.7607    6.6138 O   0  0  0  0  0  0  0  0  0  0  0  0
   47.6137    0.7669    7.1484 O   0  0  0  0  0  0  0  0  0  0  0  0
   46.2390    2.6184    6.6211 C   0  0  0  0  0  0  0  0  0  0  0  0
   45.6903    3.2293    7.8864 C   0  0  0  0  0  0  0  0  0  0  0  0
   44.9224    2.4619    8.7714 C   0  0  0  0  0  0  0  0  0  0  0  0
   45.9631    4.5649    8.2075 C   0  0  0  0  0  0  0  0  0  0  0  0
   45.4554    5.1304    9.3784 C   0  0  0  0  0  0  0  0  0  0  0  0
   44.4146    3.0269    9.9424 C   0  0  0  0  0  0  0  0  0  0  0  0
   44.6772    4.3627   10.2437 C   0  0  0  0  0  0  0  0  0  0  0  0
   46.2971    3.3813    5.8343 H   0  0  0  0  0  0  0  0  0  0  0  0
   45.5436    1.8585    6.2426 H   0  0  0  0  0  0  0  0  0  0  0  0
   44.7402    1.4121    8.5510 H   0  0  0  0  0  0  0  0  0  0  0  0
   46.5934    5.1568    7.5469 H   0  0  0  0  0  0  0  0  0  0  0  0
   45.6828    6.1644    9.6179 H   0  0  0  0  0  0  0  0  0  0  0  0
   43.8283    2.4170   10.6227 H   0  0  0  0  0  0  0  0  0  0  0  0
   44.2912    4.7992   11.1595 H   0  0  0  0  0  0  0  0  0  0  0  0
  3  2  1  0
  4  2  2  0
  5  2  1  0
  6  5  1  0
  7  6  2  0
  8  6  1  0
  9  8  2  0
 10  7  1  0
 11 10  2  0
 11  9  1  0
  5 12  1  0
  5 13  1  0
  7 14  1  0
  8 15  1  0
  9 16  1  0
 10 17  1  0
 11 18  1  0
M  CHG  2   1   1   3  -1
M  END
> <Uni-Dock RESULT> 
ENERGY=   -4.986  LOWER_BOUND=    2.501  UPPER_BOUND=    4.150
INTER + INTRA:          -4.986
INTER:                  -4.986
INTRA:                   0.000
UNBOUND:                 0.000

$$$$

     RDKit          3D

 18 17  0  0  0  0  0  0  0  0999 V2000
   44.9141    3.8579    9.8646 Na  0  0  0  0  0 15  0  0  0  0  0  0
   46.2323    3.2074    7.6018 C   0  0  0  0  0  0  0  0  0  0  0  0
   47.0124    4.1532    7.2854 O   0  0  0  0  0  0  0  0  0  0  0  0
   46.4391    1.9583    7.5824 O   0  0  0  0  0  0  0  0  0  0  0  0
   44.8200    3.6307    8.0038 C   0  0  0  0  0  0  0  0  0  0  0  0
   44.6953    3.8642    9.4888 C   0  0  0  0  0  0  0  0  0  0  0  0
   44.3472    2.8135   10.3470 C   0  0  0  0  0  0  0  0  0  0  0  0
   44.9519    5.1285   10.0337 C   0  0  0  0  0  0  0  0  0  0  0  0
   44.8368    5.3449   11.4079 C   0  0  0  0  0  0  0  0  0  0  0  0
   44.2319    3.0293   11.7212 C   0  0  0  0  0  0  0  0  0  0  0  0
   44.4721    4.2963   12.2513 C   0  0  0  0  0  0  0  0  0  0  0  0
   44.5391    4.5410    7.4590 H   0  0  0  0  0  0  0  0  0  0  0  0
   44.1013    2.8646    7.6858 H   0  0  0  0  0  0  0  0  0  0  0  0
   44.1867    1.8182    9.9377 H   0  0  0  0  0  0  0  0  0  0  0  0
   45.2636    5.9406    9.3798 H   0  0  0  0  0  0  0  0  0  0  0  0
   45.0474    6.3284   11.8163 H   0  0  0  0  0  0  0  0  0  0  0  0
   43.9697    2.2029   12.3745 H   0  0  0  0  0  0  0  0  0  0  0  0
   44.3929    4.4618   13.3210 H   0  0  0  0  0  0  0  0  0  0  0  0
  3  2  1  0
  4  2  2  0
  5  2  1  0
  6  5  1  0
  7  6  2  0
  8  6  1  0
  9  8  2  0
 10  7  1  0
 11 10  2  0
 11  9  1  0
  5 12  1  0
  5 13  1  0
  7 14  1  0
  8 15  1  0
  9 16  1  0
 10 17  1  0
 11 18  1  0
M  CHG  2   1   1   3  -1
M  END
> <Uni-Dock RESULT> 
ENERGY=   -3.967  LOWER_BOUND=    2.245  UPPER_BOUND=    4.412
INTER + INTRA:          -3.967
INTER:                  -3.967
INTRA:                   0.000
UNBOUND:                 0.000

$$$$

     RDKit          3D

 18 17  0  0  0  0  0  0  0  0999 V2000
   44.8826    7.1997   12.1251 Na  0  0  0  0  0 15  0  0  0  0  0  0
   42.8963    5.3738   12.0939 C   0  0  0  0  0  0  0  0  0  0  0  0
   43.1405    4.4750   12.9516 O   0  0  0  0  0  0  0  0  0  0  0  0
   41.8010    5.9513   11.8290 O   0  0  0  0  0  0  0  0  0  0  0  0
   44.0771    5.7729   11.2097 C   0  0  0  0  0  0  0  0  0  0  0  0
   44.8604    6.9242   11.7893 C   0  0  0  0  0  0  0  0  0  0  0  0
   44.5147    8.2460   11.4810 C   0  0  0  0  0  0  0  0  0  0  0  0
   45.9275    6.6888   12.6652 C   0  0  0  0  0  0  0  0  0  0  0  0
   46.6524    7.7541   13.2018 C   0  0  0  0  0  0  0  0  0  0  0  0
   45.2393    9.3117   12.0174 C   0  0  0  0  0  0  0  0  0  0  0  0
   46.3113    9.0656   12.8743 C   0  0  0  0  0  0  0  0  0  0  0  0
   44.7377    4.9085   11.0652 H   0  0  0  0  0  0  0  0  0  0  0  0
   43.7146    6.0361   10.2078 H   0  0  0  0  0  0  0  0  0  0  0  0
   43.6611    8.4397   10.8347 H   0  0  0  0  0  0  0  0  0  0  0  0
   46.1769    5.6667   12.9433 H   0  0  0  0  0  0  0  0  0  0  0  0
   47.4714    7.5558   13.8861 H   0  0  0  0  0  0  0  0  0  0  0  0
   44.9538   10.3308   11.7759 H   0  0  0  0  0  0  0  0  0  0  0  0
   46.8681    9.8944   13.2998 H   0  0  0  0  0  0  0  0  0  0  0  0
  3  2  1  0
  4  2  2  0
  5  2  1  0
  6  5  1  0
  7  6  2  0
  8  6  1  0
  9  8  2  0
 10  7  1  0
 11 10  2  0
 11  9  1  0
  5 12  1  0
  5 13  1  0
  7 14  1  0
  8 15  1  0
  9 16  1  0
 10 17  1  0
 11 18  1  0
M  CHG  2   1   1   3  -1
M  END
> <Uni-Dock RESULT> 
ENERGY=   -3.425  LOWER_BOUND=    5.151  UPPER_BOUND=    6.427
INTER + INTRA:          -3.425
INTER:                  -3.425
INTRA:                   0.000
UNBOUND:                 0.000

$$$$

     RDKit          3D

 18 17  0  0  0  0  0  0  0  0999 V2000
   45.3463    5.4932   12.8262 Na  0  0  0  0  0 15  0  0  0  0  0  0
   43.2019    4.5875   11.4616 C   0  0  0  0  0  0  0  0  0  0  0  0
   42.9584    5.3706   10.4970 O   0  0  0  0  0  0  0  0  0  0  0  0
   43.1940    3.3215   11.4869 O   0  0  0  0  0  0  0  0  0  0  0  0
   43.4832    5.2669   12.8013 C   0  0  0  0  0  0  0  0  0  0  0  0
   44.9531    5.5355   13.0073 C   0  0  0  0  0  0  0  0  0  0  0  0
   45.7730    4.5758   13.6144 C   0  0  0  0  0  0  0  0  0  0  0  0
   45.5244    6.7372   12.5703 C   0  0  0  0  0  0  0  0  0  0  0  0
   46.8846    6.9859   12.7606 C   0  0  0  0  0  0  0  0  0  0  0  0
   47.1333    4.8241   13.8049 C   0  0  0  0  0  0  0  0  0  0  0  0
   47.6883    6.0312   13.3823 C   0  0  0  0  0  0  0  0  0  0  0  0
   42.9208    6.2073   12.8626 H   0  0  0  0  0  0  0  0  0  0  0  0
   43.1008    4.6422   13.6186 H   0  0  0  0  0  0  0  0  0  0  0  0
   45.3465    3.6224   13.9194 H   0  0  0  0  0  0  0  0  0  0  0  0
   44.9037    7.4711   12.0601 H   0  0  0  0  0  0  0  0  0  0  0  0
   47.3145    7.9184   12.4086 H   0  0  0  0  0  0  0  0  0  0  0  0
   47.7575    4.0669   14.2692 H   0  0  0  0  0  0  0  0  0  0  0  0
   48.7482    6.2200   13.5208 H   0  0  0  0  0  0  0  0  0  0  0  0
  3  2  1  0
  4  2  2  0
  5  2  1  0
  6  5  1  0
  7  6  2  0
  8  6  1  0
  9  8  2  0
 10  7  1  0
 11 10  2  0
 11  9  1  0
  5 12  1  0
  5 13  1  0
  7 14  1  0
  8 15  1  0
  9 16  1  0
 10 17  1  0
 11 18  1  0
M  CHG  2   1   1   3  -1
M  END
> <Uni-Dock RESULT> 
ENERGY=   -3.315  LOWER_BOUND=    5.022  UPPER_BOUND=    5.923
INTER + INTRA:          -3.315
INTER:                  -3.315
INTRA:                   0.000
UNBOUND:                 0.000

$$$$

     RDKit          3D

 18 17  0  0  0  0  0  0  0  0999 V2000
   45.3449    5.4910   12.8239 Na  0  0  0  0  0 15  0  0  0  0  0  0
   43.1997    4.5825   11.4625 C   0  0  0  0  0  0  0  0  0  0  0  0
   42.9595    5.3601   10.4926 O   0  0  0  0  0  0  0  0  0  0  0  0
   43.1882    3.3167   11.4959 O   0  0  0  0  0  0  0  0  0  0  0  0
   43.4813    5.2697   12.7981 C   0  0  0  0  0  0  0  0  0  0  0  0
   44.9517    5.5355   13.0041 C   0  0  0  0  0  0  0  0  0  0  0  0
   45.7681    4.5775   13.6184 C   0  0  0  0  0  0  0  0  0  0  0  0
   45.5268    6.7327   12.5601 C   0  0  0  0  0  0  0  0  0  0  0  0
   46.8876    6.9789   12.7506 C   0  0  0  0  0  0  0  0  0  0  0  0
   47.1288    4.8232   13.8091 C   0  0  0  0  0  0  0  0  0  0  0  0
   47.6878    6.0260   13.3793 C   0  0  0  0  0  0  0  0  0  0  0  0
   42.9214    6.2121   12.8527 H   0  0  0  0  0  0  0  0  0  0  0  0
   43.0961    4.6514   13.6190 H   0  0  0  0  0  0  0  0  0  0  0  0
   45.3385    3.6273   13.9290 H   0  0  0  0  0  0  0  0  0  0  0  0
   44.9089    7.4652   12.0445 H   0  0  0  0  0  0  0  0  0  0  0  0
   47.3205    7.9079   12.3931 H   0  0  0  0  0  0  0  0  0  0  0  0
   47.7504    4.0673   14.2790 H   0  0  0  0  0  0  0  0  0  0  0  0
   48.7480    6.2127   13.5179 H   0  0  0  0  0  0  0  0  0  0  0  0
  3  2  1  0
  4  2  2  0
  5  2  1  0
  6  5  1  0
  7  6  2  0
  8  6  1  0
  9  8  2  0
 10  7  1  0
 11 10  2  0
 11  9  1  0
  5 12  1  0
  5 13  1  0
  7 14  1  0
  8 15  1  0
  9 16  1  0
 10 17  1  0
 11 18  1  0
M  CHG  2   1   1   3  -1
M  END
> <Uni-Dock RESULT> 
ENERGY=   -3.315  LOWER_BOUND=    5.022  UPPER_BOUND=    5.920
INTER + INTRA:          -3.315
INTER:                  -3.315
INTRA:                   0.000
UNBOUND:                 0.000

$$$$

     RDKit          3D

 18 17  0  0  0  0  0  0  0  0999 V2000
   45.7167    5.6497   12.4921 Na  0  0  0  0  0 15  0  0  0  0  0  0
   43.0438    5.3584   12.2647 C   0  0  0  0  0  0  0  0  0  0  0  0
   42.5818    4.8800   13.3421 O   0  0  0  0  0  0  0  0  0  0  0  0
   42.5821    6.2868   11.5378 O   0  0  0  0  0  0  0  0  0  0  0  0
   44.3034    4.6758   11.7326 C   0  0  0  0  0  0  0  0  0  0  0  0
   45.5644    5.3284   12.2416 C   0  0  0  0  0  0  0  0  0  0  0  0
   46.1515    6.3869   11.5369 C   0  0  0  0  0  0  0  0  0  0  0  0
   46.1511    4.9032   13.4400 C   0  0  0  0  0  0  0  0  0  0  0  0
   47.3180    5.5070   13.9114 C   0  0  0  0  0  0  0  0  0  0  0  0
   47.3183    6.9911   12.0079 C   0  0  0  0  0  0  0  0  0  0  0  0
   47.9043    6.5481   13.1929 C   0  0  0  0  0  0  0  0  0  0  0  0
   44.2938    3.6149   12.0132 H   0  0  0  0  0  0  0  0  0  0  0  0
   44.2941    4.6893   10.6352 H   0  0  0  0  0  0  0  0  0  0  0  0
   45.6796    6.7518   10.6269 H   0  0  0  0  0  0  0  0  0  0  0  0
   45.6790    4.1096   14.0158 H   0  0  0  0  0  0  0  0  0  0  0  0
   47.7561    5.1721   14.8464 H   0  0  0  0  0  0  0  0  0  0  0  0
   47.7567    7.8162   11.4551 H   0  0  0  0  0  0  0  0  0  0  0  0
   48.8057    7.0248   13.5647 H   0  0  0  0  0  0  0  0  0  0  0  0
  3  2  1  0
  4  2  2  0
  5  2  1  0
  6  5  1  0
  7  6  2  0
  8  6  1  0
  9  8  2  0
 10  7  1  0
 11 10  2  0
 11  9  1  0
  5 12  1  0
  5 13  1  0
  7 14  1  0
  8 15  1  0
  9 16  1  0
 10 17  1  0
 11 18  1  0
M  CHG  2   1   1   3  -1
M  END
> <Uni-Dock RESULT> 
ENERGY=   -3.235  LOWER_BOUND=    4.869  UPPER_BOUND=    5.545
INTER + INTRA:          -3.235
INTER:                  -3.235
INTRA:                   0.000
UNBOUND:                 0.000

$$$$

     RDKit          3D

 18 17  0  0  0  0  0  0  0  0999 V2000
   52.5840    1.7619   17.6590 Na  0  0  0  0  0 15  0  0  0  0  0  0
   54.5913    0.1822   16.7895 C   0  0  0  0  0  0  0  0  0  0  0  0
   54.1351   -0.6523   15.9536 O   0  0  0  0  0  0  0  0  0  0  0  0
   55.6638    0.8540   16.7464 O   0  0  0  0  0  0  0  0  0  0  0  0
   53.7609    0.3560   18.0606 C   0  0  0  0  0  0  0  0  0  0  0  0
   52.7413    1.4598   17.9295 C   0  0  0  0  0  0  0  0  0  0  0  0
   53.0712    2.7769   18.2732 C   0  0  0  0  0  0  0  0  0  0  0  0
   51.4587    1.1882   17.4369 C   0  0  0  0  0  0  0  0  0  0  0  0
   50.5150    2.2095   17.3154 C   0  0  0  0  0  0  0  0  0  0  0  0
   52.1278    3.7985   18.1519 C   0  0  0  0  0  0  0  0  0  0  0  0
   50.8480    3.5140   17.6773 C   0  0  0  0  0  0  0  0  0  0  0  0
   53.2578   -0.5885   18.3039 H   0  0  0  0  0  0  0  0  0  0  0  0
   54.4254    0.5619   18.9094 H   0  0  0  0  0  0  0  0  0  0  0  0
   54.0779    3.0047   18.6173 H   0  0  0  0  0  0  0  0  0  0  0  0
   51.2067    0.1756   17.1280 H   0  0  0  0  0  0  0  0  0  0  0  0
   49.5279    1.9848   16.9238 H   0  0  0  0  0  0  0  0  0  0  0  0
   52.4012    4.8159   18.4141 H   0  0  0  0  0  0  0  0  0  0  0  0
   50.1178    4.3102   17.5729 H   0  0  0  0  0  0  0  0  0  0  0  0
  3  2  1  0
  4  2  2  0
  5  2  1  0
  6  5  1  0
  7  6  2  0
  8  6  1  0
  9  8  2  0
 10  7  1  0
 11 10  2  0
 11  9  1  0
  5 12  1  0
  5 13  1  0
  7 14  1  0
  8 15  1  0
  9 16  1  0
 10 17  1  0
 11 18  1  0
M  CHG  2   1   1   3  -1
M  END
> <Uni-Dock RESULT> 
ENERGY=   -3.144  LOWER_BOUND=   11.332  UPPER_BOUND=   12.177
INTER + INTRA:          -3.144
INTER:                  -3.144
INTRA:                   0.000
UNBOUND:                 0.000

$$$$
