
     RDKit          3D

 73 81  0  0  0  0  0  0  0  0999 V2000
   30.2439   10.0903   27.8140 C   0  0  0  0  0  0  0  0  0  0  0  0
   29.6793    9.3835   28.8545 C   0  0  0  0  0  0  0  0  0  0  0  0
   28.1403    9.4422   29.1071 C   0  0  0  0  0  0  0  0  0  0  0  0
   27.3087   10.1970   28.2954 C   0  0  0  0  0  0  0  0  0  0  0  0
   27.9624   10.8838   27.2608 C   0  0  0  0  0  0  0  0  0  0  0  0
   29.3701   10.8496   27.0188 C   0  0  0  0  0  0  0  0  0  0  0  0
   30.6454    8.6749   29.5272 N   0  0  0  0  0  0  0  0  0  0  0  0
   31.6356    9.8040   27.8422 C   0  0  0  0  0  0  0  0  0  0  0  0
   31.8656    8.8816   28.8819 C   0  0  0  0  0  0  0  0  0  0  0  0
   27.4093    8.8335   30.0801 N   0  0  0  0  0  0  0  0  0  0  0  0
   26.0735    9.1717   29.9231 C   0  0  0  0  0  0  0  0  0  0  0  0
   25.9876   10.0283   28.8128 C   0  0  0  0  0  0  0  0  0  0  0  0
   34.2098    8.7852   28.2715 C   0  0  0  0  0  0  0  0  0  0  0  0
   33.1545    8.3489   29.0808 C   0  0  0  0  0  0  0  0  0  0  0  0
   32.7216   10.2267   27.0421 C   0  0  0  0  0  0  0  0  0  0  0  0
   34.0015    9.7211   27.2701 C   0  0  0  0  0  0  0  0  0  0  0  0
   24.9398    8.8083   30.6734 C   0  0  0  0  0  0  0  0  0  0  0  0
   23.6985    9.3251   30.2954 C   0  0  0  0  0  0  0  0  0  0  0  0
   23.5859   10.1766   29.2037 C   0  0  0  0  0  0  0  0  0  0  0  0
   24.7157   10.5299   28.4583 C   0  0  0  0  0  0  0  0  0  0  0  0
   29.2935    8.4087   31.4522 O   0  0  0  0  0  0  0  0  0  0  0  0
   27.6856    6.5365   31.0983 C   0  0  0  0  0  0  0  0  0  0  0  0
   30.0104    6.3230   30.2119 C   0  0  2  0  0  0  0  0  0  0  0  0
   28.9903    5.7463   31.2215 C   0  0  2  0  0  0  0  0  0  0  0  0
   27.9419    8.0456   31.1852 C   0  0  2  0  0  0  0  0  0  0  0  0
   30.3433    7.7882   30.6650 C   0  0  1  0  0  0  0  0  0  0  0  0
   28.8406    4.2694   31.1484 N   0  0  0  0  0  0  0  0  0  0  0  0
   29.9299    3.5360   31.6460 C   0  0  0  0  0  0  0  0  0  0  0  0
   27.9515    3.6978   30.1340 C   0  0  0  0  0  0  0  0  0  0  0  0
   30.9414    4.0699   32.0964 O   0  0  0  0  0  0  0  0  0  0  0  0
   29.8738    2.0588   31.6600 C   0  0  0  0  0  0  0  0  0  0  0  0
   30.8979    1.3351   31.0420 C   0  0  0  0  0  0  0  0  0  0  0  0
   30.8727   -0.0595   31.0726 C   0  0  0  0  0  0  0  0  0  0  0  0
   29.8394   -0.7248   31.7353 C   0  0  0  0  0  0  0  0  0  0  0  0
   28.8315   -0.0003   32.3742 C   0  0  0  0  0  0  0  0  0  0  0  0
   28.8492    1.3947   32.3438 C   0  0  0  0  0  0  0  0  0  0  0  0
   29.3756    6.2701   28.9151 O   0  0  0  0  0  0  0  0  0  0  0  0
   30.2258    5.7615   27.8962 C   0  0  0  0  0  0  0  0  0  0  0  0
   27.3706   11.7559   26.2347 C   0  0  0  0  0  0  0  0  0  0  0  0
   28.3985   12.2024   25.4329 N   0  0  0  0  0  0  0  0  0  0  0  0
   29.6864   11.7050   25.8271 C   0  0  0  0  0  0  0  0  0  0  0  0
   26.2025   12.0494   26.0836 O   0  0  0  0  0  0  0  0  0  0  0  0
   31.4730    7.7540   31.7203 C   0  0  0  0  0  0  0  0  0  0  0  0
   35.2071    8.3803   28.4325 H   0  0  0  0  0  0  0  0  0  0  0  0
   33.3702    7.6056   29.8375 H   0  0  0  0  0  0  0  0  0  0  0  0
   32.5665   10.9401   26.2381 H   0  0  0  0  0  0  0  0  0  0  0  0
   34.8324   10.0488   26.6513 H   0  0  0  0  0  0  0  0  0  0  0  0
   25.0109    8.1502   31.5334 H   0  0  0  0  0  0  0  0  0  0  0  0
   22.8097    9.0627   30.8644 H   0  0  0  0  0  0  0  0  0  0  0  0
   22.6153   10.5779   28.9214 H   0  0  0  0  0  0  0  0  0  0  0  0
   24.6021   11.1970   27.6082 H   0  0  0  0  0  0  0  0  0  0  0  0
   27.1487    6.3046   30.1717 H   0  0  0  0  0  0  0  0  0  0  0  0
   27.0073    6.2368   31.9080 H   0  0  0  0  0  0  0  0  0  0  0  0
   30.9269    5.7232   30.1794 H   0  0  0  0  0  0  0  0  0  0  0  0
   29.3740    5.9242   32.2351 H   0  0  0  0  0  0  0  0  0  0  0  0
   27.3960    8.4114   32.0639 H   0  0  0  0  0  0  0  0  0  0  0  0
   27.7879    2.6295   30.2826 H   0  0  0  0  0  0  0  0  0  0  0  0
   26.9720    4.1839   30.1597 H   0  0  0  0  0  0  0  0  0  0  0  0
   28.4134    3.8237   29.1507 H   0  0  0  0  0  0  0  0  0  0  0  0
   31.7142    1.8534   30.5460 H   0  0  0  0  0  0  0  0  0  0  0  0
   31.6641   -0.6290   30.5902 H   0  0  0  0  0  0  0  0  0  0  0  0
   29.8253   -1.8115   31.7632 H   0  0  0  0  0  0  0  0  0  0  0  0
   28.0375   -0.5229   32.9014 H   0  0  0  0  0  0  0  0  0  0  0  0
   28.0746    1.9597   32.8567 H   0  0  0  0  0  0  0  0  0  0  0  0
   29.6897    5.8200   26.9470 H   0  0  0  0  0  0  0  0  0  0  0  0
   30.4684    4.7143   28.0932 H   0  0  0  0  0  0  0  0  0  0  0  0
   31.1436    6.3446   27.8137 H   0  0  0  0  0  0  0  0  0  0  0  0
   28.2171   12.8269   24.6588 H   0  0  0  0  0  0  0  0  0  0  0  0
   30.3312   12.5496   26.0847 H   0  0  0  0  0  0  0  0  0  0  0  0
   30.1097   11.1224   25.0037 H   0  0  0  0  0  0  0  0  0  0  0  0
   32.2877    7.0758   31.4544 H   0  0  0  0  0  0  0  0  0  0  0  0
   31.0963    7.4146   32.6940 H   0  0  0  0  0  0  0  0  0  0  0  0
   31.8872    8.7571   31.8903 H   0  0  0  0  0  0  0  0  0  0  0  0
  6  1  2  0
  2  3  2  0
  4  5  2  0
  1  8  1  0
  2  1  1  0
  7  2  1  0
  7  9  1  0
 10  3  1  0
  4  3  1  0
 12  4  1  0
 10 11  1  0
 14  9  1  0
  9  8  2  0
  8 15  1  0
 13 14  2  0
 16 13  1  0
 15 16  2  0
 11 17  1  0
 12 11  2  0
 20 12  1  0
 17 18  2  0
 18 19  1  0
 19 20  2  0
 10 25  1  0
 25 21  1  0
  7 26  1  0
 26 21  1  0
 25 22  1  0
 26 23  1  0
 22 24  1  0
 23 24  1  0
 24 27  1  0
 27 28  1  0
 27 29  1  0
 28 30  2  0
 28 31  1  0
 32 31  2  0
 36 31  1  0
 32 33  1  0
 33 34  2  0
 34 35  1  0
 35 36  2  0
 23 37  1  0
 37 38  1  0
  5 39  1  0
  6  5  1  0
  6 41  1  0
 39 40  1  0
 40 41  1  0
 39 42  2  0
 26 43  1  6
 13 44  1  0
 14 45  1  0
 15 46  1  0
 16 47  1  0
 17 48  1  0
 18 49  1  0
 19 50  1  0
 20 51  1  0
 22 52  1  0
 22 53  1  0
 23 54  1  1
 24 55  1  6
 25 56  1  6
 29 57  1  0
 29 58  1  0
 29 59  1  0
 32 60  1  0
 33 61  1  0
 34 62  1  0
 35 63  1  0
 36 64  1  0
 38 65  1  0
 38 66  1  0
 38 67  1  0
 40 68  1  0
 41 69  1  0
 41 70  1  0
 43 71  1  0
 43 72  1  0
 43 73  1  0
M  END
> <Uni-Dock RESULT> 
ENERGY=   -4.974  LOWER_BOUND=    0.000  UPPER_BOUND=    0.000
INTER + INTRA:          -4.974
INTER:                  -4.974
INTRA:                   0.000
UNBOUND:                 0.000

$$$$

     RDKit          3D

 73 81  0  0  0  0  0  0  0  0999 V2000
   30.7845    9.4085   28.6485 C   0  0  0  0  0  0  0  0  0  0  0  0
   29.8851    8.9161   29.5702 C   0  0  0  0  0  0  0  0  0  0  0  0
   28.3654    9.2497   29.4484 C   0  0  0  0  0  0  0  0  0  0  0  0
   27.8852   10.0399   28.4162 C   0  0  0  0  0  0  0  0  0  0  0  0
   28.8650   10.4988   27.5226 C   0  0  0  0  0  0  0  0  0  0  0  0
   30.2611   10.2116   27.6221 C   0  0  0  0  0  0  0  0  0  0  0  0
   30.5333    8.1349   30.4962 N   0  0  0  0  0  0  0  0  0  0  0  0
   32.0597    8.9050   29.0226 C   0  0  0  0  0  0  0  0  0  0  0  0
   31.8826    8.0720   30.1448 C   0  0  0  0  0  0  0  0  0  0  0  0
   27.3393    8.8733   30.2590 N   0  0  0  0  0  0  0  0  0  0  0  0
   26.1556    9.4053   29.7698 C   0  0  0  0  0  0  0  0  0  0  0  0
   26.4743   10.1429   28.6173 C   0  0  0  0  0  0  0  0  0  0  0  0
   34.2460    7.5331   30.1120 C   0  0  0  0  0  0  0  0  0  0  0  0
   32.9766    7.3612   30.6762 C   0  0  0  0  0  0  0  0  0  0  0  0
   33.3539    9.0595   28.4754 C   0  0  0  0  0  0  0  0  0  0  0  0
   34.4379    8.3799   29.0311 C   0  0  0  0  0  0  0  0  0  0  0  0
   24.8375    9.3114   30.2536 C   0  0  0  0  0  0  0  0  0  0  0  0
   23.8256    9.9801   29.5607 C   0  0  0  0  0  0  0  0  0  0  0  0
   24.1138   10.7190   28.4203 C   0  0  0  0  0  0  0  0  0  0  0  0
   25.4253   10.8040   27.9411 C   0  0  0  0  0  0  0  0  0  0  0  0
   28.7644    8.2954   32.0613 O   0  0  0  0  0  0  0  0  0  0  0  0
   26.9611    6.6819   31.4606 C   0  0  0  0  0  0  0  0  0  0  0  0
   29.3455    6.0023   31.1632 C   0  0  2  0  0  0  0  0  0  0  0  0
   28.0402    5.7081   31.9390 C   0  0  2  0  0  0  0  0  0  0  0  0
   27.4622    8.1301   31.5073 C   0  0  2  0  0  0  0  0  0  0  0  0
   29.8312    7.4336   31.5858 C   0  0  1  0  0  0  0  0  0  0  0  0
   27.6441    4.2756   31.9288 N   0  0  0  0  0  0  0  0  0  0  0  0
   28.4445    3.4316   32.7158 C   0  0  0  0  0  0  0  0  0  0  0  0
   26.9121    3.7523   30.7726 C   0  0  0  0  0  0  0  0  0  0  0  0
   29.4113    3.8388   33.3563 O   0  0  0  0  0  0  0  0  0  0  0  0
   28.1187    1.9929   32.8120 C   0  0  0  0  0  0  0  0  0  0  0  0
   29.1048    1.0518   32.5013 C   0  0  0  0  0  0  0  0  0  0  0  0
   28.8200   -0.3092   32.6155 C   0  0  0  0  0  0  0  0  0  0  0  0
   27.5625   -0.7247   33.0576 C   0  0  0  0  0  0  0  0  0  0  0  0
   26.5876    0.2167   33.3925 C   0  0  0  0  0  0  0  0  0  0  0  0
   26.8652    1.5794   33.2766 C   0  0  0  0  0  0  0  0  0  0  0  0
   29.0140    5.9169   29.7595 O   0  0  0  0  0  0  0  0  0  0  0  0
   29.9611    5.1730   29.0051 C   0  0  0  0  0  0  0  0  0  0  0  0
   28.6833   11.3426   26.3314 C   0  0  0  0  0  0  0  0  0  0  0  0
   29.9265   11.5297   25.7674 N   0  0  0  0  0  0  0  0  0  0  0  0
   30.9830   10.8743   26.4856 C   0  0  0  0  0  0  0  0  0  0  0  0
   27.6509   11.8040   25.8904 O   0  0  0  0  0  0  0  0  0  0  0  0
   30.6744    7.3278   32.8777 C   0  0  0  0  0  0  0  0  0  0  0  0
   35.0923    6.9911   30.5296 H   0  0  0  0  0  0  0  0  0  0  0  0
   32.8809    6.6766   31.5091 H   0  0  0  0  0  0  0  0  0  0  0  0
   33.5126    9.7001   27.6129 H   0  0  0  0  0  0  0  0  0  0  0  0
   35.4303    8.5016   28.6058 H   0  0  0  0  0  0  0  0  0  0  0  0
   24.5959    8.7447   31.1470 H   0  0  0  0  0  0  0  0  0  0  0  0
   22.8006    9.9265   29.9200 H   0  0  0  0  0  0  0  0  0  0  0  0
   23.3192   11.2404   27.8918 H   0  0  0  0  0  0  0  0  0  0  0  0
   25.6256   11.3875   27.0467 H   0  0  0  0  0  0  0  0  0  0  0  0
   26.6090    6.4441   30.4506 H   0  0  0  0  0  0  0  0  0  0  0  0
   26.0779    6.5830   32.1052 H   0  0  0  0  0  0  0  0  0  0  0  0
   30.1217    5.2618   31.3867 H   0  0  0  0  0  0  0  0  0  0  0  0
   28.2164    5.9269   33.0007 H   0  0  0  0  0  0  0  0  0  0  0  0
   26.8117    8.6699   32.2068 H   0  0  0  0  0  0  0  0  0  0  0  0
   26.5282    2.7462   30.9475 H   0  0  0  0  0  0  0  0  0  0  0  0
   26.0564    4.3907   30.5350 H   0  0  0  0  0  0  0  0  0  0  0  0
   27.5948    3.6975   29.9199 H   0  0  0  0  0  0  0  0  0  0  0  0
   30.0908    1.3759   32.1792 H   0  0  0  0  0  0  0  0  0  0  0  0
   29.5812   -1.0470   32.3714 H   0  0  0  0  0  0  0  0  0  0  0  0
   27.3450   -1.7857   33.1520 H   0  0  0  0  0  0  0  0  0  0  0  0
   25.6152   -0.1118   33.7504 H   0  0  0  0  0  0  0  0  0  0  0  0
   26.1125    2.3132   33.5546 H   0  0  0  0  0  0  0  0  0  0  0  0
   29.6677    5.2175   27.9545 H   0  0  0  0  0  0  0  0  0  0  0  0
   29.9595    4.1269   29.3213 H   0  0  0  0  0  0  0  0  0  0  0  0
   30.9649    5.5876   29.1036 H   0  0  0  0  0  0  0  0  0  0  0  0
   30.0374   12.0905   24.9335 H   0  0  0  0  0  0  0  0  0  0  0  0
   31.6977   11.6255   26.8326 H   0  0  0  0  0  0  0  0  0  0  0  0
   31.4644   10.1475   25.8249 H   0  0  0  0  0  0  0  0  0  0  0  0
   31.3903    6.5023   32.8560 H   0  0  0  0  0  0  0  0  0  0  0  0
   30.0366    7.1582   33.7550 H   0  0  0  0  0  0  0  0  0  0  0  0
   31.2163    8.2627   33.0750 H   0  0  0  0  0  0  0  0  0  0  0  0
  6  1  2  0
  2  3  2  0
  4  5  2  0
  1  8  1  0
  2  1  1  0
  7  2  1  0
  7  9  1  0
 10  3  1  0
  4  3  1  0
 12  4  1  0
 10 11  1  0
 14  9  1  0
  9  8  2  0
  8 15  1  0
 13 14  2  0
 16 13  1  0
 15 16  2  0
 11 17  1  0
 12 11  2  0
 20 12  1  0
 17 18  2  0
 18 19  1  0
 19 20  2  0
 10 25  1  0
 25 21  1  0
  7 26  1  0
 26 21  1  0
 25 22  1  0
 26 23  1  0
 22 24  1  0
 23 24  1  0
 24 27  1  0
 27 28  1  0
 27 29  1  0
 28 30  2  0
 28 31  1  0
 32 31  2  0
 36 31  1  0
 32 33  1  0
 33 34  2  0
 34 35  1  0
 35 36  2  0
 23 37  1  0
 37 38  1  0
  5 39  1  0
  6  5  1  0
  6 41  1  0
 39 40  1  0
 40 41  1  0
 39 42  2  0
 26 43  1  6
 13 44  1  0
 14 45  1  0
 15 46  1  0
 16 47  1  0
 17 48  1  0
 18 49  1  0
 19 50  1  0
 20 51  1  0
 22 52  1  0
 22 53  1  0
 23 54  1  1
 24 55  1  6
 25 56  1  6
 29 57  1  0
 29 58  1  0
 29 59  1  0
 32 60  1  0
 33 61  1  0
 34 62  1  0
 35 63  1  0
 36 64  1  0
 38 65  1  0
 38 66  1  0
 38 67  1  0
 40 68  1  0
 41 69  1  0
 41 70  1  0
 43 71  1  0
 43 72  1  0
 43 73  1  0
M  END
> <Uni-Dock RESULT> 
ENERGY=   -4.493  LOWER_BOUND=    1.196  UPPER_BOUND=    1.511
INTER + INTRA:          -4.493
INTER:                  -4.493
INTRA:                   0.000
UNBOUND:                 0.000

$$$$

     RDKit          3D

 73 81  0  0  0  0  0  0  0  0999 V2000
   25.8318    6.6678   31.6294 C   0  0  0  0  0  0  0  0  0  0  0  0
   26.5831    5.6316   32.1419 C   0  0  0  0  0  0  0  0  0  0  0  0
   26.0439    4.1676   32.0998 C   0  0  0  0  0  0  0  0  0  0  0  0
   24.8077    3.8744   31.5465 C   0  0  0  0  0  0  0  0  0  0  0  0
   24.1089    4.9843   31.0474 C   0  0  0  0  0  0  0  0  0  0  0  0
   24.5816    6.3322   31.0846 C   0  0  0  0  0  0  0  0  0  0  0  0
   27.7826    6.1040   32.6173 N   0  0  0  0  0  0  0  0  0  0  0  0
   26.6075    7.8469   31.7951 C   0  0  0  0  0  0  0  0  0  0  0  0
   27.8412    7.4755   32.3649 C   0  0  0  0  0  0  0  0  0  0  0  0
   26.6257    3.0281   32.5630 N   0  0  0  0  0  0  0  0  0  0  0  0
   25.7824    1.9550   32.3161 C   0  0  0  0  0  0  0  0  0  0  0  0
   24.6356    2.4625   31.6828 C   0  0  0  0  0  0  0  0  0  0  0  0
   28.5925    9.7762   32.2265 C   0  0  0  0  0  0  0  0  0  0  0  0
   28.8492    8.4406   32.5572 C   0  0  0  0  0  0  0  0  0  0  0  0
   26.3772    9.2038   31.4725 C   0  0  0  0  0  0  0  0  0  0  0  0
   27.3682   10.1586   31.7003 C   0  0  0  0  0  0  0  0  0  0  0  0
   25.9270    0.5866   32.6108 C   0  0  0  0  0  0  0  0  0  0  0  0
   24.8900   -0.2819   32.2624 C   0  0  0  0  0  0  0  0  0  0  0  0
   23.7439    0.1942   31.6383 C   0  0  0  0  0  0  0  0  0  0  0  0
   23.6083    1.5547   31.3428 C   0  0  0  0  0  0  0  0  0  0  0  0
   28.1577    4.1848   33.9515 O   0  0  0  0  0  0  0  0  0  0  0  0
   29.0577    2.3398   32.5367 C   0  0  0  0  0  0  0  0  0  0  0  0
   29.8100    4.6807   32.1004 C   0  0  2  0  0  0  0  0  0  0  0  0
   30.2687    3.2753   32.5551 C   0  0  2  0  0  0  0  0  0  0  0  0
   27.8779    2.9463   33.3053 C   0  0  2  0  0  0  0  0  0  0  0  0
   28.8200    5.2271   33.1888 C   0  0  1  0  0  0  0  0  0  0  0  0
   31.4651    2.7697   31.8326 N   0  0  0  0  0  0  0  0  0  0  0  0
   32.6730    3.4040   32.1658 C   0  0  0  0  0  0  0  0  0  0  0  0
   31.2859    2.1367   30.5236 C   0  0  0  0  0  0  0  0  0  0  0  0
   32.7402    4.3199   32.9828 O   0  0  0  0  0  0  0  0  0  0  0  0
   33.9339    2.9554   31.5378 C   0  0  0  0  0  0  0  0  0  0  0  0
   34.7330    3.8924   30.8759 C   0  0  0  0  0  0  0  0  0  0  0  0
   35.9395    3.4885   30.3037 C   0  0  0  0  0  0  0  0  0  0  0  0
   36.3529    2.1592   30.4112 C   0  0  0  0  0  0  0  0  0  0  0  0
   35.5663    1.2305   31.0950 C   0  0  0  0  0  0  0  0  0  0  0  0
   34.3566    1.6276   31.6662 C   0  0  0  0  0  0  0  0  0  0  0  0
   29.1821    4.5076   30.8109 O   0  0  0  0  0  0  0  0  0  0  0  0
   29.5952    5.4730   29.8532 C   0  0  0  0  0  0  0  0  0  0  0  0
   22.7885    5.0093   30.3997 C   0  0  0  0  0  0  0  0  0  0  0  0
   22.5153    6.3203   30.0749 N   0  0  0  0  0  0  0  0  0  0  0  0
   23.5583    7.2310   30.4548 C   0  0  0  0  0  0  0  0  0  0  0  0
   22.0484    4.0749   30.1706 O   0  0  0  0  0  0  0  0  0  0  0  0
   29.6265    5.9044   34.3211 C   0  0  0  0  0  0  0  0  0  0  0  0
   29.3686   10.5227   32.3846 H   0  0  0  0  0  0  0  0  0  0  0  0
   29.8273    8.1950   32.9505 H   0  0  0  0  0  0  0  0  0  0  0  0
   25.4316    9.5117   31.0361 H   0  0  0  0  0  0  0  0  0  0  0  0
   27.1861   11.2000   31.4495 H   0  0  0  0  0  0  0  0  0  0  0  0
   26.8122    0.1990   33.1045 H   0  0  0  0  0  0  0  0  0  0  0  0
   24.9774   -1.3425   32.4860 H   0  0  0  0  0  0  0  0  0  0  0  0
   22.9400   -0.4899   31.3765 H   0  0  0  0  0  0  0  0  0  0  0  0
   22.7027    1.9029   30.8538 H   0  0  0  0  0  0  0  0  0  0  0  0
   28.7457    2.0888   31.5167 H   0  0  0  0  0  0  0  0  0  0  0  0
   29.3369    1.3830   32.9971 H   0  0  0  0  0  0  0  0  0  0  0  0
   30.6592    5.3642   31.9890 H   0  0  0  0  0  0  0  0  0  0  0  0
   30.5996    3.3447   33.6000 H   0  0  0  0  0  0  0  0  0  0  0  0
   27.6543    2.2646   34.1355 H   0  0  0  0  0  0  0  0  0  0  0  0
   32.1987    1.6560   30.1687 H   0  0  0  0  0  0  0  0  0  0  0  0
   30.5092    1.3679   30.5686 H   0  0  0  0  0  0  0  0  0  0  0  0
   31.0178    2.9067   29.7946 H   0  0  0  0  0  0  0  0  0  0  0  0
   34.4219    4.9317   30.8123 H   0  0  0  0  0  0  0  0  0  0  0  0
   36.5643    4.2114   29.7836 H   0  0  0  0  0  0  0  0  0  0  0  0
   37.2966    1.8482   29.9699 H   0  0  0  0  0  0  0  0  0  0  0  0
   35.8998    0.2002   31.1886 H   0  0  0  0  0  0  0  0  0  0  0  0
   33.7523    0.9089   32.2145 H   0  0  0  0  0  0  0  0  0  0  0  0
   29.0249    5.3073   28.9372 H   0  0  0  0  0  0  0  0  0  0  0  0
   30.6574    5.3513   29.6268 H   0  0  0  0  0  0  0  0  0  0  0  0
   29.4053    6.4886   30.2021 H   0  0  0  0  0  0  0  0  0  0  0  0
   21.6468    6.5711   29.6221 H   0  0  0  0  0  0  0  0  0  0  0  0
   23.1552    7.9587   31.1645 H   0  0  0  0  0  0  0  0  0  0  0  0
   23.9421    7.7259   29.5579 H   0  0  0  0  0  0  0  0  0  0  0  0
   30.4269    6.5498   33.9506 H   0  0  0  0  0  0  0  0  0  0  0  0
   30.1077    5.1581   34.9666 H   0  0  0  0  0  0  0  0  0  0  0  0
   28.9709    6.4929   34.9773 H   0  0  0  0  0  0  0  0  0  0  0  0
  6  1  2  0
  2  3  2  0
  4  5  2  0
  1  8  1  0
  2  1  1  0
  7  2  1  0
  7  9  1  0
 10  3  1  0
  4  3  1  0
 12  4  1  0
 10 11  1  0
 14  9  1  0
  9  8  2  0
  8 15  1  0
 13 14  2  0
 16 13  1  0
 15 16  2  0
 11 17  1  0
 12 11  2  0
 20 12  1  0
 17 18  2  0
 18 19  1  0
 19 20  2  0
 10 25  1  0
 25 21  1  0
  7 26  1  0
 26 21  1  0
 25 22  1  0
 26 23  1  0
 22 24  1  0
 23 24  1  0
 24 27  1  0
 27 28  1  0
 27 29  1  0
 28 30  2  0
 28 31  1  0
 32 31  2  0
 36 31  1  0
 32 33  1  0
 33 34  2  0
 34 35  1  0
 35 36  2  0
 23 37  1  0
 37 38  1  0
  5 39  1  0
  6  5  1  0
  6 41  1  0
 39 40  1  0
 40 41  1  0
 39 42  2  0
 26 43  1  6
 13 44  1  0
 14 45  1  0
 15 46  1  0
 16 47  1  0
 17 48  1  0
 18 49  1  0
 19 50  1  0
 20 51  1  0
 22 52  1  0
 22 53  1  0
 23 54  1  1
 24 55  1  6
 25 56  1  6
 29 57  1  0
 29 58  1  0
 29 59  1  0
 32 60  1  0
 33 61  1  0
 34 62  1  0
 35 63  1  0
 36 64  1  0
 38 65  1  0
 38 66  1  0
 38 67  1  0
 40 68  1  0
 41 69  1  0
 41 70  1  0
 43 71  1  0
 43 72  1  0
 43 73  1  0
M  END
> <Uni-Dock RESULT> 
ENERGY=   -4.415  LOWER_BOUND=    4.053  UPPER_BOUND=    6.586
INTER + INTRA:          -4.415
INTER:                  -4.415
INTRA:                   0.000
UNBOUND:                 0.000

$$$$

     RDKit          3D

 73 81  0  0  0  0  0  0  0  0999 V2000
   25.7712    6.6527   31.6081 C   0  0  0  0  0  0  0  0  0  0  0  0
   26.5226    5.6171   32.1216 C   0  0  0  0  0  0  0  0  0  0  0  0
   25.9852    4.1526   32.0776 C   0  0  0  0  0  0  0  0  0  0  0  0
   24.7503    3.8582   31.5218 C   0  0  0  0  0  0  0  0  0  0  0  0
   24.0513    4.9676   31.0220 C   0  0  0  0  0  0  0  0  0  0  0  0
   24.5224    6.3160   31.0607 C   0  0  0  0  0  0  0  0  0  0  0  0
   27.7206    6.0907   32.5995 N   0  0  0  0  0  0  0  0  0  0  0  0
   26.5452    7.8327   31.7759 C   0  0  0  0  0  0  0  0  0  0  0  0
   27.7782    7.4623   32.3480 C   0  0  0  0  0  0  0  0  0  0  0  0
   26.5673    3.0134   32.5414 N   0  0  0  0  0  0  0  0  0  0  0  0
   25.7258    1.9396   32.2923 C   0  0  0  0  0  0  0  0  0  0  0  0
   24.5796    2.4461   31.6571 C   0  0  0  0  0  0  0  0  0  0  0  0
   28.5272    9.7640   32.2122 C   0  0  0  0  0  0  0  0  0  0  0  0
   28.7847    8.4285   32.5427 C   0  0  0  0  0  0  0  0  0  0  0  0
   26.3140    9.1895   31.4536 C   0  0  0  0  0  0  0  0  0  0  0  0
   27.3035   10.1453   31.6839 C   0  0  0  0  0  0  0  0  0  0  0  0
   25.8713    0.5712   32.5866 C   0  0  0  0  0  0  0  0  0  0  0  0
   24.8360   -0.2983   32.2356 C   0  0  0  0  0  0  0  0  0  0  0  0
   23.6905    0.1767   31.6096 C   0  0  0  0  0  0  0  0  0  0  0  0
   23.5541    1.5373   31.3146 C   0  0  0  0  0  0  0  0  0  0  0  0
   28.0953    4.1712   33.9335 O   0  0  0  0  0  0  0  0  0  0  0  0
   29.0002    2.3279   32.5194 C   0  0  0  0  0  0  0  0  0  0  0  0
   29.7507    4.6699   32.0859 C   0  0  2  0  0  0  0  0  0  0  0  0
   30.2100    3.2648   32.5407 C   0  0  2  0  0  0  0  0  0  0  0  0
   27.8182    2.9327   33.2861 C   0  0  2  0  0  0  0  0  0  0  0  0
   28.7580    5.2146   33.1726 C   0  0  1  0  0  0  0  0  0  0  0  0
   31.4084    2.7610   31.8203 N   0  0  0  0  0  0  0  0  0  0  0  0
   32.6150    3.3964   32.1561 C   0  0  0  0  0  0  0  0  0  0  0  0
   31.2325    2.1284   30.5106 C   0  0  0  0  0  0  0  0  0  0  0  0
   32.6796    4.3120   32.9737 O   0  0  0  0  0  0  0  0  0  0  0  0
   33.8776    2.9496   31.5304 C   0  0  0  0  0  0  0  0  0  0  0  0
   34.6769    3.8878   30.8705 C   0  0  0  0  0  0  0  0  0  0  0  0
   35.8850    3.4856   30.3004 C   0  0  0  0  0  0  0  0  0  0  0  0
   36.2997    2.1567   30.4080 C   0  0  0  0  0  0  0  0  0  0  0  0
   35.5128    1.2268   31.0898 C   0  0  0  0  0  0  0  0  0  0  0  0
   34.3016    1.6222   31.6589 C   0  0  0  0  0  0  0  0  0  0  0  0
   29.1254    4.4968   30.7950 O   0  0  0  0  0  0  0  0  0  0  0  0
   29.5393    5.4631   29.8387 C   0  0  0  0  0  0  0  0  0  0  0  0
   22.7321    4.9914   30.3717 C   0  0  0  0  0  0  0  0  0  0  0  0
   22.4581    6.3023   30.0470 N   0  0  0  0  0  0  0  0  0  0  0  0
   23.4993    7.2140   30.4294 C   0  0  0  0  0  0  0  0  0  0  0  0
   21.9935    4.0563   30.1407 O   0  0  0  0  0  0  0  0  0  0  0  0
   29.5614    5.8923   34.3068 C   0  0  0  0  0  0  0  0  0  0  0  0
   29.3021   10.5113   32.3723 H   0  0  0  0  0  0  0  0  0  0  0  0
   29.7623    8.1838   32.9378 H   0  0  0  0  0  0  0  0  0  0  0  0
   25.3689    9.4965   31.0156 H   0  0  0  0  0  0  0  0  0  0  0  0
   27.1206   11.1866   31.4332 H   0  0  0  0  0  0  0  0  0  0  0  0
   26.7560    0.1843   33.0818 H   0  0  0  0  0  0  0  0  0  0  0  0
   24.9242   -1.3590   32.4590 H   0  0  0  0  0  0  0  0  0  0  0  0
   22.8880   -0.5081   31.3459 H   0  0  0  0  0  0  0  0  0  0  0  0
   22.6490    1.8847   30.8239 H   0  0  0  0  0  0  0  0  0  0  0  0
   28.6904    2.0771   31.4987 H   0  0  0  0  0  0  0  0  0  0  0  0
   29.2795    1.3713   32.9799 H   0  0  0  0  0  0  0  0  0  0  0  0
   30.5994    5.3545   31.9765 H   0  0  0  0  0  0  0  0  0  0  0  0
   30.5388    3.3340   33.5863 H   0  0  0  0  0  0  0  0  0  0  0  0
   27.5938    2.2503   34.1155 H   0  0  0  0  0  0  0  0  0  0  0  0
   32.1465    1.6489   30.1572 H   0  0  0  0  0  0  0  0  0  0  0  0
   30.4566    1.3587   30.5537 H   0  0  0  0  0  0  0  0  0  0  0  0
   30.9650    2.8985   29.7815 H   0  0  0  0  0  0  0  0  0  0  0  0
   34.3648    4.9268   30.8068 H   0  0  0  0  0  0  0  0  0  0  0  0
   36.5100    4.2094   29.7819 H   0  0  0  0  0  0  0  0  0  0  0  0
   37.2446    1.8470   29.9685 H   0  0  0  0  0  0  0  0  0  0  0  0
   35.8473    0.1968   31.1836 H   0  0  0  0  0  0  0  0  0  0  0  0
   33.6970    0.9025   32.2057 H   0  0  0  0  0  0  0  0  0  0  0  0
   28.9710    5.2973   28.9215 H   0  0  0  0  0  0  0  0  0  0  0  0
   30.6021    5.3428   29.6142 H   0  0  0  0  0  0  0  0  0  0  0  0
   29.3477    6.4783   30.1877 H   0  0  0  0  0  0  0  0  0  0  0  0
   21.5902    6.5523   29.5927 H   0  0  0  0  0  0  0  0  0  0  0  0
   23.0940    7.9408   31.1387 H   0  0  0  0  0  0  0  0  0  0  0  0
   23.8843    7.7098   29.5336 H   0  0  0  0  0  0  0  0  0  0  0  0
   30.3618    6.5387   33.9382 H   0  0  0  0  0  0  0  0  0  0  0  0
   30.0423    5.1462   34.9529 H   0  0  0  0  0  0  0  0  0  0  0  0
   28.9039    6.4796   34.9621 H   0  0  0  0  0  0  0  0  0  0  0  0
  6  1  2  0
  2  3  2  0
  4  5  2  0
  1  8  1  0
  2  1  1  0
  7  2  1  0
  7  9  1  0
 10  3  1  0
  4  3  1  0
 12  4  1  0
 10 11  1  0
 14  9  1  0
  9  8  2  0
  8 15  1  0
 13 14  2  0
 16 13  1  0
 15 16  2  0
 11 17  1  0
 12 11  2  0
 20 12  1  0
 17 18  2  0
 18 19  1  0
 19 20  2  0
 10 25  1  0
 25 21  1  0
  7 26  1  0
 26 21  1  0
 25 22  1  0
 26 23  1  0
 22 24  1  0
 23 24  1  0
 24 27  1  0
 27 28  1  0
 27 29  1  0
 28 30  2  0
 28 31  1  0
 32 31  2  0
 36 31  1  0
 32 33  1  0
 33 34  2  0
 34 35  1  0
 35 36  2  0
 23 37  1  0
 37 38  1  0
  5 39  1  0
  6  5  1  0
  6 41  1  0
 39 40  1  0
 40 41  1  0
 39 42  2  0
 26 43  1  6
 13 44  1  0
 14 45  1  0
 15 46  1  0
 16 47  1  0
 17 48  1  0
 18 49  1  0
 19 50  1  0
 20 51  1  0
 22 52  1  0
 22 53  1  0
 23 54  1  1
 24 55  1  6
 25 56  1  6
 29 57  1  0
 29 58  1  0
 29 59  1  0
 32 60  1  0
 33 61  1  0
 34 62  1  0
 35 63  1  0
 36 64  1  0
 38 65  1  0
 38 66  1  0
 38 67  1  0
 40 68  1  0
 41 69  1  0
 41 70  1  0
 43 71  1  0
 43 72  1  0
 43 73  1  0
M  END
> <Uni-Dock RESULT> 
ENERGY=   -4.405  LOWER_BOUND=    4.056  UPPER_BOUND=    6.595
INTER + INTRA:          -4.405
INTER:                  -4.405
INTRA:                   0.000
UNBOUND:                 0.000

$$$$

     RDKit          3D

 73 81  0  0  0  0  0  0  0  0999 V2000
   23.6763    9.8665   30.5509 C   0  0  0  0  0  0  0  0  0  0  0  0
   24.9834    9.4848   30.7670 C   0  0  0  0  0  0  0  0  0  0  0  0
   25.3446    7.9801   30.9698 C   0  0  0  0  0  0  0  0  0  0  0  0
   24.3684    6.9972   30.9340 C   0  0  0  0  0  0  0  0  0  0  0  0
   23.0664    7.4698   30.7087 C   0  0  0  0  0  0  0  0  0  0  0  0
   22.7148    8.8430   30.5293 C   0  0  0  0  0  0  0  0  0  0  0  0
   25.8097   10.5823   30.7400 N   0  0  0  0  0  0  0  0  0  0  0  0
   23.6926   11.2772   30.3800 C   0  0  0  0  0  0  0  0  0  0  0  0
   25.0331   11.7049   30.4492 C   0  0  0  0  0  0  0  0  0  0  0  0
   26.5602    7.4166   31.2071 N   0  0  0  0  0  0  0  0  0  0  0  0
   26.4087    6.0432   31.3258 C   0  0  0  0  0  0  0  0  0  0  0  0
   25.0428    5.7583   31.1616 C   0  0  0  0  0  0  0  0  0  0  0  0
   24.3279   13.9759   29.9773 C   0  0  0  0  0  0  0  0  0  0  0  0
   25.3554   13.0571   30.2202 C   0  0  0  0  0  0  0  0  0  0  0  0
   22.6766   12.2288   30.1340 C   0  0  0  0  0  0  0  0  0  0  0  0
   23.0021   13.5719   29.9447 C   0  0  0  0  0  0  0  0  0  0  0  0
   27.3554    5.0332   31.5788 C   0  0  0  0  0  0  0  0  0  0  0  0
   26.9102    3.7125   31.6717 C   0  0  0  0  0  0  0  0  0  0  0  0
   25.5648    3.4036   31.5165 C   0  0  0  0  0  0  0  0  0  0  0  0
   24.6292    4.4113   31.2596 C   0  0  0  0  0  0  0  0  0  0  0  0
   27.5534    9.4593   31.8814 O   0  0  0  0  0  0  0  0  0  0  0  0
   28.8280    8.0369   30.2788 C   0  0  0  0  0  0  0  0  0  0  0  0
   28.0109   10.2747   29.5301 C   0  0  2  0  0  0  0  0  0  0  0  0
   29.2721    9.4253   29.8130 C   0  0  2  0  0  0  0  0  0  0  0  0
   27.8105    8.1356   31.4214 C   0  0  2  0  0  0  0  0  0  0  0  0
   27.2720   10.4892   30.8980 C   0  0  1  0  0  0  0  0  0  0  0  0
   30.2618    9.4300   28.7042 N   0  0  0  0  0  0  0  0  0  0  0  0
   30.9633   10.6353   28.5384 C   0  0  0  0  0  0  0  0  0  0  0  0
   30.0662    8.5143   27.5774 C   0  0  0  0  0  0  0  0  0  0  0  0
   30.7675   11.6217   29.2452 O   0  0  0  0  0  0  0  0  0  0  0  0
   32.0014   10.7411   27.4912 C   0  0  0  0  0  0  0  0  0  0  0  0
   31.9150   11.7731   26.5521 C   0  0  0  0  0  0  0  0  0  0  0  0
   32.9033   11.9020   25.5759 C   0  0  0  0  0  0  0  0  0  0  0  0
   33.9818   11.0156   25.5528 C   0  0  0  0  0  0  0  0  0  0  0  0
   34.0802   10.0017   26.5073 C   0  0  0  0  0  0  0  0  0  0  0  0
   33.0928    9.8652   27.4839 C   0  0  0  0  0  0  0  0  0  0  0  0
   27.2202    9.5273   28.5796 O   0  0  0  0  0  0  0  0  0  0  0  0
   26.7263   10.3252   27.5124 C   0  0  0  0  0  0  0  0  0  0  0  0
   21.8227    6.6908   30.6092 C   0  0  0  0  0  0  0  0  0  0  0  0
   20.7974    7.5821   30.3786 N   0  0  0  0  0  0  0  0  0  0  0  0
   21.2339    8.9483   30.3114 C   0  0  0  0  0  0  0  0  0  0  0  0
   21.6819    5.4887   30.7017 O   0  0  0  0  0  0  0  0  0  0  0  0
   27.8801   11.7125   31.6225 C   0  0  0  0  0  0  0  0  0  0  0  0
   24.5773   15.0221   29.8104 H   0  0  0  0  0  0  0  0  0  0  0  0
   26.3738   13.4240   30.2197 H   0  0  0  0  0  0  0  0  0  0  0  0
   21.6366   11.9204   30.0808 H   0  0  0  0  0  0  0  0  0  0  0  0
   22.2171   14.2987   29.7550 H   0  0  0  0  0  0  0  0  0  0  0  0
   28.4090    5.2577   31.7100 H   0  0  0  0  0  0  0  0  0  0  0  0
   27.6233    2.9165   31.8727 H   0  0  0  0  0  0  0  0  0  0  0  0
   25.2281    2.3726   31.5965 H   0  0  0  0  0  0  0  0  0  0  0  0
   23.5825    4.1447   31.1415 H   0  0  0  0  0  0  0  0  0  0  0  0
   28.4091    7.4414   29.4600 H   0  0  0  0  0  0  0  0  0  0  0  0
   29.7068    7.4764   30.6235 H   0  0  0  0  0  0  0  0  0  0  0  0
   28.2694   11.2434   29.0877 H   0  0  0  0  0  0  0  0  0  0  0  0
   29.8121    9.8835   30.6524 H   0  0  0  0  0  0  0  0  0  0  0  0
   28.2596    7.6406   32.2916 H   0  0  0  0  0  0  0  0  0  0  0  0
   30.9329    8.4826   26.9156 H   0  0  0  0  0  0  0  0  0  0  0  0
   29.8905    7.4950   27.9332 H   0  0  0  0  0  0  0  0  0  0  0  0
   29.2156    8.8629   26.9849 H   0  0  0  0  0  0  0  0  0  0  0  0
   31.0874   12.4768   26.5844 H   0  0  0  0  0  0  0  0  0  0  0  0
   32.8402   12.7002   24.8394 H   0  0  0  0  0  0  0  0  0  0  0  0
   34.7540   11.1221   24.7950 H   0  0  0  0  0  0  0  0  0  0  0  0
   34.9295    9.3235   26.4940 H   0  0  0  0  0  0  0  0  0  0  0  0
   33.1782    9.0871   28.2386 H   0  0  0  0  0  0  0  0  0  0  0  0
   26.0908    9.6969   26.8854 H   0  0  0  0  0  0  0  0  0  0  0  0
   27.5539   10.6977   26.9035 H   0  0  0  0  0  0  0  0  0  0  0  0
   26.1324   11.1622   27.8810 H   0  0  0  0  0  0  0  0  0  0  0  0
   19.8438    7.2604   30.2824 H   0  0  0  0  0  0  0  0  0  0  0  0
   20.7399    9.5197   31.1020 H   0  0  0  0  0  0  0  0  0  0  0  0
   20.9913    9.3508   29.3236 H   0  0  0  0  0  0  0  0  0  0  0  0
   28.0421   12.5664   30.9599 H   0  0  0  0  0  0  0  0  0  0  0  0
   28.8590   11.4704   32.0565 H   0  0  0  0  0  0  0  0  0  0  0  0
   27.2479   12.0301   32.4629 H   0  0  0  0  0  0  0  0  0  0  0  0
  6  1  2  0
  2  3  2  0
  4  5  2  0
  1  8  1  0
  2  1  1  0
  7  2  1  0
  7  9  1  0
 10  3  1  0
  4  3  1  0
 12  4  1  0
 10 11  1  0
 14  9  1  0
  9  8  2  0
  8 15  1  0
 13 14  2  0
 16 13  1  0
 15 16  2  0
 11 17  1  0
 12 11  2  0
 20 12  1  0
 17 18  2  0
 18 19  1  0
 19 20  2  0
 10 25  1  0
 25 21  1  0
  7 26  1  0
 26 21  1  0
 25 22  1  0
 26 23  1  0
 22 24  1  0
 23 24  1  0
 24 27  1  0
 27 28  1  0
 27 29  1  0
 28 30  2  0
 28 31  1  0
 32 31  2  0
 36 31  1  0
 32 33  1  0
 33 34  2  0
 34 35  1  0
 35 36  2  0
 23 37  1  0
 37 38  1  0
  5 39  1  0
  6  5  1  0
  6 41  1  0
 39 40  1  0
 40 41  1  0
 39 42  2  0
 26 43  1  6
 13 44  1  0
 14 45  1  0
 15 46  1  0
 16 47  1  0
 17 48  1  0
 18 49  1  0
 19 50  1  0
 20 51  1  0
 22 52  1  0
 22 53  1  0
 23 54  1  1
 24 55  1  6
 25 56  1  6
 29 57  1  0
 29 58  1  0
 29 59  1  0
 32 60  1  0
 33 61  1  0
 34 62  1  0
 35 63  1  0
 36 64  1  0
 38 65  1  0
 38 66  1  0
 38 67  1  0
 40 68  1  0
 41 69  1  0
 41 70  1  0
 43 71  1  0
 43 72  1  0
 43 73  1  0
M  END
> <Uni-Dock RESULT> 
ENERGY=   -4.355  LOWER_BOUND=    2.745  UPPER_BOUND=    7.815
INTER + INTRA:          -4.355
INTER:                  -4.355
INTRA:                   0.000
UNBOUND:                 0.000

$$$$

     RDKit          3D

 73 81  0  0  0  0  0  0  0  0999 V2000
   25.4243   13.3382   20.7547 C   0  0  0  0  0  0  0  0  0  0  0  0
   26.5328   12.8742   21.4306 C   0  0  0  0  0  0  0  0  0  0  0  0
   27.5500   11.9248   20.7237 C   0  0  0  0  0  0  0  0  0  0  0  0
   27.3679   11.5307   19.4077 C   0  0  0  0  0  0  0  0  0  0  0  0
   26.2170   12.0477   18.7933 C   0  0  0  0  0  0  0  0  0  0  0  0
   25.2700   12.9105   19.4258 C   0  0  0  0  0  0  0  0  0  0  0  0
   26.5632   13.3897   22.7039 N   0  0  0  0  0  0  0  0  0  0  0  0
   24.7297   14.1880   21.6574 C   0  0  0  0  0  0  0  0  0  0  0  0
   25.4759   14.2523   22.8506 C   0  0  0  0  0  0  0  0  0  0  0  0
   28.6812   11.3580   21.2243 N   0  0  0  0  0  0  0  0  0  0  0  0
   29.2735   10.5809   20.2400 C   0  0  0  0  0  0  0  0  0  0  0  0
   28.4657   10.6716   19.0942 C   0  0  0  0  0  0  0  0  0  0  0  0
   23.8824   15.8390   23.7561 C   0  0  0  0  0  0  0  0  0  0  0  0
   25.0645   15.1027   23.8956 C   0  0  0  0  0  0  0  0  0  0  0  0
   23.5394   14.9425   21.5465 C   0  0  0  0  0  0  0  0  0  0  0  0
   23.1206   15.7540   22.6009 C   0  0  0  0  0  0  0  0  0  0  0  0
   30.4410    9.7958   20.2684 C   0  0  0  0  0  0  0  0  0  0  0  0
   30.7938    9.0868   19.1177 C   0  0  0  0  0  0  0  0  0  0  0  0
   30.0110    9.1564   17.9723 C   0  0  0  0  0  0  0  0  0  0  0  0
   28.8545    9.9430   17.9484 C   0  0  0  0  0  0  0  0  0  0  0  0
   28.0593   11.7274   23.4804 O   0  0  0  0  0  0  0  0  0  0  0  0
   30.3896   12.3188   22.8204 C   0  0  0  0  0  0  0  0  0  0  0  0
   28.8334   14.1357   23.5365 C   0  0  2  0  0  0  0  0  0  0  0  0
   30.1381   13.3840   23.8899 C   0  0  2  0  0  0  0  0  0  0  0  0
   29.1466   11.4480   22.6031 C   0  0  2  0  0  0  0  0  0  0  0  0
   27.6522   13.1094   23.6566 C   0  0  1  0  0  0  0  0  0  0  0  0
   31.2912   14.2789   24.1698 N   0  0  0  0  0  0  0  0  0  0  0  0
   31.2210   14.9763   25.3868 C   0  0  0  0  0  0  0  0  0  0  0  0
   32.0646   14.8094   23.0443 C   0  0  0  0  0  0  0  0  0  0  0  0
   30.2719   14.8701   26.1606 O   0  0  0  0  0  0  0  0  0  0  0  0
   32.3322   15.8652   25.7873 C   0  0  0  0  0  0  0  0  0  0  0  0
   32.0538   17.1971   26.1081 C   0  0  0  0  0  0  0  0  0  0  0  0
   33.0886   18.0395   26.5156 C   0  0  0  0  0  0  0  0  0  0  0  0
   34.3904   17.5459   26.6206 C   0  0  0  0  0  0  0  0  0  0  0  0
   34.6622   16.2089   26.3250 C   0  0  0  0  0  0  0  0  0  0  0  0
   33.6321   15.3624   25.9132 C   0  0  0  0  0  0  0  0  0  0  0  0
   29.0028   14.6373   22.1922 O   0  0  0  0  0  0  0  0  0  0  0  0
   28.5942   15.9904   22.0442 C   0  0  0  0  0  0  0  0  0  0  0  0
   25.7465   11.8280   17.4170 C   0  0  0  0  0  0  0  0  0  0  0  0
   24.5764   12.5398   17.2647 N   0  0  0  0  0  0  0  0  0  0  0  0
   24.1828   13.2499   18.4489 C   0  0  0  0  0  0  0  0  0  0  0  0
   26.2630   11.1582   16.5464 O   0  0  0  0  0  0  0  0  0  0  0  0
   27.1701   13.0526   25.1248 C   0  0  0  0  0  0  0  0  0  0  0  0
   23.5602   16.4882   24.5681 H   0  0  0  0  0  0  0  0  0  0  0  0
   25.6282   15.2184   24.8124 H   0  0  0  0  0  0  0  0  0  0  0  0
   22.9475   14.9040   20.6368 H   0  0  0  0  0  0  0  0  0  0  0  0
   22.2054   16.3325   22.5098 H   0  0  0  0  0  0  0  0  0  0  0  0
   31.0599    9.7243   21.1569 H   0  0  0  0  0  0  0  0  0  0  0  0
   31.6886    8.4688   19.1188 H   0  0  0  0  0  0  0  0  0  0  0  0
   30.2918    8.5957   17.0837 H   0  0  0  0  0  0  0  0  0  0  0  0
   28.2590    9.9818   17.0404 H   0  0  0  0  0  0  0  0  0  0  0  0
   30.7058   12.7575   21.8674 H   0  0  0  0  0  0  0  0  0  0  0  0
   31.2266   11.6830   23.1375 H   0  0  0  0  0  0  0  0  0  0  0  0
   28.6632   14.9838   24.2093 H   0  0  0  0  0  0  0  0  0  0  0  0
   29.9801   12.8509   24.8370 H   0  0  0  0  0  0  0  0  0  0  0  0
   29.4295   10.4193   22.8591 H   0  0  0  0  0  0  0  0  0  0  0  0
   32.9788   15.3079   23.3696 H   0  0  0  0  0  0  0  0  0  0  0  0
   32.3569   14.0055   22.3626 H   0  0  0  0  0  0  0  0  0  0  0  0
   31.4569   15.5518   22.5193 H   0  0  0  0  0  0  0  0  0  0  0  0
   31.0365   17.5749   26.0484 H   0  0  0  0  0  0  0  0  0  0  0  0
   32.8797   19.0781   26.7627 H   0  0  0  0  0  0  0  0  0  0  0  0
   35.1940   18.2025   26.9444 H   0  0  0  0  0  0  0  0  0  0  0  0
   35.6748   15.8258   26.4227 H   0  0  0  0  0  0  0  0  0  0  0  0
   33.8399   14.3165   25.7004 H   0  0  0  0  0  0  0  0  0  0  0  0
   28.6943   16.2614   20.9914 H   0  0  0  0  0  0  0  0  0  0  0  0
   29.2385   16.6473   22.6338 H   0  0  0  0  0  0  0  0  0  0  0  0
   27.5541   16.1285   22.3413 H   0  0  0  0  0  0  0  0  0  0  0  0
   24.0727   12.5260   16.3882 H   0  0  0  0  0  0  0  0  0  0  0  0
   23.2054   12.8842   18.7755 H   0  0  0  0  0  0  0  0  0  0  0  0
   24.1491   14.3204   18.2267 H   0  0  0  0  0  0  0  0  0  0  0  0
   27.0723   14.0402   25.5825 H   0  0  0  0  0  0  0  0  0  0  0  0
   27.8750   12.4917   25.7524 H   0  0  0  0  0  0  0  0  0  0  0  0
   26.2093   12.5265   25.2064 H   0  0  0  0  0  0  0  0  0  0  0  0
  6  1  2  0
  2  3  2  0
  4  5  2  0
  1  8  1  0
  2  1  1  0
  7  2  1  0
  7  9  1  0
 10  3  1  0
  4  3  1  0
 12  4  1  0
 10 11  1  0
 14  9  1  0
  9  8  2  0
  8 15  1  0
 13 14  2  0
 16 13  1  0
 15 16  2  0
 11 17  1  0
 12 11  2  0
 20 12  1  0
 17 18  2  0
 18 19  1  0
 19 20  2  0
 10 25  1  0
 25 21  1  0
  7 26  1  0
 26 21  1  0
 25 22  1  0
 26 23  1  0
 22 24  1  0
 23 24  1  0
 24 27  1  0
 27 28  1  0
 27 29  1  0
 28 30  2  0
 28 31  1  0
 32 31  2  0
 36 31  1  0
 32 33  1  0
 33 34  2  0
 34 35  1  0
 35 36  2  0
 23 37  1  0
 37 38  1  0
  5 39  1  0
  6  5  1  0
  6 41  1  0
 39 40  1  0
 40 41  1  0
 39 42  2  0
 26 43  1  6
 13 44  1  0
 14 45  1  0
 15 46  1  0
 16 47  1  0
 17 48  1  0
 18 49  1  0
 19 50  1  0
 20 51  1  0
 22 52  1  0
 22 53  1  0
 23 54  1  1
 24 55  1  6
 25 56  1  6
 29 57  1  0
 29 58  1  0
 29 59  1  0
 32 60  1  0
 33 61  1  0
 34 62  1  0
 35 63  1  0
 36 64  1  0
 38 65  1  0
 38 66  1  0
 38 67  1  0
 40 68  1  0
 41 69  1  0
 41 70  1  0
 43 71  1  0
 43 72  1  0
 43 73  1  0
M  END
> <Uni-Dock RESULT> 
ENERGY=   -4.234  LOWER_BOUND=    8.614  UPPER_BOUND=   11.883
INTER + INTRA:          -4.234
INTER:                  -4.234
INTRA:                   0.000
UNBOUND:                 0.000

$$$$

     RDKit          3D

 73 81  0  0  0  0  0  0  0  0999 V2000
   22.8901    8.6381   30.6047 C   0  0  0  0  0  0  0  0  0  0  0  0
   24.2476    8.6902   30.8401 C   0  0  0  0  0  0  0  0  0  0  0  0
   25.0659    7.3770   31.0440 C   0  0  0  0  0  0  0  0  0  0  0  0
   24.4538    6.1350   30.9898 C   0  0  0  0  0  0  0  0  0  0  0  0
   23.0724    6.1707   30.7454 C   0  0  0  0  0  0  0  0  0  0  0  0
   22.3047    7.3621   30.5648 C   0  0  0  0  0  0  0  0  0  0  0  0
   24.6820    9.9937   30.8296 N   0  0  0  0  0  0  0  0  0  0  0  0
   22.4591    9.9820   30.4384 C   0  0  0  0  0  0  0  0  0  0  0  0
   23.5927   10.8133   30.5301 C   0  0  0  0  0  0  0  0  0  0  0  0
   26.3942    7.2277   31.2987 N   0  0  0  0  0  0  0  0  0  0  0  0
   26.6859    5.8764   31.4107 C   0  0  0  0  0  0  0  0  0  0  0  0
   25.4841    5.1732   31.2241 C   0  0  0  0  0  0  0  0  0  0  0  0
   22.2083   12.7457   30.0542 C   0  0  0  0  0  0  0  0  0  0  0  0
   23.4713   12.1995   30.3104 C   0  0  0  0  0  0  0  0  0  0  0  0
   21.1966   10.5628   30.1794 C   0  0  0  0  0  0  0  0  0  0  0  0
   21.0805   11.9412   29.9994 C   0  0  0  0  0  0  0  0  0  0  0  0
   27.9011    5.2181   31.6755 C   0  0  0  0  0  0  0  0  0  0  0  0
   27.8980    3.8237   31.7573 C   0  0  0  0  0  0  0  0  0  0  0  0
   26.7232    3.1041   31.5800 C   0  0  0  0  0  0  0  0  0  0  0  0
   25.5192    3.7639   31.3115 C   0  0  0  0  0  0  0  0  0  0  0  0
   26.6763    9.4747   31.9949 O   0  0  0  0  0  0  0  0  0  0  0  0
   28.3595    8.5445   30.4082 C   0  0  0  0  0  0  0  0  0  0  0  0
   26.8833   10.4120   29.6537 C   0  0  2  0  0  0  0  0  0  0  0  0
   28.3452   10.0057   29.9537 C   0  0  2  0  0  0  0  0  0  0  0  0
   27.3476    8.3052   31.5349 C   0  0  2  0  0  0  0  0  0  0  0  0
   26.0956   10.3694   31.0104 C   0  0  1  0  0  0  0  0  0  0  0  0
   29.2974   10.3338   28.8607 N   0  0  0  0  0  0  0  0  0  0  0  0
   29.5812   11.7009   28.7097 C   0  0  0  0  0  0  0  0  0  0  0  0
   29.4190    9.4124   27.7282 C   0  0  0  0  0  0  0  0  0  0  0  0
   29.0718   12.5681   29.4164 O   0  0  0  0  0  0  0  0  0  0  0  0
   30.5461   12.1397   27.6794 C   0  0  0  0  0  0  0  0  0  0  0  0
   30.1490   13.0980   26.7422 C   0  0  0  0  0  0  0  0  0  0  0  0
   31.0584   13.5424   25.7821 C   0  0  0  0  0  0  0  0  0  0  0  0
   32.3631   13.0453   25.7732 C   0  0  0  0  0  0  0  0  0  0  0  0
   32.7656   12.1078   26.7260 C   0  0  0  0  0  0  0  0  0  0  0  0
   31.8595   11.6566   27.6865 C   0  0  0  0  0  0  0  0  0  0  0  0
   26.3850    9.4594   28.6885 O   0  0  0  0  0  0  0  0  0  0  0  0
   25.6778   10.0673   27.6161 C   0  0  0  0  0  0  0  0  0  0  0  0
   22.1426    5.0373   30.6240 C   0  0  0  0  0  0  0  0  0  0  0  0
   20.8904    5.5580   30.3800 N   0  0  0  0  0  0  0  0  0  0  0  0
   20.8704    6.9926   30.3239 C   0  0  0  0  0  0  0  0  0  0  0  0
   22.3904    3.8522   30.7105 O   0  0  0  0  0  0  0  0  0  0  0  0
   26.2727   11.7168   31.7482 C   0  0  0  0  0  0  0  0  0  0  0  0
   22.1141   13.8181   29.8945 H   0  0  0  0  0  0  0  0  0  0  0  0
   24.3198   12.8713   30.3271 H   0  0  0  0  0  0  0  0  0  0  0  0
   20.3097    9.9401   30.1088 H   0  0  0  0  0  0  0  0  0  0  0  0
   20.1078   12.3821   29.7996 H   0  0  0  0  0  0  0  0  0  0  0  0
   28.8266    5.7651   31.8239 H   0  0  0  0  0  0  0  0  0  0  0  0
   28.8245    3.2943   31.9670 H   0  0  0  0  0  0  0  0  0  0  0  0
   26.7309    2.0190   31.6514 H   0  0  0  0  0  0  0  0  0  0  0  0
   24.6135    3.1791   31.1760 H   0  0  0  0  0  0  0  0  0  0  0  0
   28.1633    7.8531   29.5810 H   0  0  0  0  0  0  0  0  0  0  0  0
   29.3661    8.2899   30.7650 H   0  0  0  0  0  0  0  0  0  0  0  0
   26.8264   11.4160   29.2184 H   0  0  0  0  0  0  0  0  0  0  0  0
   28.6996   10.6051   30.8030 H   0  0  0  0  0  0  0  0  0  0  0  0
   27.9187    7.9719   32.4105 H   0  0  0  0  0  0  0  0  0  0  0  0
   30.2600    9.6632   27.0800 H   0  0  0  0  0  0  0  0  0  0  0  0
   29.5718    8.3874   28.0779 H   0  0  0  0  0  0  0  0  0  0  0  0
   28.5101    9.4770   27.1234 H   0  0  0  0  0  0  0  0  0  0  0  0
   29.1402   13.5016   26.7637 H   0  0  0  0  0  0  0  0  0  0  0  0
   30.7549   14.2849   25.0472 H   0  0  0  0  0  0  0  0  0  0  0  0
   33.0718   13.3979   25.0280 H   0  0  0  0  0  0  0  0  0  0  0  0
   33.7868   11.7351   26.7240 H   0  0  0  0  0  0  0  0  0  0  0  0
   32.1775   10.9401   28.4400 H   0  0  0  0  0  0  0  0  0  0  0  0
   25.2840    9.2745   26.9772 H   0  0  0  0  0  0  0  0  0  0  0  0
   26.3522   10.6885   27.0215 H   0  0  0  0  0  0  0  0  0  0  0  0
   24.8433   10.6689   27.9779 H   0  0  0  0  0  0  0  0  0  0  0  0
   20.0901    4.9504   30.2678 H   0  0  0  0  0  0  0  0  0  0  0  0
   20.2093    7.3709   31.1084 H   0  0  0  0  0  0  0  0  0  0  0  0
   20.5262    7.3048   29.3337 H   0  0  0  0  0  0  0  0  0  0  0  0
   26.1638   12.5831   31.0908 H   0  0  0  0  0  0  0  0  0  0  0  0
   27.2716   11.7952   32.1967 H   0  0  0  0  0  0  0  0  0  0  0  0
   25.5607   11.8101   32.5795 H   0  0  0  0  0  0  0  0  0  0  0  0
  6  1  2  0
  2  3  2  0
  4  5  2  0
  1  8  1  0
  2  1  1  0
  7  2  1  0
  7  9  1  0
 10  3  1  0
  4  3  1  0
 12  4  1  0
 10 11  1  0
 14  9  1  0
  9  8  2  0
  8 15  1  0
 13 14  2  0
 16 13  1  0
 15 16  2  0
 11 17  1  0
 12 11  2  0
 20 12  1  0
 17 18  2  0
 18 19  1  0
 19 20  2  0
 10 25  1  0
 25 21  1  0
  7 26  1  0
 26 21  1  0
 25 22  1  0
 26 23  1  0
 22 24  1  0
 23 24  1  0
 24 27  1  0
 27 28  1  0
 27 29  1  0
 28 30  2  0
 28 31  1  0
 32 31  2  0
 36 31  1  0
 32 33  1  0
 33 34  2  0
 34 35  1  0
 35 36  2  0
 23 37  1  0
 37 38  1  0
  5 39  1  0
  6  5  1  0
  6 41  1  0
 39 40  1  0
 40 41  1  0
 39 42  2  0
 26 43  1  6
 13 44  1  0
 14 45  1  0
 15 46  1  0
 16 47  1  0
 17 48  1  0
 18 49  1  0
 19 50  1  0
 20 51  1  0
 22 52  1  0
 22 53  1  0
 23 54  1  1
 24 55  1  6
 25 56  1  6
 29 57  1  0
 29 58  1  0
 29 59  1  0
 32 60  1  0
 33 61  1  0
 34 62  1  0
 35 63  1  0
 36 64  1  0
 38 65  1  0
 38 66  1  0
 38 67  1  0
 40 68  1  0
 41 69  1  0
 41 70  1  0
 43 71  1  0
 43 72  1  0
 43 73  1  0
M  END
> <Uni-Dock RESULT> 
ENERGY=   -4.230  LOWER_BOUND=    2.872  UPPER_BOUND=    8.679
INTER + INTRA:          -4.230
INTER:                  -4.230
INTRA:                   0.000
UNBOUND:                 0.000

$$$$

     RDKit          3D

 73 81  0  0  0  0  0  0  0  0999 V2000
   29.5143   10.1236   27.7237 C   0  0  0  0  0  0  0  0  0  0  0  0
   30.8087   10.3529   27.3079 C   0  0  0  0  0  0  0  0  0  0  0  0
   31.0956   11.3008   26.1017 C   0  0  0  0  0  0  0  0  0  0  0  0
   30.0645   11.9342   25.4263 C   0  0  0  0  0  0  0  0  0  0  0  0
   28.7799   11.6478   25.9131 C   0  0  0  0  0  0  0  0  0  0  0  0
   28.4965   10.7767   27.0096 C   0  0  0  0  0  0  0  0  0  0  0  0
   31.6928    9.6703   28.1079 N   0  0  0  0  0  0  0  0  0  0  0  0
   29.6001    9.2519   28.8428 C   0  0  0  0  0  0  0  0  0  0  0  0
   30.9645    9.0175   29.1037 C   0  0  0  0  0  0  0  0  0  0  0  0
   32.2898   11.6353   25.5419 N   0  0  0  0  0  0  0  0  0  0  0  0
   32.0680   12.5059   24.4853 C   0  0  0  0  0  0  0  0  0  0  0  0
   30.6803   12.7045   24.3925 C   0  0  0  0  0  0  0  0  0  0  0  0
   30.3613    7.6898   31.0403 C   0  0  0  0  0  0  0  0  0  0  0  0
   31.3482    8.2544   30.2240 C   0  0  0  0  0  0  0  0  0  0  0  0
   28.6264    8.6675   29.6845 C   0  0  0  0  0  0  0  0  0  0  0  0
   29.0152    7.8830   30.7704 C   0  0  0  0  0  0  0  0  0  0  0  0
   32.9698   13.1206   23.5969 C   0  0  0  0  0  0  0  0  0  0  0  0
   32.4567   13.9469   22.5944 C   0  0  0  0  0  0  0  0  0  0  0  0
   31.0887   14.1577   22.4783 C   0  0  0  0  0  0  0  0  0  0  0  0
   30.1975   13.5484   23.3679 C   0  0  0  0  0  0  0  0  0  0  0  0
   33.4397    9.8073   26.5161 O   0  0  0  0  0  0  0  0  0  0  0  0
   34.5245   12.0482   26.6488 C   0  0  0  0  0  0  0  0  0  0  0  0
   33.7898   10.9292   28.7569 C   0  0  2  0  0  0  0  0  0  0  0  0
   35.0161   11.4369   27.9627 C   0  0  2  0  0  0  0  0  0  0  0  0
   33.5904   11.0858   25.9058 C   0  0  2  0  0  0  0  0  0  0  0  0
   33.1546    9.7506   27.9382 C   0  0  1  0  0  0  0  0  0  0  0  0
   35.9306   12.3003   28.7548 N   0  0  0  0  0  0  0  0  0  0  0  0
   36.6877   11.6288   29.7285 C   0  0  0  0  0  0  0  0  0  0  0  0
   35.6104   13.7223   28.9019 C   0  0  0  0  0  0  0  0  0  0  0  0
   36.5947   10.4191   29.9260 O   0  0  0  0  0  0  0  0  0  0  0  0
   37.6600   12.3817   30.5488 C   0  0  0  0  0  0  0  0  0  0  0  0
   37.5721   12.3092   31.9422 C   0  0  0  0  0  0  0  0  0  0  0  0
   38.5009   12.9915   32.7285 C   0  0  0  0  0  0  0  0  0  0  0  0
   39.5232   13.7251   32.1234 C   0  0  0  0  0  0  0  0  0  0  0  0
   39.6250   13.7751   30.7319 C   0  0  0  0  0  0  0  0  0  0  0  0
   38.6968   13.0979   29.9401 C   0  0  0  0  0  0  0  0  0  0  0  0
   32.8979   12.0573   28.8954 O   0  0  0  0  0  0  0  0  0  0  0  0
   32.3823   12.2047   30.2115 C   0  0  0  0  0  0  0  0  0  0  0  0
   27.4897   12.1592   25.4255 C   0  0  0  0  0  0  0  0  0  0  0  0
   26.5043   11.6055   26.2137 N   0  0  0  0  0  0  0  0  0  0  0  0
   27.0130   10.7284   27.2302 C   0  0  0  0  0  0  0  0  0  0  0  0
   27.2867   12.9285   24.5088 O   0  0  0  0  0  0  0  0  0  0  0  0
   33.8773    8.4309   28.2952 C   0  0  0  0  0  0  0  0  0  0  0  0
   30.6587    7.0922   31.8999 H   0  0  0  0  0  0  0  0  0  0  0  0
   32.3837    8.0841   30.4894 H   0  0  0  0  0  0  0  0  0  0  0  0
   27.5692    8.8324   29.4984 H   0  0  0  0  0  0  0  0  0  0  0  0
   28.2624    7.4370   31.4146 H   0  0  0  0  0  0  0  0  0  0  0  0
   34.0408   12.9609   23.6687 H   0  0  0  0  0  0  0  0  0  0  0  0
   33.1347   14.4274   21.8928 H   0  0  0  0  0  0  0  0  0  0  0  0
   30.6995   14.7985   21.6904 H   0  0  0  0  0  0  0  0  0  0  0  0
   29.1319   13.7292   23.2571 H   0  0  0  0  0  0  0  0  0  0  0  0
   34.0200   13.0085   26.8037 H   0  0  0  0  0  0  0  0  0  0  0  0
   35.3903   12.2758   26.0133 H   0  0  0  0  0  0  0  0  0  0  0  0
   34.0741   10.5811   29.7563 H   0  0  0  0  0  0  0  0  0  0  0  0
   35.6347   10.5693   27.6967 H   0  0  0  0  0  0  0  0  0  0  0  0
   34.0659   10.8600   24.9431 H   0  0  0  0  0  0  0  0  0  0  0  0
   36.4291   14.2858   29.3517 H   0  0  0  0  0  0  0  0  0  0  0  0
   35.4000   14.1744   27.9284 H   0  0  0  0  0  0  0  0  0  0  0  0
   34.7445   13.8210   29.5627 H   0  0  0  0  0  0  0  0  0  0  0  0
   36.7900   11.7195   32.4129 H   0  0  0  0  0  0  0  0  0  0  0  0
   38.4359   12.9429   33.8133 H   0  0  0  0  0  0  0  0  0  0  0  0
   40.2495   14.2507   32.7382 H   0  0  0  0  0  0  0  0  0  0  0  0
   40.4315   14.3354   30.2660 H   0  0  0  0  0  0  0  0  0  0  0  0
   38.7863   13.1215   28.8567 H   0  0  0  0  0  0  0  0  0  0  0  0
   31.6726   13.0342   30.2065 H   0  0  0  0  0  0  0  0  0  0  0  0
   33.1886   12.4428   30.9097 H   0  0  0  0  0  0  0  0  0  0  0  0
   31.8623   11.3043   30.5402 H   0  0  0  0  0  0  0  0  0  0  0  0
   25.5296   11.8177   26.0489 H   0  0  0  0  0  0  0  0  0  0  0  0
   26.6047    9.7262   27.0733 H   0  0  0  0  0  0  0  0  0  0  0  0
   26.7304   11.1201   28.2116 H   0  0  0  0  0  0  0  0  0  0  0  0
   34.0446    8.3105   29.3684 H   0  0  0  0  0  0  0  0  0  0  0  0
   34.8669    8.3801   27.8225 H   0  0  0  0  0  0  0  0  0  0  0  0
   33.3201    7.5606   27.9227 H   0  0  0  0  0  0  0  0  0  0  0  0
  6  1  2  0
  2  3  2  0
  4  5  2  0
  1  8  1  0
  2  1  1  0
  7  2  1  0
  7  9  1  0
 10  3  1  0
  4  3  1  0
 12  4  1  0
 10 11  1  0
 14  9  1  0
  9  8  2  0
  8 15  1  0
 13 14  2  0
 16 13  1  0
 15 16  2  0
 11 17  1  0
 12 11  2  0
 20 12  1  0
 17 18  2  0
 18 19  1  0
 19 20  2  0
 10 25  1  0
 25 21  1  0
  7 26  1  0
 26 21  1  0
 25 22  1  0
 26 23  1  0
 22 24  1  0
 23 24  1  0
 24 27  1  0
 27 28  1  0
 27 29  1  0
 28 30  2  0
 28 31  1  0
 32 31  2  0
 36 31  1  0
 32 33  1  0
 33 34  2  0
 34 35  1  0
 35 36  2  0
 23 37  1  0
 37 38  1  0
  5 39  1  0
  6  5  1  0
  6 41  1  0
 39 40  1  0
 40 41  1  0
 39 42  2  0
 26 43  1  6
 13 44  1  0
 14 45  1  0
 15 46  1  0
 16 47  1  0
 17 48  1  0
 18 49  1  0
 19 50  1  0
 20 51  1  0
 22 52  1  0
 22 53  1  0
 23 54  1  1
 24 55  1  6
 25 56  1  6
 29 57  1  0
 29 58  1  0
 29 59  1  0
 32 60  1  0
 33 61  1  0
 34 62  1  0
 35 63  1  0
 36 64  1  0
 38 65  1  0
 38 66  1  0
 38 67  1  0
 40 68  1  0
 41 69  1  0
 41 70  1  0
 43 71  1  0
 43 72  1  0
 43 73  1  0
M  END
> <Uni-Dock RESULT> 
ENERGY=   -4.202  LOWER_BOUND=    3.971  UPPER_BOUND=    8.594
INTER + INTRA:          -4.202
INTER:                  -4.202
INTRA:                   0.000
UNBOUND:                 0.000

$$$$

     RDKit          3D

 73 81  0  0  0  0  0  0  0  0999 V2000
   27.1746   16.5404   26.5193 C   0  0  0  0  0  0  0  0  0  0  0  0
   27.6785   15.2736   26.3136 C   0  0  0  0  0  0  0  0  0  0  0  0
   26.8876   14.0193   26.8002 C   0  0  0  0  0  0  0  0  0  0  0  0
   25.6663   14.1464   27.4427 C   0  0  0  0  0  0  0  0  0  0  0  0
   25.2255   15.4680   27.6111 C   0  0  0  0  0  0  0  0  0  0  0  0
   25.9388   16.6287   27.1806 C   0  0  0  0  0  0  0  0  0  0  0  0
   28.8744   15.3414   25.6404 N   0  0  0  0  0  0  0  0  0  0  0  0
   28.1082   17.4429   25.9418 C   0  0  0  0  0  0  0  0  0  0  0  0
   29.1369   16.6817   25.3529 C   0  0  0  0  0  0  0  0  0  0  0  0
   27.2248   12.7046   26.7029 N   0  0  0  0  0  0  0  0  0  0  0  0
   26.2233   11.9354   27.2763 C   0  0  0  0  0  0  0  0  0  0  0  0
   25.2382   12.8182   27.7495 C   0  0  0  0  0  0  0  0  0  0  0  0
   30.1694   18.7174   24.5364 C   0  0  0  0  0  0  0  0  0  0  0  0
   30.1589   17.3205   24.6235 C   0  0  0  0  0  0  0  0  0  0  0  0
   28.1466   18.8522   25.8378 C   0  0  0  0  0  0  0  0  0  0  0  0
   29.1825   19.4780   25.1443 C   0  0  0  0  0  0  0  0  0  0  0  0
   26.1108   10.5412   27.4309 C   0  0  0  0  0  0  0  0  0  0  0  0
   24.9834   10.0329   28.0802 C   0  0  0  0  0  0  0  0  0  0  0  0
   23.9960   10.8837   28.5605 C   0  0  0  0  0  0  0  0  0  0  0  0
   24.1107   12.2685   28.3989 C   0  0  0  0  0  0  0  0  0  0  0  0
   29.5139   13.1575   26.2930 O   0  0  0  0  0  0  0  0  0  0  0  0
   28.3950   11.4800   24.8267 C   0  0  0  0  0  0  0  0  0  0  0  0
   29.2147   13.6144   23.8223 C   0  0  2  0  0  0  0  0  0  0  0  0
   29.3930   12.0780   23.8326 C   0  0  2  0  0  0  0  0  0  0  0  0
   28.4836   12.1789   26.1884 C   0  0  2  0  0  0  0  0  0  0  0  0
   29.6366   14.1461   25.2374 C   0  0  1  0  0  0  0  0  0  0  0  0
   29.3798   11.4616   22.4803 N   0  0  0  0  0  0  0  0  0  0  0  0
   30.5224   11.7101   21.7023 C   0  0  0  0  0  0  0  0  0  0  0  0
   28.0906   11.1695   21.8485 C   0  0  0  0  0  0  0  0  0  0  0  0
   31.4608   12.3977   22.0992 O   0  0  0  0  0  0  0  0  0  0  0  0
   30.6354   11.1133   20.3546 C   0  0  0  0  0  0  0  0  0  0  0  0
   30.8810   11.9489   19.2610 C   0  0  0  0  0  0  0  0  0  0  0  0
   31.0186   11.3960   17.9875 C   0  0  0  0  0  0  0  0  0  0  0  0
   30.9311   10.0135   17.8133 C   0  0  0  0  0  0  0  0  0  0  0  0
   30.7118    9.1783   18.9102 C   0  0  0  0  0  0  0  0  0  0  0  0
   30.5695    9.7256   20.1859 C   0  0  0  0  0  0  0  0  0  0  0  0
   27.8226   13.8616   23.5252 O   0  0  0  0  0  0  0  0  0  0  0  0
   27.6305   14.8759   22.5485 C   0  0  0  0  0  0  0  0  0  0  0  0
   23.9817   15.9365   28.2412 C   0  0  0  0  0  0  0  0  0  0  0  0
   23.9797   17.3127   28.1722 N   0  0  0  0  0  0  0  0  0  0  0  0
   25.1473   17.8534   27.5350 C   0  0  0  0  0  0  0  0  0  0  0  0
   23.0956   15.2709   28.7363 O   0  0  0  0  0  0  0  0  0  0  0  0
   31.1667   14.3677   25.2662 C   0  0  0  0  0  0  0  0  0  0  0  0
   30.9650   19.2105   23.9809 H   0  0  0  0  0  0  0  0  0  0  0  0
   30.9452   16.7753   24.1173 H   0  0  0  0  0  0  0  0  0  0  0  0
   27.3654   19.4576   26.2880 H   0  0  0  0  0  0  0  0  0  0  0  0
   29.2065   20.5615   25.0667 H   0  0  0  0  0  0  0  0  0  0  0  0
   26.8762    9.8627   27.0684 H   0  0  0  0  0  0  0  0  0  0  0  0
   24.8784    8.9591   28.2163 H   0  0  0  0  0  0  0  0  0  0  0  0
   23.1250   10.4777   29.0696 H   0  0  0  0  0  0  0  0  0  0  0  0
   23.3250   12.9135   28.7827 H   0  0  0  0  0  0  0  0  0  0  0  0
   27.3654   11.5234   24.4543 H   0  0  0  0  0  0  0  0  0  0  0  0
   28.6117   10.4112   24.9531 H   0  0  0  0  0  0  0  0  0  0  0  0
   29.8288   14.0852   23.0464 H   0  0  0  0  0  0  0  0  0  0  0  0
   30.3968   11.8526   24.2170 H   0  0  0  0  0  0  0  0  0  0  0  0
   28.7753   11.4151   26.9202 H   0  0  0  0  0  0  0  0  0  0  0  0
   28.2003   10.5690   20.9444 H   0  0  0  0  0  0  0  0  0  0  0  0
   27.4419   10.6140   22.5318 H   0  0  0  0  0  0  0  0  0  0  0  0
   27.6195   12.1130   21.5586 H   0  0  0  0  0  0  0  0  0  0  0  0
   30.9719   13.0229   19.4004 H   0  0  0  0  0  0  0  0  0  0  0  0
   31.2057   12.0407   17.1315 H   0  0  0  0  0  0  0  0  0  0  0  0
   31.0451    9.5845   16.8209 H   0  0  0  0  0  0  0  0  0  0  0  0
   30.6594    8.1015   18.7714 H   0  0  0  0  0  0  0  0  0  0  0  0
   30.4169    9.0744   21.0432 H   0  0  0  0  0  0  0  0  0  0  0  0
   26.5570   15.0403   22.4373 H   0  0  0  0  0  0  0  0  0  0  0  0
   28.0335   14.5549   21.5847 H   0  0  0  0  0  0  0  0  0  0  0  0
   28.0965   15.8145   22.8501 H   0  0  0  0  0  0  0  0  0  0  0  0
   23.2130   17.8490   28.5554 H   0  0  0  0  0  0  0  0  0  0  0  0
   25.6758   18.4954   28.2450 H   0  0  0  0  0  0  0  0  0  0  0  0
   24.8402   18.4153   26.6482 H   0  0  0  0  0  0  0  0  0  0  0  0
   31.5446   14.8666   24.3702 H   0  0  0  0  0  0  0  0  0  0  0  0
   31.7046   13.4132   25.3361 H   0  0  0  0  0  0  0  0  0  0  0  0
   31.4666   14.9482   26.1492 H   0  0  0  0  0  0  0  0  0  0  0  0
  6  1  2  0
  2  3  2  0
  4  5  2  0
  1  8  1  0
  2  1  1  0
  7  2  1  0
  7  9  1  0
 10  3  1  0
  4  3  1  0
 12  4  1  0
 10 11  1  0
 14  9  1  0
  9  8  2  0
  8 15  1  0
 13 14  2  0
 16 13  1  0
 15 16  2  0
 11 17  1  0
 12 11  2  0
 20 12  1  0
 17 18  2  0
 18 19  1  0
 19 20  2  0
 10 25  1  0
 25 21  1  0
  7 26  1  0
 26 21  1  0
 25 22  1  0
 26 23  1  0
 22 24  1  0
 23 24  1  0
 24 27  1  0
 27 28  1  0
 27 29  1  0
 28 30  2  0
 28 31  1  0
 32 31  2  0
 36 31  1  0
 32 33  1  0
 33 34  2  0
 34 35  1  0
 35 36  2  0
 23 37  1  0
 37 38  1  0
  5 39  1  0
  6  5  1  0
  6 41  1  0
 39 40  1  0
 40 41  1  0
 39 42  2  0
 26 43  1  6
 13 44  1  0
 14 45  1  0
 15 46  1  0
 16 47  1  0
 17 48  1  0
 18 49  1  0
 19 50  1  0
 20 51  1  0
 22 52  1  0
 22 53  1  0
 23 54  1  1
 24 55  1  6
 25 56  1  6
 29 57  1  0
 29 58  1  0
 29 59  1  0
 32 60  1  0
 33 61  1  0
 34 62  1  0
 35 63  1  0
 36 64  1  0
 38 65  1  0
 38 66  1  0
 38 67  1  0
 40 68  1  0
 41 69  1  0
 41 70  1  0
 43 71  1  0
 43 72  1  0
 43 73  1  0
M  END
> <Uni-Dock RESULT> 
ENERGY=   -4.157  LOWER_BOUND=    6.502  UPPER_BOUND=    9.652
INTER + INTRA:          -4.157
INTER:                  -4.157
INTRA:                   0.000
UNBOUND:                 0.000

$$$$
