
     RDKit          3D

 73 81  0  0  0  0  0  0  0  0999 V2000
   30.2057    9.7431   28.0613 C   0  0  0  0  0  0  0  0  0  0  0  0
   29.5149    9.2032   29.1268 C   0  0  0  0  0  0  0  0  0  0  0  0
   27.9799    9.4254   29.2648 C   0  0  0  0  0  0  0  0  0  0  0  0
   27.2713   10.1694   28.3365 C   0  0  0  0  0  0  0  0  0  0  0  0
   28.0533   10.7168   27.3077 C   0  0  0  0  0  0  0  0  0  0  0  0
   29.4635   10.5247   27.1595 C   0  0  0  0  0  0  0  0  0  0  0  0
   30.3679    8.4953   29.9331 N   0  0  0  0  0  0  0  0  0  0  0  0
   31.5455    9.2801   28.1757 C   0  0  0  0  0  0  0  0  0  0  0  0
   31.6099    8.4344   29.2981 C   0  0  0  0  0  0  0  0  0  0  0  0
   27.1397    8.9719   30.2314 N   0  0  0  0  0  0  0  0  0  0  0  0
   25.8448    9.3581   29.9281 C   0  0  0  0  0  0  0  0  0  0  0  0
   25.9035   10.1230   28.7515 C   0  0  0  0  0  0  0  0  0  0  0  0
   33.9110    7.9051   28.7745 C   0  0  0  0  0  0  0  0  0  0  0  0
   32.7859    7.7152   29.5833 C   0  0  0  0  0  0  0  0  0  0  0  0
   32.6995    9.4599   27.3828 C   0  0  0  0  0  0  0  0  0  0  0  0
   33.8764    8.7783   27.6980 C   0  0  0  0  0  0  0  0  0  0  0  0
   24.6325    9.1018   30.5903 C   0  0  0  0  0  0  0  0  0  0  0  0
   23.4573    9.6325   30.0541 C   0  0  0  0  0  0  0  0  0  0  0  0
   23.4877   10.3970   28.8950 C   0  0  0  0  0  0  0  0  0  0  0  0
   24.6971   10.6475   28.2401 C   0  0  0  0  0  0  0  0  0  0  0  0
   28.8838    8.6341   31.7949 O   0  0  0  0  0  0  0  0  0  0  0  0
   27.2585    6.7758   31.4773 C   0  0  0  0  0  0  0  0  0  0  0  0
   29.6871    6.3359   31.1017 C   0  0  2  0  0  0  0  0  0  0  0  0
   28.4789    6.0255   32.0164 C   0  0  2  0  0  0  0  0  0  0  0  0
   27.5458    8.2771   31.4440 C   0  0  2  0  0  0  0  0  0  0  0  0
   29.9790    7.8771   31.2133 C   0  0  1  0  0  0  0  0  0  0  0  0
   28.2612    4.5879   32.3199 N   0  0  0  0  0  0  0  0  0  0  0  0
   27.5652    3.7541   31.4390 C   0  0  0  0  0  0  0  0  0  0  0  0
   28.9227    4.0844   33.5245 C   0  0  0  0  0  0  0  0  0  0  0  0
   27.0111    4.1181   30.4086 O   0  0  0  0  0  0  0  0  0  0  0  0
   27.4436    2.3207   31.7685 C   0  0  0  0  0  0  0  0  0  0  0  0
   28.5253    1.4557   31.5779 C   0  0  0  0  0  0  0  0  0  0  0  0
   28.3821    0.1025   31.8888 C   0  0  0  0  0  0  0  0  0  0  0  0
   27.1649   -0.3792   32.3767 C   0  0  0  0  0  0  0  0  0  0  0  0
   26.0821    0.4861   32.5447 C   0  0  0  0  0  0  0  0  0  0  0  0
   26.2168    1.8397   32.2349 C   0  0  0  0  0  0  0  0  0  0  0  0
   29.3565    5.9890   29.7463 O   0  0  0  0  0  0  0  0  0  0  0  0
   30.0859    4.8787   29.2449 C   0  0  0  0  0  0  0  0  0  0  0  0
   27.6137   11.5639   26.1893 C   0  0  0  0  0  0  0  0  0  0  0  0
   28.7272   11.8441   25.4277 N   0  0  0  0  0  0  0  0  0  0  0  0
   29.9304   11.2382   25.9254 C   0  0  0  0  0  0  0  0  0  0  0  0
   26.4940   11.9682   25.9499 O   0  0  0  0  0  0  0  0  0  0  0  0
   31.0495    8.1157   32.3069 C   0  0  0  0  0  0  0  0  0  0  0  0
   34.8250    7.3562   28.9912 H   0  0  0  0  0  0  0  0  0  0  0  0
   32.8450    6.9993   30.3915 H   0  0  0  0  0  0  0  0  0  0  0  0
   32.6726   10.1095   26.5146 H   0  0  0  0  0  0  0  0  0  0  0  0
   34.7605    8.9152   27.0814 H   0  0  0  0  0  0  0  0  0  0  0  0
   24.5912    8.4987   31.4910 H   0  0  0  0  0  0  0  0  0  0  0  0
   22.5089    9.4441   30.5499 H   0  0  0  0  0  0  0  0  0  0  0  0
   22.5680   10.8052   28.4850 H   0  0  0  0  0  0  0  0  0  0  0  0
   24.6943   11.2444   27.3325 H   0  0  0  0  0  0  0  0  0  0  0  0
   26.9728    6.4399   30.4737 H   0  0  0  0  0  0  0  0  0  0  0  0
   26.3820    6.5808   32.1111 H   0  0  0  0  0  0  0  0  0  0  0  0
   30.5707    5.7645   31.4217 H   0  0  0  0  0  0  0  0  0  0  0  0
   28.6922    6.4627   33.0015 H   0  0  0  0  0  0  0  0  0  0  0  0
   26.9435    8.7388   32.2377 H   0  0  0  0  0  0  0  0  0  0  0  0
   28.7696    4.7901   34.3467 H   0  0  0  0  0  0  0  0  0  0  0  0
   28.5311    3.1204   33.8517 H   0  0  0  0  0  0  0  0  0  0  0  0
   29.9909    3.9893   33.3148 H   0  0  0  0  0  0  0  0  0  0  0  0
   29.4650    1.8274   31.1806 H   0  0  0  0  0  0  0  0  0  0  0  0
   29.2160   -0.5799   31.7425 H   0  0  0  0  0  0  0  0  0  0  0  0
   27.0532   -1.4358   32.6099 H   0  0  0  0  0  0  0  0  0  0  0  0
   25.1313    0.1057   32.9061 H   0  0  0  0  0  0  0  0  0  0  0  0
   25.3706    2.5119   32.3476 H   0  0  0  0  0  0  0  0  0  0  0  0
   29.9189    3.9916   29.8621 H   0  0  0  0  0  0  0  0  0  0  0  0
   29.7454    4.6697   28.2244 H   0  0  0  0  0  0  0  0  0  0  0  0
   31.1554    5.1080   29.2121 H   0  0  0  0  0  0  0  0  0  0  0  0
   28.6550   12.4179   24.5985 H   0  0  0  0  0  0  0  0  0  0  0  0
   30.6564   12.0210   26.1549 H   0  0  0  0  0  0  0  0  0  0  0  0
   30.3170   10.5478   25.1721 H   0  0  0  0  0  0  0  0  0  0  0  0
   31.3343    9.1739   32.3553 H   0  0  0  0  0  0  0  0  0  0  0  0
   31.9561    7.5234   32.1744 H   0  0  0  0  0  0  0  0  0  0  0  0
   30.6514    7.8593   33.2946 H   0  0  0  0  0  0  0  0  0  0  0  0
  6  1  2  0
  2  3  2  0
  4  5  2  0
  1  8  1  0
  2  1  1  0
  7  2  1  0
  7  9  1  0
 10  3  1  0
  4  3  1  0
 12  4  1  0
 10 11  1  0
 14  9  1  0
  9  8  2  0
  8 15  1  0
 13 14  2  0
 16 13  1  0
 15 16  2  0
 11 17  1  0
 12 11  2  0
 20 12  1  0
 17 18  2  0
 18 19  1  0
 19 20  2  0
 10 25  1  0
 25 21  1  0
  7 26  1  0
 26 21  1  0
 25 22  1  0
 26 23  1  0
 22 24  1  0
 23 24  1  0
 24 27  1  0
 27 28  1  0
 27 29  1  0
 28 30  2  0
 28 31  1  0
 32 31  2  0
 36 31  1  0
 32 33  1  0
 33 34  2  0
 34 35  1  0
 35 36  2  0
 23 37  1  0
 37 38  1  0
  5 39  1  0
  6  5  1  0
  6 41  1  0
 39 40  1  0
 40 41  1  0
 39 42  2  0
 26 43  1  6
 13 44  1  0
 14 45  1  0
 15 46  1  0
 16 47  1  0
 17 48  1  0
 18 49  1  0
 19 50  1  0
 20 51  1  0
 22 52  1  0
 22 53  1  0
 23 54  1  1
 24 55  1  6
 25 56  1  6
 29 57  1  0
 29 58  1  0
 29 59  1  0
 32 60  1  0
 33 61  1  0
 34 62  1  0
 35 63  1  0
 36 64  1  0
 38 65  1  0
 38 66  1  0
 38 67  1  0
 40 68  1  0
 41 69  1  0
 41 70  1  0
 43 71  1  0
 43 72  1  0
 43 73  1  0
M  END
> <Uni-Dock RESULT> 
ENERGY=   -5.847  LOWER_BOUND=    0.000  UPPER_BOUND=    0.000
INTER + INTRA:          -5.847
INTER:                  -5.847
INTRA:                   0.000
UNBOUND:                 0.000

$$$$

     RDKit          3D

 73 81  0  0  0  0  0  0  0  0999 V2000
   23.5315    8.5459   30.5536 C   0  0  0  0  0  0  0  0  0  0  0  0
   24.8744    8.4993   30.8674 C   0  0  0  0  0  0  0  0  0  0  0  0
   25.5754    7.1340   31.1302 C   0  0  0  0  0  0  0  0  0  0  0  0
   24.8781    5.9394   31.0648 C   0  0  0  0  0  0  0  0  0  0  0  0
   23.5106    6.0768   30.7808 C   0  0  0  0  0  0  0  0  0  0  0  0
   22.8456    7.3195   30.5339 C   0  0  0  0  0  0  0  0  0  0  0  0
   25.4015    9.7646   30.8774 N   0  0  0  0  0  0  0  0  0  0  0  0
   23.2301    9.9088   30.2812 C   0  0  0  0  0  0  0  0  0  0  0  0
   24.4245   10.6421   30.4031 C   0  0  0  0  0  0  0  0  0  0  0  0
   26.8755    6.8932   31.4425 N   0  0  0  0  0  0  0  0  0  0  0  0
   27.0776    5.5260   31.5313 C   0  0  0  0  0  0  0  0  0  0  0  0
   25.8359    4.9068   31.3126 C   0  0  0  0  0  0  0  0  0  0  0  0
   23.2830   12.6375   29.6514 C   0  0  0  0  0  0  0  0  0  0  0  0
   24.4636   12.0056   30.0552 C   0  0  0  0  0  0  0  0  0  0  0  0
   22.0518   10.5750   29.8805 C   0  0  0  0  0  0  0  0  0  0  0  0
   22.0879   11.9380   29.5806 C   0  0  0  0  0  0  0  0  0  0  0  0
   28.2440    4.7861   31.7880 C   0  0  0  0  0  0  0  0  0  0  0  0
   28.1521    3.3932   31.8279 C   0  0  0  0  0  0  0  0  0  0  0  0
   26.9357    2.7558   31.6208 C   0  0  0  0  0  0  0  0  0  0  0  0
   25.7788    3.4975   31.3647 C   0  0  0  0  0  0  0  0  0  0  0  0
   27.2467    9.0934   32.2312 O   0  0  0  0  0  0  0  0  0  0  0  0
   28.9163    8.1521   30.6431 C   0  0  0  0  0  0  0  0  0  0  0  0
   27.7569   10.2839   30.0564 C   0  0  2  0  0  0  0  0  0  0  0  0
   29.1172    9.6561   30.4417 C   0  0  2  0  0  0  0  0  0  0  0  0
   27.8748    7.9098   31.7358 C   0  0  2  0  0  0  0  0  0  0  0  0
   26.7840   10.0851   31.2756 C   0  0  1  0  0  0  0  0  0  0  0  0
   30.2632   10.0366   29.5768 N   0  0  0  0  0  0  0  0  0  0  0  0
   30.5167    9.3767   28.3702 C   0  0  0  0  0  0  0  0  0  0  0  0
   31.0217   11.2125   30.0060 C   0  0  0  0  0  0  0  0  0  0  0  0
   29.9013    8.4025   27.9535 O   0  0  0  0  0  0  0  0  0  0  0  0
   31.6307    9.8493   27.5255 C   0  0  0  0  0  0  0  0  0  0  0  0
   31.4918   11.0051   26.7513 C   0  0  0  0  0  0  0  0  0  0  0  0
   32.5571   11.4264   25.9538 C   0  0  0  0  0  0  0  0  0  0  0  0
   33.7450   10.6916   25.9264 C   0  0  0  0  0  0  0  0  0  0  0  0
   33.8695    9.5265   26.6857 C   0  0  0  0  0  0  0  0  0  0  0  0
   32.8088    9.0981   27.4842 C   0  0  0  0  0  0  0  0  0  0  0  0
   27.2397    9.6161   28.8930 O   0  0  0  0  0  0  0  0  0  0  0  0
   27.2131   10.4299   27.7297 C   0  0  0  0  0  0  0  0  0  0  0  0
   22.4992    5.0160   30.6639 C   0  0  0  0  0  0  0  0  0  0  0  0
   21.3019    5.6258   30.3589 N   0  0  0  0  0  0  0  0  0  0  0  0
   21.3994    7.0535   30.2372 C   0  0  0  0  0  0  0  0  0  0  0  0
   22.6475    3.8194   30.8082 O   0  0  0  0  0  0  0  0  0  0  0  0
   26.8371   11.3408   32.1807 C   0  0  0  0  0  0  0  0  0  0  0  0
   23.3043   13.6921   29.3851 H   0  0  0  0  0  0  0  0  0  0  0  0
   25.3802   12.5790   30.0634 H   0  0  0  0  0  0  0  0  0  0  0  0
   21.1196   10.0294   29.7827 H   0  0  0  0  0  0  0  0  0  0  0  0
   21.1798   12.4454   29.2668 H   0  0  0  0  0  0  0  0  0  0  0  0
   29.2031    5.2689   31.9422 H   0  0  0  0  0  0  0  0  0  0  0  0
   29.0430    2.8025   32.0228 H   0  0  0  0  0  0  0  0  0  0  0  0
   26.8742    1.6714   31.6532 H   0  0  0  0  0  0  0  0  0  0  0  0
   24.8402    2.9756   31.2013 H   0  0  0  0  0  0  0  0  0  0  0  0
   28.5995    7.6473   29.7231 H   0  0  0  0  0  0  0  0  0  0  0  0
   29.8661    7.6763   30.9251 H   0  0  0  0  0  0  0  0  0  0  0  0
   27.8732   11.3564   29.8425 H   0  0  0  0  0  0  0  0  0  0  0  0
   29.3975   10.0584   31.4249 H   0  0  0  0  0  0  0  0  0  0  0  0
   28.4106    7.5210   32.6120 H   0  0  0  0  0  0  0  0  0  0  0  0
   31.2157   11.1490   31.0810 H   0  0  0  0  0  0  0  0  0  0  0  0
   31.9893   11.2973   29.5097 H   0  0  0  0  0  0  0  0  0  0  0  0
   30.4250   12.1024   29.7913 H   0  0  0  0  0  0  0  0  0  0  0  0
   30.5614   11.5650   26.7585 H   0  0  0  0  0  0  0  0  0  0  0  0
   32.4596   12.3226   25.3458 H   0  0  0  0  0  0  0  0  0  0  0  0
   34.5705   11.0171   25.2973 H   0  0  0  0  0  0  0  0  0  0  0  0
   34.7871    8.9468   26.6480 H   0  0  0  0  0  0  0  0  0  0  0  0
   32.8964    8.1822   28.0622 H   0  0  0  0  0  0  0  0  0  0  0  0
   28.2154   10.7914   27.4837 H   0  0  0  0  0  0  0  0  0  0  0  0
   26.8373    9.8302   26.8930 H   0  0  0  0  0  0  0  0  0  0  0  0
   26.5404   11.2808   27.8745 H   0  0  0  0  0  0  0  0  0  0  0  0
   20.4614    5.0789   30.2310 H   0  0  0  0  0  0  0  0  0  0  0  0
   20.7383    7.5207   30.9701 H   0  0  0  0  0  0  0  0  0  0  0  0
   21.1284    7.3413   29.2187 H   0  0  0  0  0  0  0  0  0  0  0  0
   26.1099   11.2680   32.9987 H   0  0  0  0  0  0  0  0  0  0  0  0
   26.6605   12.2767   31.6487 H   0  0  0  0  0  0  0  0  0  0  0  0
   27.8216   11.4313   32.6522 H   0  0  0  0  0  0  0  0  0  0  0  0
  6  1  2  0
  2  3  2  0
  4  5  2  0
  1  8  1  0
  2  1  1  0
  7  2  1  0
  7  9  1  0
 10  3  1  0
  4  3  1  0
 12  4  1  0
 10 11  1  0
 14  9  1  0
  9  8  2  0
  8 15  1  0
 13 14  2  0
 16 13  1  0
 15 16  2  0
 11 17  1  0
 12 11  2  0
 20 12  1  0
 17 18  2  0
 18 19  1  0
 19 20  2  0
 10 25  1  0
 25 21  1  0
  7 26  1  0
 26 21  1  0
 25 22  1  0
 26 23  1  0
 22 24  1  0
 23 24  1  0
 24 27  1  0
 27 28  1  0
 27 29  1  0
 28 30  2  0
 28 31  1  0
 32 31  2  0
 36 31  1  0
 32 33  1  0
 33 34  2  0
 34 35  1  0
 35 36  2  0
 23 37  1  0
 37 38  1  0
  5 39  1  0
  6  5  1  0
  6 41  1  0
 39 40  1  0
 40 41  1  0
 39 42  2  0
 26 43  1  6
 13 44  1  0
 14 45  1  0
 15 46  1  0
 16 47  1  0
 17 48  1  0
 18 49  1  0
 19 50  1  0
 20 51  1  0
 22 52  1  0
 22 53  1  0
 23 54  1  1
 24 55  1  6
 25 56  1  6
 29 57  1  0
 29 58  1  0
 29 59  1  0
 32 60  1  0
 33 61  1  0
 34 62  1  0
 35 63  1  0
 36 64  1  0
 38 65  1  0
 38 66  1  0
 38 67  1  0
 40 68  1  0
 41 69  1  0
 41 70  1  0
 43 71  1  0
 43 72  1  0
 43 73  1  0
M  END
> <Uni-Dock RESULT> 
ENERGY=   -5.094  LOWER_BOUND=    2.344  UPPER_BOUND=    8.147
INTER + INTRA:          -5.094
INTER:                  -5.094
INTRA:                   0.000
UNBOUND:                 0.000

$$$$

     RDKit          3D

 73 81  0  0  0  0  0  0  0  0999 V2000
   23.5208    8.5768   30.5416 C   0  0  0  0  0  0  0  0  0  0  0  0
   24.8628    8.5243   30.8582 C   0  0  0  0  0  0  0  0  0  0  0  0
   25.5567    7.1561   31.1249 C   0  0  0  0  0  0  0  0  0  0  0  0
   24.8537    5.9648   31.0603 C   0  0  0  0  0  0  0  0  0  0  0  0
   23.4875    6.1082   30.7733 C   0  0  0  0  0  0  0  0  0  0  0  0
   22.8290    7.3537   30.5228 C   0  0  0  0  0  0  0  0  0  0  0  0
   25.3960    9.7870   30.8670 N   0  0  0  0  0  0  0  0  0  0  0  0
   23.2266    9.9407   30.2661 C   0  0  0  0  0  0  0  0  0  0  0  0
   24.4243   10.6684   30.3891 C   0  0  0  0  0  0  0  0  0  0  0  0
   26.8550    6.9096   31.4403 N   0  0  0  0  0  0  0  0  0  0  0  0
   27.0502    5.5416   31.5320 C   0  0  0  0  0  0  0  0  0  0  0  0
   25.8060    4.9280   31.3120 C   0  0  0  0  0  0  0  0  0  0  0  0
   23.2939   12.6679   29.6314 C   0  0  0  0  0  0  0  0  0  0  0  0
   24.4706   12.0310   30.0387 C   0  0  0  0  0  0  0  0  0  0  0  0
   22.0523   10.6118   29.8618 C   0  0  0  0  0  0  0  0  0  0  0  0
   22.0956   11.9741   29.5595 C   0  0  0  0  0  0  0  0  0  0  0  0
   28.2126    4.7965   31.7924 C   0  0  0  0  0  0  0  0  0  0  0  0
   28.1138    3.4042   31.8347 C   0  0  0  0  0  0  0  0  0  0  0  0
   26.8948    2.7722   31.6262 C   0  0  0  0  0  0  0  0  0  0  0  0
   25.7419    3.5191   31.3664 C   0  0  0  0  0  0  0  0  0  0  0  0
   27.2353    9.1094   32.2257 O   0  0  0  0  0  0  0  0  0  0  0  0
   28.9035    8.1572   30.6427 C   0  0  0  0  0  0  0  0  0  0  0  0
   27.7556   10.2934   30.0498 C   0  0  2  0  0  0  0  0  0  0  0  0
   29.1120    9.6598   30.4389 C   0  0  2  0  0  0  0  0  0  0  0  0
   27.8586    7.9218   31.7337 C   0  0  2  0  0  0  0  0  0  0  0  0
   26.7792   10.1016   31.2674 C   0  0  1  0  0  0  0  0  0  0  0  0
   30.2616   10.0331   29.5757 N   0  0  0  0  0  0  0  0  0  0  0  0
   30.5143    9.3697   28.3708 C   0  0  0  0  0  0  0  0  0  0  0  0
   31.0249   11.2061   30.0043 C   0  0  0  0  0  0  0  0  0  0  0  0
   29.8951    8.3978   27.9547 O   0  0  0  0  0  0  0  0  0  0  0  0
   31.6323    9.8355   27.5275 C   0  0  0  0  0  0  0  0  0  0  0  0
   31.5005   10.9904   26.7509 C   0  0  0  0  0  0  0  0  0  0  0  0
   32.5695   11.4051   25.9548 C   0  0  0  0  0  0  0  0  0  0  0  0
   33.7539   10.6645   25.9311 C   0  0  0  0  0  0  0  0  0  0  0  0
   33.8712    9.5003   26.6928 C   0  0  0  0  0  0  0  0  0  0  0  0
   32.8068    9.0785   27.4899 C   0  0  0  0  0  0  0  0  0  0  0  0
   27.2375    9.6260   28.8866 O   0  0  0  0  0  0  0  0  0  0  0  0
   27.2172   10.4378   27.7218 C   0  0  0  0  0  0  0  0  0  0  0  0
   22.4712    5.0522   30.6563 C   0  0  0  0  0  0  0  0  0  0  0  0
   21.2775    5.6672   30.3477 N   0  0  0  0  0  0  0  0  0  0  0  0
   21.3822    7.0941   30.2237 C   0  0  0  0  0  0  0  0  0  0  0  0
   22.6134    3.8552   30.8031 O   0  0  0  0  0  0  0  0  0  0  0  0
   26.8366   11.3586   32.1703 C   0  0  0  0  0  0  0  0  0  0  0  0
   23.3209   13.7219   29.3633 H   0  0  0  0  0  0  0  0  0  0  0  0
   25.3901   12.6000   30.0478 H   0  0  0  0  0  0  0  0  0  0  0  0
   21.1176   10.0705   29.7631 H   0  0  0  0  0  0  0  0  0  0  0  0
   21.1906   12.4852   29.2429 H   0  0  0  0  0  0  0  0  0  0  0  0
   29.1736    5.2749   31.9477 H   0  0  0  0  0  0  0  0  0  0  0  0
   29.0014    2.8095   32.0324 H   0  0  0  0  0  0  0  0  0  0  0  0
   26.8280    1.6882   31.6605 H   0  0  0  0  0  0  0  0  0  0  0  0
   24.8012    3.0015   31.2021 H   0  0  0  0  0  0  0  0  0  0  0  0
   28.5861    7.6521   29.7230 H   0  0  0  0  0  0  0  0  0  0  0  0
   29.8503    7.6772   30.9275 H   0  0  0  0  0  0  0  0  0  0  0  0
   27.8775   11.3650   29.8342 H   0  0  0  0  0  0  0  0  0  0  0  0
   29.3923   10.0625   31.4220 H   0  0  0  0  0  0  0  0  0  0  0  0
   28.3907    7.5321   32.6117 H   0  0  0  0  0  0  0  0  0  0  0  0
   31.2164   11.1436   31.0798 H   0  0  0  0  0  0  0  0  0  0  0  0
   31.9939   11.2853   29.5097 H   0  0  0  0  0  0  0  0  0  0  0  0
   30.4330   12.0985   29.7867 H   0  0  0  0  0  0  0  0  0  0  0  0
   30.5729   11.5549   26.7552 H   0  0  0  0  0  0  0  0  0  0  0  0
   32.4775   12.3007   25.3450 H   0  0  0  0  0  0  0  0  0  0  0  0
   34.5822   10.9849   25.3032 H   0  0  0  0  0  0  0  0  0  0  0  0
   34.7860    8.9160   26.6580 H   0  0  0  0  0  0  0  0  0  0  0  0
   32.8889    8.1632   28.0698 H   0  0  0  0  0  0  0  0  0  0  0  0
   28.2217   10.7940   27.4771 H   0  0  0  0  0  0  0  0  0  0  0  0
   26.8401    9.8384   26.8853 H   0  0  0  0  0  0  0  0  0  0  0  0
   26.5484   11.2922   27.8636 H   0  0  0  0  0  0  0  0  0  0  0  0
   20.4346    5.1241   30.2192 H   0  0  0  0  0  0  0  0  0  0  0  0
   20.7219    7.5659   30.9543 H   0  0  0  0  0  0  0  0  0  0  0  0
   21.1146    7.3814   29.2041 H   0  0  0  0  0  0  0  0  0  0  0  0
   26.1074   11.2909   32.9870 H   0  0  0  0  0  0  0  0  0  0  0  0
   26.6656   12.2944   31.6362 H   0  0  0  0  0  0  0  0  0  0  0  0
   27.8206   11.4453   32.6437 H   0  0  0  0  0  0  0  0  0  0  0  0
  6  1  2  0
  2  3  2  0
  4  5  2  0
  1  8  1  0
  2  1  1  0
  7  2  1  0
  7  9  1  0
 10  3  1  0
  4  3  1  0
 12  4  1  0
 10 11  1  0
 14  9  1  0
  9  8  2  0
  8 15  1  0
 13 14  2  0
 16 13  1  0
 15 16  2  0
 11 17  1  0
 12 11  2  0
 20 12  1  0
 17 18  2  0
 18 19  1  0
 19 20  2  0
 10 25  1  0
 25 21  1  0
  7 26  1  0
 26 21  1  0
 25 22  1  0
 26 23  1  0
 22 24  1  0
 23 24  1  0
 24 27  1  0
 27 28  1  0
 27 29  1  0
 28 30  2  0
 28 31  1  0
 32 31  2  0
 36 31  1  0
 32 33  1  0
 33 34  2  0
 34 35  1  0
 35 36  2  0
 23 37  1  0
 37 38  1  0
  5 39  1  0
  6  5  1  0
  6 41  1  0
 39 40  1  0
 40 41  1  0
 39 42  2  0
 26 43  1  6
 13 44  1  0
 14 45  1  0
 15 46  1  0
 16 47  1  0
 17 48  1  0
 18 49  1  0
 19 50  1  0
 20 51  1  0
 22 52  1  0
 22 53  1  0
 23 54  1  1
 24 55  1  6
 25 56  1  6
 29 57  1  0
 29 58  1  0
 29 59  1  0
 32 60  1  0
 33 61  1  0
 34 62  1  0
 35 63  1  0
 36 64  1  0
 38 65  1  0
 38 66  1  0
 38 67  1  0
 40 68  1  0
 41 69  1  0
 41 70  1  0
 43 71  1  0
 43 72  1  0
 43 73  1  0
M  END
> <Uni-Dock RESULT> 
ENERGY=   -5.092  LOWER_BOUND=    2.346  UPPER_BOUND=    8.139
INTER + INTRA:          -5.092
INTER:                  -5.092
INTRA:                   0.000
UNBOUND:                 0.000

$$$$

     RDKit          3D

 73 81  0  0  0  0  0  0  0  0999 V2000
   25.4390   13.1968   20.8313 C   0  0  0  0  0  0  0  0  0  0  0  0
   26.5857   12.7723   21.4709 C   0  0  0  0  0  0  0  0  0  0  0  0
   27.5823   11.8170   20.7505 C   0  0  0  0  0  0  0  0  0  0  0  0
   27.3465   11.3640   19.4634 C   0  0  0  0  0  0  0  0  0  0  0  0
   26.1406   11.8087   18.9000 C   0  0  0  0  0  0  0  0  0  0  0  0
   25.2111   12.6875   19.5415 C   0  0  0  0  0  0  0  0  0  0  0  0
   26.6598   13.3240   22.7235 N   0  0  0  0  0  0  0  0  0  0  0  0
   24.8085   14.1209   21.7093 C   0  0  0  0  0  0  0  0  0  0  0  0
   25.6259   14.2543   22.8465 C   0  0  0  0  0  0  0  0  0  0  0  0
   28.7521   11.3042   21.2135 N   0  0  0  0  0  0  0  0  0  0  0  0
   29.3446   10.5473   20.2165 C   0  0  0  0  0  0  0  0  0  0  0  0
   28.4747   10.5578   19.1137 C   0  0  0  0  0  0  0  0  0  0  0  0
   24.1648   15.9816   23.7013 C   0  0  0  0  0  0  0  0  0  0  0  0
   25.3250   15.2118   23.8334 C   0  0  0  0  0  0  0  0  0  0  0  0
   23.6386   14.9044   21.6074 C   0  0  0  0  0  0  0  0  0  0  0  0
   23.3218   15.8202   22.6124 C   0  0  0  0  0  0  0  0  0  0  0  0
   30.5667    9.8547   20.1947 C   0  0  0  0  0  0  0  0  0  0  0  0
   30.9141    9.1562   19.0364 C   0  0  0  0  0  0  0  0  0  0  0  0
   30.0698    9.1454   17.9337 C   0  0  0  0  0  0  0  0  0  0  0  0
   28.8555    9.8375   17.9612 C   0  0  0  0  0  0  0  0  0  0  0  0
   28.1734   11.6445   23.4828 O   0  0  0  0  0  0  0  0  0  0  0  0
   30.4251   12.4122   22.7505 C   0  0  0  0  0  0  0  0  0  0  0  0
   28.8589   14.0635   23.7767 C   0  0  2  0  0  0  0  0  0  0  0  0
   30.1859   13.2945   23.9782 C   0  0  2  0  0  0  0  0  0  0  0  0
   29.2554   11.4439   22.5719 C   0  0  2  0  0  0  0  0  0  0  0  0
   27.7027   12.9995   23.7133 C   0  0  1  0  0  0  0  0  0  0  0  0
   31.3437   14.1211   24.4053 N   0  0  0  0  0  0  0  0  0  0  0  0
   32.1159   14.8283   23.4784 C   0  0  0  0  0  0  0  0  0  0  0  0
   31.5404   14.2425   25.8505 C   0  0  0  0  0  0  0  0  0  0  0  0
   31.9816   14.7797   22.2615 O   0  0  0  0  0  0  0  0  0  0  0  0
   33.2099   15.6849   23.9758 C   0  0  0  0  0  0  0  0  0  0  0  0
   32.9309   16.9302   24.5466 C   0  0  0  0  0  0  0  0  0  0  0  0
   33.9840   17.7256   25.0015 C   0  0  0  0  0  0  0  0  0  0  0  0
   35.3024   17.2807   24.8768 C   0  0  0  0  0  0  0  0  0  0  0  0
   35.5754   16.0452   24.2864 C   0  0  0  0  0  0  0  0  0  0  0  0
   34.5285   15.2451   23.8281 C   0  0  0  0  0  0  0  0  0  0  0  0
   28.9224   14.8032   22.5457 O   0  0  0  0  0  0  0  0  0  0  0  0
   28.9612   16.2113   22.7248 C   0  0  0  0  0  0  0  0  0  0  0  0
   25.5916   11.4953   17.5725 C   0  0  0  0  0  0  0  0  0  0  0  0
   24.3960   12.1700   17.4558 N   0  0  0  0  0  0  0  0  0  0  0  0
   24.0653   12.9560   18.6114 C   0  0  0  0  0  0  0  0  0  0  0  0
   26.0658   10.7776   16.7154 O   0  0  0  0  0  0  0  0  0  0  0  0
   27.1028   12.8130   25.1290 C   0  0  0  0  0  0  0  0  0  0  0  0
   23.9231   16.7206   24.4624 H   0  0  0  0  0  0  0  0  0  0  0  0
   25.9725   15.3936   24.6801 H   0  0  0  0  0  0  0  0  0  0  0  0
   22.9928   14.8155   20.7405 H   0  0  0  0  0  0  0  0  0  0  0  0
   22.4236   16.4254   22.5268 H   0  0  0  0  0  0  0  0  0  0  0  0
   31.2412    9.8616   21.0442 H   0  0  0  0  0  0  0  0  0  0  0  0
   31.8561    8.6159   18.9984 H   0  0  0  0  0  0  0  0  0  0  0  0
   30.3490    8.5994   17.0367 H   0  0  0  0  0  0  0  0  0  0  0  0
   28.2145    9.8177   17.0844 H   0  0  0  0  0  0  0  0  0  0  0  0
   30.5516   12.9996   21.8337 H   0  0  0  0  0  0  0  0  0  0  0  0
   31.3599   11.8458   22.8659 H   0  0  0  0  0  0  0  0  0  0  0  0
   28.6832   14.7563   24.6126 H   0  0  0  0  0  0  0  0  0  0  0  0
   30.0413   12.6060   24.8222 H   0  0  0  0  0  0  0  0  0  0  0  0
   29.6231   10.4422   22.8311 H   0  0  0  0  0  0  0  0  0  0  0  0
   31.4400   13.2575   26.3164 H   0  0  0  0  0  0  0  0  0  0  0  0
   32.5285   14.6227   26.1134 H   0  0  0  0  0  0  0  0  0  0  0  0
   30.7761   14.9164   26.2451 H   0  0  0  0  0  0  0  0  0  0  0  0
   31.9072   17.2835   24.6258 H   0  0  0  0  0  0  0  0  0  0  0  0
   33.7790   18.6969   25.4452 H   0  0  0  0  0  0  0  0  0  0  0  0
   36.1218   17.9063   25.2239 H   0  0  0  0  0  0  0  0  0  0  0  0
   36.6022   15.7101   24.1734 H   0  0  0  0  0  0  0  0  0  0  0  0
   34.7390   14.2914   23.3520 H   0  0  0  0  0  0  0  0  0  0  0  0
   29.8238   16.5038   23.3298 H   0  0  0  0  0  0  0  0  0  0  0  0
   29.0413   16.6861   21.7403 H   0  0  0  0  0  0  0  0  0  0  0  0
   28.0410   16.5607   23.2029 H   0  0  0  0  0  0  0  0  0  0  0  0
   23.8421   12.0979   16.6132 H   0  0  0  0  0  0  0  0  0  0  0  0
   23.1149   12.6071   19.0210 H   0  0  0  0  0  0  0  0  0  0  0  0
   24.0091   14.0075   18.3202 H   0  0  0  0  0  0  0  0  0  0  0  0
   26.2404   12.1356   25.1054 H   0  0  0  0  0  0  0  0  0  0  0  0
   26.7926   13.7450   25.6037 H   0  0  0  0  0  0  0  0  0  0  0  0
   27.8373   12.3518   25.7981 H   0  0  0  0  0  0  0  0  0  0  0  0
  6  1  2  0
  2  3  2  0
  4  5  2  0
  1  8  1  0
  2  1  1  0
  7  2  1  0
  7  9  1  0
 10  3  1  0
  4  3  1  0
 12  4  1  0
 10 11  1  0
 14  9  1  0
  9  8  2  0
  8 15  1  0
 13 14  2  0
 16 13  1  0
 15 16  2  0
 11 17  1  0
 12 11  2  0
 20 12  1  0
 17 18  2  0
 18 19  1  0
 19 20  2  0
 10 25  1  0
 25 21  1  0
  7 26  1  0
 26 21  1  0
 25 22  1  0
 26 23  1  0
 22 24  1  0
 23 24  1  0
 24 27  1  0
 27 28  1  0
 27 29  1  0
 28 30  2  0
 28 31  1  0
 32 31  2  0
 36 31  1  0
 32 33  1  0
 33 34  2  0
 34 35  1  0
 35 36  2  0
 23 37  1  0
 37 38  1  0
  5 39  1  0
  6  5  1  0
  6 41  1  0
 39 40  1  0
 40 41  1  0
 39 42  2  0
 26 43  1  6
 13 44  1  0
 14 45  1  0
 15 46  1  0
 16 47  1  0
 17 48  1  0
 18 49  1  0
 19 50  1  0
 20 51  1  0
 22 52  1  0
 22 53  1  0
 23 54  1  1
 24 55  1  6
 25 56  1  6
 29 57  1  0
 29 58  1  0
 29 59  1  0
 32 60  1  0
 33 61  1  0
 34 62  1  0
 35 63  1  0
 36 64  1  0
 38 65  1  0
 38 66  1  0
 38 67  1  0
 40 68  1  0
 41 69  1  0
 41 70  1  0
 43 71  1  0
 43 72  1  0
 43 73  1  0
M  END
> <Uni-Dock RESULT> 
ENERGY=   -4.542  LOWER_BOUND=    8.568  UPPER_BOUND=   12.361
INTER + INTRA:          -4.542
INTER:                  -4.542
INTRA:                   0.000
UNBOUND:                 0.000

$$$$

     RDKit          3D

 73 81  0  0  0  0  0  0  0  0999 V2000
   23.2730    6.7838   31.0897 C   0  0  0  0  0  0  0  0  0  0  0  0
   24.5373    7.3275   31.1886 C   0  0  0  0  0  0  0  0  0  0  0  0
   25.7857    6.4039   31.3030 C   0  0  0  0  0  0  0  0  0  0  0  0
   25.6650    5.0244   31.3161 C   0  0  0  0  0  0  0  0  0  0  0  0
   24.3445    4.5536   31.2529 C   0  0  0  0  0  0  0  0  0  0  0  0
   23.1830    5.3825   31.1454 C   0  0  0  0  0  0  0  0  0  0  0  0
   24.4677    8.6959   31.1493 N   0  0  0  0  0  0  0  0  0  0  0  0
   22.3803    7.8751   30.9034 C   0  0  0  0  0  0  0  0  0  0  0  0
   23.1497    9.0520   30.8564 C   0  0  0  0  0  0  0  0  0  0  0  0
   27.0947    6.7538   31.4020 N   0  0  0  0  0  0  0  0  0  0  0  0
   27.8728    5.6083   31.4224 C   0  0  0  0  0  0  0  0  0  0  0  0
   26.9977    4.5102   31.3843 C   0  0  0  0  0  0  0  0  0  0  0  0
   21.1651   10.3360   30.3445 C   0  0  0  0  0  0  0  0  0  0  0  0
   22.5487   10.2855   30.5423 C   0  0  0  0  0  0  0  0  0  0  0  0
   20.9845    7.9577   30.7092 C   0  0  0  0  0  0  0  0  0  0  0  0
   20.3883    9.1916   30.4430 C   0  0  0  0  0  0  0  0  0  0  0  0
   29.2676    5.4478   31.4744 C   0  0  0  0  0  0  0  0  0  0  0  0
   29.7872    4.1517   31.4918 C   0  0  0  0  0  0  0  0  0  0  0  0
   28.9442    3.0484   31.4606 C   0  0  0  0  0  0  0  0  0  0  0  0
   27.5572    3.2146   31.4078 C   0  0  0  0  0  0  0  0  0  0  0  0
   26.6051    8.9344   32.1802 O   0  0  0  0  0  0  0  0  0  0  0  0
   28.2534    8.7262   30.3268 C   0  0  0  0  0  0  0  0  0  0  0  0
   26.2196   10.1330   29.9842 C   0  0  2  0  0  0  0  0  0  0  0  0
   27.7588   10.1621   30.1358 C   0  0  2  0  0  0  0  0  0  0  0  0
   27.5953    8.1109   31.5621 C   0  0  2  0  0  0  0  0  0  0  0  0
   25.6232    9.5918   31.3349 C   0  0  1  0  0  0  0  0  0  0  0  0
   28.4857   10.9566   29.1128 N   0  0  0  0  0  0  0  0  0  0  0  0
   28.8100   10.4157   27.8647 C   0  0  0  0  0  0  0  0  0  0  0  0
   28.7242   12.3610   29.4489 C   0  0  0  0  0  0  0  0  0  0  0  0
   28.6146    9.2551   27.5239 O   0  0  0  0  0  0  0  0  0  0  0  0
   29.4720   11.2807   26.8689 C   0  0  0  0  0  0  0  0  0  0  0  0
   28.7363   12.2322   26.1564 C   0  0  0  0  0  0  0  0  0  0  0  0
   29.3841   13.0322   25.2136 C   0  0  0  0  0  0  0  0  0  0  0  0
   30.7526   12.8731   24.9818 C   0  0  0  0  0  0  0  0  0  0  0  0
   31.4772   11.9064   25.6817 C   0  0  0  0  0  0  0  0  0  0  0  0
   30.8367   11.1021   26.6246 C   0  0  0  0  0  0  0  0  0  0  0  0
   25.8671    9.2586   28.8989 O   0  0  0  0  0  0  0  0  0  0  0  0
   25.3183    9.9321   27.7757 C   0  0  0  0  0  0  0  0  0  0  0  0
   23.8789    3.1590   31.2677 C   0  0  0  0  0  0  0  0  0  0  0  0
   22.5049    3.1866   31.1695 N   0  0  0  0  0  0  0  0  0  0  0  0
   21.9630    4.5130   31.0714 C   0  0  0  0  0  0  0  0  0  0  0  0
   24.5446    2.1472   31.3558 O   0  0  0  0  0  0  0  0  0  0  0  0
   25.2716   10.7885   32.2531 C   0  0  0  0  0  0  0  0  0  0  0  0
   20.6927   11.2865   30.1059 H   0  0  0  0  0  0  0  0  0  0  0  0
   23.1217   11.1947   30.4223 H   0  0  0  0  0  0  0  0  0  0  0  0
   20.3722    7.0631   30.7440 H   0  0  0  0  0  0  0  0  0  0  0  0
   19.3145    9.2495   30.2882 H   0  0  0  0  0  0  0  0  0  0  0  0
   29.9393    6.2994   31.4895 H   0  0  0  0  0  0  0  0  0  0  0  0
   30.8633    4.0060   31.5297 H   0  0  0  0  0  0  0  0  0  0  0  0
   29.3579    2.0438   31.4739 H   0  0  0  0  0  0  0  0  0  0  0  0
   26.9191    2.3360   31.3794 H   0  0  0  0  0  0  0  0  0  0  0  0
   28.0468    8.0949   29.4547 H   0  0  0  0  0  0  0  0  0  0  0  0
   29.3461    8.7131   30.4446 H   0  0  0  0  0  0  0  0  0  0  0  0
   25.8322   11.1425   29.7830 H   0  0  0  0  0  0  0  0  0  0  0  0
   27.9863   10.6878   31.0734 H   0  0  0  0  0  0  0  0  0  0  0  0
   28.3723    8.0260   32.3334 H   0  0  0  0  0  0  0  0  0  0  0  0
   29.0880   12.4330   30.4784 H   0  0  0  0  0  0  0  0  0  0  0  0
   29.4747   12.8282   28.8099 H   0  0  0  0  0  0  0  0  0  0  0  0
   27.7794   12.9016   29.3533 H   0  0  0  0  0  0  0  0  0  0  0  0
   27.6690   12.3421   26.3235 H   0  0  0  0  0  0  0  0  0  0  0  0
   28.8215   13.7741   24.6519 H   0  0  0  0  0  0  0  0  0  0  0  0
   31.2533   13.4917   24.2403 H   0  0  0  0  0  0  0  0  0  0  0  0
   32.5369   11.7719   25.4860 H   0  0  0  0  0  0  0  0  0  0  0  0
   31.3943   10.3369   27.1577 H   0  0  0  0  0  0  0  0  0  0  0  0
   26.0195   10.6751   27.3857 H   0  0  0  0  0  0  0  0  0  0  0  0
   25.1124    9.1936   26.9925 H   0  0  0  0  0  0  0  0  0  0  0  0
   24.3773   10.4206   28.0459 H   0  0  0  0  0  0  0  0  0  0  0  0
   21.9702    2.3287   31.1602 H   0  0  0  0  0  0  0  0  0  0  0  0
   21.2856    4.6854   31.9104 H   0  0  0  0  0  0  0  0  0  0  0  0
   21.4433    4.6133   30.1156 H   0  0  0  0  0  0  0  0  0  0  0  0
   24.7792   10.4485   33.1724 H   0  0  0  0  0  0  0  0  0  0  0  0
   24.6331   11.5359   31.7797 H   0  0  0  0  0  0  0  0  0  0  0  0
   26.1820   11.3103   32.5672 H   0  0  0  0  0  0  0  0  0  0  0  0
  6  1  2  0
  2  3  2  0
  4  5  2  0
  1  8  1  0
  2  1  1  0
  7  2  1  0
  7  9  1  0
 10  3  1  0
  4  3  1  0
 12  4  1  0
 10 11  1  0
 14  9  1  0
  9  8  2  0
  8 15  1  0
 13 14  2  0
 16 13  1  0
 15 16  2  0
 11 17  1  0
 12 11  2  0
 20 12  1  0
 17 18  2  0
 18 19  1  0
 19 20  2  0
 10 25  1  0
 25 21  1  0
  7 26  1  0
 26 21  1  0
 25 22  1  0
 26 23  1  0
 22 24  1  0
 23 24  1  0
 24 27  1  0
 27 28  1  0
 27 29  1  0
 28 30  2  0
 28 31  1  0
 32 31  2  0
 36 31  1  0
 32 33  1  0
 33 34  2  0
 34 35  1  0
 35 36  2  0
 23 37  1  0
 37 38  1  0
  5 39  1  0
  6  5  1  0
  6 41  1  0
 39 40  1  0
 40 41  1  0
 39 42  2  0
 26 43  1  6
 13 44  1  0
 14 45  1  0
 15 46  1  0
 16 47  1  0
 17 48  1  0
 18 49  1  0
 19 50  1  0
 20 51  1  0
 22 52  1  0
 22 53  1  0
 23 54  1  1
 24 55  1  6
 25 56  1  6
 29 57  1  0
 29 58  1  0
 29 59  1  0
 32 60  1  0
 33 61  1  0
 34 62  1  0
 35 63  1  0
 36 64  1  0
 38 65  1  0
 38 66  1  0
 38 67  1  0
 40 68  1  0
 41 69  1  0
 41 70  1  0
 43 71  1  0
 43 72  1  0
 43 73  1  0
M  END
> <Uni-Dock RESULT> 
ENERGY=   -4.468  LOWER_BOUND=    2.493  UPPER_BOUND=    8.989
INTER + INTRA:          -4.468
INTER:                  -4.468
INTRA:                   0.000
UNBOUND:                 0.000

$$$$

     RDKit          3D

 73 81  0  0  0  0  0  0  0  0999 V2000
   28.1364   10.2780   29.0878 C   0  0  0  0  0  0  0  0  0  0  0  0
   27.9437    9.3503   30.0910 C   0  0  0  0  0  0  0  0  0  0  0  0
   26.5051    8.9032   30.4854 C   0  0  0  0  0  0  0  0  0  0  0  0
   25.3883    9.4231   29.8531 C   0  0  0  0  0  0  0  0  0  0  0  0
   25.6684   10.3892   28.8745 C   0  0  0  0  0  0  0  0  0  0  0  0
   26.9809   10.8139   28.4941 C   0  0  0  0  0  0  0  0  0  0  0  0
   29.1511    8.9402   30.5937 N   0  0  0  0  0  0  0  0  0  0  0  0
   29.5429   10.3906   28.9103 C   0  0  0  0  0  0  0  0  0  0  0  0
   30.1581    9.4873   29.7961 C   0  0  0  0  0  0  0  0  0  0  0  0
   26.1242    8.0073   31.4329 N   0  0  0  0  0  0  0  0  0  0  0  0
   24.7462    7.8720   31.4049 C   0  0  0  0  0  0  0  0  0  0  0  0
   24.2605    8.7610   30.4318 C   0  0  0  0  0  0  0  0  0  0  0  0
   32.3197   10.0281   28.8555 C   0  0  0  0  0  0  0  0  0  0  0  0
   31.5491    9.2768   29.7488 C   0  0  0  0  0  0  0  0  0  0  0  0
   30.3467   11.1422   28.0261 C   0  0  0  0  0  0  0  0  0  0  0  0
   31.7310   10.9615   28.0160 C   0  0  0  0  0  0  0  0  0  0  0  0
   23.8902    7.0474   32.1540 C   0  0  0  0  0  0  0  0  0  0  0  0
   22.5162    7.1260   31.9169 C   0  0  0  0  0  0  0  0  0  0  0  0
   22.0090    8.0004   30.9645 C   0  0  0  0  0  0  0  0  0  0  0  0
   22.8660    8.8176   30.2215 C   0  0  0  0  0  0  0  0  0  0  0  0
   28.1606    8.1808   32.6260 O   0  0  0  0  0  0  0  0  0  0  0  0
   27.3190    5.8916   32.1294 C   0  0  0  0  0  0  0  0  0  0  0  0
   29.5941    6.5427   31.3340 C   0  0  2  0  0  0  0  0  0  0  0  0
   28.8163    5.6331   32.3141 C   0  0  2  0  0  0  0  0  0  0  0  0
   27.0108    7.3658   32.3923 C   0  0  2  0  0  0  0  0  0  0  0  0
   29.3063    8.0330   31.7450 C   0  0  1  0  0  0  0  0  0  0  0  0
   29.2217    4.2042   32.3166 N   0  0  0  0  0  0  0  0  0  0  0  0
   28.7152    3.3011   31.3767 C   0  0  0  0  0  0  0  0  0  0  0  0
   30.2657    3.8404   33.2757 C   0  0  0  0  0  0  0  0  0  0  0  0
   27.8577    3.5571   30.5398 O   0  0  0  0  0  0  0  0  0  0  0  0
   29.2113    1.9113   31.3919 C   0  0  0  0  0  0  0  0  0  0  0  0
   30.4693    1.6023   30.8660 C   0  0  0  0  0  0  0  0  0  0  0  0
   30.9120    0.2786   30.8841 C   0  0  0  0  0  0  0  0  0  0  0  0
   30.0982   -0.7250   31.4155 C   0  0  0  0  0  0  0  0  0  0  0  0
   28.8342   -0.4127   31.9197 C   0  0  0  0  0  0  0  0  0  0  0  0
   28.3840    0.9076   31.9039 C   0  0  0  0  0  0  0  0  0  0  0  0
   29.1336    6.2983   29.9943 O   0  0  0  0  0  0  0  0  0  0  0  0
   30.0983    5.6711   29.1623 C   0  0  0  0  0  0  0  0  0  0  0  0
   24.7150   11.1401   28.0445 C   0  0  0  0  0  0  0  0  0  0  0  0
   25.4514   11.9609   27.2185 N   0  0  0  0  0  0  0  0  0  0  0  0
   26.8704   11.8318   27.3978 C   0  0  0  0  0  0  0  0  0  0  0  0
   23.5020   11.0831   28.0580 O   0  0  0  0  0  0  0  0  0  0  0  0
   30.4186    8.5211   32.7059 C   0  0  0  0  0  0  0  0  0  0  0  0
   33.3960    9.8742   28.8163 H   0  0  0  0  0  0  0  0  0  0  0  0
   32.0435    8.5352   30.3611 H   0  0  0  0  0  0  0  0  0  0  0  0
   29.8932   11.8462   27.3367 H   0  0  0  0  0  0  0  0  0  0  0  0
   32.3451   11.5378   27.3296 H   0  0  0  0  0  0  0  0  0  0  0  0
   24.2718    6.3525   32.8944 H   0  0  0  0  0  0  0  0  0  0  0  0
   21.8373    6.4951   32.4841 H   0  0  0  0  0  0  0  0  0  0  0  0
   20.9384    8.0540   30.7867 H   0  0  0  0  0  0  0  0  0  0  0  0
   22.4455    9.4898   29.4791 H   0  0  0  0  0  0  0  0  0  0  0  0
   26.9706    5.6227   31.1254 H   0  0  0  0  0  0  0  0  0  0  0  0
   26.7371    5.2634   32.8184 H   0  0  0  0  0  0  0  0  0  0  0  0
   30.6736    6.3408   31.3936 H   0  0  0  0  0  0  0  0  0  0  0  0
   29.0576    5.9665   33.3329 H   0  0  0  0  0  0  0  0  0  0  0  0
   26.4657    7.4169   33.3442 H   0  0  0  0  0  0  0  0  0  0  0  0
   30.0410    4.2904   34.2475 H   0  0  0  0  0  0  0  0  0  0  0  0
   30.3424    2.7635   33.4306 H   0  0  0  0  0  0  0  0  0  0  0  0
   31.2201    4.2221   32.9048 H   0  0  0  0  0  0  0  0  0  0  0  0
   31.0932    2.3800   30.4359 H   0  0  0  0  0  0  0  0  0  0  0  0
   31.8877    0.0263   30.4759 H   0  0  0  0  0  0  0  0  0  0  0  0
   30.4419   -1.7570   31.4204 H   0  0  0  0  0  0  0  0  0  0  0  0
   28.1959   -1.1975   32.3148 H   0  0  0  0  0  0  0  0  0  0  0  0
   27.3937    1.1508   32.2792 H   0  0  0  0  0  0  0  0  0  0  0  0
   30.4114    4.7116   29.5832 H   0  0  0  0  0  0  0  0  0  0  0  0
   29.6495    5.4967   28.1779 H   0  0  0  0  0  0  0  0  0  0  0  0
   30.9708    6.3189   29.0343 H   0  0  0  0  0  0  0  0  0  0  0  0
   24.9937   12.5723   26.5561 H   0  0  0  0  0  0  0  0  0  0  0  0
   27.2829   12.7987   27.6937 H   0  0  0  0  0  0  0  0  0  0  0  0
   27.3149   11.4805   26.4636 H   0  0  0  0  0  0  0  0  0  0  0  0
   30.2912    9.5831   32.9493 H   0  0  0  0  0  0  0  0  0  0  0  0
   31.4293    8.3775   32.3210 H   0  0  0  0  0  0  0  0  0  0  0  0
   30.3675    7.9799   33.6569 H   0  0  0  0  0  0  0  0  0  0  0  0
  6  1  2  0
  2  3  2  0
  4  5  2  0
  1  8  1  0
  2  1  1  0
  7  2  1  0
  7  9  1  0
 10  3  1  0
  4  3  1  0
 12  4  1  0
 10 11  1  0
 14  9  1  0
  9  8  2  0
  8 15  1  0
 13 14  2  0
 16 13  1  0
 15 16  2  0
 11 17  1  0
 12 11  2  0
 20 12  1  0
 17 18  2  0
 18 19  1  0
 19 20  2  0
 10 25  1  0
 25 21  1  0
  7 26  1  0
 26 21  1  0
 25 22  1  0
 26 23  1  0
 22 24  1  0
 23 24  1  0
 24 27  1  0
 27 28  1  0
 27 29  1  0
 28 30  2  0
 28 31  1  0
 32 31  2  0
 36 31  1  0
 32 33  1  0
 33 34  2  0
 34 35  1  0
 35 36  2  0
 23 37  1  0
 37 38  1  0
  5 39  1  0
  6  5  1  0
  6 41  1  0
 39 40  1  0
 40 41  1  0
 39 42  2  0
 26 43  1  6
 13 44  1  0
 14 45  1  0
 15 46  1  0
 16 47  1  0
 17 48  1  0
 18 49  1  0
 19 50  1  0
 20 51  1  0
 22 52  1  0
 22 53  1  0
 23 54  1  1
 24 55  1  6
 25 56  1  6
 29 57  1  0
 29 58  1  0
 29 59  1  0
 32 60  1  0
 33 61  1  0
 34 62  1  0
 35 63  1  0
 36 64  1  0
 38 65  1  0
 38 66  1  0
 38 67  1  0
 40 68  1  0
 41 69  1  0
 41 70  1  0
 43 71  1  0
 43 72  1  0
 43 73  1  0
M  END
> <Uni-Dock RESULT> 
ENERGY=   -4.277  LOWER_BOUND=    1.570  UPPER_BOUND=    2.351
INTER + INTRA:          -4.277
INTER:                  -4.277
INTRA:                   0.000
UNBOUND:                 0.000

$$$$

     RDKit          3D

 73 81  0  0  0  0  0  0  0  0999 V2000
   25.5894   14.3066   26.3352 C   0  0  0  0  0  0  0  0  0  0  0  0
   26.8223   13.8741   25.8915 C   0  0  0  0  0  0  0  0  0  0  0  0
   27.5261   12.6648   26.5748 C   0  0  0  0  0  0  0  0  0  0  0  0
   26.9454   11.9992   27.6413 C   0  0  0  0  0  0  0  0  0  0  0  0
   25.7129   12.5262   28.0568 C   0  0  0  0  0  0  0  0  0  0  0  0
   25.0467   13.6342   27.4435 C   0  0  0  0  0  0  0  0  0  0  0  0
   27.2369   14.6368   24.8307 N   0  0  0  0  0  0  0  0  0  0  0  0
   25.1867   15.3455   25.4515 C   0  0  0  0  0  0  0  0  0  0  0  0
   26.1846   15.4801   24.4690 C   0  0  0  0  0  0  0  0  0  0  0  0
   28.7248   12.0997   26.2753 N   0  0  0  0  0  0  0  0  0  0  0  0
   28.9337   11.0082   27.1017 C   0  0  0  0  0  0  0  0  0  0  0  0
   27.8379   10.9334   27.9773 C   0  0  0  0  0  0  0  0  0  0  0  0
   24.8309   17.1153   23.3099 C   0  0  0  0  0  0  0  0  0  0  0  0
   25.9953   16.3429   23.3730 C   0  0  0  0  0  0  0  0  0  0  0  0
   24.0262   16.1448   25.3673 C   0  0  0  0  0  0  0  0  0  0  0  0
   23.8652   17.0320   24.3014 C   0  0  0  0  0  0  0  0  0  0  0  0
   29.9928   10.0866   27.1535 C   0  0  0  0  0  0  0  0  0  0  0  0
   29.9444    9.0719   28.1118 C   0  0  0  0  0  0  0  0  0  0  0  0
   28.8754    8.9783   28.9934 C   0  0  0  0  0  0  0  0  0  0  0  0
   27.8239    9.8978   28.9360 C   0  0  0  0  0  0  0  0  0  0  0  0
   29.5197   14.0270   25.1554 O   0  0  0  0  0  0  0  0  0  0  0  0
   29.7853   11.8408   23.9956 C   0  0  0  0  0  0  0  0  0  0  0  0
   28.5238   13.6691   22.8560 C   0  0  2  0  0  0  0  0  0  0  0  0
   29.8144   12.8172   22.8172 C   0  0  2  0  0  0  0  0  0  0  0  0
   29.6829   12.6162   25.3093 C   0  0  2  0  0  0  0  0  0  0  0  0
   28.5551   14.5119   24.1831 C   0  0  1  0  0  0  0  0  0  0  0  0
   30.1432   12.2169   21.4990 N   0  0  0  0  0  0  0  0  0  0  0  0
   29.5648   11.0142   21.0810 C   0  0  0  0  0  0  0  0  0  0  0  0
   31.0035   13.0212   20.6300 C   0  0  0  0  0  0  0  0  0  0  0  0
   28.8230   10.3126   21.7583 O   0  0  0  0  0  0  0  0  0  0  0  0
   29.8821   10.5078   19.7316 C   0  0  0  0  0  0  0  0  0  0  0  0
   29.2828   11.0749   18.6030 C   0  0  0  0  0  0  0  0  0  0  0  0
   29.5928   10.5721   17.3383 C   0  0  0  0  0  0  0  0  0  0  0  0
   30.4867    9.5064   17.2080 C   0  0  0  0  0  0  0  0  0  0  0  0
   31.0653    8.9306   18.3408 C   0  0  0  0  0  0  0  0  0  0  0  0
   30.7595    9.4267   19.6083 C   0  0  0  0  0  0  0  0  0  0  0  0
   27.3806   12.7974   22.8470 O   0  0  0  0  0  0  0  0  0  0  0  0
   26.6180   12.8648   21.6511 C   0  0  0  0  0  0  0  0  0  0  0  0
   24.8582   12.0671   29.1615 C   0  0  0  0  0  0  0  0  0  0  0  0
   23.7441   12.8776   29.1794 N   0  0  0  0  0  0  0  0  0  0  0  0
   23.7446   13.8767   28.1477 C   0  0  0  0  0  0  0  0  0  0  0  0
   25.0617   11.1561   29.9383 O   0  0  0  0  0  0  0  0  0  0  0  0
   29.1777   15.8997   23.8916 C   0  0  0  0  0  0  0  0  0  0  0  0
   24.6795   17.7877   22.4682 H   0  0  0  0  0  0  0  0  0  0  0  0
   26.7066   16.4127   22.5616 H   0  0  0  0  0  0  0  0  0  0  0  0
   23.2457   16.0590   26.1155 H   0  0  0  0  0  0  0  0  0  0  0  0
   22.9677   17.6409   24.2374 H   0  0  0  0  0  0  0  0  0  0  0  0
   30.8299   10.1406   26.4657 H   0  0  0  0  0  0  0  0  0  0  0  0
   30.7526    8.3476   28.1670 H   0  0  0  0  0  0  0  0  0  0  0  0
   28.8463    8.1849   29.7352 H   0  0  0  0  0  0  0  0  0  0  0  0
   26.9967    9.8007   29.6334 H   0  0  0  0  0  0  0  0  0  0  0  0
   28.9522   11.1315   23.9284 H   0  0  0  0  0  0  0  0  0  0  0  0
   30.6947   11.2235   24.0002 H   0  0  0  0  0  0  0  0  0  0  0  0
   28.4789   14.3421   21.9873 H   0  0  0  0  0  0  0  0  0  0  0  0
   30.6597   13.4935   23.0053 H   0  0  0  0  0  0  0  0  0  0  0  0
   30.6543   12.5266   25.8136 H   0  0  0  0  0  0  0  0  0  0  0  0
   31.8400   13.4193   21.2124 H   0  0  0  0  0  0  0  0  0  0  0  0
   31.4301   12.4469   19.8067 H   0  0  0  0  0  0  0  0  0  0  0  0
   30.4096   13.8454   20.2275 H   0  0  0  0  0  0  0  0  0  0  0  0
   28.5736   11.8906   18.7066 H   0  0  0  0  0  0  0  0  0  0  0  0
   29.1310   11.0040   16.4537 H   0  0  0  0  0  0  0  0  0  0  0  0
   30.7198    9.1106   16.2220 H   0  0  0  0  0  0  0  0  0  0  0  0
   31.7452    8.0900   18.2381 H   0  0  0  0  0  0  0  0  0  0  0  0
   31.1944    8.9690   20.4927 H   0  0  0  0  0  0  0  0  0  0  0  0
   27.2320   12.6118   20.7823 H   0  0  0  0  0  0  0  0  0  0  0  0
   25.7926   12.1475   21.7227 H   0  0  0  0  0  0  0  0  0  0  0  0
   26.1955   13.8661   21.5238 H   0  0  0  0  0  0  0  0  0  0  0  0
   23.0149   12.7385   29.8655 H   0  0  0  0  0  0  0  0  0  0  0  0
   23.7061   14.8662   28.6082 H   0  0  0  0  0  0  0  0  0  0  0  0
   22.8855   13.7105   27.4934 H   0  0  0  0  0  0  0  0  0  0  0  0
   29.1417   16.5423   24.7798 H   0  0  0  0  0  0  0  0  0  0  0  0
   28.7039   16.4318   23.0653 H   0  0  0  0  0  0  0  0  0  0  0  0
   30.2364   15.7969   23.6297 H   0  0  0  0  0  0  0  0  0  0  0  0
  6  1  2  0
  2  3  2  0
  4  5  2  0
  1  8  1  0
  2  1  1  0
  7  2  1  0
  7  9  1  0
 10  3  1  0
  4  3  1  0
 12  4  1  0
 10 11  1  0
 14  9  1  0
  9  8  2  0
  8 15  1  0
 13 14  2  0
 16 13  1  0
 15 16  2  0
 11 17  1  0
 12 11  2  0
 20 12  1  0
 17 18  2  0
 18 19  1  0
 19 20  2  0
 10 25  1  0
 25 21  1  0
  7 26  1  0
 26 21  1  0
 25 22  1  0
 26 23  1  0
 22 24  1  0
 23 24  1  0
 24 27  1  0
 27 28  1  0
 27 29  1  0
 28 30  2  0
 28 31  1  0
 32 31  2  0
 36 31  1  0
 32 33  1  0
 33 34  2  0
 34 35  1  0
 35 36  2  0
 23 37  1  0
 37 38  1  0
  5 39  1  0
  6  5  1  0
  6 41  1  0
 39 40  1  0
 40 41  1  0
 39 42  2  0
 26 43  1  6
 13 44  1  0
 14 45  1  0
 15 46  1  0
 16 47  1  0
 17 48  1  0
 18 49  1  0
 19 50  1  0
 20 51  1  0
 22 52  1  0
 22 53  1  0
 23 54  1  1
 24 55  1  6
 25 56  1  6
 29 57  1  0
 29 58  1  0
 29 59  1  0
 32 60  1  0
 33 61  1  0
 34 62  1  0
 35 63  1  0
 36 64  1  0
 38 65  1  0
 38 66  1  0
 38 67  1  0
 40 68  1  0
 41 69  1  0
 41 70  1  0
 43 71  1  0
 43 72  1  0
 43 73  1  0
M  END
> <Uni-Dock RESULT> 
ENERGY=   -4.141  LOWER_BOUND=    4.894  UPPER_BOUND=   10.455
INTER + INTRA:          -4.141
INTER:                  -4.141
INTRA:                   0.000
UNBOUND:                 0.000

$$$$

     RDKit          3D

 73 81  0  0  0  0  0  0  0  0999 V2000
   25.1059    7.5826   31.0242 C   0  0  0  0  0  0  0  0  0  0  0  0
   26.4435    7.8885   31.1704 C   0  0  0  0  0  0  0  0  0  0  0  0
   27.4902    6.7583   31.3978 C   0  0  0  0  0  0  0  0  0  0  0  0
   27.1131    5.4276   31.4667 C   0  0  0  0  0  0  0  0  0  0  0  0
   25.7324    5.2056   31.3495 C   0  0  0  0  0  0  0  0  0  0  0  0
   24.7529    6.2272   31.1382 C   0  0  0  0  0  0  0  0  0  0  0  0
   26.6330    9.2420   31.0650 N   0  0  0  0  0  0  0  0  0  0  0  0
   24.4431    8.8079   30.7378 C   0  0  0  0  0  0  0  0  0  0  0  0
   25.4204    9.8182   30.6814 C   0  0  0  0  0  0  0  0  0  0  0  0
   28.8353    6.8658   31.5556 N   0  0  0  0  0  0  0  0  0  0  0  0
   29.3834    5.5993   31.6724 C   0  0  0  0  0  0  0  0  0  0  0  0
   28.3213    4.6810   31.6343 C   0  0  0  0  0  0  0  0  0  0  0  0
   23.7377   11.4159   29.9991 C   0  0  0  0  0  0  0  0  0  0  0  0
   25.0765   11.1222   30.2777 C   0  0  0  0  0  0  0  0  0  0  0  0
   23.0983    9.1355   30.4605 C   0  0  0  0  0  0  0  0  0  0  0  0
   22.7568   10.4416   30.1048 C   0  0  0  0  0  0  0  0  0  0  0  0
   30.7195    5.1876   31.8113 C   0  0  0  0  0  0  0  0  0  0  0  0
   30.9861    3.8209   31.9173 C   0  0  0  0  0  0  0  0  0  0  0  0
   29.9540    2.8919   31.8881 C   0  0  0  0  0  0  0  0  0  0  0  0
   28.6267    3.3079   31.7485 C   0  0  0  0  0  0  0  0  0  0  0  0
   28.7256    9.1389   32.2046 O   0  0  0  0  0  0  0  0  0  0  0  0
   30.3924    8.5282   30.4599 C   0  0  0  0  0  0  0  0  0  0  0  0
   28.6765   10.2648   29.9380 C   0  0  2  0  0  0  0  0  0  0  0  0
   30.1849   10.0179   30.1759 C   0  0  2  0  0  0  0  0  0  0  0  0
   29.5726    8.1141   31.6822 C   0  0  2  0  0  0  0  0  0  0  0  0
   27.9256    9.9184   31.2755 C   0  0  1  0  0  0  0  0  0  0  0  0
   31.0956   10.6069   29.1611 N   0  0  0  0  0  0  0  0  0  0  0  0
   31.3721    9.9474   27.9594 C   0  0  0  0  0  0  0  0  0  0  0  0
   31.5763   11.9597   29.4461 C   0  0  0  0  0  0  0  0  0  0  0  0
   30.9796    8.8257   27.6611 O   0  0  0  0  0  0  0  0  0  0  0  0
   32.2311   10.6191   26.9649 C   0  0  0  0  0  0  0  0  0  0  0  0
   31.7212   11.6491   26.1689 C   0  0  0  0  0  0  0  0  0  0  0  0
   32.5515   12.2626   25.2293 C   0  0  0  0  0  0  0  0  0  0  0  0
   33.8755   11.8413   25.0837 C   0  0  0  0  0  0  0  0  0  0  0  0
   34.3723   10.7977   25.8671 C   0  0  0  0  0  0  0  0  0  0  0  0
   33.5483   10.1787   26.8073 C   0  0  0  0  0  0  0  0  0  0  0  0
   28.2188    9.4118   28.8751 O   0  0  0  0  0  0  0  0  0  0  0  0
   27.8600   10.1117   27.6930 C   0  0  0  0  0  0  0  0  0  0  0  0
   25.0139    3.9238   31.4010 C   0  0  0  0  0  0  0  0  0  0  0  0
   23.6756    4.1988   31.2232 N   0  0  0  0  0  0  0  0  0  0  0  0
   23.3967    5.5948   31.0341 C   0  0  0  0  0  0  0  0  0  0  0  0
   25.4736    2.8130   31.5729 O   0  0  0  0  0  0  0  0  0  0  0  0
   27.7605   11.2083   32.1168 C   0  0  0  0  0  0  0  0  0  0  0  0
   23.4635   12.4225   29.6908 H   0  0  0  0  0  0  0  0  0  0  0  0
   25.8145   11.9020   30.1495 H   0  0  0  0  0  0  0  0  0  0  0  0
   22.3285    8.3725   30.5008 H   0  0  0  0  0  0  0  0  0  0  0  0
   21.7214   10.6879   29.8864 H   0  0  0  0  0  0  0  0  0  0  0  0
   31.5371    5.9002   31.8261 H   0  0  0  0  0  0  0  0  0  0  0  0
   32.0128    3.4815   32.0232 H   0  0  0  0  0  0  0  0  0  0  0  0
   30.1714    1.8305   31.9707 H   0  0  0  0  0  0  0  0  0  0  0  0
   27.8376    2.5618   31.7237 H   0  0  0  0  0  0  0  0  0  0  0  0
   30.1133    7.8986   29.6070 H   0  0  0  0  0  0  0  0  0  0  0  0
   31.4565    8.3204   30.6404 H   0  0  0  0  0  0  0  0  0  0  0  0
   28.4948   11.3157   29.6692 H   0  0  0  0  0  0  0  0  0  0  0  0
   30.4617   10.5436   31.1001 H   0  0  0  0  0  0  0  0  0  0  0  0
   30.2824    7.9301   32.4997 H   0  0  0  0  0  0  0  0  0  0  0  0
   31.8975   12.0201   30.4904 H   0  0  0  0  0  0  0  0  0  0  0  0
   32.4305   12.2445   28.8305 H   0  0  0  0  0  0  0  0  0  0  0  0
   30.7549   12.6591   29.2721 H   0  0  0  0  0  0  0  0  0  0  0  0
   30.6865   11.9630   26.2695 H   0  0  0  0  0  0  0  0  0  0  0  0
   32.1650   13.0632   24.6033 H   0  0  0  0  0  0  0  0  0  0  0  0
   34.5179   12.3150   24.3446 H   0  0  0  0  0  0  0  0  0  0  0  0
   35.3962   10.4595   25.7386 H   0  0  0  0  0  0  0  0  0  0  0  0
   33.9269    9.3545   27.4057 H   0  0  0  0  0  0  0  0  0  0  0  0
   28.7056   10.6900   27.3103 H   0  0  0  0  0  0  0  0  0  0  0  0
   27.5572    9.3818   26.9337 H   0  0  0  0  0  0  0  0  0  0  0  0
   27.0151   10.7796   27.8864 H   0  0  0  0  0  0  0  0  0  0  0  0
   22.9910    3.4550   31.2223 H   0  0  0  0  0  0  0  0  0  0  0  0
   22.7243    5.9353   31.8244 H   0  0  0  0  0  0  0  0  0  0  0  0
   22.9512    5.7363   30.0466 H   0  0  0  0  0  0  0  0  0  0  0  0
   27.1700   11.0162   33.0210 H   0  0  0  0  0  0  0  0  0  0  0  0
   27.2965   12.0332   31.5742 H   0  0  0  0  0  0  0  0  0  0  0  0
   28.7364   11.5698   32.4585 H   0  0  0  0  0  0  0  0  0  0  0  0
  6  1  2  0
  2  3  2  0
  4  5  2  0
  1  8  1  0
  2  1  1  0
  7  2  1  0
  7  9  1  0
 10  3  1  0
  4  3  1  0
 12  4  1  0
 10 11  1  0
 14  9  1  0
  9  8  2  0
  8 15  1  0
 13 14  2  0
 16 13  1  0
 15 16  2  0
 11 17  1  0
 12 11  2  0
 20 12  1  0
 17 18  2  0
 18 19  1  0
 19 20  2  0
 10 25  1  0
 25 21  1  0
  7 26  1  0
 26 21  1  0
 25 22  1  0
 26 23  1  0
 22 24  1  0
 23 24  1  0
 24 27  1  0
 27 28  1  0
 27 29  1  0
 28 30  2  0
 28 31  1  0
 32 31  2  0
 36 31  1  0
 32 33  1  0
 33 34  2  0
 34 35  1  0
 35 36  2  0
 23 37  1  0
 37 38  1  0
  5 39  1  0
  6  5  1  0
  6 41  1  0
 39 40  1  0
 40 41  1  0
 39 42  2  0
 26 43  1  6
 13 44  1  0
 14 45  1  0
 15 46  1  0
 16 47  1  0
 17 48  1  0
 18 49  1  0
 19 50  1  0
 20 51  1  0
 22 52  1  0
 22 53  1  0
 23 54  1  1
 24 55  1  6
 25 56  1  6
 29 57  1  0
 29 58  1  0
 29 59  1  0
 32 60  1  0
 33 61  1  0
 34 62  1  0
 35 63  1  0
 36 64  1  0
 38 65  1  0
 38 66  1  0
 38 67  1  0
 40 68  1  0
 41 69  1  0
 41 70  1  0
 43 71  1  0
 43 72  1  0
 43 73  1  0
M  END
> <Uni-Dock RESULT> 
ENERGY=   -4.092  LOWER_BOUND=    2.140  UPPER_BOUND=    8.444
INTER + INTRA:          -4.092
INTER:                  -4.092
INTRA:                   0.000
UNBOUND:                 0.000

$$$$
