
     RDKit          3D

 73 81  0  0  0  0  0  0  0  0999 V2000
   27.0423   16.4752   26.7119 C   0  0  0  0  0  0  0  0  0  0  0  0
   27.5750   15.2354   26.4218 C   0  0  0  0  0  0  0  0  0  0  0  0
   26.8479   13.9423   26.9001 C   0  0  0  0  0  0  0  0  0  0  0  0
   25.6699   13.9935   27.6244 C   0  0  0  0  0  0  0  0  0  0  0  0
   25.2169   15.2899   27.9079 C   0  0  0  0  0  0  0  0  0  0  0  0
   25.8640   16.4924   27.4793 C   0  0  0  0  0  0  0  0  0  0  0  0
   28.7342   15.3739   25.6998 N   0  0  0  0  0  0  0  0  0  0  0  0
   27.8812   17.4329   26.0789 C   0  0  0  0  0  0  0  0  0  0  0  0
   28.8984   16.7311   25.4065 C   0  0  0  0  0  0  0  0  0  0  0  0
   27.2093   12.6483   26.7068 N   0  0  0  0  0  0  0  0  0  0  0  0
   26.2512   11.8118   27.2556 C   0  0  0  0  0  0  0  0  0  0  0  0
   25.2784   12.6353   27.8467 C   0  0  0  0  0  0  0  0  0  0  0  0
   29.7545   18.8204   24.5284 C   0  0  0  0  0  0  0  0  0  0  0  0
   29.8307   17.4236   24.6091 C   0  0  0  0  0  0  0  0  0  0  0  0
   27.8316   18.8427   25.9805 C   0  0  0  0  0  0  0  0  0  0  0  0
   28.7708   19.5240   25.2062 C   0  0  0  0  0  0  0  0  0  0  0  0
   26.1579   10.4076   27.2817 C   0  0  0  0  0  0  0  0  0  0  0  0
   25.0560    9.8276   27.9170 C   0  0  0  0  0  0  0  0  0  0  0  0
   24.0800   10.6176   28.5099 C   0  0  0  0  0  0  0  0  0  0  0  0
   24.1815   12.0124   28.4820 C   0  0  0  0  0  0  0  0  0  0  0  0
   29.4604   13.1600   26.2177 O   0  0  0  0  0  0  0  0  0  0  0  0
   28.1926   11.7814   24.5801 C   0  0  0  0  0  0  0  0  0  0  0  0
   29.3823   13.8262   23.7785 C   0  0  2  0  0  0  0  0  0  0  0  0
   29.3375   12.2789   23.7007 C   0  0  2  0  0  0  0  0  0  0  0  0
   28.4177   12.2120   26.0253 C   0  0  2  0  0  0  0  0  0  0  0  0
   29.6000   14.2526   25.2759 C   0  0  1  0  0  0  0  0  0  0  0  0
   29.2917   11.7499   22.3160 N   0  0  0  0  0  0  0  0  0  0  0  0
   30.4985   11.7163   21.6063 C   0  0  0  0  0  0  0  0  0  0  0  0
   27.9935   11.4588   21.6989 C   0  0  0  0  0  0  0  0  0  0  0  0
   31.5023   12.3144   21.9889 O   0  0  0  0  0  0  0  0  0  0  0  0
   30.5822   10.9250   20.3535 C   0  0  0  0  0  0  0  0  0  0  0  0
   30.1422    9.5938   20.3160 C   0  0  0  0  0  0  0  0  0  0  0  0
   30.2669    8.8538   19.1404 C   0  0  0  0  0  0  0  0  0  0  0  0
   30.8445    9.4368   18.0108 C   0  0  0  0  0  0  0  0  0  0  0  0
   31.3063   10.7533   18.0564 C   0  0  0  0  0  0  0  0  0  0  0  0
   31.1794   11.5012   19.2283 C   0  0  0  0  0  0  0  0  0  0  0  0
   28.1241   14.3323   23.2682 O   0  0  0  0  0  0  0  0  0  0  0  0
   28.2792   15.0700   22.0573 C   0  0  0  0  0  0  0  0  0  0  0  0
   24.0224   15.6873   28.6652 C   0  0  0  0  0  0  0  0  0  0  0  0
   23.9849   17.0658   28.6756 N   0  0  0  0  0  0  0  0  0  0  0  0
   25.0764   17.6734   27.9673 C   0  0  0  0  0  0  0  0  0  0  0  0
   23.1950   14.9697   29.1894 O   0  0  0  0  0  0  0  0  0  0  0  0
   31.0988   14.5793   25.5059 C   0  0  0  0  0  0  0  0  0  0  0  0
   30.4751   19.3641   23.9212 H   0  0  0  0  0  0  0  0  0  0  0  0
   30.5982   16.9158   24.0368 H   0  0  0  0  0  0  0  0  0  0  0  0
   27.0516   19.4051   26.4861 H   0  0  0  0  0  0  0  0  0  0  0  0
   28.7198   20.6081   25.1238 H   0  0  0  0  0  0  0  0  0  0  0  0
   26.9097    9.7742   26.8216 H   0  0  0  0  0  0  0  0  0  0  0  0
   24.9591    8.7462   27.9476 H   0  0  0  0  0  0  0  0  0  0  0  0
   23.2234   10.1534   28.9947 H   0  0  0  0  0  0  0  0  0  0  0  0
   23.4001   12.6093   28.9429 H   0  0  0  0  0  0  0  0  0  0  0  0
   27.2213   12.1606   24.2247 H   0  0  0  0  0  0  0  0  0  0  0  0
   28.1125   10.6832   24.5304 H   0  0  0  0  0  0  0  0  0  0  0  0
   30.2057   14.2174   23.1651 H   0  0  0  0  0  0  0  0  0  0  0  0
   30.2824   11.8986   24.1219 H   0  0  0  0  0  0  0  0  0  0  0  0
   28.7586   11.3325   26.5868 H   0  0  0  0  0  0  0  0  0  0  0  0
   27.2724   12.2432   21.9420 H   0  0  0  0  0  0  0  0  0  0  0  0
   27.6370   10.4962   22.0804 H   0  0  0  0  0  0  0  0  0  0  0  0
   28.0610   11.4146   20.6093 H   0  0  0  0  0  0  0  0  0  0  0  0
   29.7219    9.1272   21.2033 H   0  0  0  0  0  0  0  0  0  0  0  0
   29.9195    7.8229   19.1025 H   0  0  0  0  0  0  0  0  0  0  0  0
   30.9446    8.8595   17.0962 H   0  0  0  0  0  0  0  0  0  0  0  0
   31.7664   11.1937   17.1747 H   0  0  0  0  0  0  0  0  0  0  0  0
   31.5435   12.5274   19.2722 H   0  0  0  0  0  0  0  0  0  0  0  0
   28.9178   15.9426   22.2189 H   0  0  0  0  0  0  0  0  0  0  0  0
   27.2895   15.4129   21.7334 H   0  0  0  0  0  0  0  0  0  0  0  0
   28.7052   14.4420   21.2666 H   0  0  0  0  0  0  0  0  0  0  0  0
   23.2217   17.5603   29.1225 H   0  0  0  0  0  0  0  0  0  0  0  0
   24.6791   18.2723   27.1447 H   0  0  0  0  0  0  0  0  0  0  0  0
   25.6525   18.2875   28.6639 H   0  0  0  0  0  0  0  0  0  0  0  0
   31.5216   15.2417   24.7522 H   0  0  0  0  0  0  0  0  0  0  0  0
   31.7073   13.6644   25.4935 H   0  0  0  0  0  0  0  0  0  0  0  0
   31.2538   15.0375   26.4904 H   0  0  0  0  0  0  0  0  0  0  0  0
  6  1  2  0
  2  3  2  0
  4  5  2  0
  1  8  1  0
  2  1  1  0
  7  2  1  0
  7  9  1  0
 10  3  1  0
  4  3  1  0
 12  4  1  0
 10 11  1  0
 14  9  1  0
  9  8  2  0
  8 15  1  0
 13 14  2  0
 16 13  1  0
 15 16  2  0
 11 17  1  0
 12 11  2  0
 20 12  1  0
 17 18  2  0
 18 19  1  0
 19 20  2  0
 10 25  1  0
 25 21  1  0
  7 26  1  0
 26 21  1  0
 25 22  1  0
 26 23  1  0
 22 24  1  0
 23 24  1  0
 24 27  1  0
 27 28  1  0
 27 29  1  0
 28 30  2  0
 28 31  1  0
 32 31  2  0
 36 31  1  0
 32 33  1  0
 33 34  2  0
 34 35  1  0
 35 36  2  0
 23 37  1  0
 37 38  1  0
  5 39  1  0
  6  5  1  0
  6 41  1  0
 39 40  1  0
 40 41  1  0
 39 42  2  0
 26 43  1  6
 13 44  1  0
 14 45  1  0
 15 46  1  0
 16 47  1  0
 17 48  1  0
 18 49  1  0
 19 50  1  0
 20 51  1  0
 22 52  1  0
 22 53  1  0
 23 54  1  6
 24 55  1  6
 25 56  1  6
 29 57  1  0
 29 58  1  0
 29 59  1  0
 32 60  1  0
 33 61  1  0
 34 62  1  0
 35 63  1  0
 36 64  1  0
 38 65  1  0
 38 66  1  0
 38 67  1  0
 40 68  1  0
 41 69  1  0
 41 70  1  0
 43 71  1  0
 43 72  1  0
 43 73  1  0
M  END
> <Uni-Dock RESULT> 
ENERGY=   -4.760  LOWER_BOUND=    0.000  UPPER_BOUND=    0.000
INTER + INTRA:          -4.760
INTER:                  -4.760
INTRA:                   0.000
UNBOUND:                 0.000

$$$$

     RDKit          3D

 73 81  0  0  0  0  0  0  0  0999 V2000
   23.5678    8.7428   30.4359 C   0  0  0  0  0  0  0  0  0  0  0  0
   24.9239    8.6486   30.6749 C   0  0  0  0  0  0  0  0  0  0  0  0
   25.5661    7.2642   30.9919 C   0  0  0  0  0  0  0  0  0  0  0  0
   24.8108    6.1062   31.0504 C   0  0  0  0  0  0  0  0  0  0  0  0
   23.4386    6.2947   30.8324 C   0  0  0  0  0  0  0  0  0  0  0  0
   22.8245    7.5535   30.5378 C   0  0  0  0  0  0  0  0  0  0  0  0
   25.5109    9.8853   30.5732 N   0  0  0  0  0  0  0  0  0  0  0  0
   23.3102   10.1009   30.1028 C   0  0  0  0  0  0  0  0  0  0  0  0
   24.5368   10.7890   30.1379 C   0  0  0  0  0  0  0  0  0  0  0  0
   26.8678    6.9738   31.2440 N   0  0  0  0  0  0  0  0  0  0  0  0
   27.0120    5.6080   31.4252 C   0  0  0  0  0  0  0  0  0  0  0  0
   25.7303    5.0429   31.3177 C   0  0  0  0  0  0  0  0  0  0  0  0
   23.4236   12.8046   29.3849 C   0  0  0  0  0  0  0  0  0  0  0  0
   24.6015   12.1440   29.7581 C   0  0  0  0  0  0  0  0  0  0  0  0
   22.1378   10.7951   29.7243 C   0  0  0  0  0  0  0  0  0  0  0  0
   22.2057   12.1426   29.3698 C   0  0  0  0  0  0  0  0  0  0  0  0
   28.1555    4.8256   31.6729 C   0  0  0  0  0  0  0  0  0  0  0  0
   27.9966    3.4437   31.8117 C   0  0  0  0  0  0  0  0  0  0  0  0
   26.7413    2.8587   31.7106 C   0  0  0  0  0  0  0  0  0  0  0  0
   25.6095    3.6435   31.4670 C   0  0  0  0  0  0  0  0  0  0  0  0
   27.4477    9.1960   31.7859 O   0  0  0  0  0  0  0  0  0  0  0  0
   28.7867    8.0303   30.0429 C   0  0  0  0  0  0  0  0  0  0  0  0
   27.8033   10.2666   29.5215 C   0  0  2  0  0  0  0  0  0  0  0  0
   29.1260    9.4860   29.7301 C   0  0  2  0  0  0  0  0  0  0  0  0
   27.9433    7.9505   31.3106 C   0  0  2  0  0  0  0  0  0  0  0  0
   26.9405   10.1615   30.8314 C   0  0  1  0  0  0  0  0  0  0  0  0
   30.0947    9.6410   28.6179 N   0  0  0  0  0  0  0  0  0  0  0  0
   30.8399   10.8260   28.5822 C   0  0  0  0  0  0  0  0  0  0  0  0
   30.1062    8.6568   27.5306 C   0  0  0  0  0  0  0  0  0  0  0  0
   30.5522   11.8038   29.2700 O   0  0  0  0  0  0  0  0  0  0  0  0
   32.0266   10.9111   27.6949 C   0  0  0  0  0  0  0  0  0  0  0  0
   33.0064    9.9076   27.7104 C   0  0  0  0  0  0  0  0  0  0  0  0
   34.1345   10.0257   26.8991 C   0  0  0  0  0  0  0  0  0  0  0  0
   34.2914   11.1507   26.0871 C   0  0  0  0  0  0  0  0  0  0  0  0
   33.3288   12.1617   26.0916 C   0  0  0  0  0  0  0  0  0  0  0  0
   32.1945   12.0470   26.8973 C   0  0  0  0  0  0  0  0  0  0  0  0
   27.1136    9.6762   28.3921 O   0  0  0  0  0  0  0  0  0  0  0  0
   27.0168   10.5658   27.2814 C   0  0  0  0  0  0  0  0  0  0  0  0
   22.3716    5.2848   30.8451 C   0  0  0  0  0  0  0  0  0  0  0  0
   21.1878    5.9374   30.5721 N   0  0  0  0  0  0  0  0  0  0  0  0
   21.3480    7.3487   30.3603 C   0  0  0  0  0  0  0  0  0  0  0  0
   22.4726    4.0912   31.0440 O   0  0  0  0  0  0  0  0  0  0  0  0
   27.1226   11.4515   31.6732 C   0  0  0  0  0  0  0  0  0  0  0  0
   23.4630   13.8532   29.0976 H   0  0  0  0  0  0  0  0  0  0  0  0
   25.5340   12.6954   29.7246 H   0  0  0  0  0  0  0  0  0  0  0  0
   21.1806   10.2828   29.6841 H   0  0  0  0  0  0  0  0  0  0  0  0
   21.3020   12.6683   29.0670 H   0  0  0  0  0  0  0  0  0  0  0  0
   29.1448    5.2650   31.7527 H   0  0  0  0  0  0  0  0  0  0  0  0
   28.8640    2.8176   31.9997 H   0  0  0  0  0  0  0  0  0  0  0  0
   26.6325    1.7808   31.8132 H   0  0  0  0  0  0  0  0  0  0  0  0
   24.6399    3.1620   31.3810 H   0  0  0  0  0  0  0  0  0  0  0  0
   28.2491    7.5562   29.2064 H   0  0  0  0  0  0  0  0  0  0  0  0
   29.7057    7.4358   30.1729 H   0  0  0  0  0  0  0  0  0  0  0  0
   28.0117   11.3237   29.3065 H   0  0  0  0  0  0  0  0  0  0  0  0
   29.6294    9.9167   30.6110 H   0  0  0  0  0  0  0  0  0  0  0  0
   28.5937    7.6018   32.1232 H   0  0  0  0  0  0  0  0  0  0  0  0
   29.0847    8.3886   27.2496 H   0  0  0  0  0  0  0  0  0  0  0  0
   30.6419    7.7662   27.8755 H   0  0  0  0  0  0  0  0  0  0  0  0
   30.5915    9.0470   26.6329 H   0  0  0  0  0  0  0  0  0  0  0  0
   32.9026    9.0465   28.3657 H   0  0  0  0  0  0  0  0  0  0  0  0
   34.8943    9.2462   26.9005 H   0  0  0  0  0  0  0  0  0  0  0  0
   35.1716   11.2443   25.4577 H   0  0  0  0  0  0  0  0  0  0  0  0
   33.4670   13.0400   25.4650 H   0  0  0  0  0  0  0  0  0  0  0  0
   31.4425   12.8355   26.9099 H   0  0  0  0  0  0  0  0  0  0  0  0
   26.4493   11.4596   27.5542 H   0  0  0  0  0  0  0  0  0  0  0  0
   26.4908   10.0485   26.4703 H   0  0  0  0  0  0  0  0  0  0  0  0
   28.0108   10.8550   26.9219 H   0  0  0  0  0  0  0  0  0  0  0  0
   20.3170    5.4241   30.5023 H   0  0  0  0  0  0  0  0  0  0  0  0
   21.0159    7.5982   29.3500 H   0  0  0  0  0  0  0  0  0  0  0  0
   20.7685    7.8879   31.1138 H   0  0  0  0  0  0  0  0  0  0  0  0
   27.0096   12.3683   31.0966 H   0  0  0  0  0  0  0  0  0  0  0  0
   28.1236   11.4886   32.1247 H   0  0  0  0  0  0  0  0  0  0  0  0
   26.4092   11.4804   32.5059 H   0  0  0  0  0  0  0  0  0  0  0  0
  6  1  2  0
  2  3  2  0
  4  5  2  0
  1  8  1  0
  2  1  1  0
  7  2  1  0
  7  9  1  0
 10  3  1  0
  4  3  1  0
 12  4  1  0
 10 11  1  0
 14  9  1  0
  9  8  2  0
  8 15  1  0
 13 14  2  0
 16 13  1  0
 15 16  2  0
 11 17  1  0
 12 11  2  0
 20 12  1  0
 17 18  2  0
 18 19  1  0
 19 20  2  0
 10 25  1  0
 25 21  1  0
  7 26  1  0
 26 21  1  0
 25 22  1  0
 26 23  1  0
 22 24  1  0
 23 24  1  0
 24 27  1  0
 27 28  1  0
 27 29  1  0
 28 30  2  0
 28 31  1  0
 32 31  2  0
 36 31  1  0
 32 33  1  0
 33 34  2  0
 34 35  1  0
 35 36  2  0
 23 37  1  0
 37 38  1  0
  5 39  1  0
  6  5  1  0
  6 41  1  0
 39 40  1  0
 40 41  1  0
 39 42  2  0
 26 43  1  6
 13 44  1  0
 14 45  1  0
 15 46  1  0
 16 47  1  0
 17 48  1  0
 18 49  1  0
 19 50  1  0
 20 51  1  0
 22 52  1  0
 22 53  1  0
 23 54  1  6
 24 55  1  6
 25 56  1  6
 29 57  1  0
 29 58  1  0
 29 59  1  0
 32 60  1  0
 33 61  1  0
 34 62  1  0
 35 63  1  0
 36 64  1  0
 38 65  1  0
 38 66  1  0
 38 67  1  0
 40 68  1  0
 41 69  1  0
 41 70  1  0
 43 71  1  0
 43 72  1  0
 43 73  1  0
M  END
> <Uni-Dock RESULT> 
ENERGY=   -4.730  LOWER_BOUND=    5.624  UPPER_BOUND=    8.532
INTER + INTRA:          -4.730
INTER:                  -4.730
INTRA:                   0.000
UNBOUND:                 0.000

$$$$

     RDKit          3D

 73 81  0  0  0  0  0  0  0  0999 V2000
   25.0799    6.5874   31.2312 C   0  0  0  0  0  0  0  0  0  0  0  0
   25.9800    5.6945   31.7767 C   0  0  0  0  0  0  0  0  0  0  0  0
   25.6119    4.1839   31.8860 C   0  0  0  0  0  0  0  0  0  0  0  0
   24.3901    3.6979   31.4545 C   0  0  0  0  0  0  0  0  0  0  0  0
   23.5211    4.6750   30.9483 C   0  0  0  0  0  0  0  0  0  0  0  0
   23.8350    6.0668   30.8354 C   0  0  0  0  0  0  0  0  0  0  0  0
   27.1309    6.3458   32.1448 N   0  0  0  0  0  0  0  0  0  0  0  0
   25.7333    7.8498   31.1984 C   0  0  0  0  0  0  0  0  0  0  0  0
   27.0286    7.6736   31.7187 C   0  0  0  0  0  0  0  0  0  0  0  0
   26.3601    3.1648   32.3801 N   0  0  0  0  0  0  0  0  0  0  0  0
   25.6698    1.9720   32.2402 C   0  0  0  0  0  0  0  0  0  0  0  0
   24.4245    2.2837   31.6694 C   0  0  0  0  0  0  0  0  0  0  0  0
   27.5319    9.9949   31.2421 C   0  0  0  0  0  0  0  0  0  0  0  0
   27.9431    8.7451   31.7239 C   0  0  0  0  0  0  0  0  0  0  0  0
   25.3464    9.1237   30.7216 C   0  0  0  0  0  0  0  0  0  0  0  0
   26.2502   10.1858   30.7494 C   0  0  0  0  0  0  0  0  0  0  0  0
   26.0336    0.6517   32.5653 C   0  0  0  0  0  0  0  0  0  0  0  0
   25.1183   -0.3721   32.3043 C   0  0  0  0  0  0  0  0  0  0  0  0
   23.8801   -0.0924   31.7413 C   0  0  0  0  0  0  0  0  0  0  0  0
   23.5251    1.2227   31.4236 C   0  0  0  0  0  0  0  0  0  0  0  0
   27.8080    4.5763   33.5964 O   0  0  0  0  0  0  0  0  0  0  0  0
   28.8218    2.9433   32.0169 C   0  0  0  0  0  0  0  0  0  0  0  0
   29.4610    5.3519   31.8454 C   0  0  2  0  0  0  0  0  0  0  0  0
   29.9764    3.9291   32.1802 C   0  0  2  0  0  0  0  0  0  0  0  0
   27.6842    3.3084   32.9641 C   0  0  2  0  0  0  0  0  0  0  0  0
   28.2799    5.7059   32.8207 C   0  0  1  0  0  0  0  0  0  0  0  0
   31.1950    3.5414   31.4290 N   0  0  0  0  0  0  0  0  0  0  0  0
   32.4155    4.0538   31.8861 C   0  0  0  0  0  0  0  0  0  0  0  0
   31.0597    2.8045   30.1682 C   0  0  0  0  0  0  0  0  0  0  0  0
   32.4783    4.9715   32.7020 O   0  0  0  0  0  0  0  0  0  0  0  0
   33.6830    3.4682   31.3827 C   0  0  0  0  0  0  0  0  0  0  0  0
   33.8850    2.0803   31.3934 C   0  0  0  0  0  0  0  0  0  0  0  0
   35.0987    1.5517   30.9543 C   0  0  0  0  0  0  0  0  0  0  0  0
   36.1131    2.4079   30.5216 C   0  0  0  0  0  0  0  0  0  0  0  0
   35.9211    3.7904   30.5359 C   0  0  0  0  0  0  0  0  0  0  0  0
   34.7067    4.3257   30.9690 C   0  0  0  0  0  0  0  0  0  0  0  0
   29.0172    5.3494   30.4660 O   0  0  0  0  0  0  0  0  0  0  0  0
   29.8173    6.1836   29.6301 C   0  0  0  0  0  0  0  0  0  0  0  0
   22.1574    4.4954   30.4320 C   0  0  0  0  0  0  0  0  0  0  0  0
   21.7019    5.7367   30.0402 N   0  0  0  0  0  0  0  0  0  0  0  0
   22.6600    6.7874   30.2408 C   0  0  0  0  0  0  0  0  0  0  0  0
   21.5207    3.4655   30.3412 O   0  0  0  0  0  0  0  0  0  0  0  0
   28.8151    6.5874   33.9793 C   0  0  0  0  0  0  0  0  0  0  0  0
   28.2291   10.8301   31.2496 H   0  0  0  0  0  0  0  0  0  0  0  0
   28.9643    8.6372   32.0704 H   0  0  0  0  0  0  0  0  0  0  0  0
   24.3534    9.2817   30.3100 H   0  0  0  0  0  0  0  0  0  0  0  0
   25.9509   11.1607   30.3692 H   0  0  0  0  0  0  0  0  0  0  0  0
   26.9977    0.4139   33.0036 H   0  0  0  0  0  0  0  0  0  0  0  0
   25.3767   -1.3998   32.5427 H   0  0  0  0  0  0  0  0  0  0  0  0
   23.1797   -0.8997   31.5363 H   0  0  0  0  0  0  0  0  0  0  0  0
   22.5556    1.4154   30.9739 H   0  0  0  0  0  0  0  0  0  0  0  0
   28.4528    2.9277   30.9790 H   0  0  0  0  0  0  0  0  0  0  0  0
   29.1572    1.9136   32.2224 H   0  0  0  0  0  0  0  0  0  0  0  0
   30.2662    6.0897   31.9657 H   0  0  0  0  0  0  0  0  0  0  0  0
   30.2801    3.9276   33.2398 H   0  0  0  0  0  0  0  0  0  0  0  0
   27.7044    2.5973   33.8002 H   0  0  0  0  0  0  0  0  0  0  0  0
   30.2348    3.2102   29.5773 H   0  0  0  0  0  0  0  0  0  0  0  0
   30.8664    1.7522   30.4014 H   0  0  0  0  0  0  0  0  0  0  0  0
   31.9597    2.8804   29.5533 H   0  0  0  0  0  0  0  0  0  0  0  0
   33.1090    1.4134   31.7602 H   0  0  0  0  0  0  0  0  0  0  0  0
   35.2584    0.4750   30.9522 H   0  0  0  0  0  0  0  0  0  0  0  0
   37.0594    1.9964   30.1827 H   0  0  0  0  0  0  0  0  0  0  0  0
   36.7226    4.4491   30.2089 H   0  0  0  0  0  0  0  0  0  0  0  0
   34.5528    5.4044   30.9884 H   0  0  0  0  0  0  0  0  0  0  0  0
   29.7686    7.2228   29.9660 H   0  0  0  0  0  0  0  0  0  0  0  0
   29.4249    6.1249   28.6080 H   0  0  0  0  0  0  0  0  0  0  0  0
   30.8601    5.8466   29.6217 H   0  0  0  0  0  0  0  0  0  0  0  0
   20.7849    5.8443   29.6227 H   0  0  0  0  0  0  0  0  0  0  0  0
   22.8997    7.2411   29.2765 H   0  0  0  0  0  0  0  0  0  0  0  0
   22.2402    7.5221   30.9324 H   0  0  0  0  0  0  0  0  0  0  0  0
   29.4277    7.4232   33.6446 H   0  0  0  0  0  0  0  0  0  0  0  0
   29.4393    5.9987   34.6657 H   0  0  0  0  0  0  0  0  0  0  0  0
   27.9900    6.9872   34.5815 H   0  0  0  0  0  0  0  0  0  0  0  0
  6  1  2  0
  2  3  2  0
  4  5  2  0
  1  8  1  0
  2  1  1  0
  7  2  1  0
  7  9  1  0
 10  3  1  0
  4  3  1  0
 12  4  1  0
 10 11  1  0
 14  9  1  0
  9  8  2  0
  8 15  1  0
 13 14  2  0
 16 13  1  0
 15 16  2  0
 11 17  1  0
 12 11  2  0
 20 12  1  0
 17 18  2  0
 18 19  1  0
 19 20  2  0
 10 25  1  0
 25 21  1  0
  7 26  1  0
 26 21  1  0
 25 22  1  0
 26 23  1  0
 22 24  1  0
 23 24  1  0
 24 27  1  0
 27 28  1  0
 27 29  1  0
 28 30  2  0
 28 31  1  0
 32 31  2  0
 36 31  1  0
 32 33  1  0
 33 34  2  0
 34 35  1  0
 35 36  2  0
 23 37  1  0
 37 38  1  0
  5 39  1  0
  6  5  1  0
  6 41  1  0
 39 40  1  0
 40 41  1  0
 39 42  2  0
 26 43  1  6
 13 44  1  0
 14 45  1  0
 15 46  1  0
 16 47  1  0
 17 48  1  0
 18 49  1  0
 19 50  1  0
 20 51  1  0
 22 52  1  0
 22 53  1  0
 23 54  1  6
 24 55  1  6
 25 56  1  6
 29 57  1  0
 29 58  1  0
 29 59  1  0
 32 60  1  0
 33 61  1  0
 34 62  1  0
 35 63  1  0
 36 64  1  0
 38 65  1  0
 38 66  1  0
 38 67  1  0
 40 68  1  0
 41 69  1  0
 41 70  1  0
 43 71  1  0
 43 72  1  0
 43 73  1  0
M  END
> <Uni-Dock RESULT> 
ENERGY=   -4.531  LOWER_BOUND=    8.817  UPPER_BOUND=   11.944
INTER + INTRA:          -4.531
INTER:                  -4.531
INTRA:                   0.000
UNBOUND:                 0.000

$$$$

     RDKit          3D

 73 81  0  0  0  0  0  0  0  0999 V2000
   30.1197    9.6713   28.1020 C   0  0  0  0  0  0  0  0  0  0  0  0
   29.4075    9.1129   29.1441 C   0  0  0  0  0  0  0  0  0  0  0  0
   27.8810    9.3945   29.2855 C   0  0  0  0  0  0  0  0  0  0  0  0
   27.2031   10.2048   28.3916 C   0  0  0  0  0  0  0  0  0  0  0  0
   28.0063   10.7612   27.3859 C   0  0  0  0  0  0  0  0  0  0  0  0
   29.4083   10.5174   27.2328 C   0  0  0  0  0  0  0  0  0  0  0  0
   30.2331    8.3420   29.9241 N   0  0  0  0  0  0  0  0  0  0  0  0
   31.4451    9.1665   28.2029 C   0  0  0  0  0  0  0  0  0  0  0  0
   31.4877    8.2972   29.3083 C   0  0  0  0  0  0  0  0  0  0  0  0
   27.0199    8.9340   30.2282 N   0  0  0  0  0  0  0  0  0  0  0  0
   25.7411    9.3884   29.9504 C   0  0  0  0  0  0  0  0  0  0  0  0
   25.8334   10.1975   28.8056 C   0  0  0  0  0  0  0  0  0  0  0  0
   33.7945    7.7638   28.7954 C   0  0  0  0  0  0  0  0  0  0  0  0
   32.6616    7.5743   29.5978 C   0  0  0  0  0  0  0  0  0  0  0  0
   32.6052    9.3390   27.4130 C   0  0  0  0  0  0  0  0  0  0  0  0
   33.7708    8.6360   27.7180 C   0  0  0  0  0  0  0  0  0  0  0  0
   24.5170    9.1573   30.6056 C   0  0  0  0  0  0  0  0  0  0  0  0
   23.3643    9.7558   30.0886 C   0  0  0  0  0  0  0  0  0  0  0  0
   23.4268   10.5606   28.9587 C   0  0  0  0  0  0  0  0  0  0  0  0
   24.6477   10.7876   28.3149 C   0  0  0  0  0  0  0  0  0  0  0  0
   28.7185    8.3766   31.7684 O   0  0  0  0  0  0  0  0  0  0  0  0
   27.0771    6.6125   31.1492 C   0  0  0  0  0  0  0  0  0  0  0  0
   29.5179    6.1196   30.9517 C   0  0  2  0  0  0  0  0  0  0  0  0
   28.2128    5.7561   31.7046 C   0  0  2  0  0  0  0  0  0  0  0  0
   27.3881    8.0909   31.3545 C   0  0  2  0  0  0  0  0  0  0  0  0
   29.8152    7.6490   31.1617 C   0  0  1  0  0  0  0  0  0  0  0  0
   27.9095    4.3044   31.7108 N   0  0  0  0  0  0  0  0  0  0  0  0
   28.6158    3.5095   32.6220 C   0  0  0  0  0  0  0  0  0  0  0  0
   27.0386    3.7463   30.6711 C   0  0  0  0  0  0  0  0  0  0  0  0
   29.6113    3.9186   33.2166 O   0  0  0  0  0  0  0  0  0  0  0  0
   28.1482    2.1276   32.8950 C   0  0  0  0  0  0  0  0  0  0  0  0
   26.8053    1.8748   33.2110 C   0  0  0  0  0  0  0  0  0  0  0  0
   26.3936    0.5750   33.5044 C   0  0  0  0  0  0  0  0  0  0  0  0
   27.3238   -0.4662   33.4982 C   0  0  0  0  0  0  0  0  0  0  0  0
   28.6652   -0.2099   33.2094 C   0  0  0  0  0  0  0  0  0  0  0  0
   29.0829    1.0880   32.9094 C   0  0  0  0  0  0  0  0  0  0  0  0
   29.3207    5.8128   29.5493 O   0  0  0  0  0  0  0  0  0  0  0  0
   30.1616    4.7538   29.0952 C   0  0  0  0  0  0  0  0  0  0  0  0
   27.6042   11.6702   26.3039 C   0  0  0  0  0  0  0  0  0  0  0  0
   28.7320   11.9424   25.5585 N   0  0  0  0  0  0  0  0  0  0  0  0
   29.9106   11.2784   26.0404 C   0  0  0  0  0  0  0  0  0  0  0  0
   26.4979   12.1127   26.0700 O   0  0  0  0  0  0  0  0  0  0  0  0
   30.8693    7.8192   32.2868 C   0  0  0  0  0  0  0  0  0  0  0  0
   34.7079    7.2156   29.0163 H   0  0  0  0  0  0  0  0  0  0  0  0
   32.7195    6.8590   30.4099 H   0  0  0  0  0  0  0  0  0  0  0  0
   32.5939   10.0003   26.5511 H   0  0  0  0  0  0  0  0  0  0  0  0
   34.6568    8.7631   27.0987 H   0  0  0  0  0  0  0  0  0  0  0  0
   24.4486    8.5294   31.4883 H   0  0  0  0  0  0  0  0  0  0  0  0
   22.4069    9.5900   30.5739 H   0  0  0  0  0  0  0  0  0  0  0  0
   22.5207   11.0145   28.5621 H   0  0  0  0  0  0  0  0  0  0  0  0
   24.6696   11.4117   27.4266 H   0  0  0  0  0  0  0  0  0  0  0  0
   26.9108    6.4111   30.0790 H   0  0  0  0  0  0  0  0  0  0  0  0
   26.1241    6.3635   31.6440 H   0  0  0  0  0  0  0  0  0  0  0  0
   30.3603    5.5286   31.3370 H   0  0  0  0  0  0  0  0  0  0  0  0
   28.3562    6.0237   32.7642 H   0  0  0  0  0  0  0  0  0  0  0  0
   26.7728    8.4489   32.1902 H   0  0  0  0  0  0  0  0  0  0  0  0
   27.2750    4.1878   29.6997 H   0  0  0  0  0  0  0  0  0  0  0  0
   25.9990    3.9665   30.9354 H   0  0  0  0  0  0  0  0  0  0  0  0
   27.1660    2.6659   30.5695 H   0  0  0  0  0  0  0  0  0  0  0  0
   26.0855    2.6885   33.2483 H   0  0  0  0  0  0  0  0  0  0  0  0
   25.3512    0.3712   33.7421 H   0  0  0  0  0  0  0  0  0  0  0  0
   27.0038   -1.4779   33.7299 H   0  0  0  0  0  0  0  0  0  0  0  0
   29.3841   -1.0261   33.2200 H   0  0  0  0  0  0  0  0  0  0  0  0
   30.1297    1.2956   32.6892 H   0  0  0  0  0  0  0  0  0  0  0  0
   31.2146    5.0265   29.2044 H   0  0  0  0  0  0  0  0  0  0  0  0
   29.9514    4.5780   28.0336 H   0  0  0  0  0  0  0  0  0  0  0  0
   29.9605    3.8286   29.6470 H   0  0  0  0  0  0  0  0  0  0  0  0
   28.6800   12.5322   24.7362 H   0  0  0  0  0  0  0  0  0  0  0  0
   30.2920   10.6164   25.2597 H   0  0  0  0  0  0  0  0  0  0  0  0
   30.6518   12.0311   26.3203 H   0  0  0  0  0  0  0  0  0  0  0  0
   31.7382    7.1730   32.1721 H   0  0  0  0  0  0  0  0  0  0  0  0
   30.4364    7.5878   33.2698 H   0  0  0  0  0  0  0  0  0  0  0  0
   31.2195    8.8572   32.3424 H   0  0  0  0  0  0  0  0  0  0  0  0
  6  1  2  0
  2  3  2  0
  4  5  2  0
  1  8  1  0
  2  1  1  0
  7  2  1  0
  7  9  1  0
 10  3  1  0
  4  3  1  0
 12  4  1  0
 10 11  1  0
 14  9  1  0
  9  8  2  0
  8 15  1  0
 13 14  2  0
 16 13  1  0
 15 16  2  0
 11 17  1  0
 12 11  2  0
 20 12  1  0
 17 18  2  0
 18 19  1  0
 19 20  2  0
 10 25  1  0
 25 21  1  0
  7 26  1  0
 26 21  1  0
 25 22  1  0
 26 23  1  0
 22 24  1  0
 23 24  1  0
 24 27  1  0
 27 28  1  0
 27 29  1  0
 28 30  2  0
 28 31  1  0
 32 31  2  0
 36 31  1  0
 32 33  1  0
 33 34  2  0
 34 35  1  0
 35 36  2  0
 23 37  1  0
 37 38  1  0
  5 39  1  0
  6  5  1  0
  6 41  1  0
 39 40  1  0
 40 41  1  0
 39 42  2  0
 26 43  1  6
 13 44  1  0
 14 45  1  0
 15 46  1  0
 16 47  1  0
 17 48  1  0
 18 49  1  0
 19 50  1  0
 20 51  1  0
 22 52  1  0
 22 53  1  0
 23 54  1  6
 24 55  1  6
 25 56  1  6
 29 57  1  0
 29 58  1  0
 29 59  1  0
 32 60  1  0
 33 61  1  0
 34 62  1  0
 35 63  1  0
 36 64  1  0
 38 65  1  0
 38 66  1  0
 38 67  1  0
 40 68  1  0
 41 69  1  0
 41 70  1  0
 43 71  1  0
 43 72  1  0
 43 73  1  0
M  END
> <Uni-Dock RESULT> 
ENERGY=   -4.500  LOWER_BOUND=    6.539  UPPER_BOUND=   10.316
INTER + INTRA:          -4.500
INTER:                  -4.500
INTRA:                   0.000
UNBOUND:                 0.000

$$$$

     RDKit          3D

 73 81  0  0  0  0  0  0  0  0999 V2000
   25.3024   13.1770   20.7473 C   0  0  0  0  0  0  0  0  0  0  0  0
   26.4512   12.8183   21.4231 C   0  0  0  0  0  0  0  0  0  0  0  0
   27.4781   11.8523   20.7585 C   0  0  0  0  0  0  0  0  0  0  0  0
   27.2724   11.3261   19.4953 C   0  0  0  0  0  0  0  0  0  0  0  0
   26.0655   11.7108   18.8940 C   0  0  0  0  0  0  0  0  0  0  0  0
   25.1073   12.5970   19.4812 C   0  0  0  0  0  0  0  0  0  0  0  0
   26.4911   13.4318   22.6504 N   0  0  0  0  0  0  0  0  0  0  0  0
   24.6250   14.1157   21.5730 C   0  0  0  0  0  0  0  0  0  0  0  0
   25.4035   14.3070   22.7292 C   0  0  0  0  0  0  0  0  0  0  0  0
   28.6552   11.3961   21.2573 N   0  0  0  0  0  0  0  0  0  0  0  0
   29.2803   10.5969   20.3142 C   0  0  0  0  0  0  0  0  0  0  0  0
   28.4250   10.5304   19.2017 C   0  0  0  0  0  0  0  0  0  0  0  0
   23.8366   15.9850   23.5023 C   0  0  0  0  0  0  0  0  0  0  0  0
   25.0209   15.2610   23.6925 C   0  0  0  0  0  0  0  0  0  0  0  0
   23.4334   14.8595   21.4101 C   0  0  0  0  0  0  0  0  0  0  0  0
   23.0494   15.7873   22.3784 C   0  0  0  0  0  0  0  0  0  0  0  0
   30.5197    9.9305   20.3450 C   0  0  0  0  0  0  0  0  0  0  0  0
   30.9000    9.1847   19.2255 C   0  0  0  0  0  0  0  0  0  0  0  0
   30.0738    9.1013   18.1125 C   0  0  0  0  0  0  0  0  0  0  0  0
   28.8423    9.7643   18.0909 C   0  0  0  0  0  0  0  0  0  0  0  0
   28.1076   11.8938   23.4980 O   0  0  0  0  0  0  0  0  0  0  0  0
   30.2390   12.7976   22.5871 C   0  0  0  0  0  0  0  0  0  0  0  0
   28.6298   14.3621   23.6835 C   0  0  2  0  0  0  0  0  0  0  0  0
   30.0354   13.7174   23.7888 C   0  0  2  0  0  0  0  0  0  0  0  0
   29.1767   11.7038   22.5795 C   0  0  2  0  0  0  0  0  0  0  0  0
   27.5488   13.2209   23.6620 C   0  0  1  0  0  0  0  0  0  0  0  0
   31.1319   14.6986   23.9743 N   0  0  0  0  0  0  0  0  0  0  0  0
   31.3114   15.2178   25.2624 C   0  0  0  0  0  0  0  0  0  0  0  0
   31.8492   15.2073   22.8006 C   0  0  0  0  0  0  0  0  0  0  0  0
   30.4705   15.0808   26.1489 O   0  0  0  0  0  0  0  0  0  0  0  0
   32.5616   15.9511   25.5820 C   0  0  0  0  0  0  0  0  0  0  0  0
   33.8141   15.4011   25.2723 C   0  0  0  0  0  0  0  0  0  0  0  0
   34.9784   16.0868   25.6175 C   0  0  0  0  0  0  0  0  0  0  0  0
   34.8919   17.3104   26.2845 C   0  0  0  0  0  0  0  0  0  0  0  0
   33.6457   17.8448   26.6159 C   0  0  0  0  0  0  0  0  0  0  0  0
   32.4763   17.1661   26.2684 C   0  0  0  0  0  0  0  0  0  0  0  0
   28.5905   15.1428   22.4634 O   0  0  0  0  0  0  0  0  0  0  0  0
   28.4637   16.5419   22.7103 C   0  0  0  0  0  0  0  0  0  0  0  0
   25.5421   11.3170   17.5789 C   0  0  0  0  0  0  0  0  0  0  0  0
   24.3273   11.9492   17.4165 N   0  0  0  0  0  0  0  0  0  0  0  0
   23.9571   12.7730   18.5329 C   0  0  0  0  0  0  0  0  0  0  0  0
   26.0552   10.5846   16.7574 O   0  0  0  0  0  0  0  0  0  0  0  0
   26.9464   13.0552   25.0817 C   0  0  0  0  0  0  0  0  0  0  0  0
   23.5292   16.7182   24.2450 H   0  0  0  0  0  0  0  0  0  0  0  0
   25.6184   15.4727   24.5716 H   0  0  0  0  0  0  0  0  0  0  0  0
   22.8196   14.7328   20.5227 H   0  0  0  0  0  0  0  0  0  0  0  0
   22.1378   16.3661   22.2414 H   0  0  0  0  0  0  0  0  0  0  0  0
   31.1796    9.9862   21.2050 H   0  0  0  0  0  0  0  0  0  0  0  0
   31.8533    8.6641   19.2231 H   0  0  0  0  0  0  0  0  0  0  0  0
   30.3852    8.5234   17.2446 H   0  0  0  0  0  0  0  0  0  0  0  0
   28.2184    9.6933   17.2049 H   0  0  0  0  0  0  0  0  0  0  0  0
   30.2015   13.3609   21.6412 H   0  0  0  0  0  0  0  0  0  0  0  0
   31.2410   12.3389   22.6135 H   0  0  0  0  0  0  0  0  0  0  0  0
   28.4454   15.0223   24.5422 H   0  0  0  0  0  0  0  0  0  0  0  0
   30.0480   13.0975   24.7000 H   0  0  0  0  0  0  0  0  0  0  0  0
   29.6514   10.7747   22.9208 H   0  0  0  0  0  0  0  0  0  0  0  0
   31.1495   15.4108   21.9861 H   0  0  0  0  0  0  0  0  0  0  0  0
   32.5762   14.4517   22.4849 H   0  0  0  0  0  0  0  0  0  0  0  0
   32.3694   16.1438   23.0153 H   0  0  0  0  0  0  0  0  0  0  0  0
   33.8849   14.4335   24.7821 H   0  0  0  0  0  0  0  0  0  0  0  0
   35.9532   15.6691   25.3723 H   0  0  0  0  0  0  0  0  0  0  0  0
   35.7987   17.8429   26.5563 H   0  0  0  0  0  0  0  0  0  0  0  0
   33.5898   18.7924   27.1471 H   0  0  0  0  0  0  0  0  0  0  0  0
   31.5006   17.5750   26.5296 H   0  0  0  0  0  0  0  0  0  0  0  0
   27.5318   16.7549   23.2408 H   0  0  0  0  0  0  0  0  0  0  0  0
   28.4465   17.0620   21.7453 H   0  0  0  0  0  0  0  0  0  0  0  0
   29.3136   16.9167   23.2918 H   0  0  0  0  0  0  0  0  0  0  0  0
   23.7975   11.8417   16.5595 H   0  0  0  0  0  0  0  0  0  0  0  0
   23.8555   13.8070   18.1956 H   0  0  0  0  0  0  0  0  0  0  0  0
   23.0209   12.3986   18.9543 H   0  0  0  0  0  0  0  0  0  0  0  0
   26.6423   13.9953   25.5392 H   0  0  0  0  0  0  0  0  0  0  0  0
   27.6729   12.5961   25.7663 H   0  0  0  0  0  0  0  0  0  0  0  0
   26.0771   12.3863   25.0633 H   0  0  0  0  0  0  0  0  0  0  0  0
  6  1  2  0
  2  3  2  0
  4  5  2  0
  1  8  1  0
  2  1  1  0
  7  2  1  0
  7  9  1  0
 10  3  1  0
  4  3  1  0
 12  4  1  0
 10 11  1  0
 14  9  1  0
  9  8  2  0
  8 15  1  0
 13 14  2  0
 16 13  1  0
 15 16  2  0
 11 17  1  0
 12 11  2  0
 20 12  1  0
 17 18  2  0
 18 19  1  0
 19 20  2  0
 10 25  1  0
 25 21  1  0
  7 26  1  0
 26 21  1  0
 25 22  1  0
 26 23  1  0
 22 24  1  0
 23 24  1  0
 24 27  1  0
 27 28  1  0
 27 29  1  0
 28 30  2  0
 28 31  1  0
 32 31  2  0
 36 31  1  0
 32 33  1  0
 33 34  2  0
 34 35  1  0
 35 36  2  0
 23 37  1  0
 37 38  1  0
  5 39  1  0
  6  5  1  0
  6 41  1  0
 39 40  1  0
 40 41  1  0
 39 42  2  0
 26 43  1  6
 13 44  1  0
 14 45  1  0
 15 46  1  0
 16 47  1  0
 17 48  1  0
 18 49  1  0
 19 50  1  0
 20 51  1  0
 22 52  1  0
 22 53  1  0
 23 54  1  6
 24 55  1  6
 25 56  1  6
 29 57  1  0
 29 58  1  0
 29 59  1  0
 32 60  1  0
 33 61  1  0
 34 62  1  0
 35 63  1  0
 36 64  1  0
 38 65  1  0
 38 66  1  0
 38 67  1  0
 40 68  1  0
 41 69  1  0
 41 70  1  0
 43 71  1  0
 43 72  1  0
 43 73  1  0
M  END
> <Uni-Dock RESULT> 
ENERGY=   -4.330  LOWER_BOUND=    3.337  UPPER_BOUND=    7.844
INTER + INTRA:          -4.330
INTER:                  -4.330
INTRA:                   0.000
UNBOUND:                 0.000

$$$$

     RDKit          3D

 73 81  0  0  0  0  0  0  0  0999 V2000
   25.6866   13.2753   21.4335 C   0  0  0  0  0  0  0  0  0  0  0  0
   26.9468   12.9485   21.8919 C   0  0  0  0  0  0  0  0  0  0  0  0
   27.8261   11.9335   21.1006 C   0  0  0  0  0  0  0  0  0  0  0  0
   27.3779   11.3319   19.9378 C   0  0  0  0  0  0  0  0  0  0  0  0
   26.0753   11.6899   19.5621 C   0  0  0  0  0  0  0  0  0  0  0  0
   25.2485   12.6198   20.2692 C   0  0  0  0  0  0  0  0  0  0  0  0
   27.2252   13.6365   23.0466 N   0  0  0  0  0  0  0  0  0  0  0  0
   25.1818   14.2698   22.3156 C   0  0  0  0  0  0  0  0  0  0  0  0
   26.1717   14.5251   23.2822 C   0  0  0  0  0  0  0  0  0  0  0  0
   29.0796   11.4980   21.3863 N   0  0  0  0  0  0  0  0  0  0  0  0
   29.5097   10.6361   20.3909 C   0  0  0  0  0  0  0  0  0  0  0  0
   28.4527   10.5088   19.4742 C   0  0  0  0  0  0  0  0  0  0  0  0
   24.7821   16.2624   24.2411 C   0  0  0  0  0  0  0  0  0  0  0  0
   25.9829   15.5405   24.2403 C   0  0  0  0  0  0  0  0  0  0  0  0
   23.9792   15.0132   22.3434 C   0  0  0  0  0  0  0  0  0  0  0  0
   23.7901   16.0028   23.3081 C   0  0  0  0  0  0  0  0  0  0  0  0
   30.7329    9.9613   20.2196 C   0  0  0  0  0  0  0  0  0  0  0  0
   30.8882    9.1439   19.0962 C   0  0  0  0  0  0  0  0  0  0  0  0
   29.8597    8.9995   18.1744 C   0  0  0  0  0  0  0  0  0  0  0  0
   28.6460    9.6714   18.3533 C   0  0  0  0  0  0  0  0  0  0  0  0
   28.9812   12.1388   23.6553 O   0  0  0  0  0  0  0  0  0  0  0  0
   30.8896   12.9643   22.2891 C   0  0  0  0  0  0  0  0  0  0  0  0
   29.5224   14.6089   23.5797 C   0  0  2  0  0  0  0  0  0  0  0  0
   30.9231   13.9588   23.4474 C   0  0  2  0  0  0  0  0  0  0  0  0
   29.8497   11.8822   22.5586 C   0  0  2  0  0  0  0  0  0  0  0  0
   28.4616   13.4787   23.8423 C   0  0  1  0  0  0  0  0  0  0  0  0
   32.0318   14.9392   23.3523 N   0  0  0  0  0  0  0  0  0  0  0  0
   32.4593   15.5356   24.5451 C   0  0  0  0  0  0  0  0  0  0  0  0
   32.5032   15.3674   22.0312 C   0  0  0  0  0  0  0  0  0  0  0  0
   31.8093   15.4617   25.5861 O   0  0  0  0  0  0  0  0  0  0  0  0
   33.7457   16.2755   24.5666 C   0  0  0  0  0  0  0  0  0  0  0  0
   34.9146   15.6956   24.0523 C   0  0  0  0  0  0  0  0  0  0  0  0
   36.1220   16.3905   24.1187 C   0  0  0  0  0  0  0  0  0  0  0  0
   36.1646   17.6538   24.7118 C   0  0  0  0  0  0  0  0  0  0  0  0
   35.0061   18.2194   25.2470 C   0  0  0  0  0  0  0  0  0  0  0  0
   33.7933   17.5315   25.1789 C   0  0  0  0  0  0  0  0  0  0  0  0
   29.2419   15.3128   22.3446 O   0  0  0  0  0  0  0  0  0  0  0  0
   29.1619   16.7256   22.5234 C   0  0  0  0  0  0  0  0  0  0  0  0
   25.3050   11.2203   18.4025 C   0  0  0  0  0  0  0  0  0  0  0  0
   24.0801   11.8526   18.4423 N   0  0  0  0  0  0  0  0  0  0  0  0
   23.9338   12.7475   19.5558 C   0  0  0  0  0  0  0  0  0  0  0  0
   25.6489   10.4336   17.5439 O   0  0  0  0  0  0  0  0  0  0  0  0
   28.1502   13.4070   25.3601 C   0  0  0  0  0  0  0  0  0  0  0  0
   24.6244   17.0431   24.9823 H   0  0  0  0  0  0  0  0  0  0  0  0
   26.7408   15.8006   24.9700 H   0  0  0  0  0  0  0  0  0  0  0  0
   23.2035   14.8375   21.6034 H   0  0  0  0  0  0  0  0  0  0  0  0
   22.8677   16.5805   23.3166 H   0  0  0  0  0  0  0  0  0  0  0  0
   31.5487   10.0639   20.9282 H   0  0  0  0  0  0  0  0  0  0  0  0
   31.8240    8.6152   18.9395 H   0  0  0  0  0  0  0  0  0  0  0  0
   29.9963    8.3659   17.3002 H   0  0  0  0  0  0  0  0  0  0  0  0
   27.8605    9.5514   17.6132 H   0  0  0  0  0  0  0  0  0  0  0  0
   30.6653   13.4682   21.3355 H   0  0  0  0  0  0  0  0  0  0  0  0
   31.8785   12.4987   22.1471 H   0  0  0  0  0  0  0  0  0  0  0  0
   29.5082   15.3228   24.4149 H   0  0  0  0  0  0  0  0  0  0  0  0
   31.1163   13.3964   24.3755 H   0  0  0  0  0  0  0  0  0  0  0  0
   30.3849   10.9717   22.8577 H   0  0  0  0  0  0  0  0  0  0  0  0
   31.6565   15.5266   21.3587 H   0  0  0  0  0  0  0  0  0  0  0  0
   33.1562   14.5869   21.6269 H   0  0  0  0  0  0  0  0  0  0  0  0
   33.0526   16.3105   22.0805 H   0  0  0  0  0  0  0  0  0  0  0  0
   34.8906   14.6988   23.6193 H   0  0  0  0  0  0  0  0  0  0  0  0
   37.0309   15.9492   23.7137 H   0  0  0  0  0  0  0  0  0  0  0  0
   37.1055   18.1935   24.7664 H   0  0  0  0  0  0  0  0  0  0  0  0
   35.0528   19.1986   25.7184 H   0  0  0  0  0  0  0  0  0  0  0  0
   32.8866   17.9650   25.6003 H   0  0  0  0  0  0  0  0  0  0  0  0
   28.3517   16.9798   23.2120 H   0  0  0  0  0  0  0  0  0  0  0  0
   28.9540   17.1850   21.5499 H   0  0  0  0  0  0  0  0  0  0  0  0
   30.1083   17.1278   22.9023 H   0  0  0  0  0  0  0  0  0  0  0  0
   23.3926   11.6971   17.7144 H   0  0  0  0  0  0  0  0  0  0  0  0
   23.7650   13.7595   19.1809 H   0  0  0  0  0  0  0  0  0  0  0  0
   23.0997   12.4087   20.1753 H   0  0  0  0  0  0  0  0  0  0  0  0
   27.9390   14.3766   25.8085 H   0  0  0  0  0  0  0  0  0  0  0  0
   28.9984   12.9845   25.9163 H   0  0  0  0  0  0  0  0  0  0  0  0
   27.2962   12.7465   25.5545 H   0  0  0  0  0  0  0  0  0  0  0  0
  6  1  2  0
  2  3  2  0
  4  5  2  0
  1  8  1  0
  2  1  1  0
  7  2  1  0
  7  9  1  0
 10  3  1  0
  4  3  1  0
 12  4  1  0
 10 11  1  0
 14  9  1  0
  9  8  2  0
  8 15  1  0
 13 14  2  0
 16 13  1  0
 15 16  2  0
 11 17  1  0
 12 11  2  0
 20 12  1  0
 17 18  2  0
 18 19  1  0
 19 20  2  0
 10 25  1  0
 25 21  1  0
  7 26  1  0
 26 21  1  0
 25 22  1  0
 26 23  1  0
 22 24  1  0
 23 24  1  0
 24 27  1  0
 27 28  1  0
 27 29  1  0
 28 30  2  0
 28 31  1  0
 32 31  2  0
 36 31  1  0
 32 33  1  0
 33 34  2  0
 34 35  1  0
 35 36  2  0
 23 37  1  0
 37 38  1  0
  5 39  1  0
  6  5  1  0
  6 41  1  0
 39 40  1  0
 40 41  1  0
 39 42  2  0
 26 43  1  6
 13 44  1  0
 14 45  1  0
 15 46  1  0
 16 47  1  0
 17 48  1  0
 18 49  1  0
 19 50  1  0
 20 51  1  0
 22 52  1  0
 22 53  1  0
 23 54  1  6
 24 55  1  6
 25 56  1  6
 29 57  1  0
 29 58  1  0
 29 59  1  0
 32 60  1  0
 33 61  1  0
 34 62  1  0
 35 63  1  0
 36 64  1  0
 38 65  1  0
 38 66  1  0
 38 67  1  0
 40 68  1  0
 41 69  1  0
 41 70  1  0
 43 71  1  0
 43 72  1  0
 43 73  1  0
M  END
> <Uni-Dock RESULT> 
ENERGY=   -4.210  LOWER_BOUND=    3.384  UPPER_BOUND=    7.503
INTER + INTRA:          -4.210
INTER:                  -4.210
INTRA:                   0.000
UNBOUND:                 0.000

$$$$

     RDKit          3D

 73 81  0  0  0  0  0  0  0  0999 V2000
   23.5273    6.8304   31.0578 C   0  0  0  0  0  0  0  0  0  0  0  0
   24.8163    7.3119   31.1658 C   0  0  0  0  0  0  0  0  0  0  0  0
   26.0106    6.3203   31.3066 C   0  0  0  0  0  0  0  0  0  0  0  0
   25.8210    4.9498   31.3350 C   0  0  0  0  0  0  0  0  0  0  0  0
   24.4805    4.5459   31.2572 C   0  0  0  0  0  0  0  0  0  0  0  0
   23.3667    5.4350   31.1256 C   0  0  0  0  0  0  0  0  0  0  0  0
   24.8163    8.6837   31.1162 N   0  0  0  0  0  0  0  0  0  0  0  0
   22.6886    7.9622   30.8644 C   0  0  0  0  0  0  0  0  0  0  0  0
   23.5102    9.1042   30.8473 C   0  0  0  0  0  0  0  0  0  0  0  0
   27.3341    6.6007   31.4159 N   0  0  0  0  0  0  0  0  0  0  0  0
   28.0561    5.4196   31.4681 C   0  0  0  0  0  0  0  0  0  0  0  0
   27.1251    4.3682   31.4286 C   0  0  0  0  0  0  0  0  0  0  0  0
   21.5769   10.4835   30.3689 C   0  0  0  0  0  0  0  0  0  0  0  0
   22.9578   10.3719   30.5784 C   0  0  0  0  0  0  0  0  0  0  0  0
   21.2981    8.1067   30.6520 C   0  0  0  0  0  0  0  0  0  0  0  0
   20.7546    9.3680   30.4073 C   0  0  0  0  0  0  0  0  0  0  0  0
   29.4422    5.1880   31.5459 C   0  0  0  0  0  0  0  0  0  0  0  0
   29.8929    3.8653   31.5817 C   0  0  0  0  0  0  0  0  0  0  0  0
   28.9948    2.8068   31.5446 C   0  0  0  0  0  0  0  0  0  0  0  0
   27.6186    3.0454   31.4701 C   0  0  0  0  0  0  0  0  0  0  0  0
   26.9907    8.8363   32.0885 O   0  0  0  0  0  0  0  0  0  0  0  0
   28.4811    8.4173   30.1410 C   0  0  0  0  0  0  0  0  0  0  0  0
   26.5995   10.0424   29.8993 C   0  0  2  0  0  0  0  0  0  0  0  0
   28.1418    9.8900   29.9225 C   0  0  2  0  0  0  0  0  0  0  0  0
   27.9024    7.9384   31.4678 C   0  0  2  0  0  0  0  0  0  0  0  0
   26.0189    9.5307   31.2678 C   0  0  1  0  0  0  0  0  0  0  0  0
   28.8200   10.4842   28.7450 N   0  0  0  0  0  0  0  0  0  0  0  0
   28.9918   11.8739   28.7425 C   0  0  0  0  0  0  0  0  0  0  0  0
   29.1150    9.6404   27.5823 C   0  0  0  0  0  0  0  0  0  0  0  0
   28.4041   12.6099   29.5330 O   0  0  0  0  0  0  0  0  0  0  0  0
   29.9219   12.4888   27.7629 C   0  0  0  0  0  0  0  0  0  0  0  0
   31.2259   11.9966   27.6063 C   0  0  0  0  0  0  0  0  0  0  0  0
   32.0983   12.6136   26.7101 C   0  0  0  0  0  0  0  0  0  0  0  0
   31.6746   13.7289   25.9847 C   0  0  0  0  0  0  0  0  0  0  0  0
   30.3854   14.2344   26.1602 C   0  0  0  0  0  0  0  0  0  0  0  0
   29.5054   13.6181   27.0517 C   0  0  0  0  0  0  0  0  0  0  0  0
   26.0933    9.2587   28.7906 O   0  0  0  0  0  0  0  0  0  0  0  0
   25.5046   10.0648   27.7717 C   0  0  0  0  0  0  0  0  0  0  0  0
   23.9429    3.1788   31.2804 C   0  0  0  0  0  0  0  0  0  0  0  0
   22.5718    3.2769   31.1702 N   0  0  0  0  0  0  0  0  0  0  0  0
   22.1014    4.6296   31.0643 C   0  0  0  0  0  0  0  0  0  0  0  0
   24.5560    2.1345   31.3685 O   0  0  0  0  0  0  0  0  0  0  0  0
   25.7418   10.7427   32.1952 C   0  0  0  0  0  0  0  0  0  0  0  0
   21.1405   11.4597   30.1684 H   0  0  0  0  0  0  0  0  0  0  0  0
   23.5634   11.2679   30.5081 H   0  0  0  0  0  0  0  0  0  0  0  0
   20.6452    7.2384   30.6548 H   0  0  0  0  0  0  0  0  0  0  0  0
   19.6854    9.4713   30.2318 H   0  0  0  0  0  0  0  0  0  0  0  0
   30.1591    6.0026   31.5735 H   0  0  0  0  0  0  0  0  0  0  0  0
   30.9580    3.6601   31.6381 H   0  0  0  0  0  0  0  0  0  0  0  0
   29.3593    1.7817   31.5656 H   0  0  0  0  0  0  0  0  0  0  0  0
   26.9364    2.2015   31.4310 H   0  0  0  0  0  0  0  0  0  0  0  0
   28.0974    7.7921   29.3191 H   0  0  0  0  0  0  0  0  0  0  0  0
   29.5727    8.2648   30.1378 H   0  0  0  0  0  0  0  0  0  0  0  0
   26.3203   11.0953   29.7562 H   0  0  0  0  0  0  0  0  0  0  0  0
   28.5180   10.4596   30.7879 H   0  0  0  0  0  0  0  0  0  0  0  0
   28.7290    7.8680   32.1868 H   0  0  0  0  0  0  0  0  0  0  0  0
   28.2741    8.9748   27.3723 H   0  0  0  0  0  0  0  0  0  0  0  0
   30.0102    9.0492   27.8018 H   0  0  0  0  0  0  0  0  0  0  0  0
   29.2844   10.2339   26.6807 H   0  0  0  0  0  0  0  0  0  0  0  0
   31.5689   11.1485   28.1935 H   0  0  0  0  0  0  0  0  0  0  0  0
   33.1088   12.2311   26.5780 H   0  0  0  0  0  0  0  0  0  0  0  0
   32.3551   14.2114   25.2892 H   0  0  0  0  0  0  0  0  0  0  0  0
   30.0696   15.1116   25.5998 H   0  0  0  0  0  0  0  0  0  0  0  0
   28.4997   14.0116   27.1978 H   0  0  0  0  0  0  0  0  0  0  0  0
   24.6516   10.6219   28.1683 H   0  0  0  0  0  0  0  0  0  0  0  0
   25.1524    9.4046   26.9704 H   0  0  0  0  0  0  0  0  0  0  0  0
   26.2374   10.7623   27.3503 H   0  0  0  0  0  0  0  0  0  0  0  0
   21.9937    2.4454   31.1357 H   0  0  0  0  0  0  0  0  0  0  0  0
   21.5801    4.7529   30.1124 H   0  0  0  0  0  0  0  0  0  0  0  0
   21.4418    4.8424   31.9092 H   0  0  0  0  0  0  0  0  0  0  0  0
   25.1896   11.5461   31.7102 H   0  0  0  0  0  0  0  0  0  0  0  0
   26.6808   11.1841   32.5569 H   0  0  0  0  0  0  0  0  0  0  0  0
   25.1841   10.4341   33.0880 H   0  0  0  0  0  0  0  0  0  0  0  0
  6  1  2  0
  2  3  2  0
  4  5  2  0
  1  8  1  0
  2  1  1  0
  7  2  1  0
  7  9  1  0
 10  3  1  0
  4  3  1  0
 12  4  1  0
 10 11  1  0
 14  9  1  0
  9  8  2  0
  8 15  1  0
 13 14  2  0
 16 13  1  0
 15 16  2  0
 11 17  1  0
 12 11  2  0
 20 12  1  0
 17 18  2  0
 18 19  1  0
 19 20  2  0
 10 25  1  0
 25 21  1  0
  7 26  1  0
 26 21  1  0
 25 22  1  0
 26 23  1  0
 22 24  1  0
 23 24  1  0
 24 27  1  0
 27 28  1  0
 27 29  1  0
 28 30  2  0
 28 31  1  0
 32 31  2  0
 36 31  1  0
 32 33  1  0
 33 34  2  0
 34 35  1  0
 35 36  2  0
 23 37  1  0
 37 38  1  0
  5 39  1  0
  6  5  1  0
  6 41  1  0
 39 40  1  0
 40 41  1  0
 39 42  2  0
 26 43  1  6
 13 44  1  0
 14 45  1  0
 15 46  1  0
 16 47  1  0
 17 48  1  0
 18 49  1  0
 19 50  1  0
 20 51  1  0
 22 52  1  0
 22 53  1  0
 23 54  1  6
 24 55  1  6
 25 56  1  6
 29 57  1  0
 29 58  1  0
 29 59  1  0
 32 60  1  0
 33 61  1  0
 34 62  1  0
 35 63  1  0
 36 64  1  0
 38 65  1  0
 38 66  1  0
 38 67  1  0
 40 68  1  0
 41 69  1  0
 41 70  1  0
 43 71  1  0
 43 72  1  0
 43 73  1  0
M  END
> <Uni-Dock RESULT> 
ENERGY=   -3.970  LOWER_BOUND=    5.609  UPPER_BOUND=    9.763
INTER + INTRA:          -3.970
INTER:                  -3.970
INTRA:                   0.000
UNBOUND:                 0.000

$$$$

     RDKit          3D

 73 81  0  0  0  0  0  0  0  0999 V2000
   31.9262   12.2666   24.2475 C   0  0  0  0  0  0  0  0  0  0  0  0
   30.5773   12.1293   24.5057 C   0  0  0  0  0  0  0  0  0  0  0  0
   30.1005   11.4555   25.8279 C   0  0  0  0  0  0  0  0  0  0  0  0
   30.9972   10.9748   26.7660 C   0  0  0  0  0  0  0  0  0  0  0  0
   32.3456   11.1201   26.4101 C   0  0  0  0  0  0  0  0  0  0  0  0
   32.8096   11.7361   25.2044 C   0  0  0  0  0  0  0  0  0  0  0  0
   29.8405   12.6606   23.4766 N   0  0  0  0  0  0  0  0  0  0  0  0
   32.0319   12.9810   23.0227 C   0  0  0  0  0  0  0  0  0  0  0  0
   30.7270   13.2683   22.5822 C   0  0  0  0  0  0  0  0  0  0  0  0
   28.8310   11.2401   26.2572 N   0  0  0  0  0  0  0  0  0  0  0  0
   28.8584   10.6572   27.5135 C   0  0  0  0  0  0  0  0  0  0  0  0
   30.2098   10.4719   27.8498 C   0  0  0  0  0  0  0  0  0  0  0  0
   31.6357   14.5097   20.7109 C   0  0  0  0  0  0  0  0  0  0  0  0
   30.5234   14.0540   21.4309 C   0  0  0  0  0  0  0  0  0  0  0  0
   33.1347   13.4526   22.2736 C   0  0  0  0  0  0  0  0  0  0  0  0
   32.9257   14.2123   21.1225 C   0  0  0  0  0  0  0  0  0  0  0  0
   27.8143   10.2796   28.3785 C   0  0  0  0  0  0  0  0  0  0  0  0
   28.1469    9.7054   29.6089 C   0  0  0  0  0  0  0  0  0  0  0  0
   29.4744    9.5101   29.9667 C   0  0  0  0  0  0  0  0  0  0  0  0
   30.5062    9.8856   29.1002 C   0  0  0  0  0  0  0  0  0  0  0  0
   27.8735   11.4676   24.1125 O   0  0  0  0  0  0  0  0  0  0  0  0
   26.9642   12.8723   25.9536 C   0  0  0  0  0  0  0  0  0  0  0  0
   27.6828   13.9743   23.8302 C   0  0  2  0  0  0  0  0  0  0  0  0
   26.4681   13.6498   24.7365 C   0  0  2  0  0  0  0  0  0  0  0  0
   27.6291   11.5741   25.5095 C   0  0  2  0  0  0  0  0  0  0  0  0
   28.3645   12.6265   23.3941 C   0  0  1  0  0  0  0  0  0  0  0  0
   25.6485   14.8352   25.0867 N   0  0  0  0  0  0  0  0  0  0  0  0
   24.7548   15.3018   24.1147 C   0  0  0  0  0  0  0  0  0  0  0  0
   25.9253   15.5599   26.3313 C   0  0  0  0  0  0  0  0  0  0  0  0
   24.8042   14.9292   22.9440 O   0  0  0  0  0  0  0  0  0  0  0  0
   23.7006   16.2716   24.5034 C   0  0  0  0  0  0  0  0  0  0  0  0
   22.8801   16.0308   25.6152 C   0  0  0  0  0  0  0  0  0  0  0  0
   21.8683   16.9338   25.9402 C   0  0  0  0  0  0  0  0  0  0  0  0
   21.6661   18.0652   25.1476 C   0  0  0  0  0  0  0  0  0  0  0  0
   22.4659   18.2909   24.0260 C   0  0  0  0  0  0  0  0  0  0  0  0
   23.4841   17.3938   23.6982 C   0  0  0  0  0  0  0  0  0  0  0  0
   28.5971   14.8000   24.5931 O   0  0  0  0  0  0  0  0  0  0  0  0
   28.7178   16.1192   24.0640 C   0  0  0  0  0  0  0  0  0  0  0  0
   33.5331   10.7016   27.1672 C   0  0  0  0  0  0  0  0  0  0  0  0
   34.6385   11.0594   26.4245 N   0  0  0  0  0  0  0  0  0  0  0  0
   34.3105   11.7119   25.1880 C   0  0  0  0  0  0  0  0  0  0  0  0
   33.5760   10.1516   28.2490 O   0  0  0  0  0  0  0  0  0  0  0  0
   27.8880   12.2460   21.9679 C   0  0  0  0  0  0  0  0  0  0  0  0
   31.4878   15.1106   19.8160 H   0  0  0  0  0  0  0  0  0  0  0  0
   29.5357   14.3382   21.0870 H   0  0  0  0  0  0  0  0  0  0  0  0
   34.1512   13.2481   22.5979 H   0  0  0  0  0  0  0  0  0  0  0  0
   33.7786   14.5834   20.5572 H   0  0  0  0  0  0  0  0  0  0  0  0
   26.7712   10.4267   28.1169 H   0  0  0  0  0  0  0  0  0  0  0  0
   27.3595    9.4087   30.2957 H   0  0  0  0  0  0  0  0  0  0  0  0
   29.7198    9.0689   30.9308 H   0  0  0  0  0  0  0  0  0  0  0  0
   31.5367    9.7330   29.4067 H   0  0  0  0  0  0  0  0  0  0  0  0
   27.6729   13.4701   26.5485 H   0  0  0  0  0  0  0  0  0  0  0  0
   26.1297   12.6448   26.6367 H   0  0  0  0  0  0  0  0  0  0  0  0
   27.3580   14.5241   22.9360 H   0  0  0  0  0  0  0  0  0  0  0  0
   25.7931   12.9935   24.1634 H   0  0  0  0  0  0  0  0  0  0  0  0
   26.9297   10.7533   25.7149 H   0  0  0  0  0  0  0  0  0  0  0  0
   27.0033   15.6536   26.4850 H   0  0  0  0  0  0  0  0  0  0  0  0
   25.4792   15.0037   27.1623 H   0  0  0  0  0  0  0  0  0  0  0  0
   25.5170   16.5732   26.3123 H   0  0  0  0  0  0  0  0  0  0  0  0
   23.0143   15.1342   26.2150 H   0  0  0  0  0  0  0  0  0  0  0  0
   21.2337   16.7567   26.8067 H   0  0  0  0  0  0  0  0  0  0  0  0
   20.8760   18.7668   25.3988 H   0  0  0  0  0  0  0  0  0  0  0  0
   22.2916   19.1687   23.4077 H   0  0  0  0  0  0  0  0  0  0  0  0
   24.1079   17.5611   22.8205 H   0  0  0  0  0  0  0  0  0  0  0  0
   29.1102   16.0889   23.0440 H   0  0  0  0  0  0  0  0  0  0  0  0
   29.4177   16.6805   24.6942 H   0  0  0  0  0  0  0  0  0  0  0  0
   27.7514   16.6358   24.0727 H   0  0  0  0  0  0  0  0  0  0  0  0
   35.5746   10.8903   26.7736 H   0  0  0  0  0  0  0  0  0  0  0  0
   34.7389   12.7168   25.1898 H   0  0  0  0  0  0  0  0  0  0  0  0
   34.6992   11.1156   24.3588 H   0  0  0  0  0  0  0  0  0  0  0  0
   27.9477   13.0665   21.2545 H   0  0  0  0  0  0  0  0  0  0  0  0
   26.8396   11.9174   21.9779 H   0  0  0  0  0  0  0  0  0  0  0  0
   28.4695   11.4045   21.5715 H   0  0  0  0  0  0  0  0  0  0  0  0
  6  1  2  0
  2  3  2  0
  4  5  2  0
  1  8  1  0
  2  1  1  0
  7  2  1  0
  7  9  1  0
 10  3  1  0
  4  3  1  0
 12  4  1  0
 10 11  1  0
 14  9  1  0
  9  8  2  0
  8 15  1  0
 13 14  2  0
 16 13  1  0
 15 16  2  0
 11 17  1  0
 12 11  2  0
 20 12  1  0
 17 18  2  0
 18 19  1  0
 19 20  2  0
 10 25  1  0
 25 21  1  0
  7 26  1  0
 26 21  1  0
 25 22  1  0
 26 23  1  0
 22 24  1  0
 23 24  1  0
 24 27  1  0
 27 28  1  0
 27 29  1  0
 28 30  2  0
 28 31  1  0
 32 31  2  0
 36 31  1  0
 32 33  1  0
 33 34  2  0
 34 35  1  0
 35 36  2  0
 23 37  1  0
 37 38  1  0
  5 39  1  0
  6  5  1  0
  6 41  1  0
 39 40  1  0
 40 41  1  0
 39 42  2  0
 26 43  1  6
 13 44  1  0
 14 45  1  0
 15 46  1  0
 16 47  1  0
 17 48  1  0
 18 49  1  0
 19 50  1  0
 20 51  1  0
 22 52  1  0
 22 53  1  0
 23 54  1  6
 24 55  1  6
 25 56  1  6
 29 57  1  0
 29 58  1  0
 29 59  1  0
 32 60  1  0
 33 61  1  0
 34 62  1  0
 35 63  1  0
 36 64  1  0
 38 65  1  0
 38 66  1  0
 38 67  1  0
 40 68  1  0
 41 69  1  0
 41 70  1  0
 43 71  1  0
 43 72  1  0
 43 73  1  0
M  END
> <Uni-Dock RESULT> 
ENERGY=   -3.963  LOWER_BOUND=    3.238  UPPER_BOUND=    7.406
INTER + INTRA:          -3.963
INTER:                  -3.963
INTRA:                   0.000
UNBOUND:                 0.000

$$$$

     RDKit          3D

 73 81  0  0  0  0  0  0  0  0999 V2000
   25.6725    6.9200   31.6538 C   0  0  0  0  0  0  0  0  0  0  0  0
   27.0419    7.0211   31.5142 C   0  0  0  0  0  0  0  0  0  0  0  0
   27.9011    5.7388   31.2974 C   0  0  0  0  0  0  0  0  0  0  0  0
   27.3308    4.4790   31.2460 C   0  0  0  0  0  0  0  0  0  0  0  0
   25.9413    4.4611   31.4333 C   0  0  0  0  0  0  0  0  0  0  0  0
   25.1296    5.6230   31.6320 C   0  0  0  0  0  0  0  0  0  0  0  0
   27.4307    8.3356   31.5873 N   0  0  0  0  0  0  0  0  0  0  0  0
   25.1777    8.2493   31.7527 C   0  0  0  0  0  0  0  0  0  0  0  0
   26.2767    9.1222   31.6541 C   0  0  0  0  0  0  0  0  0  0  0  0
   29.2448    5.6390   31.1336 N   0  0  0  0  0  0  0  0  0  0  0  0
   29.5891    4.3144   30.9192 C   0  0  0  0  0  0  0  0  0  0  0  0
   28.4031    3.5653   30.9952 C   0  0  0  0  0  0  0  0  0  0  0  0
   24.7730   11.0196   31.7420 C   0  0  0  0  0  0  0  0  0  0  0  0
   26.0756   10.5162   31.6281 C   0  0  0  0  0  0  0  0  0  0  0  0
   23.8750    8.7871   31.8688 C   0  0  0  0  0  0  0  0  0  0  0  0
   23.6851   10.1690   31.8638 C   0  0  0  0  0  0  0  0  0  0  0  0
   30.8370    3.7148   30.6657 C   0  0  0  0  0  0  0  0  0  0  0  0
   30.8827    2.3296   30.4832 C   0  0  0  0  0  0  0  0  0  0  0  0
   29.7258    1.5647   30.5536 C   0  0  0  0  0  0  0  0  0  0  0  0
   28.4899    2.1679   30.8087 C   0  0  0  0  0  0  0  0  0  0  0  0
   29.6985    7.7610   32.0606 O   0  0  0  0  0  0  0  0  0  0  0  0
   30.6075    7.2539   29.8009 C   0  0  0  0  0  0  0  0  0  0  0  0
   29.2684    9.3369   30.1288 C   0  0  2  0  0  0  0  0  0  0  0  0
   30.6754    8.7794   29.7945 C   0  0  2  0  0  0  0  0  0  0  0  0
   30.1760    6.7552   31.1757 C   0  0  2  0  0  0  0  0  0  0  0  0
   28.8334    8.8014   31.5415 C   0  0  1  0  0  0  0  0  0  0  0  0
   31.2619    9.3394   28.5528 N   0  0  0  0  0  0  0  0  0  0  0  0
   31.8261   10.6185   28.6348 C   0  0  0  0  0  0  0  0  0  0  0  0
   31.0744    8.6287   27.2836 C   0  0  0  0  0  0  0  0  0  0  0  0
   31.6375   11.3589   29.5982 O   0  0  0  0  0  0  0  0  0  0  0  0
   32.6922   11.1023   27.5310 C   0  0  0  0  0  0  0  0  0  0  0  0
   33.7431   10.3106   27.0452 C   0  0  0  0  0  0  0  0  0  0  0  0
   34.5716   10.7995   26.0353 C   0  0  0  0  0  0  0  0  0  0  0  0
   34.3609   12.0815   25.5240 C   0  0  0  0  0  0  0  0  0  0  0  0
   33.3312   12.8791   26.0261 C   0  0  0  0  0  0  0  0  0  0  0  0
   32.4950   12.3937   27.0330 C   0  0  0  0  0  0  0  0  0  0  0  0
   28.3568    8.8879   29.0959 O   0  0  0  0  0  0  0  0  0  0  0  0
   27.8462    9.9624   28.3089 C   0  0  0  0  0  0  0  0  0  0  0  0
   25.0445    3.2975   31.4547 C   0  0  0  0  0  0  0  0  0  0  0  0
   23.7658    3.7708   31.6617 N   0  0  0  0  0  0  0  0  0  0  0  0
   23.6972    5.2000   31.7831 C   0  0  0  0  0  0  0  0  0  0  0  0
   25.3332    2.1268   31.3115 O   0  0  0  0  0  0  0  0  0  0  0  0
   29.1003    9.8929   32.6107 C   0  0  0  0  0  0  0  0  0  0  0  0
   24.6091   12.0951   31.7307 H   0  0  0  0  0  0  0  0  0  0  0  0
   26.8906   11.2198   31.5041 H   0  0  0  0  0  0  0  0  0  0  0  0
   23.0110    8.1323   31.9402 H   0  0  0  0  0  0  0  0  0  0  0  0
   22.6789   10.5769   31.9405 H   0  0  0  0  0  0  0  0  0  0  0  0
   31.7512    4.2968   30.6048 H   0  0  0  0  0  0  0  0  0  0  0  0
   31.8330    1.8434   30.2827 H   0  0  0  0  0  0  0  0  0  0  0  0
   29.7742    0.4881   30.4023 H   0  0  0  0  0  0  0  0  0  0  0  0
   27.5976    1.5503   30.8481 H   0  0  0  0  0  0  0  0  0  0  0  0
   29.9109    6.8812   29.0331 H   0  0  0  0  0  0  0  0  0  0  0  0
   31.5868    6.8196   29.5413 H   0  0  0  0  0  0  0  0  0  0  0  0
   29.2851   10.4354   30.1451 H   0  0  0  0  0  0  0  0  0  0  0  0
   31.3570    9.0947   30.6012 H   0  0  0  0  0  0  0  0  0  0  0  0
   31.0667    6.3630   31.6835 H   0  0  0  0  0  0  0  0  0  0  0  0
   30.0526    8.2484   27.2082 H   0  0  0  0  0  0  0  0  0  0  0  0
   31.7840    7.7956   27.2452 H   0  0  0  0  0  0  0  0  0  0  0  0
   31.2354    9.2823   26.4230 H   0  0  0  0  0  0  0  0  0  0  0  0
   33.9296    9.3250   27.4640 H   0  0  0  0  0  0  0  0  0  0  0  0
   35.3836   10.1866   25.6483 H   0  0  0  0  0  0  0  0  0  0  0  0
   35.0081   12.4635   24.7398 H   0  0  0  0  0  0  0  0  0  0  0  0
   33.1839   13.8813   25.6297 H   0  0  0  0  0  0  0  0  0  0  0  0
   31.6933   13.0137   27.4335 H   0  0  0  0  0  0  0  0  0  0  0  0
   27.2824   10.6609   28.9331 H   0  0  0  0  0  0  0  0  0  0  0  0
   27.1729    9.5449   27.5510 H   0  0  0  0  0  0  0  0  0  0  0  0
   28.6566   10.4949   27.7982 H   0  0  0  0  0  0  0  0  0  0  0  0
   22.9757    3.1368   31.6834 H   0  0  0  0  0  0  0  0  0  0  0  0
   23.0642    5.5962   30.9858 H   0  0  0  0  0  0  0  0  0  0  0  0
   23.2996    5.4530   32.7691 H   0  0  0  0  0  0  0  0  0  0  0  0
   28.7238   10.8764   32.3338 H   0  0  0  0  0  0  0  0  0  0  0  0
   30.1776   10.0112   32.7918 H   0  0  0  0  0  0  0  0  0  0  0  0
   28.6560    9.6150   33.5744 H   0  0  0  0  0  0  0  0  0  0  0  0
  6  1  2  0
  2  3  2  0
  4  5  2  0
  1  8  1  0
  2  1  1  0
  7  2  1  0
  7  9  1  0
 10  3  1  0
  4  3  1  0
 12  4  1  0
 10 11  1  0
 14  9  1  0
  9  8  2  0
  8 15  1  0
 13 14  2  0
 16 13  1  0
 15 16  2  0
 11 17  1  0
 12 11  2  0
 20 12  1  0
 17 18  2  0
 18 19  1  0
 19 20  2  0
 10 25  1  0
 25 21  1  0
  7 26  1  0
 26 21  1  0
 25 22  1  0
 26 23  1  0
 22 24  1  0
 23 24  1  0
 24 27  1  0
 27 28  1  0
 27 29  1  0
 28 30  2  0
 28 31  1  0
 32 31  2  0
 36 31  1  0
 32 33  1  0
 33 34  2  0
 34 35  1  0
 35 36  2  0
 23 37  1  0
 37 38  1  0
  5 39  1  0
  6  5  1  0
  6 41  1  0
 39 40  1  0
 40 41  1  0
 39 42  2  0
 26 43  1  6
 13 44  1  0
 14 45  1  0
 15 46  1  0
 16 47  1  0
 17 48  1  0
 18 49  1  0
 19 50  1  0
 20 51  1  0
 22 52  1  0
 22 53  1  0
 23 54  1  6
 24 55  1  6
 25 56  1  6
 29 57  1  0
 29 58  1  0
 29 59  1  0
 32 60  1  0
 33 61  1  0
 34 62  1  0
 35 63  1  0
 36 64  1  0
 38 65  1  0
 38 66  1  0
 38 67  1  0
 40 68  1  0
 41 69  1  0
 41 70  1  0
 43 71  1  0
 43 72  1  0
 43 73  1  0
M  END
> <Uni-Dock RESULT> 
ENERGY=   -3.797  LOWER_BOUND=    6.352  UPPER_BOUND=    9.734
INTER + INTRA:          -3.797
INTER:                  -3.797
INTRA:                   0.000
UNBOUND:                 0.000

$$$$
