
     RDKit          3D

 73 81  0  0  0  0  0  0  0  0999 V2000
   30.3152   10.1976   27.7358 C   0  0  0  0  0  0  0  0  0  0  0  0
   29.7851    9.4490   28.7641 C   0  0  0  0  0  0  0  0  0  0  0  0
   28.2514    9.4592   29.0441 C   0  0  0  0  0  0  0  0  0  0  0  0
   27.3852   10.2048   28.2619 C   0  0  0  0  0  0  0  0  0  0  0  0
   28.0055   10.9546   27.2508 C   0  0  0  0  0  0  0  0  0  0  0  0
   29.4106   10.9697   26.9881 C   0  0  0  0  0  0  0  0  0  0  0  0
   30.7757    8.7395   29.3971 N   0  0  0  0  0  0  0  0  0  0  0  0
   31.7093    9.9209   27.7163 C   0  0  0  0  0  0  0  0  0  0  0  0
   31.9725    8.9653   28.7173 C   0  0  0  0  0  0  0  0  0  0  0  0
   27.5553    8.8047   30.0129 N   0  0  0  0  0  0  0  0  0  0  0  0
   26.2027    9.0688   29.8555 C   0  0  0  0  0  0  0  0  0  0  0  0
   26.0736    9.9474   28.7668 C   0  0  0  0  0  0  0  0  0  0  0  0
   34.2926    8.8879   28.0268 C   0  0  0  0  0  0  0  0  0  0  0  0
   33.2653    8.4244   28.8562 C   0  0  0  0  0  0  0  0  0  0  0  0
   32.7676   10.3706   26.8954 C   0  0  0  0  0  0  0  0  0  0  0  0
   34.0533    9.8565   27.0641 C   0  0  0  0  0  0  0  0  0  0  0  0
   25.0877    8.6196   30.5868 C   0  0  0  0  0  0  0  0  0  0  0  0
   23.8200    9.0621   30.2030 C   0  0  0  0  0  0  0  0  0  0  0  0
   23.6638    9.9298   29.1299 C   0  0  0  0  0  0  0  0  0  0  0  0
   24.7768   10.3766   28.4106 C   0  0  0  0  0  0  0  0  0  0  0  0
   29.4793    8.4299   31.3544 O   0  0  0  0  0  0  0  0  0  0  0  0
   27.8936    6.5304   31.0718 C   0  0  0  0  0  0  0  0  0  0  0  0
   30.1746    6.3752   30.0546 C   0  0  2  0  0  0  0  0  0  0  0  0
   29.2156    5.7601   31.0969 C   0  0  2  0  0  0  0  0  0  0  0  0
   28.1268    8.0450   31.1197 C   0  0  2  0  0  0  0  0  0  0  0  0
   30.5128    7.8311   30.5280 C   0  0  1  0  0  0  0  0  0  0  0  0
   29.0744    4.2903   30.9687 N   0  0  0  0  0  0  0  0  0  0  0  0
   30.1382    3.5181   31.4500 C   0  0  0  0  0  0  0  0  0  0  0  0
   28.0310    3.7486   30.0991 C   0  0  0  0  0  0  0  0  0  0  0  0
   31.2009    4.0154   31.8195 O   0  0  0  0  0  0  0  0  0  0  0  0
   29.9856    2.0486   31.5534 C   0  0  0  0  0  0  0  0  0  0  0  0
   31.0039    1.2253   31.0620 C   0  0  0  0  0  0  0  0  0  0  0  0
   30.8919   -0.1605   31.1820 C   0  0  0  0  0  0  0  0  0  0  0  0
   29.7756   -0.7195   31.8052 C   0  0  0  0  0  0  0  0  0  0  0  0
   28.7706    0.1035   32.3170 C   0  0  0  0  0  0  0  0  0  0  0  0
   28.8789    1.4896   32.2023 C   0  0  0  0  0  0  0  0  0  0  0  0
   29.4729    6.3564   28.7912 O   0  0  0  0  0  0  0  0  0  0  0  0
   30.2520    5.8212   27.7291 C   0  0  0  0  0  0  0  0  0  0  0  0
   27.3742   11.8477   26.2679 C   0  0  0  0  0  0  0  0  0  0  0  0
   28.3777   12.3561   25.4724 N   0  0  0  0  0  0  0  0  0  0  0  0
   29.6841   11.8763   25.8246 C   0  0  0  0  0  0  0  0  0  0  0  0
   26.1955   12.1138   26.1457 O   0  0  0  0  0  0  0  0  0  0  0  0
   31.6773    7.7854   31.5451 C   0  0  0  0  0  0  0  0  0  0  0  0
   35.2945    8.4792   28.1403 H   0  0  0  0  0  0  0  0  0  0  0  0
   33.5006    7.6534   29.5777 H   0  0  0  0  0  0  0  0  0  0  0  0
   32.5857   11.1109   26.1227 H   0  0  0  0  0  0  0  0  0  0  0  0
   34.8634   10.2060   26.4294 H   0  0  0  0  0  0  0  0  0  0  0  0
   25.1915    7.9448   31.4303 H   0  0  0  0  0  0  0  0  0  0  0  0
   22.9442    8.7255   30.7525 H   0  0  0  0  0  0  0  0  0  0  0  0
   22.6717   10.2689   28.8425 H   0  0  0  0  0  0  0  0  0  0  0  0
   24.6302   11.0565   27.5764 H   0  0  0  0  0  0  0  0  0  0  0  0
   27.2943    6.2281   31.9405 H   0  0  0  0  0  0  0  0  0  0  0  0
   27.2816    6.2701   30.2008 H   0  0  0  0  0  0  0  0  0  0  0  0
   31.0951    5.7875   29.9595 H   0  0  0  0  0  0  0  0  0  0  0  0
   29.6557    5.9059   32.0930 H   0  0  0  0  0  0  0  0  0  0  0  0
   27.5899    8.4239   31.9991 H   0  0  0  0  0  0  0  0  0  0  0  0
   28.0298    4.2855   29.1486 H   0  0  0  0  0  0  0  0  0  0  0  0
   28.1885    2.6934   29.8672 H   0  0  0  0  0  0  0  0  0  0  0  0
   27.0636    3.8687   30.5943 H   0  0  0  0  0  0  0  0  0  0  0  0
   31.8796    1.6607   30.5892 H   0  0  0  0  0  0  0  0  0  0  0  0
   31.6800   -0.8045   30.8001 H   0  0  0  0  0  0  0  0  0  0  0  0
   29.6927   -1.7998   31.9014 H   0  0  0  0  0  0  0  0  0  0  0  0
   27.9102   -0.3375   32.8144 H   0  0  0  0  0  0  0  0  0  0  0  0
   28.1073    2.1271   32.6251 H   0  0  0  0  0  0  0  0  0  0  0  0
   31.1826    6.3785   27.6010 H   0  0  0  0  0  0  0  0  0  0  0  0
   29.6691    5.8950   26.8081 H   0  0  0  0  0  0  0  0  0  0  0  0
   30.4710    4.7658   27.9161 H   0  0  0  0  0  0  0  0  0  0  0  0
   28.1676   12.9992   24.7215 H   0  0  0  0  0  0  0  0  0  0  0  0
   30.3128   12.7252   26.1040 H   0  0  0  0  0  0  0  0  0  0  0  0
   30.1063   11.3357   24.9735 H   0  0  0  0  0  0  0  0  0  0  0  0
   31.3327    7.4369   32.5263 H   0  0  0  0  0  0  0  0  0  0  0  0
   32.4784    7.1083   31.2441 H   0  0  0  0  0  0  0  0  0  0  0  0
   32.1005    8.7830   31.7114 H   0  0  0  0  0  0  0  0  0  0  0  0
  6  1  2  0
  2  3  2  0
  4  5  2  0
  1  8  1  0
  2  1  1  0
  7  2  1  0
  7  9  1  0
 10  3  1  0
  4  3  1  0
 12  4  1  0
 10 11  1  0
 14  9  1  0
  9  8  2  0
  8 15  1  0
 13 14  2  0
 16 13  1  0
 15 16  2  0
 11 17  1  0
 12 11  2  0
 20 12  1  0
 17 18  2  0
 18 19  1  0
 19 20  2  0
 10 25  1  0
 25 21  1  0
  7 26  1  0
 26 21  1  0
 25 22  1  0
 26 23  1  0
 22 24  1  0
 23 24  1  0
 24 27  1  0
 27 28  1  0
 27 29  1  0
 28 30  2  0
 28 31  1  0
 32 31  2  0
 36 31  1  0
 32 33  1  0
 33 34  2  0
 34 35  1  0
 35 36  2  0
 23 37  1  0
 37 38  1  0
  5 39  1  0
  6  5  1  0
  6 41  1  0
 39 40  1  0
 40 41  1  0
 39 42  2  0
 26 43  1  1
 13 44  1  0
 14 45  1  0
 15 46  1  0
 16 47  1  0
 17 48  1  0
 18 49  1  0
 19 50  1  0
 20 51  1  0
 22 52  1  0
 22 53  1  0
 23 54  1  1
 24 55  1  6
 25 56  1  6
 29 57  1  0
 29 58  1  0
 29 59  1  0
 32 60  1  0
 33 61  1  0
 34 62  1  0
 35 63  1  0
 36 64  1  0
 38 65  1  0
 38 66  1  0
 38 67  1  0
 40 68  1  0
 41 69  1  0
 41 70  1  0
 43 71  1  0
 43 72  1  0
 43 73  1  0
M  END
> <Uni-Dock RESULT> 
ENERGY=   -4.912  LOWER_BOUND=    0.000  UPPER_BOUND=    0.000
INTER + INTRA:          -4.912
INTER:                  -4.912
INTRA:                   0.000
UNBOUND:                 0.000

$$$$

     RDKit          3D

 73 81  0  0  0  0  0  0  0  0999 V2000
   30.2712   10.2151   27.7892 C   0  0  0  0  0  0  0  0  0  0  0  0
   29.7460    9.4585   28.8141 C   0  0  0  0  0  0  0  0  0  0  0  0
   28.2124    9.4587   29.0951 C   0  0  0  0  0  0  0  0  0  0  0  0
   27.3416   10.2033   28.3171 C   0  0  0  0  0  0  0  0  0  0  0  0
   27.9571   10.9615   27.3094 C   0  0  0  0  0  0  0  0  0  0  0  0
   29.3619   10.9858   27.0459 C   0  0  0  0  0  0  0  0  0  0  0  0
   30.7410    8.7515   29.4429 N   0  0  0  0  0  0  0  0  0  0  0  0
   31.6669    9.9463   27.7675 C   0  0  0  0  0  0  0  0  0  0  0  0
   31.9361    8.9874   28.7636 C   0  0  0  0  0  0  0  0  0  0  0  0
   27.5206    8.7956   30.0610 N   0  0  0  0  0  0  0  0  0  0  0  0
   26.1665    9.0528   29.9058 C   0  0  0  0  0  0  0  0  0  0  0  0
   26.0318    9.9360   28.8215 C   0  0  0  0  0  0  0  0  0  0  0  0
   34.2561    8.9263   28.0713 C   0  0  0  0  0  0  0  0  0  0  0  0
   33.2320    8.4530   28.8990 C   0  0  0  0  0  0  0  0  0  0  0  0
   32.7221   10.4060   26.9482 C   0  0  0  0  0  0  0  0  0  0  0  0
   34.0108    9.8983   27.1135 C   0  0  0  0  0  0  0  0  0  0  0  0
   25.0544    8.5937   30.6355 C   0  0  0  0  0  0  0  0  0  0  0  0
   23.7840    9.0310   30.2546 C   0  0  0  0  0  0  0  0  0  0  0  0
   23.6223    9.9031   29.1860 C   0  0  0  0  0  0  0  0  0  0  0  0
   24.7323   10.3596   28.4682 C   0  0  0  0  0  0  0  0  0  0  0  0
   29.4475    8.4249   31.3995 O   0  0  0  0  0  0  0  0  0  0  0  0
   27.8723    6.5179   31.1085 C   0  0  0  0  0  0  0  0  0  0  0  0
   30.1535    6.3805   30.0892 C   0  0  2  0  0  0  0  0  0  0  0  0
   29.1987    5.7550   31.1290 C   0  0  2  0  0  0  0  0  0  0  0  0
   28.0970    8.0336   31.1637 C   0  0  2  0  0  0  0  0  0  0  0  0
   30.4839    7.8361   30.5695 C   0  0  1  0  0  0  0  0  0  0  0  0
   29.0657    4.2851   30.9936 N   0  0  0  0  0  0  0  0  0  0  0  0
   30.1340    3.5165   31.4704 C   0  0  0  0  0  0  0  0  0  0  0  0
   28.0248    3.7418   30.1220 C   0  0  0  0  0  0  0  0  0  0  0  0
   31.1942    4.0179   31.8418 O   0  0  0  0  0  0  0  0  0  0  0  0
   29.9898    2.0457   31.5667 C   0  0  0  0  0  0  0  0  0  0  0  0
   31.0124    1.2306   31.0706 C   0  0  0  0  0  0  0  0  0  0  0  0
   30.9083   -0.1565   31.1838 C   0  0  0  0  0  0  0  0  0  0  0  0
   29.7955   -0.7248   31.8049 C   0  0  0  0  0  0  0  0  0  0  0  0
   28.7862    0.0900   32.3213 C   0  0  0  0  0  0  0  0  0  0  0  0
   28.8867    1.4773   32.2135 C   0  0  0  0  0  0  0  0  0  0  0  0
   29.4512    6.3641   28.8261 O   0  0  0  0  0  0  0  0  0  0  0  0
   30.2326    5.8385   27.7609 C   0  0  0  0  0  0  0  0  0  0  0  0
   27.3201   11.8559   26.3313 C   0  0  0  0  0  0  0  0  0  0  0  0
   28.3203   12.3739   25.5376 N   0  0  0  0  0  0  0  0  0  0  0  0
   29.6295   11.8996   25.8867 C   0  0  0  0  0  0  0  0  0  0  0  0
   26.1399   12.1160   26.2111 O   0  0  0  0  0  0  0  0  0  0  0  0
   31.6493    7.7919   31.5857 C   0  0  0  0  0  0  0  0  0  0  0  0
   35.2603    8.5227   28.1822 H   0  0  0  0  0  0  0  0  0  0  0  0
   33.4721    7.6798   29.6166 H   0  0  0  0  0  0  0  0  0  0  0  0
   32.5355   11.1491   26.1792 H   0  0  0  0  0  0  0  0  0  0  0  0
   34.8185   10.2556   26.4801 H   0  0  0  0  0  0  0  0  0  0  0  0
   25.1626    7.9153   31.4756 H   0  0  0  0  0  0  0  0  0  0  0  0
   22.9105    8.6867   30.8031 H   0  0  0  0  0  0  0  0  0  0  0  0
   22.6281   10.2380   28.9008 H   0  0  0  0  0  0  0  0  0  0  0  0
   24.5814   11.0429   27.6375 H   0  0  0  0  0  0  0  0  0  0  0  0
   27.2753    6.2080   31.9761 H   0  0  0  0  0  0  0  0  0  0  0  0
   27.2613    6.2586   30.2366 H   0  0  0  0  0  0  0  0  0  0  0  0
   31.0773    5.7985   29.9906 H   0  0  0  0  0  0  0  0  0  0  0  0
   29.6386    5.8983   32.1256 H   0  0  0  0  0  0  0  0  0  0  0  0
   27.5586    8.4051   32.0453 H   0  0  0  0  0  0  0  0  0  0  0  0
   28.0200    4.2834   29.1741 H   0  0  0  0  0  0  0  0  0  0  0  0
   28.1880    2.6887   29.8847 H   0  0  0  0  0  0  0  0  0  0  0  0
   27.0570    3.8541   30.6183 H   0  0  0  0  0  0  0  0  0  0  0  0
   31.8854    1.6732   30.5994 H   0  0  0  0  0  0  0  0  0  0  0  0
   31.6997   -0.7942   30.7983 H   0  0  0  0  0  0  0  0  0  0  0  0
   29.7187   -1.8060   31.8958 H   0  0  0  0  0  0  0  0  0  0  0  0
   27.9286   -0.3583   32.8172 H   0  0  0  0  0  0  0  0  0  0  0  0
   28.1117    2.1083   32.6399 H   0  0  0  0  0  0  0  0  0  0  0  0
   31.1600    6.4017   27.6350 H   0  0  0  0  0  0  0  0  0  0  0  0
   29.6487    5.9136   26.8406 H   0  0  0  0  0  0  0  0  0  0  0  0
   30.4576    4.7835   27.9426 H   0  0  0  0  0  0  0  0  0  0  0  0
   28.1061   13.0194   24.7901 H   0  0  0  0  0  0  0  0  0  0  0  0
   30.2536   12.7507   26.1700 H   0  0  0  0  0  0  0  0  0  0  0  0
   30.0542   11.3656   25.0327 H   0  0  0  0  0  0  0  0  0  0  0  0
   31.3072    7.4366   32.5654 H   0  0  0  0  0  0  0  0  0  0  0  0
   32.4539    7.1207   31.2808 H   0  0  0  0  0  0  0  0  0  0  0  0
   32.0670    8.7910   31.7567 H   0  0  0  0  0  0  0  0  0  0  0  0
  6  1  2  0
  2  3  2  0
  4  5  2  0
  1  8  1  0
  2  1  1  0
  7  2  1  0
  7  9  1  0
 10  3  1  0
  4  3  1  0
 12  4  1  0
 10 11  1  0
 14  9  1  0
  9  8  2  0
  8 15  1  0
 13 14  2  0
 16 13  1  0
 15 16  2  0
 11 17  1  0
 12 11  2  0
 20 12  1  0
 17 18  2  0
 18 19  1  0
 19 20  2  0
 10 25  1  0
 25 21  1  0
  7 26  1  0
 26 21  1  0
 25 22  1  0
 26 23  1  0
 22 24  1  0
 23 24  1  0
 24 27  1  0
 27 28  1  0
 27 29  1  0
 28 30  2  0
 28 31  1  0
 32 31  2  0
 36 31  1  0
 32 33  1  0
 33 34  2  0
 34 35  1  0
 35 36  2  0
 23 37  1  0
 37 38  1  0
  5 39  1  0
  6  5  1  0
  6 41  1  0
 39 40  1  0
 40 41  1  0
 39 42  2  0
 26 43  1  1
 13 44  1  0
 14 45  1  0
 15 46  1  0
 16 47  1  0
 17 48  1  0
 18 49  1  0
 19 50  1  0
 20 51  1  0
 22 52  1  0
 22 53  1  0
 23 54  1  1
 24 55  1  6
 25 56  1  6
 29 57  1  0
 29 58  1  0
 29 59  1  0
 32 60  1  0
 33 61  1  0
 34 62  1  0
 35 63  1  0
 36 64  1  0
 38 65  1  0
 38 66  1  0
 38 67  1  0
 40 68  1  0
 41 69  1  0
 41 70  1  0
 43 71  1  0
 43 72  1  0
 43 73  1  0
M  END
> <Uni-Dock RESULT> 
ENERGY=   -4.899  LOWER_BOUND=    0.059  UPPER_BOUND=    0.059
INTER + INTRA:          -4.899
INTER:                  -4.899
INTRA:                   0.000
UNBOUND:                 0.000

$$$$

     RDKit          3D

 73 81  0  0  0  0  0  0  0  0999 V2000
   25.7883    6.6412   31.5393 C   0  0  0  0  0  0  0  0  0  0  0  0
   26.5438    5.6235   32.0801 C   0  0  0  0  0  0  0  0  0  0  0  0
   26.0085    4.1593   32.0940 C   0  0  0  0  0  0  0  0  0  0  0  0
   24.7735    3.8427   31.5531 C   0  0  0  0  0  0  0  0  0  0  0  0
   24.0586    4.9370   31.0426 C   0  0  0  0  0  0  0  0  0  0  0  0
   24.5260    6.2880   31.0341 C   0  0  0  0  0  0  0  0  0  0  0  0
   27.7506    6.1081   32.5207 N   0  0  0  0  0  0  0  0  0  0  0  0
   26.5790    7.8189   31.6305 C   0  0  0  0  0  0  0  0  0  0  0  0
   27.8218    7.4608   32.1886 C   0  0  0  0  0  0  0  0  0  0  0  0
   26.5977    3.0388   32.5928 N   0  0  0  0  0  0  0  0  0  0  0  0
   25.7789    1.9473   32.3437 C   0  0  0  0  0  0  0  0  0  0  0  0
   24.6283    2.4286   31.6967 C   0  0  0  0  0  0  0  0  0  0  0  0
   28.6009    9.7361   31.9019 C   0  0  0  0  0  0  0  0  0  0  0  0
   28.8491    8.4177   32.2998 C   0  0  0  0  0  0  0  0  0  0  0  0
   26.3577    9.1584   31.2395 C   0  0  0  0  0  0  0  0  0  0  0  0
   27.3684   10.1084   31.3874 C   0  0  0  0  0  0  0  0  0  0  0  0
   25.9488    0.5834   32.6451 C   0  0  0  0  0  0  0  0  0  0  0  0
   24.9391   -0.3085   32.2774 C   0  0  0  0  0  0  0  0  0  0  0  0
   23.7920    0.1403   31.6359 C   0  0  0  0  0  0  0  0  0  0  0  0
   23.6271    1.4980   31.3439 C   0  0  0  0  0  0  0  0  0  0  0  0
   28.1138    4.2589   33.9547 O   0  0  0  0  0  0  0  0  0  0  0  0
   29.0235    2.3205   32.6826 C   0  0  0  0  0  0  0  0  0  0  0  0
   29.7509    4.6336   32.0640 C   0  0  2  0  0  0  0  0  0  0  0  0
   30.2240    3.2662   32.6035 C   0  0  2  0  0  0  0  0  0  0  0  0
   27.8290    2.9884   33.3740 C   0  0  2  0  0  0  0  0  0  0  0  0
   28.7829    5.2512   33.1317 C   0  0  1  0  0  0  0  0  0  0  0  0
   31.3915    2.7194   31.8724 N   0  0  0  0  0  0  0  0  0  0  0  0
   32.6338    3.2956   32.1626 C   0  0  0  0  0  0  0  0  0  0  0  0
   31.1654    1.8681   30.7051 C   0  0  0  0  0  0  0  0  0  0  0  0
   32.7483    4.2993   32.8644 O   0  0  0  0  0  0  0  0  0  0  0  0
   33.8694    2.6696   31.6386 C   0  0  0  0  0  0  0  0  0  0  0  0
   34.8310    3.4784   31.0245 C   0  0  0  0  0  0  0  0  0  0  0  0
   36.0162    2.9101   30.5556 C   0  0  0  0  0  0  0  0  0  0  0  0
   36.2461    1.5431   30.7151 C   0  0  0  0  0  0  0  0  0  0  0  0
   35.2964    0.7400   31.3495 C   0  0  0  0  0  0  0  0  0  0  0  0
   34.1112    1.3036   31.8228 C   0  0  0  0  0  0  0  0  0  0  0  0
   29.0878    4.3708   30.8069 O   0  0  0  0  0  0  0  0  0  0  0  0
   29.5260    5.2235   29.7570 C   0  0  0  0  0  0  0  0  0  0  0  0
   22.7276    4.9381   30.4175 C   0  0  0  0  0  0  0  0  0  0  0  0
   22.4418    6.2390   30.0644 N   0  0  0  0  0  0  0  0  0  0  0  0
   23.4892    7.1635   30.3947 C   0  0  0  0  0  0  0  0  0  0  0  0
   21.9877    3.9937   30.2284 O   0  0  0  0  0  0  0  0  0  0  0  0
   29.6093    5.9850   34.2140 C   0  0  0  0  0  0  0  0  0  0  0  0
   29.3897   10.4791   31.9976 H   0  0  0  0  0  0  0  0  0  0  0  0
   29.8340    8.1751   32.6761 H   0  0  0  0  0  0  0  0  0  0  0  0
   25.4045    9.4549   30.8132 H   0  0  0  0  0  0  0  0  0  0  0  0
   27.1924   11.1372   31.0846 H   0  0  0  0  0  0  0  0  0  0  0  0
   26.8366    0.2158   33.1493 H   0  0  0  0  0  0  0  0  0  0  0  0
   25.0508   -1.3673   32.4983 H   0  0  0  0  0  0  0  0  0  0  0  0
   23.0121   -0.5638   31.3568 H   0  0  0  0  0  0  0  0  0  0  0  0
   22.7207    1.8259   30.8435 H   0  0  0  0  0  0  0  0  0  0  0  0
   29.3170    1.4270   33.2488 H   0  0  0  0  0  0  0  0  0  0  0  0
   28.7278    1.9467   31.6959 H   0  0  0  0  0  0  0  0  0  0  0  0
   30.5954    5.3096   31.8866 H   0  0  0  0  0  0  0  0  0  0  0  0
   30.5887    3.4122   33.6295 H   0  0  0  0  0  0  0  0  0  0  0  0
   27.5648    2.3600   34.2345 H   0  0  0  0  0  0  0  0  0  0  0  0
   30.4037    2.3173   30.0650 H   0  0  0  0  0  0  0  0  0  0  0  0
   32.0633    1.7507   30.0951 H   0  0  0  0  0  0  0  0  0  0  0  0
   30.8303    0.8850   31.0468 H   0  0  0  0  0  0  0  0  0  0  0  0
   34.6585    4.5451   30.9127 H   0  0  0  0  0  0  0  0  0  0  0  0
   36.7659    3.5345   30.0762 H   0  0  0  0  0  0  0  0  0  0  0  0
   37.1725    1.1033   30.3527 H   0  0  0  0  0  0  0  0  0  0  0  0
   35.4877   -0.3219   31.4838 H   0  0  0  0  0  0  0  0  0  0  0  0
   33.3866    0.6798   32.3391 H   0  0  0  0  0  0  0  0  0  0  0  0
   29.3791    6.2750   30.0136 H   0  0  0  0  0  0  0  0  0  0  0  0
   28.9388    4.9947   28.8646 H   0  0  0  0  0  0  0  0  0  0  0  0
   30.5806    5.0368   29.5342 H   0  0  0  0  0  0  0  0  0  0  0  0
   21.5679    6.4732   29.6141 H   0  0  0  0  0  0  0  0  0  0  0  0
   23.0988    7.9120   31.0886 H   0  0  0  0  0  0  0  0  0  0  0  0
   23.8554    7.6296   29.4763 H   0  0  0  0  0  0  0  0  0  0  0  0
   30.0801    5.2732   34.9031 H   0  0  0  0  0  0  0  0  0  0  0  0
   30.4181    6.5866   33.7961 H   0  0  0  0  0  0  0  0  0  0  0  0
   28.9731    6.6280   34.8334 H   0  0  0  0  0  0  0  0  0  0  0  0
  6  1  2  0
  2  3  2  0
  4  5  2  0
  1  8  1  0
  2  1  1  0
  7  2  1  0
  7  9  1  0
 10  3  1  0
  4  3  1  0
 12  4  1  0
 10 11  1  0
 14  9  1  0
  9  8  2  0
  8 15  1  0
 13 14  2  0
 16 13  1  0
 15 16  2  0
 11 17  1  0
 12 11  2  0
 20 12  1  0
 17 18  2  0
 18 19  1  0
 19 20  2  0
 10 25  1  0
 25 21  1  0
  7 26  1  0
 26 21  1  0
 25 22  1  0
 26 23  1  0
 22 24  1  0
 23 24  1  0
 24 27  1  0
 27 28  1  0
 27 29  1  0
 28 30  2  0
 28 31  1  0
 32 31  2  0
 36 31  1  0
 32 33  1  0
 33 34  2  0
 34 35  1  0
 35 36  2  0
 23 37  1  0
 37 38  1  0
  5 39  1  0
  6  5  1  0
  6 41  1  0
 39 40  1  0
 40 41  1  0
 39 42  2  0
 26 43  1  1
 13 44  1  0
 14 45  1  0
 15 46  1  0
 16 47  1  0
 17 48  1  0
 18 49  1  0
 19 50  1  0
 20 51  1  0
 22 52  1  0
 22 53  1  0
 23 54  1  1
 24 55  1  6
 25 56  1  6
 29 57  1  0
 29 58  1  0
 29 59  1  0
 32 60  1  0
 33 61  1  0
 34 62  1  0
 35 63  1  0
 36 64  1  0
 38 65  1  0
 38 66  1  0
 38 67  1  0
 40 68  1  0
 41 69  1  0
 41 70  1  0
 43 71  1  0
 43 72  1  0
 43 73  1  0
M  END
> <Uni-Dock RESULT> 
ENERGY=   -4.436  LOWER_BOUND=    4.067  UPPER_BOUND=    6.585
INTER + INTRA:          -4.436
INTER:                  -4.436
INTRA:                   0.000
UNBOUND:                 0.000

$$$$

     RDKit          3D

 73 81  0  0  0  0  0  0  0  0999 V2000
   23.4365    9.8970   30.4345 C   0  0  0  0  0  0  0  0  0  0  0  0
   24.7614    9.5875   30.6532 C   0  0  0  0  0  0  0  0  0  0  0  0
   25.1990    8.1145   30.9168 C   0  0  0  0  0  0  0  0  0  0  0  0
   24.2751    7.0829   30.9233 C   0  0  0  0  0  0  0  0  0  0  0  0
   22.9466    7.4836   30.7142 C   0  0  0  0  0  0  0  0  0  0  0  0
   22.5242    8.8300   30.4856 C   0  0  0  0  0  0  0  0  0  0  0  0
   25.5362   10.7174   30.5619 N   0  0  0  0  0  0  0  0  0  0  0  0
   23.3894   11.2932   30.1721 C   0  0  0  0  0  0  0  0  0  0  0  0
   24.7110   11.7804   30.1952 C   0  0  0  0  0  0  0  0  0  0  0  0
   26.4437    7.6246   31.1662 N   0  0  0  0  0  0  0  0  0  0  0  0
   26.3704    6.2452   31.2930 C   0  0  0  0  0  0  0  0  0  0  0  0
   25.0202    5.8847   31.1485 C   0  0  0  0  0  0  0  0  0  0  0  0
   23.9076   13.9762   29.5637 C   0  0  0  0  0  0  0  0  0  0  0  0
   24.9757   13.1228   29.8620 C   0  0  0  0  0  0  0  0  0  0  0  0
   22.3318   12.1795   29.8689 C   0  0  0  0  0  0  0  0  0  0  0  0
   22.5995   13.5169   29.5761 C   0  0  0  0  0  0  0  0  0  0  0  0
   27.3748    5.2901   31.5353 C   0  0  0  0  0  0  0  0  0  0  0  0
   27.0054    3.9463   31.6248 C   0  0  0  0  0  0  0  0  0  0  0  0
   25.6782    3.5623   31.4848 C   0  0  0  0  0  0  0  0  0  0  0  0
   24.6840    4.5173   31.2492 C   0  0  0  0  0  0  0  0  0  0  0  0
   27.3215    9.7455   31.7767 O   0  0  0  0  0  0  0  0  0  0  0  0
   28.7194    8.3116   30.2960 C   0  0  0  0  0  0  0  0  0  0  0  0
   27.7508   10.4293   29.3802 C   0  0  2  0  0  0  0  0  0  0  0  0
   29.0617    9.6871   29.7195 C   0  0  2  0  0  0  0  0  0  0  0  0
   27.6505    8.4131   31.3905 C   0  0  2  0  0  0  0  0  0  0  0  0
   27.0006   10.7002   30.7301 C   0  0  1  0  0  0  0  0  0  0  0  0
   30.0284    9.6608   28.5963 N   0  0  0  0  0  0  0  0  0  0  0  0
   30.7302   10.8468   28.3507 C   0  0  0  0  0  0  0  0  0  0  0  0
   29.9772    8.5568   27.6387 C   0  0  0  0  0  0  0  0  0  0  0  0
   30.4631   11.9027   28.9226 O   0  0  0  0  0  0  0  0  0  0  0  0
   31.8590   10.8423   27.3920 C   0  0  0  0  0  0  0  0  0  0  0  0
   31.9304   11.8496   26.4244 C   0  0  0  0  0  0  0  0  0  0  0  0
   33.0053   11.8799   25.5349 C   0  0  0  0  0  0  0  0  0  0  0  0
   34.0123   10.9180   25.6234 C   0  0  0  0  0  0  0  0  0  0  0  0
   33.9530    9.9267   26.6047 C   0  0  0  0  0  0  0  0  0  0  0  0
   32.8822    9.8935   27.4983 C   0  0  0  0  0  0  0  0  0  0  0  0
   27.0035    9.5596   28.5004 O   0  0  0  0  0  0  0  0  0  0  0  0
   26.5163   10.2242   27.3418 C   0  0  0  0  0  0  0  0  0  0  0  0
   21.7416    6.6417   30.6740 C   0  0  0  0  0  0  0  0  0  0  0  0
   20.6693    7.4725   30.4322 N   0  0  0  0  0  0  0  0  0  0  0  0
   21.0367    8.8532   30.2927 C   0  0  0  0  0  0  0  0  0  0  0  0
   21.6628    5.4386   30.8205 O   0  0  0  0  0  0  0  0  0  0  0  0
   27.5468   11.9969   31.3726 C   0  0  0  0  0  0  0  0  0  0  0  0
   24.1095   15.0164   29.3172 H   0  0  0  0  0  0  0  0  0  0  0  0
   25.9786   13.5262   29.8188 H   0  0  0  0  0  0  0  0  0  0  0  0
   21.3063   11.8243   29.8522 H   0  0  0  0  0  0  0  0  0  0  0  0
   21.7818   14.1939   29.3433 H   0  0  0  0  0  0  0  0  0  0  0  0
   28.4161    5.5727   31.6513 H   0  0  0  0  0  0  0  0  0  0  0  0
   27.7658    3.1913   31.8091 H   0  0  0  0  0  0  0  0  0  0  0  0
   25.4031    2.5131   31.5588 H   0  0  0  0  0  0  0  0  0  0  0  0
   23.6526    4.1935   31.1452 H   0  0  0  0  0  0  0  0  0  0  0  0
   29.6315    7.8714   30.7197 H   0  0  0  0  0  0  0  0  0  0  0  0
   28.3990    7.6076   29.5198 H   0  0  0  0  0  0  0  0  0  0  0  0
   27.9472   11.3757   28.8628 H   0  0  0  0  0  0  0  0  0  0  0  0
   29.5773   10.2497   30.5099 H   0  0  0  0  0  0  0  0  0  0  0  0
   28.0813    7.9752   32.3004 H   0  0  0  0  0  0  0  0  0  0  0  0
   28.9418    8.3726   27.3458 H   0  0  0  0  0  0  0  0  0  0  0  0
   30.5319    8.7732   26.7236 H   0  0  0  0  0  0  0  0  0  0  0  0
   30.3940    7.6629   28.1106 H   0  0  0  0  0  0  0  0  0  0  0  0
   31.1538   12.6068   26.3642 H   0  0  0  0  0  0  0  0  0  0  0  0
   33.0643   12.6600   24.7801 H   0  0  0  0  0  0  0  0  0  0  0  0
   34.8512   10.9464   24.9317 H   0  0  0  0  0  0  0  0  0  0  0  0
   34.7481    9.1887   26.6778 H   0  0  0  0  0  0  0  0  0  0  0  0
   32.8535    9.1361   28.2768 H   0  0  0  0  0  0  0  0  0  0  0  0
   25.8839   11.0736   27.6093 H   0  0  0  0  0  0  0  0  0  0  0  0
   25.9219    9.5119   26.7649 H   0  0  0  0  0  0  0  0  0  0  0  0
   27.3514   10.5608   26.7205 H   0  0  0  0  0  0  0  0  0  0  0  0
   19.7319    7.1011   30.3635 H   0  0  0  0  0  0  0  0  0  0  0  0
   20.5311    9.4370   31.0657 H   0  0  0  0  0  0  0  0  0  0  0  0
   20.7579    9.1965   29.2930 H   0  0  0  0  0  0  0  0  0  0  0  0
   28.5278   11.8279   31.8334 H   0  0  0  0  0  0  0  0  0  0  0  0
   27.6830   12.8042   30.6510 H   0  0  0  0  0  0  0  0  0  0  0  0
   26.8921   12.3488   32.1785 H   0  0  0  0  0  0  0  0  0  0  0  0
  6  1  2  0
  2  3  2  0
  4  5  2  0
  1  8  1  0
  2  1  1  0
  7  2  1  0
  7  9  1  0
 10  3  1  0
  4  3  1  0
 12  4  1  0
 10 11  1  0
 14  9  1  0
  9  8  2  0
  8 15  1  0
 13 14  2  0
 16 13  1  0
 15 16  2  0
 11 17  1  0
 12 11  2  0
 20 12  1  0
 17 18  2  0
 18 19  1  0
 19 20  2  0
 10 25  1  0
 25 21  1  0
  7 26  1  0
 26 21  1  0
 25 22  1  0
 26 23  1  0
 22 24  1  0
 23 24  1  0
 24 27  1  0
 27 28  1  0
 27 29  1  0
 28 30  2  0
 28 31  1  0
 32 31  2  0
 36 31  1  0
 32 33  1  0
 33 34  2  0
 34 35  1  0
 35 36  2  0
 23 37  1  0
 37 38  1  0
  5 39  1  0
  6  5  1  0
  6 41  1  0
 39 40  1  0
 40 41  1  0
 39 42  2  0
 26 43  1  1
 13 44  1  0
 14 45  1  0
 15 46  1  0
 16 47  1  0
 17 48  1  0
 18 49  1  0
 19 50  1  0
 20 51  1  0
 22 52  1  0
 22 53  1  0
 23 54  1  1
 24 55  1  6
 25 56  1  6
 29 57  1  0
 29 58  1  0
 29 59  1  0
 32 60  1  0
 33 61  1  0
 34 62  1  0
 35 63  1  0
 36 64  1  0
 38 65  1  0
 38 66  1  0
 38 67  1  0
 40 68  1  0
 41 69  1  0
 41 70  1  0
 43 71  1  0
 43 72  1  0
 43 73  1  0
M  END
> <Uni-Dock RESULT> 
ENERGY=   -4.435  LOWER_BOUND=    2.841  UPPER_BOUND=    7.931
INTER + INTRA:          -4.435
INTER:                  -4.435
INTRA:                   0.000
UNBOUND:                 0.000

$$$$

     RDKit          3D

 73 81  0  0  0  0  0  0  0  0999 V2000
   25.3321   13.1954   20.5811 C   0  0  0  0  0  0  0  0  0  0  0  0
   26.4431   12.7869   21.2866 C   0  0  0  0  0  0  0  0  0  0  0  0
   27.4888   11.8309   20.6361 C   0  0  0  0  0  0  0  0  0  0  0  0
   27.3369   11.3817   19.3349 C   0  0  0  0  0  0  0  0  0  0  0  0
   26.1704   11.8255   18.6934 C   0  0  0  0  0  0  0  0  0  0  0  0
   25.1931   12.6897   19.2779 C   0  0  0  0  0  0  0  0  0  0  0  0
   26.4560   13.3650   22.5320 N   0  0  0  0  0  0  0  0  0  0  0  0
   24.6275   14.0933   21.4282 C   0  0  0  0  0  0  0  0  0  0  0  0
   25.3702   14.2364   22.6166 C   0  0  0  0  0  0  0  0  0  0  0  0
   28.6257   11.3137   21.1759 N   0  0  0  0  0  0  0  0  0  0  0  0
   29.2748   10.5490   20.2178 C   0  0  0  0  0  0  0  0  0  0  0  0
   28.4827   10.5744   19.0577 C   0  0  0  0  0  0  0  0  0  0  0  0
   23.7765   15.8787   23.4095 C   0  0  0  0  0  0  0  0  0  0  0  0
   24.9583   15.1546   23.6017 C   0  0  0  0  0  0  0  0  0  0  0  0
   23.4375   14.8369   21.2638 C   0  0  0  0  0  0  0  0  0  0  0  0
   23.0169   15.7171   22.2609 C   0  0  0  0  0  0  0  0  0  0  0  0
   30.4820    9.8289   20.2802 C   0  0  0  0  0  0  0  0  0  0  0  0
   30.8971    9.1293   19.1451 C   0  0  0  0  0  0  0  0  0  0  0  0
   30.1339    9.1384   17.9848 C   0  0  0  0  0  0  0  0  0  0  0  0
   28.9323    9.8520   17.9313 C   0  0  0  0  0  0  0  0  0  0  0  0
   27.9412   11.7427   23.4095 O   0  0  0  0  0  0  0  0  0  0  0  0
   30.2966   12.2861   22.8101 C   0  0  0  0  0  0  0  0  0  0  0  0
   28.7151   14.1494   23.3475 C   0  0  2  0  0  0  0  0  0  0  0  0
   30.0092   13.4297   23.7855 C   0  0  2  0  0  0  0  0  0  0  0  0
   29.0483   11.4297   22.5676 C   0  0  2  0  0  0  0  0  0  0  0  0
   27.5327   13.1328   23.5117 C   0  0  1  0  0  0  0  0  0  0  0  0
   31.1479   14.3526   24.0052 N   0  0  0  0  0  0  0  0  0  0  0  0
   31.1269   15.0966   25.1907 C   0  0  0  0  0  0  0  0  0  0  0  0
   32.0335   14.6696   22.8855 C   0  0  0  0  0  0  0  0  0  0  0  0
   30.1542   15.1117   25.9436 O   0  0  0  0  0  0  0  0  0  0  0  0
   32.3223   15.8770   25.5844 C   0  0  0  0  0  0  0  0  0  0  0  0
   32.1597   17.2025   26.0001 C   0  0  0  0  0  0  0  0  0  0  0  0
   33.2714   17.9416   26.4069 C   0  0  0  0  0  0  0  0  0  0  0  0
   34.5366   17.3531   26.4142 C   0  0  0  0  0  0  0  0  0  0  0  0
   34.6952   16.0226   26.0220 C   0  0  0  0  0  0  0  0  0  0  0  0
   33.5868   15.2783   25.6172 C   0  0  0  0  0  0  0  0  0  0  0  0
   28.9125   14.5461   21.9717 O   0  0  0  0  0  0  0  0  0  0  0  0
   28.5719   15.9050   21.7293 C   0  0  0  0  0  0  0  0  0  0  0  0
   25.7155   11.5224   17.3282 C   0  0  0  0  0  0  0  0  0  0  0  0
   24.5235   12.1863   17.1367 N   0  0  0  0  0  0  0  0  0  0  0  0
   24.1039   12.9475   18.2792 C   0  0  0  0  0  0  0  0  0  0  0  0
   26.2580   10.8247   16.4951 O   0  0  0  0  0  0  0  0  0  0  0  0
   27.0299   13.1584   24.9743 C   0  0  0  0  0  0  0  0  0  0  0  0
   23.4509   16.5802   24.1746 H   0  0  0  0  0  0  0  0  0  0  0  0
   25.5243   15.3325   24.5064 H   0  0  0  0  0  0  0  0  0  0  0  0
   22.8484   14.7357   20.3577 H   0  0  0  0  0  0  0  0  0  0  0  0
   22.1008   16.2866   22.1287 H   0  0  0  0  0  0  0  0  0  0  0  0
   31.0889    9.8075   21.1795 H   0  0  0  0  0  0  0  0  0  0  0  0
   31.8282    8.5682   19.1704 H   0  0  0  0  0  0  0  0  0  0  0  0
   30.4668    8.5879   17.1085 H   0  0  0  0  0  0  0  0  0  0  0  0
   28.3513    9.8428   17.0137 H   0  0  0  0  0  0  0  0  0  0  0  0
   31.0918   11.6570   23.2309 H   0  0  0  0  0  0  0  0  0  0  0  0
   30.6966   12.6487   21.8565 H   0  0  0  0  0  0  0  0  0  0  0  0
   28.5283   15.0442   23.9528 H   0  0  0  0  0  0  0  0  0  0  0  0
   29.8309   12.9772   24.7706 H   0  0  0  0  0  0  0  0  0  0  0  0
   29.3072   10.4000   22.8468 H   0  0  0  0  0  0  0  0  0  0  0  0
   31.4380   14.8928   21.9982 H   0  0  0  0  0  0  0  0  0  0  0  0
   32.6534   15.5469   23.0803 H   0  0  0  0  0  0  0  0  0  0  0  0
   32.6782   13.8078   22.6925 H   0  0  0  0  0  0  0  0  0  0  0  0
   31.1729   17.6566   26.0078 H   0  0  0  0  0  0  0  0  0  0  0  0
   33.1502   18.9726   26.7293 H   0  0  0  0  0  0  0  0  0  0  0  0
   35.4008   17.9299   26.7359 H   0  0  0  0  0  0  0  0  0  0  0  0
   35.6814   15.5653   26.0438 H   0  0  0  0  0  0  0  0  0  0  0  0
   33.7109   14.2357   25.3378 H   0  0  0  0  0  0  0  0  0  0  0  0
   27.5342   16.1079   22.0035 H   0  0  0  0  0  0  0  0  0  0  0  0
   28.6982   16.1029   20.6623 H   0  0  0  0  0  0  0  0  0  0  0  0
   29.2419   16.5672   22.2855 H   0  0  0  0  0  0  0  0  0  0  0  0
   24.0284   12.1186   16.2582 H   0  0  0  0  0  0  0  0  0  0  0  0
   23.1357   12.5736   18.6213 H   0  0  0  0  0  0  0  0  0  0  0  0
   24.0434   14.0030   18.0012 H   0  0  0  0  0  0  0  0  0  0  0  0
   27.7182   12.6223   25.6392 H   0  0  0  0  0  0  0  0  0  0  0  0
   26.9419   14.1692   25.3760 H   0  0  0  0  0  0  0  0  0  0  0  0
   26.0620   12.6529   25.0719 H   0  0  0  0  0  0  0  0  0  0  0  0
  6  1  2  0
  2  3  2  0
  4  5  2  0
  1  8  1  0
  2  1  1  0
  7  2  1  0
  7  9  1  0
 10  3  1  0
  4  3  1  0
 12  4  1  0
 10 11  1  0
 14  9  1  0
  9  8  2  0
  8 15  1  0
 13 14  2  0
 16 13  1  0
 15 16  2  0
 11 17  1  0
 12 11  2  0
 20 12  1  0
 17 18  2  0
 18 19  1  0
 19 20  2  0
 10 25  1  0
 25 21  1  0
  7 26  1  0
 26 21  1  0
 25 22  1  0
 26 23  1  0
 22 24  1  0
 23 24  1  0
 24 27  1  0
 27 28  1  0
 27 29  1  0
 28 30  2  0
 28 31  1  0
 32 31  2  0
 36 31  1  0
 32 33  1  0
 33 34  2  0
 34 35  1  0
 35 36  2  0
 23 37  1  0
 37 38  1  0
  5 39  1  0
  6  5  1  0
  6 41  1  0
 39 40  1  0
 40 41  1  0
 39 42  2  0
 26 43  1  1
 13 44  1  0
 14 45  1  0
 15 46  1  0
 16 47  1  0
 17 48  1  0
 18 49  1  0
 19 50  1  0
 20 51  1  0
 22 52  1  0
 22 53  1  0
 23 54  1  1
 24 55  1  6
 25 56  1  6
 29 57  1  0
 29 58  1  0
 29 59  1  0
 32 60  1  0
 33 61  1  0
 34 62  1  0
 35 63  1  0
 36 64  1  0
 38 65  1  0
 38 66  1  0
 38 67  1  0
 40 68  1  0
 41 69  1  0
 41 70  1  0
 43 71  1  0
 43 72  1  0
 43 73  1  0
M  END
> <Uni-Dock RESULT> 
ENERGY=   -4.308  LOWER_BOUND=    8.673  UPPER_BOUND=   11.909
INTER + INTRA:          -4.308
INTER:                  -4.308
INTRA:                   0.000
UNBOUND:                 0.000

$$$$

     RDKit          3D

 73 81  0  0  0  0  0  0  0  0999 V2000
   25.7875   13.3338   21.5354 C   0  0  0  0  0  0  0  0  0  0  0  0
   27.0504   12.9709   21.9503 C   0  0  0  0  0  0  0  0  0  0  0  0
   27.8999   11.9628   21.1180 C   0  0  0  0  0  0  0  0  0  0  0  0
   27.4160   11.4204   19.9391 C   0  0  0  0  0  0  0  0  0  0  0  0
   26.1159   11.8235   19.5979 C   0  0  0  0  0  0  0  0  0  0  0  0
   25.3163   12.7348   20.3554 C   0  0  0  0  0  0  0  0  0  0  0  0
   27.3838   13.6387   23.1028 N   0  0  0  0  0  0  0  0  0  0  0  0
   25.3196   14.2962   22.4711 C   0  0  0  0  0  0  0  0  0  0  0  0
   26.3475   14.5211   23.4076 C   0  0  0  0  0  0  0  0  0  0  0  0
   29.1455   11.4791   21.3746 N   0  0  0  0  0  0  0  0  0  0  0  0
   29.5289   10.6419   20.3372 C   0  0  0  0  0  0  0  0  0  0  0  0
   28.4585   10.5873   19.4286 C   0  0  0  0  0  0  0  0  0  0  0  0
   24.9981   16.2277   24.4718 C   0  0  0  0  0  0  0  0  0  0  0  0
   26.1981   15.5119   24.3973 C   0  0  0  0  0  0  0  0  0  0  0  0
   24.1188   15.0335   22.5732 C   0  0  0  0  0  0  0  0  0  0  0  0
   23.9647   15.9873   23.5793 C   0  0  0  0  0  0  0  0  0  0  0  0
   30.7190    9.9203   20.1307 C   0  0  0  0  0  0  0  0  0  0  0  0
   30.8291    9.1366   18.9801 C   0  0  0  0  0  0  0  0  0  0  0  0
   29.7868    9.0656   18.0650 C   0  0  0  0  0  0  0  0  0  0  0  0
   28.6045    9.7812   18.2789 C   0  0  0  0  0  0  0  0  0  0  0  0
   29.0689   12.0755   23.6724 O   0  0  0  0  0  0  0  0  0  0  0  0
   31.1755   12.5578   22.4347 C   0  0  0  0  0  0  0  0  0  0  0  0
   29.7676   14.4659   23.2339 C   0  0  2  0  0  0  0  0  0  0  0  0
   31.1406   13.7718   23.3657 C   0  0  2  0  0  0  0  0  0  0  0  0
   29.9186   11.6942   22.5931 C   0  0  2  0  0  0  0  0  0  0  0  0
   28.6838   13.4720   23.7777 C   0  0  1  0  0  0  0  0  0  0  0  0
   32.2849   14.7007   23.2094 N   0  0  0  0  0  0  0  0  0  0  0  0
   32.5676   15.5299   24.3012 C   0  0  0  0  0  0  0  0  0  0  0  0
   32.8396   14.9289   21.8758 C   0  0  0  0  0  0  0  0  0  0  0  0
   31.8278   15.6066   25.2811 O   0  0  0  0  0  0  0  0  0  0  0  0
   33.8143   16.3292   24.3077 C   0  0  0  0  0  0  0  0  0  0  0  0
   33.7498   17.6826   24.6543 C   0  0  0  0  0  0  0  0  0  0  0  0
   34.9197   18.4422   24.6985 C   0  0  0  0  0  0  0  0  0  0  0  0
   36.1496   17.8475   24.4142 C   0  0  0  0  0  0  0  0  0  0  0  0
   36.2164   16.4908   24.0916 C   0  0  0  0  0  0  0  0  0  0  0  0
   35.0503   15.7262   24.0489 C   0  0  0  0  0  0  0  0  0  0  0  0
   29.5900   14.7593   21.8298 O   0  0  0  0  0  0  0  0  0  0  0  0
   29.1798   16.0990   21.5880 C   0  0  0  0  0  0  0  0  0  0  0  0
   25.3211   11.4241   18.4270 C   0  0  0  0  0  0  0  0  0  0  0  0
   24.1122   12.0800   18.5093 N   0  0  0  0  0  0  0  0  0  0  0  0
   23.9989   12.9258   19.6637 C   0  0  0  0  0  0  0  0  0  0  0  0
   25.6337   10.6636   17.5331 O   0  0  0  0  0  0  0  0  0  0  0  0
   28.5842   13.6082   25.3153 C   0  0  0  0  0  0  0  0  0  0  0  0
   24.8767   16.9856   25.2428 H   0  0  0  0  0  0  0  0  0  0  0  0
   26.9803   15.7519   25.1051 H   0  0  0  0  0  0  0  0  0  0  0  0
   23.3129   14.8699   21.8646 H   0  0  0  0  0  0  0  0  0  0  0  0
   23.0388   16.5516   23.6527 H   0  0  0  0  0  0  0  0  0  0  0  0
   31.5419    9.9610   20.8370 H   0  0  0  0  0  0  0  0  0  0  0  0
   31.7411    8.5727   18.7994 H   0  0  0  0  0  0  0  0  0  0  0  0
   29.8840    8.4500   17.1742 H   0  0  0  0  0  0  0  0  0  0  0  0
   27.8023    9.7085   17.5505 H   0  0  0  0  0  0  0  0  0  0  0  0
   32.0617   11.9561   22.6751 H   0  0  0  0  0  0  0  0  0  0  0  0
   31.3051   12.8468   21.3856 H   0  0  0  0  0  0  0  0  0  0  0  0
   29.7355   15.4039   23.8004 H   0  0  0  0  0  0  0  0  0  0  0  0
   31.2344   13.3940   24.3931 H   0  0  0  0  0  0  0  0  0  0  0  0
   30.2555   10.6861   22.8680 H   0  0  0  0  0  0  0  0  0  0  0  0
   32.0283   15.0903   21.1634 H   0  0  0  0  0  0  0  0  0  0  0  0
   33.4775   15.8140   21.8359 H   0  0  0  0  0  0  0  0  0  0  0  0
   33.4217   14.0510   21.5825 H   0  0  0  0  0  0  0  0  0  0  0  0
   32.7942   18.1426   24.8893 H   0  0  0  0  0  0  0  0  0  0  0  0
   34.8744   19.4949   24.9658 H   0  0  0  0  0  0  0  0  0  0  0  0
   37.0605   18.4407   24.4536 H   0  0  0  0  0  0  0  0  0  0  0  0
   37.1793   16.0299   23.8854 H   0  0  0  0  0  0  0  0  0  0  0  0
   35.1099   14.6650   23.8230 H   0  0  0  0  0  0  0  0  0  0  0  0
   28.2487   16.3283   22.1109 H   0  0  0  0  0  0  0  0  0  0  0  0
   29.0176   16.2171   20.5141 H   0  0  0  0  0  0  0  0  0  0  0  0
   29.9641   16.7957   21.8980 H   0  0  0  0  0  0  0  0  0  0  0  0
   23.4039   11.9513   17.7999 H   0  0  0  0  0  0  0  0  0  0  0  0
   23.1603   12.5844   20.2754 H   0  0  0  0  0  0  0  0  0  0  0  0
   23.8536   13.9584   19.3357 H   0  0  0  0  0  0  0  0  0  0  0  0
   29.4304   13.1178   25.8120 H   0  0  0  0  0  0  0  0  0  0  0  0
   28.5921   14.6463   25.6516 H   0  0  0  0  0  0  0  0  0  0  0  0
   27.6829   13.1176   25.7013 H   0  0  0  0  0  0  0  0  0  0  0  0
  6  1  2  0
  2  3  2  0
  4  5  2  0
  1  8  1  0
  2  1  1  0
  7  2  1  0
  7  9  1  0
 10  3  1  0
  4  3  1  0
 12  4  1  0
 10 11  1  0
 14  9  1  0
  9  8  2  0
  8 15  1  0
 13 14  2  0
 16 13  1  0
 15 16  2  0
 11 17  1  0
 12 11  2  0
 20 12  1  0
 17 18  2  0
 18 19  1  0
 19 20  2  0
 10 25  1  0
 25 21  1  0
  7 26  1  0
 26 21  1  0
 25 22  1  0
 26 23  1  0
 22 24  1  0
 23 24  1  0
 24 27  1  0
 27 28  1  0
 27 29  1  0
 28 30  2  0
 28 31  1  0
 32 31  2  0
 36 31  1  0
 32 33  1  0
 33 34  2  0
 34 35  1  0
 35 36  2  0
 23 37  1  0
 37 38  1  0
  5 39  1  0
  6  5  1  0
  6 41  1  0
 39 40  1  0
 40 41  1  0
 39 42  2  0
 26 43  1  1
 13 44  1  0
 14 45  1  0
 15 46  1  0
 16 47  1  0
 17 48  1  0
 18 49  1  0
 19 50  1  0
 20 51  1  0
 22 52  1  0
 22 53  1  0
 23 54  1  1
 24 55  1  6
 25 56  1  6
 29 57  1  0
 29 58  1  0
 29 59  1  0
 32 60  1  0
 33 61  1  0
 34 62  1  0
 35 63  1  0
 36 64  1  0
 38 65  1  0
 38 66  1  0
 38 67  1  0
 40 68  1  0
 41 69  1  0
 41 70  1  0
 43 71  1  0
 43 72  1  0
 43 73  1  0
M  END
> <Uni-Dock RESULT> 
ENERGY=   -4.138  LOWER_BOUND=    8.749  UPPER_BOUND=   12.018
INTER + INTRA:          -4.138
INTER:                  -4.138
INTRA:                   0.000
UNBOUND:                 0.000

$$$$

     RDKit          3D

 73 81  0  0  0  0  0  0  0  0999 V2000
   22.6770    8.2046   30.8094 C   0  0  0  0  0  0  0  0  0  0  0  0
   24.0270    8.4235   30.9788 C   0  0  0  0  0  0  0  0  0  0  0  0
   25.0115    7.2249   31.1355 C   0  0  0  0  0  0  0  0  0  0  0  0
   24.5598    5.9164   31.0939 C   0  0  0  0  0  0  0  0  0  0  0  0
   23.1717    5.7795   30.9402 C   0  0  0  0  0  0  0  0  0  0  0  0
   22.2516    6.8658   30.8097 C   0  0  0  0  0  0  0  0  0  0  0  0
   24.2995    9.7688   30.9455 N   0  0  0  0  0  0  0  0  0  0  0  0
   22.0818    9.4843   30.6406 C   0  0  0  0  0  0  0  0  0  0  0  0
   23.1118   10.4450   30.6672 C   0  0  0  0  0  0  0  0  0  0  0  0
   26.3587    7.2450   31.3253 N   0  0  0  0  0  0  0  0  0  0  0  0
   26.8304    5.9411   31.3626 C   0  0  0  0  0  0  0  0  0  0  0  0
   25.7196    5.0921   31.2237 C   0  0  0  0  0  0  0  0  0  0  0  0
   21.4941   12.1855   30.1990 C   0  0  0  0  0  0  0  0  0  0  0  0
   22.8214   11.8002   30.4176 C   0  0  0  0  0  0  0  0  0  0  0  0
   20.7512    9.9043   30.4191 C   0  0  0  0  0  0  0  0  0  0  0  0
   20.4673   11.2539   30.2093 C   0  0  0  0  0  0  0  0  0  0  0  0
   28.1359    5.4403   31.5200 C   0  0  0  0  0  0  0  0  0  0  0  0
   28.3193    4.0559   31.5287 C   0  0  0  0  0  0  0  0  0  0  0  0
   27.2389    3.1941   31.3923 C   0  0  0  0  0  0  0  0  0  0  0  0
   25.9433    3.6984   31.2414 C   0  0  0  0  0  0  0  0  0  0  0  0
   26.3749    9.5053   32.0550 O   0  0  0  0  0  0  0  0  0  0  0  0
   28.1499    8.8072   30.4536 C   0  0  0  0  0  0  0  0  0  0  0  0
   26.3972   10.4266   29.7001 C   0  0  2  0  0  0  0  0  0  0  0  0
   27.9071   10.2357   29.9615 C   0  0  2  0  0  0  0  0  0  0  0  0
   27.1756    8.4278   31.5751 C   0  0  2  0  0  0  0  0  0  0  0  0
   25.6627   10.3135   31.0807 C   0  0  1  0  0  0  0  0  0  0  0  0
   28.7567   10.6461   28.8186 N   0  0  0  0  0  0  0  0  0  0  0  0
   28.9334   12.0227   28.6366 C   0  0  0  0  0  0  0  0  0  0  0  0
   29.0931    9.6607   27.7918 C   0  0  0  0  0  0  0  0  0  0  0  0
   28.3051   12.8602   29.2823 O   0  0  0  0  0  0  0  0  0  0  0  0
   29.9315   12.5075   27.6557 C   0  0  0  0  0  0  0  0  0  0  0  0
   29.5638   13.5124   26.7551 C   0  0  0  0  0  0  0  0  0  0  0  0
   30.5019   14.0047   25.8467 C   0  0  0  0  0  0  0  0  0  0  0  0
   31.8054   13.5067   25.8500 C   0  0  0  0  0  0  0  0  0  0  0  0
   32.1786   12.5205   26.7650 C   0  0  0  0  0  0  0  0  0  0  0  0
   31.2456   12.0269   27.6773 C   0  0  0  0  0  0  0  0  0  0  0  0
   26.0054    9.3820   28.7812 O   0  0  0  0  0  0  0  0  0  0  0  0
   25.2471    9.8646   27.6796 C   0  0  0  0  0  0  0  0  0  0  0  0
   22.3855    4.5387   30.8706 C   0  0  0  0  0  0  0  0  0  0  0  0
   21.0656    4.8987   30.7070 N   0  0  0  0  0  0  0  0  0  0  0  0
   20.8638    6.3189   30.6508 C   0  0  0  0  0  0  0  0  0  0  0  0
   22.7847    3.3938   30.9392 O   0  0  0  0  0  0  0  0  0  0  0  0
   25.6935   11.6850   31.7952 C   0  0  0  0  0  0  0  0  0  0  0  0
   21.2665   13.2337   30.0172 H   0  0  0  0  0  0  0  0  0  0  0  0
   23.5872   12.5634   30.3794 H   0  0  0  0  0  0  0  0  0  0  0  0
   19.9432    9.1797   30.4011 H   0  0  0  0  0  0  0  0  0  0  0  0
   19.4418   11.5710   30.0391 H   0  0  0  0  0  0  0  0  0  0  0  0
   28.9910    6.0990   31.6319 H   0  0  0  0  0  0  0  0  0  0  0  0
   29.3201    3.6473   31.6465 H   0  0  0  0  0  0  0  0  0  0  0  0
   27.3946    2.1181   31.4030 H   0  0  0  0  0  0  0  0  0  0  0  0
   25.1137    3.0049   31.1385 H   0  0  0  0  0  0  0  0  0  0  0  0
   29.1794    8.7347   30.8277 H   0  0  0  0  0  0  0  0  0  0  0  0
   28.0917    8.0756   29.6397 H   0  0  0  0  0  0  0  0  0  0  0  0
   26.1887   11.4005   29.2420 H   0  0  0  0  0  0  0  0  0  0  0  0
   28.2003   10.9123   30.7760 H   0  0  0  0  0  0  0  0  0  0  0  0
   27.7830    8.1449   32.4447 H   0  0  0  0  0  0  0  0  0  0  0  0
   28.1974    9.1040   27.5097 H   0  0  0  0  0  0  0  0  0  0  0  0
   29.4789   10.1233   26.8812 H   0  0  0  0  0  0  0  0  0  0  0  0
   29.8441    8.9758   28.1947 H   0  0  0  0  0  0  0  0  0  0  0  0
   28.5530   13.9102   26.7615 H   0  0  0  0  0  0  0  0  0  0  0  0
   30.2203   14.7846   25.1437 H   0  0  0  0  0  0  0  0  0  0  0  0
   32.5358   13.8951   25.1439 H   0  0  0  0  0  0  0  0  0  0  0  0
   33.1997   12.1469   26.7724 H   0  0  0  0  0  0  0  0  0  0  0  0
   31.5473   11.2783   28.4047 H   0  0  0  0  0  0  0  0  0  0  0  0
   24.3482   10.3861   28.0159 H   0  0  0  0  0  0  0  0  0  0  0  0
   24.9488    9.0085   27.0700 H   0  0  0  0  0  0  0  0  0  0  0  0
   25.8580   10.5314   27.0640 H   0  0  0  0  0  0  0  0  0  0  0  0
   20.3426    4.1963   30.6341 H   0  0  0  0  0  0  0  0  0  0  0  0
   20.2073    6.6190   31.4712 H   0  0  0  0  0  0  0  0  0  0  0  0
   20.4288    6.5786   29.6821 H   0  0  0  0  0  0  0  0  0  0  0  0
   26.6832   11.8868   32.2228 H   0  0  0  0  0  0  0  0  0  0  0  0
   25.4740   12.5183   31.1256 H   0  0  0  0  0  0  0  0  0  0  0  0
   24.9909   11.7120   32.6364 H   0  0  0  0  0  0  0  0  0  0  0  0
  6  1  2  0
  2  3  2  0
  4  5  2  0
  1  8  1  0
  2  1  1  0
  7  2  1  0
  7  9  1  0
 10  3  1  0
  4  3  1  0
 12  4  1  0
 10 11  1  0
 14  9  1  0
  9  8  2  0
  8 15  1  0
 13 14  2  0
 16 13  1  0
 15 16  2  0
 11 17  1  0
 12 11  2  0
 20 12  1  0
 17 18  2  0
 18 19  1  0
 19 20  2  0
 10 25  1  0
 25 21  1  0
  7 26  1  0
 26 21  1  0
 25 22  1  0
 26 23  1  0
 22 24  1  0
 23 24  1  0
 24 27  1  0
 27 28  1  0
 27 29  1  0
 28 30  2  0
 28 31  1  0
 32 31  2  0
 36 31  1  0
 32 33  1  0
 33 34  2  0
 34 35  1  0
 35 36  2  0
 23 37  1  0
 37 38  1  0
  5 39  1  0
  6  5  1  0
  6 41  1  0
 39 40  1  0
 40 41  1  0
 39 42  2  0
 26 43  1  1
 13 44  1  0
 14 45  1  0
 15 46  1  0
 16 47  1  0
 17 48  1  0
 18 49  1  0
 19 50  1  0
 20 51  1  0
 22 52  1  0
 22 53  1  0
 23 54  1  1
 24 55  1  6
 25 56  1  6
 29 57  1  0
 29 58  1  0
 29 59  1  0
 32 60  1  0
 33 61  1  0
 34 62  1  0
 35 63  1  0
 36 64  1  0
 38 65  1  0
 38 66  1  0
 38 67  1  0
 40 68  1  0
 41 69  1  0
 41 70  1  0
 43 71  1  0
 43 72  1  0
 43 73  1  0
M  END
> <Uni-Dock RESULT> 
ENERGY=   -4.104  LOWER_BOUND=    3.006  UPPER_BOUND=    9.006
INTER + INTRA:          -4.104
INTER:                  -4.104
INTRA:                   0.000
UNBOUND:                 0.000

$$$$

     RDKit          3D

 73 81  0  0  0  0  0  0  0  0999 V2000
   34.5729   15.8188   24.7459 C   0  0  0  0  0  0  0  0  0  0  0  0
   34.1892   14.9510   25.7453 C   0  0  0  0  0  0  0  0  0  0  0  0
   34.3939   15.3270   27.2444 C   0  0  0  0  0  0  0  0  0  0  0  0
   34.9498   16.5419   27.6089 C   0  0  0  0  0  0  0  0  0  0  0  0
   35.3328   17.3581   26.5336 C   0  0  0  0  0  0  0  0  0  0  0  0
   35.1669   17.0248   25.1534 C   0  0  0  0  0  0  0  0  0  0  0  0
   33.6161   13.8260   25.2055 N   0  0  0  0  0  0  0  0  0  0  0  0
   34.1979   15.2074   23.5187 C   0  0  0  0  0  0  0  0  0  0  0  0
   33.5488   13.9946   23.8227 C   0  0  0  0  0  0  0  0  0  0  0  0
   34.0958   14.6008   28.3558 N   0  0  0  0  0  0  0  0  0  0  0  0
   34.4053   15.3489   29.4821 C   0  0  0  0  0  0  0  0  0  0  0  0
   34.9459   16.5672   29.0374 C   0  0  0  0  0  0  0  0  0  0  0  0
   33.1040   13.6478   21.4673 C   0  0  0  0  0  0  0  0  0  0  0  0
   32.9738   13.2233   22.7943 C   0  0  0  0  0  0  0  0  0  0  0  0
   34.3150   15.6087   22.1692 C   0  0  0  0  0  0  0  0  0  0  0  0
   33.7746   14.8200   21.1534 C   0  0  0  0  0  0  0  0  0  0  0  0
   34.2675   15.0501   30.8501 C   0  0  0  0  0  0  0  0  0  0  0  0
   34.6771   16.0053   31.7829 C   0  0  0  0  0  0  0  0  0  0  0  0
   35.2137   17.2181   31.3707 C   0  0  0  0  0  0  0  0  0  0  0  0
   35.3527   17.5067   30.0094 C   0  0  0  0  0  0  0  0  0  0  0  0
   33.9734   12.5482   27.1670 O   0  0  0  0  0  0  0  0  0  0  0  0
   32.1968   13.0021   28.8523 C   0  0  0  0  0  0  0  0  0  0  0  0
   31.5879   12.9421   26.4259 C   0  0  2  0  0  0  0  0  0  0  0  0
   31.3681   12.2665   27.7969 C   0  0  2  0  0  0  0  0  0  0  0  0
   33.6407   13.2149   28.3824 C   0  0  2  0  0  0  0  0  0  0  0  0
   33.0886   12.7224   26.0283 C   0  0  1  0  0  0  0  0  0  0  0  0
   29.9373   12.0980   28.1450 N   0  0  0  0  0  0  0  0  0  0  0  0
   29.2557   11.0631   27.4941 C   0  0  0  0  0  0  0  0  0  0  0  0
   29.2512   13.1649   28.8726 C   0  0  0  0  0  0  0  0  0  0  0  0
   29.7559   10.4204   26.5722 O   0  0  0  0  0  0  0  0  0  0  0  0
   27.8919   10.6942   27.9382 C   0  0  0  0  0  0  0  0  0  0  0  0
   26.8887   10.5264   26.9782 C   0  0  0  0  0  0  0  0  0  0  0  0
   25.6065   10.1458   27.3763 C   0  0  0  0  0  0  0  0  0  0  0  0
   25.3331    9.9176   28.7255 C   0  0  0  0  0  0  0  0  0  0  0  0
   26.3407   10.0620   29.6810 C   0  0  0  0  0  0  0  0  0  0  0  0
   27.6251   10.4394   29.2881 C   0  0  0  0  0  0  0  0  0  0  0  0
   31.2642   14.3398   26.6013 O   0  0  0  0  0  0  0  0  0  0  0  0
   30.3924   14.8402   25.5958 C   0  0  0  0  0  0  0  0  0  0  0  0
   35.9551   18.6896   26.5831 C   0  0  0  0  0  0  0  0  0  0  0  0
   36.1397   19.1041   25.2821 N   0  0  0  0  0  0  0  0  0  0  0  0
   35.6826   18.1526   24.3092 C   0  0  0  0  0  0  0  0  0  0  0  0
   36.2636   19.3366   27.5635 O   0  0  0  0  0  0  0  0  0  0  0  0
   33.2459   11.3403   25.3518 C   0  0  0  0  0  0  0  0  0  0  0  0
   32.6701   13.0472   20.6707 H   0  0  0  0  0  0  0  0  0  0  0  0
   32.4239   12.3116   22.9868 H   0  0  0  0  0  0  0  0  0  0  0  0
   34.8170   16.5368   21.9146 H   0  0  0  0  0  0  0  0  0  0  0  0
   33.8676   15.1339   20.1171 H   0  0  0  0  0  0  0  0  0  0  0  0
   33.8541   14.1061   31.1900 H   0  0  0  0  0  0  0  0  0  0  0  0
   34.5772   15.7962   32.8452 H   0  0  0  0  0  0  0  0  0  0  0  0
   35.5309   17.9526   32.1068 H   0  0  0  0  0  0  0  0  0  0  0  0
   35.7769   18.4609   29.7109 H   0  0  0  0  0  0  0  0  0  0  0  0
   32.1996   12.4066   29.7745 H   0  0  0  0  0  0  0  0  0  0  0  0
   31.7469   13.9605   29.1350 H   0  0  0  0  0  0  0  0  0  0  0  0
   30.9298   12.5178   25.6587 H   0  0  0  0  0  0  0  0  0  0  0  0
   31.7570   11.2407   27.7379 H   0  0  0  0  0  0  0  0  0  0  0  0
   34.2930   12.7418   29.1280 H   0  0  0  0  0  0  0  0  0  0  0  0
   29.4947   14.1302   28.4245 H   0  0  0  0  0  0  0  0  0  0  0  0
   28.1649   13.0628   28.8349 H   0  0  0  0  0  0  0  0  0  0  0  0
   29.5795   13.1465   29.9153 H   0  0  0  0  0  0  0  0  0  0  0  0
   27.1047   10.6904   25.9263 H   0  0  0  0  0  0  0  0  0  0  0  0
   24.8231   10.0157   26.6340 H   0  0  0  0  0  0  0  0  0  0  0  0
   24.3340    9.6168   29.0328 H   0  0  0  0  0  0  0  0  0  0  0  0
   26.1252    9.8686   30.7290 H   0  0  0  0  0  0  0  0  0  0  0  0
   28.4126   10.5252   30.0318 H   0  0  0  0  0  0  0  0  0  0  0  0
   30.8187   14.7052   24.5993 H   0  0  0  0  0  0  0  0  0  0  0  0
   30.2454   15.9082   25.7730 H   0  0  0  0  0  0  0  0  0  0  0  0
   29.4202   14.3425   25.6572 H   0  0  0  0  0  0  0  0  0  0  0  0
   36.5570   20.0019   25.0790 H   0  0  0  0  0  0  0  0  0  0  0  0
   36.5260   17.8466   23.6855 H   0  0  0  0  0  0  0  0  0  0  0  0
   34.8924   18.6097   23.7079 H   0  0  0  0  0  0  0  0  0  0  0  0
   33.2172   10.5314   26.0920 H   0  0  0  0  0  0  0  0  0  0  0  0
   32.4528   11.1258   24.6335 H   0  0  0  0  0  0  0  0  0  0  0  0
   34.2149   11.2519   24.8465 H   0  0  0  0  0  0  0  0  0  0  0  0
  6  1  2  0
  2  3  2  0
  4  5  2  0
  1  8  1  0
  2  1  1  0
  7  2  1  0
  7  9  1  0
 10  3  1  0
  4  3  1  0
 12  4  1  0
 10 11  1  0
 14  9  1  0
  9  8  2  0
  8 15  1  0
 13 14  2  0
 16 13  1  0
 15 16  2  0
 11 17  1  0
 12 11  2  0
 20 12  1  0
 17 18  2  0
 18 19  1  0
 19 20  2  0
 10 25  1  0
 25 21  1  0
  7 26  1  0
 26 21  1  0
 25 22  1  0
 26 23  1  0
 22 24  1  0
 23 24  1  0
 24 27  1  0
 27 28  1  0
 27 29  1  0
 28 30  2  0
 28 31  1  0
 32 31  2  0
 36 31  1  0
 32 33  1  0
 33 34  2  0
 34 35  1  0
 35 36  2  0
 23 37  1  0
 37 38  1  0
  5 39  1  0
  6  5  1  0
  6 41  1  0
 39 40  1  0
 40 41  1  0
 39 42  2  0
 26 43  1  1
 13 44  1  0
 14 45  1  0
 15 46  1  0
 16 47  1  0
 17 48  1  0
 18 49  1  0
 19 50  1  0
 20 51  1  0
 22 52  1  0
 22 53  1  0
 23 54  1  1
 24 55  1  6
 25 56  1  6
 29 57  1  0
 29 58  1  0
 29 59  1  0
 32 60  1  0
 33 61  1  0
 34 62  1  0
 35 63  1  0
 36 64  1  0
 38 65  1  0
 38 66  1  0
 38 67  1  0
 40 68  1  0
 41 69  1  0
 41 70  1  0
 43 71  1  0
 43 72  1  0
 43 73  1  0
M  END
> <Uni-Dock RESULT> 
ENERGY=   -3.997  LOWER_BOUND=    5.795  UPPER_BOUND=    9.457
INTER + INTRA:          -3.997
INTER:                  -3.997
INTRA:                   0.000
UNBOUND:                 0.000

$$$$

     RDKit          3D

 73 81  0  0  0  0  0  0  0  0999 V2000
   29.3525   10.2170   27.5825 C   0  0  0  0  0  0  0  0  0  0  0  0
   30.6758   10.3938   27.2410 C   0  0  0  0  0  0  0  0  0  0  0  0
   31.0722   11.3326   26.0612 C   0  0  0  0  0  0  0  0  0  0  0  0
   30.1113   12.0210   25.3394 C   0  0  0  0  0  0  0  0  0  0  0  0
   28.7886   11.7703   25.7353 C   0  0  0  0  0  0  0  0  0  0  0  0
   28.4048   10.9021   26.8042 C   0  0  0  0  0  0  0  0  0  0  0  0
   31.4862    9.6793   28.0884 N   0  0  0  0  0  0  0  0  0  0  0  0
   29.3426    9.3620   28.7180 C   0  0  0  0  0  0  0  0  0  0  0  0
   30.6808    9.0836   29.0588 C   0  0  0  0  0  0  0  0  0  0  0  0
   32.3104   11.6158   25.5735 N   0  0  0  0  0  0  0  0  0  0  0  0
   32.1922   12.5409   24.5467 C   0  0  0  0  0  0  0  0  0  0  0  0
   30.8224   12.8057   24.3802 C   0  0  0  0  0  0  0  0  0  0  0  0
   29.9238    7.8333   30.9901 C   0  0  0  0  0  0  0  0  0  0  0  0
   30.9751    8.3384   30.2170 C   0  0  0  0  0  0  0  0  0  0  0  0
   28.3027    8.8367   29.5172 C   0  0  0  0  0  0  0  0  0  0  0  0
   28.6024    8.0684   30.6422 C   0  0  0  0  0  0  0  0  0  0  0  0
   33.1724   13.1539   23.7447 C   0  0  0  0  0  0  0  0  0  0  0  0
   32.7578   14.0564   22.7630 C   0  0  0  0  0  0  0  0  0  0  0  0
   31.4103   14.3371   22.5779 C   0  0  0  0  0  0  0  0  0  0  0  0
   30.4408   13.7204   23.3750 C   0  0  0  0  0  0  0  0  0  0  0  0
   33.3077    9.7071   26.5754 O   0  0  0  0  0  0  0  0  0  0  0  0
   34.5498   11.8604   26.7284 C   0  0  0  0  0  0  0  0  0  0  0  0
   33.6066   10.8469   28.8129 C   0  0  2  0  0  0  0  0  0  0  0  0
   34.9070   11.2602   28.0901 C   0  0  2  0  0  0  0  0  0  0  0  0
   33.5590   10.9718   25.9672 C   0  0  2  0  0  0  0  0  0  0  0  0
   32.9568    9.6850   27.9847 C   0  0  1  0  0  0  0  0  0  0  0  0
   35.7969   12.1052   28.9211 N   0  0  0  0  0  0  0  0  0  0  0  0
   36.5267   11.4480   29.9186 C   0  0  0  0  0  0  0  0  0  0  0  0
   35.6408   13.5586   28.8800 C   0  0  0  0  0  0  0  0  0  0  0  0
   36.3385   10.2665   30.2045 O   0  0  0  0  0  0  0  0  0  0  0  0
   37.5898   12.1781   30.6466 C   0  0  0  0  0  0  0  0  0  0  0  0
   37.6372   12.0926   32.0418 C   0  0  0  0  0  0  0  0  0  0  0  0
   38.6524   12.7465   32.7412 C   0  0  0  0  0  0  0  0  0  0  0  0
   39.6249   13.4683   32.0481 C   0  0  0  0  0  0  0  0  0  0  0  0
   39.5911   13.5337   30.6539 C   0  0  0  0  0  0  0  0  0  0  0  0
   38.5801   12.8794   29.9496 C   0  0  0  0  0  0  0  0  0  0  0  0
   32.7705   12.0251   28.8575 O   0  0  0  0  0  0  0  0  0  0  0  0
   32.2352   12.2798   30.1499 C   0  0  0  0  0  0  0  0  0  0  0  0
   27.5518   12.3299   25.1700 C   0  0  0  0  0  0  0  0  0  0  0  0
   26.4990   11.8031   25.8860 N   0  0  0  0  0  0  0  0  0  0  0  0
   26.9099   10.9070   26.9296 C   0  0  0  0  0  0  0  0  0  0  0  0
   27.4361   13.1115   24.2476 O   0  0  0  0  0  0  0  0  0  0  0  0
   33.5934    8.3375   28.3991 C   0  0  0  0  0  0  0  0  0  0  0  0
   30.1494    7.2479   31.8789 H   0  0  0  0  0  0  0  0  0  0  0  0
   31.9880    8.1431   30.5432 H   0  0  0  0  0  0  0  0  0  0  0  0
   27.2652    9.0352   29.2671 H   0  0  0  0  0  0  0  0  0  0  0  0
   27.7983    7.6672   31.2534 H   0  0  0  0  0  0  0  0  0  0  0  0
   34.2292   12.9433   23.8728 H   0  0  0  0  0  0  0  0  0  0  0  0
   33.4987   14.5435   22.1336 H   0  0  0  0  0  0  0  0  0  0  0  0
   31.1002   15.0399   21.8086 H   0  0  0  0  0  0  0  0  0  0  0  0
   29.3929   13.9541   23.2105 H   0  0  0  0  0  0  0  0  0  0  0  0
   35.4697   11.9656   26.1387 H   0  0  0  0  0  0  0  0  0  0  0  0
   34.1525   12.8777   26.8180 H   0  0  0  0  0  0  0  0  0  0  0  0
   33.8054   10.5124   29.8378 H   0  0  0  0  0  0  0  0  0  0  0  0
   35.4943   10.3516   27.8987 H   0  0  0  0  0  0  0  0  0  0  0  0
   34.0307   10.7134   25.0101 H   0  0  0  0  0  0  0  0  0  0  0  0
   34.5822   13.8163   28.9488 H   0  0  0  0  0  0  0  0  0  0  0  0
   36.1429   14.0551   29.7126 H   0  0  0  0  0  0  0  0  0  0  0  0
   36.0524   13.9296   27.9374 H   0  0  0  0  0  0  0  0  0  0  0  0
   36.8883   11.5193   32.5808 H   0  0  0  0  0  0  0  0  0  0  0  0
   38.6924   12.6843   33.8258 H   0  0  0  0  0  0  0  0  0  0  0  0
   40.4176   13.9735   32.5953 H   0  0  0  0  0  0  0  0  0  0  0  0
   40.3601   14.0856   30.1188 H   0  0  0  0  0  0  0  0  0  0  0  0
   38.5727   12.9113   28.8635 H   0  0  0  0  0  0  0  0  0  0  0  0
   31.6549   11.4286   30.5127 H   0  0  0  0  0  0  0  0  0  0  0  0
   31.5774   13.1493   30.0809 H   0  0  0  0  0  0  0  0  0  0  0  0
   33.0406   12.5105   30.8533 H   0  0  0  0  0  0  0  0  0  0  0  0
   25.5454   12.0549   25.6655 H   0  0  0  0  0  0  0  0  0  0  0  0
   26.4786    9.9205   26.7433 H   0  0  0  0  0  0  0  0  0  0  0  0
   26.5802   11.3065   27.8922 H   0  0  0  0  0  0  0  0  0  0  0  0
   34.5949    8.2230   27.9666 H   0  0  0  0  0  0  0  0  0  0  0  0
   33.7136    8.2384   29.4792 H   0  0  0  0  0  0  0  0  0  0  0  0
   33.0066    7.4888   28.0285 H   0  0  0  0  0  0  0  0  0  0  0  0
  6  1  2  0
  2  3  2  0
  4  5  2  0
  1  8  1  0
  2  1  1  0
  7  2  1  0
  7  9  1  0
 10  3  1  0
  4  3  1  0
 12  4  1  0
 10 11  1  0
 14  9  1  0
  9  8  2  0
  8 15  1  0
 13 14  2  0
 16 13  1  0
 15 16  2  0
 11 17  1  0
 12 11  2  0
 20 12  1  0
 17 18  2  0
 18 19  1  0
 19 20  2  0
 10 25  1  0
 25 21  1  0
  7 26  1  0
 26 21  1  0
 25 22  1  0
 26 23  1  0
 22 24  1  0
 23 24  1  0
 24 27  1  0
 27 28  1  0
 27 29  1  0
 28 30  2  0
 28 31  1  0
 32 31  2  0
 36 31  1  0
 32 33  1  0
 33 34  2  0
 34 35  1  0
 35 36  2  0
 23 37  1  0
 37 38  1  0
  5 39  1  0
  6  5  1  0
  6 41  1  0
 39 40  1  0
 40 41  1  0
 39 42  2  0
 26 43  1  1
 13 44  1  0
 14 45  1  0
 15 46  1  0
 16 47  1  0
 17 48  1  0
 18 49  1  0
 19 50  1  0
 20 51  1  0
 22 52  1  0
 22 53  1  0
 23 54  1  1
 24 55  1  6
 25 56  1  6
 29 57  1  0
 29 58  1  0
 29 59  1  0
 32 60  1  0
 33 61  1  0
 34 62  1  0
 35 63  1  0
 36 64  1  0
 38 65  1  0
 38 66  1  0
 38 67  1  0
 40 68  1  0
 41 69  1  0
 41 70  1  0
 43 71  1  0
 43 72  1  0
 43 73  1  0
M  END
> <Uni-Dock RESULT> 
ENERGY=   -3.991  LOWER_BOUND=    3.948  UPPER_BOUND=    8.490
INTER + INTRA:          -3.991
INTER:                  -3.991
INTRA:                   0.000
UNBOUND:                 0.000

$$$$
