
     RDKit          3D

 73 81  0  0  0  0  0  0  0  0999 V2000
   30.4449    9.7172   28.9512 C   0  0  0  0  0  0  0  0  0  0  0  0
   31.6861   10.0523   28.4549 C   0  0  0  0  0  0  0  0  0  0  0  0
   31.8153   10.8252   27.1064 C   0  0  0  0  0  0  0  0  0  0  0  0
   30.6935   11.2011   26.3849 C   0  0  0  0  0  0  0  0  0  0  0  0
   29.4701   10.8236   26.9599 C   0  0  0  0  0  0  0  0  0  0  0  0
   29.3315   10.1070   28.1881 C   0  0  0  0  0  0  0  0  0  0  0  0
   32.6722    9.6454   29.3212 N   0  0  0  0  0  0  0  0  0  0  0  0
   30.6726    9.0512   30.1860 C   0  0  0  0  0  0  0  0  0  0  0  0
   32.0617    9.0393   30.4211 C   0  0  0  0  0  0  0  0  0  0  0  0
   32.9393   11.2287   26.4556 N   0  0  0  0  0  0  0  0  0  0  0  0
   32.5783   11.8880   25.2894 C   0  0  0  0  0  0  0  0  0  0  0  0
   31.1751   11.8852   25.2263 C   0  0  0  0  0  0  0  0  0  0  0  0
   31.6815    7.9348   32.5477 C   0  0  0  0  0  0  0  0  0  0  0  0
   32.5668    8.4930   31.6176 C   0  0  0  0  0  0  0  0  0  0  0  0
   29.8022    8.4824   31.1437 C   0  0  0  0  0  0  0  0  0  0  0  0
   30.3162    7.9237   32.3140 C   0  0  0  0  0  0  0  0  0  0  0  0
   33.3676   12.4791   24.2851 C   0  0  0  0  0  0  0  0  0  0  0  0
   32.7240   13.0777   23.1994 C   0  0  0  0  0  0  0  0  0  0  0  0
   31.3386   13.0898   23.1131 C   0  0  0  0  0  0  0  0  0  0  0  0
   30.5593   12.5002   24.1142 C   0  0  0  0  0  0  0  0  0  0  0  0
   34.3791    9.7973   27.6887 O   0  0  0  0  0  0  0  0  0  0  0  0
   35.0923   12.1665   27.3799 C   0  0  0  0  0  0  0  0  0  0  0  0
   34.5078   11.3600   29.6796 C   0  0  2  0  0  0  0  0  0  0  0  0
   35.6441   11.9075   28.7845 C   0  0  2  0  0  0  0  0  0  0  0  0
   34.3147   10.9523   26.8549 C   0  0  2  0  0  0  0  0  0  0  0  0
   34.0971    9.9536   29.1043 C   0  0  1  0  0  0  0  0  0  0  0  0
   36.3698   13.0665   29.3813 N   0  0  0  0  0  0  0  0  0  0  0  0
   37.3367   12.8825   30.3876 C   0  0  0  0  0  0  0  0  0  0  0  0
   35.7209   14.3740   29.4005 C   0  0  0  0  0  0  0  0  0  0  0  0
   37.5844   13.7144   31.2569 O   0  0  0  0  0  0  0  0  0  0  0  0
   38.1236   11.6286   30.4043 C   0  0  0  0  0  0  0  0  0  0  0  0
   38.1432   10.8483   31.5647 C   0  0  0  0  0  0  0  0  0  0  0  0
   38.8905    9.6681   31.5891 C   0  0  0  0  0  0  0  0  0  0  0  0
   39.6250    9.2836   30.4632 C   0  0  0  0  0  0  0  0  0  0  0  0
   39.6249   10.0788   29.3146 C   0  0  0  0  0  0  0  0  0  0  0  0
   38.8806   11.2595   29.2853 C   0  0  0  0  0  0  0  0  0  0  0  0
   33.4387   12.3255   29.6164 O   0  0  0  0  0  0  0  0  0  0  0  0
   32.8354   12.5885   30.8776 C   0  0  0  0  0  0  0  0  0  0  0  0
   28.1126   11.0808   26.4554 C   0  0  0  0  0  0  0  0  0  0  0  0
   27.2284   10.5331   27.3594 N   0  0  0  0  0  0  0  0  0  0  0  0
   27.8730    9.9039   28.4778 C   0  0  0  0  0  0  0  0  0  0  0  0
   27.7892   11.6655   25.4415 O   0  0  0  0  0  0  0  0  0  0  0  0
   35.0489    8.8781   29.6832 C   0  0  0  0  0  0  0  0  0  0  0  0
   32.0720    7.5049   33.4679 H   0  0  0  0  0  0  0  0  0  0  0  0
   33.6207    8.4822   31.8585 H   0  0  0  0  0  0  0  0  0  0  0  0
   28.7281    8.4819   30.9799 H   0  0  0  0  0  0  0  0  0  0  0  0
   29.6417    7.4890   33.0468 H   0  0  0  0  0  0  0  0  0  0  0  0
   34.4519   12.4802   24.3337 H   0  0  0  0  0  0  0  0  0  0  0  0
   33.3154   13.5403   22.4128 H   0  0  0  0  0  0  0  0  0  0  0  0
   30.8508   13.5586   22.2617 H   0  0  0  0  0  0  0  0  0  0  0  0
   29.4777   12.5199   24.0217 H   0  0  0  0  0  0  0  0  0  0  0  0
   34.4550   13.0585   27.3402 H   0  0  0  0  0  0  0  0  0  0  0  0
   35.9321   12.3839   26.7036 H   0  0  0  0  0  0  0  0  0  0  0  0
   34.8445   11.2663   30.7201 H   0  0  0  0  0  0  0  0  0  0  0  0
   36.3852   11.1125   28.6769 H   0  0  0  0  0  0  0  0  0  0  0  0
   34.8021   10.6312   25.9255 H   0  0  0  0  0  0  0  0  0  0  0  0
   34.9756   14.4026   30.2002 H   0  0  0  0  0  0  0  0  0  0  0  0
   36.4659   15.1534   29.6016 H   0  0  0  0  0  0  0  0  0  0  0  0
   35.2622   14.6067   28.4384 H   0  0  0  0  0  0  0  0  0  0  0  0
   37.5921   11.1654   32.4459 H   0  0  0  0  0  0  0  0  0  0  0  0
   38.9141    9.0583   32.4890 H   0  0  0  0  0  0  0  0  0  0  0  0
   40.2161    8.3689   30.4876 H   0  0  0  0  0  0  0  0  0  0  0  0
   40.2116    9.7860   28.4470 H   0  0  0  0  0  0  0  0  0  0  0  0
   38.8957   11.8905   28.3988 H   0  0  0  0  0  0  0  0  0  0  0  0
   32.3784   11.6899   31.2972 H   0  0  0  0  0  0  0  0  0  0  0  0
   32.0507   13.3394   30.7326 H   0  0  0  0  0  0  0  0  0  0  0  0
   33.5728   12.9927   31.5797 H   0  0  0  0  0  0  0  0  0  0  0  0
   26.2309   10.6026   27.2158 H   0  0  0  0  0  0  0  0  0  0  0  0
   27.5658   10.4104   29.3969 H   0  0  0  0  0  0  0  0  0  0  0  0
   27.6010    8.8452   28.4974 H   0  0  0  0  0  0  0  0  0  0  0  0
   34.6600    7.8680   29.5111 H   0  0  0  0  0  0  0  0  0  0  0  0
   35.2349    9.0089   30.7508 H   0  0  0  0  0  0  0  0  0  0  0  0
   36.0313    8.9082   29.1937 H   0  0  0  0  0  0  0  0  0  0  0  0
  6  1  2  0
  2  3  2  0
  4  5  2  0
  1  8  1  0
  2  1  1  0
  7  2  1  0
  7  9  1  0
 10  3  1  0
  4  3  1  0
 12  4  1  0
 10 11  1  0
 14  9  1  0
  9  8  2  0
  8 15  1  0
 13 14  2  0
 16 13  1  0
 15 16  2  0
 11 17  1  0
 12 11  2  0
 20 12  1  0
 17 18  2  0
 18 19  1  0
 19 20  2  0
 10 25  1  0
 25 21  1  0
  7 26  1  0
 26 21  1  0
 25 22  1  0
 26 23  1  0
 22 24  1  0
 23 24  1  0
 24 27  1  0
 27 28  1  0
 27 29  1  0
 28 30  2  0
 28 31  1  0
 32 31  2  0
 36 31  1  0
 32 33  1  0
 33 34  2  0
 34 35  1  0
 35 36  2  0
 23 37  1  0
 37 38  1  0
  5 39  1  0
  6  5  1  0
  6 41  1  0
 39 40  1  0
 40 41  1  0
 39 42  2  0
 26 43  1  6
 13 44  1  0
 14 45  1  0
 15 46  1  0
 16 47  1  0
 17 48  1  0
 18 49  1  0
 19 50  1  0
 20 51  1  0
 22 52  1  0
 22 53  1  0
 23 54  1  6
 24 55  1  6
 25 56  1  6
 29 57  1  0
 29 58  1  0
 29 59  1  0
 32 60  1  0
 33 61  1  0
 34 62  1  0
 35 63  1  0
 36 64  1  0
 38 65  1  0
 38 66  1  0
 38 67  1  0
 40 68  1  0
 41 69  1  0
 41 70  1  0
 43 71  1  0
 43 72  1  0
 43 73  1  0
M  END
> <Uni-Dock RESULT> 
ENERGY=   -4.557  LOWER_BOUND=    0.000  UPPER_BOUND=    0.000
INTER + INTRA:          -4.557
INTER:                  -4.557
INTRA:                   0.000
UNBOUND:                 0.000

$$$$

     RDKit          3D

 73 81  0  0  0  0  0  0  0  0999 V2000
   26.5923   14.6573   23.6062 C   0  0  0  0  0  0  0  0  0  0  0  0
   27.7411   13.8961   23.6230 C   0  0  0  0  0  0  0  0  0  0  0  0
   27.9669   12.7833   22.5539 C   0  0  0  0  0  0  0  0  0  0  0  0
   27.0304   12.5415   21.5615 C   0  0  0  0  0  0  0  0  0  0  0  0
   25.8919   13.3605   21.6144 C   0  0  0  0  0  0  0  0  0  0  0  0
   25.6622   14.3777   22.5911 C   0  0  0  0  0  0  0  0  0  0  0  0
   28.5705   14.3062   24.6391 N   0  0  0  0  0  0  0  0  0  0  0  0
   26.7067   15.5805   24.6808 C   0  0  0  0  0  0  0  0  0  0  0  0
   27.9560   15.3730   25.2981 C   0  0  0  0  0  0  0  0  0  0  0  0
   29.0170   11.9302   22.4153 N   0  0  0  0  0  0  0  0  0  0  0  0
   28.7953   11.1094   21.3188 C   0  0  0  0  0  0  0  0  0  0  0  0
   27.5573   11.4772   20.7666 C   0  0  0  0  0  0  0  0  0  0  0  0
   27.4977   17.2075   26.8184 C   0  0  0  0  0  0  0  0  0  0  0  0
   28.3603   16.2034   26.3621 C   0  0  0  0  0  0  0  0  0  0  0  0
   25.8571   16.6033   25.1612 C   0  0  0  0  0  0  0  0  0  0  0  0
   26.2589   17.4039   26.2305 C   0  0  0  0  0  0  0  0  0  0  0  0
   29.5759   10.0733   20.7728 C   0  0  0  0  0  0  0  0  0  0  0  0
   29.0940    9.3994   19.6483 C   0  0  0  0  0  0  0  0  0  0  0  0
   27.8742    9.7436   19.0820 C   0  0  0  0  0  0  0  0  0  0  0  0
   27.1025   10.7740   19.6295 C   0  0  0  0  0  0  0  0  0  0  0  0
   29.8424   12.3104   24.6100 O   0  0  0  0  0  0  0  0  0  0  0  0
   31.4862   12.3425   22.7355 C   0  0  0  0  0  0  0  0  0  0  0  0
   31.0152   14.4666   23.9792 C   0  0  2  0  0  0  0  0  0  0  0  0
   32.0983   13.4163   23.6393 C   0  0  2  0  0  0  0  0  0  0  0  0
   30.1634   11.8190   23.3104 C   0  0  2  0  0  0  0  0  0  0  0  0
   29.9166   13.7416   24.8425 C   0  0  1  0  0  0  0  0  0  0  0  0
   33.3634   14.0095   23.1162 N   0  0  0  0  0  0  0  0  0  0  0  0
   34.3018   14.6052   23.9798 C   0  0  0  0  0  0  0  0  0  0  0  0
   33.3934   14.5196   21.7489 C   0  0  0  0  0  0  0  0  0  0  0  0
   35.0490   15.5221   23.6482 O   0  0  0  0  0  0  0  0  0  0  0  0
   34.4231   14.0983   25.3655 C   0  0  0  0  0  0  0  0  0  0  0  0
   34.2906   14.9902   26.4345 C   0  0  0  0  0  0  0  0  0  0  0  0
   34.4120   14.5191   27.7442 C   0  0  0  0  0  0  0  0  0  0  0  0
   34.6805   13.1669   27.9776 C   0  0  0  0  0  0  0  0  0  0  0  0
   34.8389   12.2834   26.9071 C   0  0  0  0  0  0  0  0  0  0  0  0
   34.7194   12.7491   25.5964 C   0  0  0  0  0  0  0  0  0  0  0  0
   30.5084   14.9512   22.7193 O   0  0  0  0  0  0  0  0  0  0  0  0
   30.3232   16.3613   22.6858 C   0  0  0  0  0  0  0  0  0  0  0  0
   24.7340   13.3645   20.7074 C   0  0  0  0  0  0  0  0  0  0  0  0
   23.8725   14.3465   21.1463 N   0  0  0  0  0  0  0  0  0  0  0  0
   24.3472   15.0435   22.3087 C   0  0  0  0  0  0  0  0  0  0  0  0
   24.5381   12.6565   19.7406 O   0  0  0  0  0  0  0  0  0  0  0  0
   30.3620   13.7452   26.3256 C   0  0  0  0  0  0  0  0  0  0  0  0
   27.8059   17.8433   27.6459 H   0  0  0  0  0  0  0  0  0  0  0  0
   29.3184   16.1035   26.8529 H   0  0  0  0  0  0  0  0  0  0  0  0
   24.8899   16.7782   24.6983 H   0  0  0  0  0  0  0  0  0  0  0  0
   25.6017   18.1892   26.5944 H   0  0  0  0  0  0  0  0  0  0  0  0
   30.5320    9.7888   21.2005 H   0  0  0  0  0  0  0  0  0  0  0  0
   29.6818    8.5959   19.2107 H   0  0  0  0  0  0  0  0  0  0  0  0
   27.5108    9.2097   18.2071 H   0  0  0  0  0  0  0  0  0  0  0  0
   26.1503   11.0218   19.1702 H   0  0  0  0  0  0  0  0  0  0  0  0
   31.3274   12.7009   21.7109 H   0  0  0  0  0  0  0  0  0  0  0  0
   32.1991   11.5103   22.6406 H   0  0  0  0  0  0  0  0  0  0  0  0
   31.4502   15.3061   24.5367 H   0  0  0  0  0  0  0  0  0  0  0  0
   32.3658   12.9118   24.5703 H   0  0  0  0  0  0  0  0  0  0  0  0
   30.2794   10.7382   23.4610 H   0  0  0  0  0  0  0  0  0  0  0  0
   32.8964   15.4929   21.7088 H   0  0  0  0  0  0  0  0  0  0  0  0
   34.4333   14.6551   21.4277 H   0  0  0  0  0  0  0  0  0  0  0  0
   32.9287   13.8212   21.0513 H   0  0  0  0  0  0  0  0  0  0  0  0
   34.1086   16.0449   26.2470 H   0  0  0  0  0  0  0  0  0  0  0  0
   34.3146   15.2072   28.5805 H   0  0  0  0  0  0  0  0  0  0  0  0
   34.7860   12.8033   28.9990 H   0  0  0  0  0  0  0  0  0  0  0  0
   35.0654   11.2360   27.0917 H   0  0  0  0  0  0  0  0  0  0  0  0
   34.8627   12.0665   24.7612 H   0  0  0  0  0  0  0  0  0  0  0  0
   29.5902   16.6858   23.4272 H   0  0  0  0  0  0  0  0  0  0  0  0
   29.9530   16.6352   21.6916 H   0  0  0  0  0  0  0  0  0  0  0  0
   31.2745   16.8780   22.8531 H   0  0  0  0  0  0  0  0  0  0  0  0
   23.0075   14.5326   20.6590 H   0  0  0  0  0  0  0  0  0  0  0  0
   24.4708   16.1018   22.0633 H   0  0  0  0  0  0  0  0  0  0  0  0
   23.6325   14.9054   23.1244 H   0  0  0  0  0  0  0  0  0  0  0  0
   29.5335   13.4762   26.9907 H   0  0  0  0  0  0  0  0  0  0  0  0
   30.7721   14.7062   26.6414 H   0  0  0  0  0  0  0  0  0  0  0  0
   31.1474   13.0002   26.5091 H   0  0  0  0  0  0  0  0  0  0  0  0
  6  1  2  0
  2  3  2  0
  4  5  2  0
  1  8  1  0
  2  1  1  0
  7  2  1  0
  7  9  1  0
 10  3  1  0
  4  3  1  0
 12  4  1  0
 10 11  1  0
 14  9  1  0
  9  8  2  0
  8 15  1  0
 13 14  2  0
 16 13  1  0
 15 16  2  0
 11 17  1  0
 12 11  2  0
 20 12  1  0
 17 18  2  0
 18 19  1  0
 19 20  2  0
 10 25  1  0
 25 21  1  0
  7 26  1  0
 26 21  1  0
 25 22  1  0
 26 23  1  0
 22 24  1  0
 23 24  1  0
 24 27  1  0
 27 28  1  0
 27 29  1  0
 28 30  2  0
 28 31  1  0
 32 31  2  0
 36 31  1  0
 32 33  1  0
 33 34  2  0
 34 35  1  0
 35 36  2  0
 23 37  1  0
 37 38  1  0
  5 39  1  0
  6  5  1  0
  6 41  1  0
 39 40  1  0
 40 41  1  0
 39 42  2  0
 26 43  1  6
 13 44  1  0
 14 45  1  0
 15 46  1  0
 16 47  1  0
 17 48  1  0
 18 49  1  0
 19 50  1  0
 20 51  1  0
 22 52  1  0
 22 53  1  0
 23 54  1  6
 24 55  1  6
 25 56  1  6
 29 57  1  0
 29 58  1  0
 29 59  1  0
 32 60  1  0
 33 61  1  0
 34 62  1  0
 35 63  1  0
 36 64  1  0
 38 65  1  0
 38 66  1  0
 38 67  1  0
 40 68  1  0
 41 69  1  0
 41 70  1  0
 43 71  1  0
 43 72  1  0
 43 73  1  0
M  END
> <Uni-Dock RESULT> 
ENERGY=   -4.432  LOWER_BOUND=    4.780  UPPER_BOUND=    7.602
INTER + INTRA:          -4.432
INTER:                  -4.432
INTRA:                   0.000
UNBOUND:                 0.000

$$$$

     RDKit          3D

 73 81  0  0  0  0  0  0  0  0999 V2000
   26.6240   14.7446   23.8801 C   0  0  0  0  0  0  0  0  0  0  0  0
   27.7543   13.9565   23.8582 C   0  0  0  0  0  0  0  0  0  0  0  0
   27.9395   12.8716   22.7532 C   0  0  0  0  0  0  0  0  0  0  0  0
   26.9847   12.6822   21.7668 C   0  0  0  0  0  0  0  0  0  0  0  0
   25.8669   13.5257   21.8599 C   0  0  0  0  0  0  0  0  0  0  0  0
   25.6742   14.5179   22.8699 C   0  0  0  0  0  0  0  0  0  0  0  0
   28.6064   14.3158   24.8747 N   0  0  0  0  0  0  0  0  0  0  0  0
   26.7743   15.6318   24.9803 C   0  0  0  0  0  0  0  0  0  0  0  0
   28.0262   15.3763   25.5739 C   0  0  0  0  0  0  0  0  0  0  0  0
   28.9670   11.9987   22.5746 N   0  0  0  0  0  0  0  0  0  0  0  0
   28.7115   11.2171   21.4571 C   0  0  0  0  0  0  0  0  0  0  0  0
   27.4757   11.6304   20.9332 C   0  0  0  0  0  0  0  0  0  0  0  0
   27.6317   17.1740   27.1548 C   0  0  0  0  0  0  0  0  0  0  0  0
   28.4640   16.1643   26.6567 C   0  0  0  0  0  0  0  0  0  0  0  0
   25.9557   16.6591   25.5028 C   0  0  0  0  0  0  0  0  0  0  0  0
   26.3904   17.4173   26.5901 C   0  0  0  0  0  0  0  0  0  0  0  0
   29.4600   10.1800   20.8695 C   0  0  0  0  0  0  0  0  0  0  0  0
   28.9476    9.5520   19.7319 C   0  0  0  0  0  0  0  0  0  0  0  0
   27.7291    9.9418   19.1931 C   0  0  0  0  0  0  0  0  0  0  0  0
   26.9894   10.9730   19.7818 C   0  0  0  0  0  0  0  0  0  0  0  0
   29.8298   12.2926   24.7682 O   0  0  0  0  0  0  0  0  0  0  0  0
   31.4493   12.3430   22.8731 C   0  0  0  0  0  0  0  0  0  0  0  0
   31.0454   14.4388   24.1865 C   0  0  2  0  0  0  0  0  0  0  0  0
   32.0986   13.3741   23.8003 C   0  0  2  0  0  0  0  0  0  0  0  0
   30.1220   11.8335   23.4501 C   0  0  2  0  0  0  0  0  0  0  0  0
   29.9412   13.7139   25.0426 C   0  0  1  0  0  0  0  0  0  0  0  0
   33.3706   13.9530   23.2780 N   0  0  0  0  0  0  0  0  0  0  0  0
   34.3342   14.5000   24.1461 C   0  0  0  0  0  0  0  0  0  0  0  0
   33.3951   14.5036   21.9263 C   0  0  0  0  0  0  0  0  0  0  0  0
   35.0987   15.4088   23.8321 O   0  0  0  0  0  0  0  0  0  0  0  0
   34.4613   13.9486   25.5142 C   0  0  0  0  0  0  0  0  0  0  0  0
   34.3641   14.8104   26.6113 C   0  0  0  0  0  0  0  0  0  0  0  0
   34.4912   14.2970   27.9044 C   0  0  0  0  0  0  0  0  0  0  0  0
   34.7304   12.9324   28.0933 C   0  0  0  0  0  0  0  0  0  0  0  0
   34.8536   12.0784   26.9947 C   0  0  0  0  0  0  0  0  0  0  0  0
   34.7282   12.5864   25.7004 C   0  0  0  0  0  0  0  0  0  0  0  0
   30.5340   14.9732   22.9487 O   0  0  0  0  0  0  0  0  0  0  0  0
   30.3822   16.3877   22.9603 C   0  0  0  0  0  0  0  0  0  0  0  0
   24.6977   13.5845   20.9695 C   0  0  0  0  0  0  0  0  0  0  0  0
   23.8657   14.5726   21.4495 N   0  0  0  0  0  0  0  0  0  0  0  0
   24.3720   15.2227   22.6257 C   0  0  0  0  0  0  0  0  0  0  0  0
   24.4724   12.9110   19.9846 O   0  0  0  0  0  0  0  0  0  0  0  0
   30.4058   13.6620   26.5188 C   0  0  0  0  0  0  0  0  0  0  0  0
   27.9657   17.7770   27.9967 H   0  0  0  0  0  0  0  0  0  0  0  0
   29.4257   16.0270   27.1311 H   0  0  0  0  0  0  0  0  0  0  0  0
   24.9870   16.8708   25.0587 H   0  0  0  0  0  0  0  0  0  0  0  0
   25.7569   18.2063   26.9864 H   0  0  0  0  0  0  0  0  0  0  0  0
   30.4146    9.8602   21.2753 H   0  0  0  0  0  0  0  0  0  0  0  0
   29.5102    8.7487   19.2623 H   0  0  0  0  0  0  0  0  0  0  0  0
   27.3416    9.4435   18.3075 H   0  0  0  0  0  0  0  0  0  0  0  0
   26.0375   11.2569   19.3432 H   0  0  0  0  0  0  0  0  0  0  0  0
   31.2858   12.7360   21.8620 H   0  0  0  0  0  0  0  0  0  0  0  0
   32.1409   11.4975   22.7435 H   0  0  0  0  0  0  0  0  0  0  0  0
   31.5076   15.2505   24.7630 H   0  0  0  0  0  0  0  0  0  0  0  0
   32.3661   12.8354   24.7120 H   0  0  0  0  0  0  0  0  0  0  0  0
   30.2141   10.7461   23.5666 H   0  0  0  0  0  0  0  0  0  0  0  0
   32.9210   15.4891   21.9224 H   0  0  0  0  0  0  0  0  0  0  0  0
   34.4337   14.6244   21.5951 H   0  0  0  0  0  0  0  0  0  0  0  0
   32.9048   13.8379   21.2146 H   0  0  0  0  0  0  0  0  0  0  0  0
   34.2049   15.8743   26.4580 H   0  0  0  0  0  0  0  0  0  0  0  0
   34.4211   14.9614   28.7623 H   0  0  0  0  0  0  0  0  0  0  0  0
   34.8404   12.5355   29.1018 H   0  0  0  0  0  0  0  0  0  0  0  0
   35.0574   11.0208   27.1446 H   0  0  0  0  0  0  0  0  0  0  0  0
   34.8443   11.9263   24.8431 H   0  0  0  0  0  0  0  0  0  0  0  0
   29.6668   16.7066   23.7211 H   0  0  0  0  0  0  0  0  0  0  0  0
   30.0058   16.7003   21.9799 H   0  0  0  0  0  0  0  0  0  0  0  0
   31.3477   16.8765   23.1299 H   0  0  0  0  0  0  0  0  0  0  0  0
   22.9991   14.7938   20.9799 H   0  0  0  0  0  0  0  0  0  0  0  0
   24.5177   16.2848   22.4106 H   0  0  0  0  0  0  0  0  0  0  0  0
   23.6649   15.0767   23.4466 H   0  0  0  0  0  0  0  0  0  0  0  0
   29.5798   13.3924   27.1869 H   0  0  0  0  0  0  0  0  0  0  0  0
   30.8428   14.6030   26.8578 H   0  0  0  0  0  0  0  0  0  0  0  0
   31.1755   12.8934   26.6691 H   0  0  0  0  0  0  0  0  0  0  0  0
  6  1  2  0
  2  3  2  0
  4  5  2  0
  1  8  1  0
  2  1  1  0
  7  2  1  0
  7  9  1  0
 10  3  1  0
  4  3  1  0
 12  4  1  0
 10 11  1  0
 14  9  1  0
  9  8  2  0
  8 15  1  0
 13 14  2  0
 16 13  1  0
 15 16  2  0
 11 17  1  0
 12 11  2  0
 20 12  1  0
 17 18  2  0
 18 19  1  0
 19 20  2  0
 10 25  1  0
 25 21  1  0
  7 26  1  0
 26 21  1  0
 25 22  1  0
 26 23  1  0
 22 24  1  0
 23 24  1  0
 24 27  1  0
 27 28  1  0
 27 29  1  0
 28 30  2  0
 28 31  1  0
 32 31  2  0
 36 31  1  0
 32 33  1  0
 33 34  2  0
 34 35  1  0
 35 36  2  0
 23 37  1  0
 37 38  1  0
  5 39  1  0
  6  5  1  0
  6 41  1  0
 39 40  1  0
 40 41  1  0
 39 42  2  0
 26 43  1  6
 13 44  1  0
 14 45  1  0
 15 46  1  0
 16 47  1  0
 17 48  1  0
 18 49  1  0
 19 50  1  0
 20 51  1  0
 22 52  1  0
 22 53  1  0
 23 54  1  6
 24 55  1  6
 25 56  1  6
 29 57  1  0
 29 58  1  0
 29 59  1  0
 32 60  1  0
 33 61  1  0
 34 62  1  0
 35 63  1  0
 36 64  1  0
 38 65  1  0
 38 66  1  0
 38 67  1  0
 40 68  1  0
 41 69  1  0
 41 70  1  0
 43 71  1  0
 43 72  1  0
 43 73  1  0
M  END
> <Uni-Dock RESULT> 
ENERGY=   -4.394  LOWER_BOUND=    4.638  UPPER_BOUND=    7.453
INTER + INTRA:          -4.394
INTER:                  -4.394
INTRA:                   0.000
UNBOUND:                 0.000

$$$$

     RDKit          3D

 73 81  0  0  0  0  0  0  0  0999 V2000
   31.2293   10.2113   27.5328 C   0  0  0  0  0  0  0  0  0  0  0  0
   30.0953   10.7230   26.9399 C   0  0  0  0  0  0  0  0  0  0  0  0
   28.6879   10.4347   27.5469 C   0  0  0  0  0  0  0  0  0  0  0  0
   28.5445    9.6720   28.6950 C   0  0  0  0  0  0  0  0  0  0  0  0
   29.7468    9.1913   29.2362 C   0  0  0  0  0  0  0  0  0  0  0  0
   31.0441    9.4358   28.6896 C   0  0  0  0  0  0  0  0  0  0  0  0
   30.4311   11.4888   25.8493 N   0  0  0  0  0  0  0  0  0  0  0  0
   32.3293   10.6710   26.7590 C   0  0  0  0  0  0  0  0  0  0  0  0
   31.8225   11.4907   25.7312 C   0  0  0  0  0  0  0  0  0  0  0  0
   27.4663   10.8360   27.1038 N   0  0  0  0  0  0  0  0  0  0  0  0
   26.4889   10.3488   27.9596 C   0  0  0  0  0  0  0  0  0  0  0  0
   27.1424    9.6189   28.9660 C   0  0  0  0  0  0  0  0  0  0  0  0
   34.0870   11.9292   24.9787 C   0  0  0  0  0  0  0  0  0  0  0  0
   32.7087   12.1370   24.8469 C   0  0  0  0  0  0  0  0  0  0  0  0
   33.7258   10.4808   26.8694 C   0  0  0  0  0  0  0  0  0  0  0  0
   34.5918   11.1079   25.9734 C   0  0  0  0  0  0  0  0  0  0  0  0
   25.0883   10.4843   27.9280 C   0  0  0  0  0  0  0  0  0  0  0  0
   24.3379    9.8702   28.9335 C   0  0  0  0  0  0  0  0  0  0  0  0
   24.9587    9.1439   29.9405 C   0  0  0  0  0  0  0  0  0  0  0  0
   26.3512    9.0124   29.9663 C   0  0  0  0  0  0  0  0  0  0  0  0
   28.2481   11.4179   24.9375 O   0  0  0  0  0  0  0  0  0  0  0  0
   26.7557   13.0407   26.1020 C   0  0  0  0  0  0  0  0  0  0  0  0
   29.1447   13.6692   25.6796 C   0  0  2  0  0  0  0  0  0  0  0  0
   27.6722   14.0153   25.3572 C   0  0  2  0  0  0  0  0  0  0  0  0
   27.1941   11.5867   25.8831 C   0  0  2  0  0  0  0  0  0  0  0  0
   29.4332   12.2458   25.0726 C   0  0  1  0  0  0  0  0  0  0  0  0
   27.3364   15.4539   25.5662 N   0  0  0  0  0  0  0  0  0  0  0  0
   27.7066   16.4338   24.6260 C   0  0  0  0  0  0  0  0  0  0  0  0
   27.1817   15.9537   26.9289 C   0  0  0  0  0  0  0  0  0  0  0  0
   27.9458   17.6032   24.9166 O   0  0  0  0  0  0  0  0  0  0  0  0
   27.8000   16.0569   23.1973 C   0  0  0  0  0  0  0  0  0  0  0  0
   28.9893   16.2981   22.5022 C   0  0  0  0  0  0  0  0  0  0  0  0
   29.0806   15.9519   21.1518 C   0  0  0  0  0  0  0  0  0  0  0  0
   27.9814   15.3837   20.5010 C   0  0  0  0  0  0  0  0  0  0  0  0
   26.7859   15.1685   21.1910 C   0  0  0  0  0  0  0  0  0  0  0  0
   26.6890   15.5134   22.5403 C   0  0  0  0  0  0  0  0  0  0  0  0
   29.2651   13.7008   27.1161 O   0  0  0  0  0  0  0  0  0  0  0  0
   30.4502   14.3418   27.5729 C   0  0  0  0  0  0  0  0  0  0  0  0
   29.9353    8.3730   30.4438 C   0  0  0  0  0  0  0  0  0  0  0  0
   31.2888    8.1561   30.5853 N   0  0  0  0  0  0  0  0  0  0  0  0
   32.0758    8.7718   29.5539 C   0  0  0  0  0  0  0  0  0  0  0  0
   29.0860    7.9518   31.2026 O   0  0  0  0  0  0  0  0  0  0  0  0
   29.8148   12.4056   23.5804 C   0  0  0  0  0  0  0  0  0  0  0  0
   34.7713   12.4213   24.2905 H   0  0  0  0  0  0  0  0  0  0  0  0
   32.3736   12.7963   24.0584 H   0  0  0  0  0  0  0  0  0  0  0  0
   34.1353    9.8521   27.6552 H   0  0  0  0  0  0  0  0  0  0  0  0
   35.6643   10.9585   26.0644 H   0  0  0  0  0  0  0  0  0  0  0  0
   24.5836   11.0476   27.1495 H   0  0  0  0  0  0  0  0  0  0  0  0
   23.2544    9.9628   28.9278 H   0  0  0  0  0  0  0  0  0  0  0  0
   24.3620    8.6703   30.7166 H   0  0  0  0  0  0  0  0  0  0  0  0
   26.8125    8.4362   30.7627 H   0  0  0  0  0  0  0  0  0  0  0  0
   26.7063   13.2537   27.1770 H   0  0  0  0  0  0  0  0  0  0  0  0
   25.7266   13.1719   25.7363 H   0  0  0  0  0  0  0  0  0  0  0  0
   29.8225   14.4163   25.2470 H   0  0  0  0  0  0  0  0  0  0  0  0
   27.5182   13.8227   24.2932 H   0  0  0  0  0  0  0  0  0  0  0  0
   26.3476   11.0568   25.4281 H   0  0  0  0  0  0  0  0  0  0  0  0
   28.1667   16.0967   27.3819 H   0  0  0  0  0  0  0  0  0  0  0  0
   26.6713   16.9244   26.9108 H   0  0  0  0  0  0  0  0  0  0  0  0
   26.5734   15.2807   27.5349 H   0  0  0  0  0  0  0  0  0  0  0  0
   29.8316   16.7646   23.0058 H   0  0  0  0  0  0  0  0  0  0  0  0
   30.0005   16.1403   20.6034 H   0  0  0  0  0  0  0  0  0  0  0  0
   28.0505   15.1246   19.4451 H   0  0  0  0  0  0  0  0  0  0  0  0
   25.9272   14.7429   20.6772 H   0  0  0  0  0  0  0  0  0  0  0  0
   25.7523   15.3654   23.0739 H   0  0  0  0  0  0  0  0  0  0  0  0
   31.3451   13.8205   27.2271 H   0  0  0  0  0  0  0  0  0  0  0  0
   30.4458   14.3305   28.6686 H   0  0  0  0  0  0  0  0  0  0  0  0
   30.4758   15.3850   27.2398 H   0  0  0  0  0  0  0  0  0  0  0  0
   31.6494    7.6206   31.3622 H   0  0  0  0  0  0  0  0  0  0  0  0
   32.7541    9.4983   30.0096 H   0  0  0  0  0  0  0  0  0  0  0  0
   32.6271    7.9968   29.0148 H   0  0  0  0  0  0  0  0  0  0  0  0
   30.2568   11.4853   23.1818 H   0  0  0  0  0  0  0  0  0  0  0  0
   30.5043   13.2338   23.4068 H   0  0  0  0  0  0  0  0  0  0  0  0
   28.9308   12.6060   22.9607 H   0  0  0  0  0  0  0  0  0  0  0  0
  6  1  2  0
  2  3  2  0
  4  5  2  0
  1  8  1  0
  2  1  1  0
  7  2  1  0
  7  9  1  0
 10  3  1  0
  4  3  1  0
 12  4  1  0
 10 11  1  0
 14  9  1  0
  9  8  2  0
  8 15  1  0
 13 14  2  0
 16 13  1  0
 15 16  2  0
 11 17  1  0
 12 11  2  0
 20 12  1  0
 17 18  2  0
 18 19  1  0
 19 20  2  0
 10 25  1  0
 25 21  1  0
  7 26  1  0
 26 21  1  0
 25 22  1  0
 26 23  1  0
 22 24  1  0
 23 24  1  0
 24 27  1  0
 27 28  1  0
 27 29  1  0
 28 30  2  0
 28 31  1  0
 32 31  2  0
 36 31  1  0
 32 33  1  0
 33 34  2  0
 34 35  1  0
 35 36  2  0
 23 37  1  0
 37 38  1  0
  5 39  1  0
  6  5  1  0
  6 41  1  0
 39 40  1  0
 40 41  1  0
 39 42  2  0
 26 43  1  6
 13 44  1  0
 14 45  1  0
 15 46  1  0
 16 47  1  0
 17 48  1  0
 18 49  1  0
 19 50  1  0
 20 51  1  0
 22 52  1  0
 22 53  1  0
 23 54  1  6
 24 55  1  6
 25 56  1  6
 29 57  1  0
 29 58  1  0
 29 59  1  0
 32 60  1  0
 33 61  1  0
 34 62  1  0
 35 63  1  0
 36 64  1  0
 38 65  1  0
 38 66  1  0
 38 67  1  0
 40 68  1  0
 41 69  1  0
 41 70  1  0
 43 71  1  0
 43 72  1  0
 43 73  1  0
M  END
> <Uni-Dock RESULT> 
ENERGY=   -4.377  LOWER_BOUND=    3.729  UPPER_BOUND=    8.701
INTER + INTRA:          -4.377
INTER:                  -4.377
INTRA:                   0.000
UNBOUND:                 0.000

$$$$

     RDKit          3D

 73 81  0  0  0  0  0  0  0  0999 V2000
   31.2992   10.3222   27.4186 C   0  0  0  0  0  0  0  0  0  0  0  0
   30.0140   10.6562   27.0499 C   0  0  0  0  0  0  0  0  0  0  0  0
   28.7989   10.1861   27.9073 C   0  0  0  0  0  0  0  0  0  0  0  0
   28.9806    9.4360   29.0583 C   0  0  0  0  0  0  0  0  0  0  0  0
   30.3183    9.1412   29.3636 C   0  0  0  0  0  0  0  0  0  0  0  0
   31.4437    9.5538   28.5859 C   0  0  0  0  0  0  0  0  0  0  0  0
   30.0295   11.4376   25.9196 N   0  0  0  0  0  0  0  0  0  0  0  0
   32.1600   10.9151   26.4555 C   0  0  0  0  0  0  0  0  0  0  0  0
   31.3603   11.6326   25.5442 C   0  0  0  0  0  0  0  0  0  0  0  0
   27.4719   10.4018   27.7016 N   0  0  0  0  0  0  0  0  0  0  0  0
   26.7493    9.8007   28.7222 C   0  0  0  0  0  0  0  0  0  0  0  0
   27.6750    9.1921   29.5857 C   0  0  0  0  0  0  0  0  0  0  0  0
   33.3605   12.3688   24.3849 C   0  0  0  0  0  0  0  0  0  0  0  0
   31.9663   12.3778   24.5134 C   0  0  0  0  0  0  0  0  0  0  0  0
   33.5654   10.9257   26.3029 C   0  0  0  0  0  0  0  0  0  0  0  0
   34.1524   11.6486   25.2641 C   0  0  0  0  0  0  0  0  0  0  0  0
   25.3623    9.7370   28.9530 C   0  0  0  0  0  0  0  0  0  0  0  0
   24.9063    9.0456   30.0777 C   0  0  0  0  0  0  0  0  0  0  0  0
   25.7998    8.4361   30.9479 C   0  0  0  0  0  0  0  0  0  0  0  0
   27.1773    8.5023   30.7130 C   0  0  0  0  0  0  0  0  0  0  0  0
   27.7481   11.0404   25.4304 O   0  0  0  0  0  0  0  0  0  0  0  0
   26.2817   12.4622   26.8605 C   0  0  0  0  0  0  0  0  0  0  0  0
   28.4370   13.4111   26.0032 C   0  0  2  0  0  0  0  0  0  0  0  0
   26.8963   13.5395   25.9626 C   0  0  2  0  0  0  0  0  0  0  0  0
   26.8744   11.0798   26.5567 C   0  0  2  0  0  0  0  0  0  0  0  0
   28.8077   12.0295   25.3462 C   0  0  1  0  0  0  0  0  0  0  0  0
   26.4038   14.9207   26.2375 N   0  0  0  0  0  0  0  0  0  0  0  0
   26.4502   15.9222   25.2495 C   0  0  0  0  0  0  0  0  0  0  0  0
   26.4346   15.4235   27.6075 C   0  0  0  0  0  0  0  0  0  0  0  0
   26.5702   17.1197   25.4961 O   0  0  0  0  0  0  0  0  0  0  0  0
   26.3301   15.5311   23.8266 C   0  0  0  0  0  0  0  0  0  0  0  0
   27.3235   15.9220   22.9232 C   0  0  0  0  0  0  0  0  0  0  0  0
   27.2114   15.5627   21.5777 C   0  0  0  0  0  0  0  0  0  0  0  0
   26.1029   14.8314   21.1405 C   0  0  0  0  0  0  0  0  0  0  0  0
   25.0989   14.4653   22.0402 C   0  0  0  0  0  0  0  0  0  0  0  0
   25.2055   14.8225   23.3856 C   0  0  0  0  0  0  0  0  0  0  0  0
   28.8156   13.4907   27.3922 O   0  0  0  0  0  0  0  0  0  0  0  0
   29.9613   14.3019   27.6232 C   0  0  0  0  0  0  0  0  0  0  0  0
   30.8416    8.3841   30.5109 C   0  0  0  0  0  0  0  0  0  0  0  0
   32.2147    8.3629   30.3966 N   0  0  0  0  0  0  0  0  0  0  0  0
   32.7014    9.0606   29.2396 C   0  0  0  0  0  0  0  0  0  0  0  0
   30.2162    7.8644   31.4127 O   0  0  0  0  0  0  0  0  0  0  0  0
   28.8796   12.2088   23.8098 C   0  0  0  0  0  0  0  0  0  0  0  0
   33.8284   12.9371   23.5836 H   0  0  0  0  0  0  0  0  0  0  0  0
   31.4006   12.9660   23.8043 H   0  0  0  0  0  0  0  0  0  0  0  0
   34.1986   10.3782   26.9954 H   0  0  0  0  0  0  0  0  0  0  0  0
   35.2333   11.6536   25.1528 H   0  0  0  0  0  0  0  0  0  0  0  0
   24.6473   10.2066   28.2849 H   0  0  0  0  0  0  0  0  0  0  0  0
   23.8385    8.9848   30.2745 H   0  0  0  0  0  0  0  0  0  0  0  0
   25.4307    7.9003   31.8193 H   0  0  0  0  0  0  0  0  0  0  0  0
   27.8552    8.0143   31.4066 H   0  0  0  0  0  0  0  0  0  0  0  0
   26.4025   12.6895   27.9268 H   0  0  0  0  0  0  0  0  0  0  0  0
   25.1947   12.4393   26.6937 H   0  0  0  0  0  0  0  0  0  0  0  0
   28.9097   14.2365   25.4554 H   0  0  0  0  0  0  0  0  0  0  0  0
   26.5769   13.3039   24.9450 H   0  0  0  0  0  0  0  0  0  0  0  0
   26.0424   10.4263   26.2649 H   0  0  0  0  0  0  0  0  0  0  0  0
   27.4559   15.7134   27.8696 H   0  0  0  0  0  0  0  0  0  0  0  0
   25.7969   16.3121   27.6896 H   0  0  0  0  0  0  0  0  0  0  0  0
   26.0511   14.6849   28.3130 H   0  0  0  0  0  0  0  0  0  0  0  0
   28.1694   16.5133   23.2631 H   0  0  0  0  0  0  0  0  0  0  0  0
   27.9776   15.8666   20.8684 H   0  0  0  0  0  0  0  0  0  0  0  0
   26.0115   14.5616   20.0890 H   0  0  0  0  0  0  0  0  0  0  0  0
   24.2293   13.9119   21.6934 H   0  0  0  0  0  0  0  0  0  0  0  0
   24.4145   14.5559   24.0837 H   0  0  0  0  0  0  0  0  0  0  0  0
   30.8417   13.9043   27.1141 H   0  0  0  0  0  0  0  0  0  0  0  0
   30.1615   14.3140   28.7004 H   0  0  0  0  0  0  0  0  0  0  0  0
   29.7761   15.3308   27.2961 H   0  0  0  0  0  0  0  0  0  0  0  0
   32.7855    7.9006   31.0901 H   0  0  0  0  0  0  0  0  0  0  0  0
   33.3420    9.8851   29.5643 H   0  0  0  0  0  0  0  0  0  0  0  0
   33.2479    8.3593   28.6034 H   0  0  0  0  0  0  0  0  0  0  0  0
   29.3666   11.3513   23.3313 H   0  0  0  0  0  0  0  0  0  0  0  0
   29.4001   13.1218   23.5147 H   0  0  0  0  0  0  0  0  0  0  0  0
   27.8768   12.2693   23.3668 H   0  0  0  0  0  0  0  0  0  0  0  0
  6  1  2  0
  2  3  2  0
  4  5  2  0
  1  8  1  0
  2  1  1  0
  7  2  1  0
  7  9  1  0
 10  3  1  0
  4  3  1  0
 12  4  1  0
 10 11  1  0
 14  9  1  0
  9  8  2  0
  8 15  1  0
 13 14  2  0
 16 13  1  0
 15 16  2  0
 11 17  1  0
 12 11  2  0
 20 12  1  0
 17 18  2  0
 18 19  1  0
 19 20  2  0
 10 25  1  0
 25 21  1  0
  7 26  1  0
 26 21  1  0
 25 22  1  0
 26 23  1  0
 22 24  1  0
 23 24  1  0
 24 27  1  0
 27 28  1  0
 27 29  1  0
 28 30  2  0
 28 31  1  0
 32 31  2  0
 36 31  1  0
 32 33  1  0
 33 34  2  0
 34 35  1  0
 35 36  2  0
 23 37  1  0
 37 38  1  0
  5 39  1  0
  6  5  1  0
  6 41  1  0
 39 40  1  0
 40 41  1  0
 39 42  2  0
 26 43  1  6
 13 44  1  0
 14 45  1  0
 15 46  1  0
 16 47  1  0
 17 48  1  0
 18 49  1  0
 19 50  1  0
 20 51  1  0
 22 52  1  0
 22 53  1  0
 23 54  1  6
 24 55  1  6
 25 56  1  6
 29 57  1  0
 29 58  1  0
 29 59  1  0
 32 60  1  0
 33 61  1  0
 34 62  1  0
 35 63  1  0
 36 64  1  0
 38 65  1  0
 38 66  1  0
 38 67  1  0
 40 68  1  0
 41 69  1  0
 41 70  1  0
 43 71  1  0
 43 72  1  0
 43 73  1  0
M  END
> <Uni-Dock RESULT> 
ENERGY=   -4.305  LOWER_BOUND=    3.733  UPPER_BOUND=    9.154
INTER + INTRA:          -4.305
INTER:                  -4.305
INTRA:                   0.000
UNBOUND:                 0.000

$$$$

     RDKit          3D

 73 81  0  0  0  0  0  0  0  0999 V2000
   27.8096   10.8949   27.1100 C   0  0  0  0  0  0  0  0  0  0  0  0
   28.9186   10.3238   27.6960 C   0  0  0  0  0  0  0  0  0  0  0  0
   30.3460   10.6225   27.1432 C   0  0  0  0  0  0  0  0  0  0  0  0
   30.5342   11.4718   26.0644 C   0  0  0  0  0  0  0  0  0  0  0  0
   29.3552   12.0122   25.5281 C   0  0  0  0  0  0  0  0  0  0  0  0
   28.0387   11.7429   26.0135 C   0  0  0  0  0  0  0  0  0  0  0  0
   28.5471    9.5565   28.7738 N   0  0  0  0  0  0  0  0  0  0  0  0
   26.6856   10.4450   27.8546 C   0  0  0  0  0  0  0  0  0  0  0  0
   27.1593    9.6367   28.9068 C   0  0  0  0  0  0  0  0  0  0  0  0
   31.5465   10.1497   27.5733 N   0  0  0  0  0  0  0  0  0  0  0  0
   32.5556   10.6863   26.7865 C   0  0  0  0  0  0  0  0  0  0  0  0
   31.9441   11.5203   25.8362 C   0  0  0  0  0  0  0  0  0  0  0  0
   24.8848    9.3613   29.7051 C   0  0  0  0  0  0  0  0  0  0  0  0
   26.2542    9.1063   29.8473 C   0  0  0  0  0  0  0  0  0  0  0  0
   25.2979   10.6873   27.7369 C   0  0  0  0  0  0  0  0  0  0  0  0
   24.4093   10.1375   28.6610 C   0  0  0  0  0  0  0  0  0  0  0  0
   33.9504   10.5024   26.8283 C   0  0  0  0  0  0  0  0  0  0  0  0
   34.7383   11.1757   25.8917 C   0  0  0  0  0  0  0  0  0  0  0  0
   34.1595   12.0068   24.9424 C   0  0  0  0  0  0  0  0  0  0  0  0
   32.7725   12.1852   24.9055 C   0  0  0  0  0  0  0  0  0  0  0  0
   30.5951    8.3714   28.8281 O   0  0  0  0  0  0  0  0  0  0  0  0
   32.3720    9.7361   29.9221 C   0  0  0  0  0  0  0  0  0  0  0  0
   30.0315    9.8454   30.8112 C   0  0  2  0  0  0  0  0  0  0  0  0
   31.4874    9.4365   31.1354 C   0  0  2  0  0  0  0  0  0  0  0  0
   31.7596    9.1710   28.6337 C   0  0  2  0  0  0  0  0  0  0  0  0
   29.5273    8.9005   29.6575 C   0  0  1  0  0  0  0  0  0  0  0  0
   31.9956   10.0019   32.4191 N   0  0  0  0  0  0  0  0  0  0  0  0
   31.6296    9.4434   33.6582 C   0  0  0  0  0  0  0  0  0  0  0  0
   32.3533   11.4160   32.4772 C   0  0  0  0  0  0  0  0  0  0  0  0
   31.5501   10.0880   34.7010 O   0  0  0  0  0  0  0  0  0  0  0  0
   31.3383    7.9938   33.7327 C   0  0  0  0  0  0  0  0  0  0  0  0
   30.1115    7.5680   34.2519 C   0  0  0  0  0  0  0  0  0  0  0  0
   29.8342    6.2011   34.3320 C   0  0  0  0  0  0  0  0  0  0  0  0
   30.7874    5.2695   33.9097 C   0  0  0  0  0  0  0  0  0  0  0  0
   32.0225    5.6971   33.4164 C   0  0  0  0  0  0  0  0  0  0  0  0
   32.3050    7.0618   33.3349 C   0  0  0  0  0  0  0  0  0  0  0  0
   30.0756   11.2326   30.4205 O   0  0  0  0  0  0  0  0  0  0  0  0
   29.0238   12.0130   30.9759 C   0  0  0  0  0  0  0  0  0  0  0  0
   29.2162   12.9475   24.4014 C   0  0  0  0  0  0  0  0  0  0  0  0
   27.8715   13.2056   24.2461 N   0  0  0  0  0  0  0  0  0  0  0  0
   27.0447   12.5134   25.1945 C   0  0  0  0  0  0  0  0  0  0  0  0
   30.0950   13.4287   23.7154 O   0  0  0  0  0  0  0  0  0  0  0  0
   29.0013    7.5846   30.2816 C   0  0  0  0  0  0  0  0  0  0  0  0
   24.1846    8.9446   30.4263 H   0  0  0  0  0  0  0  0  0  0  0  0
   26.5678    8.5023   30.6872 H   0  0  0  0  0  0  0  0  0  0  0  0
   24.9136   11.3077   26.9320 H   0  0  0  0  0  0  0  0  0  0  0  0
   23.3437   10.3285   28.5657 H   0  0  0  0  0  0  0  0  0  0  0  0
   34.4225    9.8570   27.5622 H   0  0  0  0  0  0  0  0  0  0  0  0
   35.8181   11.0477   25.9069 H   0  0  0  0  0  0  0  0  0  0  0  0
   34.7850   12.5241   24.2186 H   0  0  0  0  0  0  0  0  0  0  0  0
   32.3440   12.8379   24.1510 H   0  0  0  0  0  0  0  0  0  0  0  0
   32.5631   10.8095   29.8003 H   0  0  0  0  0  0  0  0  0  0  0  0
   33.3621    9.2856   30.0852 H   0  0  0  0  0  0  0  0  0  0  0  0
   29.3932    9.7433   31.6983 H   0  0  0  0  0  0  0  0  0  0  0  0
   31.5007    8.3514   31.2592 H   0  0  0  0  0  0  0  0  0  0  0  0
   32.4890    8.4709   28.2068 H   0  0  0  0  0  0  0  0  0  0  0  0
   31.4456   12.0220   32.5459 H   0  0  0  0  0  0  0  0  0  0  0  0
   32.9589   11.6076   33.3713 H   0  0  0  0  0  0  0  0  0  0  0  0
   32.9501   11.7131   31.6136 H   0  0  0  0  0  0  0  0  0  0  0  0
   29.3849    8.2954   34.6036 H   0  0  0  0  0  0  0  0  0  0  0  0
   28.8843    5.8621   34.7386 H   0  0  0  0  0  0  0  0  0  0  0  0
   30.5741    4.2037   33.9833 H   0  0  0  0  0  0  0  0  0  0  0  0
   32.7685    4.9695   33.1055 H   0  0  0  0  0  0  0  0  0  0  0  0
   33.2742    7.3961   32.9701 H   0  0  0  0  0  0  0  0  0  0  0  0
   28.0455   11.6586   30.6447 H   0  0  0  0  0  0  0  0  0  0  0  0
   29.1488   13.0477   30.6376 H   0  0  0  0  0  0  0  0  0  0  0  0
   29.0725   12.0007   32.0702 H   0  0  0  0  0  0  0  0  0  0  0  0
   27.5446   13.8377   23.5292 H   0  0  0  0  0  0  0  0  0  0  0  0
   26.5025   13.2475   25.7967 H   0  0  0  0  0  0  0  0  0  0  0  0
   26.3575   11.8555   24.6559 H   0  0  0  0  0  0  0  0  0  0  0  0
   28.4222    7.0031   29.5552 H   0  0  0  0  0  0  0  0  0  0  0  0
   28.3889    7.7531   31.1694 H   0  0  0  0  0  0  0  0  0  0  0  0
   29.8272    6.9332   30.5965 H   0  0  0  0  0  0  0  0  0  0  0  0
  6  1  2  0
  2  3  2  0
  4  5  2  0
  1  8  1  0
  2  1  1  0
  7  2  1  0
  7  9  1  0
 10  3  1  0
  4  3  1  0
 12  4  1  0
 10 11  1  0
 14  9  1  0
  9  8  2  0
  8 15  1  0
 13 14  2  0
 16 13  1  0
 15 16  2  0
 11 17  1  0
 12 11  2  0
 20 12  1  0
 17 18  2  0
 18 19  1  0
 19 20  2  0
 10 25  1  0
 25 21  1  0
  7 26  1  0
 26 21  1  0
 25 22  1  0
 26 23  1  0
 22 24  1  0
 23 24  1  0
 24 27  1  0
 27 28  1  0
 27 29  1  0
 28 30  2  0
 28 31  1  0
 32 31  2  0
 36 31  1  0
 32 33  1  0
 33 34  2  0
 34 35  1  0
 35 36  2  0
 23 37  1  0
 37 38  1  0
  5 39  1  0
  6  5  1  0
  6 41  1  0
 39 40  1  0
 40 41  1  0
 39 42  2  0
 26 43  1  6
 13 44  1  0
 14 45  1  0
 15 46  1  0
 16 47  1  0
 17 48  1  0
 18 49  1  0
 19 50  1  0
 20 51  1  0
 22 52  1  0
 22 53  1  0
 23 54  1  6
 24 55  1  6
 25 56  1  6
 29 57  1  0
 29 58  1  0
 29 59  1  0
 32 60  1  0
 33 61  1  0
 34 62  1  0
 35 63  1  0
 36 64  1  0
 38 65  1  0
 38 66  1  0
 38 67  1  0
 40 68  1  0
 41 69  1  0
 41 70  1  0
 43 71  1  0
 43 72  1  0
 43 73  1  0
M  END
> <Uni-Dock RESULT> 
ENERGY=   -4.200  LOWER_BOUND=    3.398  UPPER_BOUND=    5.515
INTER + INTRA:          -4.200
INTER:                  -4.200
INTRA:                   0.000
UNBOUND:                 0.000

$$$$

     RDKit          3D

 73 81  0  0  0  0  0  0  0  0999 V2000
   24.3418    2.7194   31.6623 C   0  0  0  0  0  0  0  0  0  0  0  0
   25.2377    3.7600   31.5442 C   0  0  0  0  0  0  0  0  0  0  0  0
   24.7352    5.2033   31.2334 C   0  0  0  0  0  0  0  0  0  0  0  0
   23.3850    5.4754   31.0805 C   0  0  0  0  0  0  0  0  0  0  0  0
   22.5411    4.3624   31.2179 C   0  0  0  0  0  0  0  0  0  0  0  0
   22.9826    3.0315   31.4922 C   0  0  0  0  0  0  0  0  0  0  0  0
   26.5178    3.3160   31.7737 N   0  0  0  0  0  0  0  0  0  0  0  0
   25.1088    1.5619   31.9661 C   0  0  0  0  0  0  0  0  0  0  0  0
   26.4593    1.9512   32.0631 C   0  0  0  0  0  0  0  0  0  0  0  0
   25.4573    6.3440   31.0691 N   0  0  0  0  0  0  0  0  0  0  0  0
   24.5922    7.3974   30.8100 C   0  0  0  0  0  0  0  0  0  0  0  0
   23.2879    6.8763   30.8156 C   0  0  0  0  0  0  0  0  0  0  0  0
   27.0627   -0.3255   32.6454 C   0  0  0  0  0  0  0  0  0  0  0  0
   27.4391    1.0045   32.4220 C   0  0  0  0  0  0  0  0  0  0  0  0
   24.7575    0.2126   32.1991 C   0  0  0  0  0  0  0  0  0  0  0  0
   25.7399   -0.7204   32.5312 C   0  0  0  0  0  0  0  0  0  0  0  0
   24.8489    8.7596   30.5659 C   0  0  0  0  0  0  0  0  0  0  0  0
   23.7656    9.6076   30.3241 C   0  0  0  0  0  0  0  0  0  0  0  0
   22.4663    9.1186   30.3250 C   0  0  0  0  0  0  0  0  0  0  0  0
   22.2175    7.7636   30.5678 C   0  0  0  0  0  0  0  0  0  0  0  0
   27.5170    5.2036   30.7537 O   0  0  0  0  0  0  0  0  0  0  0  0
   27.5020    7.1537   32.3072 C   0  0  0  0  0  0  0  0  0  0  0  0
   27.9028    4.8603   33.2348 C   0  0  2  0  0  0  0  0  0  0  0  0
   28.5228    6.2605   33.0176 C   0  0  2  0  0  0  0  0  0  0  0  0
   26.9118    6.4540   31.0758 C   0  0  2  0  0  0  0  0  0  0  0  0
   27.6783    4.2237   31.8128 C   0  0  1  0  0  0  0  0  0  0  0  0
   29.1019    6.8569   34.2566 N   0  0  0  0  0  0  0  0  0  0  0  0
   30.3561    6.4468   34.7466 C   0  0  0  0  0  0  0  0  0  0  0  0
   28.2004    7.3865   35.2752 C   0  0  0  0  0  0  0  0  0  0  0  0
   30.6640    6.4655   35.9356 O   0  0  0  0  0  0  0  0  0  0  0  0
   31.3828    5.9810   33.7870 C   0  0  0  0  0  0  0  0  0  0  0  0
   31.9625    4.7206   33.9631 C   0  0  0  0  0  0  0  0  0  0  0  0
   32.9377    4.2789   33.0654 C   0  0  0  0  0  0  0  0  0  0  0  0
   33.3389    5.1029   32.0095 C   0  0  0  0  0  0  0  0  0  0  0  0
   32.7773    6.3723   31.8516 C   0  0  0  0  0  0  0  0  0  0  0  0
   31.8031    6.8188   32.7464 C   0  0  0  0  0  0  0  0  0  0  0  0
   26.6720    5.0676   33.9567 O   0  0  0  0  0  0  0  0  0  0  0  0
   26.4637    4.1296   35.0058 C   0  0  0  0  0  0  0  0  0  0  0  0
   21.0737    4.3195   31.1269 C   0  0  0  0  0  0  0  0  0  0  0  0
   20.6874    3.0142   31.3410 N   0  0  0  0  0  0  0  0  0  0  0  0
   21.7895    2.1254   31.5813 C   0  0  0  0  0  0  0  0  0  0  0  0
   20.3100    5.2385   30.9107 O   0  0  0  0  0  0  0  0  0  0  0  0
   28.9947    3.5511   31.3516 C   0  0  0  0  0  0  0  0  0  0  0  0
   27.8204   -1.0588   32.9141 H   0  0  0  0  0  0  0  0  0  0  0  0
   28.4843    1.2562   32.5356 H   0  0  0  0  0  0  0  0  0  0  0  0
   23.7213   -0.1067   32.1286 H   0  0  0  0  0  0  0  0  0  0  0  0
   25.4632   -1.7560   32.7102 H   0  0  0  0  0  0  0  0  0  0  0  0
   25.8570    9.1616   30.5607 H   0  0  0  0  0  0  0  0  0  0  0  0
   23.9420   10.6635   30.1336 H   0  0  0  0  0  0  0  0  0  0  0  0
   21.6324    9.7901   30.1343 H   0  0  0  0  0  0  0  0  0  0  0  0
   21.1926    7.4052   30.5596 H   0  0  0  0  0  0  0  0  0  0  0  0
   26.6918    7.4730   32.9743 H   0  0  0  0  0  0  0  0  0  0  0  0
   28.0004    8.0837   31.9962 H   0  0  0  0  0  0  0  0  0  0  0  0
   28.5695    4.2300   33.8373 H   0  0  0  0  0  0  0  0  0  0  0  0
   29.3573    6.1426   32.3229 H   0  0  0  0  0  0  0  0  0  0  0  0
   27.1350    7.0842   30.2055 H   0  0  0  0  0  0  0  0  0  0  0  0
   27.7694    6.5615   35.8492 H   0  0  0  0  0  0  0  0  0  0  0  0
   28.7605    8.0266   35.9676 H   0  0  0  0  0  0  0  0  0  0  0  0
   27.4140    7.9999   34.8331 H   0  0  0  0  0  0  0  0  0  0  0  0
   31.6664    4.0952   34.8009 H   0  0  0  0  0  0  0  0  0  0  0  0
   33.3961    3.3019   33.1983 H   0  0  0  0  0  0  0  0  0  0  0  0
   34.1074    4.7616   31.3169 H   0  0  0  0  0  0  0  0  0  0  0  0
   33.1045    7.0177   31.0399 H   0  0  0  0  0  0  0  0  0  0  0  0
   31.3794    7.8152   32.6369 H   0  0  0  0  0  0  0  0  0  0  0  0
   26.3963    3.1095   34.6221 H   0  0  0  0  0  0  0  0  0  0  0  0
   25.5184    4.3748   35.5025 H   0  0  0  0  0  0  0  0  0  0  0  0
   27.2685    4.1957   35.7460 H   0  0  0  0  0  0  0  0  0  0  0  0
   19.7111    2.7548   31.3337 H   0  0  0  0  0  0  0  0  0  0  0  0
   21.6835    1.6882   32.5778 H   0  0  0  0  0  0  0  0  0  0  0  0
   21.8008    1.3532   30.8074 H   0  0  0  0  0  0  0  0  0  0  0  0
   28.8253    2.8923   30.4923 H   0  0  0  0  0  0  0  0  0  0  0  0
   29.4783    2.9798   32.1461 H   0  0  0  0  0  0  0  0  0  0  0  0
   29.7288    4.2961   31.0177 H   0  0  0  0  0  0  0  0  0  0  0  0
  6  1  2  0
  2  3  2  0
  4  5  2  0
  1  8  1  0
  2  1  1  0
  7  2  1  0
  7  9  1  0
 10  3  1  0
  4  3  1  0
 12  4  1  0
 10 11  1  0
 14  9  1  0
  9  8  2  0
  8 15  1  0
 13 14  2  0
 16 13  1  0
 15 16  2  0
 11 17  1  0
 12 11  2  0
 20 12  1  0
 17 18  2  0
 18 19  1  0
 19 20  2  0
 10 25  1  0
 25 21  1  0
  7 26  1  0
 26 21  1  0
 25 22  1  0
 26 23  1  0
 22 24  1  0
 23 24  1  0
 24 27  1  0
 27 28  1  0
 27 29  1  0
 28 30  2  0
 28 31  1  0
 32 31  2  0
 36 31  1  0
 32 33  1  0
 33 34  2  0
 34 35  1  0
 35 36  2  0
 23 37  1  0
 37 38  1  0
  5 39  1  0
  6  5  1  0
  6 41  1  0
 39 40  1  0
 40 41  1  0
 39 42  2  0
 26 43  1  6
 13 44  1  0
 14 45  1  0
 15 46  1  0
 16 47  1  0
 17 48  1  0
 18 49  1  0
 19 50  1  0
 20 51  1  0
 22 52  1  0
 22 53  1  0
 23 54  1  6
 24 55  1  6
 25 56  1  6
 29 57  1  0
 29 58  1  0
 29 59  1  0
 32 60  1  0
 33 61  1  0
 34 62  1  0
 35 63  1  0
 36 64  1  0
 38 65  1  0
 38 66  1  0
 38 67  1  0
 40 68  1  0
 41 69  1  0
 41 70  1  0
 43 71  1  0
 43 72  1  0
 43 73  1  0
M  END
> <Uni-Dock RESULT> 
ENERGY=   -4.074  LOWER_BOUND=    7.270  UPPER_BOUND=   10.088
INTER + INTRA:          -4.074
INTER:                  -4.074
INTRA:                   0.000
UNBOUND:                 0.000

$$$$

     RDKit          3D

 73 81  0  0  0  0  0  0  0  0999 V2000
   27.4374    4.7889   31.4508 C   0  0  0  0  0  0  0  0  0  0  0  0
   26.0618    4.8331   31.3809 C   0  0  0  0  0  0  0  0  0  0  0  0
   25.2212    3.5273   31.5254 C   0  0  0  0  0  0  0  0  0  0  0  0
   25.8314    2.3013   31.7372 C   0  0  0  0  0  0  0  0  0  0  0  0
   27.2329    2.3439   31.7976 C   0  0  0  0  0  0  0  0  0  0  0  0
   28.0208    3.5276   31.6575 C   0  0  0  0  0  0  0  0  0  0  0  0
   25.6336    6.1287   31.2179 N   0  0  0  0  0  0  0  0  0  0  0  0
   27.8900    6.1286   31.3073 C   0  0  0  0  0  0  0  0  0  0  0  0
   26.7568    6.9579   31.1936 C   0  0  0  0  0  0  0  0  0  0  0  0
   23.8716    3.3682   31.4724 N   0  0  0  0  0  0  0  0  0  0  0  0
   23.5636    2.0278   31.6561 C   0  0  0  0  0  0  0  0  0  0  0  0
   24.7768    1.3411   31.8270 C   0  0  0  0  0  0  0  0  0  0  0  0
   28.2036    8.9031   31.0943 C   0  0  0  0  0  0  0  0  0  0  0  0
   26.9152    8.3551   31.1040 C   0  0  0  0  0  0  0  0  0  0  0  0
   29.1787    6.7097   31.2969 C   0  0  0  0  0  0  0  0  0  0  0  0
   29.3233    8.0926   31.1844 C   0  0  0  0  0  0  0  0  0  0  0  0
   22.3225    1.3643   31.6796 C   0  0  0  0  0  0  0  0  0  0  0  0
   22.3111   -0.0180   31.8803 C   0  0  0  0  0  0  0  0  0  0  0  0
   23.4957   -0.7208   32.0530 C   0  0  0  0  0  0  0  0  0  0  0  0
   24.7263   -0.0558   32.0282 C   0  0  0  0  0  0  0  0  0  0  0  0
   23.4852    5.4835   30.4631 O   0  0  0  0  0  0  0  0  0  0  0  0
   22.0347    4.8383   32.3858 C   0  0  0  0  0  0  0  0  0  0  0  0
   23.6358    6.7474   32.6545 C   0  0  2  0  0  0  0  0  0  0  0  0
   22.1425    6.3455   32.6330 C   0  0  2  0  0  0  0  0  0  0  0  0
   22.8898    4.4084   31.1864 C   0  0  2  0  0  0  0  0  0  0  0  0
   24.2070    6.4987   31.2090 C   0  0  1  0  0  0  0  0  0  0  0  0
   21.3760    6.8286   33.8183 N   0  0  0  0  0  0  0  0  0  0  0  0
   20.9494    8.1665   33.9158 C   0  0  0  0  0  0  0  0  0  0  0  0
   21.5631    6.1603   35.1025 C   0  0  0  0  0  0  0  0  0  0  0  0
   20.8018    8.7602   34.9810 O   0  0  0  0  0  0  0  0  0  0  0  0
   20.6379    8.9114   32.6748 C   0  0  0  0  0  0  0  0  0  0  0  0
   21.2806   10.1285   32.4276 C   0  0  0  0  0  0  0  0  0  0  0  0
   20.9847   10.8399   31.2621 C   0  0  0  0  0  0  0  0  0  0  0  0
   20.0392   10.3411   30.3609 C   0  0  0  0  0  0  0  0  0  0  0  0
   19.3792    9.1382   30.6236 C   0  0  0  0  0  0  0  0  0  0  0  0
   19.6705    8.4238   31.7871 C   0  0  0  0  0  0  0  0  0  0  0  0
   24.2651    5.9221   33.6555 O   0  0  0  0  0  0  0  0  0  0  0  0
   25.1811    6.6303   34.4820 C   0  0  0  0  0  0  0  0  0  0  0  0
   28.1659    1.2292   32.0217 C   0  0  0  0  0  0  0  0  0  0  0  0
   29.4406    1.7526   32.0110 N   0  0  0  0  0  0  0  0  0  0  0  0
   29.4723    3.1721   31.7954 C   0  0  0  0  0  0  0  0  0  0  0  0
   27.9031    0.0562   32.1932 O   0  0  0  0  0  0  0  0  0  0  0  0
   23.9034    7.7372   30.3305 C   0  0  0  0  0  0  0  0  0  0  0  0
   28.3266    9.9814   31.0163 H   0  0  0  0  0  0  0  0  0  0  0  0
   26.0790    9.0374   31.0411 H   0  0  0  0  0  0  0  0  0  0  0  0
   30.0644    6.0864   31.3833 H   0  0  0  0  0  0  0  0  0  0  0  0
   30.3166    8.5332   31.1781 H   0  0  0  0  0  0  0  0  0  0  0  0
   21.3853    1.8952   31.5464 H   0  0  0  0  0  0  0  0  0  0  0  0
   21.3629   -0.5499   31.9022 H   0  0  0  0  0  0  0  0  0  0  0  0
   23.4721   -1.7970   32.2075 H   0  0  0  0  0  0  0  0  0  0  0  0
   25.6388   -0.6287   32.1623 H   0  0  0  0  0  0  0  0  0  0  0  0
   22.3143    4.2499   33.2684 H   0  0  0  0  0  0  0  0  0  0  0  0
   20.9816    4.5847   32.1943 H   0  0  0  0  0  0  0  0  0  0  0  0
   23.7497    7.8020   32.9368 H   0  0  0  0  0  0  0  0  0  0  0  0
   21.6883    6.8279   31.7648 H   0  0  0  0  0  0  0  0  0  0  0  0
   22.2152    3.9439   30.4560 H   0  0  0  0  0  0  0  0  0  0  0  0
   22.5047    6.4867   35.5527 H   0  0  0  0  0  0  0  0  0  0  0  0
   20.7477    6.4332   35.7834 H   0  0  0  0  0  0  0  0  0  0  0  0
   21.5438    5.0749   34.9948 H   0  0  0  0  0  0  0  0  0  0  0  0
   21.9947   10.5249   33.1442 H   0  0  0  0  0  0  0  0  0  0  0  0
   21.4771   11.7891   31.0650 H   0  0  0  0  0  0  0  0  0  0  0  0
   19.8014   10.9024   29.4581 H   0  0  0  0  0  0  0  0  0  0  0  0
   18.6314    8.7620   29.9294 H   0  0  0  0  0  0  0  0  0  0  0  0
   19.1426    7.4971   32.0034 H   0  0  0  0  0  0  0  0  0  0  0  0
   26.0067    7.0448   33.8998 H   0  0  0  0  0  0  0  0  0  0  0  0
   25.5941    5.9290   35.2157 H   0  0  0  0  0  0  0  0  0  0  0  0
   24.6689    7.4328   35.0238 H   0  0  0  0  0  0  0  0  0  0  0  0
   30.2454    1.1601   32.1579 H   0  0  0  0  0  0  0  0  0  0  0  0
   29.9290    3.6539   32.6642 H   0  0  0  0  0  0  0  0  0  0  0  0
   30.0359    3.3820   30.8824 H   0  0  0  0  0  0  0  0  0  0  0  0
   24.4849    7.7186   29.4017 H   0  0  0  0  0  0  0  0  0  0  0  0
   24.0928    8.6793   30.8482 H   0  0  0  0  0  0  0  0  0  0  0  0
   22.8495    7.7612   30.0235 H   0  0  0  0  0  0  0  0  0  0  0  0
  6  1  2  0
  2  3  2  0
  4  5  2  0
  1  8  1  0
  2  1  1  0
  7  2  1  0
  7  9  1  0
 10  3  1  0
  4  3  1  0
 12  4  1  0
 10 11  1  0
 14  9  1  0
  9  8  2  0
  8 15  1  0
 13 14  2  0
 16 13  1  0
 15 16  2  0
 11 17  1  0
 12 11  2  0
 20 12  1  0
 17 18  2  0
 18 19  1  0
 19 20  2  0
 10 25  1  0
 25 21  1  0
  7 26  1  0
 26 21  1  0
 25 22  1  0
 26 23  1  0
 22 24  1  0
 23 24  1  0
 24 27  1  0
 27 28  1  0
 27 29  1  0
 28 30  2  0
 28 31  1  0
 32 31  2  0
 36 31  1  0
 32 33  1  0
 33 34  2  0
 34 35  1  0
 35 36  2  0
 23 37  1  0
 37 38  1  0
  5 39  1  0
  6  5  1  0
  6 41  1  0
 39 40  1  0
 40 41  1  0
 39 42  2  0
 26 43  1  6
 13 44  1  0
 14 45  1  0
 15 46  1  0
 16 47  1  0
 17 48  1  0
 18 49  1  0
 19 50  1  0
 20 51  1  0
 22 52  1  0
 22 53  1  0
 23 54  1  6
 24 55  1  6
 25 56  1  6
 29 57  1  0
 29 58  1  0
 29 59  1  0
 32 60  1  0
 33 61  1  0
 34 62  1  0
 35 63  1  0
 36 64  1  0
 38 65  1  0
 38 66  1  0
 38 67  1  0
 40 68  1  0
 41 69  1  0
 41 70  1  0
 43 71  1  0
 43 72  1  0
 43 73  1  0
M  END
> <Uni-Dock RESULT> 
ENERGY=   -4.032  LOWER_BOUND=    7.941  UPPER_BOUND=   13.419
INTER + INTRA:          -4.032
INTER:                  -4.032
INTRA:                   0.000
UNBOUND:                 0.000

$$$$

     RDKit          3D

 73 81  0  0  0  0  0  0  0  0999 V2000
   27.1639    3.0123   31.6633 C   0  0  0  0  0  0  0  0  0  0  0  0
   28.2700    3.7524   31.3057 C   0  0  0  0  0  0  0  0  0  0  0  0
   28.1503    5.2900   31.0737 C   0  0  0  0  0  0  0  0  0  0  0  0
   26.9404    5.9470   31.2311 C   0  0  0  0  0  0  0  0  0  0  0  0
   25.8659    5.1220   31.5977 C   0  0  0  0  0  0  0  0  0  0  0  0
   25.9532    3.7110   31.8048 C   0  0  0  0  0  0  0  0  0  0  0  0
   29.3828    2.9484   31.2448 N   0  0  0  0  0  0  0  0  0  0  0  0
   27.6104    1.6718   31.8176 C   0  0  0  0  0  0  0  0  0  0  0  0
   28.9996    1.6492   31.5843 C   0  0  0  0  0  0  0  0  0  0  0  0
   29.1136    6.1779   30.7084 N   0  0  0  0  0  0  0  0  0  0  0  0
   28.5560    7.4456   30.6240 C   0  0  0  0  0  0  0  0  0  0  0  0
   27.1953    7.3249   30.9505 C   0  0  0  0  0  0  0  0  0  0  0  0
   29.0343   -0.7248   32.0838 C   0  0  0  0  0  0  0  0  0  0  0  0
   29.7178    0.4465   31.7355 C   0  0  0  0  0  0  0  0  0  0  0  0
   26.9468    0.4743   32.1700 C   0  0  0  0  0  0  0  0  0  0  0  0
   27.6652   -0.7150   32.2941 C   0  0  0  0  0  0  0  0  0  0  0  0
   29.1330    8.6831   30.2824 C   0  0  0  0  0  0  0  0  0  0  0  0
   28.3174    9.8170   30.2724 C   0  0  0  0  0  0  0  0  0  0  0  0
   26.9696    9.7258   30.5921 C   0  0  0  0  0  0  0  0  0  0  0  0
   26.4017    8.4928   30.9303 C   0  0  0  0  0  0  0  0  0  0  0  0
   30.6212    4.5022   29.9588 O   0  0  0  0  0  0  0  0  0  0  0  0
   31.5345    6.3135   31.4085 C   0  0  0  0  0  0  0  0  0  0  0  0
   31.4564    3.9694   32.2914 C   0  0  2  0  0  0  0  0  0  0  0  0
   32.3879    5.1370   31.8901 C   0  0  2  0  0  0  0  0  0  0  0  0
   30.4973    5.8614   30.3722 C   0  0  2  0  0  0  0  0  0  0  0  0
   30.7327    3.4787   30.9825 C   0  0  1  0  0  0  0  0  0  0  0  0
   33.3866    5.4933   32.9397 N   0  0  0  0  0  0  0  0  0  0  0  0
   34.5458    4.7195   33.1368 C   0  0  0  0  0  0  0  0  0  0  0  0
   32.9403    6.2229   34.1226 C   0  0  0  0  0  0  0  0  0  0  0  0
   35.1135    4.6037   34.2201 O   0  0  0  0  0  0  0  0  0  0  0  0
   35.1405    4.0124   31.9800 C   0  0  0  0  0  0  0  0  0  0  0  0
   35.3537    2.6324   32.0572 C   0  0  0  0  0  0  0  0  0  0  0  0
   35.9220    1.9611   30.9717 C   0  0  0  0  0  0  0  0  0  0  0  0
   36.2882    2.6724   29.8251 C   0  0  0  0  0  0  0  0  0  0  0  0
   36.0987    4.0550   29.7611 C   0  0  0  0  0  0  0  0  0  0  0  0
   35.5320    4.7308   30.8433 C   0  0  0  0  0  0  0  0  0  0  0  0
   30.5419    4.4973   33.2733 O   0  0  0  0  0  0  0  0  0  0  0  0
   30.3202    3.6212   34.3720 C   0  0  0  0  0  0  0  0  0  0  0  0
   24.4702    5.5094   31.8528 C   0  0  0  0  0  0  0  0  0  0  0  0
   23.7824    4.3650   32.1936 N   0  0  0  0  0  0  0  0  0  0  0  0
   24.6034    3.1867   32.1991 C   0  0  0  0  0  0  0  0  0  0  0  0
   23.9778    6.6177   31.7908 O   0  0  0  0  0  0  0  0  0  0  0  0
   31.6522    2.4714   30.2493 C   0  0  0  0  0  0  0  0  0  0  0  0
   29.5872   -1.6557   32.1921 H   0  0  0  0  0  0  0  0  0  0  0  0
   30.7875    0.3802   31.5939 H   0  0  0  0  0  0  0  0  0  0  0  0
   25.8759    0.4718   32.3535 H   0  0  0  0  0  0  0  0  0  0  0  0
   27.1493   -1.6319   32.5664 H   0  0  0  0  0  0  0  0  0  0  0  0
   30.1843    8.7757   30.0292 H   0  0  0  0  0  0  0  0  0  0  0  0
   28.7434   10.7829   30.0116 H   0  0  0  0  0  0  0  0  0  0  0  0
   26.3460   10.6167   30.5793 H   0  0  0  0  0  0  0  0  0  0  0  0
   25.3443    8.4474   31.1731 H   0  0  0  0  0  0  0  0  0  0  0  0
   31.0301    6.8287   32.2353 H   0  0  0  0  0  0  0  0  0  0  0  0
   32.1948    7.0702   30.9597 H   0  0  0  0  0  0  0  0  0  0  0  0
   32.0324    3.1509   32.7421 H   0  0  0  0  0  0  0  0  0  0  0  0
   32.9668    4.8084   31.0241 H   0  0  0  0  0  0  0  0  0  0  0  0
   30.6850    6.4320   29.4538 H   0  0  0  0  0  0  0  0  0  0  0  0
   32.4342    5.5373   34.8079 H   0  0  0  0  0  0  0  0  0  0  0  0
   33.8070    6.6470   34.6441 H   0  0  0  0  0  0  0  0  0  0  0  0
   32.2856    7.0539   33.8563 H   0  0  0  0  0  0  0  0  0  0  0  0
   35.0921    2.0887   32.9609 H   0  0  0  0  0  0  0  0  0  0  0  0
   36.0949    0.8889   31.0259 H   0  0  0  0  0  0  0  0  0  0  0  0
   36.7415    2.1492   28.9839 H   0  0  0  0  0  0  0  0  0  0  0  0
   36.4010    4.6078   28.8748 H   0  0  0  0  0  0  0  0  0  0  0  0
   35.4025    5.8105   30.8032 H   0  0  0  0  0  0  0  0  0  0  0  0
   29.8722    2.6795   34.0482 H   0  0  0  0  0  0  0  0  0  0  0  0
   29.6292    4.1110   35.0673 H   0  0  0  0  0  0  0  0  0  0  0  0
   31.2585    3.4236   34.9016 H   0  0  0  0  0  0  0  0  0  0  0  0
   22.7992    4.4000   32.4226 H   0  0  0  0  0  0  0  0  0  0  0  0
   24.6097    2.7620   33.2067 H   0  0  0  0  0  0  0  0  0  0  0  0
   24.2098    2.4738   31.4696 H   0  0  0  0  0  0  0  0  0  0  0  0
   31.1039    1.9225   29.4751 H   0  0  0  0  0  0  0  0  0  0  0  0
   32.1200    1.7551   30.9273 H   0  0  0  0  0  0  0  0  0  0  0  0
   32.4723    2.9837   29.7292 H   0  0  0  0  0  0  0  0  0  0  0  0
  6  1  2  0
  2  3  2  0
  4  5  2  0
  1  8  1  0
  2  1  1  0
  7  2  1  0
  7  9  1  0
 10  3  1  0
  4  3  1  0
 12  4  1  0
 10 11  1  0
 14  9  1  0
  9  8  2  0
  8 15  1  0
 13 14  2  0
 16 13  1  0
 15 16  2  0
 11 17  1  0
 12 11  2  0
 20 12  1  0
 17 18  2  0
 18 19  1  0
 19 20  2  0
 10 25  1  0
 25 21  1  0
  7 26  1  0
 26 21  1  0
 25 22  1  0
 26 23  1  0
 22 24  1  0
 23 24  1  0
 24 27  1  0
 27 28  1  0
 27 29  1  0
 28 30  2  0
 28 31  1  0
 32 31  2  0
 36 31  1  0
 32 33  1  0
 33 34  2  0
 34 35  1  0
 35 36  2  0
 23 37  1  0
 37 38  1  0
  5 39  1  0
  6  5  1  0
  6 41  1  0
 39 40  1  0
 40 41  1  0
 39 42  2  0
 26 43  1  6
 13 44  1  0
 14 45  1  0
 15 46  1  0
 16 47  1  0
 17 48  1  0
 18 49  1  0
 19 50  1  0
 20 51  1  0
 22 52  1  0
 22 53  1  0
 23 54  1  6
 24 55  1  6
 25 56  1  6
 29 57  1  0
 29 58  1  0
 29 59  1  0
 32 60  1  0
 33 61  1  0
 34 62  1  0
 35 63  1  0
 36 64  1  0
 38 65  1  0
 38 66  1  0
 38 67  1  0
 40 68  1  0
 41 69  1  0
 41 70  1  0
 43 71  1  0
 43 72  1  0
 43 73  1  0
M  END
> <Uni-Dock RESULT> 
ENERGY=   -4.019  LOWER_BOUND=    6.213  UPPER_BOUND=    8.360
INTER + INTRA:          -4.019
INTER:                  -4.019
INTRA:                   0.000
UNBOUND:                 0.000

$$$$
