
     RDKit          3D

 73 81  0  0  0  0  0  0  0  0999 V2000
   30.2702   10.2020   27.7690 C   0  0  0  0  0  0  0  0  0  0  0  0
   29.7387    9.4555   28.7985 C   0  0  0  0  0  0  0  0  0  0  0  0
   28.2044    9.4686   29.0778 C   0  0  0  0  0  0  0  0  0  0  0  0
   27.3405   10.2197   28.2981 C   0  0  0  0  0  0  0  0  0  0  0  0
   27.9631   10.9686   27.2875 C   0  0  0  0  0  0  0  0  0  0  0  0
   29.3678   10.9772   27.0221 C   0  0  0  0  0  0  0  0  0  0  0  0
   30.7285    8.7463   29.4328 N   0  0  0  0  0  0  0  0  0  0  0  0
   31.6628    9.9174   27.7448 C   0  0  0  0  0  0  0  0  0  0  0  0
   31.9246    8.9643   28.7482 C   0  0  0  0  0  0  0  0  0  0  0  0
   27.5064    8.8138   30.0446 N   0  0  0  0  0  0  0  0  0  0  0  0
   26.1547    9.0845   29.8900 C   0  0  0  0  0  0  0  0  0  0  0  0
   26.0281    9.9679   28.8047 C   0  0  0  0  0  0  0  0  0  0  0  0
   34.2408    8.8666   28.0462 C   0  0  0  0  0  0  0  0  0  0  0  0
   33.2148    8.4160   28.8839 C   0  0  0  0  0  0  0  0  0  0  0  0
   32.7198   10.3556   26.9158 C   0  0  0  0  0  0  0  0  0  0  0  0
   34.0023    9.8317   27.0798 C   0  0  0  0  0  0  0  0  0  0  0  0
   25.0385    8.6367   30.6202 C   0  0  0  0  0  0  0  0  0  0  0  0
   23.7720    9.0871   30.2412 C   0  0  0  0  0  0  0  0  0  0  0  0
   23.6184    9.9597   29.1717 C   0  0  0  0  0  0  0  0  0  0  0  0
   24.7324   10.4047   28.4523 C   0  0  0  0  0  0  0  0  0  0  0  0
   29.4263    8.4325   31.3876 O   0  0  0  0  0  0  0  0  0  0  0  0
   27.8470    6.5293   31.0828 C   0  0  0  0  0  0  0  0  0  0  0  0
   30.1396    6.3817   30.0923 C   0  0  2  0  0  0  0  0  0  0  0  0
   29.1712    5.7633   31.1237 C   0  0  2  0  0  0  0  0  0  0  0  0
   28.0762    8.0445   31.1459 C   0  0  2  0  0  0  0  0  0  0  0  0
   30.4661    7.8392   30.5653 C   0  0  1  0  0  0  0  0  0  0  0  0
   29.0395    4.2928   30.9894 N   0  0  0  0  0  0  0  0  0  0  0  0
   30.1028    3.5260   31.4830 C   0  0  0  0  0  0  0  0  0  0  0  0
   28.0040    3.7489   30.1107 C   0  0  0  0  0  0  0  0  0  0  0  0
   31.1491    4.0321   31.8881 O   0  0  0  0  0  0  0  0  0  0  0  0
   29.9748    2.0524   31.5505 C   0  0  0  0  0  0  0  0  0  0  0  0
   28.8647    1.4559   32.1603 C   0  0  0  0  0  0  0  0  0  0  0  0
   28.7804    0.0649   32.2333 C   0  0  0  0  0  0  0  0  0  0  0  0
   29.8079   -0.7249   31.7149 C   0  0  0  0  0  0  0  0  0  0  0  0
   30.9282   -0.1287   31.1328 C   0  0  0  0  0  0  0  0  0  0  0  0
   31.0171    1.2615   31.0562 C   0  0  0  0  0  0  0  0  0  0  0  0
   29.4531    6.3594   28.8204 O   0  0  0  0  0  0  0  0  0  0  0  0
   30.2374    5.7993   27.7746 C   0  0  0  0  0  0  0  0  0  0  0  0
   27.3343   11.8664   26.3071 C   0  0  0  0  0  0  0  0  0  0  0  0
   28.3384   12.3681   25.5083 N   0  0  0  0  0  0  0  0  0  0  0  0
   29.6433   11.8811   25.8570 C   0  0  0  0  0  0  0  0  0  0  0  0
   26.1572   12.1408   26.1895 O   0  0  0  0  0  0  0  0  0  0  0  0
   31.6264    7.8041   31.5876 C   0  0  0  0  0  0  0  0  0  0  0  0
   35.2404    8.4509   28.1554 H   0  0  0  0  0  0  0  0  0  0  0  0
   33.4490    7.6467   29.6077 H   0  0  0  0  0  0  0  0  0  0  0  0
   32.5397   11.0917   26.1385 H   0  0  0  0  0  0  0  0  0  0  0  0
   34.8117   10.1708   26.4384 H   0  0  0  0  0  0  0  0  0  0  0  0
   25.1408    7.9578   31.4606 H   0  0  0  0  0  0  0  0  0  0  0  0
   22.8956    8.7534   30.7912 H   0  0  0  0  0  0  0  0  0  0  0  0
   22.6280   10.3059   28.8878 H   0  0  0  0  0  0  0  0  0  0  0  0
   24.5868   11.0892   27.6213 H   0  0  0  0  0  0  0  0  0  0  0  0
   27.2349    6.2189   31.9399 H   0  0  0  0  0  0  0  0  0  0  0  0
   27.2491    6.2748   30.2001 H   0  0  0  0  0  0  0  0  0  0  0  0
   31.0652    5.7993   30.0096 H   0  0  0  0  0  0  0  0  0  0  0  0
   29.5985    5.9108   32.1251 H   0  0  0  0  0  0  0  0  0  0  0  0
   27.5369    8.4134   32.0284 H   0  0  0  0  0  0  0  0  0  0  0  0
   27.0346    3.8589   30.6043 H   0  0  0  0  0  0  0  0  0  0  0  0
   28.1682    2.6972   29.8724 H   0  0  0  0  0  0  0  0  0  0  0  0
   27.9985    4.2940   29.1645 H   0  0  0  0  0  0  0  0  0  0  0  0
   28.0736    2.0674   32.5858 H   0  0  0  0  0  0  0  0  0  0  0  0
   27.9179   -0.4049   32.7009 H   0  0  0  0  0  0  0  0  0  0  0  0
   29.7427   -1.8089   31.7769 H   0  0  0  0  0  0  0  0  0  0  0  0
   31.7347   -0.7472   30.7461 H   0  0  0  0  0  0  0  0  0  0  0  0
   31.8964    1.7271   30.6173 H   0  0  0  0  0  0  0  0  0  0  0  0
   31.1710    6.3508   27.6430 H   0  0  0  0  0  0  0  0  0  0  0  0
   29.6627    5.8591   26.8468 H   0  0  0  0  0  0  0  0  0  0  0  0
   30.4507    4.7470   27.9857 H   0  0  0  0  0  0  0  0  0  0  0  0
   28.1301   13.0149   24.7600 H   0  0  0  0  0  0  0  0  0  0  0  0
   30.0596   11.3373   25.0047 H   0  0  0  0  0  0  0  0  0  0  0  0
   30.2776   12.7268   26.1349 H   0  0  0  0  0  0  0  0  0  0  0  0
   32.0362    8.8065   31.7585 H   0  0  0  0  0  0  0  0  0  0  0  0
   32.4386    7.1383   31.2908 H   0  0  0  0  0  0  0  0  0  0  0  0
   31.2800    7.4489   32.5664 H   0  0  0  0  0  0  0  0  0  0  0  0
  6  1  2  0
  2  3  2  0
  4  5  2  0
  1  8  1  0
  2  1  1  0
  7  2  1  0
  7  9  1  0
 10  3  1  0
  4  3  1  0
 12  4  1  0
 10 11  1  0
 14  9  1  0
  9  8  2  0
  8 15  1  0
 13 14  2  0
 16 13  1  0
 15 16  2  0
 11 17  1  0
 12 11  2  0
 20 12  1  0
 17 18  2  0
 18 19  1  0
 19 20  2  0
 10 25  1  0
 25 21  1  0
  7 26  1  0
 26 21  1  0
 25 22  1  0
 26 23  1  0
 22 24  1  0
 23 24  1  0
 24 27  1  0
 27 28  1  0
 27 29  1  0
 28 30  2  0
 28 31  1  0
 32 31  2  0
 36 31  1  0
 32 33  1  0
 33 34  2  0
 34 35  1  0
 35 36  2  0
 23 37  1  0
 37 38  1  0
  5 39  1  0
  6  5  1  0
  6 41  1  0
 39 40  1  0
 40 41  1  0
 39 42  2  0
 26 43  1  6
 13 44  1  0
 14 45  1  0
 15 46  1  0
 16 47  1  0
 17 48  1  0
 18 49  1  0
 19 50  1  0
 20 51  1  0
 22 52  1  0
 22 53  1  0
 23 54  1  1
 24 55  1  6
 25 56  1  6
 29 57  1  0
 29 58  1  0
 29 59  1  0
 32 60  1  0
 33 61  1  0
 34 62  1  0
 35 63  1  0
 36 64  1  0
 38 65  1  0
 38 66  1  0
 38 67  1  0
 40 68  1  0
 41 69  1  0
 41 70  1  0
 43 71  1  0
 43 72  1  0
 43 73  1  0
M  END
> <Uni-Dock RESULT> 
ENERGY=   -4.972  LOWER_BOUND=    0.000  UPPER_BOUND=    0.000
INTER + INTRA:          -4.972
INTER:                  -4.972
INTRA:                   0.000
UNBOUND:                 0.000

$$$$

     RDKit          3D

 73 81  0  0  0  0  0  0  0  0999 V2000
   31.1989    9.1716   28.8382 C   0  0  0  0  0  0  0  0  0  0  0  0
   30.2182    8.7129   29.6910 C   0  0  0  0  0  0  0  0  0  0  0  0
   28.7289    9.1260   29.4824 C   0  0  0  0  0  0  0  0  0  0  0  0
   28.3545    9.9527   28.4361 C   0  0  0  0  0  0  0  0  0  0  0  0
   29.4143   10.3946   27.6292 C   0  0  0  0  0  0  0  0  0  0  0  0
   30.7861   10.0349   27.8099 C   0  0  0  0  0  0  0  0  0  0  0  0
   30.7612    7.8777   30.6359 N   0  0  0  0  0  0  0  0  0  0  0  0
   32.4132    8.5639   29.2596 C   0  0  0  0  0  0  0  0  0  0  0  0
   32.1157    7.7147   30.3432 C   0  0  0  0  0  0  0  0  0  0  0  0
   27.6369    8.7869   30.2195 N   0  0  0  0  0  0  0  0  0  0  0  0
   26.5077    9.3482   29.6416 C   0  0  0  0  0  0  0  0  0  0  0  0
   26.9345   10.0877   28.5256 C   0  0  0  0  0  0  0  0  0  0  0  0
   34.4231    6.9797   30.3960 C   0  0  0  0  0  0  0  0  0  0  0  0
   33.1200    6.8983   30.8987 C   0  0  0  0  0  0  0  0  0  0  0  0
   33.7390    8.6272   28.7754 C   0  0  0  0  0  0  0  0  0  0  0  0
   34.7347    7.8398   29.3541 C   0  0  0  0  0  0  0  0  0  0  0  0
   25.1528    9.2770   30.0142 C   0  0  0  0  0  0  0  0  0  0  0  0
   24.2136    9.9618   29.2400 C   0  0  0  0  0  0  0  0  0  0  0  0
   24.6082   10.6993   28.1313 C   0  0  0  0  0  0  0  0  0  0  0  0
   25.9572   10.7698   27.7684 C   0  0  0  0  0  0  0  0  0  0  0  0
   28.9221    8.1388   32.1072 O   0  0  0  0  0  0  0  0  0  0  0  0
   27.0487    6.6418   31.4300 C   0  0  0  0  0  0  0  0  0  0  0  0
   29.4032    5.8269   31.2041 C   0  0  2  0  0  0  0  0  0  0  0  0
   28.0535    5.5954   31.9173 C   0  0  2  0  0  0  0  0  0  0  0  0
   27.6442    8.0543   31.4814 C   0  0  2  0  0  0  0  0  0  0  0  0
   29.9564    7.2140   31.6779 C   0  0  1  0  0  0  0  0  0  0  0  0
   27.5799    4.1936   31.8258 N   0  0  0  0  0  0  0  0  0  0  0  0
   28.2154    3.2672   32.6627 C   0  0  0  0  0  0  0  0  0  0  0  0
   26.7317    3.8015   30.7002 C   0  0  0  0  0  0  0  0  0  0  0  0
   29.1983    3.5588   33.3438 O   0  0  0  0  0  0  0  0  0  0  0  0
   27.6870    1.8877   32.7643 C   0  0  0  0  0  0  0  0  0  0  0  0
   26.3325    1.6562   33.0321 C   0  0  0  0  0  0  0  0  0  0  0  0
   25.8647    0.3467   33.1482 C   0  0  0  0  0  0  0  0  0  0  0  0
   26.7490   -0.7250   33.0140 C   0  0  0  0  0  0  0  0  0  0  0  0
   28.1050   -0.4925   32.7755 C   0  0  0  0  0  0  0  0  0  0  0  0
   28.5778    0.8148   32.6576 C   0  0  0  0  0  0  0  0  0  0  0  0
   29.1269    5.8030   29.7854 O   0  0  0  0  0  0  0  0  0  0  0  0
   29.9982    4.9417   29.0633 C   0  0  0  0  0  0  0  0  0  0  0  0
   29.3525   11.2807   26.4571 C   0  0  0  0  0  0  0  0  0  0  0  0
   30.6379   11.4214   25.9819 N   0  0  0  0  0  0  0  0  0  0  0  0
   31.6114   10.6882   26.7411 C   0  0  0  0  0  0  0  0  0  0  0  0
   28.3745   11.8088   25.9680 O   0  0  0  0  0  0  0  0  0  0  0  0
   30.7250    7.0377   33.0087 C   0  0  0  0  0  0  0  0  0  0  0  0
   35.2024    6.3565   30.8297 H   0  0  0  0  0  0  0  0  0  0  0  0
   32.9255    6.1962   31.6986 H   0  0  0  0  0  0  0  0  0  0  0  0
   33.9898    9.2776   27.9431 H   0  0  0  0  0  0  0  0  0  0  0  0
   35.7528    7.8908   28.9769 H   0  0  0  0  0  0  0  0  0  0  0  0
   24.8277    8.7084   30.8794 H   0  0  0  0  0  0  0  0  0  0  0  0
   23.1612    9.9201   29.5095 H   0  0  0  0  0  0  0  0  0  0  0  0
   23.8685   11.2308   27.5381 H   0  0  0  0  0  0  0  0  0  0  0  0
   26.2413   11.3553   26.8984 H   0  0  0  0  0  0  0  0  0  0  0  0
   26.1585    6.5997   32.0714 H   0  0  0  0  0  0  0  0  0  0  0  0
   26.6816    6.4239   30.4204 H   0  0  0  0  0  0  0  0  0  0  0  0
   30.1248    5.0358   31.4414 H   0  0  0  0  0  0  0  0  0  0  0  0
   28.2013    5.7662   32.9925 H   0  0  0  0  0  0  0  0  0  0  0  0
   26.9943    8.6521   32.1340 H   0  0  0  0  0  0  0  0  0  0  0  0
   25.7276    4.2016   30.8643 H   0  0  0  0  0  0  0  0  0  0  0  0
   26.6716    2.7191   30.5795 H   0  0  0  0  0  0  0  0  0  0  0  0
   27.1407    4.2045   29.7714 H   0  0  0  0  0  0  0  0  0  0  0  0
   25.6450    2.4880   33.1604 H   0  0  0  0  0  0  0  0  0  0  0  0
   24.8125    0.1599   33.3508 H   0  0  0  0  0  0  0  0  0  0  0  0
   26.3835   -1.7449   33.1094 H   0  0  0  0  0  0  0  0  0  0  0  0
   28.7937   -1.3296   32.6894 H   0  0  0  0  0  0  0  0  0  0  0  0
   29.6362    0.9973   32.4876 H   0  0  0  0  0  0  0  0  0  0  0  0
   31.0421    5.2339   29.1975 H   0  0  0  0  0  0  0  0  0  0  0  0
   29.7487    5.0150   28.0016 H   0  0  0  0  0  0  0  0  0  0  0  0
   29.8552    3.9054   29.3846 H   0  0  0  0  0  0  0  0  0  0  0  0
   30.8307   11.9963   25.1732 H   0  0  0  0  0  0  0  0  0  0  0  0
   32.0930    9.9552   26.0884 H   0  0  0  0  0  0  0  0  0  0  0  0
   32.3411   11.3880   27.1565 H   0  0  0  0  0  0  0  0  0  0  0  0
   31.3200    7.9277   33.2450 H   0  0  0  0  0  0  0  0  0  0  0  0
   31.3808    6.1654   33.0120 H   0  0  0  0  0  0  0  0  0  0  0  0
   30.0331    6.9053   33.8500 H   0  0  0  0  0  0  0  0  0  0  0  0
  6  1  2  0
  2  3  2  0
  4  5  2  0
  1  8  1  0
  2  1  1  0
  7  2  1  0
  7  9  1  0
 10  3  1  0
  4  3  1  0
 12  4  1  0
 10 11  1  0
 14  9  1  0
  9  8  2  0
  8 15  1  0
 13 14  2  0
 16 13  1  0
 15 16  2  0
 11 17  1  0
 12 11  2  0
 20 12  1  0
 17 18  2  0
 18 19  1  0
 19 20  2  0
 10 25  1  0
 25 21  1  0
  7 26  1  0
 26 21  1  0
 25 22  1  0
 26 23  1  0
 22 24  1  0
 23 24  1  0
 24 27  1  0
 27 28  1  0
 27 29  1  0
 28 30  2  0
 28 31  1  0
 32 31  2  0
 36 31  1  0
 32 33  1  0
 33 34  2  0
 34 35  1  0
 35 36  2  0
 23 37  1  0
 37 38  1  0
  5 39  1  0
  6  5  1  0
  6 41  1  0
 39 40  1  0
 40 41  1  0
 39 42  2  0
 26 43  1  6
 13 44  1  0
 14 45  1  0
 15 46  1  0
 16 47  1  0
 17 48  1  0
 18 49  1  0
 19 50  1  0
 20 51  1  0
 22 52  1  0
 22 53  1  0
 23 54  1  1
 24 55  1  6
 25 56  1  6
 29 57  1  0
 29 58  1  0
 29 59  1  0
 32 60  1  0
 33 61  1  0
 34 62  1  0
 35 63  1  0
 36 64  1  0
 38 65  1  0
 38 66  1  0
 38 67  1  0
 40 68  1  0
 41 69  1  0
 41 70  1  0
 43 71  1  0
 43 72  1  0
 43 73  1  0
M  END
> <Uni-Dock RESULT> 
ENERGY=   -4.456  LOWER_BOUND=    1.466  UPPER_BOUND=    1.998
INTER + INTRA:          -4.456
INTER:                  -4.456
INTRA:                   0.000
UNBOUND:                 0.000

$$$$

     RDKit          3D

 73 81  0  0  0  0  0  0  0  0999 V2000
   23.4951    9.8641   30.4440 C   0  0  0  0  0  0  0  0  0  0  0  0
   24.8181    9.5487   30.6671 C   0  0  0  0  0  0  0  0  0  0  0  0
   25.2491    8.0722   30.9246 C   0  0  0  0  0  0  0  0  0  0  0  0
   24.3202    7.0448   30.9275 C   0  0  0  0  0  0  0  0  0  0  0  0
   22.9938    7.4524   30.7165 C   0  0  0  0  0  0  0  0  0  0  0  0
   22.5781    8.8010   30.4883 C   0  0  0  0  0  0  0  0  0  0  0  0
   25.5968   10.6767   30.5865 N   0  0  0  0  0  0  0  0  0  0  0  0
   23.4546   11.2607   30.1812 C   0  0  0  0  0  0  0  0  0  0  0  0
   24.7775   11.7432   30.2148 C   0  0  0  0  0  0  0  0  0  0  0  0
   26.4910    7.5756   31.1732 N   0  0  0  0  0  0  0  0  0  0  0  0
   26.4111    6.1963   31.2978 C   0  0  0  0  0  0  0  0  0  0  0  0
   25.0590    5.8424   31.1528 C   0  0  0  0  0  0  0  0  0  0  0  0
   23.9882   13.9413   29.5722 C   0  0  0  0  0  0  0  0  0  0  0  0
   25.0498   13.0848   29.8834 C   0  0  0  0  0  0  0  0  0  0  0  0
   22.4028   12.1501   29.8665 C   0  0  0  0  0  0  0  0  0  0  0  0
   22.6788   13.4857   29.5727 C   0  0  0  0  0  0  0  0  0  0  0  0
   27.4110    5.2360   31.5376 C   0  0  0  0  0  0  0  0  0  0  0  0
   27.0357    3.8937   31.6265 C   0  0  0  0  0  0  0  0  0  0  0  0
   25.7066    3.5162   31.4860 C   0  0  0  0  0  0  0  0  0  0  0  0
   24.7165    4.4762   31.2520 C   0  0  0  0  0  0  0  0  0  0  0  0
   27.3782    9.6874   31.7960 O   0  0  0  0  0  0  0  0  0  0  0  0
   28.7635    8.2630   30.2923 C   0  0  0  0  0  0  0  0  0  0  0  0
   27.8138   10.4030   29.4106 C   0  0  2  0  0  0  0  0  0  0  0  0
   29.1183    9.6452   29.7394 C   0  0  2  0  0  0  0  0  0  0  0  0
   27.7022    8.3584   31.3954 C   0  0  2  0  0  0  0  0  0  0  0  0
   27.0607   10.6556   30.7610 C   0  0  1  0  0  0  0  0  0  0  0  0
   30.0831    9.6320   28.6139 N   0  0  0  0  0  0  0  0  0  0  0  0
   30.7932   10.8187   28.3904 C   0  0  0  0  0  0  0  0  0  0  0  0
   30.0262    8.5409   27.6411 C   0  0  0  0  0  0  0  0  0  0  0  0
   30.5478   11.8594   29.0000 O   0  0  0  0  0  0  0  0  0  0  0  0
   31.8991   10.8370   27.4059 C   0  0  0  0  0  0  0  0  0  0  0  0
   32.9197    9.8798   27.4554 C   0  0  0  0  0  0  0  0  0  0  0  0
   33.9641    9.9345   26.5316 C   0  0  0  0  0  0  0  0  0  0  0  0
   33.9971   10.9500   25.5745 C   0  0  0  0  0  0  0  0  0  0  0  0
   32.9942   11.9210   25.5441 C   0  0  0  0  0  0  0  0  0  0  0  0
   31.9471   11.8704   26.4647 C   0  0  0  0  0  0  0  0  0  0  0  0
   27.0614    9.5546   28.5141 O   0  0  0  0  0  0  0  0  0  0  0  0
   26.6073   10.2372   27.3521 C   0  0  0  0  0  0  0  0  0  0  0  0
   21.7850    6.6160   30.6723 C   0  0  0  0  0  0  0  0  0  0  0  0
   20.7178    7.4515   30.4253 N   0  0  0  0  0  0  0  0  0  0  0  0
   21.0918    8.8309   30.2879 C   0  0  0  0  0  0  0  0  0  0  0  0
   21.7001    5.4137   30.8201 O   0  0  0  0  0  0  0  0  0  0  0  0
   27.6049   11.9426   31.4244 C   0  0  0  0  0  0  0  0  0  0  0  0
   24.1956   14.9803   29.3248 H   0  0  0  0  0  0  0  0  0  0  0  0
   26.0543   13.4851   29.8486 H   0  0  0  0  0  0  0  0  0  0  0  0
   21.3760   11.7988   29.8383 H   0  0  0  0  0  0  0  0  0  0  0  0
   21.8662   14.1654   29.3294 H   0  0  0  0  0  0  0  0  0  0  0  0
   28.4536    5.5138   31.6534 H   0  0  0  0  0  0  0  0  0  0  0  0
   27.7921    3.1347   31.8109 H   0  0  0  0  0  0  0  0  0  0  0  0
   25.4260    2.4687   31.5602 H   0  0  0  0  0  0  0  0  0  0  0  0
   23.6834    4.1564   31.1482 H   0  0  0  0  0  0  0  0  0  0  0  0
   29.6730    7.8045   30.7024 H   0  0  0  0  0  0  0  0  0  0  0  0
   28.4293    7.5763   29.5059 H   0  0  0  0  0  0  0  0  0  0  0  0
   28.0180   11.3583   28.9121 H   0  0  0  0  0  0  0  0  0  0  0  0
   29.6373   10.1895   30.5402 H   0  0  0  0  0  0  0  0  0  0  0  0
   28.1388    7.9128   32.2990 H   0  0  0  0  0  0  0  0  0  0  0  0
   30.4458    7.6418   28.1005 H   0  0  0  0  0  0  0  0  0  0  0  0
   30.5763    8.7671   26.7268 H   0  0  0  0  0  0  0  0  0  0  0  0
   28.9892    8.3565   27.3529 H   0  0  0  0  0  0  0  0  0  0  0  0
   32.9101    9.1013   28.2135 H   0  0  0  0  0  0  0  0  0  0  0  0
   34.7571    9.1906   26.5612 H   0  0  0  0  0  0  0  0  0  0  0  0
   34.8144   10.9937   24.8582 H   0  0  0  0  0  0  0  0  0  0  0  0
   33.0331   12.7206   24.8083 H   0  0  0  0  0  0  0  0  0  0  0  0
   31.1741   12.6351   26.4520 H   0  0  0  0  0  0  0  0  0  0  0  0
   25.9773   11.0895   27.6162 H   0  0  0  0  0  0  0  0  0  0  0  0
   26.0168    9.5384   26.7541 H   0  0  0  0  0  0  0  0  0  0  0  0
   27.4605   10.5730   26.7548 H   0  0  0  0  0  0  0  0  0  0  0  0
   19.7786    7.0846   30.3558 H   0  0  0  0  0  0  0  0  0  0  0  0
   20.8191    9.1754   29.2867 H   0  0  0  0  0  0  0  0  0  0  0  0
   20.5855    9.4167   31.0595 H   0  0  0  0  0  0  0  0  0  0  0  0
   26.9503   12.2780   32.2375 H   0  0  0  0  0  0  0  0  0  0  0  0
   27.7382   12.7645   30.7188 H   0  0  0  0  0  0  0  0  0  0  0  0
   28.5872   11.7669   31.8808 H   0  0  0  0  0  0  0  0  0  0  0  0
  6  1  2  0
  2  3  2  0
  4  5  2  0
  1  8  1  0
  2  1  1  0
  7  2  1  0
  7  9  1  0
 10  3  1  0
  4  3  1  0
 12  4  1  0
 10 11  1  0
 14  9  1  0
  9  8  2  0
  8 15  1  0
 13 14  2  0
 16 13  1  0
 15 16  2  0
 11 17  1  0
 12 11  2  0
 20 12  1  0
 17 18  2  0
 18 19  1  0
 19 20  2  0
 10 25  1  0
 25 21  1  0
  7 26  1  0
 26 21  1  0
 25 22  1  0
 26 23  1  0
 22 24  1  0
 23 24  1  0
 24 27  1  0
 27 28  1  0
 27 29  1  0
 28 30  2  0
 28 31  1  0
 32 31  2  0
 36 31  1  0
 32 33  1  0
 33 34  2  0
 34 35  1  0
 35 36  2  0
 23 37  1  0
 37 38  1  0
  5 39  1  0
  6  5  1  0
  6 41  1  0
 39 40  1  0
 40 41  1  0
 39 42  2  0
 26 43  1  6
 13 44  1  0
 14 45  1  0
 15 46  1  0
 16 47  1  0
 17 48  1  0
 18 49  1  0
 19 50  1  0
 20 51  1  0
 22 52  1  0
 22 53  1  0
 23 54  1  1
 24 55  1  6
 25 56  1  6
 29 57  1  0
 29 58  1  0
 29 59  1  0
 32 60  1  0
 33 61  1  0
 34 62  1  0
 35 63  1  0
 36 64  1  0
 38 65  1  0
 38 66  1  0
 38 67  1  0
 40 68  1  0
 41 69  1  0
 41 70  1  0
 43 71  1  0
 43 72  1  0
 43 73  1  0
M  END
> <Uni-Dock RESULT> 
ENERGY=   -4.446  LOWER_BOUND=    2.809  UPPER_BOUND=    7.888
INTER + INTRA:          -4.446
INTER:                  -4.446
INTRA:                   0.000
UNBOUND:                 0.000

$$$$

     RDKit          3D

 73 81  0  0  0  0  0  0  0  0999 V2000
   25.7809    6.7050   31.5041 C   0  0  0  0  0  0  0  0  0  0  0  0
   26.5618    5.7075   32.0470 C   0  0  0  0  0  0  0  0  0  0  0  0
   26.0563    4.2325   32.0777 C   0  0  0  0  0  0  0  0  0  0  0  0
   24.8205    3.8875   31.5560 C   0  0  0  0  0  0  0  0  0  0  0  0
   24.0786    4.9634   31.0444 C   0  0  0  0  0  0  0  0  0  0  0  0
   24.5204    6.3227   31.0160 C   0  0  0  0  0  0  0  0  0  0  0  0
   27.7616    6.2209   32.4737 N   0  0  0  0  0  0  0  0  0  0  0  0
   26.5508    7.8982   31.5711 C   0  0  0  0  0  0  0  0  0  0  0  0
   27.8047    7.5707   32.1229 C   0  0  0  0  0  0  0  0  0  0  0  0
   26.6738    3.1279   32.5772 N   0  0  0  0  0  0  0  0  0  0  0  0
   25.8725    2.0186   32.3496 C   0  0  0  0  0  0  0  0  0  0  0  0
   24.7035    2.4721   31.7155 C   0  0  0  0  0  0  0  0  0  0  0  0
   28.5426    9.8540   31.7922 C   0  0  0  0  0  0  0  0  0  0  0  0
   28.8158    8.5472   32.2107 C   0  0  0  0  0  0  0  0  0  0  0  0
   26.3030    9.2271   31.1599 C   0  0  0  0  0  0  0  0  0  0  0  0
   27.2995   10.1958   31.2821 C   0  0  0  0  0  0  0  0  0  0  0  0
   26.0734    0.6609   32.6592 C   0  0  0  0  0  0  0  0  0  0  0  0
   25.0755   -0.2538   32.3157 C   0  0  0  0  0  0  0  0  0  0  0  0
   23.9108    0.1673   31.6874 C   0  0  0  0  0  0  0  0  0  0  0  0
   23.7150    1.5191   31.3861 C   0  0  0  0  0  0  0  0  0  0  0  0
   28.1798    4.3857   33.9132 O   0  0  0  0  0  0  0  0  0  0  0  0
   29.1184    2.4691   32.6268 C   0  0  0  0  0  0  0  0  0  0  0  0
   29.7952    4.7980   32.0126 C   0  0  2  0  0  0  0  0  0  0  0  0
   30.2992    3.4392   32.5452 C   0  0  2  0  0  0  0  0  0  0  0  0
   27.9189    3.1080   33.3377 C   0  0  2  0  0  0  0  0  0  0  0  0
   28.8180    5.3923   33.0833 C   0  0  1  0  0  0  0  0  0  0  0  0
   31.4738    2.9227   31.8027 N   0  0  0  0  0  0  0  0  0  0  0  0
   32.7049    3.5262   32.0900 C   0  0  0  0  0  0  0  0  0  0  0  0
   31.2576    2.0667   30.6363 C   0  0  0  0  0  0  0  0  0  0  0  0
   32.8016    4.5152   32.8161 O   0  0  0  0  0  0  0  0  0  0  0  0
   33.9503    2.9548   31.5285 C   0  0  0  0  0  0  0  0  0  0  0  0
   34.2421    1.5928   31.6696 C   0  0  0  0  0  0  0  0  0  0  0  0
   35.4346    1.0842   31.1535 C   0  0  0  0  0  0  0  0  0  0  0  0
   36.3380    1.9353   30.5148 C   0  0  0  0  0  0  0  0  0  0  0  0
   36.0595    3.2987   30.4000 C   0  0  0  0  0  0  0  0  0  0  0  0
   34.8682    3.8122   30.9133 C   0  0  0  0  0  0  0  0  0  0  0  0
   29.1324    4.5260   30.7570 O   0  0  0  0  0  0  0  0  0  0  0  0
   29.5705    5.3727   29.7017 C   0  0  0  0  0  0  0  0  0  0  0  0
   22.7398    4.9332   30.4366 C   0  0  0  0  0  0  0  0  0  0  0  0
   22.4270    6.2241   30.0708 N   0  0  0  0  0  0  0  0  0  0  0  0
   23.4611    7.1716   30.3777 C   0  0  0  0  0  0  0  0  0  0  0  0
   22.0143    3.9738   30.2696 O   0  0  0  0  0  0  0  0  0  0  0  0
   29.6290    6.1504   34.1604 C   0  0  0  0  0  0  0  0  0  0  0  0
   29.3194   10.6121   31.8677 H   0  0  0  0  0  0  0  0  0  0  0  0
   29.8082    8.3282   32.5820 H   0  0  0  0  0  0  0  0  0  0  0  0
   25.3423    9.5008   30.7349 H   0  0  0  0  0  0  0  0  0  0  0  0
   27.1045   11.2163   30.9627 H   0  0  0  0  0  0  0  0  0  0  0  0
   26.9758    0.3153   33.1529 H   0  0  0  0  0  0  0  0  0  0  0  0
   25.2101   -1.3080   32.5450 H   0  0  0  0  0  0  0  0  0  0  0  0
   23.1397   -0.5534   31.4276 H   0  0  0  0  0  0  0  0  0  0  0  0
   22.7943    1.8243   30.8967 H   0  0  0  0  0  0  0  0  0  0  0  0
   29.4352    1.5758   33.1812 H   0  0  0  0  0  0  0  0  0  0  0  0
   28.8184    2.0989   31.6397 H   0  0  0  0  0  0  0  0  0  0  0  0
   30.6243    5.4938   31.8360 H   0  0  0  0  0  0  0  0  0  0  0  0
   30.6656    3.5885   33.5701 H   0  0  0  0  0  0  0  0  0  0  0  0
   27.6856    2.4746   34.2038 H   0  0  0  0  0  0  0  0  0  0  0  0
   30.9551    1.0748   30.9829 H   0  0  0  0  0  0  0  0  0  0  0  0
   32.1495    1.9734   30.0154 H   0  0  0  0  0  0  0  0  0  0  0  0
   30.4728    2.4911   30.0068 H   0  0  0  0  0  0  0  0  0  0  0  0
   33.5523    0.9311   32.1866 H   0  0  0  0  0  0  0  0  0  0  0  0
   35.6648    0.0260   31.2550 H   0  0  0  0  0  0  0  0  0  0  0  0
   37.2692    1.5379   30.1172 H   0  0  0  0  0  0  0  0  0  0  0  0
   36.7740    3.9613   29.9175 H   0  0  0  0  0  0  0  0  0  0  0  0
   34.6575    4.8764   30.8384 H   0  0  0  0  0  0  0  0  0  0  0  0
   29.4079    6.4247   29.9467 H   0  0  0  0  0  0  0  0  0  0  0  0
   28.9931    5.1293   28.8061 H   0  0  0  0  0  0  0  0  0  0  0  0
   30.6300    5.1964   29.4924 H   0  0  0  0  0  0  0  0  0  0  0  0
   21.5422    6.4374   29.6312 H   0  0  0  0  0  0  0  0  0  0  0  0
   23.8083    7.6326   29.4491 H   0  0  0  0  0  0  0  0  0  0  0  0
   23.0652    7.9213   31.0677 H   0  0  0  0  0  0  0  0  0  0  0  0
   28.9767    6.7719   34.7850 H   0  0  0  0  0  0  0  0  0  0  0  0
   30.4162    6.7787   33.7402 H   0  0  0  0  0  0  0  0  0  0  0  0
   30.1262    5.4517   34.8451 H   0  0  0  0  0  0  0  0  0  0  0  0
  6  1  2  0
  2  3  2  0
  4  5  2  0
  1  8  1  0
  2  1  1  0
  7  2  1  0
  7  9  1  0
 10  3  1  0
  4  3  1  0
 12  4  1  0
 10 11  1  0
 14  9  1  0
  9  8  2  0
  8 15  1  0
 13 14  2  0
 16 13  1  0
 15 16  2  0
 11 17  1  0
 12 11  2  0
 20 12  1  0
 17 18  2  0
 18 19  1  0
 19 20  2  0
 10 25  1  0
 25 21  1  0
  7 26  1  0
 26 21  1  0
 25 22  1  0
 26 23  1  0
 22 24  1  0
 23 24  1  0
 24 27  1  0
 27 28  1  0
 27 29  1  0
 28 30  2  0
 28 31  1  0
 32 31  2  0
 36 31  1  0
 32 33  1  0
 33 34  2  0
 34 35  1  0
 35 36  2  0
 23 37  1  0
 37 38  1  0
  5 39  1  0
  6  5  1  0
  6 41  1  0
 39 40  1  0
 40 41  1  0
 39 42  2  0
 26 43  1  6
 13 44  1  0
 14 45  1  0
 15 46  1  0
 16 47  1  0
 17 48  1  0
 18 49  1  0
 19 50  1  0
 20 51  1  0
 22 52  1  0
 22 53  1  0
 23 54  1  1
 24 55  1  6
 25 56  1  6
 29 57  1  0
 29 58  1  0
 29 59  1  0
 32 60  1  0
 33 61  1  0
 34 62  1  0
 35 63  1  0
 36 64  1  0
 38 65  1  0
 38 66  1  0
 38 67  1  0
 40 68  1  0
 41 69  1  0
 41 70  1  0
 43 71  1  0
 43 72  1  0
 43 73  1  0
M  END
> <Uni-Dock RESULT> 
ENERGY=   -4.420  LOWER_BOUND=    3.977  UPPER_BOUND=    6.555
INTER + INTRA:          -4.420
INTER:                  -4.420
INTRA:                   0.000
UNBOUND:                 0.000

$$$$

     RDKit          3D

 73 81  0  0  0  0  0  0  0  0999 V2000
   25.3590   13.1960   20.6019 C   0  0  0  0  0  0  0  0  0  0  0  0
   26.4705   12.7764   21.3004 C   0  0  0  0  0  0  0  0  0  0  0  0
   27.5120   11.8243   20.6364 C   0  0  0  0  0  0  0  0  0  0  0  0
   27.3520   11.3850   19.3326 C   0  0  0  0  0  0  0  0  0  0  0  0
   26.1839   11.8379   18.7000 C   0  0  0  0  0  0  0  0  0  0  0  0
   25.2133   12.7026   19.2948 C   0  0  0  0  0  0  0  0  0  0  0  0
   26.4872   13.3402   22.5522 N   0  0  0  0  0  0  0  0  0  0  0  0
   24.6627   14.0929   21.4574 C   0  0  0  0  0  0  0  0  0  0  0  0
   25.4077   14.2193   22.6461 C   0  0  0  0  0  0  0  0  0  0  0  0
   28.6505   11.3008   21.1660 N   0  0  0  0  0  0  0  0  0  0  0  0
   29.2920   10.5400   20.1996 C   0  0  0  0  0  0  0  0  0  0  0  0
   28.4931   10.5743   19.0441 C   0  0  0  0  0  0  0  0  0  0  0  0
   23.8322   15.8725   23.4535 C   0  0  0  0  0  0  0  0  0  0  0  0
   25.0052   15.1329   23.6395 C   0  0  0  0  0  0  0  0  0  0  0  0
   23.4807   14.8507   21.2992 C   0  0  0  0  0  0  0  0  0  0  0  0
   23.0714   15.7283   22.3034 C   0  0  0  0  0  0  0  0  0  0  0  0
   30.4980    9.8172   20.2502 C   0  0  0  0  0  0  0  0  0  0  0  0
   30.9046    9.1218   19.1093 C   0  0  0  0  0  0  0  0  0  0  0  0
   30.1345    9.1397   17.9537 C   0  0  0  0  0  0  0  0  0  0  0  0
   28.9342    9.8567   17.9109 C   0  0  0  0  0  0  0  0  0  0  0  0
   27.9787   11.7087   23.4059 O   0  0  0  0  0  0  0  0  0  0  0  0
   30.3272   12.2745   22.7948 C   0  0  0  0  0  0  0  0  0  0  0  0
   28.7415   14.1190   23.3797 C   0  0  2  0  0  0  0  0  0  0  0  0
   30.0419   13.3974   23.7947 C   0  0  2  0  0  0  0  0  0  0  0  0
   29.0829   11.4104   22.5553 C   0  0  2  0  0  0  0  0  0  0  0  0
   27.5647   13.0954   23.5285 C   0  0  1  0  0  0  0  0  0  0  0  0
   31.1752   14.3256   24.0224 N   0  0  0  0  0  0  0  0  0  0  0  0
   31.1562   15.0464   25.2234 C   0  0  0  0  0  0  0  0  0  0  0  0
   32.0533   14.6640   22.9024 C   0  0  0  0  0  0  0  0  0  0  0  0
   30.1968   15.0198   25.9940 O   0  0  0  0  0  0  0  0  0  0  0  0
   32.3328   15.8580   25.6101 C   0  0  0  0  0  0  0  0  0  0  0  0
   33.6180   15.3026   25.6122 C   0  0  0  0  0  0  0  0  0  0  0  0
   34.7070   16.0815   26.0054 C   0  0  0  0  0  0  0  0  0  0  0  0
   34.5104   17.4028   26.4101 C   0  0  0  0  0  0  0  0  0  0  0  0
   33.2248   17.9470   26.4352 C   0  0  0  0  0  0  0  0  0  0  0  0
   32.1326   17.1730   26.0422 C   0  0  0  0  0  0  0  0  0  0  0  0
   28.9275   14.5446   22.0108 O   0  0  0  0  0  0  0  0  0  0  0  0
   28.6062   15.9146   21.8055 C   0  0  0  0  0  0  0  0  0  0  0  0
   25.7214   11.5463   17.3348 C   0  0  0  0  0  0  0  0  0  0  0  0
   24.5336   12.2198   17.1522 N   0  0  0  0  0  0  0  0  0  0  0  0
   24.1226   12.9755   18.3017 C   0  0  0  0  0  0  0  0  0  0  0  0
   26.2555   10.8496   16.4957 O   0  0  0  0  0  0  0  0  0  0  0  0
   27.0610   13.0946   24.9910 C   0  0  0  0  0  0  0  0  0  0  0  0
   23.5145   16.5722   24.2238 H   0  0  0  0  0  0  0  0  0  0  0  0
   25.5731   15.2979   24.5455 H   0  0  0  0  0  0  0  0  0  0  0  0
   22.8906   14.7656   20.3920 H   0  0  0  0  0  0  0  0  0  0  0  0
   22.1622   16.3104   22.1762 H   0  0  0  0  0  0  0  0  0  0  0  0
   31.1100    9.7896   21.1459 H   0  0  0  0  0  0  0  0  0  0  0  0
   31.8334    8.5570   19.1261 H   0  0  0  0  0  0  0  0  0  0  0  0
   30.4595    8.5921   17.0728 H   0  0  0  0  0  0  0  0  0  0  0  0
   28.3481    9.8533   16.9962 H   0  0  0  0  0  0  0  0  0  0  0  0
   31.1344   11.6458   23.1934 H   0  0  0  0  0  0  0  0  0  0  0  0
   30.7099   12.6570   21.8416 H   0  0  0  0  0  0  0  0  0  0  0  0
   28.5524   14.9995   24.0055 H   0  0  0  0  0  0  0  0  0  0  0  0
   29.8733   12.9242   24.7718 H   0  0  0  0  0  0  0  0  0  0  0  0
   29.3509   10.3809   22.8272 H   0  0  0  0  0  0  0  0  0  0  0  0
   32.7050   13.8098   22.6997 H   0  0  0  0  0  0  0  0  0  0  0  0
   32.6663   15.5436   23.1030 H   0  0  0  0  0  0  0  0  0  0  0  0
   31.4540   14.8871   22.0173 H   0  0  0  0  0  0  0  0  0  0  0  0
   33.7725   14.2673   25.3201 H   0  0  0  0  0  0  0  0  0  0  0  0
   35.7088   15.6576   26.0040 H   0  0  0  0  0  0  0  0  0  0  0  0
   35.3598   18.0070   26.7207 H   0  0  0  0  0  0  0  0  0  0  0  0
   33.0737   18.9711   26.7682 H   0  0  0  0  0  0  0  0  0  0  0  0
   31.1292   17.5908   26.0764 H   0  0  0  0  0  0  0  0  0  0  0  0
   27.5709   16.1231   22.0845 H   0  0  0  0  0  0  0  0  0  0  0  0
   28.7340   16.1403   20.7437 H   0  0  0  0  0  0  0  0  0  0  0  0
   29.2847   16.5512   22.3816 H   0  0  0  0  0  0  0  0  0  0  0  0
   24.0334   12.1587   16.2760 H   0  0  0  0  0  0  0  0  0  0  0  0
   24.0686   14.0335   18.0313 H   0  0  0  0  0  0  0  0  0  0  0  0
   23.1532   12.6048   18.6448 H   0  0  0  0  0  0  0  0  0  0  0  0
   26.0988   12.5767   25.0798 H   0  0  0  0  0  0  0  0  0  0  0  0
   26.9603   14.0975   25.4096 H   0  0  0  0  0  0  0  0  0  0  0  0
   27.7555   12.5557   25.6478 H   0  0  0  0  0  0  0  0  0  0  0  0
  6  1  2  0
  2  3  2  0
  4  5  2  0
  1  8  1  0
  2  1  1  0
  7  2  1  0
  7  9  1  0
 10  3  1  0
  4  3  1  0
 12  4  1  0
 10 11  1  0
 14  9  1  0
  9  8  2  0
  8 15  1  0
 13 14  2  0
 16 13  1  0
 15 16  2  0
 11 17  1  0
 12 11  2  0
 20 12  1  0
 17 18  2  0
 18 19  1  0
 19 20  2  0
 10 25  1  0
 25 21  1  0
  7 26  1  0
 26 21  1  0
 25 22  1  0
 26 23  1  0
 22 24  1  0
 23 24  1  0
 24 27  1  0
 27 28  1  0
 27 29  1  0
 28 30  2  0
 28 31  1  0
 32 31  2  0
 36 31  1  0
 32 33  1  0
 33 34  2  0
 34 35  1  0
 35 36  2  0
 23 37  1  0
 37 38  1  0
  5 39  1  0
  6  5  1  0
  6 41  1  0
 39 40  1  0
 40 41  1  0
 39 42  2  0
 26 43  1  6
 13 44  1  0
 14 45  1  0
 15 46  1  0
 16 47  1  0
 17 48  1  0
 18 49  1  0
 19 50  1  0
 20 51  1  0
 22 52  1  0
 22 53  1  0
 23 54  1  1
 24 55  1  6
 25 56  1  6
 29 57  1  0
 29 58  1  0
 29 59  1  0
 32 60  1  0
 33 61  1  0
 34 62  1  0
 35 63  1  0
 36 64  1  0
 38 65  1  0
 38 66  1  0
 38 67  1  0
 40 68  1  0
 41 69  1  0
 41 70  1  0
 43 71  1  0
 43 72  1  0
 43 73  1  0
M  END
> <Uni-Dock RESULT> 
ENERGY=   -4.302  LOWER_BOUND=    8.648  UPPER_BOUND=   11.904
INTER + INTRA:          -4.302
INTER:                  -4.302
INTRA:                   0.000
UNBOUND:                 0.000

$$$$

     RDKit          3D

 73 81  0  0  0  0  0  0  0  0999 V2000
   27.2333   16.5461   26.6507 C   0  0  0  0  0  0  0  0  0  0  0  0
   27.7456   15.2903   26.4052 C   0  0  0  0  0  0  0  0  0  0  0  0
   26.9779   14.0154   26.8716 C   0  0  0  0  0  0  0  0  0  0  0  0
   25.7649   14.1114   27.5333 C   0  0  0  0  0  0  0  0  0  0  0  0
   25.3251   15.4239   27.7649 C   0  0  0  0  0  0  0  0  0  0  0  0
   26.0187   16.6044   27.3538 C   0  0  0  0  0  0  0  0  0  0  0  0
   28.9243   15.3848   25.7075 N   0  0  0  0  0  0  0  0  0  0  0  0
   28.1291   17.4698   26.0461 C   0  0  0  0  0  0  0  0  0  0  0  0
   29.1461   16.7302   25.4115 C   0  0  0  0  0  0  0  0  0  0  0  0
   27.3279   12.7083   26.7315 N   0  0  0  0  0  0  0  0  0  0  0  0
   26.3228   11.9108   27.2588 C   0  0  0  0  0  0  0  0  0  0  0  0
   25.3357   12.7692   27.7717 C   0  0  0  0  0  0  0  0  0  0  0  0
   30.0974   18.7845   24.5500 C   0  0  0  0  0  0  0  0  0  0  0  0
   30.1215   17.3883   24.6375 C   0  0  0  0  0  0  0  0  0  0  0  0
   28.1326   18.8789   25.9424 C   0  0  0  0  0  0  0  0  0  0  0  0
   29.1226   19.5245   25.2013 C   0  0  0  0  0  0  0  0  0  0  0  0
   26.2069   10.5108   27.3378 C   0  0  0  0  0  0  0  0  0  0  0  0
   25.0691    9.9711   27.9416 C   0  0  0  0  0  0  0  0  0  0  0  0
   24.0777   10.7966   28.4558 C   0  0  0  0  0  0  0  0  0  0  0  0
   24.2008   12.1878   28.3781 C   0  0  0  0  0  0  0  0  0  0  0  0
   29.6141   13.2045   26.3286 O   0  0  0  0  0  0  0  0  0  0  0  0
   28.5372   11.5021   24.8619 C   0  0  0  0  0  0  0  0  0  0  0  0
   29.2573   13.6839   23.8720 C   0  0  2  0  0  0  0  0  0  0  0  0
   29.4808   12.1563   23.8502 C   0  0  2  0  0  0  0  0  0  0  0  0
   28.6005   12.2080   26.2221 C   0  0  2  0  0  0  0  0  0  0  0  0
   29.7011   14.2064   25.2808 C   0  0  1  0  0  0  0  0  0  0  0  0
   29.4214   11.5790   22.4860 N   0  0  0  0  0  0  0  0  0  0  0  0
   30.5445   11.7853   21.6745 C   0  0  0  0  0  0  0  0  0  0  0  0
   28.1353   11.1149   21.9656 C   0  0  0  0  0  0  0  0  0  0  0  0
   31.4786   12.5118   22.0129 O   0  0  0  0  0  0  0  0  0  0  0  0
   30.6420   11.0950   20.3683 C   0  0  0  0  0  0  0  0  0  0  0  0
   30.4507    9.7114   20.2719 C   0  0  0  0  0  0  0  0  0  0  0  0
   30.5733    9.0811   19.0330 C   0  0  0  0  0  0  0  0  0  0  0  0
   30.9018    9.8270   17.8998 C   0  0  0  0  0  0  0  0  0  0  0  0
   31.1208   11.2022   18.0018 C   0  0  0  0  0  0  0  0  0  0  0  0
   30.9985   11.8375   19.2379 C   0  0  0  0  0  0  0  0  0  0  0  0
   27.8483   13.8958   23.6281 O   0  0  0  0  0  0  0  0  0  0  0  0
   27.5984   14.8504   22.6040 C   0  0  0  0  0  0  0  0  0  0  0  0
   24.0961   15.8612   28.4438 C   0  0  0  0  0  0  0  0  0  0  0  0
   24.0833   17.2386   28.4205 N   0  0  0  0  0  0  0  0  0  0  0  0
   25.2256   17.8097   27.7645 C   0  0  0  0  0  0  0  0  0  0  0  0
   23.2305   15.1716   28.9438 O   0  0  0  0  0  0  0  0  0  0  0  0
   31.2269   14.4607   25.2816 C   0  0  0  0  0  0  0  0  0  0  0  0
   30.8554   19.2954   23.9599 H   0  0  0  0  0  0  0  0  0  0  0  0
   30.8911   16.8570   24.0934 H   0  0  0  0  0  0  0  0  0  0  0  0
   27.3595   19.4675   26.4266 H   0  0  0  0  0  0  0  0  0  0  0  0
   29.1198   20.6087   25.1232 H   0  0  0  0  0  0  0  0  0  0  0  0
   26.9735    9.8513   26.9443 H   0  0  0  0  0  0  0  0  0  0  0  0
   24.9586    8.8919   28.0129 H   0  0  0  0  0  0  0  0  0  0  0  0
   23.1980   10.3652   28.9264 H   0  0  0  0  0  0  0  0  0  0  0  0
   23.4131   12.8126   28.7900 H   0  0  0  0  0  0  0  0  0  0  0  0
   28.8283   10.4505   24.9850 H   0  0  0  0  0  0  0  0  0  0  0  0
   27.5025   11.4698   24.5016 H   0  0  0  0  0  0  0  0  0  0  0  0
   29.8358   14.1866   23.0875 H   0  0  0  0  0  0  0  0  0  0  0  0
   30.5064   11.9560   24.1892 H   0  0  0  0  0  0  0  0  0  0  0  0
   28.8987   11.4527   26.9612 H   0  0  0  0  0  0  0  0  0  0  0  0
   27.8839   10.1680   22.4508 H   0  0  0  0  0  0  0  0  0  0  0  0
   28.1492   10.9716   20.8843 H   0  0  0  0  0  0  0  0  0  0  0  0
   27.3612   11.8546   22.1801 H   0  0  0  0  0  0  0  0  0  0  0  0
   30.2177    9.1234   21.1557 H   0  0  0  0  0  0  0  0  0  0  0  0
   30.4205    8.0073   18.9504 H   0  0  0  0  0  0  0  0  0  0  0  0
   31.0016    9.3333   16.9357 H   0  0  0  0  0  0  0  0  0  0  0  0
   31.3940   11.7767   17.1199 H   0  0  0  0  0  0  0  0  0  0  0  0
   31.1842   12.9057   19.3214 H   0  0  0  0  0  0  0  0  0  0  0  0
   28.0463   15.8164   22.8473 H   0  0  0  0  0  0  0  0  0  0  0  0
   26.5167   14.9797   22.5139 H   0  0  0  0  0  0  0  0  0  0  0  0
   27.9872   14.4876   21.6476 H   0  0  0  0  0  0  0  0  0  0  0  0
   23.3221   17.7562   28.8380 H   0  0  0  0  0  0  0  0  0  0  0  0
   24.8871   18.3917   26.9030 H   0  0  0  0  0  0  0  0  0  0  0  0
   25.7700   18.4360   28.4760 H   0  0  0  0  0  0  0  0  0  0  0  0
   31.5323   15.0431   26.1588 H   0  0  0  0  0  0  0  0  0  0  0  0
   31.5764   14.9704   24.3821 H   0  0  0  0  0  0  0  0  0  0  0  0
   31.7846   13.5173   25.3366 H   0  0  0  0  0  0  0  0  0  0  0  0
  6  1  2  0
  2  3  2  0
  4  5  2  0
  1  8  1  0
  2  1  1  0
  7  2  1  0
  7  9  1  0
 10  3  1  0
  4  3  1  0
 12  4  1  0
 10 11  1  0
 14  9  1  0
  9  8  2  0
  8 15  1  0
 13 14  2  0
 16 13  1  0
 15 16  2  0
 11 17  1  0
 12 11  2  0
 20 12  1  0
 17 18  2  0
 18 19  1  0
 19 20  2  0
 10 25  1  0
 25 21  1  0
  7 26  1  0
 26 21  1  0
 25 22  1  0
 26 23  1  0
 22 24  1  0
 23 24  1  0
 24 27  1  0
 27 28  1  0
 27 29  1  0
 28 30  2  0
 28 31  1  0
 32 31  2  0
 36 31  1  0
 32 33  1  0
 33 34  2  0
 34 35  1  0
 35 36  2  0
 23 37  1  0
 37 38  1  0
  5 39  1  0
  6  5  1  0
  6 41  1  0
 39 40  1  0
 40 41  1  0
 39 42  2  0
 26 43  1  6
 13 44  1  0
 14 45  1  0
 15 46  1  0
 16 47  1  0
 17 48  1  0
 18 49  1  0
 19 50  1  0
 20 51  1  0
 22 52  1  0
 22 53  1  0
 23 54  1  1
 24 55  1  6
 25 56  1  6
 29 57  1  0
 29 58  1  0
 29 59  1  0
 32 60  1  0
 33 61  1  0
 34 62  1  0
 35 63  1  0
 36 64  1  0
 38 65  1  0
 38 66  1  0
 38 67  1  0
 40 68  1  0
 41 69  1  0
 41 70  1  0
 43 71  1  0
 43 72  1  0
 43 73  1  0
M  END
> <Uni-Dock RESULT> 
ENERGY=   -4.261  LOWER_BOUND=    6.458  UPPER_BOUND=    9.558
INTER + INTRA:          -4.261
INTER:                  -4.261
INTRA:                   0.000
UNBOUND:                 0.000

$$$$

     RDKit          3D

 73 81  0  0  0  0  0  0  0  0999 V2000
   25.8928   13.2736   21.4789 C   0  0  0  0  0  0  0  0  0  0  0  0
   27.1670   12.8869   21.8344 C   0  0  0  0  0  0  0  0  0  0  0  0
   27.9918   11.9336   20.9162 C   0  0  0  0  0  0  0  0  0  0  0  0
   27.4714   11.4605   19.7230 C   0  0  0  0  0  0  0  0  0  0  0  0
   26.1614   11.8814   19.4463 C   0  0  0  0  0  0  0  0  0  0  0  0
   25.3862   12.7466   20.2795 C   0  0  0  0  0  0  0  0  0  0  0  0
   27.5327   13.4811   23.0169 N   0  0  0  0  0  0  0  0  0  0  0  0
   25.4548   14.1813   22.4817 C   0  0  0  0  0  0  0  0  0  0  0  0
   26.5084   14.3470   23.4017 C   0  0  0  0  0  0  0  0  0  0  0  0
   29.2452   11.4392   21.1042 N   0  0  0  0  0  0  0  0  0  0  0  0
   29.5959   10.6641   20.0084 C   0  0  0  0  0  0  0  0  0  0  0  0
   28.4970   10.6591   19.1327 C   0  0  0  0  0  0  0  0  0  0  0  0
   25.1995   15.9971   24.5980 C   0  0  0  0  0  0  0  0  0  0  0  0
   26.3911   15.2788   24.4513 C   0  0  0  0  0  0  0  0  0  0  0  0
   24.2622   14.9184   22.6573 C   0  0  0  0  0  0  0  0  0  0  0  0
   24.1423   15.8143   23.7199 C   0  0  0  0  0  0  0  0  0  0  0  0
   30.7798    9.9597   19.7223 C   0  0  0  0  0  0  0  0  0  0  0  0
   30.8539    9.2426   18.5262 C   0  0  0  0  0  0  0  0  0  0  0  0
   29.7829    9.2215   17.6423 C   0  0  0  0  0  0  0  0  0  0  0  0
   28.6069    9.9204   17.9344 C   0  0  0  0  0  0  0  0  0  0  0  0
   29.2402   11.8920   23.4344 O   0  0  0  0  0  0  0  0  0  0  0  0
   31.3003   12.4757   22.1599 C   0  0  0  0  0  0  0  0  0  0  0  0
   29.9134   14.3114   23.1424 C   0  0  2  0  0  0  0  0  0  0  0  0
   31.2927   13.6184   23.1778 C   0  0  2  0  0  0  0  0  0  0  0  0
   30.0578   11.5886   22.3069 C   0  0  2  0  0  0  0  0  0  0  0  0
   28.8509   13.2753   23.6446 C   0  0  1  0  0  0  0  0  0  0  0  0
   32.4243   14.5677   23.0504 N   0  0  0  0  0  0  0  0  0  0  0  0
   32.7380   15.3173   24.1915 C   0  0  0  0  0  0  0  0  0  0  0  0
   32.9347   14.8910   21.7181 C   0  0  0  0  0  0  0  0  0  0  0  0
   32.0426   15.2959   25.2068 O   0  0  0  0  0  0  0  0  0  0  0  0
   33.9592   16.1544   24.2060 C   0  0  0  0  0  0  0  0  0  0  0  0
   35.2015   15.6173   23.8474 C   0  0  0  0  0  0  0  0  0  0  0  0
   36.3414   16.4207   23.8939 C   0  0  0  0  0  0  0  0  0  0  0  0
   36.2430   17.7487   24.3127 C   0  0  0  0  0  0  0  0  0  0  0  0
   35.0084   18.2752   24.6978 C   0  0  0  0  0  0  0  0  0  0  0  0
   33.8654   17.4766   24.6521 C   0  0  0  0  0  0  0  0  0  0  0  0
   29.6878   14.7061   21.7703 O   0  0  0  0  0  0  0  0  0  0  0  0
   29.2929   16.0661   21.6403 C   0  0  0  0  0  0  0  0  0  0  0  0
   25.3307   11.5502   18.2788 C   0  0  0  0  0  0  0  0  0  0  0  0
   24.1272   12.2023   18.4344 N   0  0  0  0  0  0  0  0  0  0  0  0
   24.0500   12.9800   19.6389 C   0  0  0  0  0  0  0  0  0  0  0  0
   25.6140   10.8408   17.3348 O   0  0  0  0  0  0  0  0  0  0  0  0
   28.7908   13.3031   25.1900 C   0  0  0  0  0  0  0  0  0  0  0  0
   25.1034   16.7108   25.4136 H   0  0  0  0  0  0  0  0  0  0  0  0
   27.1929   15.4738   25.1511 H   0  0  0  0  0  0  0  0  0  0  0  0
   23.4373   14.8029   21.9611 H   0  0  0  0  0  0  0  0  0  0  0  0
   23.2234   16.3803   23.8496 H   0  0  0  0  0  0  0  0  0  0  0  0
   31.6246    9.9626   20.4033 H   0  0  0  0  0  0  0  0  0  0  0  0
   31.7594    8.6914   18.2847 H   0  0  0  0  0  0  0  0  0  0  0  0
   29.8510    8.6573   16.7158 H   0  0  0  0  0  0  0  0  0  0  0  0
   27.7819    9.8865   17.2283 H   0  0  0  0  0  0  0  0  0  0  0  0
   32.2008   11.8682   22.3203 H   0  0  0  0  0  0  0  0  0  0  0  0
   31.3837   12.8402   21.1296 H   0  0  0  0  0  0  0  0  0  0  0  0
   29.8950   15.2042   23.7792 H   0  0  0  0  0  0  0  0  0  0  0  0
   31.4230   13.1668   24.1708 H   0  0  0  0  0  0  0  0  0  0  0  0
   30.4138   10.5699   22.5095 H   0  0  0  0  0  0  0  0  0  0  0  0
   33.5176   14.0414   21.3522 H   0  0  0  0  0  0  0  0  0  0  0  0
   33.5614   15.7838   21.7160 H   0  0  0  0  0  0  0  0  0  0  0  0
   32.1010   15.0841   21.0398 H   0  0  0  0  0  0  0  0  0  0  0  0
   35.2863   14.5775   23.5430 H   0  0  0  0  0  0  0  0  0  0  0  0
   37.3086   16.0111   23.6113 H   0  0  0  0  0  0  0  0  0  0  0  0
   37.1333   18.3721   24.3529 H   0  0  0  0  0  0  0  0  0  0  0  0
   34.9390   19.3049   25.0404 H   0  0  0  0  0  0  0  0  0  0  0  0
   32.9062   17.8810   24.9668 H   0  0  0  0  0  0  0  0  0  0  0  0
   28.3781   16.2667   22.2024 H   0  0  0  0  0  0  0  0  0  0  0  0
   29.1042   16.2676   20.5826 H   0  0  0  0  0  0  0  0  0  0  0  0
   30.0956   16.7260   21.9833 H   0  0  0  0  0  0  0  0  0  0  0  0
   23.3968   12.1129   17.7415 H   0  0  0  0  0  0  0  0  0  0  0  0
   23.8986   14.0302   19.3752 H   0  0  0  0  0  0  0  0  0  0  0  0
   23.2287   12.6042   20.2545 H   0  0  0  0  0  0  0  0  0  0  0  0
   27.9059   12.7740   25.5630 H   0  0  0  0  0  0  0  0  0  0  0  0
   28.7947   14.3143   25.6005 H   0  0  0  0  0  0  0  0  0  0  0  0
   29.6561   12.7901   25.6284 H   0  0  0  0  0  0  0  0  0  0  0  0
  6  1  2  0
  2  3  2  0
  4  5  2  0
  1  8  1  0
  2  1  1  0
  7  2  1  0
  7  9  1  0
 10  3  1  0
  4  3  1  0
 12  4  1  0
 10 11  1  0
 14  9  1  0
  9  8  2  0
  8 15  1  0
 13 14  2  0
 16 13  1  0
 15 16  2  0
 11 17  1  0
 12 11  2  0
 20 12  1  0
 17 18  2  0
 18 19  1  0
 19 20  2  0
 10 25  1  0
 25 21  1  0
  7 26  1  0
 26 21  1  0
 25 22  1  0
 26 23  1  0
 22 24  1  0
 23 24  1  0
 24 27  1  0
 27 28  1  0
 27 29  1  0
 28 30  2  0
 28 31  1  0
 32 31  2  0
 36 31  1  0
 32 33  1  0
 33 34  2  0
 34 35  1  0
 35 36  2  0
 23 37  1  0
 37 38  1  0
  5 39  1  0
  6  5  1  0
  6 41  1  0
 39 40  1  0
 40 41  1  0
 39 42  2  0
 26 43  1  6
 13 44  1  0
 14 45  1  0
 15 46  1  0
 16 47  1  0
 17 48  1  0
 18 49  1  0
 19 50  1  0
 20 51  1  0
 22 52  1  0
 22 53  1  0
 23 54  1  1
 24 55  1  6
 25 56  1  6
 29 57  1  0
 29 58  1  0
 29 59  1  0
 32 60  1  0
 33 61  1  0
 34 62  1  0
 35 63  1  0
 36 64  1  0
 38 65  1  0
 38 66  1  0
 38 67  1  0
 40 68  1  0
 41 69  1  0
 41 70  1  0
 43 71  1  0
 43 72  1  0
 43 73  1  0
M  END
> <Uni-Dock RESULT> 
ENERGY=   -4.157  LOWER_BOUND=    8.698  UPPER_BOUND=   12.054
INTER + INTRA:          -4.157
INTER:                  -4.157
INTRA:                   0.000
UNBOUND:                 0.000

$$$$

     RDKit          3D

 73 81  0  0  0  0  0  0  0  0999 V2000
   22.6837    8.1445   30.8371 C   0  0  0  0  0  0  0  0  0  0  0  0
   24.0335    8.3652   31.0068 C   0  0  0  0  0  0  0  0  0  0  0  0
   25.0207    7.1670   31.1548 C   0  0  0  0  0  0  0  0  0  0  0  0
   24.5702    5.8579   31.1114 C   0  0  0  0  0  0  0  0  0  0  0  0
   23.1818    5.7199   30.9599 C   0  0  0  0  0  0  0  0  0  0  0  0
   22.2601    6.8052   30.8323 C   0  0  0  0  0  0  0  0  0  0  0  0
   24.3028    9.7113   30.9829 N   0  0  0  0  0  0  0  0  0  0  0  0
   22.0863    9.4236   30.6692 C   0  0  0  0  0  0  0  0  0  0  0  0
   23.1140   10.3862   30.7030 C   0  0  0  0  0  0  0  0  0  0  0  0
   26.3683    7.1880   31.3398 N   0  0  0  0  0  0  0  0  0  0  0  0
   26.8417    5.8846   31.3740 C   0  0  0  0  0  0  0  0  0  0  0  0
   25.7313    5.0343   31.2381 C   0  0  0  0  0  0  0  0  0  0  0  0
   21.4961   12.1251   30.2277 C   0  0  0  0  0  0  0  0  0  0  0  0
   22.8222   11.7416   30.4555 C   0  0  0  0  0  0  0  0  0  0  0  0
   20.7561    9.8413   30.4398 C   0  0  0  0  0  0  0  0  0  0  0  0
   20.4718   11.1908   30.2292 C   0  0  0  0  0  0  0  0  0  0  0  0
   28.1484    5.3852   31.5251 C   0  0  0  0  0  0  0  0  0  0  0  0
   28.3341    4.0010   31.5332 C   0  0  0  0  0  0  0  0  0  0  0  0
   27.2543    3.1380   31.3997 C   0  0  0  0  0  0  0  0  0  0  0  0
   25.9570    3.6405   31.2541 C   0  0  0  0  0  0  0  0  0  0  0  0
   26.3856    9.4432   32.0807 O   0  0  0  0  0  0  0  0  0  0  0  0
   28.1439    8.7604   30.4524 C   0  0  0  0  0  0  0  0  0  0  0  0
   26.3900   10.3953   29.7386 C   0  0  2  0  0  0  0  0  0  0  0  0
   27.9014   10.1972   29.9846 C   0  0  2  0  0  0  0  0  0  0  0  0
   27.1849    8.3723   31.5846 C   0  0  2  0  0  0  0  0  0  0  0  0
   25.6644   10.2601   31.1205 C   0  0  1  0  0  0  0  0  0  0  0  0
   28.7384   10.6239   28.8379 N   0  0  0  0  0  0  0  0  0  0  0  0
   28.9148   12.0043   28.6771 C   0  0  0  0  0  0  0  0  0  0  0  0
   29.0669    9.6508   27.7961 C   0  0  0  0  0  0  0  0  0  0  0  0
   28.3108   12.8308   29.3605 O   0  0  0  0  0  0  0  0  0  0  0  0
   29.8760   12.5082   27.6698 C   0  0  0  0  0  0  0  0  0  0  0  0
   31.1912   12.0298   27.6308 C   0  0  0  0  0  0  0  0  0  0  0  0
   32.0846   12.5397   26.6879 C   0  0  0  0  0  0  0  0  0  0  0  0
   31.6705   13.5341   25.8001 C   0  0  0  0  0  0  0  0  0  0  0  0
   30.3671   14.0312   25.8587 C   0  0  0  0  0  0  0  0  0  0  0  0
   29.4695   13.5242   26.7988 C   0  0  0  0  0  0  0  0  0  0  0  0
   25.9880    9.3668   28.8058 O   0  0  0  0  0  0  0  0  0  0  0  0
   25.2471    9.8743   27.7031 C   0  0  0  0  0  0  0  0  0  0  0  0
   22.3970    4.4782   30.8891 C   0  0  0  0  0  0  0  0  0  0  0  0
   21.0771    4.8369   30.7241 N   0  0  0  0  0  0  0  0  0  0  0  0
   20.8732    6.2571   30.6701 C   0  0  0  0  0  0  0  0  0  0  0  0
   22.7975    3.3338   30.9583 O   0  0  0  0  0  0  0  0  0  0  0  0
   25.6918   11.6211   31.8551 C   0  0  0  0  0  0  0  0  0  0  0  0
   21.2673   13.1730   30.0453 H   0  0  0  0  0  0  0  0  0  0  0  0
   23.5865   12.5068   30.4234 H   0  0  0  0  0  0  0  0  0  0  0  0
   19.9491    9.1156   30.4129 H   0  0  0  0  0  0  0  0  0  0  0  0
   19.4471   11.5067   30.0515 H   0  0  0  0  0  0  0  0  0  0  0  0
   29.0028    6.0451   31.6340 H   0  0  0  0  0  0  0  0  0  0  0  0
   29.3354    3.5933   31.6482 H   0  0  0  0  0  0  0  0  0  0  0  0
   27.4107    2.0624   31.4106 H   0  0  0  0  0  0  0  0  0  0  0  0
   25.1282    2.9452   31.1540 H   0  0  0  0  0  0  0  0  0  0  0  0
   29.1791    8.6770   30.8091 H   0  0  0  0  0  0  0  0  0  0  0  0
   28.0681    8.0395   29.6302 H   0  0  0  0  0  0  0  0  0  0  0  0
   26.1790   11.3782   29.3001 H   0  0  0  0  0  0  0  0  0  0  0  0
   28.2035   10.8597   30.8073 H   0  0  0  0  0  0  0  0  0  0  0  0
   27.8043    8.0887   32.4457 H   0  0  0  0  0  0  0  0  0  0  0  0
   29.8271    8.9676   28.1843 H   0  0  0  0  0  0  0  0  0  0  0  0
   29.4394   10.1227   26.8860 H   0  0  0  0  0  0  0  0  0  0  0  0
   28.1726    9.0878   27.5212 H   0  0  0  0  0  0  0  0  0  0  0  0
   31.5242   11.2723   28.3352 H   0  0  0  0  0  0  0  0  0  0  0  0
   33.1062   12.1683   26.6487 H   0  0  0  0  0  0  0  0  0  0  0  0
   32.3696   13.9337   25.0689 H   0  0  0  0  0  0  0  0  0  0  0  0
   30.0537   14.8184   25.1772 H   0  0  0  0  0  0  0  0  0  0  0  0
   28.4589   13.9217   26.8557 H   0  0  0  0  0  0  0  0  0  0  0  0
   24.3469   10.3942   28.0386 H   0  0  0  0  0  0  0  0  0  0  0  0
   24.9496    9.0313   27.0742 H   0  0  0  0  0  0  0  0  0  0  0  0
   25.8703   10.5498   27.1093 H   0  0  0  0  0  0  0  0  0  0  0  0
   20.3547    4.1335   30.6529 H   0  0  0  0  0  0  0  0  0  0  0  0
   20.4393    6.5176   29.7010 H   0  0  0  0  0  0  0  0  0  0  0  0
   20.2158    6.5549   31.4910 H   0  0  0  0  0  0  0  0  0  0  0  0
   24.9983   11.6285   32.7042 H   0  0  0  0  0  0  0  0  0  0  0  0
   25.4580   12.4643   31.2029 H   0  0  0  0  0  0  0  0  0  0  0  0
   26.6852   11.8235   32.2750 H   0  0  0  0  0  0  0  0  0  0  0  0
  6  1  2  0
  2  3  2  0
  4  5  2  0
  1  8  1  0
  2  1  1  0
  7  2  1  0
  7  9  1  0
 10  3  1  0
  4  3  1  0
 12  4  1  0
 10 11  1  0
 14  9  1  0
  9  8  2  0
  8 15  1  0
 13 14  2  0
 16 13  1  0
 15 16  2  0
 11 17  1  0
 12 11  2  0
 20 12  1  0
 17 18  2  0
 18 19  1  0
 19 20  2  0
 10 25  1  0
 25 21  1  0
  7 26  1  0
 26 21  1  0
 25 22  1  0
 26 23  1  0
 22 24  1  0
 23 24  1  0
 24 27  1  0
 27 28  1  0
 27 29  1  0
 28 30  2  0
 28 31  1  0
 32 31  2  0
 36 31  1  0
 32 33  1  0
 33 34  2  0
 34 35  1  0
 35 36  2  0
 23 37  1  0
 37 38  1  0
  5 39  1  0
  6  5  1  0
  6 41  1  0
 39 40  1  0
 40 41  1  0
 39 42  2  0
 26 43  1  6
 13 44  1  0
 14 45  1  0
 15 46  1  0
 16 47  1  0
 17 48  1  0
 18 49  1  0
 19 50  1  0
 20 51  1  0
 22 52  1  0
 22 53  1  0
 23 54  1  1
 24 55  1  6
 25 56  1  6
 29 57  1  0
 29 58  1  0
 29 59  1  0
 32 60  1  0
 33 61  1  0
 34 62  1  0
 35 63  1  0
 36 64  1  0
 38 65  1  0
 38 66  1  0
 38 67  1  0
 40 68  1  0
 41 69  1  0
 41 70  1  0
 43 71  1  0
 43 72  1  0
 43 73  1  0
M  END
> <Uni-Dock RESULT> 
ENERGY=   -4.102  LOWER_BOUND=    2.984  UPPER_BOUND=    8.995
INTER + INTRA:          -4.102
INTER:                  -4.102
INTRA:                   0.000
UNBOUND:                 0.000

$$$$
