
     RDKit          3D

 73 81  0  0  0  0  0  0  0  0999 V2000
   25.3568   13.1380   20.5946 C   0  0  0  0  0  0  0  0  0  0  0  0
   26.4871   12.7409   21.2764 C   0  0  0  0  0  0  0  0  0  0  0  0
   27.5294   11.7984   20.6020 C   0  0  0  0  0  0  0  0  0  0  0  0
   27.3451   11.3330   19.3105 C   0  0  0  0  0  0  0  0  0  0  0  0
   26.1562   11.7576   18.6975 C   0  0  0  0  0  0  0  0  0  0  0  0
   25.1892   12.6221   19.2988 C   0  0  0  0  0  0  0  0  0  0  0  0
   26.5169   13.3155   22.5216 N   0  0  0  0  0  0  0  0  0  0  0  0
   24.6732   14.0477   21.4474 C   0  0  0  0  0  0  0  0  0  0  0  0
   25.4449   14.2036   22.6151 C   0  0  0  0  0  0  0  0  0  0  0  0
   28.6941   11.3111   21.1094 N   0  0  0  0  0  0  0  0  0  0  0  0
   29.3212   10.5391   20.1428 C   0  0  0  0  0  0  0  0  0  0  0  0
   28.4900   10.5328   19.0098 C   0  0  0  0  0  0  0  0  0  0  0  0
   23.8917   15.8787   23.4177 C   0  0  0  0  0  0  0  0  0  0  0  0
   25.0702   15.1453   23.5930 C   0  0  0  0  0  0  0  0  0  0  0  0
   23.4858   14.7989   21.3000 C   0  0  0  0  0  0  0  0  0  0  0  0
   23.1010   15.7017   22.2921 C   0  0  0  0  0  0  0  0  0  0  0  0
   30.5423    9.8411   20.1745 C   0  0  0  0  0  0  0  0  0  0  0  0
   30.9285    9.1255   19.0393 C   0  0  0  0  0  0  0  0  0  0  0  0
   30.1255    9.1015   17.9065 C   0  0  0  0  0  0  0  0  0  0  0  0
   28.9119    9.7969   17.8811 C   0  0  0  0  0  0  0  0  0  0  0  0
   28.0530   11.7046   23.3603 O   0  0  0  0  0  0  0  0  0  0  0  0
   30.3686   12.3641   22.7060 C   0  0  0  0  0  0  0  0  0  0  0  0
   28.7417   14.1356   23.3975 C   0  0  2  0  0  0  0  0  0  0  0  0
   30.0603   13.4228   23.7692 C   0  0  2  0  0  0  0  0  0  0  0  0
   29.1543   11.4520   22.4850 C   0  0  2  0  0  0  0  0  0  0  0  0
   27.5927   13.0749   23.5004 C   0  0  1  0  0  0  0  0  0  0  0  0
   31.1835   14.3306   24.1132 N   0  0  0  0  0  0  0  0  0  0  0  0
   31.9733   14.9297   23.1266 C   0  0  0  0  0  0  0  0  0  0  0  0
   31.2893   14.6932   25.5255 C   0  0  0  0  0  0  0  0  0  0  0  0
   31.7566   14.8684   21.9221 O   0  0  0  0  0  0  0  0  0  0  0  0
   33.1825   15.6802   23.5348 C   0  0  0  0  0  0  0  0  0  0  0  0
   34.1952   15.0545   24.2719 C   0  0  0  0  0  0  0  0  0  0  0  0
   35.3379   15.7744   24.6216 C   0  0  0  0  0  0  0  0  0  0  0  0
   35.4728   17.1062   24.2239 C   0  0  0  0  0  0  0  0  0  0  0  0
   34.4720   17.7208   23.4678 C   0  0  0  0  0  0  0  0  0  0  0  0
   33.3278   17.0059   23.1140 C   0  0  0  0  0  0  0  0  0  0  0  0
   28.8525   14.6244   22.0524 O   0  0  0  0  0  0  0  0  0  0  0  0
   28.7652   16.0373   21.9494 C   0  0  0  0  0  0  0  0  0  0  0  0
   25.6662   11.4364   17.3485 C   0  0  0  0  0  0  0  0  0  0  0  0
   24.4667   12.0935   17.1811 N   0  0  0  0  0  0  0  0  0  0  0  0
   24.0778   12.8714   18.3231 C   0  0  0  0  0  0  0  0  0  0  0  0
   26.1856   10.7291   16.5092 O   0  0  0  0  0  0  0  0  0  0  0  0
   27.0621   13.0233   24.9540 C   0  0  0  0  0  0  0  0  0  0  0  0
   23.5931   16.6011   24.1744 H   0  0  0  0  0  0  0  0  0  0  0  0
   25.6673   15.3379   24.4740 H   0  0  0  0  0  0  0  0  0  0  0  0
   22.8754   14.6918   20.4086 H   0  0  0  0  0  0  0  0  0  0  0  0
   22.1883   16.2797   22.1712 H   0  0  0  0  0  0  0  0  0  0  0  0
   31.1843    9.8539   21.0489 H   0  0  0  0  0  0  0  0  0  0  0  0
   31.8707    8.5830   19.0410 H   0  0  0  0  0  0  0  0  0  0  0  0
   30.4381    8.5419   17.0288 H   0  0  0  0  0  0  0  0  0  0  0  0
   28.3024    9.7651   16.9826 H   0  0  0  0  0  0  0  0  0  0  0  0
   31.2227   11.7609   23.0407 H   0  0  0  0  0  0  0  0  0  0  0  0
   30.6828   12.7967   21.7521 H   0  0  0  0  0  0  0  0  0  0  0  0
   28.5399   14.9721   24.0783 H   0  0  0  0  0  0  0  0  0  0  0  0
   29.8937   12.8668   24.7029 H   0  0  0  0  0  0  0  0  0  0  0  0
   29.4687   10.4368   22.7604 H   0  0  0  0  0  0  0  0  0  0  0  0
   31.7290   13.8499   26.0659 H   0  0  0  0  0  0  0  0  0  0  0  0
   31.8893   15.5895   25.6899 H   0  0  0  0  0  0  0  0  0  0  0  0
   30.2877   14.8915   25.9206 H   0  0  0  0  0  0  0  0  0  0  0  0
   34.1034   14.0101   24.5577 H   0  0  0  0  0  0  0  0  0  0  0  0
   36.1322   15.2950   25.1898 H   0  0  0  0  0  0  0  0  0  0  0  0
   36.3688   17.6629   24.4889 H   0  0  0  0  0  0  0  0  0  0  0  0
   34.5907   18.7507   23.1416 H   0  0  0  0  0  0  0  0  0  0  0  0
   32.5574   17.4728   22.5048 H   0  0  0  0  0  0  0  0  0  0  0  0
   27.7762   16.3806   22.2650 H   0  0  0  0  0  0  0  0  0  0  0  0
   29.5374   16.5223   22.5536 H   0  0  0  0  0  0  0  0  0  0  0  0
   28.9130   16.3159   20.9028 H   0  0  0  0  0  0  0  0  0  0  0  0
   23.9546   12.0216   16.3130 H   0  0  0  0  0  0  0  0  0  0  0  0
   23.1173   12.5051   18.6938 H   0  0  0  0  0  0  0  0  0  0  0  0
   24.0151   13.9232   18.0324 H   0  0  0  0  0  0  0  0  0  0  0  0
   26.1222   12.4611   25.0118 H   0  0  0  0  0  0  0  0  0  0  0  0
   26.9049   14.0102   25.3918 H   0  0  0  0  0  0  0  0  0  0  0  0
   27.7676   12.5025   25.6136 H   0  0  0  0  0  0  0  0  0  0  0  0
  6  1  2  0
  2  3  2  0
  4  5  2  0
  1  8  1  0
  2  1  1  0
  7  2  1  0
  7  9  1  0
 10  3  1  0
  4  3  1  0
 12  4  1  0
 10 11  1  0
 14  9  1  0
  9  8  2  0
  8 15  1  0
 13 14  2  0
 16 13  1  0
 15 16  2  0
 11 17  1  0
 12 11  2  0
 20 12  1  0
 17 18  2  0
 18 19  1  0
 19 20  2  0
 10 25  1  0
 25 21  1  0
  7 26  1  0
 26 21  1  0
 25 22  1  0
 26 23  1  0
 22 24  1  0
 23 24  1  0
 24 27  1  0
 27 28  1  0
 27 29  1  0
 28 30  2  0
 28 31  1  0
 32 31  2  0
 36 31  1  0
 32 33  1  0
 33 34  2  0
 34 35  1  0
 35 36  2  0
 23 37  1  0
 37 38  1  0
  5 39  1  0
  6  5  1  0
  6 41  1  0
 39 40  1  0
 40 41  1  0
 39 42  2  0
 26 43  1  6
 13 44  1  0
 14 45  1  0
 15 46  1  0
 16 47  1  0
 17 48  1  0
 18 49  1  0
 19 50  1  0
 20 51  1  0
 22 52  1  0
 22 53  1  0
 23 54  1  1
 24 55  1  6
 25 56  1  6
 29 57  1  0
 29 58  1  0
 29 59  1  0
 32 60  1  0
 33 61  1  0
 34 62  1  0
 35 63  1  0
 36 64  1  0
 38 65  1  0
 38 66  1  0
 38 67  1  0
 40 68  1  0
 41 69  1  0
 41 70  1  0
 43 71  1  0
 43 72  1  0
 43 73  1  0
M  END
> <Uni-Dock RESULT> 
ENERGY=   -4.457  LOWER_BOUND=    0.000  UPPER_BOUND=    0.000
INTER + INTRA:          -4.457
INTER:                  -4.457
INTRA:                   0.000
UNBOUND:                 0.000

$$$$

     RDKit          3D

 73 81  0  0  0  0  0  0  0  0999 V2000
   22.2528    7.7249   30.9328 C   0  0  0  0  0  0  0  0  0  0  0  0
   23.5658    8.0678   31.1751 C   0  0  0  0  0  0  0  0  0  0  0  0
   24.6624    6.9671   31.2997 C   0  0  0  0  0  0  0  0  0  0  0  0
   24.3472    5.6239   31.1774 C   0  0  0  0  0  0  0  0  0  0  0  0
   22.9862    5.3574   30.9629 C   0  0  0  0  0  0  0  0  0  0  0  0
   21.9664    6.3525   30.8447 C   0  0  0  0  0  0  0  0  0  0  0  0
   23.6962    9.4317   31.2395 N   0  0  0  0  0  0  0  0  0  0  0  0
   21.5392    8.9466   30.7911 C   0  0  0  0  0  0  0  0  0  0  0  0
   22.4648   10.0010   30.9133 C   0  0  0  0  0  0  0  0  0  0  0  0
   25.9959    7.1122   31.5278 N   0  0  0  0  0  0  0  0  0  0  0  0
   26.5947    5.8611   31.5245 C   0  0  0  0  0  0  0  0  0  0  0  0
   25.5791    4.9131   31.3141 C   0  0  0  0  0  0  0  0  0  0  0  0
   20.7134   11.5965   30.4140 C   0  0  0  0  0  0  0  0  0  0  0  0
   22.0583   11.3314   30.6943 C   0  0  0  0  0  0  0  0  0  0  0  0
   20.1869    9.2451   30.5114 C   0  0  0  0  0  0  0  0  0  0  0  0
   19.7846   10.5696   30.3344 C   0  0  0  0  0  0  0  0  0  0  0  0
   27.9395    5.4861   31.6974 C   0  0  0  0  0  0  0  0  0  0  0  0
   28.2613    4.1278   31.6555 C   0  0  0  0  0  0  0  0  0  0  0  0
   27.2772    3.1699   31.4502 C   0  0  0  0  0  0  0  0  0  0  0  0
   25.9414    3.5488   31.2797 C   0  0  0  0  0  0  0  0  0  0  0  0
   25.7585    9.2996   32.4175 O   0  0  0  0  0  0  0  0  0  0  0  0
   27.6101    8.9307   30.7864 C   0  0  0  0  0  0  0  0  0  0  0  0
   25.7395   10.4800   30.1833 C   0  0  2  0  0  0  0  0  0  0  0  0
   27.2513   10.3891   30.4854 C   0  0  2  0  0  0  0  0  0  0  0  0
   26.6774    8.3566   31.8614 C   0  0  2  0  0  0  0  0  0  0  0  0
   24.9771   10.1126   31.5023 C   0  0  1  0  0  0  0  0  0  0  0  0
   28.1256   11.0731   29.4996 N   0  0  0  0  0  0  0  0  0  0  0  0
   28.4933   10.4638   28.2956 C   0  0  0  0  0  0  0  0  0  0  0  0
   28.4210   12.4757   29.7875 C   0  0  0  0  0  0  0  0  0  0  0  0
   28.0542    9.3948   27.8881 O   0  0  0  0  0  0  0  0  0  0  0  0
   29.5053   11.1227   27.4391 C   0  0  0  0  0  0  0  0  0  0  0  0
   30.7828   11.4085   27.9356 C   0  0  0  0  0  0  0  0  0  0  0  0
   31.7286   12.0051   27.1013 C   0  0  0  0  0  0  0  0  0  0  0  0
   31.4031   12.2997   25.7757 C   0  0  0  0  0  0  0  0  0  0  0  0
   30.1358   11.9913   25.2759 C   0  0  0  0  0  0  0  0  0  0  0  0
   29.1864   11.3938   26.1047 C   0  0  0  0  0  0  0  0  0  0  0  0
   25.4257    9.5394   29.1454 O   0  0  0  0  0  0  0  0  0  0  0  0
   24.9313   10.1420   27.9593 C   0  0  0  0  0  0  0  0  0  0  0  0
   22.3323    4.0500   30.8006 C   0  0  0  0  0  0  0  0  0  0  0  0
   20.9905    4.2859   30.5942 N   0  0  0  0  0  0  0  0  0  0  0  0
   20.6503    5.6804   30.5883 C   0  0  0  0  0  0  0  0  0  0  0  0
   22.8389    2.9471   30.8370 O   0  0  0  0  0  0  0  0  0  0  0  0
   24.7990   11.3823   32.3702 C   0  0  0  0  0  0  0  0  0  0  0  0
   20.3924   12.6234   30.2527 H   0  0  0  0  0  0  0  0  0  0  0  0
   22.7498   12.1626   30.7194 H   0  0  0  0  0  0  0  0  0  0  0  0
   19.4569    8.4472   30.4155 H   0  0  0  0  0  0  0  0  0  0  0  0
   18.7434   10.7927   30.1155 H   0  0  0  0  0  0  0  0  0  0  0  0
   28.7216    6.2216   31.8529 H   0  0  0  0  0  0  0  0  0  0  0  0
   29.2954    3.8166   31.7821 H   0  0  0  0  0  0  0  0  0  0  0  0
   27.5408    2.1160   31.4183 H   0  0  0  0  0  0  0  0  0  0  0  0
   25.1900    2.7813   31.1180 H   0  0  0  0  0  0  0  0  0  0  0  0
   28.6482    8.8848   31.1408 H   0  0  0  0  0  0  0  0  0  0  0  0
   27.5847    8.2933   29.8981 H   0  0  0  0  0  0  0  0  0  0  0  0
   25.4617   11.4914   29.8607 H   0  0  0  0  0  0  0  0  0  0  0  0
   27.4449   10.9412   31.4162 H   0  0  0  0  0  0  0  0  0  0  0  0
   27.3109    8.0862   32.7163 H   0  0  0  0  0  0  0  0  0  0  0  0
   29.1801   12.5136   30.5741 H   0  0  0  0  0  0  0  0  0  0  0  0
   28.7702   13.0244   28.9116 H   0  0  0  0  0  0  0  0  0  0  0  0
   27.5098   12.9684   30.1420 H   0  0  0  0  0  0  0  0  0  0  0  0
   31.0457   11.1541   28.9588 H   0  0  0  0  0  0  0  0  0  0  0  0
   32.7254   12.2261   27.4769 H   0  0  0  0  0  0  0  0  0  0  0  0
   32.1450   12.7556   25.1239 H   0  0  0  0  0  0  0  0  0  0  0  0
   29.8937   12.2022   24.2375 H   0  0  0  0  0  0  0  0  0  0  0  0
   28.2068   11.1296   25.7130 H   0  0  0  0  0  0  0  0  0  0  0  0
   23.9751   10.6354   28.1541 H   0  0  0  0  0  0  0  0  0  0  0  0
   25.6481   10.8652   27.5595 H   0  0  0  0  0  0  0  0  0  0  0  0
   24.7731    9.3575   27.2148 H   0  0  0  0  0  0  0  0  0  0  0  0
   20.3479    3.5203   30.4457 H   0  0  0  0  0  0  0  0  0  0  0  0
   19.9287    5.8748   31.3856 H   0  0  0  0  0  0  0  0  0  0  0  0
   20.2395    5.9423   29.6099 H   0  0  0  0  0  0  0  0  0  0  0  0
   24.0853   11.2075   33.1844 H   0  0  0  0  0  0  0  0  0  0  0  0
   24.4705   12.2526   31.8002 H   0  0  0  0  0  0  0  0  0  0  0  0
   25.7432   11.6675   32.8511 H   0  0  0  0  0  0  0  0  0  0  0  0
  6  1  2  0
  2  3  2  0
  4  5  2  0
  1  8  1  0
  2  1  1  0
  7  2  1  0
  7  9  1  0
 10  3  1  0
  4  3  1  0
 12  4  1  0
 10 11  1  0
 14  9  1  0
  9  8  2  0
  8 15  1  0
 13 14  2  0
 16 13  1  0
 15 16  2  0
 11 17  1  0
 12 11  2  0
 20 12  1  0
 17 18  2  0
 18 19  1  0
 19 20  2  0
 10 25  1  0
 25 21  1  0
  7 26  1  0
 26 21  1  0
 25 22  1  0
 26 23  1  0
 22 24  1  0
 23 24  1  0
 24 27  1  0
 27 28  1  0
 27 29  1  0
 28 30  2  0
 28 31  1  0
 32 31  2  0
 36 31  1  0
 32 33  1  0
 33 34  2  0
 34 35  1  0
 35 36  2  0
 23 37  1  0
 37 38  1  0
  5 39  1  0
  6  5  1  0
  6 41  1  0
 39 40  1  0
 40 41  1  0
 39 42  2  0
 26 43  1  6
 13 44  1  0
 14 45  1  0
 15 46  1  0
 16 47  1  0
 17 48  1  0
 18 49  1  0
 19 50  1  0
 20 51  1  0
 22 52  1  0
 22 53  1  0
 23 54  1  1
 24 55  1  6
 25 56  1  6
 29 57  1  0
 29 58  1  0
 29 59  1  0
 32 60  1  0
 33 61  1  0
 34 62  1  0
 35 63  1  0
 36 64  1  0
 38 65  1  0
 38 66  1  0
 38 67  1  0
 40 68  1  0
 41 69  1  0
 41 70  1  0
 43 71  1  0
 43 72  1  0
 43 73  1  0
M  END
> <Uni-Dock RESULT> 
ENERGY=   -4.294  LOWER_BOUND=    8.624  UPPER_BOUND=   10.981
INTER + INTRA:          -4.294
INTER:                  -4.294
INTRA:                   0.000
UNBOUND:                 0.000

$$$$

     RDKit          3D

 73 81  0  0  0  0  0  0  0  0999 V2000
   22.2567    7.7404   30.9316 C   0  0  0  0  0  0  0  0  0  0  0  0
   23.5705    8.0812   31.1727 C   0  0  0  0  0  0  0  0  0  0  0  0
   24.6654    6.9787   31.2970 C   0  0  0  0  0  0  0  0  0  0  0  0
   24.3477    5.6360   31.1757 C   0  0  0  0  0  0  0  0  0  0  0  0
   22.9861    5.3717   30.9624 C   0  0  0  0  0  0  0  0  0  0  0  0
   21.9679    6.3684   30.8445 C   0  0  0  0  0  0  0  0  0  0  0  0
   23.7033    9.4449   31.2363 N   0  0  0  0  0  0  0  0  0  0  0  0
   21.5451    8.9632   30.7899 C   0  0  0  0  0  0  0  0  0  0  0  0
   22.4726   10.0161   30.9108 C   0  0  0  0  0  0  0  0  0  0  0  0
   25.9993    7.1217   31.5240 N   0  0  0  0  0  0  0  0  0  0  0  0
   26.5960    5.8696   31.5209 C   0  0  0  0  0  0  0  0  0  0  0  0
   25.5786    4.9232   31.3118 C   0  0  0  0  0  0  0  0  0  0  0  0
   20.7235   11.6142   30.4121 C   0  0  0  0  0  0  0  0  0  0  0  0
   22.0681   11.3471   30.6914 C   0  0  0  0  0  0  0  0  0  0  0  0
   20.1931    9.2639   30.5111 C   0  0  0  0  0  0  0  0  0  0  0  0
   19.7929   10.5889   30.3337 C   0  0  0  0  0  0  0  0  0  0  0  0
   27.9403    5.4923   31.6929 C   0  0  0  0  0  0  0  0  0  0  0  0
   28.2598    4.1335   31.6515 C   0  0  0  0  0  0  0  0  0  0  0  0
   27.2738    3.1772   31.4475 C   0  0  0  0  0  0  0  0  0  0  0  0
   25.9386    3.5583   31.2778 C   0  0  0  0  0  0  0  0  0  0  0  0
   25.7663    9.3099   32.4128 O   0  0  0  0  0  0  0  0  0  0  0  0
   27.6159    8.9371   30.7803 C   0  0  0  0  0  0  0  0  0  0  0  0
   25.7475   10.4892   30.1779 C   0  0  2  0  0  0  0  0  0  0  0  0
   27.2594   10.3959   30.4788 C   0  0  2  0  0  0  0  0  0  0  0  0
   26.6831    8.3651   31.8563 C   0  0  2  0  0  0  0  0  0  0  0  0
   24.9855   10.1238   31.4977 C   0  0  1  0  0  0  0  0  0  0  0  0
   28.1340   11.0779   29.4919 N   0  0  0  0  0  0  0  0  0  0  0  0
   28.4997   10.4673   28.2881 C   0  0  0  0  0  0  0  0  0  0  0  0
   28.4320   12.4801   29.7789 C   0  0  0  0  0  0  0  0  0  0  0  0
   28.0585    9.3989   27.8814 O   0  0  0  0  0  0  0  0  0  0  0  0
   29.5122   11.1241   27.4303 C   0  0  0  0  0  0  0  0  0  0  0  0
   30.7905   11.4080   27.9257 C   0  0  0  0  0  0  0  0  0  0  0  0
   31.7367   12.0025   27.0903 C   0  0  0  0  0  0  0  0  0  0  0  0
   31.4106   12.2970   25.7648 C   0  0  0  0  0  0  0  0  0  0  0  0
   30.1424   11.9904   25.2662 C   0  0  0  0  0  0  0  0  0  0  0  0
   29.1927   11.3950   26.0961 C   0  0  0  0  0  0  0  0  0  0  0  0
   25.4313    9.5486   29.1407 O   0  0  0  0  0  0  0  0  0  0  0  0
   24.9370   10.1514   27.9547 C   0  0  0  0  0  0  0  0  0  0  0  0
   22.3299    4.0653   30.8014 C   0  0  0  0  0  0  0  0  0  0  0  0
   20.9883    4.3033   30.5959 N   0  0  0  0  0  0  0  0  0  0  0  0
   20.6506    5.6984   30.5896 C   0  0  0  0  0  0  0  0  0  0  0  0
   22.8347    2.9616   30.8379 O   0  0  0  0  0  0  0  0  0  0  0  0
   24.8103   11.3943   32.3650 C   0  0  0  0  0  0  0  0  0  0  0  0
   20.4041   12.6416   30.2505 H   0  0  0  0  0  0  0  0  0  0  0  0
   22.7611   12.1771   30.7154 H   0  0  0  0  0  0  0  0  0  0  0  0
   19.4617    8.4671   30.4162 H   0  0  0  0  0  0  0  0  0  0  0  0
   18.7519   10.8136   30.1155 H   0  0  0  0  0  0  0  0  0  0  0  0
   28.7238    6.2267   31.8474 H   0  0  0  0  0  0  0  0  0  0  0  0
   29.2934    3.8207   31.7775 H   0  0  0  0  0  0  0  0  0  0  0  0
   27.5357    2.1228   31.4159 H   0  0  0  0  0  0  0  0  0  0  0  0
   25.1857    2.7919   31.1171 H   0  0  0  0  0  0  0  0  0  0  0  0
   28.6542    8.8896   31.1340 H   0  0  0  0  0  0  0  0  0  0  0  0
   27.5888    8.2993   29.8924 H   0  0  0  0  0  0  0  0  0  0  0  0
   25.4712   11.5009   29.8550 H   0  0  0  0  0  0  0  0  0  0  0  0
   27.4547   10.9481   31.4092 H   0  0  0  0  0  0  0  0  0  0  0  0
   27.3169    8.0941   32.7109 H   0  0  0  0  0  0  0  0  0  0  0  0
   29.1919   12.5171   30.5648 H   0  0  0  0  0  0  0  0  0  0  0  0
   28.7814   13.0278   28.9024 H   0  0  0  0  0  0  0  0  0  0  0  0
   27.5220   12.9745   30.1338 H   0  0  0  0  0  0  0  0  0  0  0  0
   31.0538   11.1537   28.9488 H   0  0  0  0  0  0  0  0  0  0  0  0
   32.7342   12.2221   27.4650 H   0  0  0  0  0  0  0  0  0  0  0  0
   32.1527   12.7513   25.1122 H   0  0  0  0  0  0  0  0  0  0  0  0
   29.8998   12.2012   24.2279 H   0  0  0  0  0  0  0  0  0  0  0  0
   28.2123   11.1322   25.7053 H   0  0  0  0  0  0  0  0  0  0  0  0
   23.9818   10.6464   28.1500 H   0  0  0  0  0  0  0  0  0  0  0  0
   25.6546   10.8731   27.5539 H   0  0  0  0  0  0  0  0  0  0  0  0
   24.7768    9.3667   27.2108 H   0  0  0  0  0  0  0  0  0  0  0  0
   20.3444    3.5388   30.4483 H   0  0  0  0  0  0  0  0  0  0  0  0
   19.9299    5.8945   31.3874 H   0  0  0  0  0  0  0  0  0  0  0  0
   20.2394    5.9604   29.6114 H   0  0  0  0  0  0  0  0  0  0  0  0
   24.0969   11.2211   33.1799 H   0  0  0  0  0  0  0  0  0  0  0  0
   24.4828   12.2648   31.7948 H   0  0  0  0  0  0  0  0  0  0  0  0
   25.7554   11.6781   32.8450 H   0  0  0  0  0  0  0  0  0  0  0  0
  6  1  2  0
  2  3  2  0
  4  5  2  0
  1  8  1  0
  2  1  1  0
  7  2  1  0
  7  9  1  0
 10  3  1  0
  4  3  1  0
 12  4  1  0
 10 11  1  0
 14  9  1  0
  9  8  2  0
  8 15  1  0
 13 14  2  0
 16 13  1  0
 15 16  2  0
 11 17  1  0
 12 11  2  0
 20 12  1  0
 17 18  2  0
 18 19  1  0
 19 20  2  0
 10 25  1  0
 25 21  1  0
  7 26  1  0
 26 21  1  0
 25 22  1  0
 26 23  1  0
 22 24  1  0
 23 24  1  0
 24 27  1  0
 27 28  1  0
 27 29  1  0
 28 30  2  0
 28 31  1  0
 32 31  2  0
 36 31  1  0
 32 33  1  0
 33 34  2  0
 34 35  1  0
 35 36  2  0
 23 37  1  0
 37 38  1  0
  5 39  1  0
  6  5  1  0
  6 41  1  0
 39 40  1  0
 40 41  1  0
 39 42  2  0
 26 43  1  6
 13 44  1  0
 14 45  1  0
 15 46  1  0
 16 47  1  0
 17 48  1  0
 18 49  1  0
 19 50  1  0
 20 51  1  0
 22 52  1  0
 22 53  1  0
 23 54  1  1
 24 55  1  6
 25 56  1  6
 29 57  1  0
 29 58  1  0
 29 59  1  0
 32 60  1  0
 33 61  1  0
 34 62  1  0
 35 63  1  0
 36 64  1  0
 38 65  1  0
 38 66  1  0
 38 67  1  0
 40 68  1  0
 41 69  1  0
 41 70  1  0
 43 71  1  0
 43 72  1  0
 43 73  1  0
M  END
> <Uni-Dock RESULT> 
ENERGY=   -4.289  LOWER_BOUND=    8.616  UPPER_BOUND=   10.973
INTER + INTRA:          -4.289
INTER:                  -4.289
INTRA:                   0.000
UNBOUND:                 0.000

$$$$

     RDKit          3D

 73 81  0  0  0  0  0  0  0  0999 V2000
   30.5117   10.0992   28.3398 C   0  0  0  0  0  0  0  0  0  0  0  0
   29.8069    9.5679   29.3987 C   0  0  0  0  0  0  0  0  0  0  0  0
   28.2485    9.5982   29.4085 C   0  0  0  0  0  0  0  0  0  0  0  0
   27.5358   10.1619   28.3631 C   0  0  0  0  0  0  0  0  0  0  0  0
   28.3266   10.7077   27.3403 C   0  0  0  0  0  0  0  0  0  0  0  0
   29.7560   10.6887   27.3128 C   0  0  0  0  0  0  0  0  0  0  0  0
   30.6688    9.0332   30.3221 N   0  0  0  0  0  0  0  0  0  0  0  0
   31.8846    9.8353   28.5995 C   0  0  0  0  0  0  0  0  0  0  0  0
   31.9615    9.1073   29.8026 C   0  0  0  0  0  0  0  0  0  0  0  0
   27.3911    9.1227   30.3519 N   0  0  0  0  0  0  0  0  0  0  0  0
   26.0878    9.3334   29.9267 C   0  0  0  0  0  0  0  0  0  0  0  0
   26.1546    9.9900   28.6862 C   0  0  0  0  0  0  0  0  0  0  0  0
   34.3546    8.8804   29.5122 C   0  0  0  0  0  0  0  0  0  0  0  0
   33.1978    8.6004   30.2477 C   0  0  0  0  0  0  0  0  0  0  0  0
   33.0701   10.1061   27.8803 C   0  0  0  0  0  0  0  0  0  0  0  0
   34.2966    9.6334   28.3489 C   0  0  0  0  0  0  0  0  0  0  0  0
   24.8602    9.0096   30.5329 C   0  0  0  0  0  0  0  0  0  0  0  0
   23.6804    9.3559   29.8710 C   0  0  0  0  0  0  0  0  0  0  0  0
   23.7177   10.0062   28.6446 C   0  0  0  0  0  0  0  0  0  0  0  0
   24.9414   10.3263   28.0470 C   0  0  0  0  0  0  0  0  0  0  0  0
   29.0422    9.0991   32.0565 O   0  0  0  0  0  0  0  0  0  0  0  0
   27.5691    7.0938   31.8731 C   0  0  0  0  0  0  0  0  0  0  0  0
   30.0204    6.8552   31.4292 C   0  0  2  0  0  0  0  0  0  0  0  0
   28.8663    6.4499   32.3719 C   0  0  2  0  0  0  0  0  0  0  0  0
   27.7619    8.6015   31.6615 C   0  0  2  0  0  0  0  0  0  0  0  0
   30.2230    8.4021   31.5776 C   0  0  1  0  0  0  0  0  0  0  0  0
   28.7866    4.9978   32.6703 N   0  0  0  0  0  0  0  0  0  0  0  0
   28.1708    4.0995   31.7929 C   0  0  0  0  0  0  0  0  0  0  0  0
   29.5451    4.5531   33.8384 C   0  0  0  0  0  0  0  0  0  0  0  0
   27.7559    4.3839   30.6755 O   0  0  0  0  0  0  0  0  0  0  0  0
   27.9681    2.6987   32.2273 C   0  0  0  0  0  0  0  0  0  0  0  0
   27.2330    2.4099   33.3834 C   0  0  0  0  0  0  0  0  0  0  0  0
   27.0320    1.0811   33.7580 C   0  0  0  0  0  0  0  0  0  0  0  0
   27.5501    0.0487   32.9732 C   0  0  0  0  0  0  0  0  0  0  0  0
   28.2623    0.3390   31.8073 C   0  0  0  0  0  0  0  0  0  0  0  0
   28.4655    1.6655   31.4270 C   0  0  0  0  0  0  0  0  0  0  0  0
   29.6450    6.5265   30.0832 O   0  0  0  0  0  0  0  0  0  0  0  0
   30.4908    5.5635   29.4737 C   0  0  0  0  0  0  0  0  0  0  0  0
   27.8816   11.3785   26.1094 C   0  0  0  0  0  0  0  0  0  0  0  0
   29.0113   11.7278   25.4019 N   0  0  0  0  0  0  0  0  0  0  0  0
   30.2325   11.3374   26.0473 C   0  0  0  0  0  0  0  0  0  0  0  0
   26.7454   11.6054   25.7463 O   0  0  0  0  0  0  0  0  0  0  0  0
   31.1886    8.6890   32.7533 C   0  0  0  0  0  0  0  0  0  0  0  0
   35.3134    8.4986   29.8564 H   0  0  0  0  0  0  0  0  0  0  0  0
   33.2898    7.9864   31.1333 H   0  0  0  0  0  0  0  0  0  0  0  0
   33.0329   10.6676   26.9518 H   0  0  0  0  0  0  0  0  0  0  0  0
   35.2048    9.8417   27.7891 H   0  0  0  0  0  0  0  0  0  0  0  0
   24.8130    8.4966   31.4877 H   0  0  0  0  0  0  0  0  0  0  0  0
   22.7209    9.1107   30.3197 H   0  0  0  0  0  0  0  0  0  0  0  0
   22.7922   10.2691   28.1388 H   0  0  0  0  0  0  0  0  0  0  0  0
   24.9448   10.8328   27.0861 H   0  0  0  0  0  0  0  0  0  0  0  0
   26.7793    6.9273   32.6173 H   0  0  0  0  0  0  0  0  0  0  0  0
   27.1931    6.6378   30.9530 H   0  0  0  0  0  0  0  0  0  0  0  0
   30.9474    6.3302   31.6921 H   0  0  0  0  0  0  0  0  0  0  0  0
   29.0604    6.8971   33.3574 H   0  0  0  0  0  0  0  0  0  0  0  0
   27.0709    9.1070   32.3488 H   0  0  0  0  0  0  0  0  0  0  0  0
   28.9857    4.8277   34.7374 H   0  0  0  0  0  0  0  0  0  0  0  0
   29.7361    3.4790   33.8368 H   0  0  0  0  0  0  0  0  0  0  0  0
   30.5158    5.0593   33.8493 H   0  0  0  0  0  0  0  0  0  0  0  0
   26.8058    3.2120   33.9792 H   0  0  0  0  0  0  0  0  0  0  0  0
   26.4577    0.8470   34.6518 H   0  0  0  0  0  0  0  0  0  0  0  0
   27.3839   -0.9868   33.2614 H   0  0  0  0  0  0  0  0  0  0  0  0
   28.6451   -0.4678   31.1877 H   0  0  0  0  0  0  0  0  0  0  0  0
   28.9982    1.8955   30.5072 H   0  0  0  0  0  0  0  0  0  0  0  0
   31.5036    5.9614   29.3661 H   0  0  0  0  0  0  0  0  0  0  0  0
   30.5148    4.6384   30.0570 H   0  0  0  0  0  0  0  0  0  0  0  0
   30.0969    5.3401   28.4788 H   0  0  0  0  0  0  0  0  0  0  0  0
   28.9380   12.1950   24.5089 H   0  0  0  0  0  0  0  0  0  0  0  0
   30.8324   12.2292   26.2447 H   0  0  0  0  0  0  0  0  0  0  0  0
   30.7671   10.6354   25.4023 H   0  0  0  0  0  0  0  0  0  0  0  0
   31.5225    9.7337   32.7444 H   0  0  0  0  0  0  0  0  0  0  0  0
   32.0675    8.0427   32.7580 H   0  0  0  0  0  0  0  0  0  0  0  0
   30.6903    8.5385   33.7193 H   0  0  0  0  0  0  0  0  0  0  0  0
  6  1  2  0
  2  3  2  0
  4  5  2  0
  1  8  1  0
  2  1  1  0
  7  2  1  0
  7  9  1  0
 10  3  1  0
  4  3  1  0
 12  4  1  0
 10 11  1  0
 14  9  1  0
  9  8  2  0
  8 15  1  0
 13 14  2  0
 16 13  1  0
 15 16  2  0
 11 17  1  0
 12 11  2  0
 20 12  1  0
 17 18  2  0
 18 19  1  0
 19 20  2  0
 10 25  1  0
 25 21  1  0
  7 26  1  0
 26 21  1  0
 25 22  1  0
 26 23  1  0
 22 24  1  0
 23 24  1  0
 24 27  1  0
 27 28  1  0
 27 29  1  0
 28 30  2  0
 28 31  1  0
 32 31  2  0
 36 31  1  0
 32 33  1  0
 33 34  2  0
 34 35  1  0
 35 36  2  0
 23 37  1  0
 37 38  1  0
  5 39  1  0
  6  5  1  0
  6 41  1  0
 39 40  1  0
 40 41  1  0
 39 42  2  0
 26 43  1  6
 13 44  1  0
 14 45  1  0
 15 46  1  0
 16 47  1  0
 17 48  1  0
 18 49  1  0
 19 50  1  0
 20 51  1  0
 22 52  1  0
 22 53  1  0
 23 54  1  1
 24 55  1  6
 25 56  1  6
 29 57  1  0
 29 58  1  0
 29 59  1  0
 32 60  1  0
 33 61  1  0
 34 62  1  0
 35 63  1  0
 36 64  1  0
 38 65  1  0
 38 66  1  0
 38 67  1  0
 40 68  1  0
 41 69  1  0
 41 70  1  0
 43 71  1  0
 43 72  1  0
 43 73  1  0
M  END
> <Uni-Dock RESULT> 
ENERGY=   -4.229  LOWER_BOUND=    8.779  UPPER_BOUND=   12.468
INTER + INTRA:          -4.229
INTER:                  -4.229
INTRA:                   0.000
UNBOUND:                 0.000

$$$$

     RDKit          3D

 73 81  0  0  0  0  0  0  0  0999 V2000
   34.9439   14.8458   28.8345 C   0  0  0  0  0  0  0  0  0  0  0  0
   34.6922   14.1042   27.7000 C   0  0  0  0  0  0  0  0  0  0  0  0
   34.5118   12.5584   27.7873 C   0  0  0  0  0  0  0  0  0  0  0  0
   34.6056   11.8930   28.9984 C   0  0  0  0  0  0  0  0  0  0  0  0
   34.8943   12.7144   30.0989 C   0  0  0  0  0  0  0  0  0  0  0  0
   35.0620   14.1331   30.0392 C   0  0  0  0  0  0  0  0  0  0  0  0
   34.6065   14.9259   26.6050 N   0  0  0  0  0  0  0  0  0  0  0  0
   34.9672   16.2076   28.4261 C   0  0  0  0  0  0  0  0  0  0  0  0
   34.6840   16.2470   27.0471 C   0  0  0  0  0  0  0  0  0  0  0  0
   34.2544   11.6710   26.7885 N   0  0  0  0  0  0  0  0  0  0  0  0
   34.1373   10.4000   27.3311 C   0  0  0  0  0  0  0  0  0  0  0  0
   34.3611   10.5143   28.7136 C   0  0  0  0  0  0  0  0  0  0  0  0
   34.7031   18.6673   27.1124 C   0  0  0  0  0  0  0  0  0  0  0  0
   34.5209   17.4824   26.3910 C   0  0  0  0  0  0  0  0  0  0  0  0
   35.1499   17.4203   29.1275 C   0  0  0  0  0  0  0  0  0  0  0  0
   35.0251   18.6400   28.4611 C   0  0  0  0  0  0  0  0  0  0  0  0
   33.8628    9.1625   26.7208 C   0  0  0  0  0  0  0  0  0  0  0  0
   33.8132    8.0216   27.5246 C   0  0  0  0  0  0  0  0  0  0  0  0
   34.0316    8.1060   28.8934 C   0  0  0  0  0  0  0  0  0  0  0  0
   34.3049    9.3392   29.4945 C   0  0  0  0  0  0  0  0  0  0  0  0
   35.0069   13.1413   25.0842 O   0  0  0  0  0  0  0  0  0  0  0  0
   32.8691   11.9227   24.6720 C   0  0  0  0  0  0  0  0  0  0  0  0
   32.8355   14.4169   24.8747 C   0  0  2  0  0  0  0  0  0  0  0  0
   32.6032   13.2283   23.9164 C   0  0  2  0  0  0  0  0  0  0  0  0
   34.2392   11.9680   25.3617 C   0  0  2  0  0  0  0  0  0  0  0  0
   34.3599   14.4325   25.2379 C   0  0  1  0  0  0  0  0  0  0  0  0
   31.3285   13.2804   23.1571 N   0  0  0  0  0  0  0  0  0  0  0  0
   30.1203   12.8554   23.7188 C   0  0  0  0  0  0  0  0  0  0  0  0
   31.3921   13.9661   21.8675 C   0  0  0  0  0  0  0  0  0  0  0  0
   29.9696   12.5222   24.8883 O   0  0  0  0  0  0  0  0  0  0  0  0
   28.9208   12.7669   22.8554 C   0  0  0  0  0  0  0  0  0  0  0  0
   28.9234   11.9593   21.7117 C   0  0  0  0  0  0  0  0  0  0  0  0
   27.7723   11.8704   20.9284 C   0  0  0  0  0  0  0  0  0  0  0  0
   26.6224   12.5728   21.2953 C   0  0  0  0  0  0  0  0  0  0  0  0
   26.6149   13.3585   22.4501 C   0  0  0  0  0  0  0  0  0  0  0  0
   27.7623   13.4504   23.2378 C   0  0  0  0  0  0  0  0  0  0  0  0
   32.0423   14.2124   26.0534 O   0  0  0  0  0  0  0  0  0  0  0  0
   31.0585   15.2143   26.2603 C   0  0  0  0  0  0  0  0  0  0  0  0
   35.0649   12.3199   31.5055 C   0  0  0  0  0  0  0  0  0  0  0  0
   35.3174   13.4676   32.2251 N   0  0  0  0  0  0  0  0  0  0  0  0
   35.3260   14.6559   31.4199 C   0  0  0  0  0  0  0  0  0  0  0  0
   35.0059   11.2063   31.9858 O   0  0  0  0  0  0  0  0  0  0  0  0
   35.1394   15.2419   24.1728 C   0  0  0  0  0  0  0  0  0  0  0  0
   34.5869   19.6243   26.6082 H   0  0  0  0  0  0  0  0  0  0  0  0
   34.2441   17.5551   25.3480 H   0  0  0  0  0  0  0  0  0  0  0  0
   35.3712   17.4119   30.1904 H   0  0  0  0  0  0  0  0  0  0  0  0
   35.1631   19.5698   29.0071 H   0  0  0  0  0  0  0  0  0  0  0  0
   33.6840    9.0795   25.6540 H   0  0  0  0  0  0  0  0  0  0  0  0
   33.5978    7.0559   27.0738 H   0  0  0  0  0  0  0  0  0  0  0  0
   33.9887    7.2108   29.5082 H   0  0  0  0  0  0  0  0  0  0  0  0
   34.4697    9.3801   30.5673 H   0  0  0  0  0  0  0  0  0  0  0  0
   32.8458   11.0875   23.9597 H   0  0  0  0  0  0  0  0  0  0  0  0
   32.0939   11.6903   25.4075 H   0  0  0  0  0  0  0  0  0  0  0  0
   32.5546   15.3661   24.4012 H   0  0  0  0  0  0  0  0  0  0  0  0
   33.3665   13.2754   23.1264 H   0  0  0  0  0  0  0  0  0  0  0  0
   34.8405   11.1621   24.9209 H   0  0  0  0  0  0  0  0  0  0  0  0
   31.8633   13.2953   21.1433 H   0  0  0  0  0  0  0  0  0  0  0  0
   30.4114   14.2735   21.5013 H   0  0  0  0  0  0  0  0  0  0  0  0
   32.0017   14.8695   21.9717 H   0  0  0  0  0  0  0  0  0  0  0  0
   29.8089   11.3905   21.4410 H   0  0  0  0  0  0  0  0  0  0  0  0
   27.7634   11.2412   20.0409 H   0  0  0  0  0  0  0  0  0  0  0  0
   25.7229   12.4944   20.6890 H   0  0  0  0  0  0  0  0  0  0  0  0
   25.7114   13.8862   22.7440 H   0  0  0  0  0  0  0  0  0  0  0  0
   27.7534   14.0414   24.1507 H   0  0  0  0  0  0  0  0  0  0  0  0
   31.5342   16.1828   26.4377 H   0  0  0  0  0  0  0  0  0  0  0  0
   30.3835   15.2833   25.4023 H   0  0  0  0  0  0  0  0  0  0  0  0
   30.4747   14.9460   27.1446 H   0  0  0  0  0  0  0  0  0  0  0  0
   35.4568   13.4305   33.2252 H   0  0  0  0  0  0  0  0  0  0  0  0
   36.3066   15.1320   31.4972 H   0  0  0  0  0  0  0  0  0  0  0  0
   34.5330   15.3246   31.7641 H   0  0  0  0  0  0  0  0  0  0  0  0
   36.1604   15.4580   24.5099 H   0  0  0  0  0  0  0  0  0  0  0  0
   34.6550   16.1820   23.9048 H   0  0  0  0  0  0  0  0  0  0  0  0
   35.2424   14.6717   23.2409 H   0  0  0  0  0  0  0  0  0  0  0  0
  6  1  2  0
  2  3  2  0
  4  5  2  0
  1  8  1  0
  2  1  1  0
  7  2  1  0
  7  9  1  0
 10  3  1  0
  4  3  1  0
 12  4  1  0
 10 11  1  0
 14  9  1  0
  9  8  2  0
  8 15  1  0
 13 14  2  0
 16 13  1  0
 15 16  2  0
 11 17  1  0
 12 11  2  0
 20 12  1  0
 17 18  2  0
 18 19  1  0
 19 20  2  0
 10 25  1  0
 25 21  1  0
  7 26  1  0
 26 21  1  0
 25 22  1  0
 26 23  1  0
 22 24  1  0
 23 24  1  0
 24 27  1  0
 27 28  1  0
 27 29  1  0
 28 30  2  0
 28 31  1  0
 32 31  2  0
 36 31  1  0
 32 33  1  0
 33 34  2  0
 34 35  1  0
 35 36  2  0
 23 37  1  0
 37 38  1  0
  5 39  1  0
  6  5  1  0
  6 41  1  0
 39 40  1  0
 40 41  1  0
 39 42  2  0
 26 43  1  6
 13 44  1  0
 14 45  1  0
 15 46  1  0
 16 47  1  0
 17 48  1  0
 18 49  1  0
 19 50  1  0
 20 51  1  0
 22 52  1  0
 22 53  1  0
 23 54  1  1
 24 55  1  6
 25 56  1  6
 29 57  1  0
 29 58  1  0
 29 59  1  0
 32 60  1  0
 33 61  1  0
 34 62  1  0
 35 63  1  0
 36 64  1  0
 38 65  1  0
 38 66  1  0
 38 67  1  0
 40 68  1  0
 41 69  1  0
 41 70  1  0
 43 71  1  0
 43 72  1  0
 43 73  1  0
M  END
> <Uni-Dock RESULT> 
ENERGY=   -4.138  LOWER_BOUND=    4.696  UPPER_BOUND=   10.361
INTER + INTRA:          -4.138
INTER:                  -4.138
INTRA:                   0.000
UNBOUND:                 0.000

$$$$

     RDKit          3D

 73 81  0  0  0  0  0  0  0  0999 V2000
   27.8859   10.9462   26.9732 C   0  0  0  0  0  0  0  0  0  0  0  0
   29.0137   10.4097   27.5567 C   0  0  0  0  0  0  0  0  0  0  0  0
   30.4299   10.7390   26.9949 C   0  0  0  0  0  0  0  0  0  0  0  0
   30.5907   11.5690   25.8978 C   0  0  0  0  0  0  0  0  0  0  0  0
   29.3938   12.0484   25.3437 C   0  0  0  0  0  0  0  0  0  0  0  0
   28.0865   11.7587   25.8449 C   0  0  0  0  0  0  0  0  0  0  0  0
   28.6682    9.6401   28.6383 N   0  0  0  0  0  0  0  0  0  0  0  0
   26.7844   10.5242   27.7673 C   0  0  0  0  0  0  0  0  0  0  0  0
   27.2942    9.7706   28.8423 C   0  0  0  0  0  0  0  0  0  0  0  0
   31.6442   10.3136   27.4373 N   0  0  0  0  0  0  0  0  0  0  0  0
   32.6369   10.8875   26.6571 C   0  0  0  0  0  0  0  0  0  0  0  0
   31.9993   11.6721   25.6813 C   0  0  0  0  0  0  0  0  0  0  0  0
   25.0648    9.5832   29.7680 C   0  0  0  0  0  0  0  0  0  0  0  0
   26.4359    9.3224   29.8649 C   0  0  0  0  0  0  0  0  0  0  0  0
   25.3948   10.7683   27.6939 C   0  0  0  0  0  0  0  0  0  0  0  0
   24.5460   10.2870   28.6914 C   0  0  0  0  0  0  0  0  0  0  0  0
   34.0376   10.7744   26.7234 C   0  0  0  0  0  0  0  0  0  0  0  0
   34.8055   11.4686   25.7861 C   0  0  0  0  0  0  0  0  0  0  0  0
   34.2011   12.2504   24.8105 C   0  0  0  0  0  0  0  0  0  0  0  0
   32.8077   12.3584   24.7490 C   0  0  0  0  0  0  0  0  0  0  0  0
   30.7353    8.4632   28.6131 O   0  0  0  0  0  0  0  0  0  0  0  0
   32.4642    9.8214   29.7926 C   0  0  0  0  0  0  0  0  0  0  0  0
   30.1312    9.7600   30.6962 C   0  0  2  0  0  0  0  0  0  0  0  0
   31.5998    9.3717   30.9745 C   0  0  2  0  0  0  0  0  0  0  0  0
   31.8766    9.3115   28.4698 C   0  0  2  0  0  0  0  0  0  0  0  0
   29.6505    8.9166   29.4659 C   0  0  1  0  0  0  0  0  0  0  0  0
   32.1018    9.7563   32.3177 N   0  0  0  0  0  0  0  0  0  0  0  0
   32.5610   11.0493   32.5885 C   0  0  0  0  0  0  0  0  0  0  0  0
   31.9150    8.7574   33.3687 C   0  0  0  0  0  0  0  0  0  0  0  0
   32.4884   11.9957   31.8136 O   0  0  0  0  0  0  0  0  0  0  0  0
   33.2107   11.3206   33.8910 C   0  0  0  0  0  0  0  0  0  0  0  0
   34.3452   10.6013   34.2855 C   0  0  0  0  0  0  0  0  0  0  0  0
   34.9564   10.8934   35.5052 C   0  0  0  0  0  0  0  0  0  0  0  0
   34.4448   11.9080   36.3170 C   0  0  0  0  0  0  0  0  0  0  0  0
   33.3274   12.6404   35.9098 C   0  0  0  0  0  0  0  0  0  0  0  0
   32.7128   12.3538   34.6910 C   0  0  0  0  0  0  0  0  0  0  0  0
   30.0813   11.1620   30.3920 O   0  0  0  0  0  0  0  0  0  0  0  0
   29.3162   11.9198   31.3165 C   0  0  0  0  0  0  0  0  0  0  0  0
   29.2226   12.9338   24.1819 C   0  0  0  0  0  0  0  0  0  0  0  0
   27.8702   13.1464   24.0246 N   0  0  0  0  0  0  0  0  0  0  0  0
   27.0688   12.4763   25.0091 C   0  0  0  0  0  0  0  0  0  0  0  0
   30.0809   13.4088   23.4664 O   0  0  0  0  0  0  0  0  0  0  0  0
   29.1132    7.5484   29.9521 C   0  0  0  0  0  0  0  0  0  0  0  0
   24.3962    9.2316   30.5510 H   0  0  0  0  0  0  0  0  0  0  0  0
   26.7965    8.7934   30.7367 H   0  0  0  0  0  0  0  0  0  0  0  0
   24.9812   11.3450   26.8722 H   0  0  0  0  0  0  0  0  0  0  0  0
   23.4781   10.4814   28.6315 H   0  0  0  0  0  0  0  0  0  0  0  0
   34.5263   10.1728   27.4825 H   0  0  0  0  0  0  0  0  0  0  0  0
   35.8900   11.3988   25.8225 H   0  0  0  0  0  0  0  0  0  0  0  0
   34.8101   12.7870   24.0876 H   0  0  0  0  0  0  0  0  0  0  0  0
   32.3583   12.9780   23.9783 H   0  0  0  0  0  0  0  0  0  0  0  0
   33.4786    9.4212   29.9203 H   0  0  0  0  0  0  0  0  0  0  0  0
   32.5908   10.9066   29.7455 H   0  0  0  0  0  0  0  0  0  0  0  0
   29.4957    9.5484   31.5653 H   0  0  0  0  0  0  0  0  0  0  0  0
   31.6635    8.2742   30.9889 H   0  0  0  0  0  0  0  0  0  0  0  0
   32.6304    8.6485   28.0251 H   0  0  0  0  0  0  0  0  0  0  0  0
   32.6740    7.9796   33.2438 H   0  0  0  0  0  0  0  0  0  0  0  0
   31.9818    9.1797   34.3724 H   0  0  0  0  0  0  0  0  0  0  0  0
   30.9208    8.3106   33.2659 H   0  0  0  0  0  0  0  0  0  0  0  0
   34.7604    9.8307   33.6416 H   0  0  0  0  0  0  0  0  0  0  0  0
   35.8414   10.3432   35.8176 H   0  0  0  0  0  0  0  0  0  0  0  0
   34.9286   12.1410   37.2629 H   0  0  0  0  0  0  0  0  0  0  0  0
   32.9455   13.4437   36.5344 H   0  0  0  0  0  0  0  0  0  0  0  0
   31.8575   12.9377   34.3589 H   0  0  0  0  0  0  0  0  0  0  0  0
   28.2670   11.6138   31.2822 H   0  0  0  0  0  0  0  0  0  0  0  0
   29.7040   11.8045   32.3329 H   0  0  0  0  0  0  0  0  0  0  0  0
   29.3809   12.9739   31.0344 H   0  0  0  0  0  0  0  0  0  0  0  0
   27.5230   13.7410   23.2851 H   0  0  0  0  0  0  0  0  0  0  0  0
   26.3903   11.7836   24.5052 H   0  0  0  0  0  0  0  0  0  0  0  0
   26.5164   13.2224   25.5859 H   0  0  0  0  0  0  0  0  0  0  0  0
   28.5713    7.0297   29.1520 H   0  0  0  0  0  0  0  0  0  0  0  0
   28.4595    7.6255   30.8221 H   0  0  0  0  0  0  0  0  0  0  0  0
   29.9352    6.8820   30.2426 H   0  0  0  0  0  0  0  0  0  0  0  0
  6  1  2  0
  2  3  2  0
  4  5  2  0
  1  8  1  0
  2  1  1  0
  7  2  1  0
  7  9  1  0
 10  3  1  0
  4  3  1  0
 12  4  1  0
 10 11  1  0
 14  9  1  0
  9  8  2  0
  8 15  1  0
 13 14  2  0
 16 13  1  0
 15 16  2  0
 11 17  1  0
 12 11  2  0
 20 12  1  0
 17 18  2  0
 18 19  1  0
 19 20  2  0
 10 25  1  0
 25 21  1  0
  7 26  1  0
 26 21  1  0
 25 22  1  0
 26 23  1  0
 22 24  1  0
 23 24  1  0
 24 27  1  0
 27 28  1  0
 27 29  1  0
 28 30  2  0
 28 31  1  0
 32 31  2  0
 36 31  1  0
 32 33  1  0
 33 34  2  0
 34 35  1  0
 35 36  2  0
 23 37  1  0
 37 38  1  0
  5 39  1  0
  6  5  1  0
  6 41  1  0
 39 40  1  0
 40 41  1  0
 39 42  2  0
 26 43  1  6
 13 44  1  0
 14 45  1  0
 15 46  1  0
 16 47  1  0
 17 48  1  0
 18 49  1  0
 19 50  1  0
 20 51  1  0
 22 52  1  0
 22 53  1  0
 23 54  1  1
 24 55  1  6
 25 56  1  6
 29 57  1  0
 29 58  1  0
 29 59  1  0
 32 60  1  0
 33 61  1  0
 34 62  1  0
 35 63  1  0
 36 64  1  0
 38 65  1  0
 38 66  1  0
 38 67  1  0
 40 68  1  0
 41 69  1  0
 41 70  1  0
 43 71  1  0
 43 72  1  0
 43 73  1  0
M  END
> <Uni-Dock RESULT> 
ENERGY=   -4.104  LOWER_BOUND=    6.524  UPPER_BOUND=    8.830
INTER + INTRA:          -4.104
INTER:                  -4.104
INTRA:                   0.000
UNBOUND:                 0.000

$$$$

     RDKit          3D

 73 81  0  0  0  0  0  0  0  0999 V2000
   29.5320    3.5698   31.5002 C   0  0  0  0  0  0  0  0  0  0  0  0
   30.5341    4.5036   31.6557 C   0  0  0  0  0  0  0  0  0  0  0  0
   32.0310    4.0691   31.6452 C   0  0  0  0  0  0  0  0  0  0  0  0
   32.3909    2.7410   31.4869 C   0  0  0  0  0  0  0  0  0  0  0  0
   31.3127    1.8509   31.3663 C   0  0  0  0  0  0  0  0  0  0  0  0
   29.9342    2.2299   31.3724 C   0  0  0  0  0  0  0  0  0  0  0  0
   29.9977    5.7607   31.7716 N   0  0  0  0  0  0  0  0  0  0  0  0
   28.3094    4.2952   31.4695 C   0  0  0  0  0  0  0  0  0  0  0  0
   28.6208    5.6652   31.5675 C   0  0  0  0  0  0  0  0  0  0  0  0
   33.1447    4.8396   31.7760 N   0  0  0  0  0  0  0  0  0  0  0  0
   34.2682    4.0334   31.6698 C   0  0  0  0  0  0  0  0  0  0  0  0
   33.8195    2.7132   31.4958 C   0  0  0  0  0  0  0  0  0  0  0  0
   26.2813    6.2176   31.2777 C   0  0  0  0  0  0  0  0  0  0  0  0
   27.6068    6.6344   31.4410 C   0  0  0  0  0  0  0  0  0  0  0  0
   26.9614    3.9042   31.3088 C   0  0  0  0  0  0  0  0  0  0  0  0
   25.9578    4.8700   31.2236 C   0  0  0  0  0  0  0  0  0  0  0  0
   35.6371    4.3540   31.7212 C   0  0  0  0  0  0  0  0  0  0  0  0
   36.5671    3.3202   31.5932 C   0  0  0  0  0  0  0  0  0  0  0  0
   36.1510    2.0066   31.4213 C   0  0  0  0  0  0  0  0  0  0  0  0
   34.7884    1.6937   31.3717 C   0  0  0  0  0  0  0  0  0  0  0  0
   31.9655    6.6382   32.7796 O   0  0  0  0  0  0  0  0  0  0  0  0
   33.6119    7.2133   30.9953 C   0  0  0  0  0  0  0  0  0  0  0  0
   31.1813    7.6680   30.6092 C   0  0  2  0  0  0  0  0  0  0  0  0
   32.5707    8.3178   30.7893 C   0  0  2  0  0  0  0  0  0  0  0  0
   33.1706    6.2576   32.1120 C   0  0  2  0  0  0  0  0  0  0  0  0
   30.8110    6.9749   31.9652 C   0  0  1  0  0  0  0  0  0  0  0  0
   32.9162    9.3413   29.7709 N   0  0  0  0  0  0  0  0  0  0  0  0
   33.4222    8.9882   28.5158 C   0  0  0  0  0  0  0  0  0  0  0  0
   32.5252   10.7115   30.0984 C   0  0  0  0  0  0  0  0  0  0  0  0
   33.5167    7.8411   28.0954 O   0  0  0  0  0  0  0  0  0  0  0  0
   33.9114   10.0560   27.6144 C   0  0  0  0  0  0  0  0  0  0  0  0
   34.9326   10.9221   28.0232 C   0  0  0  0  0  0  0  0  0  0  0  0
   35.3961   11.9033   27.1463 C   0  0  0  0  0  0  0  0  0  0  0  0
   34.8519   12.0072   25.8644 C   0  0  0  0  0  0  0  0  0  0  0  0
   33.8501   11.1262   25.4505 C   0  0  0  0  0  0  0  0  0  0  0  0
   33.3835   10.1425   26.3223 C   0  0  0  0  0  0  0  0  0  0  0  0
   31.2671    6.6953   29.5571 O   0  0  0  0  0  0  0  0  0  0  0  0
   30.4400    6.9870   28.4412 C   0  0  0  0  0  0  0  0  0  0  0  0
   31.3566    0.3906   31.1959 C   0  0  0  0  0  0  0  0  0  0  0  0
   30.0543   -0.0504   31.1047 N   0  0  0  0  0  0  0  0  0  0  0  0
   29.0865    1.0064   31.1882 C   0  0  0  0  0  0  0  0  0  0  0  0
   32.3320   -0.3305   31.1431 O   0  0  0  0  0  0  0  0  0  0  0  0
   30.1229    7.9987   32.9008 C   0  0  0  0  0  0  0  0  0  0  0  0
   25.4931    6.9621   31.1884 H   0  0  0  0  0  0  0  0  0  0  0  0
   27.8126    7.6961   31.4502 H   0  0  0  0  0  0  0  0  0  0  0  0
   26.6998    2.8532   31.2336 H   0  0  0  0  0  0  0  0  0  0  0  0
   24.9228    4.5630   31.0961 H   0  0  0  0  0  0  0  0  0  0  0  0
   35.9795    5.3755   31.8491 H   0  0  0  0  0  0  0  0  0  0  0  0
   37.6300    3.5468   31.6253 H   0  0  0  0  0  0  0  0  0  0  0  0
   36.8848    1.2111   31.3214 H   0  0  0  0  0  0  0  0  0  0  0  0
   34.4876    0.6591   31.2339 H   0  0  0  0  0  0  0  0  0  0  0  0
   34.5711    7.6737   31.2661 H   0  0  0  0  0  0  0  0  0  0  0  0
   33.8168    6.6451   30.0837 H   0  0  0  0  0  0  0  0  0  0  0  0
   30.4239    8.4202   30.3552 H   0  0  0  0  0  0  0  0  0  0  0  0
   32.5574    8.8925   31.7264 H   0  0  0  0  0  0  0  0  0  0  0  0
   33.9297    6.3248   32.9024 H   0  0  0  0  0  0  0  0  0  0  0  0
   33.2395   11.1094   30.8249 H   0  0  0  0  0  0  0  0  0  0  0  0
   32.4875   11.3627   29.2238 H   0  0  0  0  0  0  0  0  0  0  0  0
   31.5253   10.7020   30.5441 H   0  0  0  0  0  0  0  0  0  0  0  0
   35.3759   10.8238   29.0105 H   0  0  0  0  0  0  0  0  0  0  0  0
   36.1929   12.5773   27.4534 H   0  0  0  0  0  0  0  0  0  0  0  0
   35.2214   12.7662   25.1787 H   0  0  0  0  0  0  0  0  0  0  0  0
   33.4446   11.1964   24.4446 H   0  0  0  0  0  0  0  0  0  0  0  0
   32.6211    9.4390   25.9958 H   0  0  0  0  0  0  0  0  0  0  0  0
   29.3862    6.9567   28.7314 H   0  0  0  0  0  0  0  0  0  0  0  0
   30.6816    7.9673   28.0204 H   0  0  0  0  0  0  0  0  0  0  0  0
   30.6126    6.2253   27.6765 H   0  0  0  0  0  0  0  0  0  0  0  0
   29.8487   -1.0307   30.9717 H   0  0  0  0  0  0  0  0  0  0  0  0
   28.4350    0.8263   32.0469 H   0  0  0  0  0  0  0  0  0  0  0  0
   28.5147    1.0396   30.2574 H   0  0  0  0  0  0  0  0  0  0  0  0
   29.6573    7.4990   33.7590 H   0  0  0  0  0  0  0  0  0  0  0  0
   29.3669    8.6034   32.3979 H   0  0  0  0  0  0  0  0  0  0  0  0
   30.8523    8.7033   33.3198 H   0  0  0  0  0  0  0  0  0  0  0  0
  6  1  2  0
  2  3  2  0
  4  5  2  0
  1  8  1  0
  2  1  1  0
  7  2  1  0
  7  9  1  0
 10  3  1  0
  4  3  1  0
 12  4  1  0
 10 11  1  0
 14  9  1  0
  9  8  2  0
  8 15  1  0
 13 14  2  0
 16 13  1  0
 15 16  2  0
 11 17  1  0
 12 11  2  0
 20 12  1  0
 17 18  2  0
 18 19  1  0
 19 20  2  0
 10 25  1  0
 25 21  1  0
  7 26  1  0
 26 21  1  0
 25 22  1  0
 26 23  1  0
 22 24  1  0
 23 24  1  0
 24 27  1  0
 27 28  1  0
 27 29  1  0
 28 30  2  0
 28 31  1  0
 32 31  2  0
 36 31  1  0
 32 33  1  0
 33 34  2  0
 34 35  1  0
 35 36  2  0
 23 37  1  0
 37 38  1  0
  5 39  1  0
  6  5  1  0
  6 41  1  0
 39 40  1  0
 40 41  1  0
 39 42  2  0
 26 43  1  6
 13 44  1  0
 14 45  1  0
 15 46  1  0
 16 47  1  0
 17 48  1  0
 18 49  1  0
 19 50  1  0
 20 51  1  0
 22 52  1  0
 22 53  1  0
 23 54  1  1
 24 55  1  6
 25 56  1  6
 29 57  1  0
 29 58  1  0
 29 59  1  0
 32 60  1  0
 33 61  1  0
 34 62  1  0
 35 63  1  0
 36 64  1  0
 38 65  1  0
 38 66  1  0
 38 67  1  0
 40 68  1  0
 41 69  1  0
 41 70  1  0
 43 71  1  0
 43 72  1  0
 43 73  1  0
M  END
> <Uni-Dock RESULT> 
ENERGY=   -4.095  LOWER_BOUND=   10.735  UPPER_BOUND=   12.955
INTER + INTRA:          -4.095
INTER:                  -4.095
INTRA:                   0.000
UNBOUND:                 0.000

$$$$

     RDKit          3D

 73 81  0  0  0  0  0  0  0  0999 V2000
   30.1008    8.3446   29.7562 C   0  0  0  0  0  0  0  0  0  0  0  0
   29.0010    8.1356   30.5606 C   0  0  0  0  0  0  0  0  0  0  0  0
   27.6208    8.7606   30.1944 C   0  0  0  0  0  0  0  0  0  0  0  0
   27.4659    9.5428   29.0618 C   0  0  0  0  0  0  0  0  0  0  0  0
   28.6384    9.7327   28.3145 C   0  0  0  0  0  0  0  0  0  0  0  0
   29.9123    9.1673   28.6332 C   0  0  0  0  0  0  0  0  0  0  0  0
   29.3312    7.3217   31.6142 N   0  0  0  0  0  0  0  0  0  0  0  0
   31.1589    7.5778   30.3168 C   0  0  0  0  0  0  0  0  0  0  0  0
   30.6453    6.8892   31.4328 C   0  0  0  0  0  0  0  0  0  0  0  0
   26.4357    8.6603   30.8552 N   0  0  0  0  0  0  0  0  0  0  0  0
   25.4625    9.3494   30.1469 C   0  0  0  0  0  0  0  0  0  0  0  0
   26.0873    9.9166   29.0233 C   0  0  0  0  0  0  0  0  0  0  0  0
   32.7685    5.7597   31.7130 C   0  0  0  0  0  0  0  0  0  0  0  0
   31.4431    5.9524   32.1176 C   0  0  0  0  0  0  0  0  0  0  0  0
   32.5022    7.3659   29.9340 C   0  0  0  0  0  0  0  0  0  0  0  0
   33.2980    6.4646   30.6423 C   0  0  0  0  0  0  0  0  0  0  0  0
   24.0912    9.5274   30.4056 C   0  0  0  0  0  0  0  0  0  0  0  0
   23.3397   10.2919   29.5106 C   0  0  0  0  0  0  0  0  0  0  0  0
   23.9322   10.8647   28.3929 C   0  0  0  0  0  0  0  0  0  0  0  0
   25.2965   10.6850   28.1413 C   0  0  0  0  0  0  0  0  0  0  0  0
   27.4580    8.0248   32.9006 O   0  0  0  0  0  0  0  0  0  0  0  0
   25.4450    6.7349   32.1870 C   0  0  0  0  0  0  0  0  0  0  0  0
   27.6556    5.5705   32.3320 C   0  0  2  0  0  0  0  0  0  0  0  0
   26.2323    5.6488   32.9264 C   0  0  2  0  0  0  0  0  0  0  0  0
   26.2335    8.0513   32.1638 C   0  0  2  0  0  0  0  0  0  0  0  0
   28.3743    6.9234   32.6625 C   0  0  1  0  0  0  0  0  0  0  0  0
   25.5430    4.3413   33.0658 N   0  0  0  0  0  0  0  0  0  0  0  0
   24.8860    3.7379   31.9887 C   0  0  0  0  0  0  0  0  0  0  0  0
   25.7514    3.6530   34.3387 C   0  0  0  0  0  0  0  0  0  0  0  0
   24.9110    4.1471   30.8339 O   0  0  0  0  0  0  0  0  0  0  0  0
   24.0710    2.5265   32.2342 C   0  0  0  0  0  0  0  0  0  0  0  0
   23.0095    2.5540   33.1468 C   0  0  0  0  0  0  0  0  0  0  0  0
   22.2383    1.4078   33.3413 C   0  0  0  0  0  0  0  0  0  0  0  0
   22.5181    0.2471   32.6171 C   0  0  0  0  0  0  0  0  0  0  0  0
   23.5623    0.2295   31.6896 C   0  0  0  0  0  0  0  0  0  0  0  0
   24.3360    1.3727   31.4898 C   0  0  0  0  0  0  0  0  0  0  0  0
   27.5462    5.3960   30.9114 O   0  0  0  0  0  0  0  0  0  0  0  0
   28.0986    4.1757   30.4421 C   0  0  0  0  0  0  0  0  0  0  0  0
   28.8098   10.5092   27.0772 C   0  0  0  0  0  0  0  0  0  0  0  0
   30.1296   10.3913   26.6992 N   0  0  0  0  0  0  0  0  0  0  0  0
   30.9058    9.5700   27.5843 C   0  0  0  0  0  0  0  0  0  0  0  0
   27.9755   11.1500   26.4709 O   0  0  0  0  0  0  0  0  0  0  0  0
   29.0381    6.8315   34.0582 C   0  0  0  0  0  0  0  0  0  0  0  0
   33.3918    5.0436   32.2442 H   0  0  0  0  0  0  0  0  0  0  0  0
   31.0675    5.3598   32.9408 H   0  0  0  0  0  0  0  0  0  0  0  0
   32.9183    7.8885   29.0782 H   0  0  0  0  0  0  0  0  0  0  0  0
   34.3298    6.3029   30.3406 H   0  0  0  0  0  0  0  0  0  0  0  0
   23.6112    9.0822   31.2707 H   0  0  0  0  0  0  0  0  0  0  0  0
   22.2772   10.4379   29.6892 H   0  0  0  0  0  0  0  0  0  0  0  0
   23.3361   11.4564   27.7031 H   0  0  0  0  0  0  0  0  0  0  0  0
   25.7366   11.1409   27.2591 H   0  0  0  0  0  0  0  0  0  0  0  0
   24.4868    6.8918   32.6993 H   0  0  0  0  0  0  0  0  0  0  0  0
   25.1777    6.4476   31.1663 H   0  0  0  0  0  0  0  0  0  0  0  0
   28.2182    4.7334   32.7642 H   0  0  0  0  0  0  0  0  0  0  0  0
   26.3174    5.9983   33.9653 H   0  0  0  0  0  0  0  0  0  0  0  0
   25.6285    8.7905   32.7051 H   0  0  0  0  0  0  0  0  0  0  0  0
   25.1229    4.1307   35.0958 H   0  0  0  0  0  0  0  0  0  0  0  0
   25.5217    2.5876   34.2877 H   0  0  0  0  0  0  0  0  0  0  0  0
   26.8024    3.7487   34.6300 H   0  0  0  0  0  0  0  0  0  0  0  0
   22.7737    3.4651   33.6901 H   0  0  0  0  0  0  0  0  0  0  0  0
   21.4083    1.4214   34.0445 H   0  0  0  0  0  0  0  0  0  0  0  0
   21.9095   -0.6425   32.7628 H   0  0  0  0  0  0  0  0  0  0  0  0
   23.7628   -0.6691   31.1121 H   0  0  0  0  0  0  0  0  0  0  0  0
   25.1342    1.3710   30.7511 H   0  0  0  0  0  0  0  0  0  0  0  0
   29.1773    4.1541   30.6195 H   0  0  0  0  0  0  0  0  0  0  0  0
   27.6245    3.3185   30.9289 H   0  0  0  0  0  0  0  0  0  0  0  0
   27.9214    4.1093   29.3655 H   0  0  0  0  0  0  0  0  0  0  0  0
   30.4692   10.8409   25.8604 H   0  0  0  0  0  0  0  0  0  0  0  0
   31.7218   10.1660   28.0001 H   0  0  0  0  0  0  0  0  0  0  0  0
   31.2872    8.7096   27.0285 H   0  0  0  0  0  0  0  0  0  0  0  0
   29.7273    7.6684   34.2238 H   0  0  0  0  0  0  0  0  0  0  0  0
   29.5793    5.8979   34.2185 H   0  0  0  0  0  0  0  0  0  0  0  0
   28.2883    6.8940   34.8569 H   0  0  0  0  0  0  0  0  0  0  0  0
  6  1  2  0
  2  3  2  0
  4  5  2  0
  1  8  1  0
  2  1  1  0
  7  2  1  0
  7  9  1  0
 10  3  1  0
  4  3  1  0
 12  4  1  0
 10 11  1  0
 14  9  1  0
  9  8  2  0
  8 15  1  0
 13 14  2  0
 16 13  1  0
 15 16  2  0
 11 17  1  0
 12 11  2  0
 20 12  1  0
 17 18  2  0
 18 19  1  0
 19 20  2  0
 10 25  1  0
 25 21  1  0
  7 26  1  0
 26 21  1  0
 25 22  1  0
 26 23  1  0
 22 24  1  0
 23 24  1  0
 24 27  1  0
 27 28  1  0
 27 29  1  0
 28 30  2  0
 28 31  1  0
 32 31  2  0
 36 31  1  0
 32 33  1  0
 33 34  2  0
 34 35  1  0
 35 36  2  0
 23 37  1  0
 37 38  1  0
  5 39  1  0
  6  5  1  0
  6 41  1  0
 39 40  1  0
 40 41  1  0
 39 42  2  0
 26 43  1  6
 13 44  1  0
 14 45  1  0
 15 46  1  0
 16 47  1  0
 17 48  1  0
 18 49  1  0
 19 50  1  0
 20 51  1  0
 22 52  1  0
 22 53  1  0
 23 54  1  1
 24 55  1  6
 25 56  1  6
 29 57  1  0
 29 58  1  0
 29 59  1  0
 32 60  1  0
 33 61  1  0
 34 62  1  0
 35 63  1  0
 36 64  1  0
 38 65  1  0
 38 66  1  0
 38 67  1  0
 40 68  1  0
 41 69  1  0
 41 70  1  0
 43 71  1  0
 43 72  1  0
 43 73  1  0
M  END
> <Uni-Dock RESULT> 
ENERGY=   -4.078  LOWER_BOUND=    9.796  UPPER_BOUND=   13.828
INTER + INTRA:          -4.078
INTER:                  -4.078
INTRA:                   0.000
UNBOUND:                 0.000

$$$$
