
     RDKit          3D

 73 81  0  0  0  0  0  0  0  0999 V2000
   25.3327   13.1206   20.5951 C   0  0  0  0  0  0  0  0  0  0  0  0
   26.4692   12.7429   21.2778 C   0  0  0  0  0  0  0  0  0  0  0  0
   27.5167   11.8001   20.6131 C   0  0  0  0  0  0  0  0  0  0  0  0
   27.3301   11.3119   19.3305 C   0  0  0  0  0  0  0  0  0  0  0  0
   26.1333   11.7139   18.7180 C   0  0  0  0  0  0  0  0  0  0  0  0
   25.1622   12.5806   19.3095 C   0  0  0  0  0  0  0  0  0  0  0  0
   26.4976   13.3341   22.5149 N   0  0  0  0  0  0  0  0  0  0  0  0
   24.6472   14.0406   21.4353 C   0  0  0  0  0  0  0  0  0  0  0  0
   25.4237   14.2211   22.5959 C   0  0  0  0  0  0  0  0  0  0  0  0
   28.6883   11.3323   21.1223 N   0  0  0  0  0  0  0  0  0  0  0  0
   29.3203   10.5545   20.1636 C   0  0  0  0  0  0  0  0  0  0  0  0
   28.4828   10.5201   19.0361 C   0  0  0  0  0  0  0  0  0  0  0  0
   23.8668   15.9017   23.3778 C   0  0  0  0  0  0  0  0  0  0  0  0
   25.0506   15.1788   23.5585 C   0  0  0  0  0  0  0  0  0  0  0  0
   23.4548   14.7825   21.2817 C   0  0  0  0  0  0  0  0  0  0  0  0
   23.0703   15.6998   22.2606 C   0  0  0  0  0  0  0  0  0  0  0  0
   30.5506    9.8731   20.1990 C   0  0  0  0  0  0  0  0  0  0  0  0
   30.9385    9.1435   19.0730 C   0  0  0  0  0  0  0  0  0  0  0  0
   30.1282    9.0902   17.9464 C   0  0  0  0  0  0  0  0  0  0  0  0
   28.9067    9.7708   17.9170 C   0  0  0  0  0  0  0  0  0  0  0  0
   28.0454   11.7401   23.3688 O   0  0  0  0  0  0  0  0  0  0  0  0
   30.3478   12.4304   22.7034 C   0  0  0  0  0  0  0  0  0  0  0  0
   28.7056   14.1790   23.4140 C   0  0  2  0  0  0  0  0  0  0  0  0
   30.0309   13.4743   23.7791 C   0  0  2  0  0  0  0  0  0  0  0  0
   29.1495   11.4957   22.4949 C   0  0  2  0  0  0  0  0  0  0  0  0
   27.5673   13.1051   23.5029 C   0  0  1  0  0  0  0  0  0  0  0  0
   31.1453   14.3856   24.1396 N   0  0  0  0  0  0  0  0  0  0  0  0
   31.9574   14.9768   23.1668 C   0  0  0  0  0  0  0  0  0  0  0  0
   31.2199   14.7584   25.5523 C   0  0  0  0  0  0  0  0  0  0  0  0
   31.7557   14.9204   21.9594 O   0  0  0  0  0  0  0  0  0  0  0  0
   33.1738   15.7066   23.5955 C   0  0  0  0  0  0  0  0  0  0  0  0
   34.1459   15.0750   24.3805 C   0  0  0  0  0  0  0  0  0  0  0  0
   35.2929   15.7755   24.7557 C   0  0  0  0  0  0  0  0  0  0  0  0
   35.4740   17.0939   24.3336 C   0  0  0  0  0  0  0  0  0  0  0  0
   34.5178   17.7122   23.5264 C   0  0  0  0  0  0  0  0  0  0  0  0
   33.3683   17.0174   23.1492 C   0  0  0  0  0  0  0  0  0  0  0  0
   28.8083   14.6877   22.0752 O   0  0  0  0  0  0  0  0  0  0  0  0
   28.7664   16.1050   21.9995 C   0  0  0  0  0  0  0  0  0  0  0  0
   25.6376   11.3633   17.3781 C   0  0  0  0  0  0  0  0  0  0  0  0
   24.4323   12.0079   17.2060 N   0  0  0  0  0  0  0  0  0  0  0  0
   24.0433   12.8033   18.3360 C   0  0  0  0  0  0  0  0  0  0  0  0
   26.1573   10.6430   16.5498 O   0  0  0  0  0  0  0  0  0  0  0  0
   27.0216   13.0450   24.9506 C   0  0  0  0  0  0  0  0  0  0  0  0
   23.5689   16.6363   24.1228 H   0  0  0  0  0  0  0  0  0  0  0  0
   25.6535   15.3916   24.4309 H   0  0  0  0  0  0  0  0  0  0  0  0
   22.8399   14.6581   20.3956 H   0  0  0  0  0  0  0  0  0  0  0  0
   22.1540   16.2706   22.1349 H   0  0  0  0  0  0  0  0  0  0  0  0
   31.1985    9.9098   21.0686 H   0  0  0  0  0  0  0  0  0  0  0  0
   31.8878    8.6136   19.0768 H   0  0  0  0  0  0  0  0  0  0  0  0
   30.4416    8.5197   17.0759 H   0  0  0  0  0  0  0  0  0  0  0  0
   28.2915    9.7165   17.0236 H   0  0  0  0  0  0  0  0  0  0  0  0
   30.6374   12.8781   21.7482 H   0  0  0  0  0  0  0  0  0  0  0  0
   31.2193   11.8423   23.0191 H   0  0  0  0  0  0  0  0  0  0  0  0
   28.4919   15.0038   24.1060 H   0  0  0  0  0  0  0  0  0  0  0  0
   29.8684   12.9056   24.7060 H   0  0  0  0  0  0  0  0  0  0  0  0
   29.4806   10.4886   22.7815 H   0  0  0  0  0  0  0  0  0  0  0  0
   31.8223   15.6519   25.7239 H   0  0  0  0  0  0  0  0  0  0  0  0
   30.2106   14.9685   25.9188 H   0  0  0  0  0  0  0  0  0  0  0  0
   31.6389   13.9153   26.1099 H   0  0  0  0  0  0  0  0  0  0  0  0
   34.0188   14.0403   24.6872 H   0  0  0  0  0  0  0  0  0  0  0  0
   36.0517   15.2930   25.3662 H   0  0  0  0  0  0  0  0  0  0  0  0
   36.3720   17.6367   24.6200 H   0  0  0  0  0  0  0  0  0  0  0  0
   34.6741   18.7311   23.1813 H   0  0  0  0  0  0  0  0  0  0  0  0
   32.6317   17.4894   22.5030 H   0  0  0  0  0  0  0  0  0  0  0  0
   29.5612   16.5533   22.6032 H   0  0  0  0  0  0  0  0  0  0  0  0
   28.9094   16.3985   20.9560 H   0  0  0  0  0  0  0  0  0  0  0  0
   27.7923   16.4736   22.3342 H   0  0  0  0  0  0  0  0  0  0  0  0
   23.9153   11.9139   16.3427 H   0  0  0  0  0  0  0  0  0  0  0  0
   23.9700   13.8494   18.0273 H   0  0  0  0  0  0  0  0  0  0  0  0
   23.0879   12.4356   18.7188 H   0  0  0  0  0  0  0  0  0  0  0  0
   26.0989   12.4545   25.0001 H   0  0  0  0  0  0  0  0  0  0  0  0
   27.7358   12.5490   25.6197 H   0  0  0  0  0  0  0  0  0  0  0  0
   26.8272   14.0275   25.3825 H   0  0  0  0  0  0  0  0  0  0  0  0
  6  1  2  0
  2  3  2  0
  4  5  2  0
  1  8  1  0
  2  1  1  0
  7  2  1  0
  7  9  1  0
 10  3  1  0
  4  3  1  0
 12  4  1  0
 10 11  1  0
 14  9  1  0
  9  8  2  0
  8 15  1  0
 13 14  2  0
 16 13  1  0
 15 16  2  0
 11 17  1  0
 12 11  2  0
 20 12  1  0
 17 18  2  0
 18 19  1  0
 19 20  2  0
 10 25  1  0
 25 21  1  0
  7 26  1  0
 26 21  1  0
 25 22  1  0
 26 23  1  0
 22 24  1  0
 23 24  1  0
 24 27  1  0
 27 28  1  0
 27 29  1  0
 28 30  2  0
 28 31  1  0
 32 31  2  0
 36 31  1  0
 32 33  1  0
 33 34  2  0
 34 35  1  0
 35 36  2  0
 23 37  1  0
 37 38  1  0
  5 39  1  0
  6  5  1  0
  6 41  1  0
 39 40  1  0
 40 41  1  0
 39 42  2  0
 26 43  1  6
 13 44  1  0
 14 45  1  0
 15 46  1  0
 16 47  1  0
 17 48  1  0
 18 49  1  0
 19 50  1  0
 20 51  1  0
 22 52  1  0
 22 53  1  0
 23 54  1  1
 24 55  1  6
 25 56  1  6
 29 57  1  0
 29 58  1  0
 29 59  1  0
 32 60  1  0
 33 61  1  0
 34 62  1  0
 35 63  1  0
 36 64  1  0
 38 65  1  0
 38 66  1  0
 38 67  1  0
 40 68  1  0
 41 69  1  0
 41 70  1  0
 43 71  1  0
 43 72  1  0
 43 73  1  0
M  END
> <Uni-Dock RESULT> 
ENERGY=   -4.423  LOWER_BOUND=    0.000  UPPER_BOUND=    0.000
INTER + INTRA:          -4.423
INTER:                  -4.423
INTRA:                   0.000
UNBOUND:                 0.000

$$$$

     RDKit          3D

 73 81  0  0  0  0  0  0  0  0999 V2000
   22.3038    7.5956   30.9566 C   0  0  0  0  0  0  0  0  0  0  0  0
   23.6147    7.9568   31.1830 C   0  0  0  0  0  0  0  0  0  0  0  0
   24.7263    6.8717   31.3048 C   0  0  0  0  0  0  0  0  0  0  0  0
   24.4270    5.5235   31.1991 C   0  0  0  0  0  0  0  0  0  0  0  0
   23.0669    5.2379   31.0047 C   0  0  0  0  0  0  0  0  0  0  0  0
   22.0334    6.2188   30.8868 C   0  0  0  0  0  0  0  0  0  0  0  0
   23.7275    9.3225   31.2377 N   0  0  0  0  0  0  0  0  0  0  0  0
   21.5739    8.8070   30.8076 C   0  0  0  0  0  0  0  0  0  0  0  0
   22.4880    9.8731   30.9103 C   0  0  0  0  0  0  0  0  0  0  0  0
   26.0600    7.0362   31.5161 N   0  0  0  0  0  0  0  0  0  0  0  0
   26.6758    5.7935   31.5129 C   0  0  0  0  0  0  0  0  0  0  0  0
   25.6702    4.8303   31.3254 C   0  0  0  0  0  0  0  0  0  0  0  0
   20.7157   11.4430   30.4065 C   0  0  0  0  0  0  0  0  0  0  0  0
   22.0656   11.1961   30.6776 C   0  0  0  0  0  0  0  0  0  0  0  0
   20.2162    9.0873   30.5360 C   0  0  0  0  0  0  0  0  0  0  0  0
   19.7977   10.4052   30.3479 C   0  0  0  0  0  0  0  0  0  0  0  0
   28.0281    5.4382   31.6688 C   0  0  0  0  0  0  0  0  0  0  0  0
   28.3672    4.0837   31.6350 C   0  0  0  0  0  0  0  0  0  0  0  0
   27.3927    3.1110   31.4541 C   0  0  0  0  0  0  0  0  0  0  0  0
   26.0501    3.4707   31.2986 C   0  0  0  0  0  0  0  0  0  0  0  0
   25.7999    9.2203   32.4040 O   0  0  0  0  0  0  0  0  0  0  0  0
   27.6310    8.8794   30.7452 C   0  0  0  0  0  0  0  0  0  0  0  0
   25.7451   10.4243   30.1828 C   0  0  2  0  0  0  0  0  0  0  0  0
   27.2602   10.3407   30.4724 C   0  0  2  0  0  0  0  0  0  0  0  0
   26.7263    8.2920   31.8359 C   0  0  2  0  0  0  0  0  0  0  0  0
   24.9963   10.0252   31.5007 C   0  0  1  0  0  0  0  0  0  0  0  0
   28.1236   11.0526   29.4978 N   0  0  0  0  0  0  0  0  0  0  0  0
   28.5218   10.4595   28.2958 C   0  0  0  0  0  0  0  0  0  0  0  0
   28.3767   12.4625   29.7955 C   0  0  0  0  0  0  0  0  0  0  0  0
   28.1026    9.3887   27.8722 O   0  0  0  0  0  0  0  0  0  0  0  0
   29.5457   11.1377   27.4664 C   0  0  0  0  0  0  0  0  0  0  0  0
   30.7944   11.4710   28.0048 C   0  0  0  0  0  0  0  0  0  0  0  0
   31.7505   12.0911   27.1997 C   0  0  0  0  0  0  0  0  0  0  0  0
   31.4651   12.3605   25.8599 C   0  0  0  0  0  0  0  0  0  0  0  0
   30.2304   12.0008   25.3171 C   0  0  0  0  0  0  0  0  0  0  0  0
   29.2700   11.3817   26.1175 C   0  0  0  0  0  0  0  0  0  0  0  0
   25.4264    9.5024   29.1291 O   0  0  0  0  0  0  0  0  0  0  0  0
   24.9746   10.1313   27.9390 C   0  0  0  0  0  0  0  0  0  0  0  0
   22.4274    3.9205   30.8659 C   0  0  0  0  0  0  0  0  0  0  0  0
   21.0810    4.1376   30.6708 N   0  0  0  0  0  0  0  0  0  0  0  0
   20.7232    5.5278   30.6524 C   0  0  0  0  0  0  0  0  0  0  0  0
   22.9481    2.8243   30.9121 O   0  0  0  0  0  0  0  0  0  0  0  0
   24.7958   11.2805   32.3847 C   0  0  0  0  0  0  0  0  0  0  0  0
   20.3821   12.4641   30.2350 H   0  0  0  0  0  0  0  0  0  0  0  0
   22.7491   12.0343   30.6844 H   0  0  0  0  0  0  0  0  0  0  0  0
   19.4938    8.2809   30.4542 H   0  0  0  0  0  0  0  0  0  0  0  0
   18.7526   10.6142   30.1351 H   0  0  0  0  0  0  0  0  0  0  0  0
   28.8025    6.1859   31.8043 H   0  0  0  0  0  0  0  0  0  0  0  0
   29.4070    3.7871   31.7482 H   0  0  0  0  0  0  0  0  0  0  0  0
   27.6694    2.0601   31.4287 H   0  0  0  0  0  0  0  0  0  0  0  0
   25.3064    2.6923   31.1557 H   0  0  0  0  0  0  0  0  0  0  0  0
   27.5828    8.2539   29.8491 H   0  0  0  0  0  0  0  0  0  0  0  0
   28.6776    8.8294   31.0725 H   0  0  0  0  0  0  0  0  0  0  0  0
   25.4544   11.4396   29.8841 H   0  0  0  0  0  0  0  0  0  0  0  0
   27.4557   10.8770   31.4122 H   0  0  0  0  0  0  0  0  0  0  0  0
   27.3775    8.0349   32.6820 H   0  0  0  0  0  0  0  0  0  0  0  0
   28.7263   13.0232   28.9271 H   0  0  0  0  0  0  0  0  0  0  0  0
   27.4456   12.9279   30.1326 H   0  0  0  0  0  0  0  0  0  0  0  0
   29.1195   12.5179   30.5970 H   0  0  0  0  0  0  0  0  0  0  0  0
   31.0275   11.2375   29.0402 H   0  0  0  0  0  0  0  0  0  0  0  0
   32.7218   12.3544   27.6103 H   0  0  0  0  0  0  0  0  0  0  0  0
   32.2137   12.8369   25.2309 H   0  0  0  0  0  0  0  0  0  0  0  0
   30.0214   12.1917   24.2676 H   0  0  0  0  0  0  0  0  0  0  0  0
   28.3152   11.0813   25.6921 H   0  0  0  0  0  0  0  0  0  0  0  0
   25.7174   10.8425   27.5653 H   0  0  0  0  0  0  0  0  0  0  0  0
   24.8141    9.3598   27.1811 H   0  0  0  0  0  0  0  0  0  0  0  0
   24.0256   10.6451   28.1188 H   0  0  0  0  0  0  0  0  0  0  0  0
   20.4466    3.3617   30.5404 H   0  0  0  0  0  0  0  0  0  0  0  0
   20.2985    5.7736   29.6756 H   0  0  0  0  0  0  0  0  0  0  0  0
   20.0079    5.7224   31.4555 H   0  0  0  0  0  0  0  0  0  0  0  0
   24.1058   11.0744   33.2117 H   0  0  0  0  0  0  0  0  0  0  0  0
   25.7411   11.5901   32.8479 H   0  0  0  0  0  0  0  0  0  0  0  0
   24.4261   12.1457   31.8329 H   0  0  0  0  0  0  0  0  0  0  0  0
  6  1  2  0
  2  3  2  0
  4  5  2  0
  1  8  1  0
  2  1  1  0
  7  2  1  0
  7  9  1  0
 10  3  1  0
  4  3  1  0
 12  4  1  0
 10 11  1  0
 14  9  1  0
  9  8  2  0
  8 15  1  0
 13 14  2  0
 16 13  1  0
 15 16  2  0
 11 17  1  0
 12 11  2  0
 20 12  1  0
 17 18  2  0
 18 19  1  0
 19 20  2  0
 10 25  1  0
 25 21  1  0
  7 26  1  0
 26 21  1  0
 25 22  1  0
 26 23  1  0
 22 24  1  0
 23 24  1  0
 24 27  1  0
 27 28  1  0
 27 29  1  0
 28 30  2  0
 28 31  1  0
 32 31  2  0
 36 31  1  0
 32 33  1  0
 33 34  2  0
 34 35  1  0
 35 36  2  0
 23 37  1  0
 37 38  1  0
  5 39  1  0
  6  5  1  0
  6 41  1  0
 39 40  1  0
 40 41  1  0
 39 42  2  0
 26 43  1  6
 13 44  1  0
 14 45  1  0
 15 46  1  0
 16 47  1  0
 17 48  1  0
 18 49  1  0
 19 50  1  0
 20 51  1  0
 22 52  1  0
 22 53  1  0
 23 54  1  1
 24 55  1  6
 25 56  1  6
 29 57  1  0
 29 58  1  0
 29 59  1  0
 32 60  1  0
 33 61  1  0
 34 62  1  0
 35 63  1  0
 36 64  1  0
 38 65  1  0
 38 66  1  0
 38 67  1  0
 40 68  1  0
 41 69  1  0
 41 70  1  0
 43 71  1  0
 43 72  1  0
 43 73  1  0
M  END
> <Uni-Dock RESULT> 
ENERGY=   -4.292  LOWER_BOUND=    8.671  UPPER_BOUND=   10.994
INTER + INTRA:          -4.292
INTER:                  -4.292
INTRA:                   0.000
UNBOUND:                 0.000

$$$$

     RDKit          3D

 73 81  0  0  0  0  0  0  0  0999 V2000
   22.3106    7.6006   30.9603 C   0  0  0  0  0  0  0  0  0  0  0  0
   23.6218    7.9604   31.1874 C   0  0  0  0  0  0  0  0  0  0  0  0
   24.7318    6.8740   31.3116 C   0  0  0  0  0  0  0  0  0  0  0  0
   24.4309    5.5261   31.2074 C   0  0  0  0  0  0  0  0  0  0  0  0
   23.0706    5.2420   31.0122 C   0  0  0  0  0  0  0  0  0  0  0  0
   22.0385    6.2241   30.8921 C   0  0  0  0  0  0  0  0  0  0  0  0
   23.7363    9.3260   31.2403 N   0  0  0  0  0  0  0  0  0  0  0  0
   21.5824    8.8127   30.8091 C   0  0  0  0  0  0  0  0  0  0  0  0
   22.4978    9.8777   30.9112 C   0  0  0  0  0  0  0  0  0  0  0  0
   26.0657    7.0371   31.5237 N   0  0  0  0  0  0  0  0  0  0  0  0
   26.6798    5.7936   31.5228 C   0  0  0  0  0  0  0  0  0  0  0  0
   25.6732    4.8315   31.3357 C   0  0  0  0  0  0  0  0  0  0  0  0
   20.7279   11.4493   30.4038 C   0  0  0  0  0  0  0  0  0  0  0  0
   22.0773   11.2010   30.6764 C   0  0  0  0  0  0  0  0  0  0  0  0
   20.2252    9.0944   30.5361 C   0  0  0  0  0  0  0  0  0  0  0  0
   19.8086   10.4126   30.3458 C   0  0  0  0  0  0  0  0  0  0  0  0
   28.0315    5.4368   31.6803 C   0  0  0  0  0  0  0  0  0  0  0  0
   28.3689    4.0818   31.6485 C   0  0  0  0  0  0  0  0  0  0  0  0
   27.3933    3.1101   31.4681 C   0  0  0  0  0  0  0  0  0  0  0  0
   26.0513    3.4713   31.3110 C   0  0  0  0  0  0  0  0  0  0  0  0
   25.8076    9.2227   32.4085 O   0  0  0  0  0  0  0  0  0  0  0  0
   27.6396    8.8773   30.7517 C   0  0  0  0  0  0  0  0  0  0  0  0
   25.7562   10.4238   30.1857 C   0  0  2  0  0  0  0  0  0  0  0  0
   27.2710   10.3387   30.4767 C   0  0  2  0  0  0  0  0  0  0  0  0
   26.7333    8.2925   31.8425 C   0  0  2  0  0  0  0  0  0  0  0  0
   25.0058   10.0275   31.5035 C   0  0  1  0  0  0  0  0  0  0  0  0
   28.1361   11.0482   29.5019 N   0  0  0  0  0  0  0  0  0  0  0  0
   28.5345   10.4530   28.3010 C   0  0  0  0  0  0  0  0  0  0  0  0
   28.3908   12.4581   29.7979 C   0  0  0  0  0  0  0  0  0  0  0  0
   28.1143    9.3821   27.8785 O   0  0  0  0  0  0  0  0  0  0  0  0
   29.5600   11.1287   27.4716 C   0  0  0  0  0  0  0  0  0  0  0  0
   30.8087   11.4611   28.0106 C   0  0  0  0  0  0  0  0  0  0  0  0
   31.7663   12.0790   27.2055 C   0  0  0  0  0  0  0  0  0  0  0  0
   31.4823   12.3469   25.8651 C   0  0  0  0  0  0  0  0  0  0  0  0
   30.2476   11.9881   25.3218 C   0  0  0  0  0  0  0  0  0  0  0  0
   29.2857   11.3713   26.1222 C   0  0  0  0  0  0  0  0  0  0  0  0
   25.4372    9.5009   29.1329 O   0  0  0  0  0  0  0  0  0  0  0  0
   24.9872   10.1289   27.9416 C   0  0  0  0  0  0  0  0  0  0  0  0
   22.4295    3.9252   30.8746 C   0  0  0  0  0  0  0  0  0  0  0  0
   21.0836    4.1438   30.6781 N   0  0  0  0  0  0  0  0  0  0  0  0
   20.7276    5.5344   30.6576 C   0  0  0  0  0  0  0  0  0  0  0  0
   22.9489    2.8284   30.9227 O   0  0  0  0  0  0  0  0  0  0  0  0
   24.8062   11.2841   32.3856 C   0  0  0  0  0  0  0  0  0  0  0  0
   20.3958   12.4706   30.2307 H   0  0  0  0  0  0  0  0  0  0  0  0
   22.7619   12.0383   30.6826 H   0  0  0  0  0  0  0  0  0  0  0  0
   19.5019    8.2888   30.4547 H   0  0  0  0  0  0  0  0  0  0  0  0
   18.7640   10.6227   30.1318 H   0  0  0  0  0  0  0  0  0  0  0  0
   28.8068    6.1836   31.8155 H   0  0  0  0  0  0  0  0  0  0  0  0
   29.4083    3.7840   31.7630 H   0  0  0  0  0  0  0  0  0  0  0  0
   27.6687    2.0589   31.4443 H   0  0  0  0  0  0  0  0  0  0  0  0
   25.3067    2.6937   31.1685 H   0  0  0  0  0  0  0  0  0  0  0  0
   27.5914    8.2506   29.8564 H   0  0  0  0  0  0  0  0  0  0  0  0
   28.6859    8.8264   31.0800 H   0  0  0  0  0  0  0  0  0  0  0  0
   25.4670   11.4391   29.8854 H   0  0  0  0  0  0  0  0  0  0  0  0
   27.4664   10.8760   31.4159 H   0  0  0  0  0  0  0  0  0  0  0  0
   27.3834    8.0357   32.6895 H   0  0  0  0  0  0  0  0  0  0  0  0
   28.7418   13.0172   28.9291 H   0  0  0  0  0  0  0  0  0  0  0  0
   27.4600   12.9252   30.1336 H   0  0  0  0  0  0  0  0  0  0  0  0
   29.1329   12.5136   30.6000 H   0  0  0  0  0  0  0  0  0  0  0  0
   31.0406   11.2287   29.0465 H   0  0  0  0  0  0  0  0  0  0  0  0
   32.7375   12.3415   27.6165 H   0  0  0  0  0  0  0  0  0  0  0  0
   32.2320   12.8215   25.2361 H   0  0  0  0  0  0  0  0  0  0  0  0
   30.0397   12.1779   24.2718 H   0  0  0  0  0  0  0  0  0  0  0  0
   28.3309   11.0715   25.6963 H   0  0  0  0  0  0  0  0  0  0  0  0
   25.7313   10.8385   27.5677 H   0  0  0  0  0  0  0  0  0  0  0  0
   24.8264    9.3565   27.1846 H   0  0  0  0  0  0  0  0  0  0  0  0
   24.0387   10.6441   28.1200 H   0  0  0  0  0  0  0  0  0  0  0  0
   20.4483    3.3686   30.5482 H   0  0  0  0  0  0  0  0  0  0  0  0
   20.3041    5.7794   29.6801 H   0  0  0  0  0  0  0  0  0  0  0  0
   20.0119    5.7310   31.4598 H   0  0  0  0  0  0  0  0  0  0  0  0
   24.1152   11.0801   33.2123 H   0  0  0  0  0  0  0  0  0  0  0  0
   25.7514   11.5932   32.8493 H   0  0  0  0  0  0  0  0  0  0  0  0
   24.4380   12.1491   31.8324 H   0  0  0  0  0  0  0  0  0  0  0  0
  6  1  2  0
  2  3  2  0
  4  5  2  0
  1  8  1  0
  2  1  1  0
  7  2  1  0
  7  9  1  0
 10  3  1  0
  4  3  1  0
 12  4  1  0
 10 11  1  0
 14  9  1  0
  9  8  2  0
  8 15  1  0
 13 14  2  0
 16 13  1  0
 15 16  2  0
 11 17  1  0
 12 11  2  0
 20 12  1  0
 17 18  2  0
 18 19  1  0
 19 20  2  0
 10 25  1  0
 25 21  1  0
  7 26  1  0
 26 21  1  0
 25 22  1  0
 26 23  1  0
 22 24  1  0
 23 24  1  0
 24 27  1  0
 27 28  1  0
 27 29  1  0
 28 30  2  0
 28 31  1  0
 32 31  2  0
 36 31  1  0
 32 33  1  0
 33 34  2  0
 34 35  1  0
 35 36  2  0
 23 37  1  0
 37 38  1  0
  5 39  1  0
  6  5  1  0
  6 41  1  0
 39 40  1  0
 40 41  1  0
 39 42  2  0
 26 43  1  6
 13 44  1  0
 14 45  1  0
 15 46  1  0
 16 47  1  0
 17 48  1  0
 18 49  1  0
 19 50  1  0
 20 51  1  0
 22 52  1  0
 22 53  1  0
 23 54  1  1
 24 55  1  6
 25 56  1  6
 29 57  1  0
 29 58  1  0
 29 59  1  0
 32 60  1  0
 33 61  1  0
 34 62  1  0
 35 63  1  0
 36 64  1  0
 38 65  1  0
 38 66  1  0
 38 67  1  0
 40 68  1  0
 41 69  1  0
 41 70  1  0
 43 71  1  0
 43 72  1  0
 43 73  1  0
M  END
> <Uni-Dock RESULT> 
ENERGY=   -4.292  LOWER_BOUND=    8.672  UPPER_BOUND=   10.996
INTER + INTRA:          -4.292
INTER:                  -4.292
INTRA:                   0.000
UNBOUND:                 0.000

$$$$

     RDKit          3D

 73 81  0  0  0  0  0  0  0  0999 V2000
   29.5491    3.4826   31.5057 C   0  0  0  0  0  0  0  0  0  0  0  0
   30.5523    4.4182   31.6417 C   0  0  0  0  0  0  0  0  0  0  0  0
   32.0487    3.9842   31.6237 C   0  0  0  0  0  0  0  0  0  0  0  0
   32.4080    2.6542   31.4809 C   0  0  0  0  0  0  0  0  0  0  0  0
   31.3291    1.7621   31.3842 C   0  0  0  0  0  0  0  0  0  0  0  0
   29.9505    2.1410   31.3951 C   0  0  0  0  0  0  0  0  0  0  0  0
   30.0163    5.6759   31.7495 N   0  0  0  0  0  0  0  0  0  0  0  0
   28.3263    4.2079   31.4716 C   0  0  0  0  0  0  0  0  0  0  0  0
   28.6390    5.5786   31.5488 C   0  0  0  0  0  0  0  0  0  0  0  0
   33.1628    4.7570   31.7338 N   0  0  0  0  0  0  0  0  0  0  0  0
   34.2860    3.9508   31.6242 C   0  0  0  0  0  0  0  0  0  0  0  0
   33.8368    2.6280   31.4746 C   0  0  0  0  0  0  0  0  0  0  0  0
   26.2995    6.1299   31.2620 C   0  0  0  0  0  0  0  0  0  0  0  0
   27.6262    6.5472   31.4117 C   0  0  0  0  0  0  0  0  0  0  0  0
   26.9770    3.8163   31.3237 C   0  0  0  0  0  0  0  0  0  0  0  0
   25.9741    4.7822   31.2304 C   0  0  0  0  0  0  0  0  0  0  0  0
   35.6549    4.2739   31.6540 C   0  0  0  0  0  0  0  0  0  0  0  0
   36.5846    3.2389   31.5309 C   0  0  0  0  0  0  0  0  0  0  0  0
   36.1677    1.9222   31.3851 C   0  0  0  0  0  0  0  0  0  0  0  0
   34.8053    1.6075   31.3552 C   0  0  0  0  0  0  0  0  0  0  0  0
   31.9929    6.5592   32.7387 O   0  0  0  0  0  0  0  0  0  0  0  0
   33.6073    7.1247   30.9236 C   0  0  0  0  0  0  0  0  0  0  0  0
   31.1743    7.6005   30.5866 C   0  0  2  0  0  0  0  0  0  0  0  0
   32.5713    8.2397   30.7488 C   0  0  2  0  0  0  0  0  0  0  0  0
   33.1891    6.1779   32.0558 C   0  0  2  0  0  0  0  0  0  0  0  0
   30.8258    6.8928   31.9410 C   0  0  1  0  0  0  0  0  0  0  0  0
   32.9056    9.2766   29.7412 N   0  0  0  0  0  0  0  0  0  0  0  0
   33.4219    8.9437   28.4850 C   0  0  0  0  0  0  0  0  0  0  0  0
   32.4947   10.6388   30.0816 C   0  0  0  0  0  0  0  0  0  0  0  0
   33.5163    7.8026   28.0482 O   0  0  0  0  0  0  0  0  0  0  0  0
   33.9265   10.0261   27.6076 C   0  0  0  0  0  0  0  0  0  0  0  0
   34.9171   10.9069   28.0581 C   0  0  0  0  0  0  0  0  0  0  0  0
   35.3916   11.9062   27.2075 C   0  0  0  0  0  0  0  0  0  0  0  0
   34.8903   12.0124   25.9089 C   0  0  0  0  0  0  0  0  0  0  0  0
   33.9240   11.1149   25.4517 C   0  0  0  0  0  0  0  0  0  0  0  0
   33.4448   10.1145   26.2979 C   0  0  0  0  0  0  0  0  0  0  0  0
   31.2288    6.6396   29.5210 O   0  0  0  0  0  0  0  0  0  0  0  0
   30.4266    6.9843   28.4013 C   0  0  0  0  0  0  0  0  0  0  0  0
   31.3720    0.2991   31.2374 C   0  0  0  0  0  0  0  0  0  0  0  0
   30.0694   -0.1431   31.1618 N   0  0  0  0  0  0  0  0  0  0  0  0
   29.1017    0.9148   31.2360 C   0  0  0  0  0  0  0  0  0  0  0  0
   32.3476   -0.4227   31.1913 O   0  0  0  0  0  0  0  0  0  0  0  0
   30.1433    7.9037   32.8947 C   0  0  0  0  0  0  0  0  0  0  0  0
   25.5118    6.8739   31.1649 H   0  0  0  0  0  0  0  0  0  0  0  0
   27.8343    7.6085   31.4015 H   0  0  0  0  0  0  0  0  0  0  0  0
   26.7129    2.7648   31.2637 H   0  0  0  0  0  0  0  0  0  0  0  0
   24.9383    4.4748   31.1125 H   0  0  0  0  0  0  0  0  0  0  0  0
   35.9973    5.2979   31.7605 H   0  0  0  0  0  0  0  0  0  0  0  0
   37.6476    3.4667   31.5461 H   0  0  0  0  0  0  0  0  0  0  0  0
   36.9011    1.1256   31.2895 H   0  0  0  0  0  0  0  0  0  0  0  0
   34.5036    0.5709   31.2374 H   0  0  0  0  0  0  0  0  0  0  0  0
   33.7751    6.5522   30.0067 H   0  0  0  0  0  0  0  0  0  0  0  0
   34.5805    7.5728   31.1627 H   0  0  0  0  0  0  0  0  0  0  0  0
   30.4152    8.3599   30.3590 H   0  0  0  0  0  0  0  0  0  0  0  0
   32.5788    8.8027   31.6932 H   0  0  0  0  0  0  0  0  0  0  0  0
   33.9601    6.2559   32.8340 H   0  0  0  0  0  0  0  0  0  0  0  0
   32.4584   11.3000   29.2143 H   0  0  0  0  0  0  0  0  0  0  0  0
   31.4898   10.6101   30.5137 H   0  0  0  0  0  0  0  0  0  0  0  0
   33.1955   11.0357   30.8222 H   0  0  0  0  0  0  0  0  0  0  0  0
   35.3274   10.8084   29.0594 H   0  0  0  0  0  0  0  0  0  0  0  0
   36.1594   12.5949   27.5499 H   0  0  0  0  0  0  0  0  0  0  0  0
   35.2662   12.7867   25.2439 H   0  0  0  0  0  0  0  0  0  0  0  0
   33.5535   11.1872   24.4323 H   0  0  0  0  0  0  0  0  0  0  0  0
   32.7074    9.4008   25.9377 H   0  0  0  0  0  0  0  0  0  0  0  0
   30.7111    7.9623   28.0017 H   0  0  0  0  0  0  0  0  0  0  0  0
   30.5770    6.2298   27.6244 H   0  0  0  0  0  0  0  0  0  0  0  0
   29.3688    6.9902   28.6804 H   0  0  0  0  0  0  0  0  0  0  0  0
   29.8637   -1.1260   31.0477 H   0  0  0  0  0  0  0  0  0  0  0  0
   28.5229    0.9339   30.3089 H   0  0  0  0  0  0  0  0  0  0  0  0
   28.4567    0.7478   32.1022 H   0  0  0  0  0  0  0  0  0  0  0  0
   29.7105    7.3950   33.7645 H   0  0  0  0  0  0  0  0  0  0  0  0
   30.8715    8.6209   33.2938 H   0  0  0  0  0  0  0  0  0  0  0  0
   29.3618    8.4940   32.4147 H   0  0  0  0  0  0  0  0  0  0  0  0
  6  1  2  0
  2  3  2  0
  4  5  2  0
  1  8  1  0
  2  1  1  0
  7  2  1  0
  7  9  1  0
 10  3  1  0
  4  3  1  0
 12  4  1  0
 10 11  1  0
 14  9  1  0
  9  8  2  0
  8 15  1  0
 13 14  2  0
 16 13  1  0
 15 16  2  0
 11 17  1  0
 12 11  2  0
 20 12  1  0
 17 18  2  0
 18 19  1  0
 19 20  2  0
 10 25  1  0
 25 21  1  0
  7 26  1  0
 26 21  1  0
 25 22  1  0
 26 23  1  0
 22 24  1  0
 23 24  1  0
 24 27  1  0
 27 28  1  0
 27 29  1  0
 28 30  2  0
 28 31  1  0
 32 31  2  0
 36 31  1  0
 32 33  1  0
 33 34  2  0
 34 35  1  0
 35 36  2  0
 23 37  1  0
 37 38  1  0
  5 39  1  0
  6  5  1  0
  6 41  1  0
 39 40  1  0
 40 41  1  0
 39 42  2  0
 26 43  1  6
 13 44  1  0
 14 45  1  0
 15 46  1  0
 16 47  1  0
 17 48  1  0
 18 49  1  0
 19 50  1  0
 20 51  1  0
 22 52  1  0
 22 53  1  0
 23 54  1  1
 24 55  1  6
 25 56  1  6
 29 57  1  0
 29 58  1  0
 29 59  1  0
 32 60  1  0
 33 61  1  0
 34 62  1  0
 35 63  1  0
 36 64  1  0
 38 65  1  0
 38 66  1  0
 38 67  1  0
 40 68  1  0
 41 69  1  0
 41 70  1  0
 43 71  1  0
 43 72  1  0
 43 73  1  0
M  END
> <Uni-Dock RESULT> 
ENERGY=   -4.251  LOWER_BOUND=   10.813  UPPER_BOUND=   12.987
INTER + INTRA:          -4.251
INTER:                  -4.251
INTRA:                   0.000
UNBOUND:                 0.000

$$$$

     RDKit          3D

 73 81  0  0  0  0  0  0  0  0999 V2000
   30.4483    9.9968   28.3278 C   0  0  0  0  0  0  0  0  0  0  0  0
   29.7452    9.4720   29.3911 C   0  0  0  0  0  0  0  0  0  0  0  0
   28.1887    9.5364   29.4214 C   0  0  0  0  0  0  0  0  0  0  0  0
   27.4752   10.1276   28.3918 C   0  0  0  0  0  0  0  0  0  0  0  0
   28.2651   10.6685   27.3657 C   0  0  0  0  0  0  0  0  0  0  0  0
   29.6930   10.6162   27.3182 C   0  0  0  0  0  0  0  0  0  0  0  0
   30.6069    8.9123   30.2993 N   0  0  0  0  0  0  0  0  0  0  0  0
   31.8178    9.6959   28.5649 C   0  0  0  0  0  0  0  0  0  0  0  0
   31.8928    8.9541   29.7594 C   0  0  0  0  0  0  0  0  0  0  0  0
   27.3335    9.0696   30.3708 N   0  0  0  0  0  0  0  0  0  0  0  0
   26.0297    9.3093   29.9632 C   0  0  0  0  0  0  0  0  0  0  0  0
   26.0947    9.9798   28.7303 C   0  0  0  0  0  0  0  0  0  0  0  0
   34.2741    8.6667   29.4330 C   0  0  0  0  0  0  0  0  0  0  0  0
   33.1206    8.4087   30.1811 C   0  0  0  0  0  0  0  0  0  0  0  0
   33.0001    9.9433   27.8321 C   0  0  0  0  0  0  0  0  0  0  0  0
   34.2200    9.4342   28.2793 C   0  0  0  0  0  0  0  0  0  0  0  0
   24.8034    9.0014   30.5801 C   0  0  0  0  0  0  0  0  0  0  0  0
   23.6227    9.3801   29.9371 C   0  0  0  0  0  0  0  0  0  0  0  0
   23.6586   10.0466   28.7193 C   0  0  0  0  0  0  0  0  0  0  0  0
   24.8809   10.3489   28.1105 C   0  0  0  0  0  0  0  0  0  0  0  0
   29.0027    9.0090   32.0550 O   0  0  0  0  0  0  0  0  0  0  0  0
   27.5016    7.0256   31.8719 C   0  0  0  0  0  0  0  0  0  0  0  0
   29.9494    6.7497   31.4343 C   0  0  2  0  0  0  0  0  0  0  0  0
   28.7892    6.3695   32.3808 C   0  0  2  0  0  0  0  0  0  0  0  0
   27.7112    8.5319   31.6714 C   0  0  2  0  0  0  0  0  0  0  0  0
   30.1693    8.2961   31.5649 C   0  0  1  0  0  0  0  0  0  0  0  0
   28.6916    4.9240   32.7015 N   0  0  0  0  0  0  0  0  0  0  0  0
   28.0342    4.0246   31.8564 C   0  0  0  0  0  0  0  0  0  0  0  0
   29.4746    4.4824   33.8558 C   0  0  0  0  0  0  0  0  0  0  0  0
   27.6097    4.2976   30.7396 O   0  0  0  0  0  0  0  0  0  0  0  0
   27.7926    2.6414   32.3301 C   0  0  0  0  0  0  0  0  0  0  0  0
   27.1047    2.4064   33.5266 C   0  0  0  0  0  0  0  0  0  0  0  0
   26.8711    1.0953   33.9430 C   0  0  0  0  0  0  0  0  0  0  0  0
   27.3081    0.0263   33.1586 C   0  0  0  0  0  0  0  0  0  0  0  0
   27.9678    0.2625   31.9514 C   0  0  0  0  0  0  0  0  0  0  0  0
   28.2054    1.5712   31.5304 C   0  0  0  0  0  0  0  0  0  0  0  0
   29.5765    6.4105   30.0898 O   0  0  0  0  0  0  0  0  0  0  0  0
   30.3773    5.3871   29.5174 C   0  0  0  0  0  0  0  0  0  0  0  0
   27.8194   11.3659   26.1497 C   0  0  0  0  0  0  0  0  0  0  0  0
   28.9471   11.6959   25.4305 N   0  0  0  0  0  0  0  0  0  0  0  0
   30.1677   11.2685   26.0539 C   0  0  0  0  0  0  0  0  0  0  0  0
   26.6838   11.6265   25.8069 O   0  0  0  0  0  0  0  0  0  0  0  0
   31.1529    8.5847   32.7253 C   0  0  0  0  0  0  0  0  0  0  0  0
   35.2269    8.2555   29.7592 H   0  0  0  0  0  0  0  0  0  0  0  0
   33.2074    7.7809   31.0575 H   0  0  0  0  0  0  0  0  0  0  0  0
   32.9658   10.5142   26.9093 H   0  0  0  0  0  0  0  0  0  0  0  0
   35.1255    9.6244   27.7090 H   0  0  0  0  0  0  0  0  0  0  0  0
   24.7576    8.4754   31.5280 H   0  0  0  0  0  0  0  0  0  0  0  0
   22.6638    9.1474   30.3935 H   0  0  0  0  0  0  0  0  0  0  0  0
   22.7328   10.3353   28.2283 H   0  0  0  0  0  0  0  0  0  0  0  0
   24.8835   10.8683   27.1568 H   0  0  0  0  0  0  0  0  0  0  0  0
   27.1334    6.5774   30.9445 H   0  0  0  0  0  0  0  0  0  0  0  0
   26.7012    6.8626   32.6054 H   0  0  0  0  0  0  0  0  0  0  0  0
   30.8716    6.2198   31.7054 H   0  0  0  0  0  0  0  0  0  0  0  0
   28.9878    6.8263   33.3610 H   0  0  0  0  0  0  0  0  0  0  0  0
   27.0354    9.0410   32.3715 H   0  0  0  0  0  0  0  0  0  0  0  0
   29.6394    3.4038   33.8689 H   0  0  0  0  0  0  0  0  0  0  0  0
   30.4569    4.9634   33.8247 H   0  0  0  0  0  0  0  0  0  0  0  0
   28.9505    4.7892   34.7659 H   0  0  0  0  0  0  0  0  0  0  0  0
   26.7404    3.2374   34.1245 H   0  0  0  0  0  0  0  0  0  0  0  0
   26.3390    0.9042   34.8713 H   0  0  0  0  0  0  0  0  0  0  0  0
   27.1188   -0.9954   33.4800 H   0  0  0  0  0  0  0  0  0  0  0  0
   28.2857   -0.5730   31.3328 H   0  0  0  0  0  0  0  0  0  0  0  0
   28.7003    1.7583   30.5802 H   0  0  0  0  0  0  0  0  0  0  0  0
   30.3461    4.4786   30.1261 H   0  0  0  0  0  0  0  0  0  0  0  0
   29.9845    5.1579   28.5231 H   0  0  0  0  0  0  0  0  0  0  0  0
   31.4112    5.7291   29.4127 H   0  0  0  0  0  0  0  0  0  0  0  0
   28.8722   12.1776   24.5452 H   0  0  0  0  0  0  0  0  0  0  0  0
   30.6766   10.5616   25.3935 H   0  0  0  0  0  0  0  0  0  0  0  0
   30.7914   12.1435   26.2535 H   0  0  0  0  0  0  0  0  0  0  0  0
   31.4804    9.6312   32.7138 H   0  0  0  0  0  0  0  0  0  0  0  0
   30.6699    8.4284   33.6980 H   0  0  0  0  0  0  0  0  0  0  0  0
   32.0366    7.9455   32.7147 H   0  0  0  0  0  0  0  0  0  0  0  0
  6  1  2  0
  2  3  2  0
  4  5  2  0
  1  8  1  0
  2  1  1  0
  7  2  1  0
  7  9  1  0
 10  3  1  0
  4  3  1  0
 12  4  1  0
 10 11  1  0
 14  9  1  0
  9  8  2  0
  8 15  1  0
 13 14  2  0
 16 13  1  0
 15 16  2  0
 11 17  1  0
 12 11  2  0
 20 12  1  0
 17 18  2  0
 18 19  1  0
 19 20  2  0
 10 25  1  0
 25 21  1  0
  7 26  1  0
 26 21  1  0
 25 22  1  0
 26 23  1  0
 22 24  1  0
 23 24  1  0
 24 27  1  0
 27 28  1  0
 27 29  1  0
 28 30  2  0
 28 31  1  0
 32 31  2  0
 36 31  1  0
 32 33  1  0
 33 34  2  0
 34 35  1  0
 35 36  2  0
 23 37  1  0
 37 38  1  0
  5 39  1  0
  6  5  1  0
  6 41  1  0
 39 40  1  0
 40 41  1  0
 39 42  2  0
 26 43  1  6
 13 44  1  0
 14 45  1  0
 15 46  1  0
 16 47  1  0
 17 48  1  0
 18 49  1  0
 19 50  1  0
 20 51  1  0
 22 52  1  0
 22 53  1  0
 23 54  1  1
 24 55  1  6
 25 56  1  6
 29 57  1  0
 29 58  1  0
 29 59  1  0
 32 60  1  0
 33 61  1  0
 34 62  1  0
 35 63  1  0
 36 64  1  0
 38 65  1  0
 38 66  1  0
 38 67  1  0
 40 68  1  0
 41 69  1  0
 41 70  1  0
 43 71  1  0
 43 72  1  0
 43 73  1  0
M  END
> <Uni-Dock RESULT> 
ENERGY=   -4.233  LOWER_BOUND=    8.867  UPPER_BOUND=   12.537
INTER + INTRA:          -4.233
INTER:                  -4.233
INTRA:                   0.000
UNBOUND:                 0.000

$$$$

     RDKit          3D

 73 81  0  0  0  0  0  0  0  0999 V2000
   28.0013   10.8830   26.9742 C   0  0  0  0  0  0  0  0  0  0  0  0
   29.1419   10.3508   27.5366 C   0  0  0  0  0  0  0  0  0  0  0  0
   30.5482   10.7177   26.9748 C   0  0  0  0  0  0  0  0  0  0  0  0
   30.6882   11.5754   25.8963 C   0  0  0  0  0  0  0  0  0  0  0  0
   29.4797   12.0452   25.3596 C   0  0  0  0  0  0  0  0  0  0  0  0
   28.1807   11.7232   25.8628 C   0  0  0  0  0  0  0  0  0  0  0  0
   28.8161    9.5469   28.5988 N   0  0  0  0  0  0  0  0  0  0  0  0
   26.9127   10.4268   27.7674 C   0  0  0  0  0  0  0  0  0  0  0  0
   27.4430    9.6568   28.8202 C   0  0  0  0  0  0  0  0  0  0  0  0
   31.7720   10.3030   27.4004 N   0  0  0  0  0  0  0  0  0  0  0  0
   32.7503   10.9154   26.6314 C   0  0  0  0  0  0  0  0  0  0  0  0
   32.0938   11.7098   25.6765 C   0  0  0  0  0  0  0  0  0  0  0  0
   25.2262    9.4162   29.7625 C   0  0  0  0  0  0  0  0  0  0  0  0
   26.6018    9.1747   29.8415 C   0  0  0  0  0  0  0  0  0  0  0  0
   25.5190   10.6513   27.7120 C   0  0  0  0  0  0  0  0  0  0  0  0
   24.6869   10.1346   28.7060 C   0  0  0  0  0  0  0  0  0  0  0  0
   34.1532   10.8284   26.6907 C   0  0  0  0  0  0  0  0  0  0  0  0
   34.9037   11.5583   25.7662 C   0  0  0  0  0  0  0  0  0  0  0  0
   34.2801   12.3490   24.8099 C   0  0  0  0  0  0  0  0  0  0  0  0
   32.8849   12.4321   24.7567 C   0  0  0  0  0  0  0  0  0  0  0  0
   30.9016    8.4022   28.5209 O   0  0  0  0  0  0  0  0  0  0  0  0
   32.6011    9.7602   29.7407 C   0  0  0  0  0  0  0  0  0  0  0  0
   30.2804    9.5946   30.6606 C   0  0  2  0  0  0  0  0  0  0  0  0
   31.7611    9.2300   30.9072 C   0  0  2  0  0  0  0  0  0  0  0  0
   32.0257    9.2769   28.4034 C   0  0  2  0  0  0  0  0  0  0  0  0
   29.8107    8.8025   29.3923 C   0  0  1  0  0  0  0  0  0  0  0  0
   32.2674    9.5535   32.2641 N   0  0  0  0  0  0  0  0  0  0  0  0
   32.7332   10.8306   32.5914 C   0  0  0  0  0  0  0  0  0  0  0  0
   32.0801    8.5080   33.2701 C   0  0  0  0  0  0  0  0  0  0  0  0
   32.6449   11.8141   31.8656 O   0  0  0  0  0  0  0  0  0  0  0  0
   33.4138   11.0339   33.8920 C   0  0  0  0  0  0  0  0  0  0  0  0
   34.5304   10.2650   34.2413 C   0  0  0  0  0  0  0  0  0  0  0  0
   35.1677   10.4875   35.4626 C   0  0  0  0  0  0  0  0  0  0  0  0
   34.7009   11.4846   36.3211 C   0  0  0  0  0  0  0  0  0  0  0  0
   33.6056   12.2700   35.9581 C   0  0  0  0  0  0  0  0  0  0  0  0
   32.9636   12.0514   34.7389 C   0  0  0  0  0  0  0  0  0  0  0  0
   30.1870   11.0086   30.4287 O   0  0  0  0  0  0  0  0  0  0  0  0
   29.4606   11.7037   31.4314 C   0  0  0  0  0  0  0  0  0  0  0  0
   29.2859   12.9516   24.2174 C   0  0  0  0  0  0  0  0  0  0  0  0
   27.9296   13.1459   24.0745 N   0  0  0  0  0  0  0  0  0  0  0  0
   27.1457   12.4420   25.0497 C   0  0  0  0  0  0  0  0  0  0  0  0
   30.1319   13.4536   23.5051 O   0  0  0  0  0  0  0  0  0  0  0  0
   29.2933    7.4055   29.8144 C   0  0  0  0  0  0  0  0  0  0  0  0
   24.5705    9.0383   30.5439 H   0  0  0  0  0  0  0  0  0  0  0  0
   26.9794    8.6347   30.6992 H   0  0  0  0  0  0  0  0  0  0  0  0
   25.0884   11.2407   26.9082 H   0  0  0  0  0  0  0  0  0  0  0  0
   23.6159   10.3142   28.6603 H   0  0  0  0  0  0  0  0  0  0  0  0
   34.6563   10.2208   27.4356 H   0  0  0  0  0  0  0  0  0  0  0  0
   35.9895   11.5098   25.7973 H   0  0  0  0  0  0  0  0  0  0  0  0
   34.8753   12.9130   24.0963 H   0  0  0  0  0  0  0  0  0  0  0  0
   32.4201   13.0592   24.0016 H   0  0  0  0  0  0  0  0  0  0  0  0
   32.6813   10.8511   29.7355 H   0  0  0  0  0  0  0  0  0  0  0  0
   33.6322    9.3984   29.8469 H   0  0  0  0  0  0  0  0  0  0  0  0
   29.6564    9.3206   31.5210 H   0  0  0  0  0  0  0  0  0  0  0  0
   31.8522    8.1351   30.8650 H   0  0  0  0  0  0  0  0  0  0  0  0
   32.7928    8.6420   27.9403 H   0  0  0  0  0  0  0  0  0  0  0  0
   32.1587    8.8835   34.2917 H   0  0  0  0  0  0  0  0  0  0  0  0
   31.0804    8.0783   33.1552 H   0  0  0  0  0  0  0  0  0  0  0  0
   32.8299    7.7291   33.1020 H   0  0  0  0  0  0  0  0  0  0  0  0
   34.9111    9.5070   33.5622 H   0  0  0  0  0  0  0  0  0  0  0  0
   36.0342    9.8940   35.7419 H   0  0  0  0  0  0  0  0  0  0  0  0
   35.2028   11.6626   37.2694 H   0  0  0  0  0  0  0  0  0  0  0  0
   33.2601   13.0604   36.6196 H   0  0  0  0  0  0  0  0  0  0  0  0
   32.1232   12.6757   34.4441 H   0  0  0  0  0  0  0  0  0  0  0  0
   29.9032   11.5422   32.4188 H   0  0  0  0  0  0  0  0  0  0  0  0
   29.4930   12.7722   31.2020 H   0  0  0  0  0  0  0  0  0  0  0  0
   28.4155   11.3801   31.4350 H   0  0  0  0  0  0  0  0  0  0  0  0
   27.5681   13.7491   23.3485 H   0  0  0  0  0  0  0  0  0  0  0  0
   26.5852   13.1662   25.6465 H   0  0  0  0  0  0  0  0  0  0  0  0
   26.4750   11.7492   24.5352 H   0  0  0  0  0  0  0  0  0  0  0  0
   28.7767    6.9089   28.9844 H   0  0  0  0  0  0  0  0  0  0  0  0
   30.1249    6.7459   30.0925 H   0  0  0  0  0  0  0  0  0  0  0  0
   28.6218    7.4325   30.6735 H   0  0  0  0  0  0  0  0  0  0  0  0
  6  1  2  0
  2  3  2  0
  4  5  2  0
  1  8  1  0
  2  1  1  0
  7  2  1  0
  7  9  1  0
 10  3  1  0
  4  3  1  0
 12  4  1  0
 10 11  1  0
 14  9  1  0
  9  8  2  0
  8 15  1  0
 13 14  2  0
 16 13  1  0
 15 16  2  0
 11 17  1  0
 12 11  2  0
 20 12  1  0
 17 18  2  0
 18 19  1  0
 19 20  2  0
 10 25  1  0
 25 21  1  0
  7 26  1  0
 26 21  1  0
 25 22  1  0
 26 23  1  0
 22 24  1  0
 23 24  1  0
 24 27  1  0
 27 28  1  0
 27 29  1  0
 28 30  2  0
 28 31  1  0
 32 31  2  0
 36 31  1  0
 32 33  1  0
 33 34  2  0
 34 35  1  0
 35 36  2  0
 23 37  1  0
 37 38  1  0
  5 39  1  0
  6  5  1  0
  6 41  1  0
 39 40  1  0
 40 41  1  0
 39 42  2  0
 26 43  1  6
 13 44  1  0
 14 45  1  0
 15 46  1  0
 16 47  1  0
 17 48  1  0
 18 49  1  0
 19 50  1  0
 20 51  1  0
 22 52  1  0
 22 53  1  0
 23 54  1  1
 24 55  1  6
 25 56  1  6
 29 57  1  0
 29 58  1  0
 29 59  1  0
 32 60  1  0
 33 61  1  0
 34 62  1  0
 35 63  1  0
 36 64  1  0
 38 65  1  0
 38 66  1  0
 38 67  1  0
 40 68  1  0
 41 69  1  0
 41 70  1  0
 43 71  1  0
 43 72  1  0
 43 73  1  0
M  END
> <Uni-Dock RESULT> 
ENERGY=   -4.130  LOWER_BOUND=    6.611  UPPER_BOUND=    8.904
INTER + INTRA:          -4.130
INTER:                  -4.130
INTRA:                   0.000
UNBOUND:                 0.000

$$$$

     RDKit          3D

 73 81  0  0  0  0  0  0  0  0999 V2000
   30.1083    8.4109   29.6817 C   0  0  0  0  0  0  0  0  0  0  0  0
   29.0180    8.1778   30.4924 C   0  0  0  0  0  0  0  0  0  0  0  0
   27.6268    8.7873   30.1445 C   0  0  0  0  0  0  0  0  0  0  0  0
   27.4521    9.5822   29.0238 C   0  0  0  0  0  0  0  0  0  0  0  0
   28.6166    9.8001   28.2717 C   0  0  0  0  0  0  0  0  0  0  0  0
   29.9003    9.2472   28.5723 C   0  0  0  0  0  0  0  0  0  0  0  0
   29.3688    7.3588   31.5349 N   0  0  0  0  0  0  0  0  0  0  0  0
   31.1803    7.6486   30.2222 C   0  0  0  0  0  0  0  0  0  0  0  0
   30.6841    6.9394   31.3328 C   0  0  0  0  0  0  0  0  0  0  0  0
   26.4486    8.6610   30.8127 N   0  0  0  0  0  0  0  0  0  0  0  0
   25.4591    9.3413   30.1186 C   0  0  0  0  0  0  0  0  0  0  0  0
   26.0672    9.9340   28.9993 C   0  0  0  0  0  0  0  0  0  0  0  0
   32.8202    5.8277   31.5789 C   0  0  0  0  0  0  0  0  0  0  0  0
   31.4964    6.0001   31.9967 C   0  0  0  0  0  0  0  0  0  0  0  0
   32.5225    7.4562   29.8254 C   0  0  0  0  0  0  0  0  0  0  0  0
   33.3336    6.5539   30.5149 C   0  0  0  0  0  0  0  0  0  0  0  0
   24.0864    9.4914   30.3876 C   0  0  0  0  0  0  0  0  0  0  0  0
   23.3169   10.2560   29.5078 C   0  0  0  0  0  0  0  0  0  0  0  0
   23.8933   10.8555   28.3956 C   0  0  0  0  0  0  0  0  0  0  0  0
   25.2584   10.7015   28.1331 C   0  0  0  0  0  0  0  0  0  0  0  0
   27.4985    8.0317   32.8444 O   0  0  0  0  0  0  0  0  0  0  0  0
   25.5105    6.7034   32.1346 C   0  0  0  0  0  0  0  0  0  0  0  0
   27.7394    5.5779   32.2904 C   0  0  2  0  0  0  0  0  0  0  0  0
   26.3163    5.6403   32.8880 C   0  0  2  0  0  0  0  0  0  0  0  0
   26.2682    8.0371   32.1171 C   0  0  2  0  0  0  0  0  0  0  0  0
   28.4345    6.9485   32.5987 C   0  0  1  0  0  0  0  0  0  0  0  0
   25.6493    4.3251   33.0541 N   0  0  0  0  0  0  0  0  0  0  0  0
   24.9664    3.7074   32.0019 C   0  0  0  0  0  0  0  0  0  0  0  0
   25.9058    3.6468   34.3247 C   0  0  0  0  0  0  0  0  0  0  0  0
   24.9661    4.1019   30.8417 O   0  0  0  0  0  0  0  0  0  0  0  0
   24.1512    2.5028   32.2855 C   0  0  0  0  0  0  0  0  0  0  0  0
   23.1394    2.5368   33.2526 C   0  0  0  0  0  0  0  0  0  0  0  0
   22.3710    1.3963   33.4888 C   0  0  0  0  0  0  0  0  0  0  0  0
   22.6022    0.2345   32.7501 C   0  0  0  0  0  0  0  0  0  0  0  0
   23.5917    0.2114   31.7658 C   0  0  0  0  0  0  0  0  0  0  0  0
   24.3640    1.3482   31.5260 C   0  0  0  0  0  0  0  0  0  0  0  0
   27.6348    5.3792   30.8722 O   0  0  0  0  0  0  0  0  0  0  0  0
   28.1553    4.1339   30.4314 C   0  0  0  0  0  0  0  0  0  0  0  0
   28.7684   10.5983   27.0455 C   0  0  0  0  0  0  0  0  0  0  0  0
   30.0862   10.5026   26.6553 N   0  0  0  0  0  0  0  0  0  0  0  0
   30.8801    9.6782   27.5219 C   0  0  0  0  0  0  0  0  0  0  0  0
   27.9212   11.2394   26.4570 O   0  0  0  0  0  0  0  0  0  0  0  0
   29.1209    6.8828   33.9849 C   0  0  0  0  0  0  0  0  0  0  0  0
   33.4551    5.1100   32.0940 H   0  0  0  0  0  0  0  0  0  0  0  0
   31.1324    5.3903   32.8124 H   0  0  0  0  0  0  0  0  0  0  0  0
   32.9264    7.9938   28.9730 H   0  0  0  0  0  0  0  0  0  0  0  0
   34.3641    6.4071   30.2023 H   0  0  0  0  0  0  0  0  0  0  0  0
   23.6191    9.0244   31.2482 H   0  0  0  0  0  0  0  0  0  0  0  0
   22.2529   10.3808   29.6938 H   0  0  0  0  0  0  0  0  0  0  0  0
   23.2836   11.4474   27.7179 H   0  0  0  0  0  0  0  0  0  0  0  0
   25.6860   11.1776   27.2556 H   0  0  0  0  0  0  0  0  0  0  0  0
   25.2647    6.4050   31.1112 H   0  0  0  0  0  0  0  0  0  0  0  0
   24.5418    6.8401   32.6328 H   0  0  0  0  0  0  0  0  0  0  0  0
   28.3202    4.7594   32.7350 H   0  0  0  0  0  0  0  0  0  0  0  0
   26.3983    6.0069   33.9214 H   0  0  0  0  0  0  0  0  0  0  0  0
   25.6513    8.7584   32.6694 H   0  0  0  0  0  0  0  0  0  0  0  0
   25.6814    2.5795   34.2886 H   0  0  0  0  0  0  0  0  0  0  0  0
   26.9658    3.7501   34.5758 H   0  0  0  0  0  0  0  0  0  0  0  0
   25.3020    4.1273   35.1004 H   0  0  0  0  0  0  0  0  0  0  0  0
   22.9405    3.4486   33.8094 H   0  0  0  0  0  0  0  0  0  0  0  0
   21.5846    1.4140   34.2388 H   0  0  0  0  0  0  0  0  0  0  0  0
   21.9977   -0.6517   32.9294 H   0  0  0  0  0  0  0  0  0  0  0  0
   23.7525   -0.6883   31.1773 H   0  0  0  0  0  0  0  0  0  0  0  0
   25.1213    1.3398   30.7454 H   0  0  0  0  0  0  0  0  0  0  0  0
   27.6578    3.3005   30.9364 H   0  0  0  0  0  0  0  0  0  0  0  0
   27.9796    4.0485   29.3556 H   0  0  0  0  0  0  0  0  0  0  0  0
   29.2332    4.0883   30.6126 H   0  0  0  0  0  0  0  0  0  0  0  0
   30.4131   10.9713   25.8217 H   0  0  0  0  0  0  0  0  0  0  0  0
   31.2684    8.8310   26.9505 H   0  0  0  0  0  0  0  0  0  0  0  0
   31.6917   10.2789   27.9403 H   0  0  0  0  0  0  0  0  0  0  0  0
   29.7784    7.7464   34.1409 H   0  0  0  0  0  0  0  0  0  0  0  0
   28.3792    6.9161   34.7928 H   0  0  0  0  0  0  0  0  0  0  0  0
   29.7024    5.9729   34.1389 H   0  0  0  0  0  0  0  0  0  0  0  0
  6  1  2  0
  2  3  2  0
  4  5  2  0
  1  8  1  0
  2  1  1  0
  7  2  1  0
  7  9  1  0
 10  3  1  0
  4  3  1  0
 12  4  1  0
 10 11  1  0
 14  9  1  0
  9  8  2  0
  8 15  1  0
 13 14  2  0
 16 13  1  0
 15 16  2  0
 11 17  1  0
 12 11  2  0
 20 12  1  0
 17 18  2  0
 18 19  1  0
 19 20  2  0
 10 25  1  0
 25 21  1  0
  7 26  1  0
 26 21  1  0
 25 22  1  0
 26 23  1  0
 22 24  1  0
 23 24  1  0
 24 27  1  0
 27 28  1  0
 27 29  1  0
 28 30  2  0
 28 31  1  0
 32 31  2  0
 36 31  1  0
 32 33  1  0
 33 34  2  0
 34 35  1  0
 35 36  2  0
 23 37  1  0
 37 38  1  0
  5 39  1  0
  6  5  1  0
  6 41  1  0
 39 40  1  0
 40 41  1  0
 39 42  2  0
 26 43  1  6
 13 44  1  0
 14 45  1  0
 15 46  1  0
 16 47  1  0
 17 48  1  0
 18 49  1  0
 19 50  1  0
 20 51  1  0
 22 52  1  0
 22 53  1  0
 23 54  1  1
 24 55  1  6
 25 56  1  6
 29 57  1  0
 29 58  1  0
 29 59  1  0
 32 60  1  0
 33 61  1  0
 34 62  1  0
 35 63  1  0
 36 64  1  0
 38 65  1  0
 38 66  1  0
 38 67  1  0
 40 68  1  0
 41 69  1  0
 41 70  1  0
 43 71  1  0
 43 72  1  0
 43 73  1  0
M  END
> <Uni-Dock RESULT> 
ENERGY=   -4.107  LOWER_BOUND=    9.786  UPPER_BOUND=   13.790
INTER + INTRA:          -4.107
INTER:                  -4.107
INTRA:                   0.000
UNBOUND:                 0.000

$$$$

     RDKit          3D

 73 81  0  0  0  0  0  0  0  0999 V2000
   23.2409    8.4903   30.6946 C   0  0  0  0  0  0  0  0  0  0  0  0
   24.5466    8.4591   31.1355 C   0  0  0  0  0  0  0  0  0  0  0  0
   25.2720    7.1001   31.3698 C   0  0  0  0  0  0  0  0  0  0  0  0
   24.6251    5.8950   31.1516 C   0  0  0  0  0  0  0  0  0  0  0  0
   23.2891    6.0126   30.7386 C   0  0  0  0  0  0  0  0  0  0  0  0
   22.6075    7.2493   30.5148 C   0  0  0  0  0  0  0  0  0  0  0  0
   25.0302    9.7347   31.2758 N   0  0  0  0  0  0  0  0  0  0  0  0
   22.9165    9.8609   30.4980 C   0  0  0  0  0  0  0  0  0  0  0  0
   24.0657   10.6194   30.7923 C   0  0  0  0  0  0  0  0  0  0  0  0
   26.5461    6.8740   31.7893 N   0  0  0  0  0  0  0  0  0  0  0  0
   26.7781    5.5069   31.8168 C   0  0  0  0  0  0  0  0  0  0  0  0
   25.5850    4.8737   31.4301 C   0  0  0  0  0  0  0  0  0  0  0  0
   22.9134   12.6343   30.1052 C   0  0  0  0  0  0  0  0  0  0  0  0
   24.0771   12.0091   30.5654 C   0  0  0  0  0  0  0  0  0  0  0  0
   21.7549   10.5203   30.0378 C   0  0  0  0  0  0  0  0  0  0  0  0
   21.7614   11.9038   29.8553 C   0  0  0  0  0  0  0  0  0  0  0  0
   27.9318    4.7778   32.1581 C   0  0  0  0  0  0  0  0  0  0  0  0
   27.8755    3.3832   32.1076 C   0  0  0  0  0  0  0  0  0  0  0  0
   26.7080    2.7319   31.7317 C   0  0  0  0  0  0  0  0  0  0  0  0
   25.5646    3.4624   31.3925 C   0  0  0  0  0  0  0  0  0  0  0  0
   26.7748    9.0365   32.7368 O   0  0  0  0  0  0  0  0  0  0  0  0
   28.6760    8.1929   31.3604 C   0  0  0  0  0  0  0  0  0  0  0  0
   27.4185   10.2166   30.5970 C   0  0  2  0  0  0  0  0  0  0  0  0
   28.7816    9.7005   31.1089 C   0  0  2  0  0  0  0  0  0  0  0  0
   27.4798    7.8843   32.2698 C   0  0  2  0  0  0  0  0  0  0  0  0
   26.3867   10.0426   31.7639 C   0  0  1  0  0  0  0  0  0  0  0  0
   29.9554   10.1397   30.3141 N   0  0  0  0  0  0  0  0  0  0  0  0
   30.3569    9.4633   29.1580 C   0  0  0  0  0  0  0  0  0  0  0  0
   30.5453   11.4161   30.7178 C   0  0  0  0  0  0  0  0  0  0  0  0
   29.7258    8.5599   28.6220 O   0  0  0  0  0  0  0  0  0  0  0  0
   31.6497    9.8233   28.5293 C   0  0  0  0  0  0  0  0  0  0  0  0
   32.8386    9.7817   29.2674 C   0  0  0  0  0  0  0  0  0  0  0  0
   34.0470   10.1055   28.6493 C   0  0  0  0  0  0  0  0  0  0  0  0
   34.0676   10.4522   27.2971 C   0  0  0  0  0  0  0  0  0  0  0  0
   32.8851   10.4645   26.5555 C   0  0  0  0  0  0  0  0  0  0  0  0
   31.6737   10.1429   27.1683 C   0  0  0  0  0  0  0  0  0  0  0  0
   27.0255    9.4302   29.4617 O   0  0  0  0  0  0  0  0  0  0  0  0
   26.9663   10.1683   28.2502 C   0  0  0  0  0  0  0  0  0  0  0  0
   22.3344    4.9347   30.4377 C   0  0  0  0  0  0  0  0  0  0  0  0
   21.1535    5.5299   30.0515 N   0  0  0  0  0  0  0  0  0  0  0  0
   21.2106    6.9644   30.0494 C   0  0  0  0  0  0  0  0  0  0  0  0
   22.5100    3.7350   30.5069 O   0  0  0  0  0  0  0  0  0  0  0  0
   26.4100   11.2982   32.6695 C   0  0  0  0  0  0  0  0  0  0  0  0
   22.9137   13.7090   29.9369 H   0  0  0  0  0  0  0  0  0  0  0  0
   24.9592   12.6159   30.7184 H   0  0  0  0  0  0  0  0  0  0  0  0
   20.8571    9.9554   29.8064 H   0  0  0  0  0  0  0  0  0  0  0  0
   20.8660   12.4049   29.4970 H   0  0  0  0  0  0  0  0  0  0  0  0
   28.8538    5.2712   32.4475 H   0  0  0  0  0  0  0  0  0  0  0  0
   28.7571    2.8002   32.3623 H   0  0  0  0  0  0  0  0  0  0  0  0
   26.6770    1.6459   31.6955 H   0  0  0  0  0  0  0  0  0  0  0  0
   24.6642    2.9308   31.0990 H   0  0  0  0  0  0  0  0  0  0  0  0
   28.5972    7.6120   30.4368 H   0  0  0  0  0  0  0  0  0  0  0  0
   29.5994    7.8431   31.8400 H   0  0  0  0  0  0  0  0  0  0  0  0
   27.4781   11.2742   30.3094 H   0  0  0  0  0  0  0  0  0  0  0  0
   28.9676   10.1535   32.0933 H   0  0  0  0  0  0  0  0  0  0  0  0
   27.8877    7.4470   33.1909 H   0  0  0  0  0  0  0  0  0  0  0  0
   31.1733   11.8573   29.9421 H   0  0  0  0  0  0  0  0  0  0  0  0
   29.7421   12.1274   30.9326 H   0  0  0  0  0  0  0  0  0  0  0  0
   31.1351   11.2521   31.6246 H   0  0  0  0  0  0  0  0  0  0  0  0
   32.8275    9.4859   30.3130 H   0  0  0  0  0  0  0  0  0  0  0  0
   34.9743   10.0770   29.2155 H   0  0  0  0  0  0  0  0  0  0  0  0
   35.0109   10.6969   26.8141 H   0  0  0  0  0  0  0  0  0  0  0  0
   32.9093   10.7126   25.4974 H   0  0  0  0  0  0  0  0  0  0  0  0
   30.7539   10.1312   26.5880 H   0  0  0  0  0  0  0  0  0  0  0  0
   27.9295   10.6383   28.0303 H   0  0  0  0  0  0  0  0  0  0  0  0
   26.7179    9.4790   27.4386 H   0  0  0  0  0  0  0  0  0  0  0  0
   26.1850   10.9318   28.3095 H   0  0  0  0  0  0  0  0  0  0  0  0
   20.3552    4.9693   29.7871 H   0  0  0  0  0  0  0  0  0  0  0  0
   21.0347    7.3266   29.0331 H   0  0  0  0  0  0  0  0  0  0  0  0
   20.4605    7.3520   30.7433 H   0  0  0  0  0  0  0  0  0  0  0  0
   25.5668   11.2946   33.3706 H   0  0  0  0  0  0  0  0  0  0  0  0
   27.3173   11.3213   33.2861 H   0  0  0  0  0  0  0  0  0  0  0  0
   26.3930   12.2358   32.1126 H   0  0  0  0  0  0  0  0  0  0  0  0
  6  1  2  0
  2  3  2  0
  4  5  2  0
  1  8  1  0
  2  1  1  0
  7  2  1  0
  7  9  1  0
 10  3  1  0
  4  3  1  0
 12  4  1  0
 10 11  1  0
 14  9  1  0
  9  8  2  0
  8 15  1  0
 13 14  2  0
 16 13  1  0
 15 16  2  0
 11 17  1  0
 12 11  2  0
 20 12  1  0
 17 18  2  0
 18 19  1  0
 19 20  2  0
 10 25  1  0
 25 21  1  0
  7 26  1  0
 26 21  1  0
 25 22  1  0
 26 23  1  0
 22 24  1  0
 23 24  1  0
 24 27  1  0
 27 28  1  0
 27 29  1  0
 28 30  2  0
 28 31  1  0
 32 31  2  0
 36 31  1  0
 32 33  1  0
 33 34  2  0
 34 35  1  0
 35 36  2  0
 23 37  1  0
 37 38  1  0
  5 39  1  0
  6  5  1  0
  6 41  1  0
 39 40  1  0
 40 41  1  0
 39 42  2  0
 26 43  1  6
 13 44  1  0
 14 45  1  0
 15 46  1  0
 16 47  1  0
 17 48  1  0
 18 49  1  0
 19 50  1  0
 20 51  1  0
 22 52  1  0
 22 53  1  0
 23 54  1  1
 24 55  1  6
 25 56  1  6
 29 57  1  0
 29 58  1  0
 29 59  1  0
 32 60  1  0
 33 61  1  0
 34 62  1  0
 35 63  1  0
 36 64  1  0
 38 65  1  0
 38 66  1  0
 38 67  1  0
 40 68  1  0
 41 69  1  0
 41 70  1  0
 43 71  1  0
 43 72  1  0
 43 73  1  0
M  END
> <Uni-Dock RESULT> 
ENERGY=   -4.019  LOWER_BOUND=    8.593  UPPER_BOUND=   10.854
INTER + INTRA:          -4.019
INTER:                  -4.019
INTRA:                   0.000
UNBOUND:                 0.000

$$$$
