
     RDKit          3D

 73 81  0  0  0  0  0  0  0  0999 V2000
   26.0424   13.3333   21.2509 C   0  0  0  0  0  0  0  0  0  0  0  0
   27.2170   12.7165   21.6414 C   0  0  0  0  0  0  0  0  0  0  0  0
   27.9977   11.8516   20.6129 C   0  0  0  0  0  0  0  0  0  0  0  0
   27.5497   11.6420   19.3233 C   0  0  0  0  0  0  0  0  0  0  0  0
   26.3471   12.2932   19.0158 C   0  0  0  0  0  0  0  0  0  0  0  0
   25.6130   13.1140   19.9273 C   0  0  0  0  0  0  0  0  0  0  0  0
   27.4926   12.9847   22.9620 N   0  0  0  0  0  0  0  0  0  0  0  0
   25.5822   14.0666   22.3743 C   0  0  0  0  0  0  0  0  0  0  0  0
   26.4968   13.8622   23.4230 C   0  0  0  0  0  0  0  0  0  0  0  0
   29.1852   11.2253   20.7956 N   0  0  0  0  0  0  0  0  0  0  0  0
   29.5315   10.5366   19.6518 C   0  0  0  0  0  0  0  0  0  0  0  0
   28.5189   10.7880   18.7060 C   0  0  0  0  0  0  0  0  0  0  0  0
   25.1823   15.3259   24.8450 C   0  0  0  0  0  0  0  0  0  0  0  0
   26.3001   14.5015   24.6636 C   0  0  0  0  0  0  0  0  0  0  0  0
   24.4574   14.8980   22.5867 C   0  0  0  0  0  0  0  0  0  0  0  0
   24.2659   15.5194   23.8218 C   0  0  0  0  0  0  0  0  0  0  0  0
   30.6435    9.7242   19.3612 C   0  0  0  0  0  0  0  0  0  0  0  0
   30.7279    9.1490   18.0929 C   0  0  0  0  0  0  0  0  0  0  0  0
   29.7436    9.3813   17.1383 C   0  0  0  0  0  0  0  0  0  0  0  0
   28.6431   10.1964   17.4309 C   0  0  0  0  0  0  0  0  0  0  0  0
   29.1044   11.1854   23.1315 O   0  0  0  0  0  0  0  0  0  0  0  0
   30.7637   12.6702   22.0309 C   0  0  0  0  0  0  0  0  0  0  0  0
   29.7442   13.3346   24.2377 C   0  0  2  0  0  0  0  0  0  0  0  0
   31.0682   13.0046   23.4816 C   0  0  2  0  0  0  0  0  0  0  0  0
   29.9656   11.3721   22.0070 C   0  0  2  0  0  0  0  0  0  0  0  0
   28.5713   12.3675   23.7823 C   0  0  1  0  0  0  0  0  0  0  0  0
   32.1431   14.0241   23.6357 N   0  0  0  0  0  0  0  0  0  0  0  0
   33.1909   13.9381   24.5595 C   0  0  0  0  0  0  0  0  0  0  0  0
   32.1660   15.1623   22.7146 C   0  0  0  0  0  0  0  0  0  0  0  0
   34.0948   14.7608   24.6698 O   0  0  0  0  0  0  0  0  0  0  0  0
   33.2624   12.7581   25.4408 C   0  0  0  0  0  0  0  0  0  0  0  0
   32.5270   12.7091   26.6284 C   0  0  0  0  0  0  0  0  0  0  0  0
   32.6281   11.5812   27.4505 C   0  0  0  0  0  0  0  0  0  0  0  0
   33.4730   10.5249   27.0891 C   0  0  0  0  0  0  0  0  0  0  0  0
   34.2220   10.5891   25.9117 C   0  0  0  0  0  0  0  0  0  0  0  0
   34.1207   11.7107   25.0838 C   0  0  0  0  0  0  0  0  0  0  0  0
   29.3737   14.7143   24.0636 O   0  0  0  0  0  0  0  0  0  0  0  0
   29.7051   15.5441   25.1759 C   0  0  0  0  0  0  0  0  0  0  0  0
   25.6199   12.3014   17.7390 C   0  0  0  0  0  0  0  0  0  0  0  0
   24.5010   13.0893   17.9117 N   0  0  0  0  0  0  0  0  0  0  0  0
   24.3974   13.6547   19.2282 C   0  0  0  0  0  0  0  0  0  0  0  0
   25.9212   11.7389   16.7055 O   0  0  0  0  0  0  0  0  0  0  0  0
   27.9475   11.7193   25.0464 C   0  0  0  0  0  0  0  0  0  0  0  0
   25.0361   15.8256   25.8008 H   0  0  0  0  0  0  0  0  0  0  0  0
   27.0023   14.3900   25.4803 H   0  0  0  0  0  0  0  0  0  0  0  0
   23.7385   15.0632   21.7891 H   0  0  0  0  0  0  0  0  0  0  0  0
   23.4018   16.1624   23.9772 H   0  0  0  0  0  0  0  0  0  0  0  0
   31.4180    9.5291   20.0956 H   0  0  0  0  0  0  0  0  0  0  0  0
   31.5748    8.5099   17.8479 H   0  0  0  0  0  0  0  0  0  0  0  0
   29.8259    8.9226   16.1561 H   0  0  0  0  0  0  0  0  0  0  0  0
   27.8832   10.3612   16.6710 H   0  0  0  0  0  0  0  0  0  0  0  0
   30.2157   13.4922   21.5555 H   0  0  0  0  0  0  0  0  0  0  0  0
   31.6794   12.5397   21.4446 H   0  0  0  0  0  0  0  0  0  0  0  0
   29.9399   13.1596   25.3050 H   0  0  0  0  0  0  0  0  0  0  0  0
   31.4497   12.0781   23.9260 H   0  0  0  0  0  0  0  0  0  0  0  0
   30.6612   10.5260   22.0458 H   0  0  0  0  0  0  0  0  0  0  0  0
   31.1548   15.5378   22.5449 H   0  0  0  0  0  0  0  0  0  0  0  0
   32.5912   14.8283   21.7638 H   0  0  0  0  0  0  0  0  0  0  0  0
   32.7804   15.9822   23.0982 H   0  0  0  0  0  0  0  0  0  0  0  0
   31.8973   13.5447   26.9264 H   0  0  0  0  0  0  0  0  0  0  0  0
   32.0664   11.5331   28.3808 H   0  0  0  0  0  0  0  0  0  0  0  0
   33.5662    9.6536   27.7401 H   0  0  0  0  0  0  0  0  0  0  0  0
   34.8966    9.7739   25.6469 H   0  0  0  0  0  0  0  0  0  0  0  0
   34.7167   11.7753   24.1773 H   0  0  0  0  0  0  0  0  0  0  0  0
   30.7845   15.5718   25.3397 H   0  0  0  0  0  0  0  0  0  0  0  0
   29.3508   16.5593   24.9669 H   0  0  0  0  0  0  0  0  0  0  0  0
   29.2064   15.1907   26.0834 H   0  0  0  0  0  0  0  0  0  0  0  0
   23.8623   13.2579   17.1439 H   0  0  0  0  0  0  0  0  0  0  0  0
   23.4684   13.3137   19.6931 H   0  0  0  0  0  0  0  0  0  0  0  0
   24.4254   14.7436   19.1484 H   0  0  0  0  0  0  0  0  0  0  0  0
   27.0352   11.1624   24.7960 H   0  0  0  0  0  0  0  0  0  0  0  0
   27.6984   12.4419   25.8229 H   0  0  0  0  0  0  0  0  0  0  0  0
   28.6395   10.9920   25.4969 H   0  0  0  0  0  0  0  0  0  0  0  0
  6  1  2  0
  2  3  2  0
  4  5  2  0
  1  8  1  0
  2  1  1  0
  7  2  1  0
  7  9  1  0
 10  3  1  0
  4  3  1  0
 12  4  1  0
 10 11  1  0
 14  9  1  0
  9  8  2  0
  8 15  1  0
 13 14  2  0
 16 13  1  0
 15 16  2  0
 11 17  1  0
 12 11  2  0
 20 12  1  0
 17 18  2  0
 18 19  1  0
 19 20  2  0
 10 25  1  0
 25 21  1  0
  7 26  1  0
 26 21  1  0
 25 22  1  0
 26 23  1  0
 22 24  1  0
 23 24  1  0
 24 27  1  0
 27 28  1  0
 27 29  1  0
 28 30  2  0
 28 31  1  0
 32 31  2  0
 36 31  1  0
 32 33  1  0
 33 34  2  0
 34 35  1  0
 35 36  2  0
 23 37  1  0
 37 38  1  0
  5 39  1  0
  6  5  1  0
  6 41  1  0
 39 40  1  0
 40 41  1  0
 39 42  2  0
 26 43  1  6
 13 44  1  0
 14 45  1  0
 15 46  1  0
 16 47  1  0
 17 48  1  0
 18 49  1  0
 19 50  1  0
 20 51  1  0
 22 52  1  0
 22 53  1  0
 23 54  1  6
 24 55  1  6
 25 56  1  6
 29 57  1  0
 29 58  1  0
 29 59  1  0
 32 60  1  0
 33 61  1  0
 34 62  1  0
 35 63  1  0
 36 64  1  0
 38 65  1  0
 38 66  1  0
 38 67  1  0
 40 68  1  0
 41 69  1  0
 41 70  1  0
 43 71  1  0
 43 72  1  0
 43 73  1  0
M  END
> <Uni-Dock RESULT> 
ENERGY=   -4.712  LOWER_BOUND=    0.000  UPPER_BOUND=    0.000
INTER + INTRA:          -4.712
INTER:                  -4.712
INTRA:                   0.000
UNBOUND:                 0.000

$$$$

     RDKit          3D

 73 81  0  0  0  0  0  0  0  0999 V2000
   25.8893   14.5511   23.2854 C   0  0  0  0  0  0  0  0  0  0  0  0
   26.9830   13.7182   23.4355 C   0  0  0  0  0  0  0  0  0  0  0  0
   27.2920   12.6662   22.3340 C   0  0  0  0  0  0  0  0  0  0  0  0
   26.4966   12.5016   21.2169 C   0  0  0  0  0  0  0  0  0  0  0  0
   25.4043   13.3775   21.1505 C   0  0  0  0  0  0  0  0  0  0  0  0
   25.1009   14.3717   22.1318 C   0  0  0  0  0  0  0  0  0  0  0  0
   27.6344   13.9776   24.6188 N   0  0  0  0  0  0  0  0  0  0  0  0
   25.8829   15.4113   24.4130 C   0  0  0  0  0  0  0  0  0  0  0  0
   26.9787   15.0633   25.2232 C   0  0  0  0  0  0  0  0  0  0  0  0
   28.3428   11.8124   22.2813 N   0  0  0  0  0  0  0  0  0  0  0  0
   28.2447   11.0190   21.1572 C   0  0  0  0  0  0  0  0  0  0  0  0
   27.0915   11.4378   20.4659 C   0  0  0  0  0  0  0  0  0  0  0  0
   26.3805   16.8290   26.7780 C   0  0  0  0  0  0  0  0  0  0  0  0
   27.2337   15.7811   26.4090 C   0  0  0  0  0  0  0  0  0  0  0  0
   25.0323   16.4687   24.8130 C   0  0  0  0  0  0  0  0  0  0  0  0
   25.2874   17.1676   25.9939 C   0  0  0  0  0  0  0  0  0  0  0  0
   29.0667    9.9796   20.6831 C   0  0  0  0  0  0  0  0  0  0  0  0
   28.7106    9.3468   19.4918 C   0  0  0  0  0  0  0  0  0  0  0  0
   27.5783    9.7406   18.7869 C   0  0  0  0  0  0  0  0  0  0  0  0
   26.7682   10.7803   19.2598 C   0  0  0  0  0  0  0  0  0  0  0  0
   28.8575   11.8884   24.5602 O   0  0  0  0  0  0  0  0  0  0  0  0
   30.4332   12.9438   22.9563 C   0  0  0  0  0  0  0  0  0  0  0  0
   30.1616   13.8995   25.2722 C   0  0  2  0  0  0  0  0  0  0  0  0
   31.1581   13.2672   24.2521 C   0  0  2  0  0  0  0  0  0  0  0  0
   29.4208   11.8426   23.2482 C   0  0  2  0  0  0  0  0  0  0  0  0
   28.7474   13.1824   25.2073 C   0  0  1  0  0  0  0  0  0  0  0  0
   32.4123   14.0435   24.0449 N   0  0  0  0  0  0  0  0  0  0  0  0
   33.6249   13.7780   24.6911 C   0  0  0  0  0  0  0  0  0  0  0  0
   32.4172   15.1118   23.0433 C   0  0  0  0  0  0  0  0  0  0  0  0
   34.6680   14.3962   24.5015 O   0  0  0  0  0  0  0  0  0  0  0  0
   33.6911   12.6473   25.6352 C   0  0  0  0  0  0  0  0  0  0  0  0
   33.2896   12.8039   26.9649 C   0  0  0  0  0  0  0  0  0  0  0  0
   33.3787   11.7155   27.8398 C   0  0  0  0  0  0  0  0  0  0  0  0
   33.8826   10.4909   27.3849 C   0  0  0  0  0  0  0  0  0  0  0  0
   34.3025   10.3468   26.0604 C   0  0  0  0  0  0  0  0  0  0  0  0
   34.2105   11.4289   25.1806 C   0  0  0  0  0  0  0  0  0  0  0  0
   30.0320   15.3177   25.0647 O   0  0  0  0  0  0  0  0  0  0  0  0
   30.7911   16.1053   25.9809 C   0  0  0  0  0  0  0  0  0  0  0  0
   24.3896   13.4849   20.0930 C   0  0  0  0  0  0  0  0  0  0  0  0
   23.5261   14.4969   20.4573 N   0  0  0  0  0  0  0  0  0  0  0  0
   23.8746   15.1260   21.7007 C   0  0  0  0  0  0  0  0  0  0  0  0
   24.3016   12.8288   19.0747 O   0  0  0  0  0  0  0  0  0  0  0  0
   28.3557   12.7333   26.6398 C   0  0  0  0  0  0  0  0  0  0  0  0
   26.5834   17.3878   27.6896 H   0  0  0  0  0  0  0  0  0  0  0  0
   28.0867   15.5589   27.0379 H   0  0  0  0  0  0  0  0  0  0  0  0
   24.1788   16.7477   24.2015 H   0  0  0  0  0  0  0  0  0  0  0  0
   24.6328   17.9839   26.2932 H   0  0  0  0  0  0  0  0  0  0  0  0
   29.9510    9.6570   21.2229 H   0  0  0  0  0  0  0  0  0  0  0  0
   29.3266    8.5344   19.1098 H   0  0  0  0  0  0  0  0  0  0  0  0
   27.3160    9.2341   17.8613 H   0  0  0  0  0  0  0  0  0  0  0  0
   25.8854   11.0692   18.6948 H   0  0  0  0  0  0  0  0  0  0  0  0
   29.9507   13.8420   22.5531 H   0  0  0  0  0  0  0  0  0  0  0  0
   31.1250   12.5992   22.1804 H   0  0  0  0  0  0  0  0  0  0  0  0
   30.5868   13.7323   26.2718 H   0  0  0  0  0  0  0  0  0  0  0  0
   31.4547   12.3006   24.6754 H   0  0  0  0  0  0  0  0  0  0  0  0
   29.9265   10.8716   23.1963 H   0  0  0  0  0  0  0  0  0  0  0  0
   31.4883   15.6841   23.0894 H   0  0  0  0  0  0  0  0  0  0  0  0
   32.5117   14.6563   22.0534 H   0  0  0  0  0  0  0  0  0  0  0  0
   33.2555   15.7996   23.1881 H   0  0  0  0  0  0  0  0  0  0  0  0
   32.9308   13.7649   27.3270 H   0  0  0  0  0  0  0  0  0  0  0  0
   33.0760   11.8255   28.8788 H   0  0  0  0  0  0  0  0  0  0  0  0
   33.9698    9.6475   28.0725 H   0  0  0  0  0  0  0  0  0  0  0  0
   34.7163    9.3977   25.7175 H   0  0  0  0  0  0  0  0  0  0  0  0
   34.5550   11.3287   24.1546 H   0  0  0  0  0  0  0  0  0  0  0  0
   31.8608   15.9122   25.8748 H   0  0  0  0  0  0  0  0  0  0  0  0
   30.5977   17.1626   25.7699 H   0  0  0  0  0  0  0  0  0  0  0  0
   30.4834   15.9029   27.0112 H   0  0  0  0  0  0  0  0  0  0  0  0
   22.7568   14.7636   19.8549 H   0  0  0  0  0  0  0  0  0  0  0  0
   23.0481   15.0078   22.4068 H   0  0  0  0  0  0  0  0  0  0  0  0
   24.0906   16.1804   21.5149 H   0  0  0  0  0  0  0  0  0  0  0  0
   27.3200   12.3706   26.6712 H   0  0  0  0  0  0  0  0  0  0  0  0
   28.4582   13.5241   27.3824 H   0  0  0  0  0  0  0  0  0  0  0  0
   28.9864   11.8964   26.9752 H   0  0  0  0  0  0  0  0  0  0  0  0
  6  1  2  0
  2  3  2  0
  4  5  2  0
  1  8  1  0
  2  1  1  0
  7  2  1  0
  7  9  1  0
 10  3  1  0
  4  3  1  0
 12  4  1  0
 10 11  1  0
 14  9  1  0
  9  8  2  0
  8 15  1  0
 13 14  2  0
 16 13  1  0
 15 16  2  0
 11 17  1  0
 12 11  2  0
 20 12  1  0
 17 18  2  0
 18 19  1  0
 19 20  2  0
 10 25  1  0
 25 21  1  0
  7 26  1  0
 26 21  1  0
 25 22  1  0
 26 23  1  0
 22 24  1  0
 23 24  1  0
 24 27  1  0
 27 28  1  0
 27 29  1  0
 28 30  2  0
 28 31  1  0
 32 31  2  0
 36 31  1  0
 32 33  1  0
 33 34  2  0
 34 35  1  0
 35 36  2  0
 23 37  1  0
 37 38  1  0
  5 39  1  0
  6  5  1  0
  6 41  1  0
 39 40  1  0
 40 41  1  0
 39 42  2  0
 26 43  1  6
 13 44  1  0
 14 45  1  0
 15 46  1  0
 16 47  1  0
 17 48  1  0
 18 49  1  0
 19 50  1  0
 20 51  1  0
 22 52  1  0
 22 53  1  0
 23 54  1  6
 24 55  1  6
 25 56  1  6
 29 57  1  0
 29 58  1  0
 29 59  1  0
 32 60  1  0
 33 61  1  0
 34 62  1  0
 35 63  1  0
 36 64  1  0
 38 65  1  0
 38 66  1  0
 38 67  1  0
 40 68  1  0
 41 69  1  0
 41 70  1  0
 43 71  1  0
 43 72  1  0
 43 73  1  0
M  END
> <Uni-Dock RESULT> 
ENERGY=   -4.632  LOWER_BOUND=    1.423  UPPER_BOUND=    2.001
INTER + INTRA:          -4.632
INTER:                  -4.632
INTRA:                   0.000
UNBOUND:                 0.000

$$$$

     RDKit          3D

 73 81  0  0  0  0  0  0  0  0999 V2000
   33.9099   16.5985   24.4974 C   0  0  0  0  0  0  0  0  0  0  0  0
   33.6438   15.3282   24.0200 C   0  0  0  0  0  0  0  0  0  0  0  0
   33.8179   14.1095   24.9687 C   0  0  0  0  0  0  0  0  0  0  0  0
   34.2629   14.2361   26.2702 C   0  0  0  0  0  0  0  0  0  0  0  0
   34.5201   15.5554   26.6677 C   0  0  0  0  0  0  0  0  0  0  0  0
   34.3505   16.7024   25.8314 C   0  0  0  0  0  0  0  0  0  0  0  0
   33.2627   15.3738   22.6992 N   0  0  0  0  0  0  0  0  0  0  0  0
   33.6346   17.4929   23.4317 C   0  0  0  0  0  0  0  0  0  0  0  0
   33.2145   16.7282   22.3286 C   0  0  0  0  0  0  0  0  0  0  0  0
   33.5510   12.8092   24.6975 N   0  0  0  0  0  0  0  0  0  0  0  0
   33.8638   12.0296   25.7915 C   0  0  0  0  0  0  0  0  0  0  0  0
   34.3096   12.9066   26.7991 C   0  0  0  0  0  0  0  0  0  0  0  0
   32.9152   18.7639   21.0406 C   0  0  0  0  0  0  0  0  0  0  0  0
   32.8453   17.3677   21.1281 C   0  0  0  0  0  0  0  0  0  0  0  0
   33.7036   18.9011   23.3139 C   0  0  0  0  0  0  0  0  0  0  0  0
   33.3449   19.5248   22.1179 C   0  0  0  0  0  0  0  0  0  0  0  0
   33.7882   10.6380   25.9888 C   0  0  0  0  0  0  0  0  0  0  0  0
   34.1788   10.1239   27.2255 C   0  0  0  0  0  0  0  0  0  0  0  0
   34.6216   10.9664   28.2395 C   0  0  0  0  0  0  0  0  0  0  0  0
   34.6879   12.3509   28.0399 C   0  0  0  0  0  0  0  0  0  0  0  0
   33.6349   13.0038   22.3695 O   0  0  0  0  0  0  0  0  0  0  0  0
   31.4340   12.5865   23.4427 C   0  0  0  0  0  0  0  0  0  0  0  0
   31.5672   13.9422   21.3225 C   0  0  2  0  0  0  0  0  0  0  0  0
   30.9836   12.6604   21.9933 C   0  0  2  0  0  0  0  0  0  0  0  0
   32.9441   12.3810   23.4539 C   0  0  2  0  0  0  0  0  0  0  0  0
   33.0580   14.2062   21.7980 C   0  0  1  0  0  0  0  0  0  0  0  0
   29.5140   12.4849   21.8258 N   0  0  0  0  0  0  0  0  0  0  0  0
   28.9178   11.6838   20.8453 C   0  0  0  0  0  0  0  0  0  0  0  0
   28.6179   13.1243   22.7915 C   0  0  0  0  0  0  0  0  0  0  0  0
   27.7088   11.5131   20.7222 O   0  0  0  0  0  0  0  0  0  0  0  0
   29.7866   10.9424   19.9126 C   0  0  0  0  0  0  0  0  0  0  0  0
   30.2911   11.5594   18.7644 C   0  0  0  0  0  0  0  0  0  0  0  0
   31.1006   10.8241   17.8914 C   0  0  0  0  0  0  0  0  0  0  0  0
   31.3829    9.4799   18.1631 C   0  0  0  0  0  0  0  0  0  0  0  0
   30.8580    8.8628   19.3010 C   0  0  0  0  0  0  0  0  0  0  0  0
   30.0534    9.5938   20.1795 C   0  0  0  0  0  0  0  0  0  0  0  0
   30.7338   15.0883   21.5738 O   0  0  0  0  0  0  0  0  0  0  0  0
   29.8826   15.4317   20.4814 C   0  0  0  0  0  0  0  0  0  0  0  0
   34.9733   16.0362   27.9803 C   0  0  0  0  0  0  0  0  0  0  0  0
   35.0721   17.4096   27.9000 N   0  0  0  0  0  0  0  0  0  0  0  0
   34.7012   17.9355   26.6157 C   0  0  0  0  0  0  0  0  0  0  0  0
   35.2170   15.3784   28.9718 O   0  0  0  0  0  0  0  0  0  0  0  0
   33.9557   14.3635   20.5423 C   0  0  0  0  0  0  0  0  0  0  0  0
   32.6218   19.2570   20.1158 H   0  0  0  0  0  0  0  0  0  0  0  0
   32.4876   16.8101   20.2716 H   0  0  0  0  0  0  0  0  0  0  0  0
   34.0303   19.5068   24.1546 H   0  0  0  0  0  0  0  0  0  0  0  0
   33.3946   20.6088   22.0354 H   0  0  0  0  0  0  0  0  0  0  0  0
   33.4493    9.9662   25.2070 H   0  0  0  0  0  0  0  0  0  0  0  0
   34.1370    9.0497   27.3984 H   0  0  0  0  0  0  0  0  0  0  0  0
   34.9237   10.5469   29.1959 H   0  0  0  0  0  0  0  0  0  0  0  0
   35.0408   12.9906   28.8449 H   0  0  0  0  0  0  0  0  0  0  0  0
   31.1445   13.4970   23.9805 H   0  0  0  0  0  0  0  0  0  0  0  0
   30.9548   11.7574   23.9739 H   0  0  0  0  0  0  0  0  0  0  0  0
   31.5795   13.7525   20.2400 H   0  0  0  0  0  0  0  0  0  0  0  0
   31.4595   11.8103   21.4909 H   0  0  0  0  0  0  0  0  0  0  0  0
   33.1586   11.3119   23.3430 H   0  0  0  0  0  0  0  0  0  0  0  0
   28.9674   14.1310   23.0299 H   0  0  0  0  0  0  0  0  0  0  0  0
   28.6063   12.5209   23.7037 H   0  0  0  0  0  0  0  0  0  0  0  0
   27.5946   13.1938   22.4109 H   0  0  0  0  0  0  0  0  0  0  0  0
   30.0433   12.5936   18.5354 H   0  0  0  0  0  0  0  0  0  0  0  0
   31.4943   11.2901   16.9907 H   0  0  0  0  0  0  0  0  0  0  0  0
   31.9988    8.9013   17.4720 H   0  0  0  0  0  0  0  0  0  0  0  0
   31.0615    7.8090   19.4954 H   0  0  0  0  0  0  0  0  0  0  0  0
   29.6253    9.1134   21.0554 H   0  0  0  0  0  0  0  0  0  0  0  0
   29.1778   14.6267   20.2624 H   0  0  0  0  0  0  0  0  0  0  0  0
   29.3211   16.3326   20.7513 H   0  0  0  0  0  0  0  0  0  0  0  0
   30.4726   15.6546   19.5874 H   0  0  0  0  0  0  0  0  0  0  0  0
   35.3454   17.9575   28.7067 H   0  0  0  0  0  0  0  0  0  0  0  0
   35.5537   18.4688   26.1864 H   0  0  0  0  0  0  0  0  0  0  0  0
   33.8406   18.5965   26.7397 H   0  0  0  0  0  0  0  0  0  0  0  0
   34.9643   14.6992   20.8169 H   0  0  0  0  0  0  0  0  0  0  0  0
   33.5548   15.0648   19.8112 H   0  0  0  0  0  0  0  0  0  0  0  0
   34.0808   13.4000   20.0258 H   0  0  0  0  0  0  0  0  0  0  0  0
  6  1  2  0
  2  3  2  0
  4  5  2  0
  1  8  1  0
  2  1  1  0
  7  2  1  0
  7  9  1  0
 10  3  1  0
  4  3  1  0
 12  4  1  0
 10 11  1  0
 14  9  1  0
  9  8  2  0
  8 15  1  0
 13 14  2  0
 16 13  1  0
 15 16  2  0
 11 17  1  0
 12 11  2  0
 20 12  1  0
 17 18  2  0
 18 19  1  0
 19 20  2  0
 10 25  1  0
 25 21  1  0
  7 26  1  0
 26 21  1  0
 25 22  1  0
 26 23  1  0
 22 24  1  0
 23 24  1  0
 24 27  1  0
 27 28  1  0
 27 29  1  0
 28 30  2  0
 28 31  1  0
 32 31  2  0
 36 31  1  0
 32 33  1  0
 33 34  2  0
 34 35  1  0
 35 36  2  0
 23 37  1  0
 37 38  1  0
  5 39  1  0
  6  5  1  0
  6 41  1  0
 39 40  1  0
 40 41  1  0
 39 42  2  0
 26 43  1  6
 13 44  1  0
 14 45  1  0
 15 46  1  0
 16 47  1  0
 17 48  1  0
 18 49  1  0
 19 50  1  0
 20 51  1  0
 22 52  1  0
 22 53  1  0
 23 54  1  6
 24 55  1  6
 25 56  1  6
 29 57  1  0
 29 58  1  0
 29 59  1  0
 32 60  1  0
 33 61  1  0
 34 62  1  0
 35 63  1  0
 36 64  1  0
 38 65  1  0
 38 66  1  0
 38 67  1  0
 40 68  1  0
 41 69  1  0
 41 70  1  0
 43 71  1  0
 43 72  1  0
 43 73  1  0
M  END
> <Uni-Dock RESULT> 
ENERGY=   -4.520  LOWER_BOUND=    2.797  UPPER_BOUND=    8.764
INTER + INTRA:          -4.520
INTER:                  -4.520
INTRA:                   0.000
UNBOUND:                 0.000

$$$$

     RDKit          3D

 73 81  0  0  0  0  0  0  0  0999 V2000
   24.3950    2.7316   31.6778 C   0  0  0  0  0  0  0  0  0  0  0  0
   25.3085    3.7565   31.5117 C   0  0  0  0  0  0  0  0  0  0  0  0
   24.7923    5.1907   31.2082 C   0  0  0  0  0  0  0  0  0  0  0  0
   23.4505    5.4842   31.0625 C   0  0  0  0  0  0  0  0  0  0  0  0
   22.5962    4.3864   31.2348 C   0  0  0  0  0  0  0  0  0  0  0  0
   23.0322    3.0588   31.5364 C   0  0  0  0  0  0  0  0  0  0  0  0
   26.5953    3.2877   31.6379 N   0  0  0  0  0  0  0  0  0  0  0  0
   25.1489    1.5666   31.9713 C   0  0  0  0  0  0  0  0  0  0  0  0
   26.5092    1.9240   31.9652 C   0  0  0  0  0  0  0  0  0  0  0  0
   25.5283    6.3203   31.0737 N   0  0  0  0  0  0  0  0  0  0  0  0
   24.7017    7.3847   30.7797 C   0  0  0  0  0  0  0  0  0  0  0  0
   23.3852    6.8847   30.7726 C   0  0  0  0  0  0  0  0  0  0  0  0
   27.1041   -0.3592   32.5356 C   0  0  0  0  0  0  0  0  0  0  0  0
   27.4925    0.9573   32.2564 C   0  0  0  0  0  0  0  0  0  0  0  0
   24.7844    0.2280   32.2487 C   0  0  0  0  0  0  0  0  0  0  0  0
   25.7660   -0.7245   32.5267 C   0  0  0  0  0  0  0  0  0  0  0  0
   24.9904    8.7390   30.5277 C   0  0  0  0  0  0  0  0  0  0  0  0
   23.9280    9.6014   30.2554 C   0  0  0  0  0  0  0  0  0  0  0  0
   22.6177    9.1358   30.2435 C   0  0  0  0  0  0  0  0  0  0  0  0
   22.3359    7.7886   30.5021 C   0  0  0  0  0  0  0  0  0  0  0  0
   27.5579    5.2575   30.6096 O   0  0  0  0  0  0  0  0  0  0  0  0
   27.3051    6.4246   32.7876 C   0  0  0  0  0  0  0  0  0  0  0  0
   28.7593    4.3736   32.6165 C   0  0  2  0  0  0  0  0  0  0  0  0
   28.7182    5.8941   32.9628 C   0  0  2  0  0  0  0  0  0  0  0  0
   26.9577    6.3514   31.3055 C   0  0  2  0  0  0  0  0  0  0  0  0
   27.8443    4.0498   31.3610 C   0  0  1  0  0  0  0  0  0  0  0  0
   29.3192    6.2488   34.2787 N   0  0  0  0  0  0  0  0  0  0  0  0
   30.6269    6.7160   34.4529 C   0  0  0  0  0  0  0  0  0  0  0  0
   28.4756    6.1847   35.4739 C   0  0  0  0  0  0  0  0  0  0  0  0
   31.1165    7.0373   35.5314 O   0  0  0  0  0  0  0  0  0  0  0  0
   31.4806    6.8902   33.2634 C   0  0  0  0  0  0  0  0  0  0  0  0
   32.1905    5.8104   32.7306 C   0  0  0  0  0  0  0  0  0  0  0  0
   33.0038    6.0116   31.6099 C   0  0  0  0  0  0  0  0  0  0  0  0
   33.1142    7.2879   31.0449 C   0  0  0  0  0  0  0  0  0  0  0  0
   32.4192    8.3676   31.5950 C   0  0  0  0  0  0  0  0  0  0  0  0
   31.6008    8.1714   32.7110 C   0  0  0  0  0  0  0  0  0  0  0  0
   28.3848    3.5698   33.7501 O   0  0  0  0  0  0  0  0  0  0  0  0
   29.4940    2.9976   34.4416 C   0  0  0  0  0  0  0  0  0  0  0  0
   21.1282    4.3601   31.1751 C   0  0  0  0  0  0  0  0  0  0  0  0
   20.7329    3.0620   31.4223 N   0  0  0  0  0  0  0  0  0  0  0  0
   21.8293    2.1677   31.6701 C   0  0  0  0  0  0  0  0  0  0  0  0
   20.3740    5.2873   30.9590 O   0  0  0  0  0  0  0  0  0  0  0  0
   28.6946    3.2796   30.3164 C   0  0  0  0  0  0  0  0  0  0  0  0
   27.8640   -1.1028   32.7685 H   0  0  0  0  0  0  0  0  0  0  0  0
   28.5455    1.2074   32.2909 H   0  0  0  0  0  0  0  0  0  0  0  0
   23.7387   -0.0664   32.2531 H   0  0  0  0  0  0  0  0  0  0  0  0
   25.4789   -1.7513   32.7451 H   0  0  0  0  0  0  0  0  0  0  0  0
   26.0072    9.1177   30.5287 H   0  0  0  0  0  0  0  0  0  0  0  0
   24.1277   10.6516   30.0490 H   0  0  0  0  0  0  0  0  0  0  0  0
   21.8032    9.8227   30.0272 H   0  0  0  0  0  0  0  0  0  0  0  0
   21.3045    7.4454   30.4837 H   0  0  0  0  0  0  0  0  0  0  0  0
   26.6009    5.8473   33.3983 H   0  0  0  0  0  0  0  0  0  0  0  0
   27.2172    7.4623   33.1262 H   0  0  0  0  0  0  0  0  0  0  0  0
   29.8004    4.1393   32.3534 H   0  0  0  0  0  0  0  0  0  0  0  0
   29.3210    6.3970   32.1978 H   0  0  0  0  0  0  0  0  0  0  0  0
   27.3452    7.2460   30.8046 H   0  0  0  0  0  0  0  0  0  0  0  0
   27.8419    5.2958   35.4480 H   0  0  0  0  0  0  0  0  0  0  0  0
   27.8442    7.0775   35.4989 H   0  0  0  0  0  0  0  0  0  0  0  0
   29.0723    6.1583   36.3905 H   0  0  0  0  0  0  0  0  0  0  0  0
   32.1319    4.8263   33.1905 H   0  0  0  0  0  0  0  0  0  0  0  0
   33.5670    5.1814   31.1893 H   0  0  0  0  0  0  0  0  0  0  0  0
   33.7636    7.4485   30.1823 H   0  0  0  0  0  0  0  0  0  0  0  0
   32.5273    9.3644   31.1655 H   0  0  0  0  0  0  0  0  0  0  0  0
   31.0741    9.0116   33.1558 H   0  0  0  0  0  0  0  0  0  0  0  0
   30.1402    3.7723   34.8600 H   0  0  0  0  0  0  0  0  0  0  0  0
   29.1089    2.3766   35.2575 H   0  0  0  0  0  0  0  0  0  0  0  0
   30.0769    2.3569   33.7732 H   0  0  0  0  0  0  0  0  0  0  0  0
   19.7507    2.8169   31.4559 H   0  0  0  0  0  0  0  0  0  0  0  0
   21.8201    1.3720   30.9201 H   0  0  0  0  0  0  0  0  0  0  0  0
   21.7339    1.7628   32.6800 H   0  0  0  0  0  0  0  0  0  0  0  0
   28.0679    2.8998   29.4990 H   0  0  0  0  0  0  0  0  0  0  0  0
   29.2403    2.4377   30.7414 H   0  0  0  0  0  0  0  0  0  0  0  0
   29.4404    3.9419   29.8518 H   0  0  0  0  0  0  0  0  0  0  0  0
  6  1  2  0
  2  3  2  0
  4  5  2  0
  1  8  1  0
  2  1  1  0
  7  2  1  0
  7  9  1  0
 10  3  1  0
  4  3  1  0
 12  4  1  0
 10 11  1  0
 14  9  1  0
  9  8  2  0
  8 15  1  0
 13 14  2  0
 16 13  1  0
 15 16  2  0
 11 17  1  0
 12 11  2  0
 20 12  1  0
 17 18  2  0
 18 19  1  0
 19 20  2  0
 10 25  1  0
 25 21  1  0
  7 26  1  0
 26 21  1  0
 25 22  1  0
 26 23  1  0
 22 24  1  0
 23 24  1  0
 24 27  1  0
 27 28  1  0
 27 29  1  0
 28 30  2  0
 28 31  1  0
 32 31  2  0
 36 31  1  0
 32 33  1  0
 33 34  2  0
 34 35  1  0
 35 36  2  0
 23 37  1  0
 37 38  1  0
  5 39  1  0
  6  5  1  0
  6 41  1  0
 39 40  1  0
 40 41  1  0
 39 42  2  0
 26 43  1  6
 13 44  1  0
 14 45  1  0
 15 46  1  0
 16 47  1  0
 17 48  1  0
 18 49  1  0
 19 50  1  0
 20 51  1  0
 22 52  1  0
 22 53  1  0
 23 54  1  6
 24 55  1  6
 25 56  1  6
 29 57  1  0
 29 58  1  0
 29 59  1  0
 32 60  1  0
 33 61  1  0
 34 62  1  0
 35 63  1  0
 36 64  1  0
 38 65  1  0
 38 66  1  0
 38 67  1  0
 40 68  1  0
 41 69  1  0
 41 70  1  0
 43 71  1  0
 43 72  1  0
 43 73  1  0
M  END
> <Uni-Dock RESULT> 
ENERGY=   -4.508  LOWER_BOUND=   10.564  UPPER_BOUND=   13.642
INTER + INTRA:          -4.508
INTER:                  -4.508
INTRA:                   0.000
UNBOUND:                 0.000

$$$$

     RDKit          3D

 73 81  0  0  0  0  0  0  0  0999 V2000
   31.0312   10.7149   27.0864 C   0  0  0  0  0  0  0  0  0  0  0  0
   29.8005   11.0956   26.5835 C   0  0  0  0  0  0  0  0  0  0  0  0
   28.5090   10.6687   27.3352 C   0  0  0  0  0  0  0  0  0  0  0  0
   28.5338    9.8903   28.4760 C   0  0  0  0  0  0  0  0  0  0  0  0
   29.8200    9.5398   28.9092 C   0  0  0  0  0  0  0  0  0  0  0  0
   31.0304    9.9319   28.2575 C   0  0  0  0  0  0  0  0  0  0  0  0
   29.9507   11.8183   25.4229 N   0  0  0  0  0  0  0  0  0  0  0  0
   32.0073   11.2697   26.2198 C   0  0  0  0  0  0  0  0  0  0  0  0
   31.3305   11.9687   25.2043 C   0  0  0  0  0  0  0  0  0  0  0  0
   27.2304   10.9946   27.0276 N   0  0  0  0  0  0  0  0  0  0  0  0
   26.3672   10.3964   27.9218 C   0  0  0  0  0  0  0  0  0  0  0  0
   27.1650    9.6987   28.8491 C   0  0  0  0  0  0  0  0  0  0  0  0
   33.4618   12.6102   24.2354 C   0  0  0  0  0  0  0  0  0  0  0  0
   32.0618   12.6495   24.2102 C   0  0  0  0  0  0  0  0  0  0  0  0
   33.4218   11.2395   26.2173 C   0  0  0  0  0  0  0  0  0  0  0  0
   34.1373   11.9088   25.2233 C   0  0  0  0  0  0  0  0  0  0  0  0
   24.9622   10.4117   28.0038 C   0  0  0  0  0  0  0  0  0  0  0  0
   24.3531    9.7010   29.0384 C   0  0  0  0  0  0  0  0  0  0  0  0
   25.1158    9.0043   29.9695 C   0  0  0  0  0  0  0  0  0  0  0  0
   26.5137    8.9987   29.8870 C   0  0  0  0  0  0  0  0  0  0  0  0
   27.6298   11.5409   24.7901 O   0  0  0  0  0  0  0  0  0  0  0  0
   27.0595   13.3704   26.3703 C   0  0  0  0  0  0  0  0  0  0  0  0
   28.5983   13.8171   24.4253 C   0  0  2  0  0  0  0  0  0  0  0  0
   27.2472   14.1946   25.1075 C   0  0  2  0  0  0  0  0  0  0  0  0
   26.8958   11.9124   25.9581 C   0  0  2  0  0  0  0  0  0  0  0  0
   28.8611   12.2541   24.5064 C   0  0  1  0  0  0  0  0  0  0  0  0
   27.0464   15.6544   25.3243 N   0  0  0  0  0  0  0  0  0  0  0  0
   26.3177   16.4899   24.4701 C   0  0  0  0  0  0  0  0  0  0  0  0
   27.5739   16.2597   26.5489 C   0  0  0  0  0  0  0  0  0  0  0  0
   26.1250   17.6869   24.6601 O   0  0  0  0  0  0  0  0  0  0  0  0
   25.6849   15.9019   23.2751 C   0  0  0  0  0  0  0  0  0  0  0  0
   26.4135   15.7269   22.0952 C   0  0  0  0  0  0  0  0  0  0  0  0
   25.7800   15.1799   20.9739 C   0  0  0  0  0  0  0  0  0  0  0  0
   24.4256   14.8306   21.0358 C   0  0  0  0  0  0  0  0  0  0  0  0
   23.6971   15.0279   22.2112 C   0  0  0  0  0  0  0  0  0  0  0  0
   24.3261   15.5688   23.3362 C   0  0  0  0  0  0  0  0  0  0  0  0
   29.6946   14.5558   24.9943 O   0  0  0  0  0  0  0  0  0  0  0  0
   30.1084   15.6706   24.2059 C   0  0  0  0  0  0  0  0  0  0  0  0
   30.1966    8.7517   30.0908 C   0  0  0  0  0  0  0  0  0  0  0  0
   31.5740    8.6825   30.1131 N   0  0  0  0  0  0  0  0  0  0  0  0
   32.1995    9.3870   29.0287 C   0  0  0  0  0  0  0  0  0  0  0  0
   29.4618    8.2480   30.9164 O   0  0  0  0  0  0  0  0  0  0  0  0
   29.1522   11.7280   23.0761 C   0  0  0  0  0  0  0  0  0  0  0  0
   34.0254   13.1432   23.4720 H   0  0  0  0  0  0  0  0  0  0  0  0
   31.5715   13.2227   23.4334 H   0  0  0  0  0  0  0  0  0  0  0  0
   33.9606   10.7006   26.9916 H   0  0  0  0  0  0  0  0  0  0  0  0
   35.2254   11.8867   25.2301 H   0  0  0  0  0  0  0  0  0  0  0  0
   24.3521   10.9463   27.2832 H   0  0  0  0  0  0  0  0  0  0  0  0
   23.2672    9.6913   29.1171 H   0  0  0  0  0  0  0  0  0  0  0  0
   24.6229    8.4547   30.7675 H   0  0  0  0  0  0  0  0  0  0  0  0
   27.0902    8.4441   30.6233 H   0  0  0  0  0  0  0  0  0  0  0  0
   27.9113   13.5075   27.0470 H   0  0  0  0  0  0  0  0  0  0  0  0
   26.1743   13.6864   26.9323 H   0  0  0  0  0  0  0  0  0  0  0  0
   28.5043   14.0959   23.3664 H   0  0  0  0  0  0  0  0  0  0  0  0
   26.4578   13.8687   24.4204 H   0  0  0  0  0  0  0  0  0  0  0  0
   25.8468   11.7323   25.6964 H   0  0  0  0  0  0  0  0  0  0  0  0
   28.5653   15.8621   26.7761 H   0  0  0  0  0  0  0  0  0  0  0  0
   26.8931   16.0233   27.3717 H   0  0  0  0  0  0  0  0  0  0  0  0
   27.6480   17.3478   26.4642 H   0  0  0  0  0  0  0  0  0  0  0  0
   27.4566   16.0305   22.0366 H   0  0  0  0  0  0  0  0  0  0  0  0
   26.3336   15.0446   20.0472 H   0  0  0  0  0  0  0  0  0  0  0  0
   23.9268   14.4216   20.1551 H   0  0  0  0  0  0  0  0  0  0  0  0
   22.6364   14.7762   22.2467 H   0  0  0  0  0  0  0  0  0  0  0  0
   23.7593   15.7438   24.2469 H   0  0  0  0  0  0  0  0  0  0  0  0
   29.3064   16.4058   24.1108 H   0  0  0  0  0  0  0  0  0  0  0  0
   30.9664   16.1417   24.6976 H   0  0  0  0  0  0  0  0  0  0  0  0
   30.4247   15.3437   23.2108 H   0  0  0  0  0  0  0  0  0  0  0  0
   32.0568    8.2039   30.8639 H   0  0  0  0  0  0  0  0  0  0  0  0
   32.7917    8.6832   28.4376 H   0  0  0  0  0  0  0  0  0  0  0  0
   32.8231   10.1846   29.4385 H   0  0  0  0  0  0  0  0  0  0  0  0
   29.4905   10.6839   23.1001 H   0  0  0  0  0  0  0  0  0  0  0  0
   29.9033   12.3131   22.5463 H   0  0  0  0  0  0  0  0  0  0  0  0
   28.2413   11.7435   22.4590 H   0  0  0  0  0  0  0  0  0  0  0  0
  6  1  2  0
  2  3  2  0
  4  5  2  0
  1  8  1  0
  2  1  1  0
  7  2  1  0
  7  9  1  0
 10  3  1  0
  4  3  1  0
 12  4  1  0
 10 11  1  0
 14  9  1  0
  9  8  2  0
  8 15  1  0
 13 14  2  0
 16 13  1  0
 15 16  2  0
 11 17  1  0
 12 11  2  0
 20 12  1  0
 17 18  2  0
 18 19  1  0
 19 20  2  0
 10 25  1  0
 25 21  1  0
  7 26  1  0
 26 21  1  0
 25 22  1  0
 26 23  1  0
 22 24  1  0
 23 24  1  0
 24 27  1  0
 27 28  1  0
 27 29  1  0
 28 30  2  0
 28 31  1  0
 32 31  2  0
 36 31  1  0
 32 33  1  0
 33 34  2  0
 34 35  1  0
 35 36  2  0
 23 37  1  0
 37 38  1  0
  5 39  1  0
  6  5  1  0
  6 41  1  0
 39 40  1  0
 40 41  1  0
 39 42  2  0
 26 43  1  6
 13 44  1  0
 14 45  1  0
 15 46  1  0
 16 47  1  0
 17 48  1  0
 18 49  1  0
 19 50  1  0
 20 51  1  0
 22 52  1  0
 22 53  1  0
 23 54  1  6
 24 55  1  6
 25 56  1  6
 29 57  1  0
 29 58  1  0
 29 59  1  0
 32 60  1  0
 33 61  1  0
 34 62  1  0
 35 63  1  0
 36 64  1  0
 38 65  1  0
 38 66  1  0
 38 67  1  0
 40 68  1  0
 41 69  1  0
 41 70  1  0
 43 71  1  0
 43 72  1  0
 43 73  1  0
M  END
> <Uni-Dock RESULT> 
ENERGY=   -4.465  LOWER_BOUND=    3.387  UPPER_BOUND=    8.985
INTER + INTRA:          -4.465
INTER:                  -4.465
INTRA:                   0.000
UNBOUND:                 0.000

$$$$

     RDKit          3D

 73 81  0  0  0  0  0  0  0  0999 V2000
   23.7013    3.9040   31.2388 C   0  0  0  0  0  0  0  0  0  0  0  0
   24.8232    4.7120   31.2664 C   0  0  0  0  0  0  0  0  0  0  0  0
   24.6782    6.2229   30.9323 C   0  0  0  0  0  0  0  0  0  0  0  0
   23.4730    6.7941   30.5730 C   0  0  0  0  0  0  0  0  0  0  0  0
   22.3917    5.9022   30.5587 C   0  0  0  0  0  0  0  0  0  0  0  0
   22.4821    4.5125   30.8813 C   0  0  0  0  0  0  0  0  0  0  0  0
   25.9423    3.9812   31.5910 N   0  0  0  0  0  0  0  0  0  0  0  0
   24.1331    2.6058   31.6129 C   0  0  0  0  0  0  0  0  0  0  0  0
   25.5181    2.6669   31.8494 C   0  0  0  0  0  0  0  0  0  0  0  0
   25.6457    7.1708   30.9649 N   0  0  0  0  0  0  0  0  0  0  0  0
   25.1231    8.3861   30.5744 C   0  0  0  0  0  0  0  0  0  0  0  0
   23.7527    8.1764   30.3271 C   0  0  0  0  0  0  0  0  0  0  0  0
   25.5157    0.3096   32.4290 C   0  0  0  0  0  0  0  0  0  0  0  0
   26.2126    1.5139   32.2673 C   0  0  0  0  0  0  0  0  0  0  0  0
   23.4548    1.3750   31.7762 C   0  0  0  0  0  0  0  0  0  0  0  0
   24.1528    0.2362   32.1812 C   0  0  0  0  0  0  0  0  0  0  0  0
   25.7273    9.6483   30.4239 C   0  0  0  0  0  0  0  0  0  0  0  0
   24.9317   10.7162   30.0076 C   0  0  0  0  0  0  0  0  0  0  0  0
   23.5752   10.5388   29.7578 C   0  0  0  0  0  0  0  0  0  0  0  0
   22.9780    9.2821   29.9162 C   0  0  0  0  0  0  0  0  0  0  0  0
   27.4577    5.7019   30.8119 O   0  0  0  0  0  0  0  0  0  0  0  0
   27.0820    6.8969   32.9568 C   0  0  0  0  0  0  0  0  0  0  0  0
   28.0831    4.5843   32.9595 C   0  0  2  0  0  0  0  0  0  0  0  0
   28.3013    6.0791   33.3487 C   0  0  2  0  0  0  0  0  0  0  0  0
   26.9882    6.8984   31.4356 C   0  0  2  0  0  0  0  0  0  0  0  0
   27.3515    4.4612   31.5566 C   0  0  1  0  0  0  0  0  0  0  0  0
   28.7267    6.2988   34.7591 N   0  0  0  0  0  0  0  0  0  0  0  0
   30.0529    6.4785   35.1683 C   0  0  0  0  0  0  0  0  0  0  0  0
   27.6950    6.4155   35.7917 C   0  0  0  0  0  0  0  0  0  0  0  0
   30.4052    6.6891   36.3249 O   0  0  0  0  0  0  0  0  0  0  0  0
   31.1165    6.4672   34.1470 C   0  0  0  0  0  0  0  0  0  0  0  0
   31.6663    5.2614   33.7030 C   0  0  0  0  0  0  0  0  0  0  0  0
   32.6847    5.2852   32.7436 C   0  0  0  0  0  0  0  0  0  0  0  0
   33.1550    6.5089   32.2520 C   0  0  0  0  0  0  0  0  0  0  0  0
   32.6164    7.7116   32.7156 C   0  0  0  0  0  0  0  0  0  0  0  0
   31.5951    7.6937   33.6697 C   0  0  0  0  0  0  0  0  0  0  0  0
   27.3592    3.8785   33.9837 O   0  0  0  0  0  0  0  0  0  0  0  0
   28.1880    3.0846   34.8313 C   0  0  0  0  0  0  0  0  0  0  0  0
   20.9834    6.1876   30.2512 C   0  0  0  0  0  0  0  0  0  0  0  0
   20.2892    5.0029   30.3809 N   0  0  0  0  0  0  0  0  0  0  0  0
   21.1151    3.8966   30.7777 C   0  0  0  0  0  0  0  0  0  0  0  0
   20.4883    7.2535   29.9446 O   0  0  0  0  0  0  0  0  0  0  0  0
   28.1895    3.5279   30.6434 C   0  0  0  0  0  0  0  0  0  0  0  0
   26.0516   -0.5780   32.7598 H   0  0  0  0  0  0  0  0  0  0  0  0
   27.2725    1.5352   32.4881 H   0  0  0  0  0  0  0  0  0  0  0  0
   22.3859    1.3089   31.5934 H   0  0  0  0  0  0  0  0  0  0  0  0
   23.6244   -0.7063   32.3107 H   0  0  0  0  0  0  0  0  0  0  0  0
   26.7850    9.8030   30.6103 H   0  0  0  0  0  0  0  0  0  0  0  0
   25.3788   11.7002   29.8760 H   0  0  0  0  0  0  0  0  0  0  0  0
   22.9719   11.3826   29.4322 H   0  0  0  0  0  0  0  0  0  0  0  0
   21.9167    9.1652   29.7116 H   0  0  0  0  0  0  0  0  0  0  0  0
   26.1782    6.4822   33.4186 H   0  0  0  0  0  0  0  0  0  0  0  0
   27.1556    7.9298   33.3131 H   0  0  0  0  0  0  0  0  0  0  0  0
   29.0818    4.1345   32.8676 H   0  0  0  0  0  0  0  0  0  0  0  0
   29.1186    6.4425   32.7151 H   0  0  0  0  0  0  0  0  0  0  0  0
   27.6344    7.6903   31.0400 H   0  0  0  0  0  0  0  0  0  0  0  0
   26.9038    5.6810   35.6270 H   0  0  0  0  0  0  0  0  0  0  0  0
   27.2692    7.4218   35.7420 H   0  0  0  0  0  0  0  0  0  0  0  0
   28.1056    6.2636   36.7943 H   0  0  0  0  0  0  0  0  0  0  0  0
   31.3251    4.3122   34.1105 H   0  0  0  0  0  0  0  0  0  0  0  0
   33.1261    4.3543   32.3944 H   0  0  0  0  0  0  0  0  0  0  0  0
   33.9626    6.5279   31.5178 H   0  0  0  0  0  0  0  0  0  0  0  0
   33.0027    8.6626   32.3469 H   0  0  0  0  0  0  0  0  0  0  0  0
   31.1867    8.6266   34.0493 H   0  0  0  0  0  0  0  0  0  0  0  0
   28.8995    3.7049   35.3806 H   0  0  0  0  0  0  0  0  0  0  0  0
   27.5468    2.5595   35.5476 H   0  0  0  0  0  0  0  0  0  0  0  0
   28.7307    2.3346   34.2481 H   0  0  0  0  0  0  0  0  0  0  0  0
   19.2868    4.9715   30.2394 H   0  0  0  0  0  0  0  0  0  0  0  0
   21.0695    3.1207   30.0086 H   0  0  0  0  0  0  0  0  0  0  0  0
   20.7644    3.5216   31.7417 H   0  0  0  0  0  0  0  0  0  0  0  0
   27.6480    3.2892   29.7187 H   0  0  0  0  0  0  0  0  0  0  0  0
   28.4656    2.5896   31.1236 H   0  0  0  0  0  0  0  0  0  0  0  0
   29.1259    4.0170   30.3356 H   0  0  0  0  0  0  0  0  0  0  0  0
  6  1  2  0
  2  3  2  0
  4  5  2  0
  1  8  1  0
  2  1  1  0
  7  2  1  0
  7  9  1  0
 10  3  1  0
  4  3  1  0
 12  4  1  0
 10 11  1  0
 14  9  1  0
  9  8  2  0
  8 15  1  0
 13 14  2  0
 16 13  1  0
 15 16  2  0
 11 17  1  0
 12 11  2  0
 20 12  1  0
 17 18  2  0
 18 19  1  0
 19 20  2  0
 10 25  1  0
 25 21  1  0
  7 26  1  0
 26 21  1  0
 25 22  1  0
 26 23  1  0
 22 24  1  0
 23 24  1  0
 24 27  1  0
 27 28  1  0
 27 29  1  0
 28 30  2  0
 28 31  1  0
 32 31  2  0
 36 31  1  0
 32 33  1  0
 33 34  2  0
 34 35  1  0
 35 36  2  0
 23 37  1  0
 37 38  1  0
  5 39  1  0
  6  5  1  0
  6 41  1  0
 39 40  1  0
 40 41  1  0
 39 42  2  0
 26 43  1  6
 13 44  1  0
 14 45  1  0
 15 46  1  0
 16 47  1  0
 17 48  1  0
 18 49  1  0
 19 50  1  0
 20 51  1  0
 22 52  1  0
 22 53  1  0
 23 54  1  6
 24 55  1  6
 25 56  1  6
 29 57  1  0
 29 58  1  0
 29 59  1  0
 32 60  1  0
 33 61  1  0
 34 62  1  0
 35 63  1  0
 36 64  1  0
 38 65  1  0
 38 66  1  0
 38 67  1  0
 40 68  1  0
 41 69  1  0
 41 70  1  0
 43 71  1  0
 43 72  1  0
 43 73  1  0
M  END
> <Uni-Dock RESULT> 
ENERGY=   -4.363  LOWER_BOUND=   10.257  UPPER_BOUND=   13.220
INTER + INTRA:          -4.363
INTER:                  -4.363
INTRA:                   0.000
UNBOUND:                 0.000

$$$$

     RDKit          3D

 73 81  0  0  0  0  0  0  0  0999 V2000
   24.2320    6.1693   30.9258 C   0  0  0  0  0  0  0  0  0  0  0  0
   25.1127    5.2207   31.4125 C   0  0  0  0  0  0  0  0  0  0  0  0
   24.6375    3.7481   31.5573 C   0  0  0  0  0  0  0  0  0  0  0  0
   23.3521    3.3464   31.2501 C   0  0  0  0  0  0  0  0  0  0  0  0
   22.5233    4.3725   30.7759 C   0  0  0  0  0  0  0  0  0  0  0  0
   22.9309    5.7324   30.6083 C   0  0  0  0  0  0  0  0  0  0  0  0
   26.3264    5.7925   31.7155 N   0  0  0  0  0  0  0  0  0  0  0  0
   24.9477    7.3927   30.8764 C   0  0  0  0  0  0  0  0  0  0  0  0
   26.2498    7.1463   31.3475 C   0  0  0  0  0  0  0  0  0  0  0  0
   25.3705    2.6809   31.9569 N   0  0  0  0  0  0  0  0  0  0  0  0
   24.5786    1.5519   31.9801 C   0  0  0  0  0  0  0  0  0  0  0  0
   23.3021    1.9439   31.5329 C   0  0  0  0  0  0  0  0  0  0  0  0
   26.8229    9.4729   30.9586 C   0  0  0  0  0  0  0  0  0  0  0  0
   27.1956    8.1907   31.3818 C   0  0  0  0  0  0  0  0  0  0  0  0
   24.5952    8.6988   30.4624 C   0  0  0  0  0  0  0  0  0  0  0  0
   25.5359    9.7288   30.5089 C   0  0  0  0  0  0  0  0  0  0  0  0
   24.8698    0.2241   32.3451 C   0  0  0  0  0  0  0  0  0  0  0  0
   23.8482   -0.7226   32.2640 C   0  0  0  0  0  0  0  0  0  0  0  0
   22.5784   -0.3644   31.8242 C   0  0  0  0  0  0  0  0  0  0  0  0
   22.2965    0.9568   31.4555 C   0  0  0  0  0  0  0  0  0  0  0  0
   27.0363    3.9019   33.0519 O   0  0  0  0  0  0  0  0  0  0  0  0
   27.6233    2.7287   30.9427 C   0  0  0  0  0  0  0  0  0  0  0  0
   28.7709    4.8896   31.5460 C   0  0  2  0  0  0  0  0  0  0  0  0
   28.9671    3.3725   31.2407 C   0  0  2  0  0  0  0  0  0  0  0  0
   26.7924    2.7665   32.2198 C   0  0  2  0  0  0  0  0  0  0  0  0
   27.4643    5.1324   32.4133 C   0  0  1  0  0  0  0  0  0  0  0  0
   30.0018    3.0739   30.2117 N   0  0  0  0  0  0  0  0  0  0  0  0
   31.3238    2.7146   30.4978 C   0  0  0  0  0  0  0  0  0  0  0  0
   29.6078    3.0753   28.8014 C   0  0  0  0  0  0  0  0  0  0  0  0
   32.1715    2.4391   29.6542 O   0  0  0  0  0  0  0  0  0  0  0  0
   31.7378    2.6042   31.9087 C   0  0  0  0  0  0  0  0  0  0  0  0
   32.1406    3.7352   32.6245 C   0  0  0  0  0  0  0  0  0  0  0  0
   32.5420    3.5949   33.9576 C   0  0  0  0  0  0  0  0  0  0  0  0
   32.5543    2.3290   34.5556 C   0  0  0  0  0  0  0  0  0  0  0  0
   32.1713    1.1994   33.8285 C   0  0  0  0  0  0  0  0  0  0  0  0
   31.7641    1.3343   32.4982 C   0  0  0  0  0  0  0  0  0  0  0  0
   28.7389    5.6660   30.3346 O   0  0  0  0  0  0  0  0  0  0  0  0
   29.9682    6.3292   30.0434 C   0  0  0  0  0  0  0  0  0  0  0  0
   21.1236    4.2798   30.3381 C   0  0  0  0  0  0  0  0  0  0  0  0
   20.7351    5.5429   29.9431 N   0  0  0  0  0  0  0  0  0  0  0  0
   21.7780    6.5241   30.0580 C   0  0  0  0  0  0  0  0  0  0  0  0
   20.4152    3.2937   30.3091 O   0  0  0  0  0  0  0  0  0  0  0  0
   27.8505    5.9638   33.6651 C   0  0  0  0  0  0  0  0  0  0  0  0
   27.5567   10.2765   30.9778 H   0  0  0  0  0  0  0  0  0  0  0  0
   28.2147    8.0266   31.7089 H   0  0  0  0  0  0  0  0  0  0  0  0
   23.5925    8.9078   30.1001 H   0  0  0  0  0  0  0  0  0  0  0  0
   25.2604   10.7301   30.1835 H   0  0  0  0  0  0  0  0  0  0  0  0
   25.8537   -0.0713   32.6945 H   0  0  0  0  0  0  0  0  0  0  0  0
   24.0476   -1.7542   32.5492 H   0  0  0  0  0  0  0  0  0  0  0  0
   21.7946   -1.1159   31.7697 H   0  0  0  0  0  0  0  0  0  0  0  0
   21.2958    1.2156   31.1184 H   0  0  0  0  0  0  0  0  0  0  0  0
   27.1234    3.2502   30.1179 H   0  0  0  0  0  0  0  0  0  0  0  0
   27.7354    1.6889   30.6179 H   0  0  0  0  0  0  0  0  0  0  0  0
   29.6410    5.2060   32.1383 H   0  0  0  0  0  0  0  0  0  0  0  0
   29.3141    2.9163   32.1750 H   0  0  0  0  0  0  0  0  0  0  0  0
   27.0567    1.9038   32.8419 H   0  0  0  0  0  0  0  0  0  0  0  0
   28.9354    3.9100   28.5926 H   0  0  0  0  0  0  0  0  0  0  0  0
   29.0931    2.1346   28.5858 H   0  0  0  0  0  0  0  0  0  0  0  0
   30.4744    3.1542   28.1383 H   0  0  0  0  0  0  0  0  0  0  0  0
   32.1641    4.7136   32.1494 H   0  0  0  0  0  0  0  0  0  0  0  0
   32.8642    4.4660   34.5240 H   0  0  0  0  0  0  0  0  0  0  0  0
   32.8857    2.2173   35.5897 H   0  0  0  0  0  0  0  0  0  0  0  0
   32.2055    0.2126   34.2919 H   0  0  0  0  0  0  0  0  0  0  0  0
   31.4849    0.4564   31.9215 H   0  0  0  0  0  0  0  0  0  0  0  0
   30.7756    5.6113   29.8842 H   0  0  0  0  0  0  0  0  0  0  0  0
   29.8335    6.9211   29.1316 H   0  0  0  0  0  0  0  0  0  0  0  0
   30.2402    7.0118   30.8541 H   0  0  0  0  0  0  0  0  0  0  0  0
   19.8058    5.7081   29.5757 H   0  0  0  0  0  0  0  0  0  0  0  0
   21.4549    7.3128   30.7429 H   0  0  0  0  0  0  0  0  0  0  0  0
   21.9972    6.9247   29.0658 H   0  0  0  0  0  0  0  0  0  0  0  0
   26.9576    6.2878   34.2155 H   0  0  0  0  0  0  0  0  0  0  0  0
   28.4403    6.8491   33.4293 H   0  0  0  0  0  0  0  0  0  0  0  0
   28.4453    5.3616   34.3683 H   0  0  0  0  0  0  0  0  0  0  0  0
  6  1  2  0
  2  3  2  0
  4  5  2  0
  1  8  1  0
  2  1  1  0
  7  2  1  0
  7  9  1  0
 10  3  1  0
  4  3  1  0
 12  4  1  0
 10 11  1  0
 14  9  1  0
  9  8  2  0
  8 15  1  0
 13 14  2  0
 16 13  1  0
 15 16  2  0
 11 17  1  0
 12 11  2  0
 20 12  1  0
 17 18  2  0
 18 19  1  0
 19 20  2  0
 10 25  1  0
 25 21  1  0
  7 26  1  0
 26 21  1  0
 25 22  1  0
 26 23  1  0
 22 24  1  0
 23 24  1  0
 24 27  1  0
 27 28  1  0
 27 29  1  0
 28 30  2  0
 28 31  1  0
 32 31  2  0
 36 31  1  0
 32 33  1  0
 33 34  2  0
 34 35  1  0
 35 36  2  0
 23 37  1  0
 37 38  1  0
  5 39  1  0
  6  5  1  0
  6 41  1  0
 39 40  1  0
 40 41  1  0
 39 42  2  0
 26 43  1  6
 13 44  1  0
 14 45  1  0
 15 46  1  0
 16 47  1  0
 17 48  1  0
 18 49  1  0
 19 50  1  0
 20 51  1  0
 22 52  1  0
 22 53  1  0
 23 54  1  6
 24 55  1  6
 25 56  1  6
 29 57  1  0
 29 58  1  0
 29 59  1  0
 32 60  1  0
 33 61  1  0
 34 62  1  0
 35 63  1  0
 36 64  1  0
 38 65  1  0
 38 66  1  0
 38 67  1  0
 40 68  1  0
 41 69  1  0
 41 70  1  0
 43 71  1  0
 43 72  1  0
 43 73  1  0
M  END
> <Uni-Dock RESULT> 
ENERGY=   -4.317  LOWER_BOUND=   10.679  UPPER_BOUND=   13.294
INTER + INTRA:          -4.317
INTER:                  -4.317
INTRA:                   0.000
UNBOUND:                 0.000

$$$$

     RDKit          3D

 73 81  0  0  0  0  0  0  0  0999 V2000
   23.4040    6.0705   30.7290 C   0  0  0  0  0  0  0  0  0  0  0  0
   24.4122    5.3382   31.3288 C   0  0  0  0  0  0  0  0  0  0  0  0
   24.2451    3.8007   31.4813 C   0  0  0  0  0  0  0  0  0  0  0  0
   23.1093    3.1303   31.0706 C   0  0  0  0  0  0  0  0  0  0  0  0
   22.1341    3.9495   30.4853 C   0  0  0  0  0  0  0  0  0  0  0  0
   22.2613    5.3623   30.3079 C   0  0  0  0  0  0  0  0  0  0  0  0
   25.4428    6.1595   31.7226 N   0  0  0  0  0  0  0  0  0  0  0  0
   23.8480    7.4172   30.7027 C   0  0  0  0  0  0  0  0  0  0  0  0
   25.1201    7.4604   31.3010 C   0  0  0  0  0  0  0  0  0  0  0  0
   25.1430    2.9199   31.9850 N   0  0  0  0  0  0  0  0  0  0  0  0
   24.6076    1.6488   31.9748 C   0  0  0  0  0  0  0  0  0  0  0  0
   23.3275    1.7537   31.3974 C   0  0  0  0  0  0  0  0  0  0  0  0
   25.2271    9.8494   30.8843 C   0  0  0  0  0  0  0  0  0  0  0  0
   25.8173    8.6823   31.3858 C   0  0  0  0  0  0  0  0  0  0  0  0
   23.2714    8.6121   30.2114 C   0  0  0  0  0  0  0  0  0  0  0  0
   23.9655    9.8191   30.3083 C   0  0  0  0  0  0  0  0  0  0  0  0
   25.1339    0.4190   32.4124 C   0  0  0  0  0  0  0  0  0  0  0  0
   24.3470   -0.7243   32.2706 C   0  0  0  0  0  0  0  0  0  0  0  0
   23.0798   -0.6510   31.7024 C   0  0  0  0  0  0  0  0  0  0  0  0
   22.5642    0.5744   31.2622 C   0  0  0  0  0  0  0  0  0  0  0  0
   26.3992    4.4835   33.1857 O   0  0  0  0  0  0  0  0  0  0  0  0
   27.4239    3.4300   31.1833 C   0  0  0  0  0  0  0  0  0  0  0  0
   28.0270    5.7944   31.8131 C   0  0  2  0  0  0  0  0  0  0  0  0
   28.5666    4.3491   31.5815 C   0  0  2  0  0  0  0  0  0  0  0  0
   26.4823    3.3097   32.3756 C   0  0  2  0  0  0  0  0  0  0  0  0
   26.6198    5.7671   32.5461 C   0  0  1  0  0  0  0  0  0  0  0  0
   29.7370    4.2617   30.6644 N   0  0  0  0  0  0  0  0  0  0  0  0
   31.0703    4.1960   31.0845 C   0  0  0  0  0  0  0  0  0  0  0  0
   29.4920    4.1579   29.2244 C   0  0  0  0  0  0  0  0  0  0  0  0
   32.0356    4.0941   30.3336 O   0  0  0  0  0  0  0  0  0  0  0  0
   31.3575    4.1976   32.5308 C   0  0  0  0  0  0  0  0  0  0  0  0
   31.4414    5.3991   33.2401 C   0  0  0  0  0  0  0  0  0  0  0  0
   31.7303    5.3675   34.6089 C   0  0  0  0  0  0  0  0  0  0  0  0
   31.9495    4.1424   35.2502 C   0  0  0  0  0  0  0  0  0  0  0  0
   31.8857    2.9463   34.5314 C   0  0  0  0  0  0  0  0  0  0  0  0
   31.5919    2.9713   33.1651 C   0  0  0  0  0  0  0  0  0  0  0  0
   27.9519    6.5277   30.5770 O   0  0  0  0  0  0  0  0  0  0  0  0
   29.0369    7.4326   30.3777 C   0  0  0  0  0  0  0  0  0  0  0  0
   20.8351    3.5548   29.9230 C   0  0  0  0  0  0  0  0  0  0  0  0
   20.2306    4.7004   29.4489 N   0  0  0  0  0  0  0  0  0  0  0  0
   21.0277    5.8824   29.6250 C   0  0  0  0  0  0  0  0  0  0  0  0
   20.3560    2.4403   29.8636 O   0  0  0  0  0  0  0  0  0  0  0  0
   26.6979    6.6804   33.7979 C   0  0  0  0  0  0  0  0  0  0  0  0
   25.7701   10.7908   30.9429 H   0  0  0  0  0  0  0  0  0  0  0  0
   26.8110    8.7436   31.8117 H   0  0  0  0  0  0  0  0  0  0  0  0
   22.2878    8.5977   29.7504 H   0  0  0  0  0  0  0  0  0  0  0  0
   23.5191   10.7339   29.9232 H   0  0  0  0  0  0  0  0  0  0  0  0
   26.1187    0.3448   32.8619 H   0  0  0  0  0  0  0  0  0  0  0  0
   24.7297   -1.6856   32.6098 H   0  0  0  0  0  0  0  0  0  0  0  0
   22.4807   -1.5526   31.6022 H   0  0  0  0  0  0  0  0  0  0  0  0
   21.5696    0.6094   30.8247 H   0  0  0  0  0  0  0  0  0  0  0  0
   26.9092    3.8208   30.2976 H   0  0  0  0  0  0  0  0  0  0  0  0
   27.7834    2.4330   30.9075 H   0  0  0  0  0  0  0  0  0  0  0  0
   28.7487    6.2974   32.4719 H   0  0  0  0  0  0  0  0  0  0  0  0
   28.9082    3.9913   32.5597 H   0  0  0  0  0  0  0  0  0  0  0  0
   26.8595    2.5324   33.0499 H   0  0  0  0  0  0  0  0  0  0  0  0
   28.6831    4.8274   28.9244 H   0  0  0  0  0  0  0  0  0  0  0  0
   29.2101    3.1261   28.9957 H   0  0  0  0  0  0  0  0  0  0  0  0
   30.3835    4.4091   28.6422 H   0  0  0  0  0  0  0  0  0  0  0  0
   31.3054    6.3528   32.7347 H   0  0  0  0  0  0  0  0  0  0  0  0
   31.8051    6.2957   35.1714 H   0  0  0  0  0  0  0  0  0  0  0  0
   32.1937    4.1193   36.3139 H   0  0  0  0  0  0  0  0  0  0  0  0
   32.0807    1.9964   35.0308 H   0  0  0  0  0  0  0  0  0  0  0  0
   31.5614    2.0455   32.5966 H   0  0  0  0  0  0  0  0  0  0  0  0
   29.9888    6.9003   30.3198 H   0  0  0  0  0  0  0  0  0  0  0  0
   28.8711    7.9684   29.4368 H   0  0  0  0  0  0  0  0  0  0  0  0
   29.0785    8.1696   31.1852 H   0  0  0  0  0  0  0  0  0  0  0  0
   19.3281    4.6586   28.9912 H   0  0  0  0  0  0  0  0  0  0  0  0
   20.4804    6.5947   30.2485 H   0  0  0  0  0  0  0  0  0  0  0  0
   21.2542    6.3054   28.6439 H   0  0  0  0  0  0  0  0  0  0  0  0
   25.7071    6.8155   34.2512 H   0  0  0  0  0  0  0  0  0  0  0  0
   27.1087    7.6671   33.5864 H   0  0  0  0  0  0  0  0  0  0  0  0
   27.3338    6.2291   34.5743 H   0  0  0  0  0  0  0  0  0  0  0  0
  6  1  2  0
  2  3  2  0
  4  5  2  0
  1  8  1  0
  2  1  1  0
  7  2  1  0
  7  9  1  0
 10  3  1  0
  4  3  1  0
 12  4  1  0
 10 11  1  0
 14  9  1  0
  9  8  2  0
  8 15  1  0
 13 14  2  0
 16 13  1  0
 15 16  2  0
 11 17  1  0
 12 11  2  0
 20 12  1  0
 17 18  2  0
 18 19  1  0
 19 20  2  0
 10 25  1  0
 25 21  1  0
  7 26  1  0
 26 21  1  0
 25 22  1  0
 26 23  1  0
 22 24  1  0
 23 24  1  0
 24 27  1  0
 27 28  1  0
 27 29  1  0
 28 30  2  0
 28 31  1  0
 32 31  2  0
 36 31  1  0
 32 33  1  0
 33 34  2  0
 34 35  1  0
 35 36  2  0
 23 37  1  0
 37 38  1  0
  5 39  1  0
  6  5  1  0
  6 41  1  0
 39 40  1  0
 40 41  1  0
 39 42  2  0
 26 43  1  6
 13 44  1  0
 14 45  1  0
 15 46  1  0
 16 47  1  0
 17 48  1  0
 18 49  1  0
 19 50  1  0
 20 51  1  0
 22 52  1  0
 22 53  1  0
 23 54  1  6
 24 55  1  6
 25 56  1  6
 29 57  1  0
 29 58  1  0
 29 59  1  0
 32 60  1  0
 33 61  1  0
 34 62  1  0
 35 63  1  0
 36 64  1  0
 38 65  1  0
 38 66  1  0
 38 67  1  0
 40 68  1  0
 41 69  1  0
 41 70  1  0
 43 71  1  0
 43 72  1  0
 43 73  1  0
M  END
> <Uni-Dock RESULT> 
ENERGY=   -4.293  LOWER_BOUND=   10.599  UPPER_BOUND=   13.047
INTER + INTRA:          -4.293
INTER:                  -4.293
INTRA:                   0.000
UNBOUND:                 0.000

$$$$

     RDKit          3D

 73 81  0  0  0  0  0  0  0  0999 V2000
   27.0332    8.7950   31.4010 C   0  0  0  0  0  0  0  0  0  0  0  0
   26.8321    7.4530   31.6679 C   0  0  0  0  0  0  0  0  0  0  0  0
   25.4683    6.8032   31.3031 C   0  0  0  0  0  0  0  0  0  0  0  0
   24.4257    7.5203   30.7494 C   0  0  0  0  0  0  0  0  0  0  0  0
   24.7106    8.8741   30.5237 C   0  0  0  0  0  0  0  0  0  0  0  0
   25.9592    9.5015   30.8250 C   0  0  0  0  0  0  0  0  0  0  0  0
   27.9438    6.9024   32.2618 N   0  0  0  0  0  0  0  0  0  0  0  0
   28.3600    9.0897   31.8062 C   0  0  0  0  0  0  0  0  0  0  0  0
   28.9238    7.9076   32.3188 C   0  0  0  0  0  0  0  0  0  0  0  0
   25.1136    5.5022   31.4354 N   0  0  0  0  0  0  0  0  0  0  0  0
   23.8078    5.3296   31.0259 C   0  0  0  0  0  0  0  0  0  0  0  0
   23.3531    6.5868   30.5831 C   0  0  0  0  0  0  0  0  0  0  0  0
   31.0072    9.0857   32.7241 C   0  0  0  0  0  0  0  0  0  0  0  0
   30.2578    7.9033   32.7736 C   0  0  0  0  0  0  0  0  0  0  0  0
   29.1364   10.2720   31.7748 C   0  0  0  0  0  0  0  0  0  0  0  0
   30.4536   10.2603   32.2363 C   0  0  0  0  0  0  0  0  0  0  0  0
   22.9901    4.1844   30.9975 C   0  0  0  0  0  0  0  0  0  0  0  0
   21.6858    4.3156   30.5200 C   0  0  0  0  0  0  0  0  0  0  0  0
   21.2104    5.5442   30.0746 C   0  0  0  0  0  0  0  0  0  0  0  0
   22.0310    6.6788   30.0985 C   0  0  0  0  0  0  0  0  0  0  0  0
   26.7345    4.9485   33.0261 O   0  0  0  0  0  0  0  0  0  0  0  0
   26.9553    4.0104   30.7368 C   0  0  0  0  0  0  0  0  0  0  0  0
   29.0156    4.5270   32.0929 C   0  0  2  0  0  0  0  0  0  0  0  0
   28.2047    3.4127   31.3622 C   0  0  2  0  0  0  0  0  0  0  0  0
   26.0454    4.4802   31.8656 C   0  0  2  0  0  0  0  0  0  0  0  0
   28.0486    5.5361   32.8447 C   0  0  1  0  0  0  0  0  0  0  0  0
   28.9997    2.5873   30.4107 N   0  0  0  0  0  0  0  0  0  0  0  0
   29.5549    1.3395   30.7161 C   0  0  0  0  0  0  0  0  0  0  0  0
   29.1561    3.0612   29.0340 C   0  0  0  0  0  0  0  0  0  0  0  0
   30.1854    0.6428   29.9266 O   0  0  0  0  0  0  0  0  0  0  0  0
   29.3376    0.7784   32.0623 C   0  0  0  0  0  0  0  0  0  0  0  0
   30.1646    1.1422   33.1287 C   0  0  0  0  0  0  0  0  0  0  0  0
   29.9415    0.5805   34.3908 C   0  0  0  0  0  0  0  0  0  0  0  0
   28.9101   -0.3490   34.5712 C   0  0  0  0  0  0  0  0  0  0  0  0
   28.1006   -0.7249   33.4966 C   0  0  0  0  0  0  0  0  0  0  0  0
   28.3152   -0.1629   32.2349 C   0  0  0  0  0  0  0  0  0  0  0  0
   29.8829    5.2248   31.1806 O   0  0  0  0  0  0  0  0  0  0  0  0
   31.2439    4.8008   31.2420 C   0  0  0  0  0  0  0  0  0  0  0  0
   23.8407    9.8978   29.9282 C   0  0  0  0  0  0  0  0  0  0  0  0
   24.5581   11.0755   29.8979 N   0  0  0  0  0  0  0  0  0  0  0  0
   25.8901   10.9472   30.4202 C   0  0  0  0  0  0  0  0  0  0  0  0
   22.7036    9.7659   29.5222 O   0  0  0  0  0  0  0  0  0  0  0  0
   28.5012    5.6429   34.3249 C   0  0  0  0  0  0  0  0  0  0  0  0
   32.0398    9.0789   33.0679 H   0  0  0  0  0  0  0  0  0  0  0  0
   30.7310    7.0026   33.1443 H   0  0  0  0  0  0  0  0  0  0  0  0
   28.7153   11.1951   31.3864 H   0  0  0  0  0  0  0  0  0  0  0  0
   31.0477   11.1716   32.2042 H   0  0  0  0  0  0  0  0  0  0  0  0
   23.3437    3.2193   31.3453 H   0  0  0  0  0  0  0  0  0  0  0  0
   21.0320    3.4452   30.4965 H   0  0  0  0  0  0  0  0  0  0  0  0
   20.1904    5.6271   29.7078 H   0  0  0  0  0  0  0  0  0  0  0  0
   21.6376    7.6302   29.7493 H   0  0  0  0  0  0  0  0  0  0  0  0
   27.2210    4.8322   30.0613 H   0  0  0  0  0  0  0  0  0  0  0  0
   26.4190    3.2781   30.1242 H   0  0  0  0  0  0  0  0  0  0  0  0
   29.6374    4.0212   32.8449 H   0  0  0  0  0  0  0  0  0  0  0  0
   27.8486    2.7326   32.1445 H   0  0  0  0  0  0  0  0  0  0  0  0
   25.4500    3.6307   32.2195 H   0  0  0  0  0  0  0  0  0  0  0  0
   29.3364    4.1381   29.0180 H   0  0  0  0  0  0  0  0  0  0  0  0
   28.2350    2.8413   28.4866 H   0  0  0  0  0  0  0  0  0  0  0  0
   29.9869    2.5631   28.5256 H   0  0  0  0  0  0  0  0  0  0  0  0
   30.9877    1.8379   32.9808 H   0  0  0  0  0  0  0  0  0  0  0  0
   30.5820    0.8498   35.2279 H   0  0  0  0  0  0  0  0  0  0  0  0
   28.7485   -0.8013   35.5515 H   0  0  0  0  0  0  0  0  0  0  0  0
   27.3138   -1.4671   33.6372 H   0  0  0  0  0  0  0  0  0  0  0  0
   27.7020   -0.4671   31.3907 H   0  0  0  0  0  0  0  0  0  0  0  0
   31.3428    3.7503   30.9604 H   0  0  0  0  0  0  0  0  0  0  0  0
   31.8277    5.4123   30.5456 H   0  0  0  0  0  0  0  0  0  0  0  0
   31.6498    4.9498   32.2471 H   0  0  0  0  0  0  0  0  0  0  0  0
   24.1577   11.9161   29.4993 H   0  0  0  0  0  0  0  0  0  0  0  0
   26.0073   11.6206   31.2737 H   0  0  0  0  0  0  0  0  0  0  0  0
   26.6045   11.1819   29.6281 H   0  0  0  0  0  0  0  0  0  0  0  0
   27.9606    6.4431   34.8469 H   0  0  0  0  0  0  0  0  0  0  0  0
   29.5689    5.8294   34.4366 H   0  0  0  0  0  0  0  0  0  0  0  0
   28.2803    4.7136   34.8711 H   0  0  0  0  0  0  0  0  0  0  0  0
  6  1  2  0
  2  3  2  0
  4  5  2  0
  1  8  1  0
  2  1  1  0
  7  2  1  0
  7  9  1  0
 10  3  1  0
  4  3  1  0
 12  4  1  0
 10 11  1  0
 14  9  1  0
  9  8  2  0
  8 15  1  0
 13 14  2  0
 16 13  1  0
 15 16  2  0
 11 17  1  0
 12 11  2  0
 20 12  1  0
 17 18  2  0
 18 19  1  0
 19 20  2  0
 10 25  1  0
 25 21  1  0
  7 26  1  0
 26 21  1  0
 25 22  1  0
 26 23  1  0
 22 24  1  0
 23 24  1  0
 24 27  1  0
 27 28  1  0
 27 29  1  0
 28 30  2  0
 28 31  1  0
 32 31  2  0
 36 31  1  0
 32 33  1  0
 33 34  2  0
 34 35  1  0
 35 36  2  0
 23 37  1  0
 37 38  1  0
  5 39  1  0
  6  5  1  0
  6 41  1  0
 39 40  1  0
 40 41  1  0
 39 42  2  0
 26 43  1  6
 13 44  1  0
 14 45  1  0
 15 46  1  0
 16 47  1  0
 17 48  1  0
 18 49  1  0
 19 50  1  0
 20 51  1  0
 22 52  1  0
 22 53  1  0
 23 54  1  6
 24 55  1  6
 25 56  1  6
 29 57  1  0
 29 58  1  0
 29 59  1  0
 32 60  1  0
 33 61  1  0
 34 62  1  0
 35 63  1  0
 36 64  1  0
 38 65  1  0
 38 66  1  0
 38 67  1  0
 40 68  1  0
 41 69  1  0
 41 70  1  0
 43 71  1  0
 43 72  1  0
 43 73  1  0
M  END
> <Uni-Dock RESULT> 
ENERGY=   -4.244  LOWER_BOUND=    9.793  UPPER_BOUND=   12.934
INTER + INTRA:          -4.244
INTER:                  -4.244
INTRA:                   0.000
UNBOUND:                 0.000

$$$$
