
     RDKit          3D

 73 81  0  0  0  0  0  0  0  0999 V2000
   30.1814    9.2889   28.7721 C   0  0  0  0  0  0  0  0  0  0  0  0
   29.4030    8.8252   29.8108 C   0  0  0  0  0  0  0  0  0  0  0  0
   27.8691    9.1018   29.8373 C   0  0  0  0  0  0  0  0  0  0  0  0
   27.2529    9.8191   28.8249 C   0  0  0  0  0  0  0  0  0  0  0  0
   28.1186   10.2806   27.8212 C   0  0  0  0  0  0  0  0  0  0  0  0
   29.5270   10.0381   27.7803 C   0  0  0  0  0  0  0  0  0  0  0  0
   30.1705    8.1159   30.6997 N   0  0  0  0  0  0  0  0  0  0  0  0
   31.4969    8.8047   29.0097 C   0  0  0  0  0  0  0  0  0  0  0  0
   31.4615    8.0203   30.1789 C   0  0  0  0  0  0  0  0  0  0  0  0
   26.9490    8.7275   30.7673 N   0  0  0  0  0  0  0  0  0  0  0  0
   25.6947    9.1602   30.3628 C   0  0  0  0  0  0  0  0  0  0  0  0
   25.8622    9.8524   29.1518 C   0  0  0  0  0  0  0  0  0  0  0  0
   33.7951    7.4530   29.8670 C   0  0  0  0  0  0  0  0  0  0  0  0
   32.6084    7.3174   30.5959 C   0  0  0  0  0  0  0  0  0  0  0  0
   32.7101    8.9253   28.2963 C   0  0  0  0  0  0  0  0  0  0  0  0
   33.8514    8.2545   28.7369 C   0  0  0  0  0  0  0  0  0  0  0  0
   24.4323    9.0082   30.9650 C   0  0  0  0  0  0  0  0  0  0  0  0
   23.3206    9.5654   30.3293 C   0  0  0  0  0  0  0  0  0  0  0  0
   23.4583   10.2552   29.1321 C   0  0  0  0  0  0  0  0  0  0  0  0
   24.7163   10.4038   28.5385 C   0  0  0  0  0  0  0  0  0  0  0  0
   28.5827    8.3595   32.4512 O   0  0  0  0  0  0  0  0  0  0  0  0
   26.7922    6.6400   32.2099 C   0  0  0  0  0  0  0  0  0  0  0  0
   29.1624    6.0184   31.6938 C   0  0  2  0  0  0  0  0  0  0  0  0
   27.9703    5.7627   32.6422 C   0  0  2  0  0  0  0  0  0  0  0  0
   27.2342    8.1012   32.0525 C   0  0  2  0  0  0  0  0  0  0  0  0
   29.6272    7.4989   31.9232 C   0  0  1  0  0  0  0  0  0  0  0  0
   27.6534    4.3279   32.8626 N   0  0  0  0  0  0  0  0  0  0  0  0
   27.0084    3.5659   31.8824 C   0  0  0  0  0  0  0  0  0  0  0  0
   28.1513    3.7480   34.1089 C   0  0  0  0  0  0  0  0  0  0  0  0
   26.4667    4.0206   30.8814 O   0  0  0  0  0  0  0  0  0  0  0  0
   26.9526    2.0964   32.0383 C   0  0  0  0  0  0  0  0  0  0  0  0
   28.1262    1.3342   32.0127 C   0  0  0  0  0  0  0  0  0  0  0  0
   28.0480   -0.0530   32.1406 C   0  0  0  0  0  0  0  0  0  0  0  0
   26.8035   -0.6726   32.2779 C   0  0  0  0  0  0  0  0  0  0  0  0
   25.6329    0.0891   32.2774 C   0  0  0  0  0  0  0  0  0  0  0  0
   25.7044    1.4763   32.1497 C   0  0  0  0  0  0  0  0  0  0  0  0
   28.7088    5.8308   30.3450 O   0  0  0  0  0  0  0  0  0  0  0  0
   29.4520    4.8675   29.6152 C   0  0  0  0  0  0  0  0  0  0  0  0
   27.7836   11.0735   26.6285 C   0  0  0  0  0  0  0  0  0  0  0  0
   28.9535   11.2744   25.9286 N   0  0  0  0  0  0  0  0  0  0  0  0
   30.0989   10.6665   26.5443 C   0  0  0  0  0  0  0  0  0  0  0  0
   26.6971   11.4958   26.2884 O   0  0  0  0  0  0  0  0  0  0  0  0
   30.6288    7.5504   33.1026 C   0  0  0  0  0  0  0  0  0  0  0  0
   34.6860    6.9191   30.1906 H   0  0  0  0  0  0  0  0  0  0  0  0
   32.6096    6.6618   31.4559 H   0  0  0  0  0  0  0  0  0  0  0  0
   32.7588    9.5272   27.3939 H   0  0  0  0  0  0  0  0  0  0  0  0
   34.7812    8.3489   28.1817 H   0  0  0  0  0  0  0  0  0  0  0  0
   24.3064    8.4667   31.8966 H   0  0  0  0  0  0  0  0  0  0  0  0
   22.3353    9.4556   30.7756 H   0  0  0  0  0  0  0  0  0  0  0  0
   22.5853   10.6826   28.6457 H   0  0  0  0  0  0  0  0  0  0  0  0
   24.7983   10.9448   27.6003 H   0  0  0  0  0  0  0  0  0  0  0  0
   26.3205    6.2973   31.2847 H   0  0  0  0  0  0  0  0  0  0  0  0
   26.0043    6.5764   32.9720 H   0  0  0  0  0  0  0  0  0  0  0  0
   29.9854    5.3243   31.9081 H   0  0  0  0  0  0  0  0  0  0  0  0
   28.2604    6.1220   33.6385 H   0  0  0  0  0  0  0  0  0  0  0  0
   26.6411    8.6890   32.7656 H   0  0  0  0  0  0  0  0  0  0  0  0
   27.9213    4.4227   34.9389 H   0  0  0  0  0  0  0  0  0  0  0  0
   29.2350    3.6268   34.0260 H   0  0  0  0  0  0  0  0  0  0  0  0
   27.6904    2.7854   34.3369 H   0  0  0  0  0  0  0  0  0  0  0  0
   29.0916    1.8147   31.8822 H   0  0  0  0  0  0  0  0  0  0  0  0
   28.9532   -0.6553   32.1210 H   0  0  0  0  0  0  0  0  0  0  0  0
   26.7441   -1.7549   32.3704 H   0  0  0  0  0  0  0  0  0  0  0  0
   24.6649   -0.3989   32.3657 H   0  0  0  0  0  0  0  0  0  0  0  0
   24.7954    2.0727   32.1290 H   0  0  0  0  0  0  0  0  0  0  0  0
   29.0212    4.7865   28.6141 H   0  0  0  0  0  0  0  0  0  0  0  0
   30.4963    5.1764   29.5220 H   0  0  0  0  0  0  0  0  0  0  0  0
   29.3964    3.8889   30.0999 H   0  0  0  0  0  0  0  0  0  0  0  0
   28.9540   11.7939   25.0619 H   0  0  0  0  0  0  0  0  0  0  0  0
   30.5169    9.9223   25.8616 H   0  0  0  0  0  0  0  0  0  0  0  0
   30.8312   11.4429   26.7800 H   0  0  0  0  0  0  0  0  0  0  0  0
   31.3764    6.7565   33.0667 H   0  0  0  0  0  0  0  0  0  0  0  0
   30.1123    7.4438   34.0648 H   0  0  0  0  0  0  0  0  0  0  0  0
   31.1448    8.5174   33.1425 H   0  0  0  0  0  0  0  0  0  0  0  0
  6  1  2  0
  2  3  2  0
  4  5  2  0
  1  8  1  0
  2  1  1  0
  7  2  1  0
  7  9  1  0
 10  3  1  0
  4  3  1  0
 12  4  1  0
 10 11  1  0
 14  9  1  0
  9  8  2  0
  8 15  1  0
 13 14  2  0
 16 13  1  0
 15 16  2  0
 11 17  1  0
 12 11  2  0
 20 12  1  0
 17 18  2  0
 18 19  1  0
 19 20  2  0
 10 25  1  0
 25 21  1  0
  7 26  1  0
 26 21  1  0
 25 22  1  0
 26 23  1  0
 22 24  1  0
 23 24  1  0
 24 27  1  0
 27 28  1  0
 27 29  1  0
 28 30  2  0
 28 31  1  0
 32 31  2  0
 36 31  1  0
 32 33  1  0
 33 34  2  0
 34 35  1  0
 35 36  2  0
 23 37  1  0
 37 38  1  0
  5 39  1  0
  6  5  1  0
  6 41  1  0
 39 40  1  0
 40 41  1  0
 39 42  2  0
 26 43  1  6
 13 44  1  0
 14 45  1  0
 15 46  1  0
 16 47  1  0
 17 48  1  0
 18 49  1  0
 19 50  1  0
 20 51  1  0
 22 52  1  0
 22 53  1  0
 23 54  1  1
 24 55  1  6
 25 56  1  6
 29 57  1  0
 29 58  1  0
 29 59  1  0
 32 60  1  0
 33 61  1  0
 34 62  1  0
 35 63  1  0
 36 64  1  0
 38 65  1  0
 38 66  1  0
 38 67  1  0
 40 68  1  0
 41 69  1  0
 41 70  1  0
 43 71  1  0
 43 72  1  0
 43 73  1  0
M  END
> <Uni-Dock RESULT> 
ENERGY=   -5.137  LOWER_BOUND=    0.000  UPPER_BOUND=    0.000
INTER + INTRA:          -5.137
INTER:                  -5.137
INTRA:                   0.000
UNBOUND:                 0.000

$$$$

     RDKit          3D

 73 81  0  0  0  0  0  0  0  0999 V2000
   30.2482    9.2331   28.8089 C   0  0  0  0  0  0  0  0  0  0  0  0
   29.4638    8.7700   29.8433 C   0  0  0  0  0  0  0  0  0  0  0  0
   27.9312    9.0539   29.8650 C   0  0  0  0  0  0  0  0  0  0  0  0
   27.3221    9.7773   28.8526 C   0  0  0  0  0  0  0  0  0  0  0  0
   28.1937   10.2376   27.8535 C   0  0  0  0  0  0  0  0  0  0  0  0
   29.6010    9.9885   27.8169 C   0  0  0  0  0  0  0  0  0  0  0  0
   30.2246    8.0543   30.7328 N   0  0  0  0  0  0  0  0  0  0  0  0
   31.5605    8.7419   29.0498 C   0  0  0  0  0  0  0  0  0  0  0  0
   31.5170    7.9541   30.2164 C   0  0  0  0  0  0  0  0  0  0  0  0
   27.0059    8.6812   30.7905 N   0  0  0  0  0  0  0  0  0  0  0  0
   25.7551    9.1212   30.3828 C   0  0  0  0  0  0  0  0  0  0  0  0
   25.9304    9.8163   29.1745 C   0  0  0  0  0  0  0  0  0  0  0  0
   33.8490    7.3765   29.9113 C   0  0  0  0  0  0  0  0  0  0  0  0
   32.6590    7.2444   30.6354 C   0  0  0  0  0  0  0  0  0  0  0  0
   32.7769    8.8587   28.3412 C   0  0  0  0  0  0  0  0  0  0  0  0
   33.9133    8.1811   28.7839 C   0  0  0  0  0  0  0  0  0  0  0  0
   24.4898    8.9734   30.9799 C   0  0  0  0  0  0  0  0  0  0  0  0
   23.3832    9.5379   30.3418 C   0  0  0  0  0  0  0  0  0  0  0  0
   23.5286   10.2307   29.1473 C   0  0  0  0  0  0  0  0  0  0  0  0
   24.7894   10.3751   28.5587 C   0  0  0  0  0  0  0  0  0  0  0  0
   28.6315    8.3002   32.4793 O   0  0  0  0  0  0  0  0  0  0  0  0
   26.8337    6.5901   32.2262 C   0  0  0  0  0  0  0  0  0  0  0  0
   29.2028    5.9586   31.7168 C   0  0  2  0  0  0  0  0  0  0  0  0
   28.0060    5.7058   32.6601 C   0  0  2  0  0  0  0  0  0  0  0  0
   27.2833    8.0496   32.0749 C   0  0  2  0  0  0  0  0  0  0  0  0
   29.6739    7.4362   31.9524 C   0  0  1  0  0  0  0  0  0  0  0  0
   27.6814    4.2719   32.8749 N   0  0  0  0  0  0  0  0  0  0  0  0
   27.0363    3.5160   31.8900 C   0  0  0  0  0  0  0  0  0  0  0  0
   28.1720    3.6859   34.1213 C   0  0  0  0  0  0  0  0  0  0  0  0
   26.5005    3.9764   30.8885 O   0  0  0  0  0  0  0  0  0  0  0  0
   26.9729    2.0463   32.0413 C   0  0  0  0  0  0  0  0  0  0  0  0
   28.1429    1.2786   32.0176 C   0  0  0  0  0  0  0  0  0  0  0  0
   28.0576   -0.1086   32.1410 C   0  0  0  0  0  0  0  0  0  0  0  0
   26.8096   -0.7226   32.2719 C   0  0  0  0  0  0  0  0  0  0  0  0
   25.6427    0.0448   32.2694 C   0  0  0  0  0  0  0  0  0  0  0  0
   25.7213    1.4320   32.1462 C   0  0  0  0  0  0  0  0  0  0  0  0
   28.7532    5.7773   30.3658 O   0  0  0  0  0  0  0  0  0  0  0  0
   29.4944    4.8127   29.6358 C   0  0  0  0  0  0  0  0  0  0  0  0
   27.8669   11.0358   26.6620 C   0  0  0  0  0  0  0  0  0  0  0  0
   29.0403   11.2331   25.9670 N   0  0  0  0  0  0  0  0  0  0  0  0
   30.1805   10.6178   26.5850 C   0  0  0  0  0  0  0  0  0  0  0  0
   26.7837   11.4643   26.3192 O   0  0  0  0  0  0  0  0  0  0  0  0
   30.6713    7.4793   33.1356 C   0  0  0  0  0  0  0  0  0  0  0  0
   34.7361    6.8373   30.2366 H   0  0  0  0  0  0  0  0  0  0  0  0
   32.6539    6.5862   31.4934 H   0  0  0  0  0  0  0  0  0  0  0  0
   32.8318    9.4631   27.4408 H   0  0  0  0  0  0  0  0  0  0  0  0
   34.8455    8.2727   28.2324 H   0  0  0  0  0  0  0  0  0  0  0  0
   24.3580    8.4298   31.9093 H   0  0  0  0  0  0  0  0  0  0  0  0
   22.3957    9.4316   30.7842 H   0  0  0  0  0  0  0  0  0  0  0  0
   22.6594   10.6638   28.6589 H   0  0  0  0  0  0  0  0  0  0  0  0
   24.8775   10.9185   27.6225 H   0  0  0  0  0  0  0  0  0  0  0  0
   26.3638    6.2525   31.2982 H   0  0  0  0  0  0  0  0  0  0  0  0
   26.0427    6.5281   32.9852 H   0  0  0  0  0  0  0  0  0  0  0  0
   30.0216    5.2600   31.9320 H   0  0  0  0  0  0  0  0  0  0  0  0
   28.2941    6.0608   33.6585 H   0  0  0  0  0  0  0  0  0  0  0  0
   26.6904    8.6381   32.7876 H   0  0  0  0  0  0  0  0  0  0  0  0
   27.9422    4.3592   34.9525 H   0  0  0  0  0  0  0  0  0  0  0  0
   29.2554    3.5597   34.0420 H   0  0  0  0  0  0  0  0  0  0  0  0
   27.7056    2.7248   34.3446 H   0  0  0  0  0  0  0  0  0  0  0  0
   29.1111    1.7549   31.8921 H   0  0  0  0  0  0  0  0  0  0  0  0
   28.9599   -0.7152   32.1229 H   0  0  0  0  0  0  0  0  0  0  0  0
   26.7446   -1.8049   32.3608 H   0  0  0  0  0  0  0  0  0  0  0  0
   24.6721   -0.4389   32.3526 H   0  0  0  0  0  0  0  0  0  0  0  0
   24.8153    2.0328   32.1240 H   0  0  0  0  0  0  0  0  0  0  0  0
   29.0670    4.7368   28.6329 H   0  0  0  0  0  0  0  0  0  0  0  0
   30.5406    5.1169   29.5473 H   0  0  0  0  0  0  0  0  0  0  0  0
   29.4324    3.8330   30.1173 H   0  0  0  0  0  0  0  0  0  0  0  0
   29.0464   11.7552   25.1019 H   0  0  0  0  0  0  0  0  0  0  0  0
   30.5974    9.8737   25.9015 H   0  0  0  0  0  0  0  0  0  0  0  0
   30.9157   11.3899   26.8257 H   0  0  0  0  0  0  0  0  0  0  0  0
   31.4153    6.6819   33.1000 H   0  0  0  0  0  0  0  0  0  0  0  0
   30.1509    7.3723   34.0956 H   0  0  0  0  0  0  0  0  0  0  0  0
   31.1918    8.4437   33.1803 H   0  0  0  0  0  0  0  0  0  0  0  0
  6  1  2  0
  2  3  2  0
  4  5  2  0
  1  8  1  0
  2  1  1  0
  7  2  1  0
  7  9  1  0
 10  3  1  0
  4  3  1  0
 12  4  1  0
 10 11  1  0
 14  9  1  0
  9  8  2  0
  8 15  1  0
 13 14  2  0
 16 13  1  0
 15 16  2  0
 11 17  1  0
 12 11  2  0
 20 12  1  0
 17 18  2  0
 18 19  1  0
 19 20  2  0
 10 25  1  0
 25 21  1  0
  7 26  1  0
 26 21  1  0
 25 22  1  0
 26 23  1  0
 22 24  1  0
 23 24  1  0
 24 27  1  0
 27 28  1  0
 27 29  1  0
 28 30  2  0
 28 31  1  0
 32 31  2  0
 36 31  1  0
 32 33  1  0
 33 34  2  0
 34 35  1  0
 35 36  2  0
 23 37  1  0
 37 38  1  0
  5 39  1  0
  6  5  1  0
  6 41  1  0
 39 40  1  0
 40 41  1  0
 39 42  2  0
 26 43  1  6
 13 44  1  0
 14 45  1  0
 15 46  1  0
 16 47  1  0
 17 48  1  0
 18 49  1  0
 19 50  1  0
 20 51  1  0
 22 52  1  0
 22 53  1  0
 23 54  1  1
 24 55  1  6
 25 56  1  6
 29 57  1  0
 29 58  1  0
 29 59  1  0
 32 60  1  0
 33 61  1  0
 34 62  1  0
 35 63  1  0
 36 64  1  0
 38 65  1  0
 38 66  1  0
 38 67  1  0
 40 68  1  0
 41 69  1  0
 41 70  1  0
 43 71  1  0
 43 72  1  0
 43 73  1  0
M  END
> <Uni-Dock RESULT> 
ENERGY=   -5.122  LOWER_BOUND=    0.081  UPPER_BOUND=    0.081
INTER + INTRA:          -5.122
INTER:                  -5.122
INTRA:                   0.000
UNBOUND:                 0.000

$$$$

     RDKit          3D

 73 81  0  0  0  0  0  0  0  0999 V2000
   30.6233    8.3430   29.7671 C   0  0  0  0  0  0  0  0  0  0  0  0
   29.5308    8.0644   30.5599 C   0  0  0  0  0  0  0  0  0  0  0  0
   28.1188    8.6076   30.1839 C   0  0  0  0  0  0  0  0  0  0  0  0
   27.9274    9.3822   29.0514 C   0  0  0  0  0  0  0  0  0  0  0  0
   29.0933    9.6446   28.3154 C   0  0  0  0  0  0  0  0  0  0  0  0
   30.3961    9.1565   28.6447 C   0  0  0  0  0  0  0  0  0  0  0  0
   29.8992    7.2662   31.6132 N   0  0  0  0  0  0  0  0  0  0  0  0
   31.7218    7.6443   30.3385 C   0  0  0  0  0  0  0  0  0  0  0  0
   31.2422    6.9245   31.4500 C   0  0  0  0  0  0  0  0  0  0  0  0
   26.9363    8.4377   30.8353 N   0  0  0  0  0  0  0  0  0  0  0  0
   25.9299    9.0684   30.1186 C   0  0  0  0  0  0  0  0  0  0  0  0
   26.5292    9.6726   29.0007 C   0  0  0  0  0  0  0  0  0  0  0  0
   33.4347    5.9434   31.7587 C   0  0  0  0  0  0  0  0  0  0  0  0
   32.0948    6.0474   32.1480 C   0  0  0  0  0  0  0  0  0  0  0  0
   33.0803    7.5215   29.9710 C   0  0  0  0  0  0  0  0  0  0  0  0
   33.9271    6.6779   30.6906 C   0  0  0  0  0  0  0  0  0  0  0  0
   24.5482    9.1646   30.3656 C   0  0  0  0  0  0  0  0  0  0  0  0
   23.7599    9.8837   29.4646 C   0  0  0  0  0  0  0  0  0  0  0  0
   24.3269   10.4913   28.3522 C   0  0  0  0  0  0  0  0  0  0  0  0
   25.7015   10.3929   28.1122 C   0  0  0  0  0  0  0  0  0  0  0  0
   27.9805    7.8535   32.8867 O   0  0  0  0  0  0  0  0  0  0  0  0
   26.0354    6.4681   32.1668 C   0  0  0  0  0  0  0  0  0  0  0  0
   28.3061    5.4192   32.2877 C   0  0  2  0  0  0  0  0  0  0  0  0
   26.8821    5.4146   32.8863 C   0  0  2  0  0  0  0  0  0  0  0  0
   26.7589    7.8214   32.1446 C   0  0  2  0  0  0  0  0  0  0  0  0
   28.9538    6.8026   32.6448 C   0  0  1  0  0  0  0  0  0  0  0  0
   26.2657    4.0677   33.0025 N   0  0  0  0  0  0  0  0  0  0  0  0
   25.7721    3.3936   31.8802 C   0  0  0  0  0  0  0  0  0  0  0  0
   26.3086    3.4582   34.3307 C   0  0  0  0  0  0  0  0  0  0  0  0
   25.6012    3.8973   30.7760 O   0  0  0  0  0  0  0  0  0  0  0  0
   25.4139    1.9641   32.0028 C   0  0  0  0  0  0  0  0  0  0  0  0
   26.3964    1.0067   32.2803 C   0  0  0  0  0  0  0  0  0  0  0  0
   26.0391   -0.3390   32.3707 C   0  0  0  0  0  0  0  0  0  0  0  0
   24.7113   -0.7239   32.1697 C   0  0  0  0  0  0  0  0  0  0  0  0
   23.7383    0.2315   31.8677 C   0  0  0  0  0  0  0  0  0  0  0  0
   24.0893    1.5784   31.7758 C   0  0  0  0  0  0  0  0  0  0  0  0
   28.1937    5.2621   30.8654 O   0  0  0  0  0  0  0  0  0  0  0  0
   28.9153    4.1553   30.3486 C   0  0  0  0  0  0  0  0  0  0  0  0
   29.2293   10.4371   27.0837 C   0  0  0  0  0  0  0  0  0  0  0  0
   30.5575   10.4015   26.7186 N   0  0  0  0  0  0  0  0  0  0  0  0
   31.3739    9.6258   27.6088 C   0  0  0  0  0  0  0  0  0  0  0  0
   28.3635   11.0306   26.4733 O   0  0  0  0  0  0  0  0  0  0  0  0
   29.6056    6.7228   34.0467 C   0  0  0  0  0  0  0  0  0  0  0  0
   34.0992    5.2740   32.3008 H   0  0  0  0  0  0  0  0  0  0  0  0
   31.7536    5.4358   32.9720 H   0  0  0  0  0  0  0  0  0  0  0  0
   33.4701    8.0698   29.1187 H   0  0  0  0  0  0  0  0  0  0  0  0
   34.9706    6.5854   30.4008 H   0  0  0  0  0  0  0  0  0  0  0  0
   24.0885    8.6904   31.2262 H   0  0  0  0  0  0  0  0  0  0  0  0
   22.6892    9.9666   29.6345 H   0  0  0  0  0  0  0  0  0  0  0  0
   23.7025   11.0466   27.6568 H   0  0  0  0  0  0  0  0  0  0  0  0
   26.1213   10.8741   27.2337 H   0  0  0  0  0  0  0  0  0  0  0  0
   25.7675    6.1781   31.1470 H   0  0  0  0  0  0  0  0  0  0  0  0
   25.0780    6.5740   32.6939 H   0  0  0  0  0  0  0  0  0  0  0  0
   28.9058    4.6000   32.7050 H   0  0  0  0  0  0  0  0  0  0  0  0
   26.9623    5.7557   33.9270 H   0  0  0  0  0  0  0  0  0  0  0  0
   26.1163    8.5318   32.6815 H   0  0  0  0  0  0  0  0  0  0  0  0
   25.9956    4.1946   35.0769 H   0  0  0  0  0  0  0  0  0  0  0  0
   27.3362    3.1449   34.5351 H   0  0  0  0  0  0  0  0  0  0  0  0
   25.6386    2.6013   34.4205 H   0  0  0  0  0  0  0  0  0  0  0  0
   27.4327    1.3043   32.4130 H   0  0  0  0  0  0  0  0  0  0  0  0
   26.7942   -1.0915   32.5848 H   0  0  0  0  0  0  0  0  0  0  0  0
   24.4359   -1.7744   32.2335 H   0  0  0  0  0  0  0  0  0  0  0  0
   22.7093   -0.0747   31.6935 H   0  0  0  0  0  0  0  0  0  0  0  0
   23.3400    2.3242   31.5218 H   0  0  0  0  0  0  0  0  0  0  0  0
   28.7531    4.1125   29.2687 H   0  0  0  0  0  0  0  0  0  0  0  0
   29.9857    4.2717   30.5365 H   0  0  0  0  0  0  0  0  0  0  0  0
   28.5599    3.2215   30.7927 H   0  0  0  0  0  0  0  0  0  0  0  0
   30.8775   10.8786   25.8873 H   0  0  0  0  0  0  0  0  0  0  0  0
   31.8143    8.7936   27.0536 H   0  0  0  0  0  0  0  0  0  0  0  0
   32.1469   10.2696   28.0360 H   0  0  0  0  0  0  0  0  0  0  0  0
   30.1811    5.8088   34.2019 H   0  0  0  0  0  0  0  0  0  0  0  0
   28.8458    6.7463   34.8379 H   0  0  0  0  0  0  0  0  0  0  0  0
   30.2588    7.5846   34.2298 H   0  0  0  0  0  0  0  0  0  0  0  0
  6  1  2  0
  2  3  2  0
  4  5  2  0
  1  8  1  0
  2  1  1  0
  7  2  1  0
  7  9  1  0
 10  3  1  0
  4  3  1  0
 12  4  1  0
 10 11  1  0
 14  9  1  0
  9  8  2  0
  8 15  1  0
 13 14  2  0
 16 13  1  0
 15 16  2  0
 11 17  1  0
 12 11  2  0
 20 12  1  0
 17 18  2  0
 18 19  1  0
 19 20  2  0
 10 25  1  0
 25 21  1  0
  7 26  1  0
 26 21  1  0
 25 22  1  0
 26 23  1  0
 22 24  1  0
 23 24  1  0
 24 27  1  0
 27 28  1  0
 27 29  1  0
 28 30  2  0
 28 31  1  0
 32 31  2  0
 36 31  1  0
 32 33  1  0
 33 34  2  0
 34 35  1  0
 35 36  2  0
 23 37  1  0
 37 38  1  0
  5 39  1  0
  6  5  1  0
  6 41  1  0
 39 40  1  0
 40 41  1  0
 39 42  2  0
 26 43  1  6
 13 44  1  0
 14 45  1  0
 15 46  1  0
 16 47  1  0
 17 48  1  0
 18 49  1  0
 19 50  1  0
 20 51  1  0
 22 52  1  0
 22 53  1  0
 23 54  1  1
 24 55  1  6
 25 56  1  6
 29 57  1  0
 29 58  1  0
 29 59  1  0
 32 60  1  0
 33 61  1  0
 34 62  1  0
 35 63  1  0
 36 64  1  0
 38 65  1  0
 38 66  1  0
 38 67  1  0
 40 68  1  0
 41 69  1  0
 41 70  1  0
 43 71  1  0
 43 72  1  0
 43 73  1  0
M  END
> <Uni-Dock RESULT> 
ENERGY=   -4.966  LOWER_BOUND=    1.170  UPPER_BOUND=    1.486
INTER + INTRA:          -4.966
INTER:                  -4.966
INTRA:                   0.000
UNBOUND:                 0.000

$$$$

     RDKit          3D

 73 81  0  0  0  0  0  0  0  0999 V2000
   28.8675    9.8905   28.5803 C   0  0  0  0  0  0  0  0  0  0  0  0
   28.6818    9.1483   29.7269 C   0  0  0  0  0  0  0  0  0  0  0  0
   27.2461    8.8607   30.2617 C   0  0  0  0  0  0  0  0  0  0  0  0
   26.1265    9.3432   29.6039 C   0  0  0  0  0  0  0  0  0  0  0  0
   26.4018   10.1132   28.4632 C   0  0  0  0  0  0  0  0  0  0  0  0
   27.7106   10.3886   27.9582 C   0  0  0  0  0  0  0  0  0  0  0  0
   29.8907    8.7309   30.2235 N   0  0  0  0  0  0  0  0  0  0  0  0
   30.2670    9.8984   28.3301 C   0  0  0  0  0  0  0  0  0  0  0  0
   30.8859    9.1167   29.3247 C   0  0  0  0  0  0  0  0  0  0  0  0
   26.8695    8.1550   31.3626 N   0  0  0  0  0  0  0  0  0  0  0  0
   25.4843    8.1260   31.4296 C   0  0  0  0  0  0  0  0  0  0  0  0
   24.9979    8.8698   30.3415 C   0  0  0  0  0  0  0  0  0  0  0  0
   33.0258    9.4259   28.2339 C   0  0  0  0  0  0  0  0  0  0  0  0
   32.2682    8.8548   29.2624 C   0  0  0  0  0  0  0  0  0  0  0  0
   31.0581   10.4644   27.3057 C   0  0  0  0  0  0  0  0  0  0  0  0
   32.4331   10.2298   27.2721 C   0  0  0  0  0  0  0  0  0  0  0  0
   24.6223    7.5165   32.3596 C   0  0  0  0  0  0  0  0  0  0  0  0
   23.2444    7.6617   32.1840 C   0  0  0  0  0  0  0  0  0  0  0  0
   22.7372    8.3922   31.1176 C   0  0  0  0  0  0  0  0  0  0  0  0
   23.5992    8.9966   30.1966 C   0  0  0  0  0  0  0  0  0  0  0  0
   29.0014    8.3396   32.3925 O   0  0  0  0  0  0  0  0  0  0  0  0
   27.8969    6.1044   32.4592 C   0  0  0  0  0  0  0  0  0  0  0  0
   30.0178    6.3822   31.1571 C   0  0  2  0  0  0  0  0  0  0  0  0
   29.3686    5.6901   32.3760 C   0  0  2  0  0  0  0  0  0  0  0  0
   27.7595    7.6314   32.3917 C   0  0  2  0  0  0  0  0  0  0  0  0
   30.0250    7.9234   31.4493 C   0  0  1  0  0  0  0  0  0  0  0  0
   29.6293    4.2303   32.4683 N   0  0  0  0  0  0  0  0  0  0  0  0
   28.9756    3.3196   31.6311 C   0  0  0  0  0  0  0  0  0  0  0  0
   30.6790    3.8269   33.4027 C   0  0  0  0  0  0  0  0  0  0  0  0
   28.0110    3.5830   30.9224 O   0  0  0  0  0  0  0  0  0  0  0  0
   29.4565    1.9222   31.5779 C   0  0  0  0  0  0  0  0  0  0  0  0
   30.7320    1.6281   31.0823 C   0  0  0  0  0  0  0  0  0  0  0  0
   31.1568    0.3004   31.0217 C   0  0  0  0  0  0  0  0  0  0  0  0
   30.3053   -0.7250   31.4400 C   0  0  0  0  0  0  0  0  0  0  0  0
   29.0237   -0.4295   31.9100 C   0  0  0  0  0  0  0  0  0  0  0  0
   28.5931    0.8958   31.9728 C   0  0  0  0  0  0  0  0  0  0  0  0
   29.2220    6.0876   29.9995 O   0  0  0  0  0  0  0  0  0  0  0  0
   29.9445    5.4746   28.9435 C   0  0  0  0  0  0  0  0  0  0  0  0
   25.4450   10.7719   27.5609 C   0  0  0  0  0  0  0  0  0  0  0  0
   26.1763   11.3972   26.5745 N   0  0  0  0  0  0  0  0  0  0  0  0
   27.5937   11.2173   26.7136 C   0  0  0  0  0  0  0  0  0  0  0  0
   24.2332   10.7907   27.6356 O   0  0  0  0  0  0  0  0  0  0  0  0
   31.2917    8.2909   32.2599 C   0  0  0  0  0  0  0  0  0  0  0  0
   34.0956    9.2337   28.1871 H   0  0  0  0  0  0  0  0  0  0  0  0
   32.7731    8.2160   29.9741 H   0  0  0  0  0  0  0  0  0  0  0  0
   30.6005   11.0720   26.5310 H   0  0  0  0  0  0  0  0  0  0  0  0
   33.0359   10.6657   26.4796 H   0  0  0  0  0  0  0  0  0  0  0  0
   25.0021    6.9370   33.1944 H   0  0  0  0  0  0  0  0  0  0  0  0
   22.5607    7.1950   32.8888 H   0  0  0  0  0  0  0  0  0  0  0  0
   21.6627    8.4963   30.9902 H   0  0  0  0  0  0  0  0  0  0  0  0
   23.1787    9.5603   29.3689 H   0  0  0  0  0  0  0  0  0  0  0  0
   27.2788    5.6453   31.6826 H   0  0  0  0  0  0  0  0  0  0  0  0
   27.4794    5.7412   33.4076 H   0  0  0  0  0  0  0  0  0  0  0  0
   31.0426    6.0197   31.0045 H   0  0  0  0  0  0  0  0  0  0  0  0
   29.8451    6.0980   33.2774 H   0  0  0  0  0  0  0  0  0  0  0  0
   27.2858    7.9475   33.3306 H   0  0  0  0  0  0  0  0  0  0  0  0
   30.5373    4.3496   34.3533 H   0  0  0  0  0  0  0  0  0  0  0  0
   31.6475    4.1014   32.9754 H   0  0  0  0  0  0  0  0  0  0  0  0
   30.6616    2.7566   33.6159 H   0  0  0  0  0  0  0  0  0  0  0  0
   31.3845    2.4243   30.7352 H   0  0  0  0  0  0  0  0  0  0  0  0
   32.1452    0.0602   30.6375 H   0  0  0  0  0  0  0  0  0  0  0  0
   30.6356   -1.7601   31.3853 H   0  0  0  0  0  0  0  0  0  0  0  0
   28.3571   -1.2322   32.2169 H   0  0  0  0  0  0  0  0  0  0  0  0
   27.5895    1.1305   32.3193 H   0  0  0  0  0  0  0  0  0  0  0  0
   29.2518    5.2769   28.1217 H   0  0  0  0  0  0  0  0  0  0  0  0
   30.7350    6.1373   28.5821 H   0  0  0  0  0  0  0  0  0  0  0  0
   30.3772    4.5256   29.2720 H   0  0  0  0  0  0  0  0  0  0  0  0
   25.7150   11.9095   25.8359 H   0  0  0  0  0  0  0  0  0  0  0  0
   27.9738   10.6919   25.8337 H   0  0  0  0  0  0  0  0  0  0  0  0
   28.0680   12.1955   26.8259 H   0  0  0  0  0  0  0  0  0  0  0  0
   32.1979    7.8160   31.8803 H   0  0  0  0  0  0  0  0  0  0  0  0
   31.1956    7.9778   33.3072 H   0  0  0  0  0  0  0  0  0  0  0  0
   31.4469    9.3764   32.2824 H   0  0  0  0  0  0  0  0  0  0  0  0
  6  1  2  0
  2  3  2  0
  4  5  2  0
  1  8  1  0
  2  1  1  0
  7  2  1  0
  7  9  1  0
 10  3  1  0
  4  3  1  0
 12  4  1  0
 10 11  1  0
 14  9  1  0
  9  8  2  0
  8 15  1  0
 13 14  2  0
 16 13  1  0
 15 16  2  0
 11 17  1  0
 12 11  2  0
 20 12  1  0
 17 18  2  0
 18 19  1  0
 19 20  2  0
 10 25  1  0
 25 21  1  0
  7 26  1  0
 26 21  1  0
 25 22  1  0
 26 23  1  0
 22 24  1  0
 23 24  1  0
 24 27  1  0
 27 28  1  0
 27 29  1  0
 28 30  2  0
 28 31  1  0
 32 31  2  0
 36 31  1  0
 32 33  1  0
 33 34  2  0
 34 35  1  0
 35 36  2  0
 23 37  1  0
 37 38  1  0
  5 39  1  0
  6  5  1  0
  6 41  1  0
 39 40  1  0
 40 41  1  0
 39 42  2  0
 26 43  1  6
 13 44  1  0
 14 45  1  0
 15 46  1  0
 16 47  1  0
 17 48  1  0
 18 49  1  0
 19 50  1  0
 20 51  1  0
 22 52  1  0
 22 53  1  0
 23 54  1  1
 24 55  1  6
 25 56  1  6
 29 57  1  0
 29 58  1  0
 29 59  1  0
 32 60  1  0
 33 61  1  0
 34 62  1  0
 35 63  1  0
 36 64  1  0
 38 65  1  0
 38 66  1  0
 38 67  1  0
 40 68  1  0
 41 69  1  0
 41 70  1  0
 43 71  1  0
 43 72  1  0
 43 73  1  0
M  END
> <Uni-Dock RESULT> 
ENERGY=   -4.489  LOWER_BOUND=    1.508  UPPER_BOUND=    2.105
INTER + INTRA:          -4.489
INTER:                  -4.489
INTRA:                   0.000
UNBOUND:                 0.000

$$$$

     RDKit          3D

 73 81  0  0  0  0  0  0  0  0999 V2000
   23.6618    8.8032   30.5930 C   0  0  0  0  0  0  0  0  0  0  0  0
   24.9634    8.6646   31.0249 C   0  0  0  0  0  0  0  0  0  0  0  0
   25.5644    7.2512   31.2913 C   0  0  0  0  0  0  0  0  0  0  0  0
   24.8093    6.1048   31.1048 C   0  0  0  0  0  0  0  0  0  0  0  0
   23.4871    6.3330   30.6930 C   0  0  0  0  0  0  0  0  0  0  0  0
   22.9180    7.6208   30.4448 C   0  0  0  0  0  0  0  0  0  0  0  0
   25.5642    9.8940   31.1248 N   0  0  0  0  0  0  0  0  0  0  0  0
   23.4581   10.1931   30.3736 C   0  0  0  0  0  0  0  0  0  0  0  0
   24.6718   10.8536   30.6455 C   0  0  0  0  0  0  0  0  0  0  0  0
   26.8145    6.9198   31.7146 N   0  0  0  0  0  0  0  0  0  0  0  0
   26.9196    5.5380   31.7776 C   0  0  0  0  0  0  0  0  0  0  0  0
   25.6730    5.0071   31.4064 C   0  0  0  0  0  0  0  0  0  0  0  0
   23.6854   12.9514   29.9448 C   0  0  0  0  0  0  0  0  0  0  0  0
   24.7964   12.2355   30.4039 C   0  0  0  0  0  0  0  0  0  0  0  0
   22.3526   10.9428   29.9138 C   0  0  0  0  0  0  0  0  0  0  0  0
   22.4741   12.3179   29.7118 C   0  0  0  0  0  0  0  0  0  0  0  0
   28.0020    4.7147   32.1382 C   0  0  0  0  0  0  0  0  0  0  0  0
   27.8192    3.3303   32.1213 C   0  0  0  0  0  0  0  0  0  0  0  0
   26.5971    2.7793   31.7591 C   0  0  0  0  0  0  0  0  0  0  0  0
   25.5243    3.6031   31.4023 C   0  0  0  0  0  0  0  0  0  0  0  0
   27.2531    9.0842   32.5878 O   0  0  0  0  0  0  0  0  0  0  0  0
   29.0689    8.0043   31.2621 C   0  0  0  0  0  0  0  0  0  0  0  0
   27.9752   10.0760   30.3774 C   0  0  2  0  0  0  0  0  0  0  0  0
   29.2965    9.4762   30.9068 C   0  0  2  0  0  0  0  0  0  0  0  0
   27.8408    7.8499   32.1694 C   0  0  2  0  0  0  0  0  0  0  0  0
   26.9570   10.0785   31.5708 C   0  0  1  0  0  0  0  0  0  0  0  0
   30.4842    9.7540   30.0584 N   0  0  0  0  0  0  0  0  0  0  0  0
   30.6887    9.0805   28.8492 C   0  0  0  0  0  0  0  0  0  0  0  0
   31.3529   10.8392   30.5114 C   0  0  0  0  0  0  0  0  0  0  0  0
   30.0680    8.0894   28.4824 O   0  0  0  0  0  0  0  0  0  0  0  0
   31.7302    9.5727   27.9219 C   0  0  0  0  0  0  0  0  0  0  0  0
   31.6118   10.8330   27.3248 C   0  0  0  0  0  0  0  0  0  0  0  0
   32.5960   11.2682   26.4366 C   0  0  0  0  0  0  0  0  0  0  0  0
   33.6817   10.4417   26.1377 C   0  0  0  0  0  0  0  0  0  0  0  0
   33.7832    9.1744   26.7158 C   0  0  0  0  0  0  0  0  0  0  0  0
   32.8025    8.7334   27.6044 C   0  0  0  0  0  0  0  0  0  0  0  0
   27.5032    9.2434   29.3077 O   0  0  0  0  0  0  0  0  0  0  0  0
   27.2986    9.9348   28.0859 C   0  0  0  0  0  0  0  0  0  0  0  0
   22.4368    5.3391   30.4231 C   0  0  0  0  0  0  0  0  0  0  0  0
   21.3107    6.0298   30.0312 N   0  0  0  0  0  0  0  0  0  0  0  0
   21.4965    7.4528   29.9971 C   0  0  0  0  0  0  0  0  0  0  0  0
   22.5044    4.1305   30.5185 O   0  0  0  0  0  0  0  0  0  0  0  0
   27.1411   11.3689   32.4060 C   0  0  0  0  0  0  0  0  0  0  0  0
   23.7745   14.0207   29.7654 H   0  0  0  0  0  0  0  0  0  0  0  0
   25.7250   12.7708   30.5474 H   0  0  0  0  0  0  0  0  0  0  0  0
   21.4074   10.4527   29.7007 H   0  0  0  0  0  0  0  0  0  0  0  0
   21.6206   12.8886   29.3550 H   0  0  0  0  0  0  0  0  0  0  0  0
   28.9650    5.1288   32.4173 H   0  0  0  0  0  0  0  0  0  0  0  0
   28.6441    2.6760   32.3922 H   0  0  0  0  0  0  0  0  0  0  0  0
   26.4677    1.7001   31.7476 H   0  0  0  0  0  0  0  0  0  0  0  0
   24.5791    3.1486   31.1197 H   0  0  0  0  0  0  0  0  0  0  0  0
   28.9584    7.3641   30.3824 H   0  0  0  0  0  0  0  0  0  0  0  0
   29.9578    7.6234   31.7821 H   0  0  0  0  0  0  0  0  0  0  0  0
   28.1321   11.0984   30.0099 H   0  0  0  0  0  0  0  0  0  0  0  0
   29.5292    9.9796   31.8546 H   0  0  0  0  0  0  0  0  0  0  0  0
   28.1962    7.4061   33.1088 H   0  0  0  0  0  0  0  0  0  0  0  0
   31.5449   10.7256   31.5825 H   0  0  0  0  0  0  0  0  0  0  0  0
   30.8431   11.7897   30.3303 H   0  0  0  0  0  0  0  0  0  0  0  0
   32.3208   10.8396   30.0071 H   0  0  0  0  0  0  0  0  0  0  0  0
   30.7551   11.4654   27.5397 H   0  0  0  0  0  0  0  0  0  0  0  0
   32.5137   12.2451   25.9661 H   0  0  0  0  0  0  0  0  0  0  0  0
   34.4444   10.7799   25.4394 H   0  0  0  0  0  0  0  0  0  0  0  0
   34.6204    8.5266   26.4659 H   0  0  0  0  0  0  0  0  0  0  0  0
   32.8660    7.7403   28.0424 H   0  0  0  0  0  0  0  0  0  0  0  0
   26.9584    9.2159   27.3363 H   0  0  0  0  0  0  0  0  0  0  0  0
   26.5328   10.7058   28.2031 H   0  0  0  0  0  0  0  0  0  0  0  0
   28.2310   10.3877   27.7379 H   0  0  0  0  0  0  0  0  0  0  0  0
   20.4625    5.5382   29.7866 H   0  0  0  0  0  0  0  0  0  0  0  0
   21.3439    7.8072   28.9744 H   0  0  0  0  0  0  0  0  0  0  0  0
   20.7907    7.9213   30.6877 H   0  0  0  0  0  0  0  0  0  0  0  0
   27.2469   12.2659   31.7937 H   0  0  0  0  0  0  0  0  0  0  0  0
   28.0436   11.3122   33.0276 H   0  0  0  0  0  0  0  0  0  0  0  0
   26.3049   11.5143   33.1005 H   0  0  0  0  0  0  0  0  0  0  0  0
  6  1  2  0
  2  3  2  0
  4  5  2  0
  1  8  1  0
  2  1  1  0
  7  2  1  0
  7  9  1  0
 10  3  1  0
  4  3  1  0
 12  4  1  0
 10 11  1  0
 14  9  1  0
  9  8  2  0
  8 15  1  0
 13 14  2  0
 16 13  1  0
 15 16  2  0
 11 17  1  0
 12 11  2  0
 20 12  1  0
 17 18  2  0
 18 19  1  0
 19 20  2  0
 10 25  1  0
 25 21  1  0
  7 26  1  0
 26 21  1  0
 25 22  1  0
 26 23  1  0
 22 24  1  0
 23 24  1  0
 24 27  1  0
 27 28  1  0
 27 29  1  0
 28 30  2  0
 28 31  1  0
 32 31  2  0
 36 31  1  0
 32 33  1  0
 33 34  2  0
 34 35  1  0
 35 36  2  0
 23 37  1  0
 37 38  1  0
  5 39  1  0
  6  5  1  0
  6 41  1  0
 39 40  1  0
 40 41  1  0
 39 42  2  0
 26 43  1  6
 13 44  1  0
 14 45  1  0
 15 46  1  0
 16 47  1  0
 17 48  1  0
 18 49  1  0
 19 50  1  0
 20 51  1  0
 22 52  1  0
 22 53  1  0
 23 54  1  1
 24 55  1  6
 25 56  1  6
 29 57  1  0
 29 58  1  0
 29 59  1  0
 32 60  1  0
 33 61  1  0
 34 62  1  0
 35 63  1  0
 36 64  1  0
 38 65  1  0
 38 66  1  0
 38 67  1  0
 40 68  1  0
 41 69  1  0
 41 70  1  0
 43 71  1  0
 43 72  1  0
 43 73  1  0
M  END
> <Uni-Dock RESULT> 
ENERGY=   -4.454  LOWER_BOUND=    2.286  UPPER_BOUND=    7.961
INTER + INTRA:          -4.454
INTER:                  -4.454
INTRA:                   0.000
UNBOUND:                 0.000

$$$$

     RDKit          3D

 73 81  0  0  0  0  0  0  0  0999 V2000
   25.4380   13.4649   20.9728 C   0  0  0  0  0  0  0  0  0  0  0  0
   26.5310   12.9149   21.6074 C   0  0  0  0  0  0  0  0  0  0  0  0
   27.4962   11.9607   20.8407 C   0  0  0  0  0  0  0  0  0  0  0  0
   27.2799   11.6404   19.5104 C   0  0  0  0  0  0  0  0  0  0  0  0
   26.1312   12.2169   18.9468 C   0  0  0  0  0  0  0  0  0  0  0  0
   25.2341   13.0929   19.6336 C   0  0  0  0  0  0  0  0  0  0  0  0
   26.6039   13.3631   22.9020 N   0  0  0  0  0  0  0  0  0  0  0  0
   24.8231   14.3344   21.9146 C   0  0  0  0  0  0  0  0  0  0  0  0
   25.5980   14.3117   23.0904 C   0  0  0  0  0  0  0  0  0  0  0  0
   28.6140   11.3308   21.2940 N   0  0  0  0  0  0  0  0  0  0  0  0
   29.1810   10.6101   20.2532 C   0  0  0  0  0  0  0  0  0  0  0  0
   28.3581   10.7841   19.1279 C   0  0  0  0  0  0  0  0  0  0  0  0
   24.1652   16.0031   24.0656 C   0  0  0  0  0  0  0  0  0  0  0  0
   25.2854   15.1703   24.1621 C   0  0  0  0  0  0  0  0  0  0  0  0
   23.6960   15.1834   21.8475 C   0  0  0  0  0  0  0  0  0  0  0  0
   23.3722   16.0044   22.9281 C   0  0  0  0  0  0  0  0  0  0  0  0
   30.3409    9.8149   20.2116 C   0  0  0  0  0  0  0  0  0  0  0  0
   30.6737    9.1863   19.0097 C   0  0  0  0  0  0  0  0  0  0  0  0
   29.8773    9.3409   17.8827 C   0  0  0  0  0  0  0  0  0  0  0  0
   28.7247   10.1322   17.9304 C   0  0  0  0  0  0  0  0  0  0  0  0
   27.9971   11.5594   23.5759 O   0  0  0  0  0  0  0  0  0  0  0  0
   30.3678   12.0598   22.9841 C   0  0  0  0  0  0  0  0  0  0  0  0
   28.8990   13.9085   23.8181 C   0  0  2  0  0  0  0  0  0  0  0  0
   30.1466   13.0523   24.1288 C   0  0  2  0  0  0  0  0  0  0  0  0
   29.0755   11.2913   22.6764 C   0  0  2  0  0  0  0  0  0  0  0  0
   27.6598   12.9470   23.8427 C   0  0  1  0  0  0  0  0  0  0  0  0
   31.3427   13.8311   24.5414 N   0  0  0  0  0  0  0  0  0  0  0  0
   32.0976   14.5535   23.6109 C   0  0  0  0  0  0  0  0  0  0  0  0
   31.6087   13.8798   25.9782 C   0  0  0  0  0  0  0  0  0  0  0  0
   31.9959   14.4540   22.3936 O   0  0  0  0  0  0  0  0  0  0  0  0
   33.1088   15.5153   24.1002 C   0  0  0  0  0  0  0  0  0  0  0  0
   32.7202   16.6471   24.8259 C   0  0  0  0  0  0  0  0  0  0  0  0
   33.6896   17.5522   25.2595 C   0  0  0  0  0  0  0  0  0  0  0  0
   35.0353   17.3329   24.9556 C   0  0  0  0  0  0  0  0  0  0  0  0
   35.4165   16.2156   24.2093 C   0  0  0  0  0  0  0  0  0  0  0  0
   34.4521   15.3073   23.7727 C   0  0  0  0  0  0  0  0  0  0  0  0
   29.0676   14.4880   22.5158 O   0  0  0  0  0  0  0  0  0  0  0  0
   28.9761   15.9037   22.4981 C   0  0  0  0  0  0  0  0  0  0  0  0
   25.6201   12.0662   17.5757 C   0  0  0  0  0  0  0  0  0  0  0  0
   24.4768   12.8293   17.4788 N   0  0  0  0  0  0  0  0  0  0  0  0
   24.1471   13.5207   18.6929 C   0  0  0  0  0  0  0  0  0  0  0  0
   26.0831   11.4024   16.6705 O   0  0  0  0  0  0  0  0  0  0  0  0
   27.1362   12.8141   25.2935 C   0  0  0  0  0  0  0  0  0  0  0  0
   23.9147   16.6614   24.8947 H   0  0  0  0  0  0  0  0  0  0  0  0
   25.8855   15.2237   25.0602 H   0  0  0  0  0  0  0  0  0  0  0  0
   23.0844   15.2138   20.9510 H   0  0  0  0  0  0  0  0  0  0  0  0
   22.5054   16.6576   22.8691 H   0  0  0  0  0  0  0  0  0  0  0  0
   30.9774    9.6890   21.0810 H   0  0  0  0  0  0  0  0  0  0  0  0
   31.5683    8.5709   18.9548 H   0  0  0  0  0  0  0  0  0  0  0  0
   30.1479    8.8483   16.9523 H   0  0  0  0  0  0  0  0  0  0  0  0
   28.1196   10.2404   17.0351 H   0  0  0  0  0  0  0  0  0  0  0  0
   30.7387   12.5349   22.0717 H   0  0  0  0  0  0  0  0  0  0  0  0
   31.1539   11.3510   23.2763 H   0  0  0  0  0  0  0  0  0  0  0  0
   28.7776   14.7038   24.5649 H   0  0  0  0  0  0  0  0  0  0  0  0
   29.9146   12.4425   25.0122 H   0  0  0  0  0  0  0  0  0  0  0  0
   29.2917   10.2285   22.8481 H   0  0  0  0  0  0  0  0  0  0  0  0
   31.5255   12.8719   26.3957 H   0  0  0  0  0  0  0  0  0  0  0  0
   30.8659   14.5317   26.4463 H   0  0  0  0  0  0  0  0  0  0  0  0
   32.6122   14.2431   26.2066 H   0  0  0  0  0  0  0  0  0  0  0  0
   31.6711   16.8291   25.0414 H   0  0  0  0  0  0  0  0  0  0  0  0
   33.3990   18.4355   25.8232 H   0  0  0  0  0  0  0  0  0  0  0  0
   35.7890   18.0434   25.2884 H   0  0  0  0  0  0  0  0  0  0  0  0
   36.4632   16.0586   23.9589 H   0  0  0  0  0  0  0  0  0  0  0  0
   34.7407   14.4462   23.1748 H   0  0  0  0  0  0  0  0  0  0  0  0
   29.1337   16.2461   21.4724 H   0  0  0  0  0  0  0  0  0  0  0  0
   27.9859   16.2298   22.8268 H   0  0  0  0  0  0  0  0  0  0  0  0
   29.7441   16.3481   23.1370 H   0  0  0  0  0  0  0  0  0  0  0  0
   23.9609   12.8787   16.6114 H   0  0  0  0  0  0  0  0  0  0  0  0
   24.1667   14.5974   18.5058 H   0  0  0  0  0  0  0  0  0  0  0  0
   23.1600   13.1958   19.0315 H   0  0  0  0  0  0  0  0  0  0  0  0
   27.0810   13.7683   25.8198 H   0  0  0  0  0  0  0  0  0  0  0  0
   27.7913   12.1693   25.8927 H   0  0  0  0  0  0  0  0  0  0  0  0
   26.1461   12.3426   25.3159 H   0  0  0  0  0  0  0  0  0  0  0  0
  6  1  2  0
  2  3  2  0
  4  5  2  0
  1  8  1  0
  2  1  1  0
  7  2  1  0
  7  9  1  0
 10  3  1  0
  4  3  1  0
 12  4  1  0
 10 11  1  0
 14  9  1  0
  9  8  2  0
  8 15  1  0
 13 14  2  0
 16 13  1  0
 15 16  2  0
 11 17  1  0
 12 11  2  0
 20 12  1  0
 17 18  2  0
 18 19  1  0
 19 20  2  0
 10 25  1  0
 25 21  1  0
  7 26  1  0
 26 21  1  0
 25 22  1  0
 26 23  1  0
 22 24  1  0
 23 24  1  0
 24 27  1  0
 27 28  1  0
 27 29  1  0
 28 30  2  0
 28 31  1  0
 32 31  2  0
 36 31  1  0
 32 33  1  0
 33 34  2  0
 34 35  1  0
 35 36  2  0
 23 37  1  0
 37 38  1  0
  5 39  1  0
  6  5  1  0
  6 41  1  0
 39 40  1  0
 40 41  1  0
 39 42  2  0
 26 43  1  6
 13 44  1  0
 14 45  1  0
 15 46  1  0
 16 47  1  0
 17 48  1  0
 18 49  1  0
 19 50  1  0
 20 51  1  0
 22 52  1  0
 22 53  1  0
 23 54  1  1
 24 55  1  6
 25 56  1  6
 29 57  1  0
 29 58  1  0
 29 59  1  0
 32 60  1  0
 33 61  1  0
 34 62  1  0
 35 63  1  0
 36 64  1  0
 38 65  1  0
 38 66  1  0
 38 67  1  0
 40 68  1  0
 41 69  1  0
 41 70  1  0
 43 71  1  0
 43 72  1  0
 43 73  1  0
M  END
> <Uni-Dock RESULT> 
ENERGY=   -4.333  LOWER_BOUND=    8.890  UPPER_BOUND=   12.762
INTER + INTRA:          -4.333
INTER:                  -4.333
INTRA:                   0.000
UNBOUND:                 0.000

$$$$

     RDKit          3D

 73 81  0  0  0  0  0  0  0  0999 V2000
   22.2742    7.6633   30.9206 C   0  0  0  0  0  0  0  0  0  0  0  0
   23.5809    8.0251   31.1687 C   0  0  0  0  0  0  0  0  0  0  0  0
   24.6923    6.9403   31.3031 C   0  0  0  0  0  0  0  0  0  0  0  0
   24.3966    5.5925   31.1803 C   0  0  0  0  0  0  0  0  0  0  0  0
   23.0406    5.3066   30.9581 C   0  0  0  0  0  0  0  0  0  0  0  0
   22.0075    6.2869   30.8331 C   0  0  0  0  0  0  0  0  0  0  0  0
   23.6922    9.3911   31.2293 N   0  0  0  0  0  0  0  0  0  0  0  0
   21.5430    8.8743   30.7787 C   0  0  0  0  0  0  0  0  0  0  0  0
   22.4515    9.9426   30.9077 C   0  0  0  0  0  0  0  0  0  0  0  0
   26.0218    7.1039   31.5429 N   0  0  0  0  0  0  0  0  0  0  0  0
   26.6379    5.8610   31.5435 C   0  0  0  0  0  0  0  0  0  0  0  0
   25.6376    4.8990   31.3251 C   0  0  0  0  0  0  0  0  0  0  0  0
   20.6731   11.5120   30.4185 C   0  0  0  0  0  0  0  0  0  0  0  0
   22.0219   11.2675   30.6992 C   0  0  0  0  0  0  0  0  0  0  0  0
   20.1867    9.1521   30.4977 C   0  0  0  0  0  0  0  0  0  0  0  0
   19.7622   10.4704   30.3287 C   0  0  0  0  0  0  0  0  0  0  0  0
   27.9865    5.5045   31.7268 C   0  0  0  0  0  0  0  0  0  0  0  0
   28.3280    4.1509   31.6869 C   0  0  0  0  0  0  0  0  0  0  0  0
   27.3589    3.1796   31.4734 C   0  0  0  0  0  0  0  0  0  0  0  0
   26.0194    3.5402   31.2926 C   0  0  0  0  0  0  0  0  0  0  0  0
   25.7448    9.2920   32.4233 O   0  0  0  0  0  0  0  0  0  0  0  0
   27.6302    8.9388   30.8292 C   0  0  0  0  0  0  0  0  0  0  0  0
   25.7376   10.4409   30.1715 C   0  0  2  0  0  0  0  0  0  0  0  0
   27.2464   10.3835   30.4975 C   0  0  2  0  0  0  0  0  0  0  0  0
   26.6836    8.3563   31.8874 C   0  0  2  0  0  0  0  0  0  0  0  0
   24.9652   10.0871   31.4902 C   0  0  1  0  0  0  0  0  0  0  0  0
   28.1183   11.0666   29.5072 N   0  0  0  0  0  0  0  0  0  0  0  0
   28.3889   10.4954   28.2590 C   0  0  0  0  0  0  0  0  0  0  0  0
   28.5777   12.4046   29.8765 C   0  0  0  0  0  0  0  0  0  0  0  0
   28.1345    9.3383   27.9451 O   0  0  0  0  0  0  0  0  0  0  0  0
   29.0365   11.3219   27.2177 C   0  0  0  0  0  0  0  0  0  0  0  0
   28.3796   12.4375   26.6858 C   0  0  0  0  0  0  0  0  0  0  0  0
   29.0009   13.1906   25.6889 C   0  0  0  0  0  0  0  0  0  0  0  0
   30.2630   12.8204   25.2185 C   0  0  0  0  0  0  0  0  0  0  0  0
   30.9044   11.6918   25.7337 C   0  0  0  0  0  0  0  0  0  0  0  0
   30.2884   10.9346   26.7302 C   0  0  0  0  0  0  0  0  0  0  0  0
   25.4645    9.4735   29.1468 O   0  0  0  0  0  0  0  0  0  0  0  0
   24.8529   10.0176   27.9881 C   0  0  0  0  0  0  0  0  0  0  0  0
   22.4058    3.9895   30.7976 C   0  0  0  0  0  0  0  0  0  0  0  0
   21.0617    4.2060   30.5846 N   0  0  0  0  0  0  0  0  0  0  0  0
   20.7017    5.5956   30.5749 C   0  0  0  0  0  0  0  0  0  0  0  0
   22.9278    2.8940   30.8413 O   0  0  0  0  0  0  0  0  0  0  0  0
   24.7722   11.3686   32.3370 C   0  0  0  0  0  0  0  0  0  0  0  0
   20.3350   12.5346   30.2658 H   0  0  0  0  0  0  0  0  0  0  0  0
   22.6970   12.1116   30.7350 H   0  0  0  0  0  0  0  0  0  0  0  0
   19.4701    8.3427   30.3968 H   0  0  0  0  0  0  0  0  0  0  0  0
   18.7178   10.6773   30.1097 H   0  0  0  0  0  0  0  0  0  0  0  0
   28.7568    6.2512   31.8881 H   0  0  0  0  0  0  0  0  0  0  0  0
   29.3652    3.8542   31.8218 H   0  0  0  0  0  0  0  0  0  0  0  0
   27.6374    2.1294   31.4422 H   0  0  0  0  0  0  0  0  0  0  0  0
   25.2801    2.7626   31.1241 H   0  0  0  0  0  0  0  0  0  0  0  0
   27.6444    8.2876   29.9508 H   0  0  0  0  0  0  0  0  0  0  0  0
   28.6594    8.9242   31.2116 H   0  0  0  0  0  0  0  0  0  0  0  0
   25.4533   11.4417   29.8216 H   0  0  0  0  0  0  0  0  0  0  0  0
   27.4044   10.9543   31.4222 H   0  0  0  0  0  0  0  0  0  0  0  0
   27.3035    8.0929   32.7547 H   0  0  0  0  0  0  0  0  0  0  0  0
   28.9435   12.3896   30.9076 H   0  0  0  0  0  0  0  0  0  0  0  0
   27.7330   13.0948   29.7985 H   0  0  0  0  0  0  0  0  0  0  0  0
   29.3976   12.7549   29.2471 H   0  0  0  0  0  0  0  0  0  0  0  0
   27.3881   12.7108   27.0355 H   0  0  0  0  0  0  0  0  0  0  0  0
   28.4994   14.0586   25.2676 H   0  0  0  0  0  0  0  0  0  0  0  0
   30.7428   13.4047   24.4362 H   0  0  0  0  0  0  0  0  0  0  0  0
   31.8787   11.3963   25.3513 H   0  0  0  0  0  0  0  0  0  0  0  0
   30.7741   10.0439   27.1213 H   0  0  0  0  0  0  0  0  0  0  0  0
   24.7029    9.2104   27.2667 H   0  0  0  0  0  0  0  0  0  0  0  0
   23.8802   10.4516   28.2336 H   0  0  0  0  0  0  0  0  0  0  0  0
   25.4944   10.7776   27.5338 H   0  0  0  0  0  0  0  0  0  0  0  0
   20.4304    3.4306   30.4394 H   0  0  0  0  0  0  0  0  0  0  0  0
   20.2898    5.8497   29.5949 H   0  0  0  0  0  0  0  0  0  0  0  0
   19.9749    5.7813   31.3698 H   0  0  0  0  0  0  0  0  0  0  0  0
   24.4536   12.2296   31.7473 H   0  0  0  0  0  0  0  0  0  0  0  0
   25.7080   11.6618   32.8294 H   0  0  0  0  0  0  0  0  0  0  0  0
   24.0456   11.2059   33.1423 H   0  0  0  0  0  0  0  0  0  0  0  0
  6  1  2  0
  2  3  2  0
  4  5  2  0
  1  8  1  0
  2  1  1  0
  7  2  1  0
  7  9  1  0
 10  3  1  0
  4  3  1  0
 12  4  1  0
 10 11  1  0
 14  9  1  0
  9  8  2  0
  8 15  1  0
 13 14  2  0
 16 13  1  0
 15 16  2  0
 11 17  1  0
 12 11  2  0
 20 12  1  0
 17 18  2  0
 18 19  1  0
 19 20  2  0
 10 25  1  0
 25 21  1  0
  7 26  1  0
 26 21  1  0
 25 22  1  0
 26 23  1  0
 22 24  1  0
 23 24  1  0
 24 27  1  0
 27 28  1  0
 27 29  1  0
 28 30  2  0
 28 31  1  0
 32 31  2  0
 36 31  1  0
 32 33  1  0
 33 34  2  0
 34 35  1  0
 35 36  2  0
 23 37  1  0
 37 38  1  0
  5 39  1  0
  6  5  1  0
  6 41  1  0
 39 40  1  0
 40 41  1  0
 39 42  2  0
 26 43  1  6
 13 44  1  0
 14 45  1  0
 15 46  1  0
 16 47  1  0
 17 48  1  0
 18 49  1  0
 19 50  1  0
 20 51  1  0
 22 52  1  0
 22 53  1  0
 23 54  1  1
 24 55  1  6
 25 56  1  6
 29 57  1  0
 29 58  1  0
 29 59  1  0
 32 60  1  0
 33 61  1  0
 34 62  1  0
 35 63  1  0
 36 64  1  0
 38 65  1  0
 38 66  1  0
 38 67  1  0
 40 68  1  0
 41 69  1  0
 41 70  1  0
 43 71  1  0
 43 72  1  0
 43 73  1  0
M  END
> <Uni-Dock RESULT> 
ENERGY=   -4.318  LOWER_BOUND=    2.779  UPPER_BOUND=    9.010
INTER + INTRA:          -4.318
INTER:                  -4.318
INTRA:                   0.000
UNBOUND:                 0.000

$$$$

     RDKit          3D

 73 81  0  0  0  0  0  0  0  0999 V2000
   29.4202    4.0689   31.3922 C   0  0  0  0  0  0  0  0  0  0  0  0
   30.4617    4.9699   31.4478 C   0  0  0  0  0  0  0  0  0  0  0  0
   31.9383    4.4834   31.3333 C   0  0  0  0  0  0  0  0  0  0  0  0
   32.2400    3.1405   31.1765 C   0  0  0  0  0  0  0  0  0  0  0  0
   31.1264    2.2865   31.1590 C   0  0  0  0  0  0  0  0  0  0  0  0
   29.7660    2.7134   31.2637 C   0  0  0  0  0  0  0  0  0  0  0  0
   29.9783    6.2476   31.5742 N   0  0  0  0  0  0  0  0  0  0  0  0
   28.2238    4.8352   31.4457 C   0  0  0  0  0  0  0  0  0  0  0  0
   28.5863    6.1953   31.4922 C   0  0  0  0  0  0  0  0  0  0  0  0
   33.0845    5.2161   31.3648 N   0  0  0  0  0  0  0  0  0  0  0  0
   34.1685    4.3686   31.1888 C   0  0  0  0  0  0  0  0  0  0  0  0
   33.6633    3.0626   31.0756 C   0  0  0  0  0  0  0  0  0  0  0  0
   26.2486    6.8201   31.3951 C   0  0  0  0  0  0  0  0  0  0  0  0
   27.5959    7.1951   31.4385 C   0  0  0  0  0  0  0  0  0  0  0  0
   26.8554    4.4869   31.4054 C   0  0  0  0  0  0  0  0  0  0  0  0
   25.8791    5.4836   31.3892 C   0  0  0  0  0  0  0  0  0  0  0  0
   35.5475    4.6413   31.1292 C   0  0  0  0  0  0  0  0  0  0  0  0
   36.4296    3.5734   30.9507 C   0  0  0  0  0  0  0  0  0  0  0  0
   35.9569    2.2727   30.8368 C   0  0  0  0  0  0  0  0  0  0  0  0
   34.5847    2.0077   30.8976 C   0  0  0  0  0  0  0  0  0  0  0  0
   32.0425    7.0753   32.4124 O   0  0  0  0  0  0  0  0  0  0  0  0
   33.5883    7.5589   30.5158 C   0  0  0  0  0  0  0  0  0  0  0  0
   31.1497    8.0706   30.2670 C   0  0  2  0  0  0  0  0  0  0  0  0
   32.5652    8.6846   30.3407 C   0  0  2  0  0  0  0  0  0  0  0  0
   33.1862    6.6370   31.6749 C   0  0  2  0  0  0  0  0  0  0  0  0
   30.8474    7.4345   31.6687 C   0  0  1  0  0  0  0  0  0  0  0  0
   32.8694    9.6653   29.2669 N   0  0  0  0  0  0  0  0  0  0  0  0
   33.1413    9.2513   27.9584 C   0  0  0  0  0  0  0  0  0  0  0  0
   32.7591   11.0748   29.6394 C   0  0  0  0  0  0  0  0  0  0  0  0
   33.3639    8.0950   27.6185 O   0  0  0  0  0  0  0  0  0  0  0  0
   33.1760   10.2619   26.8794 C   0  0  0  0  0  0  0  0  0  0  0  0
   32.0195   10.9691   26.5308 C   0  0  0  0  0  0  0  0  0  0  0  0
   32.0706   11.9030   25.4953 C   0  0  0  0  0  0  0  0  0  0  0  0
   33.2663   12.1156   24.8051 C   0  0  0  0  0  0  0  0  0  0  0  0
   34.4118   11.3896   25.1389 C   0  0  0  0  0  0  0  0  0  0  0  0
   34.3671   10.4544   26.1730 C   0  0  0  0  0  0  0  0  0  0  0  0
   31.1510    7.0659   29.2419 O   0  0  0  0  0  0  0  0  0  0  0  0
   30.1743    7.2696   28.2332 C   0  0  0  0  0  0  0  0  0  0  0  0
   31.1085    0.8221   31.0218 C   0  0  0  0  0  0  0  0  0  0  0  0
   29.7891    0.4251   31.0427 N   0  0  0  0  0  0  0  0  0  0  0  0
   28.8664    1.5164   31.1775 C   0  0  0  0  0  0  0  0  0  0  0  0
   32.0528    0.0665   30.9126 O   0  0  0  0  0  0  0  0  0  0  0  0
   30.2670    8.5149   32.6134 C   0  0  0  0  0  0  0  0  0  0  0  0
   25.4797    7.5890   31.3628 H   0  0  0  0  0  0  0  0  0  0  0  0
   27.8332    8.2499   31.4170 H   0  0  0  0  0  0  0  0  0  0  0  0
   26.5552    3.4440   31.3715 H   0  0  0  0  0  0  0  0  0  0  0  0
   24.8280    5.2091   31.3551 H   0  0  0  0  0  0  0  0  0  0  0  0
   35.9327    5.6522   31.2099 H   0  0  0  0  0  0  0  0  0  0  0  0
   37.4989    3.7628   30.8976 H   0  0  0  0  0  0  0  0  0  0  0  0
   36.6532    1.4500   30.6960 H   0  0  0  0  0  0  0  0  0  0  0  0
   34.2389    0.9825   30.8029 H   0  0  0  0  0  0  0  0  0  0  0  0
   33.7318    6.9663   29.6079 H   0  0  0  0  0  0  0  0  0  0  0  0
   34.5709    8.0022   30.7252 H   0  0  0  0  0  0  0  0  0  0  0  0
   30.4039    8.8405   30.0304 H   0  0  0  0  0  0  0  0  0  0  0  0
   32.6169    9.2809   31.2614 H   0  0  0  0  0  0  0  0  0  0  0  0
   33.9982    6.6848   32.4126 H   0  0  0  0  0  0  0  0  0  0  0  0
   33.2669   11.2372   30.5948 H   0  0  0  0  0  0  0  0  0  0  0  0
   31.6993   11.3242   29.7418 H   0  0  0  0  0  0  0  0  0  0  0  0
   33.2239   11.7391   28.9087 H   0  0  0  0  0  0  0  0  0  0  0  0
   31.0844   10.7860   27.0524 H   0  0  0  0  0  0  0  0  0  0  0  0
   31.1780   12.4573   25.2153 H   0  0  0  0  0  0  0  0  0  0  0  0
   33.3024   12.8390   23.9933 H   0  0  0  0  0  0  0  0  0  0  0  0
   35.3357   11.5447   24.5865 H   0  0  0  0  0  0  0  0  0  0  0  0
   35.2504    9.8723   26.4244 H   0  0  0  0  0  0  0  0  0  0  0  0
   30.2673    6.4674   27.4970 H   0  0  0  0  0  0  0  0  0  0  0  0
   29.1682    7.2377   28.6592 H   0  0  0  0  0  0  0  0  0  0  0  0
   30.3338    8.2268   27.7293 H   0  0  0  0  0  0  0  0  0  0  0  0
   29.5420   -0.5506   30.9536 H   0  0  0  0  0  0  0  0  0  0  0  0
   28.2229    1.5496   30.2946 H   0  0  0  0  0  0  0  0  0  0  0  0
   28.2802    1.3773   32.0894 H   0  0  0  0  0  0  0  0  0  0  0  0
   29.5101    9.1405   32.1375 H   0  0  0  0  0  0  0  0  0  0  0  0
   31.0523    9.1956   32.9653 H   0  0  0  0  0  0  0  0  0  0  0  0
   29.8337    8.0628   33.5138 H   0  0  0  0  0  0  0  0  0  0  0  0
  6  1  2  0
  2  3  2  0
  4  5  2  0
  1  8  1  0
  2  1  1  0
  7  2  1  0
  7  9  1  0
 10  3  1  0
  4  3  1  0
 12  4  1  0
 10 11  1  0
 14  9  1  0
  9  8  2  0
  8 15  1  0
 13 14  2  0
 16 13  1  0
 15 16  2  0
 11 17  1  0
 12 11  2  0
 20 12  1  0
 17 18  2  0
 18 19  1  0
 19 20  2  0
 10 25  1  0
 25 21  1  0
  7 26  1  0
 26 21  1  0
 25 22  1  0
 26 23  1  0
 22 24  1  0
 23 24  1  0
 24 27  1  0
 27 28  1  0
 27 29  1  0
 28 30  2  0
 28 31  1  0
 32 31  2  0
 36 31  1  0
 32 33  1  0
 33 34  2  0
 34 35  1  0
 35 36  2  0
 23 37  1  0
 37 38  1  0
  5 39  1  0
  6  5  1  0
  6 41  1  0
 39 40  1  0
 40 41  1  0
 39 42  2  0
 26 43  1  6
 13 44  1  0
 14 45  1  0
 15 46  1  0
 16 47  1  0
 17 48  1  0
 18 49  1  0
 19 50  1  0
 20 51  1  0
 22 52  1  0
 22 53  1  0
 23 54  1  1
 24 55  1  6
 25 56  1  6
 29 57  1  0
 29 58  1  0
 29 59  1  0
 32 60  1  0
 33 61  1  0
 34 62  1  0
 35 63  1  0
 36 64  1  0
 38 65  1  0
 38 66  1  0
 38 67  1  0
 40 68  1  0
 41 69  1  0
 41 70  1  0
 43 71  1  0
 43 72  1  0
 43 73  1  0
M  END
> <Uni-Dock RESULT> 
ENERGY=   -4.198  LOWER_BOUND=    3.160  UPPER_BOUND=    9.448
INTER + INTRA:          -4.198
INTER:                  -4.198
INTRA:                   0.000
UNBOUND:                 0.000

$$$$
