
     RDKit          3D

 77 77  0  0  0  0  0  0  0  0999 V2000
    0.1944   -0.0590    0.8883 C   0  0  0  0  0  0  0  0  0  0  0  0
    1.6223   -0.1574    0.4801 C   0  0  0  0  0  0  0  0  0  0  0  0
   -0.3303   -0.8155    1.6904 O   0  0  0  0  0  0  0  0  0  0  0  0
    2.2159    0.7453   -0.4098 C   0  0  0  0  0  0  0  0  0  0  0  0
    2.3999   -1.1831    1.0305 C   0  0  0  0  0  0  0  0  0  0  0  0
    4.3303   -0.4476   -0.2496 C   0  0  0  0  0  0  0  0  0  0  0  0
   -0.4149    0.9678    0.2450 O   0  0  0  0  0  0  0  0  0  0  0  0
    5.7045   -0.5032   -0.4994 N   0  0  0  0  0  0  0  0  0  0  0  0
    3.5662    0.6090   -0.7523 C   0  0  0  0  0  0  0  0  0  0  0  0
    3.7485   -1.3113    0.6814 C   0  0  0  0  0  0  0  0  0  0  0  0
   -1.8008    1.1704    0.5636 C   0  0  0  0  0  0  0  0  0  0  0  0
   -2.6754    0.2870   -0.3210 C   0  0  0  0  0  0  0  0  0  0  0  0
   -4.1600    0.5335   -0.0661 C   0  0  0  0  0  0  0  0  0  0  0  0
   -5.0303   -0.3628   -0.9327 C   0  0  0  0  0  0  0  0  0  0  0  0
    1.1973    0.1951   -0.4287 C   0  0  0  0  0  0  0  0  0  0  0  0
   -0.9253    0.8326    0.4974 C   0  0  0  0  0  0  0  0  0  0  0  0
    0.3517    1.2050    0.0595 C   0  0  0  0  0  0  0  0  0  0  0  0
    2.5515    0.5085   -0.9030 N   0  0  0  0  0  0  0  0  0  0  0  0
   -1.8283    1.8381    1.0154 N   0  0  0  0  0  0  0  0  0  0  0  0
   -0.9815   -2.8728   -0.0914 N   0  0  0  0  0  0  0  0  0  0  0  0
   -0.5269   -1.4757   -0.0364 C   0  0  0  0  0  0  0  0  0  0  0  0
   -1.3855   -0.4891    0.4560 C   0  0  0  0  0  0  0  0  0  0  0  0
    0.7644   -1.1455   -0.4779 C   0  0  0  0  0  0  0  0  0  0  0  0
    3.2554   -0.4256   -1.3043 O   0  0  0  0  0  0  0  0  0  0  0  0
   -2.7545    2.1842    0.2722 O   0  0  0  0  0  0  0  0  0  0  0  0
   -2.1152   -3.1210    0.3374 O   0  0  0  0  0  0  0  0  0  0  0  0
    2.9036    1.6969   -0.8702 O   0  0  0  0  0  0  0  0  0  0  0  0
   -1.6360    2.2186    2.1768 O   0  0  0  0  0  0  0  0  0  0  0  0
   -0.2010   -3.7088   -0.5627 O   0  0  0  0  0  0  0  0  0  0  0  0
    0.6906    2.5280    0.1214 O   0  0  0  0  0  0  0  0  0  0  0  0
   -0.1284   -0.1563    1.0201 C   0  0  0  0  0  0  0  0  0  0  0  0
    1.2782   -0.2276    0.5380 C   0  0  0  0  0  0  0  0  0  0  0  0
   -0.6726   -1.0580    1.6377 O   0  0  0  0  0  0  0  0  0  0  0  0
    2.0154   -1.3852    0.8128 C   0  0  0  0  0  0  0  0  0  0  0  0
    1.8901    0.8194   -0.1609 C   0  0  0  0  0  0  0  0  0  0  0  0
    3.9350   -0.4808   -0.3714 C   0  0  0  0  0  0  0  0  0  0  0  0
   -0.6928    1.0224    0.6605 O   0  0  0  0  0  0  0  0  0  0  0  0
    5.2923   -0.5493   -0.6989 N   0  0  0  0  0  0  0  0  0  0  0  0
    3.3402   -1.4981    0.3781 C   0  0  0  0  0  0  0  0  0  0  0  0
    3.2162    0.6967   -0.5918 C   0  0  0  0  0  0  0  0  0  0  0  0
   -2.0599    1.2277    1.0494 C   0  0  0  0  0  0  0  0  0  0  0  0
   -2.9688    1.1638   -0.1756 C   0  0  0  0  0  0  0  0  0  0  0  0
   -3.0218   -0.2330   -0.7974 C   0  0  0  0  0  0  0  0  0  0  0  0
   -3.9890   -0.2831   -1.9702 C   0  0  0  0  0  0  0  0  0  0  0  0
    1.6483    1.5697   -0.8340 H   0  0  0  0  0  0  0  0  0  0  0  0
    1.9650   -1.8797    1.7449 H   0  0  0  0  0  0  0  0  0  0  0  0
    5.9850   -0.0775   -1.3773 H   0  0  0  0  0  0  0  0  0  0  0  0
    6.1124   -1.4238   -0.3699 H   0  0  0  0  0  0  0  0  0  0  0  0
    4.0172    1.3404   -1.4181 H   0  0  0  0  0  0  0  0  0  0  0  0
    4.3412   -2.0950    1.1469 H   0  0  0  0  0  0  0  0  0  0  0  0
   -1.9896    0.9944    1.6294 H   0  0  0  0  0  0  0  0  0  0  0  0
   -2.0174    2.2268    0.3706 H   0  0  0  0  0  0  0  0  0  0  0  0
   -2.4331   -0.7682   -0.1453 H   0  0  0  0  0  0  0  0  0  0  0  0
   -2.4341    0.4776   -1.3741 H   0  0  0  0  0  0  0  0  0  0  0  0
   -4.4043    1.5820   -0.2758 H   0  0  0  0  0  0  0  0  0  0  0  0
   -4.3932    0.3498    0.9891 H   0  0  0  0  0  0  0  0  0  0  0  0
   -4.8402   -0.1855   -1.9960 H   0  0  0  0  0  0  0  0  0  0  0  0
   -4.8382   -1.4194   -0.7197 H   0  0  0  0  0  0  0  0  0  0  0  0
   -6.0893   -0.1646   -0.7392 H   0  0  0  0  0  0  0  0  0  0  0  0
   -2.3907   -0.7288    0.8017 H   0  0  0  0  0  0  0  0  0  0  0  0
    1.4259   -1.9250   -0.8590 H   0  0  0  0  0  0  0  0  0  0  0  0
    1.6046    2.6852   -0.2043 H   0  0  0  0  0  0  0  0  0  0  0  0
    1.5677   -2.2007    1.3779 H   0  0  0  0  0  0  0  0  0  0  0  0
    1.3561    1.7431   -0.3678 H   0  0  0  0  0  0  0  0  0  0  0  0
    5.5629    0.0433   -1.4776 H   0  0  0  0  0  0  0  0  0  0  0  0
    5.6509   -1.4948   -0.7884 H   0  0  0  0  0  0  0  0  0  0  0  0
    3.9031   -2.3931    0.6310 H   0  0  0  0  0  0  0  0  0  0  0  0
    3.6832    1.5336   -1.1049 H   0  0  0  0  0  0  0  0  0  0  0  0
   -2.1144    2.2314    1.4843 H   0  0  0  0  0  0  0  0  0  0  0  0
   -2.3905    0.5267    1.8240 H   0  0  0  0  0  0  0  0  0  0  0  0
   -2.6092    1.8733   -0.9311 H   0  0  0  0  0  0  0  0  0  0  0  0
   -3.9789    1.4742    0.1165 H   0  0  0  0  0  0  0  0  0  0  0  0
   -2.0272   -0.5299   -1.1480 H   0  0  0  0  0  0  0  0  0  0  0  0
   -3.3342   -0.9647   -0.0433 H   0  0  0  0  0  0  0  0  0  0  0  0
   -5.0042   -0.0238   -1.6531 H   0  0  0  0  0  0  0  0  0  0  0  0
   -4.0135   -1.2905   -2.3975 H   0  0  0  0  0  0  0  0  0  0  0  0
   -3.6858    0.4131   -2.7587 H   0  0  0  0  0  0  0  0  0  0  0  0
  2  1  1  0
  3  1  2  0
  4  2  2  0
  5  2  1  0
  6 10  1  0
  7  1  1  0
  8  6  1  0
  9  4  1  0
 10  5  2  0
 11  7  1  0
 12 11  1  0
 13 12  1  0
 14 13  1  0
  9  6  2  0
 16 17  1  0
 17 15  2  0
 18 15  1  0
 19 16  1  0
 20 21  1  0
 21 23  2  0
 22 21  1  0
 23 15  1  0
 24 18  1  0
 25 19  1  0
 26 20  1  0
 27 18  2  0
 28 19  2  0
 29 20  2  0
 30 17  1  0
 22 16  2  0
 32 31  1  0
 33 31  2  0
 34 32  2  0
 35 32  1  0
 36 40  1  0
 37 31  1  0
 38 36  1  0
 39 34  1  0
 40 35  2  0
 41 37  1  0
 42 41  1  0
 43 42  1  0
 44 43  1  0
 39 36  2  0
  4 45  1  0
  5 46  1  0
  8 47  1  0
  8 48  1  0
  9 49  1  0
 10 50  1  0
 11 51  1  0
 11 52  1  0
 12 53  1  0
 12 54  1  0
 13 55  1  0
 13 56  1  0
 14 57  1  0
 14 58  1  0
 14 59  1  0
 22 60  1  0
 23 61  1  0
 30 62  1  0
 34 63  1  0
 35 64  1  0
 38 65  1  0
 38 66  1  0
 39 67  1  0
 40 68  1  0
 41 69  1  0
 41 70  1  0
 42 71  1  0
 42 72  1  0
 43 73  1  0
 43 74  1  0
 44 75  1  0
 44 76  1  0
 44 77  1  0
M  CHG  6  18   1  19   1  20   1  24  -1  25  -1  26  -1
M  END
$$$$
