
     RDKit          3D

 77 77  0  0  0  0  0  0  0  0999 V2000
    0.1967   -0.7099   -0.6309 C   0  0  0  0  0  0  0  0  0  0  0  0
    1.6031   -0.5666   -0.1654 C   0  0  0  0  0  0  0  0  0  0  0  0
   -0.3736   -1.7847   -0.7283 O   0  0  0  0  0  0  0  0  0  0  0  0
    2.2362    0.6766   -0.0498 C   0  0  0  0  0  0  0  0  0  0  0  0
    2.3065   -1.7245    0.1872 C   0  0  0  0  0  0  0  0  0  0  0  0
    4.2835   -0.4060    0.6939 C   0  0  0  0  0  0  0  0  0  0  0  0
   -0.3361    0.5038   -0.9186 O   0  0  0  0  0  0  0  0  0  0  0  0
    5.5620   -0.3129    1.2536 N   0  0  0  0  0  0  0  0  0  0  0  0
    3.5602    0.7519    0.3966 C   0  0  0  0  0  0  0  0  0  0  0  0
    3.6292   -1.6387    0.6340 C   0  0  0  0  0  0  0  0  0  0  0  0
   -1.6989    0.4971   -1.3724 C   0  0  0  0  0  0  0  0  0  0  0  0
   -2.6438    0.5563   -0.1763 C   0  0  0  0  0  0  0  0  0  0  0  0
   -4.1043    0.6168   -0.6147 C   0  0  0  0  0  0  0  0  0  0  0  0
   -5.0425    0.6692    0.5805 C   0  0  0  0  0  0  0  0  0  0  0  0
   -0.9158   -0.9569    0.2109 C   0  0  0  0  0  0  0  0  0  0  0  0
   -0.0341    1.2782    0.1520 C   0  0  0  0  0  0  0  0  0  0  0  0
   -1.1060    0.4135    0.4297 C   0  0  0  0  0  0  0  0  0  0  0  0
   -1.9964   -1.8860    0.4701 N   0  0  0  0  0  0  0  0  0  0  0  0
   -0.1590    2.7265    0.3604 N   0  0  0  0  0  0  0  0  0  0  0  0
    2.6249   -1.1364   -1.0199 N   0  0  0  0  0  0  0  0  0  0  0  0
    1.3450   -0.6074   -0.5245 C   0  0  0  0  0  0  0  0  0  0  0  0
    1.1921    0.7743   -0.3265 C   0  0  0  0  0  0  0  0  0  0  0  0
    0.2925   -1.4870   -0.2578 C   0  0  0  0  0  0  0  0  0  0  0  0
   -2.9323   -1.8988   -0.3388 O   0  0  0  0  0  0  0  0  0  0  0  0
   -1.2730    3.1580    0.6915 O   0  0  0  0  0  0  0  0  0  0  0  0
    3.5357   -0.3254   -1.2269 O   0  0  0  0  0  0  0  0  0  0  0  0
   -1.8573   -2.6367    1.4440 O   0  0  0  0  0  0  0  0  0  0  0  0
    0.8484    3.4243    0.1968 O   0  0  0  0  0  0  0  0  0  0  0  0
    2.7062   -2.3576   -1.1999 O   0  0  0  0  0  0  0  0  0  0  0  0
   -2.3141    0.8238    0.9204 O   0  0  0  0  0  0  0  0  0  0  0  0
    0.1153   -1.0412    0.3077 C   0  0  0  0  0  0  0  0  0  0  0  0
    1.5797   -0.7827    0.2407 C   0  0  0  0  0  0  0  0  0  0  0  0
   -0.3672   -2.1503    0.4773 O   0  0  0  0  0  0  0  0  0  0  0  0
    2.4493   -1.8766    0.3278 C   0  0  0  0  0  0  0  0  0  0  0  0
    2.1133    0.5010    0.0775 C   0  0  0  0  0  0  0  0  0  0  0  0
    4.3723   -0.3993    0.1653 C   0  0  0  0  0  0  0  0  0  0  0  0
   -0.5828    0.1120    0.1549 O   0  0  0  0  0  0  0  0  0  0  0  0
    5.7481   -0.2246   -0.0128 N   0  0  0  0  0  0  0  0  0  0  0  0
    3.8338   -1.6841    0.2680 C   0  0  0  0  0  0  0  0  0  0  0  0
    3.5004    0.6831    0.0200 C   0  0  0  0  0  0  0  0  0  0  0  0
   -2.0072   -0.0543    0.2066 C   0  0  0  0  0  0  0  0  0  0  0  0
   -2.6501    1.3111   -0.0174 C   0  0  0  0  0  0  0  0  0  0  0  0
   -4.1711    1.3028    0.1243 C   0  0  0  0  0  0  0  0  0  0  0  0
   -4.8727    0.4479   -0.9206 C   0  0  0  0  0  0  0  0  0  0  0  0
    1.7119    1.5978   -0.2907 H   0  0  0  0  0  0  0  0  0  0  0  0
    1.8256   -2.6983    0.1291 H   0  0  0  0  0  0  0  0  0  0  0  0
    6.0711    0.5226    0.9825 H   0  0  0  0  0  0  0  0  0  0  0  0
    6.1205   -1.1541    1.1416 H   0  0  0  0  0  0  0  0  0  0  0  0
    4.0238    1.7292    0.5096 H   0  0  0  0  0  0  0  0  0  0  0  0
    4.1441   -2.5474    0.9335 H   0  0  0  0  0  0  0  0  0  0  0  0
   -1.8279    1.3870   -1.9981 H   0  0  0  0  0  0  0  0  0  0  0  0
   -1.9003   -0.3722   -2.0101 H   0  0  0  0  0  0  0  0  0  0  0  0
   -2.3962    1.4314    0.4370 H   0  0  0  0  0  0  0  0  0  0  0  0
   -2.4803   -0.3156    0.4683 H   0  0  0  0  0  0  0  0  0  0  0  0
   -4.3474   -0.2606   -1.2255 H   0  0  0  0  0  0  0  0  0  0  0  0
   -4.2686    1.5025   -1.2396 H   0  0  0  0  0  0  0  0  0  0  0  0
   -6.0824    0.7189    0.2433 H   0  0  0  0  0  0  0  0  0  0  0  0
   -4.8426    1.5513    1.1973 H   0  0  0  0  0  0  0  0  0  0  0  0
   -4.9297   -0.2208    1.2073 H   0  0  0  0  0  0  0  0  0  0  0  0
    2.0208    1.4509   -0.5393 H   0  0  0  0  0  0  0  0  0  0  0  0
    0.3970   -2.5615   -0.4066 H   0  0  0  0  0  0  0  0  0  0  0  0
   -2.3747    1.8041    0.9644 H   0  0  0  0  0  0  0  0  0  0  0  0
    2.0555   -2.8859    0.4271 H   0  0  0  0  0  0  0  0  0  0  0  0
    1.4667    1.3693   -0.0203 H   0  0  0  0  0  0  0  0  0  0  0  0
    6.0833    0.7043    0.2208 H   0  0  0  0  0  0  0  0  0  0  0  0
    6.3152   -0.9572    0.4034 H   0  0  0  0  0  0  0  0  0  0  0  0
    4.4882   -2.5517    0.3019 H   0  0  0  0  0  0  0  0  0  0  0  0
    3.8951    1.6837   -0.1407 H   0  0  0  0  0  0  0  0  0  0  0  0
   -2.3154   -0.7562   -0.5762 H   0  0  0  0  0  0  0  0  0  0  0  0
   -2.2903   -0.4486    1.1895 H   0  0  0  0  0  0  0  0  0  0  0  0
   -2.3645    1.6915   -1.0063 H   0  0  0  0  0  0  0  0  0  0  0  0
   -2.2292    2.0243    0.7030 H   0  0  0  0  0  0  0  0  0  0  0  0
   -4.4504    0.9534    1.1250 H   0  0  0  0  0  0  0  0  0  0  0  0
   -4.5347    2.3337    0.0338 H   0  0  0  0  0  0  0  0  0  0  0  0
   -5.9581    0.5560   -0.8268 H   0  0  0  0  0  0  0  0  0  0  0  0
   -4.5874    0.7516   -1.9333 H   0  0  0  0  0  0  0  0  0  0  0  0
   -4.6348   -0.6132   -0.7954 H   0  0  0  0  0  0  0  0  0  0  0  0
  2  1  1  0
  3  1  2  0
  4  2  2  0
  5  2  1  0
  6 10  1  0
  7  1  1  0
  8  6  1  0
  9  4  1  0
 10  5  2  0
 11  7  1  0
 12 11  1  0
 13 12  1  0
 14 13  1  0
  9  6  2  0
 16 17  1  0
 17 15  2  0
 18 15  1  0
 19 16  1  0
 20 21  1  0
 21 23  2  0
 22 21  1  0
 23 15  1  0
 24 18  1  0
 25 19  1  0
 26 20  1  0
 27 18  2  0
 28 19  2  0
 29 20  2  0
 30 17  1  0
 22 16  2  0
 32 31  1  0
 33 31  2  0
 34 32  2  0
 35 32  1  0
 36 40  1  0
 37 31  1  0
 38 36  1  0
 39 34  1  0
 40 35  2  0
 41 37  1  0
 42 41  1  0
 43 42  1  0
 44 43  1  0
 39 36  2  0
  4 45  1  0
  5 46  1  0
  8 47  1  0
  8 48  1  0
  9 49  1  0
 10 50  1  0
 11 51  1  0
 11 52  1  0
 12 53  1  0
 12 54  1  0
 13 55  1  0
 13 56  1  0
 14 57  1  0
 14 58  1  0
 14 59  1  0
 22 60  1  0
 23 61  1  0
 30 62  1  0
 34 63  1  0
 35 64  1  0
 38 65  1  0
 38 66  1  0
 39 67  1  0
 40 68  1  0
 41 69  1  0
 41 70  1  0
 42 71  1  0
 42 72  1  0
 43 73  1  0
 43 74  1  0
 44 75  1  0
 44 76  1  0
 44 77  1  0
M  CHG  6  18   1  19   1  20   1  24  -1  25  -1  26  -1
M  END
$$$$
