
     RDKit          3D

 77 77  0  0  0  0  0  0  0  0999 V2000
   -0.1825    0.3344   -1.2180 C   0  0  0  0  0  0  0  0  0  0  0  0
   -1.6215    0.1105   -0.9110 C   0  0  0  0  0  0  0  0  0  0  0  0
    0.2147    0.8501   -2.2505 O   0  0  0  0  0  0  0  0  0  0  0  0
   -2.0556   -0.4768    0.2829 C   0  0  0  0  0  0  0  0  0  0  0  0
   -2.5697    0.4894   -1.8686 C   0  0  0  0  0  0  0  0  0  0  0  0
   -4.3746   -0.2362   -0.4122 C   0  0  0  0  0  0  0  0  0  0  0  0
    0.5986   -0.1092   -0.2019 O   0  0  0  0  0  0  0  0  0  0  0  0
   -5.7266   -0.5389   -0.2255 N   0  0  0  0  0  0  0  0  0  0  0  0
   -3.4228   -0.6653    0.5163 C   0  0  0  0  0  0  0  0  0  0  0  0
   -3.9336    0.2961   -1.6260 C   0  0  0  0  0  0  0  0  0  0  0  0
    2.0052    0.0769   -0.4165 C   0  0  0  0  0  0  0  0  0  0  0  0
    2.7452   -0.5353    0.7687 C   0  0  0  0  0  0  0  0  0  0  0  0
    4.2662   -0.4765    0.6361 C   0  0  0  0  0  0  0  0  0  0  0  0
    4.8208    0.9395    0.6637 C   0  0  0  0  0  0  0  0  0  0  0  0
   -0.0671    1.2468   -0.3105 C   0  0  0  0  0  0  0  0  0  0  0  0
   -0.9404   -0.8993    0.3226 C   0  0  0  0  0  0  0  0  0  0  0  0
   -1.1757    0.4441    0.0052 C   0  0  0  0  0  0  0  0  0  0  0  0
   -0.2354    2.6654   -0.6514 N   0  0  0  0  0  0  0  0  0  0  0  0
   -2.0528   -1.7678    0.6463 N   0  0  0  0  0  0  0  0  0  0  0  0
    2.7889   -1.2011    0.0361 N   0  0  0  0  0  0  0  0  0  0  0  0
    1.4300   -0.6402    0.0262 C   0  0  0  0  0  0  0  0  0  0  0  0
    0.3431   -1.4592    0.3440 C   0  0  0  0  0  0  0  0  0  0  0  0
    1.2365    0.7106   -0.3032 C   0  0  0  0  0  0  0  0  0  0  0  0
   -1.3952    3.0962   -0.7303 O   0  0  0  0  0  0  0  0  0  0  0  0
   -2.1766   -2.0873    1.8353 O   0  0  0  0  0  0  0  0  0  0  0  0
    3.7256   -0.4314   -0.2091 O   0  0  0  0  0  0  0  0  0  0  0  0
    0.7831    3.3409   -0.8370 O   0  0  0  0  0  0  0  0  0  0  0  0
   -2.7435   -2.1692   -0.2982 O   0  0  0  0  0  0  0  0  0  0  0  0
    2.9067   -2.4070    0.2870 O   0  0  0  0  0  0  0  0  0  0  0  0
   -2.4656    0.8960    0.0391 O   0  0  0  0  0  0  0  0  0  0  0  0
   -0.1816    0.9314    0.2702 C   0  0  0  0  0  0  0  0  0  0  0  0
   -1.6195    0.5509    0.2146 C   0  0  0  0  0  0  0  0  0  0  0  0
    0.3023    1.8318   -0.3972 O   0  0  0  0  0  0  0  0  0  0  0  0
   -2.1599   -0.4737    0.9998 C   0  0  0  0  0  0  0  0  0  0  0  0
   -2.4607    1.2649   -0.6467 C   0  0  0  0  0  0  0  0  0  0  0  0
   -4.3514   -0.1151    0.0068 C   0  0  0  0  0  0  0  0  0  0  0  0
    0.4872    0.1408    1.1468 O   0  0  0  0  0  0  0  0  0  0  0  0
   -5.7299   -0.3509    0.0088 N   0  0  0  0  0  0  0  0  0  0  0  0
   -3.5213   -0.7862    0.9080 C   0  0  0  0  0  0  0  0  0  0  0  0
   -3.8198    0.9452   -0.7311 C   0  0  0  0  0  0  0  0  0  0  0  0
    1.8899    0.4156    1.2888 C   0  0  0  0  0  0  0  0  0  0  0  0
    2.6818   -0.3543    0.2363 C   0  0  0  0  0  0  0  0  0  0  0  0
    4.1829   -0.1186    0.3795 C   0  0  0  0  0  0  0  0  0  0  0  0
    4.9704   -0.8938   -0.6645 C   0  0  0  0  0  0  0  0  0  0  0  0
   -1.3450   -0.8069    1.0364 H   0  0  0  0  0  0  0  0  0  0  0  0
   -2.2524    0.9231   -2.8152 H   0  0  0  0  0  0  0  0  0  0  0  0
   -6.3607    0.0484   -0.7581 H   0  0  0  0  0  0  0  0  0  0  0  0
   -6.0036   -0.6226    0.7473 H   0  0  0  0  0  0  0  0  0  0  0  0
   -3.7379   -1.1535    1.4351 H   0  0  0  0  0  0  0  0  0  0  0  0
   -4.6490    0.5665   -2.3983 H   0  0  0  0  0  0  0  0  0  0  0  0
    2.2126    1.1499   -0.4892 H   0  0  0  0  0  0  0  0  0  0  0  0
    2.3058   -0.4221   -1.3456 H   0  0  0  0  0  0  0  0  0  0  0  0
    2.4260   -0.0421    1.6956 H   0  0  0  0  0  0  0  0  0  0  0  0
    2.4370   -1.5835    0.8737 H   0  0  0  0  0  0  0  0  0  0  0  0
    4.5801   -0.9732   -0.2897 H   0  0  0  0  0  0  0  0  0  0  0  0
    4.7100   -1.0412    1.4649 H   0  0  0  0  0  0  0  0  0  0  0  0
    4.5031    1.4682    1.5684 H   0  0  0  0  0  0  0  0  0  0  0  0
    4.4945    1.5160   -0.2071 H   0  0  0  0  0  0  0  0  0  0  0  0
    5.9155    0.9144    0.6527 H   0  0  0  0  0  0  0  0  0  0  0  0
    0.4774   -2.5091    0.6033 H   0  0  0  0  0  0  0  0  0  0  0  0
    2.0928    1.3399   -0.5501 H   0  0  0  0  0  0  0  0  0  0  0  0
   -2.5318    1.8317   -0.2553 H   0  0  0  0  0  0  0  0  0  0  0  0
   -1.5411   -1.0299    1.6989 H   0  0  0  0  0  0  0  0  0  0  0  0
   -2.0668    2.0829   -1.2469 H   0  0  0  0  0  0  0  0  0  0  0  0
   -6.1966   -0.0730   -0.8489 H   0  0  0  0  0  0  0  0  0  0  0  0
   -5.9881   -1.2897    0.2976 H   0  0  0  0  0  0  0  0  0  0  0  0
   -3.9283   -1.5626    1.5514 H   0  0  0  0  0  0  0  0  0  0  0  0
   -4.4600    1.5352   -1.3821 H   0  0  0  0  0  0  0  0  0  0  0  0
    2.0872    1.4930    1.2419 H   0  0  0  0  0  0  0  0  0  0  0  0
    2.1767    0.0819    2.2918 H   0  0  0  0  0  0  0  0  0  0  0  0
    2.4540   -1.4239    0.3240 H   0  0  0  0  0  0  0  0  0  0  0  0
    2.3499   -0.0594   -0.7664 H   0  0  0  0  0  0  0  0  0  0  0  0
    4.5150   -0.4220    1.3791 H   0  0  0  0  0  0  0  0  0  0  0  0
    4.4026    0.9502    0.2743 H   0  0  0  0  0  0  0  0  0  0  0  0
    6.0421   -0.7009   -0.5514 H   0  0  0  0  0  0  0  0  0  0  0  0
    4.6771   -0.5988   -1.6773 H   0  0  0  0  0  0  0  0  0  0  0  0
    4.8059   -1.9711   -0.5597 H   0  0  0  0  0  0  0  0  0  0  0  0
  2  1  1  0
  3  1  2  0
  4  2  2  0
  5  2  1  0
  6 10  1  0
  7  1  1  0
  8  6  1  0
  9  4  1  0
 10  5  2  0
 11  7  1  0
 12 11  1  0
 13 12  1  0
 14 13  1  0
  9  6  2  0
 16 17  1  0
 17 15  2  0
 18 15  1  0
 19 16  1  0
 20 21  1  0
 21 23  2  0
 22 21  1  0
 23 15  1  0
 24 18  1  0
 25 19  1  0
 26 20  1  0
 27 18  2  0
 28 19  2  0
 29 20  2  0
 30 17  1  0
 22 16  2  0
 32 31  1  0
 33 31  2  0
 34 32  2  0
 35 32  1  0
 36 40  1  0
 37 31  1  0
 38 36  1  0
 39 34  1  0
 40 35  2  0
 41 37  1  0
 42 41  1  0
 43 42  1  0
 44 43  1  0
 39 36  2  0
  4 45  1  0
  5 46  1  0
  8 47  1  0
  8 48  1  0
  9 49  1  0
 10 50  1  0
 11 51  1  0
 11 52  1  0
 12 53  1  0
 12 54  1  0
 13 55  1  0
 13 56  1  0
 14 57  1  0
 14 58  1  0
 14 59  1  0
 22 60  1  0
 23 61  1  0
 30 62  1  0
 34 63  1  0
 35 64  1  0
 38 65  1  0
 38 66  1  0
 39 67  1  0
 40 68  1  0
 41 69  1  0
 41 70  1  0
 42 71  1  0
 42 72  1  0
 43 73  1  0
 43 74  1  0
 44 75  1  0
 44 76  1  0
 44 77  1  0
M  CHG  6  18   1  19   1  20   1  24  -1  25  -1  26  -1
M  END
$$$$
