
     RDKit          3D

 77 77  0  0  0  0  0  0  0  0999 V2000
    0.2083   -0.6071   -0.8519 C   0  0  0  0  0  0  0  0  0  0  0  0
    1.6341   -0.3365   -0.5209 C   0  0  0  0  0  0  0  0  0  0  0  0
   -0.1899   -1.6756   -1.2879 O   0  0  0  0  0  0  0  0  0  0  0  0
    2.0716    0.8948   -0.0196 C   0  0  0  0  0  0  0  0  0  0  0  0
    2.5700   -1.3538   -0.7406 C   0  0  0  0  0  0  0  0  0  0  0  0
    4.3531    0.0609    0.1099 C   0  0  0  0  0  0  0  0  0  0  0  0
   -0.5563    0.4837   -0.5946 O   0  0  0  0  0  0  0  0  0  0  0  0
    5.7183    0.3058    0.2888 N   0  0  0  0  0  0  0  0  0  0  0  0
    3.4261    1.0934    0.2725 C   0  0  0  0  0  0  0  0  0  0  0  0
    3.9215   -1.1453   -0.4464 C   0  0  0  0  0  0  0  0  0  0  0  0
   -1.9583    0.3464   -0.8808 C   0  0  0  0  0  0  0  0  0  0  0  0
   -2.6816   -0.2176    0.3392 C   0  0  0  0  0  0  0  0  0  0  0  0
   -4.1737   -0.4523    0.1096 C   0  0  0  0  0  0  0  0  0  0  0  0
   -4.9574    0.8273   -0.1379 C   0  0  0  0  0  0  0  0  0  0  0  0
    0.5429    1.1640    0.1671 C   0  0  0  0  0  0  0  0  0  0  0  0
   -1.2613   -0.3904   -0.1444 C   0  0  0  0  0  0  0  0  0  0  0  0
   -0.8201    0.9372   -0.0860 C   0  0  0  0  0  0  0  0  0  0  0  0
    1.0797    2.5289    0.2430 N   0  0  0  0  0  0  0  0  0  0  0  0
   -2.6582   -0.6716   -0.3953 N   0  0  0  0  0  0  0  0  0  0  0  0
    1.8721   -2.3596    0.4728 N   0  0  0  0  0  0  0  0  0  0  0  0
    0.9478   -1.2323    0.2811 C   0  0  0  0  0  0  0  0  0  0  0  0
   -0.4042   -1.4834    0.0313 C   0  0  0  0  0  0  0  0  0  0  0  0
    1.4305    0.0844    0.3521 C   0  0  0  0  0  0  0  0  0  0  0  0
    0.2779    3.4633    0.0947 O   0  0  0  0  0  0  0  0  0  0  0  0
   -2.9556   -1.0130   -1.5467 O   0  0  0  0  0  0  0  0  0  0  0  0
    1.3964   -3.5008    0.4290 O   0  0  0  0  0  0  0  0  0  0  0  0
    2.2914    2.6642    0.4482 O   0  0  0  0  0  0  0  0  0  0  0  0
   -3.4220   -0.6145    0.5757 O   0  0  0  0  0  0  0  0  0  0  0  0
    3.0645   -2.0933    0.6664 O   0  0  0  0  0  0  0  0  0  0  0  0
   -1.7398    1.9282   -0.2888 O   0  0  0  0  0  0  0  0  0  0  0  0
    0.1492    1.2146    0.0065 C   0  0  0  0  0  0  0  0  0  0  0  0
   -1.2691    0.7685   -0.0659 C   0  0  0  0  0  0  0  0  0  0  0  0
    0.6592    1.9629   -0.8119 O   0  0  0  0  0  0  0  0  0  0  0  0
   -1.8389   -0.0927    0.8790 C   0  0  0  0  0  0  0  0  0  0  0  0
   -2.0510    1.2179   -1.1364 C   0  0  0  0  0  0  0  0  0  0  0  0
   -3.9780    0.0145   -0.2744 C   0  0  0  0  0  0  0  0  0  0  0  0
    0.7622    0.6709    1.0864 O   0  0  0  0  0  0  0  0  0  0  0  0
   -5.2773   -0.4707   -0.4536 N   0  0  0  0  0  0  0  0  0  0  0  0
   -3.1787   -0.4799    0.7594 C   0  0  0  0  0  0  0  0  0  0  0  0
   -3.3886    0.8241   -1.2480 C   0  0  0  0  0  0  0  0  0  0  0  0
    2.1424    1.0142    1.2855 C   0  0  0  0  0  0  0  0  0  0  0  0
    3.0292   -0.1980    1.0109 C   0  0  0  0  0  0  0  0  0  0  0  0
    3.0053   -0.6243   -0.4580 C   0  0  0  0  0  0  0  0  0  0  0  0
    3.9530   -1.7857   -0.7147 C   0  0  0  0  0  0  0  0  0  0  0  0
    1.3761    1.7151    0.1370 H   0  0  0  0  0  0  0  0  0  0  0  0
    2.2556   -2.3096   -1.1552 H   0  0  0  0  0  0  0  0  0  0  0  0
    5.9233    1.0392    0.9601 H   0  0  0  0  0  0  0  0  0  0  0  0
    6.2697   -0.5310    0.4534 H   0  0  0  0  0  0  0  0  0  0  0  0
    3.7507    2.0675    0.6299 H   0  0  0  0  0  0  0  0  0  0  0  0
    4.6347   -1.9382   -0.6567 H   0  0  0  0  0  0  0  0  0  0  0  0
   -2.1217   -0.2703   -1.7726 H   0  0  0  0  0  0  0  0  0  0  0  0
   -2.3246    1.3510   -1.1139 H   0  0  0  0  0  0  0  0  0  0  0  0
   -2.2164   -1.1677    0.6290 H   0  0  0  0  0  0  0  0  0  0  0  0
   -2.5308    0.4537    1.1939 H   0  0  0  0  0  0  0  0  0  0  0  0
   -4.3175   -1.1371   -0.7342 H   0  0  0  0  0  0  0  0  0  0  0  0
   -4.5881   -0.9493    0.9949 H   0  0  0  0  0  0  0  0  0  0  0  0
   -4.8076    1.5437    0.6761 H   0  0  0  0  0  0  0  0  0  0  0  0
   -4.6617    1.3034   -1.0773 H   0  0  0  0  0  0  0  0  0  0  0  0
   -6.0277    0.6057   -0.2017 H   0  0  0  0  0  0  0  0  0  0  0  0
   -0.7942   -2.4992   -0.0273 H   0  0  0  0  0  0  0  0  0  0  0  0
    2.4880    0.2674    0.5485 H   0  0  0  0  0  0  0  0  0  0  0  0
   -1.3356    2.8206   -0.2097 H   0  0  0  0  0  0  0  0  0  0  0  0
   -1.2532   -0.4830    1.7071 H   0  0  0  0  0  0  0  0  0  0  0  0
   -1.6209    1.8663   -1.8972 H   0  0  0  0  0  0  0  0  0  0  0  0
   -5.8719    0.1349   -1.0112 H   0  0  0  0  0  0  0  0  0  0  0  0
   -5.7298   -0.7700    0.4048 H   0  0  0  0  0  0  0  0  0  0  0  0
   -3.5933   -1.1745    1.4860 H   0  0  0  0  0  0  0  0  0  0  0  0
   -3.9665    1.1592   -2.1056 H   0  0  0  0  0  0  0  0  0  0  0  0
    2.4569    1.8763    0.6865 H   0  0  0  0  0  0  0  0  0  0  0  0
    2.2449    1.3029    2.3372 H   0  0  0  0  0  0  0  0  0  0  0  0
    2.6935   -1.0393    1.6293 H   0  0  0  0  0  0  0  0  0  0  0  0
    4.0570    0.0411    1.3076 H   0  0  0  0  0  0  0  0  0  0  0  0
    3.2913    0.2202   -1.0954 H   0  0  0  0  0  0  0  0  0  0  0  0
    1.9927   -0.9246   -0.7491 H   0  0  0  0  0  0  0  0  0  0  0  0
    3.6753   -2.6585   -0.1149 H   0  0  0  0  0  0  0  0  0  0  0  0
    3.9209   -2.0745   -1.7700 H   0  0  0  0  0  0  0  0  0  0  0  0
    4.9842   -1.5127   -0.4685 H   0  0  0  0  0  0  0  0  0  0  0  0
  2  1  1  0
  3  1  2  0
  4  2  2  0
  5  2  1  0
  6 10  1  0
  7  1  1  0
  8  6  1  0
  9  4  1  0
 10  5  2  0
 11  7  1  0
 12 11  1  0
 13 12  1  0
 14 13  1  0
  9  6  2  0
 16 17  1  0
 17 15  2  0
 18 15  1  0
 19 16  1  0
 20 21  1  0
 21 23  2  0
 22 21  1  0
 23 15  1  0
 24 18  1  0
 25 19  1  0
 26 20  1  0
 27 18  2  0
 28 19  2  0
 29 20  2  0
 30 17  1  0
 22 16  2  0
 32 31  1  0
 33 31  2  0
 34 32  2  0
 35 32  1  0
 36 40  1  0
 37 31  1  0
 38 36  1  0
 39 34  1  0
 40 35  2  0
 41 37  1  0
 42 41  1  0
 43 42  1  0
 44 43  1  0
 39 36  2  0
  4 45  1  0
  5 46  1  0
  8 47  1  0
  8 48  1  0
  9 49  1  0
 10 50  1  0
 11 51  1  0
 11 52  1  0
 12 53  1  0
 12 54  1  0
 13 55  1  0
 13 56  1  0
 14 57  1  0
 14 58  1  0
 14 59  1  0
 22 60  1  0
 23 61  1  0
 30 62  1  0
 34 63  1  0
 35 64  1  0
 38 65  1  0
 38 66  1  0
 39 67  1  0
 40 68  1  0
 41 69  1  0
 41 70  1  0
 42 71  1  0
 42 72  1  0
 43 73  1  0
 43 74  1  0
 44 75  1  0
 44 76  1  0
 44 77  1  0
M  CHG  6  18   1  19   1  20   1  24  -1  25  -1  26  -1
M  END
$$$$
