
     RDKit          3D

 77 77  0  0  0  0  0  0  0  0999 V2000
   -0.2123   -0.4133   -0.7125 C   0  0  0  0  0  0  0  0  0  0  0  0
   -1.6352   -0.2600   -0.3037 C   0  0  0  0  0  0  0  0  0  0  0  0
    0.1561   -0.4220   -1.8764 O   0  0  0  0  0  0  0  0  0  0  0  0
   -2.0385   -0.2516    1.0366 C   0  0  0  0  0  0  0  0  0  0  0  0
   -2.6036   -0.1387   -1.3070 C   0  0  0  0  0  0  0  0  0  0  0  0
   -4.3539    0.0737    0.3652 C   0  0  0  0  0  0  0  0  0  0  0  0
    0.5866   -0.5316    0.3773 O   0  0  0  0  0  0  0  0  0  0  0  0
   -5.7130    0.0962    0.6935 N   0  0  0  0  0  0  0  0  0  0  0  0
   -3.3920   -0.1063    1.3623 C   0  0  0  0  0  0  0  0  0  0  0  0
   -3.9539    0.0052   -0.9712 C   0  0  0  0  0  0  0  0  0  0  0  0
    1.9898   -0.6922    0.1099 C   0  0  0  0  0  0  0  0  0  0  0  0
    2.6542    0.6769   -0.0082 C   0  0  0  0  0  0  0  0  0  0  0  0
    4.1428    0.6059   -0.3447 C   0  0  0  0  0  0  0  0  0  0  0  0
    4.9813   -0.0374    0.7488 C   0  0  0  0  0  0  0  0  0  0  0  0
    1.2056   -0.4472    0.0528 C   0  0  0  0  0  0  0  0  0  0  0  0
   -1.1825   -0.6145   -0.1446 C   0  0  0  0  0  0  0  0  0  0  0  0
    0.0646   -1.2504   -0.1093 C   0  0  0  0  0  0  0  0  0  0  0  0
    2.5472   -1.0427    0.1021 N   0  0  0  0  0  0  0  0  0  0  0  0
   -2.3864   -1.4025   -0.2999 N   0  0  0  0  0  0  0  0  0  0  0  0
   -0.3013    3.0121    0.2432 N   0  0  0  0  0  0  0  0  0  0  0  0
   -0.1790    1.5518    0.1232 C   0  0  0  0  0  0  0  0  0  0  0  0
   -1.3291    0.7737   -0.0351 C   0  0  0  0  0  0  0  0  0  0  0  0
    1.0901    0.9528    0.1701 C   0  0  0  0  0  0  0  0  0  0  0  0
    2.6252   -2.2759   -0.0019 O   0  0  0  0  0  0  0  0  0  0  0  0
   -2.8186   -1.9684    0.7113 O   0  0  0  0  0  0  0  0  0  0  0  0
    0.7440    3.6660    0.3428 O   0  0  0  0  0  0  0  0  0  0  0  0
    3.5130   -0.2837    0.2437 O   0  0  0  0  0  0  0  0  0  0  0  0
   -2.9176   -1.3858   -1.4173 O   0  0  0  0  0  0  0  0  0  0  0  0
   -1.4419    3.4912    0.2378 O   0  0  0  0  0  0  0  0  0  0  0  0
    0.0954   -2.6102   -0.2474 O   0  0  0  0  0  0  0  0  0  0  0  0
    0.2299    0.8732   -0.0542 C   0  0  0  0  0  0  0  0  0  0  0  0
    1.6448    0.4243    0.0553 C   0  0  0  0  0  0  0  0  0  0  0  0
   -0.1331    1.7819   -0.7841 O   0  0  0  0  0  0  0  0  0  0  0  0
    2.0422   -0.6191    0.8994 C   0  0  0  0  0  0  0  0  0  0  0  0
    2.6121    1.0902   -0.7062 C   0  0  0  0  0  0  0  0  0  0  0  0
    4.3470   -0.3739    0.1607 C   0  0  0  0  0  0  0  0  0  0  0  0
   -0.5690    0.1326    0.7541 O   0  0  0  0  0  0  0  0  0  0  0  0
    5.7030   -0.6761    0.3200 N   0  0  0  0  0  0  0  0  0  0  0  0
    3.3883   -0.9976    0.9631 C   0  0  0  0  0  0  0  0  0  0  0  0
    3.9551    0.7051   -0.6348 C   0  0  0  0  0  0  0  0  0  0  0  0
   -1.9647    0.4762    0.7395 C   0  0  0  0  0  0  0  0  0  0  0  0
   -2.6754   -0.2930   -0.3709 C   0  0  0  0  0  0  0  0  0  0  0  0
   -4.1595    0.0474   -0.4965 C   0  0  0  0  0  0  0  0  0  0  0  0
   -4.9788   -0.3554    0.7196 C   0  0  0  0  0  0  0  0  0  0  0  0
   -1.3163   -0.3705    1.8400 H   0  0  0  0  0  0  0  0  0  0  0  0
   -2.3151   -0.1696   -2.3560 H   0  0  0  0  0  0  0  0  0  0  0  0
   -6.3021    0.5243   -0.0139 H   0  0  0  0  0  0  0  0  0  0  0  0
   -5.9085    0.4522    1.6238 H   0  0  0  0  0  0  0  0  0  0  0  0
   -3.6883   -0.1354    2.4079 H   0  0  0  0  0  0  0  0  0  0  0  0
   -4.6913    0.0639   -1.7678 H   0  0  0  0  0  0  0  0  0  0  0  0
    2.4029   -1.2474    0.9578 H   0  0  0  0  0  0  0  0  0  0  0  0
    2.1538   -1.3037   -0.7854 H   0  0  0  0  0  0  0  0  0  0  0  0
    2.5026    1.2364    0.9234 H   0  0  0  0  0  0  0  0  0  0  0  0
    2.1454    1.2606   -0.7851 H   0  0  0  0  0  0  0  0  0  0  0  0
    4.5107    1.6254   -0.5115 H   0  0  0  0  0  0  0  0  0  0  0  0
    4.2870    0.0595   -1.2840 H   0  0  0  0  0  0  0  0  0  0  0  0
    6.0439    0.0243    0.4924 H   0  0  0  0  0  0  0  0  0  0  0  0
    4.7326   -1.0952    0.8752 H   0  0  0  0  0  0  0  0  0  0  0  0
    4.8342    0.4705    1.7071 H   0  0  0  0  0  0  0  0  0  0  0  0
   -2.3209    1.2234   -0.0736 H   0  0  0  0  0  0  0  0  0  0  0  0
    1.9803    1.5711    0.2954 H   0  0  0  0  0  0  0  0  0  0  0  0
    1.0122   -2.9606   -0.1932 H   0  0  0  0  0  0  0  0  0  0  0  0
    1.3216   -1.1397    1.5247 H   0  0  0  0  0  0  0  0  0  0  0  0
    2.3290    1.9216   -1.3490 H   0  0  0  0  0  0  0  0  0  0  0  0
    6.2790   -0.4234   -0.4769 H   0  0  0  0  0  0  0  0  0  0  0  0
    5.8817   -1.6231    0.6388 H   0  0  0  0  0  0  0  0  0  0  0  0
    3.6814   -1.7881    1.6495 H   0  0  0  0  0  0  0  0  0  0  0  0
    4.6930    1.2586   -1.2100 H   0  0  0  0  0  0  0  0  0  0  0  0
   -2.3618    0.1913    1.7187 H   0  0  0  0  0  0  0  0  0  0  0  0
   -2.1039    1.5592    0.6388 H   0  0  0  0  0  0  0  0  0  0  0  0
   -2.1841   -0.0829   -1.3289 H   0  0  0  0  0  0  0  0  0  0  0  0
   -2.5465   -1.3703   -0.2070 H   0  0  0  0  0  0  0  0  0  0  0  0
   -4.5619   -0.4708   -1.3751 H   0  0  0  0  0  0  0  0  0  0  0  0
   -4.2812    1.1214   -0.6790 H   0  0  0  0  0  0  0  0  0  0  0  0
   -6.0422   -0.1742    0.5327 H   0  0  0  0  0  0  0  0  0  0  0  0
   -4.8509   -1.4187    0.9452 H   0  0  0  0  0  0  0  0  0  0  0  0
   -4.6953    0.2232    1.6036 H   0  0  0  0  0  0  0  0  0  0  0  0
  2  1  1  0
  3  1  2  0
  4  2  2  0
  5  2  1  0
  6 10  1  0
  7  1  1  0
  8  6  1  0
  9  4  1  0
 10  5  2  0
 11  7  1  0
 12 11  1  0
 13 12  1  0
 14 13  1  0
  9  6  2  0
 16 17  1  0
 17 15  2  0
 18 15  1  0
 19 16  1  0
 20 21  1  0
 21 23  2  0
 22 21  1  0
 23 15  1  0
 24 18  1  0
 25 19  1  0
 26 20  1  0
 27 18  2  0
 28 19  2  0
 29 20  2  0
 30 17  1  0
 22 16  2  0
 32 31  1  0
 33 31  2  0
 34 32  2  0
 35 32  1  0
 36 40  1  0
 37 31  1  0
 38 36  1  0
 39 34  1  0
 40 35  2  0
 41 37  1  0
 42 41  1  0
 43 42  1  0
 44 43  1  0
 39 36  2  0
  4 45  1  0
  5 46  1  0
  8 47  1  0
  8 48  1  0
  9 49  1  0
 10 50  1  0
 11 51  1  0
 11 52  1  0
 12 53  1  0
 12 54  1  0
 13 55  1  0
 13 56  1  0
 14 57  1  0
 14 58  1  0
 14 59  1  0
 22 60  1  0
 23 61  1  0
 30 62  1  0
 34 63  1  0
 35 64  1  0
 38 65  1  0
 38 66  1  0
 39 67  1  0
 40 68  1  0
 41 69  1  0
 41 70  1  0
 42 71  1  0
 42 72  1  0
 43 73  1  0
 43 74  1  0
 44 75  1  0
 44 76  1  0
 44 77  1  0
M  CHG  6  18   1  19   1  20   1  24  -1  25  -1  26  -1
M  END
$$$$
