
     RDKit          2D

 44 44  0  0  0  0  0  0  0  0999 V2000
    1.4035   -2.4014    0.0000 C   0  0  0  0  0  0  0  0  0  0  0  0
    0.6914   -2.8180    0.0000 C   0  0  0  0  0  0  0  0  0  0  0  0
    1.3986   -1.5731    0.0000 O   0  0  0  0  0  0  0  0  0  0  0  0
    0.6914   -3.6464    0.0000 C   0  0  0  0  0  0  0  0  0  0  0  0
   -0.0207   -2.4014    0.0000 C   0  0  0  0  0  0  0  0  0  0  0  0
   -0.7328   -3.6464    0.0000 C   0  0  0  0  0  0  0  0  0  0  0  0
    2.1156   -2.8084    0.0000 O   0  0  0  0  0  0  0  0  0  0  0  0
   -1.4449   -4.0582    0.0000 N   0  0  0  0  0  0  0  0  0  0  0  0
   -0.0207   -4.0582    0.0000 C   0  0  0  0  0  0  0  0  0  0  0  0
   -0.7328   -2.8180    0.0000 C   0  0  0  0  0  0  0  0  0  0  0  0
    2.8277   -2.3966    0.0000 C   0  0  0  0  0  0  0  0  0  0  0  0
    3.5398   -2.8084    0.0000 C   0  0  0  0  0  0  0  0  0  0  0  0
    4.2519   -2.3869    0.0000 C   0  0  0  0  0  0  0  0  0  0  0  0
    4.9640   -2.8035    0.0000 C   0  0  0  0  0  0  0  0  0  0  0  0
    7.4021   -0.2519    0.0000 C   0  0  0  0  0  0  0  0  0  0  0  0
    8.8263   -0.2519    0.0000 C   0  0  0  0  0  0  0  0  0  0  0  0
    8.1142    0.1599    0.0000 C   0  0  0  0  0  0  0  0  0  0  0  0
    6.6900    0.1599    0.0000 N   0  0  0  0  0  0  0  0  0  0  0  0
    9.5384    0.1695    0.0000 N   0  0  0  0  0  0  0  0  0  0  0  0
    8.1142   -2.3156    0.0000 N   0  0  0  0  0  0  0  0  0  0  0  0
    8.1142   -1.4872    0.0000 C   0  0  0  0  0  0  0  0  0  0  0  0
    8.8263   -1.0803    0.0000 C   0  0  0  0  0  0  0  0  0  0  0  0
    7.4021   -1.0803    0.0000 C   0  0  0  0  0  0  0  0  0  0  0  0
    5.9779   -0.2519    0.0000 O   0  0  0  0  0  0  0  0  0  0  0  0
   10.2505   -0.2471    0.0000 O   0  0  0  0  0  0  0  0  0  0  0  0
    8.8263   -2.7322    0.0000 O   0  0  0  0  0  0  0  0  0  0  0  0
    6.6900    0.9833    0.0000 O   0  0  0  0  0  0  0  0  0  0  0  0
    9.5335    0.9882    0.0000 O   0  0  0  0  0  0  0  0  0  0  0  0
    7.3972   -2.7225    0.0000 O   0  0  0  0  0  0  0  0  0  0  0  0
    8.1142    0.9833    0.0000 O   0  0  0  0  0  0  0  0  0  0  0  0
    0.8623   -0.3101    0.0000 C   0  0  0  0  0  0  0  0  0  0  0  0
    0.1502   -0.7266    0.0000 C   0  0  0  0  0  0  0  0  0  0  0  0
    0.8574    0.5183    0.0000 O   0  0  0  0  0  0  0  0  0  0  0  0
    0.1502   -1.5550    0.0000 C   0  0  0  0  0  0  0  0  0  0  0  0
   -0.5619   -0.3101    0.0000 C   0  0  0  0  0  0  0  0  0  0  0  0
   -1.2740   -1.5550    0.0000 C   0  0  0  0  0  0  0  0  0  0  0  0
    1.5744   -0.7170    0.0000 O   0  0  0  0  0  0  0  0  0  0  0  0
   -1.9861   -1.9668    0.0000 N   0  0  0  0  0  0  0  0  0  0  0  0
   -0.5619   -1.9668    0.0000 C   0  0  0  0  0  0  0  0  0  0  0  0
   -1.2740   -0.7266    0.0000 C   0  0  0  0  0  0  0  0  0  0  0  0
    2.2865   -0.3052    0.0000 C   0  0  0  0  0  0  0  0  0  0  0  0
    2.9986   -0.7170    0.0000 C   0  0  0  0  0  0  0  0  0  0  0  0
    3.7107   -0.2955    0.0000 C   0  0  0  0  0  0  0  0  0  0  0  0
    4.4229   -0.7121    0.0000 C   0  0  0  0  0  0  0  0  0  0  0  0
  2  1  1  0
  3  1  2  0
  4  2  1  0
  5  2  2  0
  6 10  2  0
  7  1  1  0
  8  6  1  0
  9  4  2  0
 10  5  1  0
 11  7  1  0
 12 11  1  0
 13 12  1  0
 14 13  1  0
  9  6  1  0
 16 17  2  0
 17 15  1  0
 18 15  1  0
 19 16  1  0
 20 21  1  0
 21 23  1  0
 22 21  2  0
 23 15  2  0
 24 18  1  0
 25 19  1  0
 26 20  1  0
 27 18  2  0
 28 19  2  0
 29 20  2  0
 30 17  1  0
 22 16  1  0
 32 31  1  0
 33 31  2  0
 34 32  1  0
 35 32  2  0
 36 40  2  0
 37 31  1  0
 38 36  1  0
 39 34  2  0
 40 35  1  0
 41 37  1  0
 42 41  1  0
 43 42  1  0
 44 43  1  0
 39 36  1  0
M  CHG  6  18   1  19   1  20   1  24  -1  25  -1  26  -1
M  END
> <chembl_id>
CHEMBL3142541

> <chembl_pref_name>
BUTAMBEN PICRATE
