
     RDKit          3D

 41 43  0  0  0  0  0  0  0  0999 V2000
   -0.2583   -0.3654   -0.0963 C   0  0  0  0  0  0  0  0  0  0  0  0
   -1.0203    0.9213    0.2281 C   0  0  0  0  0  0  0  0  0  0  0  0
   -1.1644   -1.5742    0.1652 C   0  0  0  0  0  0  0  0  0  0  0  0
   -2.5781    0.4799   -1.7244 C   0  0  0  0  0  0  0  0  0  0  0  0
   -2.6578   -0.8617   -1.7563 C   0  0  0  0  0  0  0  0  0  0  0  0
   -2.1173    1.2936   -0.5847 C   0  0  0  0  0  0  0  0  0  0  0  0
   -2.2959   -1.7779   -0.6594 C   0  0  0  0  0  0  0  0  0  0  0  0
    4.5316    1.3135    0.0702 N   0  0  0  0  0  0  0  0  0  0  0  0
    1.1685   -0.4989    0.5020 C   0  0  0  0  0  0  0  0  0  0  0  0
   -0.6959    1.7355    1.3276 C   0  0  0  0  0  0  0  0  0  0  0  0
   -0.9258   -2.4796    1.2149 C   0  0  0  0  0  0  0  0  0  0  0  0
   -2.8045    2.4896   -0.3240 C   0  0  0  0  0  0  0  0  0  0  0  0
   -3.1112   -2.9021   -0.4566 C   0  0  0  0  0  0  0  0  0  0  0  0
    3.5660    0.3004    0.5018 C   0  0  0  0  0  0  0  0  0  0  0  0
    4.8892    1.1875   -1.3371 C   0  0  0  0  0  0  0  0  0  0  0  0
    2.1662    0.5132   -0.0847 C   0  0  0  0  0  0  0  0  0  0  0  0
   -1.3988    2.9148    1.5837 C   0  0  0  0  0  0  0  0  0  0  0  0
   -1.7560   -3.5845    1.4141 C   0  0  0  0  0  0  0  0  0  0  0  0
   -2.8426   -3.8007    0.5745 C   0  0  0  0  0  0  0  0  0  0  0  0
   -2.4462    3.2968    0.7540 C   0  0  0  0  0  0  0  0  0  0  0  0
   -0.0671   -0.3576   -1.1807 H   0  0  0  0  0  0  0  0  0  0  0  0
   -2.9104    1.0414   -2.5948 H   0  0  0  0  0  0  0  0  0  0  0  0
   -3.0516   -1.3375   -2.6516 H   0  0  0  0  0  0  0  0  0  0  0  0
    5.3796    1.2130    0.6285 H   0  0  0  0  0  0  0  0  0  0  0  0
    1.5536   -1.5032    0.2769 H   0  0  0  0  0  0  0  0  0  0  0  0
    1.1522   -0.4155    1.5951 H   0  0  0  0  0  0  0  0  0  0  0  0
    0.1120    1.4729    2.0040 H   0  0  0  0  0  0  0  0  0  0  0  0
   -0.0926   -2.3408    1.8978 H   0  0  0  0  0  0  0  0  0  0  0  0
   -3.6414    2.7909   -0.9497 H   0  0  0  0  0  0  0  0  0  0  0  0
   -3.9778   -3.0746   -1.0908 H   0  0  0  0  0  0  0  0  0  0  0  0
    3.4970    0.3593    1.5947 H   0  0  0  0  0  0  0  0  0  0  0  0
    3.9350   -0.7054    0.2668 H   0  0  0  0  0  0  0  0  0  0  0  0
    5.2767    0.1899   -1.5673 H   0  0  0  0  0  0  0  0  0  0  0  0
    5.6739    1.9130   -1.5751 H   0  0  0  0  0  0  0  0  0  0  0  0
    4.0424    1.4073   -1.9934 H   0  0  0  0  0  0  0  0  0  0  0  0
    1.8390    1.5380    0.1207 H   0  0  0  0  0  0  0  0  0  0  0  0
    2.1906    0.3939   -1.1739 H   0  0  0  0  0  0  0  0  0  0  0  0
   -1.1248    3.5347    2.4335 H   0  0  0  0  0  0  0  0  0  0  0  0
   -1.5530   -4.2752    2.2285 H   0  0  0  0  0  0  0  0  0  0  0  0
   -3.4889   -4.6604    0.7289 H   0  0  0  0  0  0  0  0  0  0  0  0
   -2.9924    4.2148    0.9519 H   0  0  0  0  0  0  0  0  0  0  0  0
  2  1  1  0
  3  1  1  0
  4  6  1  0
  5  7  1  0
  6  2  2  0
  7  3  2  0
  8 14  1  0
  9  1  1  0
 10  2  1  0
 11  3  1  0
 12  6  1  0
 13  7  1  0
 14 16  1  0
 15  8  1  0
 16  9  1  0
 17 10  2  0
 18 11  2  0
 19 18  1  0
 20 17  1  0
  5  4  2  0
 19 13  2  0
 20 12  2  0
  1 21  1  0
  4 22  1  0
  5 23  1  0
  8 24  1  0
  9 25  1  0
  9 26  1  0
 10 27  1  0
 11 28  1  0
 12 29  1  0
 13 30  1  0
 14 31  1  0
 14 32  1  0
 15 33  1  0
 15 34  1  0
 15 35  1  0
 16 36  1  0
 16 37  1  0
 17 38  1  0
 18 39  1  0
 19 40  1  0
 20 41  1  0
M  END
$$$$
