
     RDKit          3D

 41 43  0  0  0  0  0  0  0  0999 V2000
   -0.0797    0.4412   -0.2176 C   0  0  0  0  0  0  0  0  0  0  0  0
   -0.9723   -0.3938    0.6922 C   0  0  0  0  0  0  0  0  0  0  0  0
   -0.7793    1.6886   -0.7536 C   0  0  0  0  0  0  0  0  0  0  0  0
   -2.7723   -0.7144   -1.0662 C   0  0  0  0  0  0  0  0  0  0  0  0
   -2.6715    0.3848   -1.8281 C   0  0  0  0  0  0  0  0  0  0  0  0
   -2.2119   -0.9148    0.2768 C   0  0  0  0  0  0  0  0  0  0  0  0
   -1.9766    1.6345   -1.4918 C   0  0  0  0  0  0  0  0  0  0  0  0
    3.6736   -2.0885    0.1492 N   0  0  0  0  0  0  0  0  0  0  0  0
    0.5954   -0.3665   -1.3554 C   0  0  0  0  0  0  0  0  0  0  0  0
   -0.5259   -0.6692    2.0019 C   0  0  0  0  0  0  0  0  0  0  0  0
   -0.1848    2.9457   -0.5150 C   0  0  0  0  0  0  0  0  0  0  0  0
   -2.9551   -1.7126    1.1647 C   0  0  0  0  0  0  0  0  0  0  0  0
   -2.5330    2.8271   -1.9868 C   0  0  0  0  0  0  0  0  0  0  0  0
    2.7946   -0.9671   -0.1849 C   0  0  0  0  0  0  0  0  0  0  0  0
    4.8991   -1.6251    0.7848 C   0  0  0  0  0  0  0  0  0  0  0  0
    1.5396   -1.4868   -0.8916 C   0  0  0  0  0  0  0  0  0  0  0  0
   -1.2808   -1.4522    2.8745 C   0  0  0  0  0  0  0  0  0  0  0  0
   -0.7571    4.1205   -1.0017 C   0  0  0  0  0  0  0  0  0  0  0  0
   -1.9314    4.0612   -1.7403 C   0  0  0  0  0  0  0  0  0  0  0  0
   -2.4960   -1.9766    2.4549 C   0  0  0  0  0  0  0  0  0  0  0  0
    0.7361    0.8174    0.4133 H   0  0  0  0  0  0  0  0  0  0  0  0
   -3.3485   -1.5515   -1.4560 H   0  0  0  0  0  0  0  0  0  0  0  0
   -3.1718    0.3795   -2.7947 H   0  0  0  0  0  0  0  0  0  0  0  0
    3.9070   -2.6049   -0.6987 H   0  0  0  0  0  0  0  0  0  0  0  0
   -0.1562   -0.8227   -2.0091 H   0  0  0  0  0  0  0  0  0  0  0  0
    1.1649    0.3207   -1.9961 H   0  0  0  0  0  0  0  0  0  0  0  0
    0.4279   -0.2792    2.3514 H   0  0  0  0  0  0  0  0  0  0  0  0
    0.7386    3.0175    0.0562 H   0  0  0  0  0  0  0  0  0  0  0  0
   -3.9123   -2.1294    0.8583 H   0  0  0  0  0  0  0  0  0  0  0  0
   -3.4553    2.8042   -2.5637 H   0  0  0  0  0  0  0  0  0  0  0  0
    3.3153   -0.2592   -0.8409 H   0  0  0  0  0  0  0  0  0  0  0  0
    2.5192   -0.4409    0.7344 H   0  0  0  0  0  0  0  0  0  0  0  0
    5.4715   -0.9680    0.1221 H   0  0  0  0  0  0  0  0  0  0  0  0
    4.6850   -1.0945    1.7183 H   0  0  0  0  0  0  0  0  0  0  0  0
    5.5290   -2.4851    1.0324 H   0  0  0  0  0  0  0  0  0  0  0  0
    1.0032   -2.1917   -0.2455 H   0  0  0  0  0  0  0  0  0  0  0  0
    1.8423   -2.0546   -1.7817 H   0  0  0  0  0  0  0  0  0  0  0  0
   -0.9156   -1.6549    3.8776 H   0  0  0  0  0  0  0  0  0  0  0  0
   -0.2843    5.0788   -0.8046 H   0  0  0  0  0  0  0  0  0  0  0  0
   -2.3825    4.9723   -2.1237 H   0  0  0  0  0  0  0  0  0  0  0  0
   -3.0880   -2.5899    3.1285 H   0  0  0  0  0  0  0  0  0  0  0  0
  2  1  1  0
  3  1  1  0
  4  6  1  0
  5  7  1  0
  6  2  2  0
  7  3  2  0
  8 14  1  0
  9  1  1  0
 10  2  1  0
 11  3  1  0
 12  6  1  0
 13  7  1  0
 14 16  1  0
 15  8  1  0
 16  9  1  0
 17 10  2  0
 18 11  2  0
 19 18  1  0
 20 17  1  0
  5  4  2  0
 19 13  2  0
 20 12  2  0
  1 21  1  0
  4 22  1  0
  5 23  1  0
  8 24  1  0
  9 25  1  0
  9 26  1  0
 10 27  1  0
 11 28  1  0
 12 29  1  0
 13 30  1  0
 14 31  1  0
 14 32  1  0
 15 33  1  0
 15 34  1  0
 15 35  1  0
 16 36  1  0
 16 37  1  0
 17 38  1  0
 18 39  1  0
 19 40  1  0
 20 41  1  0
M  END
$$$$
