
     RDKit          3D

 41 43  0  0  0  0  0  0  0  0999 V2000
    0.0024    0.1445   -0.1396 C   0  0  0  0  0  0  0  0  0  0  0  0
   -0.5952    1.5572   -0.1112 C   0  0  0  0  0  0  0  0  0  0  0  0
   -1.0959   -0.8593   -0.5020 C   0  0  0  0  0  0  0  0  0  0  0  0
   -1.9863    0.9154    1.9114 C   0  0  0  0  0  0  0  0  0  0  0  0
   -2.2433   -0.3887    1.7094 C   0  0  0  0  0  0  0  0  0  0  0  0
   -1.5409    1.8827    0.8906 C   0  0  0  0  0  0  0  0  0  0  0  0
   -2.1407   -1.0981    0.4215 C   0  0  0  0  0  0  0  0  0  0  0  0
    3.1682   -0.6299    1.4300 N   0  0  0  0  0  0  0  0  0  0  0  0
    1.3340    0.0222   -0.9302 C   0  0  0  0  0  0  0  0  0  0  0  0
   -0.2527    2.5392   -1.0576 C   0  0  0  0  0  0  0  0  0  0  0  0
   -1.1354   -1.5225   -1.7411 C   0  0  0  0  0  0  0  0  0  0  0  0
   -2.0701    3.1811    0.9517 C   0  0  0  0  0  0  0  0  0  0  0  0
   -3.1329   -2.0453    0.1233 C   0  0  0  0  0  0  0  0  0  0  0  0
    2.4560   -1.6755    0.6941 C   0  0  0  0  0  0  0  0  0  0  0  0
    4.5294   -0.4333    0.9484 C   0  0  0  0  0  0  0  0  0  0  0  0
    2.0990   -1.3032   -0.7500 C   0  0  0  0  0  0  0  0  0  0  0  0
   -0.8003    3.8221   -0.9925 C   0  0  0  0  0  0  0  0  0  0  0  0
   -2.1384   -2.4498   -2.0314 C   0  0  0  0  0  0  0  0  0  0  0  0
   -3.1298   -2.7203   -1.0958 C   0  0  0  0  0  0  0  0  0  0  0  0
   -1.7026    4.1454    0.0145 C   0  0  0  0  0  0  0  0  0  0  0  0
    0.3010   -0.0641    0.8967 H   0  0  0  0  0  0  0  0  0  0  0  0
   -2.1364    1.3263    2.9072 H   0  0  0  0  0  0  0  0  0  0  0  0
   -2.5949   -0.9861    2.5473 H   0  0  0  0  0  0  0  0  0  0  0  0
    3.2069   -0.8933    2.4150 H   0  0  0  0  0  0  0  0  0  0  0  0
    2.0033    0.8380   -0.6250 H   0  0  0  0  0  0  0  0  0  0  0  0
    1.1626    0.1711   -2.0035 H   0  0  0  0  0  0  0  0  0  0  0  0
    0.4465    2.3252   -1.8606 H   0  0  0  0  0  0  0  0  0  0  0  0
   -0.3883   -1.3290   -2.5052 H   0  0  0  0  0  0  0  0  0  0  0  0
   -2.7891    3.4460    1.7234 H   0  0  0  0  0  0  0  0  0  0  0  0
   -3.9336   -2.2447    0.8319 H   0  0  0  0  0  0  0  0  0  0  0  0
    1.5336   -1.9068    1.2389 H   0  0  0  0  0  0  0  0  0  0  0  0
    3.0402   -2.6043    0.6979 H   0  0  0  0  0  0  0  0  0  0  0  0
    5.0294    0.3114    1.5759 H   0  0  0  0  0  0  0  0  0  0  0  0
    4.5466   -0.0520   -0.0767 H   0  0  0  0  0  0  0  0  0  0  0  0
    5.1125   -1.3585    0.9995 H   0  0  0  0  0  0  0  0  0  0  0  0
    1.5216   -2.1290   -1.1795 H   0  0  0  0  0  0  0  0  0  0  0  0
    3.0166   -1.2491   -1.3490 H   0  0  0  0  0  0  0  0  0  0  0  0
   -0.5191    4.5688   -1.7305 H   0  0  0  0  0  0  0  0  0  0  0  0
   -2.1453   -2.9571   -2.9927 H   0  0  0  0  0  0  0  0  0  0  0  0
   -3.9112   -3.4408   -1.3210 H   0  0  0  0  0  0  0  0  0  0  0  0
   -2.1273    5.1440    0.0665 H   0  0  0  0  0  0  0  0  0  0  0  0
  2  1  1  0
  3  1  1  0
  4  6  1  0
  5  7  1  0
  6  2  2  0
  7  3  2  0
  8 14  1  0
  9  1  1  0
 10  2  1  0
 11  3  1  0
 12  6  1  0
 13  7  1  0
 14 16  1  0
 15  8  1  0
 16  9  1  0
 17 10  2  0
 18 11  2  0
 19 18  1  0
 20 17  1  0
  5  4  2  0
 19 13  2  0
 20 12  2  0
  1 21  1  0
  4 22  1  0
  5 23  1  0
  8 24  1  0
  9 25  1  0
  9 26  1  0
 10 27  1  0
 11 28  1  0
 12 29  1  0
 13 30  1  0
 14 31  1  0
 14 32  1  0
 15 33  1  0
 15 34  1  0
 15 35  1  0
 16 36  1  0
 16 37  1  0
 17 38  1  0
 18 39  1  0
 19 40  1  0
 20 41  1  0
M  END
$$$$
