
     RDKit          3D

 20 22  0  0  0  0  0  0  0  0999 V2000
    0.4106    0.2680    0.4428 C   0  0  0  0  0  0  0  0  0  0  0  0
   -0.4223    1.4711    0.6920 C   0  0  0  0  0  0  0  0  0  0  0  0
   -0.2885   -0.7873   -0.3128 C   0  0  0  0  0  0  0  0  0  0  0  0
   -1.4384    1.8158   -1.5838 C   0  0  0  0  0  0  0  0  0  0  0  0
   -1.3678    0.5962   -2.1380 C   0  0  0  0  0  0  0  0  0  0  0  0
   -1.2385    2.1705   -0.1713 C   0  0  0  0  0  0  0  0  0  0  0  0
   -1.0701   -0.6743   -1.4433 C   0  0  0  0  0  0  0  0  0  0  0  0
    3.7890   -2.2287   -0.0911 N   0  0  0  0  0  0  0  0  0  0  0  0
    1.0917   -0.2332    1.6657 C   0  0  0  0  0  0  0  0  0  0  0  0
   -0.3266    1.9055    1.9769 C   0  0  0  0  0  0  0  0  0  0  0  0
   -0.1008   -2.0415    0.2263 C   0  0  0  0  0  0  0  0  0  0  0  0
   -1.9527    3.2849    0.2242 C   0  0  0  0  0  0  0  0  0  0  0  0
   -1.6707   -1.7644   -2.0555 C   0  0  0  0  0  0  0  0  0  0  0  0
    2.9658   -1.1174    0.2847 C   0  0  0  0  0  0  0  0  0  0  0  0
    4.7634   -1.8237   -1.0851 C   0  0  0  0  0  0  0  0  0  0  0  0
    1.9176   -1.4548    1.3227 C   0  0  0  0  0  0  0  0  0  0  0  0
   -1.0364    3.0176    2.3806 C   0  0  0  0  0  0  0  0  0  0  0  0
   -0.6924   -3.1311   -0.3730 C   0  0  0  0  0  0  0  0  0  0  0  0
   -1.4729   -3.0107   -1.5038 C   0  0  0  0  0  0  0  0  0  0  0  0
   -1.8600    3.7375    1.5416 C   0  0  0  0  0  0  0  0  0  0  0  0
  2  1  1  0
  3  1  1  0
  4  6  1  0
  5  7  1  0
  6  2  2  0
  7  3  2  0
  8 14  1  0
  9  1  1  0
 10  2  1  0
 11  3  1  0
 12  6  1  0
 13  7  1  0
 14 16  1  0
 15  8  1  0
 16  9  1  0
 17 10  2  0
 18 11  2  0
 19 18  1  0
 20 17  1  0
  5  4  2  0
 19 13  2  0
 20 12  2  0
M  END
