
     RDKit          3D

 41 43  0  0  0  0  0  0  0  0999 V2000
   -0.2257    0.2969   -0.7195 C   0  0  0  0  0  0  0  0  0  0  0  0
   -1.1003   -0.9385   -0.5466 C   0  0  0  0  0  0  0  0  0  0  0  0
   -1.0379    1.5802   -0.8690 C   0  0  0  0  0  0  0  0  0  0  0  0
   -2.2642   -0.0413    1.5204 C   0  0  0  0  0  0  0  0  0  0  0  0
   -2.2324    1.2889    1.3495 C   0  0  0  0  0  0  0  0  0  0  0  0
   -2.0354   -1.0701    0.4970 C   0  0  0  0  0  0  0  0  0  0  0  0
   -1.9605    2.0147    0.1013 C   0  0  0  0  0  0  0  0  0  0  0  0
    4.0169   -1.5386    1.2337 N   0  0  0  0  0  0  0  0  0  0  0  0
    0.8825    0.4432    0.3526 C   0  0  0  0  0  0  0  0  0  0  0  0
   -0.9536   -1.9995   -1.4646 C   0  0  0  0  0  0  0  0  0  0  0  0
   -0.8371    2.3720   -2.0190 C   0  0  0  0  0  0  0  0  0  0  0  0
   -2.7736   -2.2610    0.6122 C   0  0  0  0  0  0  0  0  0  0  0  0
   -2.6374    3.2317   -0.0909 C   0  0  0  0  0  0  0  0  0  0  0  0
    3.0362   -0.4560    1.3197 C   0  0  0  0  0  0  0  0  0  0  0  0
    5.0962   -1.3440    2.1920 C   0  0  0  0  0  0  0  0  0  0  0  0
    1.9212   -0.6854    0.2961 C   0  0  0  0  0  0  0  0  0  0  0  0
   -1.7032   -3.1690   -1.3440 C   0  0  0  0  0  0  0  0  0  0  0  0
   -1.5269    3.5702   -2.2006 C   0  0  0  0  0  0  0  0  0  0  0  0
   -2.4265    4.0019   -1.2346 C   0  0  0  0  0  0  0  0  0  0  0  0
   -2.6123   -3.3014   -0.3028 C   0  0  0  0  0  0  0  0  0  0  0  0
    0.3077    0.1671   -1.6728 H   0  0  0  0  0  0  0  0  0  0  0  0
   -2.5084   -0.4209    2.5108 H   0  0  0  0  0  0  0  0  0  0  0  0
   -2.4532    1.9166    2.2108 H   0  0  0  0  0  0  0  0  0  0  0  0
    4.4042   -1.5750    0.2915 H   0  0  0  0  0  0  0  0  0  0  0  0
    1.4018    1.3987    0.1969 H   0  0  0  0  0  0  0  0  0  0  0  0
    0.4641    0.4870    1.3639 H   0  0  0  0  0  0  0  0  0  0  0  0
   -0.2407   -1.9226   -2.2831 H   0  0  0  0  0  0  0  0  0  0  0  0
   -0.1330    2.0573   -2.7865 H   0  0  0  0  0  0  0  0  0  0  0  0
   -3.4956   -2.3836    1.4170 H   0  0  0  0  0  0  0  0  0  0  0  0
   -3.3504    3.5862    0.6507 H   0  0  0  0  0  0  0  0  0  0  0  0
    3.5201    0.5087    1.1251 H   0  0  0  0  0  0  0  0  0  0  0  0
    2.6028   -0.4225    2.3264 H   0  0  0  0  0  0  0  0  0  0  0  0
    5.6395   -0.4128    2.0015 H   0  0  0  0  0  0  0  0  0  0  0  0
    4.7170   -1.3342    3.2191 H   0  0  0  0  0  0  0  0  0  0  0  0
    5.8080   -2.1715    2.1121 H   0  0  0  0  0  0  0  0  0  0  0  0
    1.4383   -1.6493    0.4964 H   0  0  0  0  0  0  0  0  0  0  0  0
    2.3486   -0.7373   -0.7131 H   0  0  0  0  0  0  0  0  0  0  0  0
   -1.5728   -3.9755   -2.0605 H   0  0  0  0  0  0  0  0  0  0  0  0
   -1.3595    4.1646   -3.0948 H   0  0  0  0  0  0  0  0  0  0  0  0
   -2.9666    4.9350   -1.3691 H   0  0  0  0  0  0  0  0  0  0  0  0
   -3.1976   -4.2110   -0.2008 H   0  0  0  0  0  0  0  0  0  0  0  0
  2  1  1  0
  3  1  1  0
  4  6  1  0
  5  7  1  0
  6  2  2  0
  7  3  2  0
  8 14  1  0
  9  1  1  0
 10  2  1  0
 11  3  1  0
 12  6  1  0
 13  7  1  0
 14 16  1  0
 15  8  1  0
 16  9  1  0
 17 10  2  0
 18 11  2  0
 19 18  1  0
 20 17  1  0
  5  4  2  0
 19 13  2  0
 20 12  2  0
  1 21  1  0
  4 22  1  0
  5 23  1  0
  8 24  1  0
  9 25  1  0
  9 26  1  0
 10 27  1  0
 11 28  1  0
 12 29  1  0
 13 30  1  0
 14 31  1  0
 14 32  1  0
 15 33  1  0
 15 34  1  0
 15 35  1  0
 16 36  1  0
 16 37  1  0
 17 38  1  0
 18 39  1  0
 19 40  1  0
 20 41  1  0
M  END
$$$$
