
     RDKit          3D

 26 27  0  0  0  0  0  0  0  0999 V2000
    1.4818   -0.1160   -0.2677 N   0  0  0  0  0  0  0  0  0  0  0  0
    2.8248   -0.0763   -0.0512 C   0  0  0  0  0  0  0  0  0  0  0  0
    0.6238    1.0560   -0.0533 C   0  0  0  0  0  0  0  0  0  0  0  0
   -0.8304    0.7045    0.2045 C   0  0  0  0  0  0  0  0  0  0  0  0
    3.5948   -1.0838    0.1679 N   0  0  0  0  0  0  0  0  0  0  0  0
    0.8470   -1.2092   -1.0044 C   0  0  0  0  0  0  0  0  0  0  0  0
   -1.3056   -0.6168    0.1129 C   0  0  0  0  0  0  0  0  0  0  0  0
   -0.3513   -1.7346   -0.2183 C   0  0  0  0  0  0  0  0  0  0  0  0
    3.4017    1.1428   -0.0693 N   0  0  0  0  0  0  0  0  0  0  0  0
   -1.7314    1.7308    0.5313 C   0  0  0  0  0  0  0  0  0  0  0  0
   -2.6534   -0.8955    0.3769 C   0  0  0  0  0  0  0  0  0  0  0  0
   -3.0749    1.4467    0.7780 C   0  0  0  0  0  0  0  0  0  0  0  0
   -3.5344    0.1344    0.7036 C   0  0  0  0  0  0  0  0  0  0  0  0
    0.6752    1.7031   -0.9375 H   0  0  0  0  0  0  0  0  0  0  0  0
    0.9832    1.6216    0.8156 H   0  0  0  0  0  0  0  0  0  0  0  0
    3.0229   -1.9271    0.2216 H   0  0  0  0  0  0  0  0  0  0  0  0
    0.5284   -0.8389   -1.9879 H   0  0  0  0  0  0  0  0  0  0  0  0
    1.5389   -2.0354   -1.1999 H   0  0  0  0  0  0  0  0  0  0  0  0
   -0.0162   -2.1956    0.7187 H   0  0  0  0  0  0  0  0  0  0  0  0
   -0.8596   -2.5019   -0.8136 H   0  0  0  0  0  0  0  0  0  0  0  0
    3.1780    1.6662   -0.9044 H   0  0  0  0  0  0  0  0  0  0  0  0
    4.4078    1.0209    0.0043 H   0  0  0  0  0  0  0  0  0  0  0  0
   -1.3866    2.7604    0.6029 H   0  0  0  0  0  0  0  0  0  0  0  0
   -3.0233   -1.9172    0.3298 H   0  0  0  0  0  0  0  0  0  0  0  0
   -3.7618    2.2488    1.0353 H   0  0  0  0  0  0  0  0  0  0  0  0
   -4.5792   -0.0879    0.9044 H   0  0  0  0  0  0  0  0  0  0  0  0
  2  1  1  0
  3  1  1  0
  4  3  1  0
  5  2  2  3
  6  1  1  0
  7  8  1  0
  8  6  1  0
  9  2  1  0
 10  4  2  0
 11  7  2  0
 12 10  1  0
 13 11  1  0
  4  7  1  0
 12 13  2  0
  3 14  1  0
  3 15  1  0
  5 16  1  0
  6 17  1  0
  6 18  1  0
  8 19  1  0
  8 20  1  0
  9 21  1  0
  9 22  1  0
 10 23  1  0
 11 24  1  0
 12 25  1  0
 13 26  1  0
M  END
$$$$
