
     RDKit          3D

 26 27  0  0  0  0  0  0  0  0999 V2000
   -1.5169   -0.0620    0.1394 N   0  0  0  0  0  0  0  0  0  0  0  0
   -2.7954   -0.2645    0.5801 C   0  0  0  0  0  0  0  0  0  0  0  0
   -0.4179   -0.7363    0.8624 C   0  0  0  0  0  0  0  0  0  0  0  0
    0.9692   -0.3310    0.4024 C   0  0  0  0  0  0  0  0  0  0  0  0
   -3.8454   -0.5201   -0.1158 N   0  0  0  0  0  0  0  0  0  0  0  0
   -1.2416    0.1451   -1.2863 C   0  0  0  0  0  0  0  0  0  0  0  0
    1.1711    0.4946   -0.7156 C   0  0  0  0  0  0  0  0  0  0  0  0
   -0.0144    1.0374   -1.4641 C   0  0  0  0  0  0  0  0  0  0  0  0
   -2.9604   -0.1421    1.9136 N   0  0  0  0  0  0  0  0  0  0  0  0
    2.0871   -0.8147    1.1019 C   0  0  0  0  0  0  0  0  0  0  0  0
    2.4717    0.8515   -1.0973 C   0  0  0  0  0  0  0  0  0  0  0  0
    3.3795   -0.4673    0.7076 C   0  0  0  0  0  0  0  0  0  0  0  0
    3.5711    0.3678   -0.3897 C   0  0  0  0  0  0  0  0  0  0  0  0
   -0.4813   -0.5115    1.9338 H   0  0  0  0  0  0  0  0  0  0  0  0
   -0.5226   -1.8207    0.7308 H   0  0  0  0  0  0  0  0  0  0  0  0
   -3.5987   -0.6121   -1.0997 H   0  0  0  0  0  0  0  0  0  0  0  0
   -2.0832    0.6465   -1.7788 H   0  0  0  0  0  0  0  0  0  0  0  0
   -1.0990   -0.8244   -1.7805 H   0  0  0  0  0  0  0  0  0  0  0  0
   -0.2272    2.0458   -1.0882 H   0  0  0  0  0  0  0  0  0  0  0  0
    0.2156    1.1162   -2.5330 H   0  0  0  0  0  0  0  0  0  0  0  0
   -2.5089    0.6887    2.2742 H   0  0  0  0  0  0  0  0  0  0  0  0
   -3.9541   -0.1294    2.1214 H   0  0  0  0  0  0  0  0  0  0  0  0
    1.9540   -1.4651    1.9642 H   0  0  0  0  0  0  0  0  0  0  0  0
    2.6342    1.5082   -1.9489 H   0  0  0  0  0  0  0  0  0  0  0  0
    4.2364   -0.8453    1.2591 H   0  0  0  0  0  0  0  0  0  0  0  0
    4.5773    0.6445   -0.6933 H   0  0  0  0  0  0  0  0  0  0  0  0
  2  1  1  0
  3  1  1  0
  4  3  1  0
  5  2  2  3
  6  1  1  0
  7  8  1  0
  8  6  1  0
  9  2  1  0
 10  4  2  0
 11  7  2  0
 12 10  1  0
 13 11  1  0
  4  7  1  0
 12 13  2  0
  3 14  1  0
  3 15  1  0
  5 16  1  0
  6 17  1  0
  6 18  1  0
  8 19  1  0
  8 20  1  0
  9 21  1  0
  9 22  1  0
 10 23  1  0
 11 24  1  0
 12 25  1  0
 13 26  1  0
M  END
$$$$
