
     RDKit          3D

 26 27  0  0  0  0  0  0  0  0999 V2000
   -1.5007   -0.1187   -0.1255 N   0  0  0  0  0  0  0  0  0  0  0  0
   -2.8479   -0.2103    0.0717 C   0  0  0  0  0  0  0  0  0  0  0  0
   -0.6452    0.3379    0.9818 C   0  0  0  0  0  0  0  0  0  0  0  0
    0.8421    0.1864    0.7321 C   0  0  0  0  0  0  0  0  0  0  0  0
   -3.4327   -0.6991    1.1088 N   0  0  0  0  0  0  0  0  0  0  0  0
   -0.9269    0.0742   -1.4624 C   0  0  0  0  0  0  0  0  0  0  0  0
    1.3474   -0.2843   -0.4910 C   0  0  0  0  0  0  0  0  0  0  0  0
    0.3943   -0.6823   -1.5840 C   0  0  0  0  0  0  0  0  0  0  0  0
   -3.6420    0.2587   -0.9122 N   0  0  0  0  0  0  0  0  0  0  0  0
    1.7435    0.5367    1.7508 C   0  0  0  0  0  0  0  0  0  0  0  0
    2.7299   -0.4281   -0.6696 C   0  0  0  0  0  0  0  0  0  0  0  0
    3.1195    0.4056    1.5606 C   0  0  0  0  0  0  0  0  0  0  0  0
    3.6118   -0.0795    0.3521 C   0  0  0  0  0  0  0  0  0  0  0  0
   -0.8573    1.3977    1.1708 H   0  0  0  0  0  0  0  0  0  0  0  0
   -0.8794   -0.2242    1.8928 H   0  0  0  0  0  0  0  0  0  0  0  0
   -2.7241   -1.0828    1.7353 H   0  0  0  0  0  0  0  0  0  0  0  0
   -1.5962   -0.3075   -2.2427 H   0  0  0  0  0  0  0  0  0  0  0  0
   -0.7832    1.1464   -1.6484 H   0  0  0  0  0  0  0  0  0  0  0  0
    0.2182   -1.7627   -1.5141 H   0  0  0  0  0  0  0  0  0  0  0  0
    0.8344   -0.4732   -2.5659 H   0  0  0  0  0  0  0  0  0  0  0  0
   -3.3920    1.1905   -1.2117 H   0  0  0  0  0  0  0  0  0  0  0  0
   -4.6052    0.2357   -0.5908 H   0  0  0  0  0  0  0  0  0  0  0  0
    1.3753    0.9102    2.7042 H   0  0  0  0  0  0  0  0  0  0  0  0
    3.1262   -0.8133   -1.6065 H   0  0  0  0  0  0  0  0  0  0  0  0
    3.8071    0.6761    2.3578 H   0  0  0  0  0  0  0  0  0  0  0  0
    4.6832   -0.1900    0.2063 H   0  0  0  0  0  0  0  0  0  0  0  0
  2  1  1  0
  3  1  1  0
  4  3  1  0
  5  2  2  3
  6  1  1  0
  7  8  1  0
  8  6  1  0
  9  2  1  0
 10  4  2  0
 11  7  2  0
 12 10  1  0
 13 11  1  0
  4  7  1  0
 12 13  2  0
  3 14  1  0
  3 15  1  0
  5 16  1  0
  6 17  1  0
  6 18  1  0
  8 19  1  0
  8 20  1  0
  9 21  1  0
  9 22  1  0
 10 23  1  0
 11 24  1  0
 12 25  1  0
 13 26  1  0
M  END
$$$$
