
     RDKit          3D

 13 14  0  0  0  0  0  0  0  0999 V2000
    1.4149   -0.6519   -0.1351 N   0  0  0  0  0  0  0  0  0  0  0  0
    2.5698    0.1665    0.0364 C   0  0  0  0  0  0  0  0  0  0  0  0
    0.5319   -0.4770   -1.2966 C   0  0  0  0  0  0  0  0  0  0  0  0
   -0.7267    0.0671   -0.6894 C   0  0  0  0  0  0  0  0  0  0  0  0
    3.6166   -0.2470    0.6686 N   0  0  0  0  0  0  0  0  0  0  0  0
    1.0372   -1.6915    0.8023 C   0  0  0  0  0  0  0  0  0  0  0  0
   -1.1732   -0.5868    0.4595 C   0  0  0  0  0  0  0  0  0  0  0  0
   -0.4544   -1.7395    1.0408 C   0  0  0  0  0  0  0  0  0  0  0  0
    2.5122    1.4868   -0.5337 N   0  0  0  0  0  0  0  0  0  0  0  0
   -1.4013    1.1407   -1.2259 C   0  0  0  0  0  0  0  0  0  0  0  0
   -2.3388   -0.0767    1.0150 C   0  0  0  0  0  0  0  0  0  0  0  0
   -2.5600    1.6150   -0.6375 C   0  0  0  0  0  0  0  0  0  0  0  0
   -3.0284    0.9943    0.4957 C   0  0  0  0  0  0  0  0  0  0  0  0
  2  1  1  0
  3  1  1  0
  4  3  1  0
  5  2  2  0
  6  1  1  0
  7  8  1  0
  8  6  1  0
  9  2  1  0
 10  4  2  0
 11  7  2  0
 12 10  1  0
 13 11  1  0
  4  7  1  0
 12 13  2  0
M  END
