
     RDKit          3D

 26 27  0  0  0  0  0  0  0  0999 V2000
   -1.4958    0.0995   -0.2839 N   0  0  0  0  0  0  0  0  0  0  0  0
   -2.7970    0.5071   -0.3569 C   0  0  0  0  0  0  0  0  0  0  0  0
   -0.4468    0.8178   -1.0189 C   0  0  0  0  0  0  0  0  0  0  0  0
    0.9574    0.4714   -0.5634 C   0  0  0  0  0  0  0  0  0  0  0  0
   -3.3097    1.3878   -1.1410 N   0  0  0  0  0  0  0  0  0  0  0  0
   -1.1667   -1.3148   -0.0437 C   0  0  0  0  0  0  0  0  0  0  0  0
    1.2110   -0.6035    0.3072 C   0  0  0  0  0  0  0  0  0  0  0  0
    0.0648   -1.4125    0.8550 C   0  0  0  0  0  0  0  0  0  0  0  0
   -3.6268   -0.0581    0.5445 N   0  0  0  0  0  0  0  0  0  0  0  0
    2.0385    1.2249   -1.0486 C   0  0  0  0  0  0  0  0  0  0  0  0
    2.5250   -0.8867    0.7045 C   0  0  0  0  0  0  0  0  0  0  0  0
    3.3449    0.9277   -0.6588 C   0  0  0  0  0  0  0  0  0  0  0  0
    3.5871   -0.1254    0.2191 C   0  0  0  0  0  0  0  0  0  0  0  0
   -0.5338    0.5921   -2.0889 H   0  0  0  0  0  0  0  0  0  0  0  0
   -0.5848    1.8970   -0.8770 H   0  0  0  0  0  0  0  0  0  0  0  0
   -2.6041    1.7451   -1.7820 H   0  0  0  0  0  0  0  0  0  0  0  0
   -0.9830   -1.8097   -1.0066 H   0  0  0  0  0  0  0  0  0  0  0  0
   -1.9860   -1.8622    0.4352 H   0  0  0  0  0  0  0  0  0  0  0  0
   -0.1742   -1.0368    1.8575 H   0  0  0  0  0  0  0  0  0  0  0  0
    0.3558   -2.4653    0.9470 H   0  0  0  0  0  0  0  0  0  0  0  0
   -3.2331   -0.0489    1.4760 H   0  0  0  0  0  0  0  0  0  0  0  0
   -4.5142    0.4347    0.5256 H   0  0  0  0  0  0  0  0  0  0  0  0
    1.8669    2.0537   -1.7322 H   0  0  0  0  0  0  0  0  0  0  0  0
    2.7269   -1.7028    1.3946 H   0  0  0  0  0  0  0  0  0  0  0  0
    4.1735    1.5208   -1.0373 H   0  0  0  0  0  0  0  0  0  0  0  0
    4.6041   -0.3526    0.5281 H   0  0  0  0  0  0  0  0  0  0  0  0
  2  1  1  0
  3  1  1  0
  4  3  1  0
  5  2  2  3
  6  1  1  0
  7  8  1  0
  8  6  1  0
  9  2  1  0
 10  4  2  0
 11  7  2  0
 12 10  1  0
 13 11  1  0
  4  7  1  0
 12 13  2  0
  3 14  1  0
  3 15  1  0
  5 16  1  0
  6 17  1  0
  6 18  1  0
  8 19  1  0
  8 20  1  0
  9 21  1  0
  9 22  1  0
 10 23  1  0
 11 24  1  0
 12 25  1  0
 13 26  1  0
M  END
$$$$
