
     RDKit          3D

 26 27  0  0  0  0  0  0  0  0999 V2000
   -1.3467    0.3907   -0.5985 N   0  0  0  0  0  0  0  0  0  0  0  0
   -2.6563    0.7324   -0.7926 C   0  0  0  0  0  0  0  0  0  0  0  0
   -0.9581   -0.1507    0.7210 C   0  0  0  0  0  0  0  0  0  0  0  0
    0.5348   -0.3534    0.8944 C   0  0  0  0  0  0  0  0  0  0  0  0
   -3.4048    0.4716   -1.8045 N   0  0  0  0  0  0  0  0  0  0  0  0
   -0.5368   -0.1262   -1.7068 C   0  0  0  0  0  0  0  0  0  0  0  0
    1.4375   -0.1834   -0.1680 C   0  0  0  0  0  0  0  0  0  0  0  0
    0.9298    0.2553   -1.5134 C   0  0  0  0  0  0  0  0  0  0  0  0
   -3.2031    1.4652    0.1997 N   0  0  0  0  0  0  0  0  0  0  0  0
    1.0275   -0.7455    2.1499 C   0  0  0  0  0  0  0  0  0  0  0  0
    2.8104   -0.3717    0.0423 C   0  0  0  0  0  0  0  0  0  0  0  0
    2.3939   -0.9455    2.3484 C   0  0  0  0  0  0  0  0  0  0  0  0
    3.2848   -0.7555    1.2956 C   0  0  0  0  0  0  0  0  0  0  0  0
   -1.4574   -1.1170    0.8663 H   0  0  0  0  0  0  0  0  0  0  0  0
   -1.2861    0.5296    1.5160 H   0  0  0  0  0  0  0  0  0  0  0  0
   -2.8973   -0.1021   -2.4759 H   0  0  0  0  0  0  0  0  0  0  0  0
   -0.8617    0.3023   -2.6623 H   0  0  0  0  0  0  0  0  0  0  0  0
   -0.6551   -1.2151   -1.7753 H   0  0  0  0  0  0  0  0  0  0  0  0
    1.5245   -0.2042   -2.3114 H   0  0  0  0  0  0  0  0  0  0  0  0
    1.0465    1.3435   -1.5877 H   0  0  0  0  0  0  0  0  0  0  0  0
   -4.1029    1.8183   -0.1107 H   0  0  0  0  0  0  0  0  0  0  0  0
   -2.5987    2.2258    0.4830 H   0  0  0  0  0  0  0  0  0  0  0  0
    0.3446   -0.8941    2.9841 H   0  0  0  0  0  0  0  0  0  0  0  0
    3.5170   -0.2203   -0.7705 H   0  0  0  0  0  0  0  0  0  0  0  0
    2.7633   -1.2456    3.3256 H   0  0  0  0  0  0  0  0  0  0  0  0
    4.3502   -0.9043    1.4512 H   0  0  0  0  0  0  0  0  0  0  0  0
  2  1  1  0
  3  1  1  0
  4  3  1  0
  5  2  2  3
  6  1  1  0
  7  8  1  0
  8  6  1  0
  9  2  1  0
 10  4  2  0
 11  7  2  0
 12 10  1  0
 13 11  1  0
  4  7  1  0
 12 13  2  0
  3 14  1  0
  3 15  1  0
  5 16  1  0
  6 17  1  0
  6 18  1  0
  8 19  1  0
  8 20  1  0
  9 21  1  0
  9 22  1  0
 10 23  1  0
 11 24  1  0
 12 25  1  0
 13 26  1  0
M  END
$$$$
