
     RDKit          3D

 26 27  0  0  0  0  0  0  0  0999 V2000
    1.4935    0.2575   -0.1659 N   0  0  0  0  0  0  0  0  0  0  0  0
    2.8355    0.4229    0.0369 C   0  0  0  0  0  0  0  0  0  0  0  0
    0.6117    0.2151    1.0198 C   0  0  0  0  0  0  0  0  0  0  0  0
   -0.8326   -0.1264    0.7082 C   0  0  0  0  0  0  0  0  0  0  0  0
    3.6438    1.2043   -0.5864 N   0  0  0  0  0  0  0  0  0  0  0  0
    0.8446    0.8076   -1.3607 C   0  0  0  0  0  0  0  0  0  0  0  0
   -1.3039   -0.2364   -0.6102 C   0  0  0  0  0  0  0  0  0  0  0  0
   -0.3507   -0.0563   -1.7589 C   0  0  0  0  0  0  0  0  0  0  0  0
    3.3652   -0.3682    0.9931 N   0  0  0  0  0  0  0  0  0  0  0  0
   -1.7320   -0.3159    1.7704 C   0  0  0  0  0  0  0  0  0  0  0  0
   -2.6453   -0.5644   -0.8497 C   0  0  0  0  0  0  0  0  0  0  0  0
   -3.0695   -0.6278    1.5245 C   0  0  0  0  0  0  0  0  0  0  0  0
   -3.5247   -0.7549    0.2151 C   0  0  0  0  0  0  0  0  0  0  0  0
    0.9754   -0.5370    1.7300 H   0  0  0  0  0  0  0  0  0  0  0  0
    0.6366    1.1953    1.5127 H   0  0  0  0  0  0  0  0  0  0  0  0
    3.1329    1.7661   -1.2652 H   0  0  0  0  0  0  0  0  0  0  0  0
    1.5360    0.8193   -2.2116 H   0  0  0  0  0  0  0  0  0  0  0  0
    0.5363    1.8437   -1.1708 H   0  0  0  0  0  0  0  0  0  0  0  0
   -0.0062   -1.0473   -2.0795 H   0  0  0  0  0  0  0  0  0  0  0  0
   -0.8627    0.4145   -2.6062 H   0  0  0  0  0  0  0  0  0  0  0  0
    4.3775   -0.3062    0.9465 H   0  0  0  0  0  0  0  0  0  0  0  0
    3.0608   -1.3286    0.8983 H   0  0  0  0  0  0  0  0  0  0  0  0
   -1.3909   -0.2241    2.7997 H   0  0  0  0  0  0  0  0  0  0  0  0
   -3.0116   -0.6727   -1.8681 H   0  0  0  0  0  0  0  0  0  0  0  0
   -3.7549   -0.7754    2.3550 H   0  0  0  0  0  0  0  0  0  0  0  0
   -4.5649   -1.0047    0.0228 H   0  0  0  0  0  0  0  0  0  0  0  0
  2  1  1  0
  3  1  1  0
  4  3  1  0
  5  2  2  3
  6  1  1  0
  7  8  1  0
  8  6  1  0
  9  2  1  0
 10  4  2  0
 11  7  2  0
 12 10  1  0
 13 11  1  0
  4  7  1  0
 12 13  2  0
  3 14  1  0
  3 15  1  0
  5 16  1  0
  6 17  1  0
  6 18  1  0
  8 19  1  0
  8 20  1  0
  9 21  1  0
  9 22  1  0
 10 23  1  0
 11 24  1  0
 12 25  1  0
 13 26  1  0
M  END
$$$$
